20
gdb 87879	3.26161	1.21293	1.19317	2.5842	78.47	-0.2167	0.0666	0.2833	1163.1556	0.170687	-403.084629	-403.076349	-403.075405	-403.117691	31.836	
C	-0.0457493887	 1.5984735643	 0.2233442752	-0.417183
C	-0.1429939452	 0.096325824	 0.2831417245	-0.024601
O	 0.9879969093	-0.648838588	-0.2034464643	-0.291527
C	 0.6867206847	-0.7177621227	 1.1778069035	 0.416246
C	 1.6653740187	-0.3370805697	 2.2952775237	-0.27454
N	 1.2961053633	-1.5723299532	 3.0586164438	-0.127115
C	 0.0912981963	-1.3818728738	 3.9342882755	-0.163588
C	-0.8448378451	-2.0142455917	 2.8693383983	-0.247355
C	 0.3774957426	-2.0161411365	 1.927492493	-0.07866
H	 0.9287835232	 1.9418395397	 0.5800385369	 0.129037
H	-0.1781854673	 1.9527965671	-0.8041168946	 0.132402
H	-0.8261109596	 2.0581096507	 0.8398749275	 0.121398
H	-1.102335957	-0.3225118421	-0.0287056573	 0.090117
H	 2.7119046287	-0.3597953456	 1.9745486876	 0.120042
H	 1.4789193925	 0.6024532142	 2.8286084318	 0.103136
H	 0.1732371009	-1.9311309862	 4.8763389974	 0.109525
H	-0.1172497973	-0.3307507802	 4.1674648082	 0.09714
H	-1.1904170484	-3.0166124875	 3.1300720364	 0.112339
H	-1.7040635036	-1.4207357548	 2.5481118575	 0.1038
H	 0.6270179622	-2.9365283279	 1.3921393856	 0.089389
68.3818	133.2373	175.8134	195.2179	241.8181	380.1083	419.0723	445.0098	477.4903	546.6217	716.8703	753.7041	788.0383	798.8832	873.7694	903.1867	923.8765	956.2714	967.4472	976.1168	1003.0041	1029.8203	1068.3761	1118.447	1123.8759	1143.931	1163.8637	1194.7644	1195.1509	1204.0371	1225.4185	1262.0276	1277.2076	1304.878	1324.389	1353.9309	1409.0295	1471.4791	1481.2291	1485.1501	1489.7016	1513.2521	1519.5662	3025.2262	3030.5751	3036.2093	3064.074	3072.5951	3079.4548	3081.9719	3083.4824	3100.3475	3121.2365	3124.1687
CC1OC11CN2CCC12	C[C@H]1O[C@]21CN1CC[C@@H]21	
InChI=1S/C7H11NO/c1-5-7(9-5)4-8-3-2-6(7)8/h5-6H,2-4H2,1H3	InChI=1S/C7H11NO/c1-5-7(9-5)4-8-3-2-6(7)8/h5-6H,2-4H2,1H3/t5-,6+,7+/m1/s1
