18
gdb 41063	3.92714	1.87001	1.65765	1.7224	77.81	-0.2227	0.0726	0.2953	858.1644	0.150219	-364.683743	-364.677861	-364.676917	-364.713503	26.044	
C	-0.0220953639	 1.4688158722	 0.2451538498	-0.263415
C	 1.4896164586	 1.5939681033	-0.1888620998	-0.35426
C	 1.2485609733	 0.2675143687	-0.8936737718	 0.402896
C	 0.0539083656	-0.0874402906	-0.0013037887	-0.039991
C	-0.4568262184	-0.815273063	-1.2536122947	-0.111173
C	 0.7238686611	-1.8006783163	-1.5946735506	-0.054626
C	 1.2778258935	-0.9479206761	-2.6706528194	-0.062428
C	 0.3425256416	 0.1786691496	-2.1758324934	-0.13132
N	 1.9793782409	-0.9674780613	-1.3541713789	-0.223486
H	-0.247679881	 1.7579960772	 1.2720511008	 0.107788
H	-0.7023039906	 1.9969959738	-0.4257092515	 0.110795
H	 1.7945211155	 2.455541275	-0.7885529058	 0.100363
H	 2.1544240656	 1.4981168442	 0.6752990233	 0.114121
H	 0.2069012582	-0.6600314136	 0.9166890545	 0.074483
H	-1.4694849227	-1.1716039014	-1.4441490741	 0.068777
H	 0.796929883	-2.8676976026	-1.4257220126	 0.096163
H	 1.7633716478	-1.1739031997	-3.6127031679	 0.092482
H	-0.0774202084	 1.0150222208	-2.7269604595	 0.072831
254.6336	276.5136	360.2977	523.7289	544.842	672.9474	713.1447	726.665	787.123	795.3433	831.9588	852.3777	855.7495	871.6237	873.352	899.0451	905.2643	940.0797	997.9292	1010.8097	1033.7616	1044.7301	1068.3572	1087.967	1122.4718	1150.2962	1167.3488	1183.935	1188.2164	1208.3725	1219.4424	1241.0653	1253.2695	1269.5464	1298.7096	1307.7594	1342.4448	1476.0866	1490.7462	3050.7808	3078.3547	3080.0032	3105.1858	3109.9273	3137.7791	3155.3339	3177.64	3195.6104
C1CC23C1C1C4C(C21)N34	C1C[C@@]23[C@@H]1[C@@H]1[C@H]4[C@@H]([C@H]21)N34	
InChI=1S/C8H9N/c1-2-8-3(1)4-5(8)7-6(4)9(7)8/h3-7H,1-2H2	InChI=1S/C8H9N/c1-2-8-3(1)4-5(8)7-6(4)9(7)8/h3-7H,1-2H2/t3-,4-,5+,6-,7+,8+,9?/m0/s1
