16
gdb 49254	3.40271	1.25924	0.94057	3.8575	74.7	-0.2531	-0.0611	0.192	1192.6747	0.124056	-437.888212	-437.880021	-437.879076	-437.92186	29.283	
O	-1.0213254078	 1.2712376514	 0.2256760292	-0.245531
C	 0.1350353682	 0.9959019478	 0.4009978455	 0.136175
C	 1.2973406721	 1.8669754357	-0.0180316637	 0.279565
N	 2.4444499539	 1.3875803988	 0.2240039092	-0.286967
C	 3.724395028	 2.0269691657	 0.0452368992	-0.211596
C	 3.9138974902	 3.279421225	-0.761820584	-0.043341
C	 3.0218605753	 3.965561235	-1.4672257259	-0.088923
C	 1.5665821898	 3.653043225	-1.6386767402	-0.140122
O	 0.8897305981	 3.0430130599	-0.5368753177	-0.241421
H	 0.4778284597	 0.0644473654	 0.8928936548	 0.100365
H	 4.11078499	 2.2052160149	 1.0619681796	 0.142488
H	 4.4097824165	 1.263895063	-0.3552014106	 0.135802
H	 4.9453098781	 3.6292559052	-0.7612111464	 0.097896
H	 3.3559894304	 4.8373669707	-2.0250921109	 0.101385
H	 1.006219369	 4.5752480501	-1.8142835643	 0.134374
H	 1.4191124085	 3.0174601165	-2.5245960237	 0.129851
52.3515	105.8473	124.7108	206.0606	279.8586	340.7092	362.9516	415.4895	549.5423	605.7132	668.8909	751.5754	778.0732	838.1069	900.8263	943.428	965.3469	1012.401	1030.2885	1038.1383	1095.9987	1112.5636	1246.7795	1254.9986	1279.2825	1294.7492	1380.4133	1390.6884	1413.1273	1424.7839	1444.5406	1489.8568	1744.6788	1759.6846	1831.8949	2950.3837	2986.5676	2998.3435	2999.3575	3090.6085	3133.4261	3161.2504
O=CC1=NCC=CCO1	O=CC1=NCC=CCO1	
InChI=1S/C6H7NO2/c8-5-6-7-3-1-2-4-9-6/h1-2,5H,3-4H2	InChI=1S/C6H7NO2/c8-5-6-7-3-1-2-4-9-6/h1-2,5H,3-4H2
