20
gdb 54909	3.46969	0.95263	0.89357	3.819	77.67	-0.2331	0.0339	0.267	1393.4971	0.16817	-440.307821	-440.297585	-440.296641	-440.34387	36.467	
C	-0.1153212266	 1.4482204159	 0.3644533007	-0.488391
C	-0.0166556908	-0.0633254501	 0.2304877919	 0.367578
O	 1.0198790598	-0.686955598	 0.3804330889	-0.367968
N	-1.1874151788	-0.6930679826	-0.0622145854	-0.069525
C	-2.496132063	-0.2392925104	-0.5353448056	-0.218451
C	-2.8654811246	-1.726545082	-0.8073901572	 0.386412
C	-3.9202612026	-2.3136830764	 0.118403414	-0.45414
O	-3.2039141607	-1.8909255374	-2.1675049276	-0.467638
C	-1.3855999591	-2.0906959591	-0.4349960985	-0.219735
H	 0.8415892357	 1.8282011141	 0.7209576145	 0.146534
H	-0.3436538173	 1.9077119502	-0.6037178141	 0.137655
H	-0.9086065601	 1.7388607942	 1.0605640961	 0.131902
H	-3.1057073063	 0.2803006949	 0.2123335765	 0.10958
H	-2.4637964759	 0.35136135	-1.4577882559	 0.122256
H	-4.8998121656	-1.8737485696	-0.0923153428	 0.129391
H	-3.9931394179	-3.3997414841	-0.0187362145	 0.114373
H	-3.6708843478	-2.1298936026	 1.1677188509	 0.130116
H	-3.4103990285	-2.8198612103	-2.3182309136	 0.280683
H	-0.7856516236	-2.4005894337	-1.2974804458	 0.116879
H	-1.2416489264	-2.801945093	 0.3848222178	 0.112489
37.7527	78.2445	100.4616	132.4666	155.1625	258.1858	265.2776	317.0729	324.502	396.9135	429.0503	451.0125	555.8489	594.7658	624.3184	720.8064	885.2855	888.8395	935.3013	956.4435	970.178	976.0777	1050.1456	1093.0296	1121.3581	1135.5613	1160.5692	1195.54	1205.8323	1275.8943	1290.6555	1315.7097	1379.6171	1390.1204	1410.4171	1447.0078	1472.2971	1482.9056	1489.4089	1493.4003	1499.9882	1518.866	1768.8432	3023.9823	3025.892	3037.1325	3040.794	3075.049	3085.695	3094.2243	3101.7668	3116.848	3160.8371	3804.5367
CC(=O)N1CC(C)(O)C1	CC(=O)N1CC(C)(O)C1	
InChI=1S/C6H11NO2/c1-5(8)7-3-6(2,9)4-7/h9H,3-4H2,1-2H3	InChI=1S/C6H11NO2/c1-5(8)7-3-6(2,9)4-7/h9H,3-4H2,1-2H3
