18
gdb 63353	2.75545	1.44177	1.20107	2.3598	72.86	-0.2756	-0.027	0.2485	1088.2206	0.14702	-439.143753	-439.135277	-439.134333	-439.176607	32.316	
C	-0.0301276484	 1.5638782422	-0.0405271686	-0.408459
C	 0.0095917396	 0.032120931	 0.0120972002	 0.238993
C	-1.417272561	-0.5308766435	 0.151062792	-0.403852
C	 0.7032536856	-0.5227668036	-1.2513805079	-0.369532
C	 1.0428368956	-1.9858779512	-1.1130706247	 0.425632
O	 0.9739519534	-2.8235971679	-1.9602967304	-0.300787
O	 1.5230057324	-2.3380182403	 0.1364999332	-0.21641
C	 1.4267153002	-1.4294447095	 1.1720294729	 0.121532
N	 0.7698949349	-0.358475195	 1.2099469716	-0.251431
H	 0.9821864684	 1.9759152641	-0.0867243731	 0.119129
H	-0.5863597073	 1.9082301317	-0.9182646537	 0.114064
H	-0.5133772413	 1.9573554911	 0.857540194	 0.128877
H	-2.044971993	-0.188335023	-0.6775546667	 0.121305
H	-1.4195117677	-1.6255261792	 0.1508787592	 0.129211
H	-1.8630336706	-0.1920547963	 1.0895690233	 0.134021
H	 0.1004107923	-0.3957423404	-2.1524961101	 0.136778
H	 1.649628429	 0.0130731755	-1.403822795	 0.137959
H	 2.0010989881	-1.7884646457	 2.0218357738	 0.14297
99.5948	114.4135	225.1046	256.3999	279.183	318.3364	344.3634	382.2784	447.8222	489.1473	546.6502	590.0726	631.9086	738.8101	811.7427	881.9814	889.8626	926.7337	949.7229	958.8839	995.9842	1035.7825	1082.6788	1125.8231	1177.9053	1214.5739	1254.1085	1277.2109	1331.9564	1399.3159	1403.8272	1421.6384	1457.4576	1478.6509	1485.7119	1497.3013	1506.784	1739.5878	1885.0492	3031.6069	3037.1438	3041.7632	3108.1601	3112.3595	3120.1314	3121.5174	3126.5338	3180.6121
CC1(C)CC(=O)OC=N1	CC1(C)CC(=O)OC=N1	
InChI=1S/C6H9NO2/c1-6(2)3-5(8)9-4-7-6/h4H,3H2,1-2H3	InChI=1S/C6H9NO2/c1-6(2)3-5(8)9-4-7-6/h4H,3H2,1-2H3
