21
gdb 122049	3.26281	0.69261	0.62298	5.5534	83.63	-0.2401	-0.0169	0.2232	1857.2912	0.181123	-420.431087	-420.420471	-420.419527	-420.46818	36.597	
C	-0.0054372445	 1.5426677099	 0.0447865769	-0.381274
C	 0.0414026543	 0.013546373	-0.0164304416	-0.165268
C	 0.7297031367	-0.5121865712	-1.280349732	-0.1606
C	 0.7668185244	-2.0430766864	-1.3392418308	-0.216367
N	 1.4277728907	-2.5675410168	-2.5383279715	-0.051104
C	 2.8265168782	-2.6314793773	-2.5208576277	 0.089653
N	 3.551109617	-2.9427241161	-3.5124970683	-0.415284
C	 0.6302285409	-2.9319662617	-3.6221350233	 0.162458
O	 0.9968141974	-3.3421892132	-4.6890553917	-0.272847
H	 1.002958623	 1.9701796414	 0.0289335259	 0.118564
H	-0.5529690313	 1.955604229	-0.8092209517	 0.120262
H	-0.500153106	 1.88852055	 0.9572598755	 0.117367
H	 0.5625070388	-0.373737339	 0.8692708793	 0.099097
H	-0.9797640239	-0.3871870474	 0.0342046423	 0.100761
H	 0.2140328627	-0.136016	-2.1732879417	 0.109875
H	 1.7555183818	-0.124578363	-1.3346533579	 0.105451
H	 1.2773682519	-2.4448233688	-0.4567827798	 0.120215
H	-0.2516839267	-2.4426332884	-1.3140446818	 0.12394
H	 3.2061569625	-2.3798471852	-1.5221922187	 0.092473
H	 4.5305264613	-2.933808535	-3.2298736057	 0.22887
H	-0.4409494693	-2.8003988241	-3.3640191856	 0.073761
43.4545	77.5421	81.3269	105.7723	132.9517	206.5612	230.7485	247.2383	269.6158	347.671	406.6204	441.254	511.9282	726.5234	736.326	793.2666	824.1999	910.383	915.1511	941.6931	1015.9752	1020.8272	1063.0777	1066.1915	1117.7706	1131.5561	1191.6248	1224.8809	1252.0176	1295.3063	1317.7291	1332.1073	1386.322	1408.1391	1416.8018	1417.6974	1441.5661	1459.5133	1485.4899	1493.2025	1500.7603	1504.8777	1513.8062	1715.1034	1841.1134	2911.9343	3012.6123	3021.0414	3026.4198	3033.9592	3038.0938	3045.2634	3061.1347	3091.4145	3101.5058	3107.4083	3489.476
CCCCN(C=N)C=O	CCCCN(C=N)C=O	
InChI=1S/C6H12N2O/c1-2-3-4-8(5-7)6-9/h5-7H,2-4H2,1H3	InChI=1S/C6H12N2O/c1-2-3-4-8(5-7)6-9/h5-7H,2-4H2,1H3
