17
gdb 83193	3.35197	1.28977	1.1332	5.0126	67.54	-0.2479	0.0217	0.2696	1086.1244	0.13751	-458.982587	-458.97499	-458.974046	-459.014712	29.561	
O	 0.3945550648	 1.2768633356	-0.0169221084	-0.407673
C	 0.0916746735	-0.0855856893	-0.0106749545	 0.070804
C	-0.4636260155	-0.6574351884	 1.264390879	-0.08775
C	-0.89196531	 0.2740086624	 2.3773742537	-0.107503
O	-2.3200196282	 0.232072167	 2.598452153	-0.224557
C	-3.1451125823	 0.3858376275	 1.5354288894	 0.42837
O	-4.3332277611	 0.4417191672	 1.703044171	-0.334557
C	-2.4695413524	 0.4672414777	 0.1715304662	-0.379378
C	-1.3459106753	-0.5490918739	 0.030385642	-0.090069
H	 0.2960377212	 1.6045639645	-0.9175433676	 0.29655
H	 0.7969262515	-0.7110652699	-0.5558861722	 0.098157
H	-0.1164968993	-1.6393736807	 1.5649858192	 0.102314
H	-0.4586861025	-0.0170023234	 3.3350504144	 0.126804
H	-0.5910174177	 1.3030868363	 2.1635954417	 0.1397
H	-3.2457920532	 0.334530704	-0.5819999375	 0.13414
H	-2.0667997526	 1.4818773926	 0.0590816995	 0.13236
H	-1.5922898509	-1.4641008193	-0.4972171991	 0.102287
93.2897	171.3035	209.9033	292.3826	315.4644	429.1721	444.7185	473.6929	554.2552	606.647	619.9923	730.5649	787.9556	796.7785	848.9662	896.5165	958.6973	978.6127	1026.4874	1032.7482	1063.0816	1113.8371	1131.5081	1163.4577	1182.2224	1237.4754	1255.1081	1272.0438	1299.0681	1308.28	1357.2603	1381.3573	1417.105	1454.4593	1467.0935	1514.7211	1849.2283	3036.6776	3072.7099	3111.9504	3125.7773	3132.3216	3165.0246	3175.9008	3804.287
OC1C2COC(=O)CC12	O[C@H]1[C@H]2COC(=O)C[C@@H]12	
InChI=1S/C6H8O3/c7-5-1-3-4(2-9-5)6(3)8/h3-4,6,8H,1-2H2	InChI=1S/C6H8O3/c7-5-1-3-4(2-9-5)6(3)8/h3-4,6,8H,1-2H2/t3-,4+,6-/m1/s1
