19
gdb 78284	2.26905	1.71362	1.58669	2.5767	74.68	-0.2362	0.0632	0.2994	984.5705	0.158274	-422.975621	-422.96703	-422.966086	-423.008084	33.93	
C	-0.026840081	 1.5235018457	 0.0926479946	-0.494579
C	-0.0554763817	 0.0203168719	 0.0413112216	 0.289403
C	 1.170106066	-0.8177011561	-0.2914492317	-0.39821
C	 0.5082455226	-0.9748485129	 1.0529504567	 0.315968
O	 1.1136347057	-0.5922940637	 2.2495971027	-0.469971
C	-0.7338325419	-1.8278661393	 0.9849937405	-0.202772
C	-1.9295230341	-0.9918213092	 1.3200227246	 0.112909
O	-1.9197116462	-0.0096878671	 2.315849412	-0.440749
C	-1.314714918	-0.8128798161	-0.0472428309	-0.156842
H	 0.9357952911	 1.8845623587	 0.4687170526	 0.119451
H	-0.1793681377	 1.9571812726	-0.9023911933	 0.116005
H	-0.8149169098	 1.8968557065	 0.7524481641	 0.138875
H	 1.1278135579	-1.6126019549	-1.0316044628	 0.102505
H	 2.106743543	-0.2676227068	-0.2680555377	 0.112175
H	 1.7202998255	-1.2861213945	 2.5311182574	 0.28956
H	-0.7561399819	-2.9121565573	 0.9478684038	 0.082975
H	-2.8781507215	-1.5250787946	 1.3085291221	 0.098058
H	-1.0454535985	-0.0104135041	 2.723261678	 0.300825
H	-1.8524367693	-1.0563859788	-0.9578614443	 0.084414
148.3691	165.8762	176.5864	210.5907	269.7463	320.157	363.245	390.9482	434.2413	502.5098	551.0315	573.6828	696.814	718.3253	765.6289	796.7451	839.0888	851.9066	958.3522	970.8208	977.5689	988.9254	999.2492	1064.3857	1074.2768	1081.6728	1112.9098	1158.6088	1186.33	1232.6491	1253.499	1269.8027	1321.164	1340.7816	1359.7253	1403.6661	1418.8725	1445.4348	1486.39	1497.8539	1508.0683	3030.9383	3092.1422	3107.3033	3117.2885	3132.8349	3157.1545	3169.5288	3196.9618	3790.6809	3792.9717
CC12CC1(O)C1C(O)C21	C[C@@]12C[C@]1(O)[C@H]1[C@@H](O)[C@@H]21	
InChI=1S/C7H10O2/c1-6-2-7(6,9)4-3(6)5(4)8/h3-5,8-9H,2H2,1H3	InChI=1S/C7H10O2/c1-6-2-7(6,9)4-3(6)5(4)8/h3-5,8-9H,2H2,1H3/t3-,4+,5-,6-,7-/m0/s1
