19
gdb 30097	3.62487	1.21674	1.02785	2.4031	83.52	-0.1724	0.0582	0.2305	1202.074	0.160499	-382.07549	-382.067094	-382.066149	-382.108907	32.241	
C	-0.586880637	 1.3640099185	-0.0731849516	-0.407288
C	-0.1288619525	-0.0720081014	 0.0152797526	 0.023754
C	 1.2349772022	-0.461785742	-0.4403604333	-0.267827
N	 0.8850112397	-0.5166328048	 0.9816332847	-0.172661
C	 1.4755703913	 0.3808245356	 1.8825425318	 0.338767
C	 0.9359425287	 1.1196551047	 2.9145607144	-0.233382
C	 2.0215171838	 1.7449212677	 3.5972192815	-0.132068
C	 3.1834260295	 1.3677269816	 2.9740568574	-0.105317
N	 2.839457004	 0.5418580711	 1.9223325503	-0.291518
H	 0.2473521889	 2.061778229	 0.0286355816	 0.134722
H	-1.0693509758	 1.5370945583	-1.0409992181	 0.119928
H	-1.3136979861	 1.5973610832	 0.7114009161	 0.128787
H	-0.9227201205	-0.8070450077	-0.1056335935	 0.09582
H	 1.4173172514	-1.4216491792	-0.9159377978	 0.117152
H	 1.8859538509	 0.3465159003	-0.7710932383	 0.112807
H	-0.1132202116	 1.1913006669	 3.153110327	 0.084192
H	 1.9475179545	 2.4022275388	 4.4501065947	 0.087982
H	 4.2142983175	 1.6113017572	 3.1713619861	 0.109137
H	 3.4832572212	 0.0589733322	 1.3207039246	 0.257011
43.0103	129.5406	164.7799	210.3886	282.4546	376.1412	403.6425	445.9775	531.7585	573.6021	622.1188	653.108	705.2166	773.0433	798.3667	836.8072	861.6098	896.0802	913.0722	963.3829	1012.5287	1042.1644	1049.1572	1105.9311	1122.3494	1124.3028	1145.8247	1162.5699	1192.0005	1232.6243	1281.3434	1344.9229	1399.0408	1420.3939	1425.823	1467.5027	1482.1942	1493.623	1506.9414	1519.4032	1614.5987	3039.8053	3091.1136	3101.3159	3113.5839	3133.6107	3180.2707	3243.0997	3259.5821	3274.9659	3684.0542
CC1CN1C1=CC=CN1	C[C@H]1CN1c1ccc[nH]1	
InChI=1S/C7H10N2/c1-6-5-9(6)7-3-2-4-8-7/h2-4,6,8H,5H2,1H3	InChI=1S/C7H10N2/c1-6-5-9(6)7-3-2-4-8-7/h2-4,6,8H,5H2,1H3/t6-,9?/m0/s1
