21
gdb 86400	2.55	1.45673	1.23256	2.5105	78.94	-0.2222	0.0677	0.29	1135.9309	0.181888	-424.219633	-424.21066	-424.209716	-424.253269	34.932	
C	 0.7412187032	 1.3830785665	-0.0994225522	-0.394201
C	 0.0350302282	 0.032772508	-0.0158068854	 0.142723
C	 0.3552917332	-0.9235842913	-1.186255378	-0.284232
C	 1.4948571954	-1.792595316	-0.6303924713	 0.021173
O	 2.7707475211	-1.164082285	-0.7336417977	-0.431915
C	 1.1117131912	-1.8592548044	 0.8302161985	 0.488323
C	 0.6168054001	-3.1330953256	 1.4686309708	-0.344276
C	 1.9447311825	-2.5149145203	 1.8766240522	-0.324522
O	 0.4695288016	-0.6522997441	 1.1713592246	-0.31973
H	 1.8169498561	 1.2340080796	-0.2212795889	 0.133318
H	 0.3616198201	 1.9663528869	-0.9458378669	 0.101246
H	 0.5680245485	 1.9553698512	 0.8163186608	 0.121025
H	-1.0479417243	 0.1904110721	 0.0674830248	 0.07265
H	-0.507165268	-1.5581224	-1.4137976669	 0.107377
H	 0.635823439	-0.394787192	-2.1017474656	 0.092464
H	 1.5215355797	-2.7901060268	-1.0883613973	 0.067895
H	 2.9563586826	-1.0295073026	-1.6687806735	 0.281491
H	-0.2096394214	-3.0324143724	 2.1630931428	 0.11807
H	 0.6247470177	-4.0537114715	 0.8935575727	 0.106274
H	 2.8669777208	-2.995226529	 1.5696820402	 0.121243
H	 1.9870983425	-2.0187115933	 2.8394211565	 0.123605
47.6957	127.4938	212.9219	251.1091	259.6976	305.8384	337.443	364.0647	379.2526	417.458	542.874	558.7226	737.5502	764.5187	795.5694	831.1467	871.4769	892.5107	901.1073	935.1049	963.1188	983.6046	1010.4618	1036.5403	1048.178	1069.8216	1074.2297	1125.478	1146.6855	1188.8293	1190.2284	1225.4975	1254.349	1292.643	1325.7601	1355.4496	1366.3159	1388.7939	1407.9648	1438.6647	1452.6607	1478.503	1490.2524	1501.8541	1503.5994	3013.5024	3013.8639	3036.387	3054.9525	3098.7951	3107.8409	3126.7031	3133.1956	3140.2803	3215.9829	3232.8216	3812.1646
CC1CC(O)C2(CC2)O1	C[C@H]1C[C@@H](O)C2(CC2)O1	
InChI=1S/C7H12O2/c1-5-4-6(8)7(9-5)2-3-7/h5-6,8H,2-4H2,1H3	InChI=1S/C7H12O2/c1-5-4-6(8)7(9-5)2-3-7/h5-6,8H,2-4H2,1H3/t5-,6+/m0/s1
