17
gdb 128685	3.24386	1.25578	0.91647	1.3699	72.51	-0.1967	0.0491	0.2458	1241.9022	0.137521	-451.32711	-451.317714	-451.31677	-451.360987	33.973	
C	-0.0650278777	 1.3681194673	 0.0257218578	-0.232621
O	-0.0242032544	-0.0550187341	 0.0226799622	-0.273441
C	-1.2216348636	-0.6694222576	 0.0398619978	 0.419266
N	-2.3730600293	-0.0223960359	 0.0469429805	-0.345945
N	-3.3067043984	-1.0343381761	 0.0264866879	-0.305287
C	-2.7428768975	-2.2648664944	 0.0316004231	 0.406946
N	-3.4710420686	-3.4479432623	 0.0997534597	-0.605288
C	-1.3717714592	-2.0833674943	 0.0249694688	-0.061033
N	-0.4208730119	-3.1394746563	-0.0208161124	-0.635087
H	 0.9742296796	 1.7002210954	 0.0050131394	 0.120959
H	-0.601802951	 1.7470241049	-0.850370465	 0.130834
H	-0.5642580687	 1.7445571597	 0.9249019427	 0.130569
H	-4.2681095268	-0.8038594975	 0.2026005558	 0.26412
H	-4.2145188779	-3.5071810133	-0.5862819068	 0.246578
H	-2.8353824024	-4.2309206801	-0.0143870494	 0.260112
H	 0.1413805104	-3.1676605465	 0.8251887876	 0.239873
H	 0.2318063476	-3.0089895987	-0.7882870797	 0.239445
90.9301	156.1939	183.9018	192.196	203.5535	242.2396	278.1117	298.6172	308.5758	357.3488	442.5858	550.9505	643.5878	664.7306	739.1125	771.2448	778.3499	823.1611	871.3371	1017.1553	1098.3537	1122.6923	1167.0785	1181.8432	1222.8847	1230.656	1286.1789	1360.3641	1437.7305	1457.2992	1476.7183	1503.7063	1553.9375	1586.3012	1627.1438	1653.8943	1693.1371	3029.9158	3094.7401	3138.6099	3484.1605	3510.7176	3542.6587	3600.5587	3689.7012
COC1=NNC(N)=C1N	COc1n[nH]c(N)c1N	
InChI=1S/C4H8N4O/c1-9-4-2(5)3(6)7-8-4/h5H2,1H3,(H3,6,7,8)	InChI=1S/C4H8N4O/c1-9-4-2(5)3(6)7-8-4/h5H2,1H3,(H3,6,7,8)
