16
gdb 16523	3.75723	2.44306	1.8935	2.0771	63.31	-0.2138	0.0777	0.2915	743.0299	0.131021	-383.692946	-383.686612	-383.685667	-383.723007	25.398	
C	 0.0371732673	 1.4516878915	 0.0235312412	-0.48163
C	-0.0313426692	-0.0454729613	-0.0082692641	 0.441644
O	 0.9460014059	-0.6439708997	-0.8378528406	-0.302385
C	 0.4545385535	-1.9268830421	-1.2423487098	-0.080634
C	-0.6773283855	-2.2063385976	-0.2669811637	 0.0546
O	-0.0828312856	-2.2104096185	 1.0707535919	-0.302549
C	-0.4593156435	-0.8424103039	 1.2180924159	 0.026472
C	-1.3206179895	-0.8213090758	-0.0248205078	-0.244068
H	 1.0300514662	 1.7806586841	 0.345186461	 0.136613
H	-0.1583458757	 1.8726064976	-0.967820535	 0.128215
H	-0.70015205	 1.8568800302	 0.7229767623	 0.121673
H	 0.1014256234	-1.8990394227	-2.285312749	 0.091487
H	 1.2618203632	-2.6596301239	-1.1516726511	 0.11969
H	-1.2946972701	-3.0854286336	-0.4544021653	 0.089392
H	-0.6001899035	-0.4532230255	 2.2209312497	 0.103118
H	-2.322425587	-0.4794039188	-0.2481922156	 0.098362
206.7934	220.3221	283.0414	311.5209	407.1445	556.4603	584.8208	706.7372	746.7085	793.9709	835.5561	860.9197	876.5344	909.4097	923.0078	960.719	1028.9174	1036.9405	1044.0278	1064.4533	1101.4371	1124.1502	1180.74	1193.5275	1219.9988	1231.4155	1292.6714	1305.0676	1375.3473	1407.7002	1428.7401	1477.8638	1499.7285	1504.1891	2983.0454	3038.2055	3086.5664	3106.2926	3114.7565	3115.0145	3169.075	3197.8418
CC12OCC3OC1C23	C[C@@]12OC[C@H]3O[C@@H]1[C@@H]23	
InChI=1S/C6H8O2/c1-6-4-3(2-7-6)8-5(4)6/h3-5H,2H2,1H3	InChI=1S/C6H8O2/c1-6-4-3(2-7-6)8-5(4)6/h3-5H,2H2,1H3/t3-,4+,5-,6+/m1/s1
