13
gdb 28981	3.12108	1.56175	1.04142	4.279	75.28	-0.2465	-0.0785	0.168	1041.2773	0.091855	-411.853017	-411.845698	-411.844753	-411.884785	27.35	
N	-0.0153639284	 1.3869268676	 0.137579467	-0.609091
C	 0.0050558437	 0.0230687523	 0.0459080984	 0.265229
C	-1.1716639148	-0.7522071801	 0.0279633001	-0.028156
N	-1.1645559064	-2.0735068674	-0.0097404785	-0.234431
C	 0.0344586914	-2.6742238171	-0.031444984	 0.040777
N	 1.2113349776	-2.066334925	-0.0278659353	-0.2982
C	 1.1975303356	-0.7284382857	 0.0075491957	 0.164428
C	 2.4502909514	-0.0276126609	-0.0016434558	 0.245355
N	 3.4065333448	 0.6253734443	-0.0144851939	-0.338983
H	 0.8343668354	 1.890053298	-0.0681613178	 0.279824
H	-0.8677910662	 1.8654790853	-0.103968191	 0.26683
H	-2.1424182553	-0.2581515003	 0.0462642224	 0.118025
H	 0.0397453411	-3.759084951	-0.0582471069	 0.128393
121.4872	142.3328	233.5758	361.0549	373.7335	414.4969	417.983	477.8479	508.8407	572.5683	631.0123	641.6288	744.6104	809.9963	880.2998	925.32	974.3558	1068.4977	1160.0116	1211.3927	1251.6851	1303.0007	1369.7583	1467.2374	1476.9243	1569.4156	1609.9675	1658.3467	2336.8441	3135.245	3189.4309	3583.7495	3697.2128
NC1=CN=CN=C1C#N	Nc1cncnc1C#N	
InChI=1S/C5H4N4/c6-1-5-4(7)2-8-3-9-5/h2-3H,7H2	InChI=1S/C5H4N4/c6-1-5-4(7)2-8-3-9-5/h2-3H,7H2
