18
gdb 27251	3.17411	1.51359	1.05242	1.7391	80.27	-0.182	0.0293	0.2112	1131.8208	0.150215	-401.976905	-401.969106	-401.968162	-402.009235	29.925	
C	 0.0836318059	 1.4894340942	 0.0750047732	-0.496403
C	-0.0752975081	 0.0131079281	 0.060591399	 0.233624
C	-1.1044290356	-0.8471957257	-0.154576086	 0.15289
N	-2.4635885233	-0.8514114741	-0.5109347796	-0.418587
C	-2.9655846988	-2.2055615613	-0.1615697646	-0.167172
C	-1.7259720965	-3.1438847035	-0.2808556225	-0.351146
C	-0.6063145188	-2.1786987972	-0.0174768979	 0.249712
C	 0.7102250595	-2.0625077262	 0.2710158939	-0.188054
O	 1.0546940963	-0.7429507221	 0.3295093588	-0.201942
H	 0.8237322023	 1.8270145025	-0.6606602651	 0.134617
H	-0.8692345189	 1.9663501982	-0.1701857868	 0.122814
H	 0.4058245695	 1.8619444525	 1.0553340979	 0.13049
H	-3.0215277787	-0.1032366758	-0.1210609005	 0.230254
H	-3.3458338538	-2.2362813403	 0.8706473036	 0.098267
H	-3.7796450232	-2.4966347629	-0.8311911472	 0.106792
H	-1.7880028751	-3.982165832	 0.4177530883	 0.114503
H	-1.6581128185	-3.5630603657	-1.2922018071	 0.121197
H	 1.5078659157	-2.7601011587	 0.4665583425	 0.128144
103.8275	149.0091	168.9634	242.664	303.5618	320.3704	502.6361	543.5119	588.4777	605.3373	658.9942	696.913	735.0476	768.8798	829.1311	875.8343	935.3281	942.1136	1029.5983	1061.648	1066.8933	1079.5819	1137.4658	1159.955	1188.644	1218.996	1252.2656	1293.4038	1315.9328	1326.0695	1412.5295	1426.9348	1443.0287	1470.5787	1487.0486	1495.7606	1519.0486	1633.7349	1723.8195	2985.4819	3017.8842	3030.7991	3063.6074	3081.1221	3093.1734	3113.1293	3270.7206	3567.2397
CC1=C2NCCC2=CO1	Cc1c2NCCc2co1	
InChI=1S/C7H9NO/c1-5-7-6(4-9-5)2-3-8-7/h4,8H,2-3H2,1H3	InChI=1S/C7H9NO/c1-5-7-6(4-9-5)2-3-8-7/h4,8H,2-3H2,1H3
