18
gdb 61864	1.93378	1.23195	0.86901	5.2453	70.01	-0.2606	0.0147	0.2753	1362.0351	0.144966	-476.287906	-476.277633	-476.276689	-476.324376	35.631	
C	-0.0708501224	 1.6618308046	 0.0956266685	-0.402745
C	-0.010595023	 0.1412554438	 0.0402386317	 0.128462
C	-1.3862961347	-0.521055278	 0.0791641571	-0.318706
C	-1.2651344993	-2.0389037266	 0.2237385936	 0.423081
N	-2.3064024424	-2.7556238658	-0.2816006331	-0.521499
O	-0.3217271474	-2.5608706411	 0.7894197077	-0.365298
O	 0.6253926498	-0.2353097809	-1.19748174	-0.205329
C	 1.7070967376	-1.0428638242	-1.1491643938	 0.164971
O	 2.2787984904	-1.397153049	-2.1364257507	-0.28392
H	 0.9360402157	 2.0844577737	 0.0465671176	 0.131628
H	-0.6483276372	 2.0590803794	-0.7446371371	 0.131252
H	-0.5396028933	 1.9932227268	 1.02721259	 0.121227
H	 0.5797171723	-0.2527973628	 0.8747141777	 0.114189
H	-1.9445329935	-0.1472369578	 0.9462155294	 0.135359
H	-1.9558175846	-0.2477276838	-0.8157004564	 0.115858
H	-3.0026002961	-2.3365149754	-0.8728566875	 0.262627
H	-2.2415428104	-3.7608466145	-0.2577541207	 0.266658
H	 1.9883002786	-1.3255395185	-0.1200426538	 0.102187
40.5062	61.7078	85.5513	152.7598	177.519	219.9486	267.0832	271.2468	303.3342	359.6487	463.7489	499.0977	521.1124	605.7595	612.2428	684.9395	846.2998	909.5899	917.649	961.9943	1033.411	1070.4669	1083.7592	1126.0752	1153.9261	1186.8214	1246.5412	1271.126	1344.6658	1384.0842	1410.1876	1413.3812	1445.7195	1450.4138	1486.6739	1499.1463	1620.3261	1790.1446	1859.6438	2996.1369	3038.3825	3044.2219	3055.8396	3086.3157	3117.7232	3123.7433	3598.6151	3733.605
CC(CC(N)=O)OC=O	C[C@@H](CC(=O)N)OC=O	
InChI=1S/C5H9NO3/c1-4(9-3-7)2-5(6)8/h3-4H,2H2,1H3,(H2,6,8)	InChI=1S/C5H9NO3/c1-4(9-3-7)2-5(6)8/h3-4H,2H2,1H3,(H2,6,8)/t4-/m0/s1
