21
gdb 103899	2.59007	0.96082	0.84813	3.939	80.47	-0.2679	0.0033	0.2712	1471.8828	0.17958	-424.241917	-424.231558	-424.230614	-424.27832	36.873	
C	 0.240468466	 1.250087946	-0.1519582012	-0.383495
C	-0.0429511167	-0.1950746539	 0.2766405676	-0.250902
C	-1.4941228953	-0.6179023976	 0.0957033014	 0.315191
C	-2.5097319001	 0.1010524251	 0.9650711397	-0.462251
C	-1.9342179276	-1.0476360847	-1.2950307117	-0.354817
C	-1.7862350653	-2.0698073993	-0.2130898195	 0.055842
O	-0.7230819122	-2.9913686194	-0.3832486995	-0.184019
C	-0.382493975	-3.7215759631	 0.6993682245	 0.17361
O	 0.4983912212	-4.527095227	 0.6801670484	-0.273274
H	 1.3028164304	 1.4843776147	-0.0355743156	 0.117913
H	-0.024523674	 1.4083598045	-1.2026837308	 0.119123
H	-0.32272103	 1.9729829511	 0.4463931732	 0.117768
H	 0.6011869653	-0.8729653035	-0.2914482776	 0.119242
H	 0.2349777279	-0.3222733005	 1.33212801	 0.095947
H	-2.5663522414	 1.1653591543	 0.7146084297	 0.127119
H	-3.5134743861	-0.3165284149	 0.8364737514	 0.114531
H	-2.2465567286	 0.0205370504	 2.0262849104	 0.118883
H	-2.9331511335	-0.8049054823	-1.6411217003	 0.117089
H	-1.1773428706	-1.0673161126	-2.0717846408	 0.131951
H	-2.6798876134	-2.5227527009	 0.2088992632	 0.10586
H	-1.008795511	-3.4958365866	 1.5839437474	 0.078687
29.5469	86.1105	113.09	126.1504	202.4849	206.2174	224.9521	280.6433	332.3261	359.5459	376.9016	466.8991	555.7656	650.0974	687.8899	789.0155	836.7965	889.0897	913.0033	956.8659	1021.3144	1032.4165	1046.9326	1059.1584	1066.7998	1094.631	1124.8367	1136.7858	1170.259	1189.2464	1258.0663	1312.5691	1331.244	1376.8026	1404.6497	1409.2905	1419.526	1432.5103	1479.935	1486.333	1495.6874	1499.3413	1507.5197	1509.9836	1867.9711	2953.871	3013.8345	3026.8923	3037.1844	3078.2159	3091.3719	3099.2322	3106.4447	3110.3902	3132.4403	3137.1094	3222.224
CCC1(C)CC1OC=O	CC[C@@]1(C)C[C@H]1OC=O	
InChI=1S/C7H12O2/c1-3-7(2)4-6(7)9-5-8/h5-6H,3-4H2,1-2H3	InChI=1S/C7H12O2/c1-3-7(2)4-6(7)9-5-8/h5-6H,3-4H2,1-2H3/t6-,7+/m1/s1
