15
gdb 13034	3.96568	1.38731	1.16203	3.3871	68.68	-0.2502	0.0241	0.2742	1025.6405	0.118011	-362.645939	-362.63796	-362.637016	-362.679197	28.214	
O	-0.0631502381	-0.0078755684	-0.5006866629	-0.366677
C	-0.0723964903	 1.1594045345	-0.2128309746	 0.412118
C	-1.130496297	 2.2510295785	 0.0722230915	-0.370189
C	 0.0794532931	 3.1936890904	 0.3356933189	-0.16873
N	 0.9470300867	 2.0608171882	-0.0023020614	-0.06572
C	 2.3797426931	 1.872374993	 0.0501360366	-0.318847
C	 2.9476692445	 2.1566429867	 1.3684546942	 0.303833
C	 3.4007785285	 2.4170413589	 2.4501320646	-0.449966
H	-1.7538864831	 2.509521793	-0.78514867	 0.135009
H	-1.7618508511	 2.0432884647	 0.9376045942	 0.137185
H	 0.1750795576	 4.0455547426	-0.345794944	 0.112688
H	 0.1885376243	 3.5367228188	 1.3691927356	 0.123273
H	 2.5565264799	 0.8268153659	-0.2279755299	 0.170532
H	 2.8783313721	 2.4957724262	-0.7053797005	 0.139982
H	 3.80965938	 2.630871987	 3.4067623678	 0.205509
47.4048	75.9505	186.1151	205.3875	243.3637	329.83	421.5606	547.1962	575.628	624.2528	666.4988	738.0771	782.7965	823.2044	928.8394	950.538	958.4796	1046.2653	1053.9192	1140.1313	1157.5541	1185.7034	1212.1493	1270.8868	1312.606	1375.2401	1412.6405	1462.6621	1467.0966	1529.8776	1879.597	2240.5697	3006.1097	3040.9648	3069.9416	3087.6733	3090.8511	3149.1779	3504.0634
O=C1CCN1CC#C	O=C1CCN1CC#C	
InChI=1S/C6H7NO/c1-2-4-7-5-3-6(7)8/h1H,3-5H2	InChI=1S/C6H7NO/c1-2-4-7-5-3-6(7)8/h1H,3-5H2
