19
gdb 67125	2.46311	1.84032	1.61986	1.1745	81.24	-0.2263	-0.0161	0.2103	956.7638	0.160108	-385.814758	-385.807288	-385.806344	-385.84613	30.384	
C	-0.1676547815	 1.6231765324	-0.1803166816	-0.504159
C	-0.0781149418	 0.1385260779	 0.0258003042	 0.203113
C	 0.4407309254	-0.9890435993	-0.8772017518	-0.145849
C	 1.5762748161	-1.3281321346	 0.1296601372	-0.28338
C	 0.6907067613	-0.6035122865	 1.1295699558	 0.116077
C	 0.0254872637	-1.1882063652	 2.1299558866	-0.153458
C	-1.4687053219	-1.1408239446	 1.9478952581	-0.117115
O	-1.7082773836	-1.6704885787	 0.6119631129	-0.270127
C	-1.0363016169	-0.9196463265	-0.3670197766	 0.079657
H	 0.8254030967	 2.085946987	-0.202732614	 0.121772
H	-0.6670707914	 1.8513611429	-1.1277073707	 0.120118
H	-0.7384566401	 2.105106059	 0.6217911858	 0.124169
H	 0.5979733751	-0.9459264175	-1.9517584171	 0.085437
H	 1.8128764456	-2.3757835736	 0.3388158353	 0.103125
H	 2.4849606907	-0.7931465484	-0.168764734	 0.107526
H	 0.4641819271	-2.0034215764	 2.6994333292	 0.097358
H	-2.0065394463	-1.8011657926	 2.6293132995	 0.114391
H	-1.8926697715	-0.1317112323	 2.0201061226	 0.107564
H	-1.7104581567	-0.6926892332	-1.1923911316	 0.09378
176.0065	186.7723	234.5335	248.8593	318.7986	413.8822	484.4519	514.3058	543.4852	616.6472	694.9922	739.3172	796.9142	832.9672	858.7487	893.0139	913.2383	950.9952	962.8634	976.9588	1020.2299	1032.7311	1058.7826	1085.5167	1100.2593	1134.4991	1138.9827	1209.6416	1228.9706	1252.7044	1254.671	1315.5657	1337.8298	1360.1522	1413.0176	1442.214	1483.9593	1490.6725	1492.981	1496.8478	1678.8564	3022.8908	3026.7593	3031.107	3083.8212	3087.7163	3096.7209	3112.6013	3124.9977	3145.4419	3160.2816
CC12C3CC1=CCOC23	C[C@@]12[C@H]3C[C]1[CH]CO[C@@H]23	
InChI=1S/C8H10O/c1-8-5-2-3-9-7(8)6(8)4-5/h2,6-7H,3-4H2,1H3	InChI=1S/C8H10O/c1-8-5-2-3-9-7(8)6(8)4-5/h2,6-7H,3-4H2,1H3/t6-,7+,8-/m0/s1
