20
gdb 63095	2.62958	1.41985	1.24093	2.4813	79.64	-0.2333	-0.0226	0.2107	1120.4395	0.170399	-403.158196	-403.149455	-403.148511	-403.191219	33.698	
C	-0.0506646579	 1.5778489371	 0.0057645	-0.473749
C	 0.0132289755	 0.061465119	-0.0338074669	 0.327842
C	-1.145497314	-0.5950995695	 0.6973026248	-0.439337
C	 0.5746310077	-0.7005976174	-1.2048267646	-0.210644
N	 1.2668683857	-0.685862038	 0.1041981345	-0.144596
C	 2.5211544749	 0.1037495995	-0.0519397087	-0.170618
C	 2.6243103154	 0.6105899877	-1.5048472469	-0.349173
C	 1.3922406931	 0.036213555	-2.2219367312	 0.410097
O	 1.1617876942	 0.1069324967	-3.4026762488	-0.321126
H	 0.7159540087	 2.079414215	-0.5847682645	 0.127128
H	-1.0226242005	 1.9126840205	-0.3698984434	 0.13348
H	 0.0364525138	 1.9278360116	 1.0410239667	 0.126603
H	-2.0993171485	-0.3439034011	 0.2214243238	 0.119973
H	-1.0302275496	-1.6807545065	 0.7077093477	 0.130685
H	-1.1836363537	-0.248137167	 1.7361535926	 0.120168
H	 0.0886896608	-1.6155130939	-1.5314972071	 0.106212
H	 2.5398516165	 0.9125167126	 0.6840649614	 0.113461
H	 3.3479638499	-0.5699519234	 0.1867607841	 0.11867
H	 2.6432343845	 1.6997509007	-1.6105068761	 0.136306
H	 3.5167997335	 0.2348224214	-2.0136770873	 0.138618
97.6521	170.029	178.3539	195.671	223.8382	274.2297	362.2855	411.1329	450.3118	473.1283	563.3206	605.32	683.3921	713.0916	750.3821	820.363	844.3685	908.183	957.9295	967.4018	996.1212	1017.2996	1024.639	1069.353	1116.3198	1134.2274	1180.799	1189.6259	1238.0877	1256.0278	1261.4396	1303.4493	1343.8619	1391.5855	1407.5436	1424.9525	1457.4883	1479.2098	1485.6759	1499.3961	1508.176	1513.5502	1833.1602	3032.056	3039.9605	3056.4641	3063.6252	3088.0725	3093.8983	3098.9554	3107.3743	3131.1261	3148.4341	3154.0802
CC1(C)C2N1CCC2=O	CC1(C)[C@@H]2N1CCC2=O	
InChI=1S/C7H11NO/c1-7(2)6-5(9)3-4-8(6)7/h6H,3-4H2,1-2H3	InChI=1S/C7H11NO/c1-7(2)6-5(9)3-4-8(6)7/h6H,3-4H2,1-2H3/t6-,8?/m1/s1
