15
gdb 133494	3.34013	0.89611	0.84418	3.2517	55.72	-0.2588	0.0197	0.2785	1349.5941	0.107576	-585.493751	-585.484242	-585.483298	-585.530605	32.24	
C	-0.0676712025	 1.4109988723	-0.1548327857	-0.489811
C	-0.2605819294	-0.0947566994	-0.1321824909	 0.413037
O	-1.1618448828	-0.6375886211	 0.4744842896	-0.356311
N	 0.6690817085	-0.8034168288	-0.858073011	-0.31638
C	 0.5360482123	-2.2219971357	-1.0681025364	-0.292071
C	 0.1221831511	-2.542822471	-2.4972998115	 0.271502
F	 1.0258503402	-2.0614454438	-3.374177212	-0.09361
F	 0.0426638138	-3.8661300443	-2.6820271369	-0.070203
F	-1.0600776642	-2.0047713901	-2.8093186519	-0.066883
H	-0.6895871639	 1.8387587248	-0.948306123	 0.157057
H	-0.4069187305	 1.8223352592	 0.7964254049	 0.157276
H	 0.9697054962	 1.7061862458	-0.334482859	 0.121928
H	 1.3504107735	-0.3051046363	-1.406999965	 0.254041
H	 1.472370856	-2.7521632365	-0.8660245054	 0.134025
H	-0.2376003084	-2.5829018351	-0.3879923158	 0.176403
29.2709	51.3122	57.7554	80.4708	242.4702	251.3093	332.8964	367.7724	457.7364	474.5828	531.3048	548.646	610.4972	643.4139	671.8677	840.0767	873.9481	982.8128	1011.0395	1051.8078	1141.2333	1187.3682	1204.5453	1248.1805	1289.6478	1320.9463	1392.8736	1408.925	1464.9437	1468.7196	1486.037	1534.7048	1795.7127	3047.9887	3061.2111	3114.9637	3140.655	3153.6314	3647.274
CC(=O)NCC(F)(F)F	CC(=O)NCC(F)(F)F	
InChI=1S/C4H6F3NO/c1-3(9)8-2-4(5,6)7/h2H2,1H3,(H,8,9)	InChI=1S/C4H6F3NO/c1-3(9)8-2-4(5,6)7/h2H2,1H3,(H,8,9)
