14
gdb 130398	2.38279	1.46694	0.92538	7.1748	70.48	-0.2687	-0.0292	0.2396	1176.3733	0.103748	-429.055399	-429.047514	-429.04657	-429.088464	28.17	
N	 0.0658318962	 1.9080324788	 0.0256677942	-0.524964
H	-0.127285255	 1.8997818387	-0.9697954362	 0.248957
H	 1.9065593789	 1.4607965895	 1.7161056357	 0.295042
H	-0.3249338738	 2.7717914245	 0.3902490536	 0.246579
C	-0.5702830911	 0.7530508488	 0.6699308298	-0.298262
C	 0.0456953706	 0.5268109086	 2.0145037584	 0.28606
C	-0.3712050137	-0.0939260199	 3.1794527389	 0.127831
N	 0.6395599391	-0.0221764741	 4.1078104982	-0.252382
N	 1.641266333	 0.6070891221	 3.5828277761	-0.102546
N	 1.289964319	 0.9366646837	 2.3204228173	-0.203002
C	-1.6222673039	-0.7107042619	 3.4285202413	 0.231035
N	-2.6587236792	-1.2008505999	 3.5890030063	-0.343409
H	-1.6614080062	 0.8226067037	 0.7857723302	 0.138185
H	-0.3833752338	-0.1276099527	 0.0430895661	 0.150878
74.4415	122.313	179.7801	208.6116	262.7537	300.9216	421.7551	529.1435	558.8945	625.022	656.7447	711.0443	740.449	761.195	871.5328	983.1385	1022.8136	1040.5647	1068.4593	1168.4399	1186.4708	1245.0361	1289.9864	1328.7709	1378.4363	1413.2789	1484.9951	1501.9949	1601.3864	1663.6552	2354.0582	3004.5713	3051.044	3505.0727	3587.1666	3636.1595
[NH3+]CC1=C(N=N[N-]1)C#N	NCc1c(nn[nH]1)C#N	
InChI=1S/C4H4N5/c5-1-3-4(2-6)8-9-7-3/h1,5H2/q-1/p+1	InChI=1S/C4H5N5/c5-1-3-4(2-6)8-9-7-3/h1,5H2,(H,7,8,9)
