19
gdb 110281	2.25078	1.50184	1.21478	2.3032	76.76	-0.2235	-0.0167	0.2068	1132.6338	0.157692	-423.004352	-422.995268	-422.994324	-423.038291	33.26	
C	 0.1800790945	 1.3964559659	-0.0779140748	-0.249205
O	-0.2842265244	 0.0871841587	 0.2103579517	-0.243729
C	 0.528038882	-0.5888321901	 1.127710677	 0.018778
C	 0.0772910047	-1.9822499057	 1.5556914858	-0.119736
C	 0.1992298815	-2.9925242528	 0.4654309165	-0.006204
C	-0.069677443	-2.768607347	-1.0093736487	-0.41184
C	 1.4785220859	-2.5724475727	 1.1876062943	-0.203204
C	 1.8987790086	-1.2173912347	 0.7074447209	 0.375782
O	 2.9252040191	-0.7473549339	 0.3001019157	-0.325812
H	 1.1854815663	 1.383413839	-0.5155831038	 0.139121
H	-0.5220322768	 1.8336854251	-0.7910090821	 0.128161
H	 0.2016967957	 2.0183621733	 0.8303303406	 0.107525
H	 0.7277325916	 0.0426725602	 2.0118668359	 0.092645
H	-0.4784409843	-2.1791160214	 2.4635422422	 0.102614
H	-0.1076624914	-3.9806303001	 0.8055385267	 0.099819
H	 0.2048910717	-1.7635933432	-1.330250311	 0.1439
H	 0.4871311906	-3.4942535387	-1.6114763762	 0.118367
H	-1.1358712733	-2.9019391712	-1.2213791916	 0.121766
H	 2.0950066812	-3.2894246806	 1.7150617408	 0.111251
89.1165	105.663	141.537	169.9867	191.545	245.5763	316.6613	348.6035	386.6015	485.4949	586.9449	636.3893	700.6611	726.6325	833.892	869.1204	889.7885	950.1497	990.9922	1002.1675	1036.4368	1055.9613	1064.3426	1107.9219	1134.171	1155.9552	1183.2693	1208.385	1226.4748	1236.1969	1294.1913	1336.9433	1374.3927	1420.1991	1439.8077	1479.6321	1486.0791	1489.1775	1503.7554	1513.1253	1873.1537	2951.1217	2987.2876	3040.4284	3061.103	3098.1496	3118.834	3125.7828	3153.4866	3193.5626	3202.1468
COC1C2C(C)C2C1=O	CO[C@H]1[C@H]2[C@@H](C)[C@H]2C1=O	
InChI=1S/C7H10O2/c1-3-4-5(3)7(9-2)6(4)8/h3-5,7H,1-2H3	InChI=1S/C7H10O2/c1-3-4-5(3)7(9-2)6(4)8/h3-5,7H,1-2H3/t3-,4+,5-,7-/m0/s1
