16
gdb 98010	4.66384	0.59474	0.5661	3.2203	78.91	-0.269	-0.0669	0.2021	1945.9856	0.121189	-437.907014	-437.896575	-437.895631	-437.944713	34.901	
C	 0.0810393479	 1.4834534077	-0.1117596382	-0.387495
C	-0.1293710749	-0.0278481034	-0.1463505968	-0.281994
C	-1.4916370649	-0.4542812084	 0.3696621016	 0.211281
O	-2.3278250304	 0.3194223053	 0.7825394763	-0.282618
C	-1.7450671603	-1.8883801564	 0.3425284017	-0.039878
C	-1.9513800887	-3.0784852715	 0.3226070609	 0.152273
C	-2.152561174	-4.5236314164	 0.3672129902	 0.265716
N	-3.1188469124	-4.9727312781	-0.4816559818	-0.52108
O	-1.493757815	-5.2399576641	 1.0935828086	-0.323585
H	 1.0746272881	 1.7382016828	-0.4897593108	 0.115245
H	-0.6651437015	 1.9969849248	-0.7232667955	 0.134194
H	-0.011917461	 1.8673959541	 0.9070573587	 0.137257
H	-0.0194225985	-0.4307057356	-1.1625649407	 0.133504
H	 0.6266285067	-0.5572335649	 0.4495512257	 0.141184
H	-3.721464961	-4.3357793908	-0.9739019523	 0.273463
H	-3.3564179501	-5.951274215	-0.4505011774	 0.272533
23.3317	53.1231	66.5365	100.0606	189.6132	208.1468	231.933	265.7157	285.7667	324.512	515.9658	552.7719	567.9088	586.8125	619.1596	718.0405	770.4336	806.514	878.772	1004.4094	1067.2954	1089.1667	1093.1129	1152.984	1271.9855	1344.1726	1370.7239	1414.2147	1446.3775	1491.9037	1497.723	1611.3023	1767.8632	1778.7395	2314.9928	3022.4667	3049.5064	3053.4922	3126.2278	3129.4994	3596.6387	3735.8605
CCC(=O)C#CC(N)=O	CCC(=O)C#CC(=O)N	
InChI=1S/C6H7NO2/c1-2-5(8)3-4-6(7)9/h2H2,1H3,(H2,7,9)	InChI=1S/C6H7NO2/c1-2-5(8)3-4-6(7)9/h2H2,1H3,(H2,7,9)
