23
gdb 95507	2.14019	1.61417	1.18318	1.4539	87.15	-0.2387	0.0296	0.2682	1175.3267	0.205786	-388.314565	-388.30506	-388.304116	-388.347886	37.594	
C	-0.0946645351	 1.5742119383	-0.0150855545	-0.409915
C	-0.0095555181	 0.0311582885	 0.0161485405	 0.243598
C	-1.4414740235	-0.5422796097	 0.0526298713	-0.429959
C	 0.6948240456	-0.4600289811	-1.2323898765	-0.065245
C	 1.9319726016	-0.9515554519	-1.2765947899	-0.077092
C	 2.8234265343	-1.0782196073	-0.0693078913	-0.264385
C	 2.276356328	-0.2760989844	 1.1196282104	-0.249218
C	 0.7640632102	-0.471309863	 1.257606394	 0.121213
O	 0.2391587138	 0.1984690137	 2.3993910692	-0.451248
H	 0.896979278	 2.0348119513	-0.026676864	 0.110103
H	-0.6187668662	 1.9013516125	-0.919308804	 0.103262
H	-0.6375055084	 1.9488370434	 0.8555633223	 0.129886
H	-2.027959579	-0.1810639579	-0.7990246116	 0.104524
H	-1.4292083755	-1.6366180373	 0.0110779728	 0.108098
H	-1.9482850782	-0.2384616984	 0.9724840145	 0.128524
H	 0.1134692244	-0.3910735507	-2.150690472	 0.078984
H	 2.3398736421	-1.2906513918	-2.226307857	 0.082632
H	 2.9227775651	-2.140096256	 0.2018287658	 0.107136
H	 3.8397861471	-0.7466691153	-0.3154931931	 0.104002
H	 2.7722265871	-0.5865866698	 2.0484556138	 0.07768
H	 2.4915516326	 0.7899160681	 0.9888052494	 0.10984
H	 0.5700752556	-1.5548574538	 1.3422272457	 0.058789
H	 0.7074655284	-0.1270133274	 3.1741970242	 0.278789
100.8682	190.2756	215.994	237.8682	251.4932	259.52	291.7489	306.2497	330.398	418.2139	454.6456	478.1231	509.0083	556.116	710.8854	719.3194	757.8843	870.954	881.5074	925.0455	942.8641	967.6213	1004.2417	1009.274	1017.0474	1046.7062	1091.7391	1103.1639	1139.2854	1166.5162	1201.1487	1222.2151	1251.4364	1283.7819	1292.2521	1333.0472	1367.2575	1389.5014	1396.343	1402.3508	1408.6422	1444.0069	1477.5217	1482.7846	1487.9274	1495.0587	1504.4409	1511.844	1722.3911	2942.7411	2995.7762	3021.7866	3029.7379	3040.4933	3040.8482	3075.6079	3095.3206	3105.4321	3116.9169	3128.8896	3129.4467	3156.474	3821.4966
CC1(C)C=CCCC1O	CC1(C)C=CCC[C@H]1O	
InChI=1S/C8H14O/c1-8(2)6-4-3-5-7(8)9/h4,6-7,9H,3,5H2,1-2H3	InChI=1S/C8H14O/c1-8(2)6-4-3-5-7(8)9/h4,6-7,9H,3,5H2,1-2H3/t7-/m1/s1
