16
gdb 73995	2.79822	1.93083	1.33819	3.8571	78.79	-0.2295	-0.0806	0.149	944.1259	0.123665	-400.644199	-400.63682	-400.635875	-400.676063	28.587	
C	-0.1377110634	 1.4020837887	-0.1223809935	-0.476234
C	-0.0564741145	 0.0143217072	 0.4165363624	 0.139344
C	-1.0597238593	-0.9030083907	 0.4468716326	-0.002104
N	-1.6534268307	-1.2703461745	-0.8635129093	-0.352954
C	-0.7554227895	-2.5031185473	-0.67409652	-0.015263
C	-0.5910517105	-2.3176847178	 0.7741822518	-0.154239
C	 0.6785823874	-2.206198972	-0.0467769511	-0.158951
C	 1.20000672	-0.8045798133	 0.1988394133	 0.352632
O	 2.3154527159	-0.3925099968	-0.0051256382	-0.332273
H	 0.8065589175	 1.6866061985	-0.5928153039	 0.147788
H	-0.9579267066	 1.4930640821	-0.8437633275	 0.142223
H	-0.3310091832	 2.1163830034	 0.6874650478	 0.138636
H	-2.5945037817	-1.6567218771	-0.7440191534	 0.233048
H	-0.9146113416	-3.3905307734	-1.2809239215	 0.115051
H	-0.7527038075	-2.9409477823	 1.6435798591	 0.115597
H	 1.3791432578	-3.0325630646	-0.1328259086	 0.1077
99.3251	127.022	202.4405	262.2454	399.7921	437.0744	508.4141	558.7805	620.8867	685.9175	741.581	742.5061	806.1456	819.2777	838.216	899.7875	955.867	975.6845	1001.1817	1013.5821	1047.3578	1051.3747	1056.4533	1113.4859	1137.5226	1202.6486	1218.5759	1252.2443	1288.337	1349.5192	1392.6244	1469.4187	1479.0692	1592.3385	1797.5365	3024.2044	3077.7855	3126.3438	3151.418	3161.8171	3201.6811	3395.282
CC1=C2NC3C2C3C1=O	C[C]1[C]2N[C@@H]3[C@H]2[C@@H]3C1=O	
InChI=1S/C7H7NO/c1-2-5-3-4(7(2)9)6(3)8-5/h3-4,6,8H,1H3	InChI=1S/C7H7NO/c1-2-5-3-4(7(2)9)6(3)8-5/h3-4,6,8H,1H3/t3-,4-,6+/m0/s1
