19
gdb 55931	4.02763	0.94095	0.86497	2.584	75.45	-0.2273	0.0367	0.2641	1364.5425	0.159656	-419.195635	-419.186636	-419.185692	-419.231266	33.122	
N	-0.1114432442	 1.2724630292	 0.2642346511	-0.525165
C	 0.0831225638	-0.0713499599	 0.1053139599	 0.416382
O	 1.1897661211	-0.5752522914	 0.1523984549	-0.364059
C	-1.185550825	-0.8719644618	-0.1781762953	-0.341783
C	-0.9809580253	-2.3624263356	 0.0466558286	 0.049049
C	-0.7943526961	-2.8841883973	 1.5211320532	-0.230667
C	-2.0225666363	-3.7750541104	 1.3173810414	-0.040188
N	-3.1496083927	-2.8571577059	 1.0104314299	-0.337536
C	-2.2146726584	-3.2705379797	-0.0684220342	-0.090224
H	 0.6844697079	 1.8405589936	 0.5044505845	 0.257021
H	-1.0302433913	 1.6684591524	 0.3565344229	 0.256489
H	-2.0161860171	-0.51407625	 0.4394419753	 0.1246
H	-1.4694862777	-0.6831483126	-1.2231721204	 0.119533
H	-0.1599905868	-2.7217857004	-0.5758345224	 0.093532
H	 0.1390009228	-3.4344719046	 1.64686694	 0.111641
H	-0.8904301549	-2.1419000786	 2.3179603239	 0.100145
H	-2.2127849119	-4.7580002314	 1.7307582273	 0.090269
H	-3.9851711817	-3.4335045047	 0.9114763643	 0.225294
H	-2.5863313461	-3.774068481	-0.9533516948	 0.085667
14.7921	67.6032	121.9948	185.96	197.6699	307.9558	360.4951	443.523	508.7921	550.6346	598.2176	645.7345	696.0228	799.7783	825.0676	850.2086	857.3632	874.8317	933.8974	965.2198	989.2111	1009.5613	1055.1571	1082.2796	1094.5073	1116.95	1133.972	1155.6406	1193.3341	1236.393	1243.72	1271.2413	1303.2336	1328.3976	1354.2277	1386.6076	1405.7813	1462.1371	1477.7036	1616.1556	1791.6947	3017.5547	3067.113	3075.5828	3102.0828	3132.4518	3174.9464	3191.176	3468.9224	3600.5675	3736.974
NC(=O)CC1CC2NC12	NC(=O)C[C@H]1C[C@H]2N[C@@H]12	
InChI=1S/C6H10N2O/c7-5(9)2-3-1-4-6(3)8-4/h3-4,6,8H,1-2H2,(H2,7,9)	InChI=1S/C6H10N2O/c7-5(9)2-3-1-4-6(3)8-4/h3-4,6,8H,1-2H2,(H2,7,9)/t3-,4-,6+/m1/s1
