20
gdb 75345	2.81157	1.46632	1.16792	1.4365	87.96	-0.2038	-0.0152	0.1886	1136.886	0.173003	-366.001632	-365.993542	-365.992598	-366.033997	32.061	
C	 0.0678628975	 1.5545377115	-0.0428384881	-0.481512
C	-0.0414768771	 0.047912975	-0.0371848055	 0.319492
C	-1.2268764525	-0.5599650036	-0.1861539068	-0.14892
C	-1.4821311494	-2.043644836	-0.1318669272	-0.285729
C	-0.6801072714	-2.8989086682	-1.1110917417	-0.019556
N	-0.0336278408	-2.2513352304	-2.2493541848	-0.323677
C	 0.810163985	-2.8019021996	-1.1533869966	-0.078174
C	 1.5856070013	-1.8753009489	-0.2962470807	-0.03152
C	 1.224462081	-0.6677949025	 0.1644317511	-0.160902
H	 0.7026864852	 1.9030420985	-0.8665947876	 0.128806
H	-0.911463824	 2.0288115669	-0.143988457	 0.117662
H	 0.5291126138	 1.918680164	 0.8843469339	 0.118448
H	-2.1008597056	 0.0654526333	-0.3495961373	 0.078336
H	-1.2654754718	-2.4271062601	 0.8767922399	 0.113421
H	-2.5488020015	-2.2253839367	-0.3029975037	 0.100244
H	-1.0988669661	-3.8928776042	-1.2717186533	 0.079456
H	-0.0047716738	-2.8823672594	-3.0457393759	 0.230329
H	 1.334458235	-3.727969786	-1.3779097115	 0.077838
H	 2.5765587447	-2.2351111679	-0.0293483542	 0.085186
H	 1.9746441406	-0.1173165857	 0.731595947	 0.080772
90.2545	175.2504	219.7727	240.129	305.5727	324.471	402.1915	418.1719	493.947	616.3179	693.4242	711.5411	725.4352	781.2279	802.4146	860.663	889.1729	900.7643	928.1497	969.0999	997.4646	1015.0931	1027.753	1070.0681	1089.019	1112.0377	1168.1973	1177.6784	1213.1765	1237.9576	1255.8624	1292.2994	1357.0335	1363.9395	1410.2282	1412.3789	1452.5308	1470.6158	1479.273	1483.2673	1495.3265	1682.839	1721.5762	2993.7375	3017.6381	3057.1687	3066.1707	3096.1037	3114.3008	3120.4992	3127.3077	3152.2365	3158.7078	3502.1615
CC1=CCC2NC2C=C1	CC1=CC[C@H]2N[C@H]2C=C1	
InChI=1S/C8H11N/c1-6-2-4-7-8(9-7)5-3-6/h2-4,7-9H,5H2,1H3	InChI=1S/C8H11N/c1-6-2-4-7-8(9-7)5-3-6/h2-4,7-9H,5H2,1H3/t7-,8+/m0/s1
