18
gdb 74618	2.64246	1.91709	1.40047	2.5186	76.2	-0.2204	0.0044	0.2248	962.9281	0.147782	-401.903811	-401.896142	-401.895198	-401.935408	30.911	
C	 0.1116237953	 1.5094374903	 0.0520245741	-0.490854
C	-0.0685032331	 0.0281759611	-0.0127436962	 0.204523
C	-0.071576972	-0.7842658196	-1.0802021886	-0.186502
C	-0.1379257738	-2.2003232201	-0.6440889378	-0.058827
C	-0.5572449972	-2.247721688	 0.7697438974	-0.128107
N	 0.8229634859	-2.7179257043	 0.4502888759	-0.16141
C	 1.3645694715	-1.5529854415	 1.207157822	-0.168652
C	-0.0253914923	-0.8448870452	 1.2292896622	 0.301924
O	-0.3743311571	-0.2767618595	 2.4541717973	-0.488459
H	 1.0419632381	 1.7739390565	 0.5701058515	 0.138227
H	 0.138465411	 1.9506258032	-0.9475541392	 0.1274
H	-0.6969080211	 1.9914848247	 0.6153674187	 0.118364
H	 0.0422774021	-0.4825312269	-2.1142431492	 0.098807
H	-0.379947923	-2.9988424325	-1.3345161789	 0.096808
H	-1.3190050564	-2.8713455136	 1.2286868395	 0.093282
H	 1.6222955717	-1.9068485777	 2.208108006	 0.123631
H	 2.209601382	-1.0254945616	 0.7530292054	 0.098196
H	-1.2525657716	 0.1109173247	 2.37186294	 0.28165
144.1857	169.9539	243.1364	294.0639	334.1174	359.9938	423.6492	477.2056	567.5096	588.7633	639.8957	680.7985	770.3192	795.0483	805.7012	841.8675	898.5299	956.8871	965.8741	992.9008	1007.2781	1028.7697	1057.7379	1071.0346	1084.6437	1152.6361	1182.5586	1207.5101	1254.0598	1266.5683	1282.1666	1339.9741	1354.1626	1365.9523	1413.7115	1476.8696	1483.573	1489.688	1684.8506	3020.1488	3045.5369	3063.8698	3115.5109	3117.8229	3150.4173	3191.5052	3208.0881	3801.8191
CC1=CC2C3N2CC13O	CC1=C[C@@H]2[C@H]3N2C[C@@]13O	
InChI=1S/C7H9NO/c1-4-2-5-6-7(4,9)3-8(5)6/h2,5-6,9H,3H2,1H3	InChI=1S/C7H9NO/c1-4-2-5-6-7(4,9)3-8(5)6/h2,5-6,9H,3H2,1H3/t5-,6-,7-,8?/m1/s1
