18
gdb 18278	4.24874	1.58236	1.3188	2.6911	67.04	-0.2477	0.0814	0.3291	953.9953	0.155508	-384.928106	-384.920839	-384.919895	-384.959604	28.125	
O	 0.0465039111	 1.3895906325	-0.1260754717	-0.425273
C	 0.0744048379	-0.0176039785	 0.0156172453	-0.065823
C	-1.3323832045	-0.5971802643	 0.0876220319	 0.097018
O	-2.0013943827	-0.2042338367	-1.1194641979	-0.285933
C	-3.0671755747	-1.1183204069	-1.368650514	-0.093379
C	-2.5979744199	-2.4489015205	-0.8075666349	-0.052195
C	-1.1893208736	-2.8498972416	-1.1572472561	-0.289999
C	-1.4622228382	-2.1101040835	 0.130798668	-0.065306
H	-0.550036983	 1.5686421325	-0.8622519718	 0.292153
H	 0.6208251863	-0.4983673076	-0.8104155069	 0.08745
H	 0.6112497533	-0.2347369031	 0.9452608254	 0.103956
H	-1.8488471929	-0.1593247186	 0.9583981247	 0.07313
H	-3.991024214	-0.7964481873	-0.8619579518	 0.095132
H	-3.2478333979	-1.1192912339	-2.448831403	 0.109471
H	-3.3355114624	-3.2040304308	-0.5633057308	 0.091466
H	-0.9358683993	-3.900924827	-1.0778400536	 0.113369
H	-0.6905073038	-2.324304402	-1.9650844019	 0.123148
H	-1.3387261516	-2.6154150228	 1.0810718191	 0.091616
110.02	150.8556	197.7272	294.9032	361.1535	425.0336	439.8744	510.7217	646.1706	718.2254	785.3237	827.229	843.3061	906.986	943.6124	981.4212	1010.0351	1035.5301	1073.1565	1078.2791	1081.8759	1097.8975	1113.2282	1118.8575	1136.9652	1194.8644	1222.4691	1249.0412	1318.9343	1335.1006	1346.0971	1361.0129	1395.656	1408.5086	1443.817	1481.093	1499.1835	1516.3437	2962.7202	2978.7581	2990.046	3067.5334	3075.1721	3134.7143	3180.3483	3188.2921	3222.0213	3799.8217
OCC1OCC2CC12	OC[C@H]1OC[C@H]2C[C@@H]12	
InChI=1S/C6H10O2/c7-2-6-5-1-4(5)3-8-6/h4-7H,1-3H2	InChI=1S/C6H10O2/c7-2-6-5-1-4(5)3-8-6/h4-7H,1-3H2/t4-,5-,6-/m1/s1
