20
gdb 40405	3.37562	1.37342	1.23684	0.9595	83.42	-0.2099	0.0221	0.232	1091.8898	0.172155	-365.972117	-365.964455	-365.963511	-366.004123	31.105	
C	-0.828156124	-0.4337094854	-1.1237784513	-0.231693
C	-1.0245374543	 0.9372296636	-0.5757081269	-0.226817
N	-0.0906731636	 0.0036873517	 0.0524300487	-0.141694
C	-0.4348630289	-0.5219811172	 1.346598648	 0.356836
C	-0.432074374	-1.999333725	 1.5816204553	-0.312033
C	-1.7391088605	-1.2292985782	 1.7505292603	-0.141427
C	-2.0292443242	-0.7523556116	 3.1316668715	-0.072264
C	-1.0925130569	 0.0910851392	 3.5741461221	-0.083511
C	-0.0391156938	 0.3720212497	 2.5262248217	-0.319848
H	-1.649019345	-1.1367610503	-0.9991243983	 0.11376
H	-0.2302014895	-0.593206607	-2.0166727127	 0.116558
H	-0.5767636381	 1.7979513699	-1.0638986745	 0.115551
H	-1.9663262746	 1.1313700024	-0.0662904377	 0.11657
H	-0.3482358672	-2.6237160938	 0.6972868556	 0.110892
H	 0.0459379262	-2.401495299	 2.4699199351	 0.10952
H	-2.5489007473	-1.4355847859	 1.0591536332	 0.083637
H	-2.8895481621	-1.0892015324	 3.6997192048	 0.09175
H	-1.0591932126	 0.5306402969	 4.5643478126	 0.091561
H	 0.9764154597	 0.1537961736	 2.8783828707	 0.113196
H	-0.0395599893	 1.4280857287	 2.2235024018	 0.109457
90.3915	148.3837	224.0531	283.6907	331.2996	447.5118	477.1911	500.8241	534.9986	699.838	737.8434	758.0715	795.8257	834.1776	876.8121	903.467	909.2404	937.5795	954.0325	970.5396	988.653	1008.0734	1030.9718	1052.8268	1069.6711	1079.4257	1110.7787	1120.6678	1140.5275	1155.2071	1172.159	1186.3785	1216.7055	1266.3495	1310.8968	1323.2054	1370.0365	1398.56	1466.8815	1482.8389	1490.42	1517.383	1667.0209	3017.2666	3051.7986	3100.1341	3103.9221	3116.701	3164.586	3179.7274	3182.5055	3194.7186	3206.1018	3208.2579
C1CN1C12CC1C=CC2	C1CN1[C@]12C[C@H]1C=CC2	
InChI=1S/C8H11N/c1-2-7-6-8(7,3-1)9-4-5-9/h1-2,7H,3-6H2	InChI=1S/C8H11N/c1-2-7-6-8(7,3-1)9-4-5-9/h1-2,7H,3-6H2/t7-,8-/m1/s1
