23
gdb 110709	2.47959	1.3572	1.10926	0.2473	90.12	-0.2206	0.0173	0.2379	1251.4449	0.206431	-351.127895	-351.119072	-351.118128	-351.161121	35.101	
C	 0.575408793	 0.7114526144	 0.9911143902	-0.376496
C	 0.2240475248	-0.781233986	 0.9930641171	-0.219092
C	-1.2191552701	-1.041396459	 0.5857270945	 0.06738
C	-1.7305536962	-0.8215851652	-0.8903808325	-0.098423
C	-0.8461367124	-1.8104280533	-1.6576305765	-0.089323
C	-0.8620450107	-2.9021795183	-0.885209214	-0.087524
C	-1.7553969756	-2.490973278	 0.2911986439	-0.114177
C	-2.9237044061	-1.7896864691	-0.513033464	 0.062101
C	-4.1318379795	-1.240403512	 0.2359086026	-0.438095
H	 1.6065359741	 0.8775283398	 1.3184130284	 0.109477
H	 0.4722451206	 1.1402177079	-0.0116683471	 0.115105
H	-0.081216124	 1.2788089955	 1.660674119	 0.109884
H	 0.9057789573	-1.322311066	 0.3296743802	 0.098164
H	 0.3797166181	-1.1899537029	 2.0007630499	 0.088112
H	-1.8745456401	-0.5259276509	 1.2947285995	 0.064743
H	-1.8999133904	 0.1703699453	-1.3114028627	 0.05206
H	-0.3515873494	-1.6336648733	-2.6023158546	 0.094375
H	-0.3853296124	-3.8619035297	-1.0263484002	 0.094713
H	-1.9460460067	-3.2144049905	 1.0855562474	 0.050555
H	-3.2694780042	-2.385529522	-1.3627828581	 0.06514
H	-3.8761849773	-0.6283240518	 1.1042853549	 0.118935
H	-4.7427386573	-0.6242829181	-0.4338178828	 0.116191
H	-4.7649101556	-2.0634575967	 0.5866943848	 0.116193
78.0584	151.1938	185.1627	202.6095	266.0797	283.6359	304.7684	382.9106	501.6073	550.2522	567.81	683.3395	717.9514	766.8822	801.655	829.0946	837.4007	871.182	910.2868	917.0259	923.9459	955.4647	978.9964	1043.3452	1059.3238	1076.0818	1087.8409	1097.4837	1109.0038	1122.4812	1171.3551	1183.3335	1227.7642	1235.6937	1251.7159	1253.9926	1292.4422	1323.4936	1348.7912	1380.0727	1401.892	1409.769	1427.4957	1486.948	1495.0902	1498.9407	1500.9117	1506.684	1618.5327	3017.363	3028.0177	3030.2206	3056.2352	3059.3799	3073.887	3086.1437	3097.7478	3100.3454	3102.264	3106.3522	3117.8842	3215.9567	3243.0984
CCC1C2C=CC1C2C	CC[C@H]1[C@H]2C=C[C@@H]1[C@H]2C	
InChI=1S/C9H14/c1-3-7-8-4-5-9(7)6(8)2/h4-9H,3H2,1-2H3	InChI=1S/C9H14/c1-3-7-8-4-5-9(7)6(8)2/h4-9H,3H2,1-2H3/t6-,7-,8-,9+
