21
gdb 93506	2.34922	1.47332	1.09591	4.1842	78.93	-0.2341	0.0561	0.2902	1187.7874	0.184606	-420.471549	-420.462335	-420.46139	-420.505223	35.099	
C	-0.1989434915	 1.6103571075	-0.0550526212	-0.393638
C	-0.0100353741	 0.0881688382	-0.0125386357	 0.005875
C	 0.756854912	-0.4296950277	-1.2386191501	-0.176778
N	 2.1503589094	-0.0201935502	-1.1626039752	-0.333121
C	 2.8804482236	 0.0325210395	 0.0055984059	 0.425775
O	 4.0941175343	 0.1505414307	 0.0164861888	-0.416499
N	 2.1264293586	 0.0145294088	 1.161899756	-0.341457
C	 0.7348651402	-0.4192460004	 1.2411334763	 0.061444
C	 0.1286257869	 0.0388789838	 2.5668907759	-0.420497
H	 0.7582715745	 2.1329751531	 0.0092730306	 0.143442
H	-0.6827130809	 1.9052704001	-0.9916286463	 0.111621
H	-0.8326225121	 1.9576309529	 0.7651720752	 0.116157
H	-0.9958898275	-0.3917013194	-0.0190397555	 0.076297
H	 0.6589192511	-1.5256916082	-1.2957057906	 0.098437
H	 0.3214866022	-0.0203071304	-2.1567211113	 0.106447
H	 2.7303442273	-0.1059540422	-1.9815896422	 0.248394
H	 2.6953160733	-0.0575530024	 1.991338952	 0.243337
H	 0.6784950941	-1.5212632397	 1.2166384321	 0.074527
H	 0.1869188077	 1.1246694389	 2.677764695	 0.132653
H	-0.9198085748	-0.2668856998	 2.6365470511	 0.119956
H	 0.6624640955	-0.4149559932	 3.4090382091	 0.117629
100.576	103.9344	173.165	187.1179	249.9242	280.3519	305.3124	356.0187	436.5355	474.0778	497.01	512.6142	579.8512	607.6272	732.4729	765.2761	800.5655	888.2827	892.9471	963.7125	996.4027	1013.944	1045.7472	1084.406	1109.8927	1155.3709	1160.5097	1207.5743	1262.8718	1293.6726	1326.319	1352.6008	1374.9421	1391.0597	1411.4655	1419.4559	1427.753	1451.6038	1476.017	1492.2414	1497.4997	1501.3172	1510.5728	1527.7434	1803.2457	2938.7136	2968.6972	3036.6366	3039.6885	3046.9069	3056.7526	3101.5189	3108.9918	3124.7479	3131.6405	3630.3008	3646.3326
CC1CNC(=O)NC1C	C[C@H]1CNC(=O)N[C@H]1C	
InChI=1S/C6H12N2O/c1-4-3-7-6(9)8-5(4)2/h4-5H,3H2,1-2H3,(H2,7,8,9)	InChI=1S/C6H12N2O/c1-4-3-7-6(9)8-5(4)2/h4-5H,3H2,1-2H3,(H2,7,8,9)/t4-,5-/m0/s1
