22
gdb 83237	2.49051	1.60549	1.38073	0.7282	81.56	-0.2174	0.0799	0.2973	1080.7237	0.193556	-404.329311	-404.320223	-404.319279	-404.362156	35.693	
C	 0.0662775728	 1.9433279368	-0.214006229	-0.326838
N	 0.2335823981	 0.494703828	-0.1714723367	-0.106144
C	 1.5109204294	-0.1481661463	-0.4199882404	-0.052596
C	 2.7806084208	 0.6532329162	-0.1890501987	-0.123285
O	 2.6542619755	 1.2388845548	 1.1032715397	-0.293593
C	 1.7921544893	 0.4211016224	 1.9204927715	 0.347351
C	 2.6195366885	-0.6616314427	 2.6337468839	-0.41477
C	 1.1221101279	 1.3378097367	 2.9439436968	-0.428366
C	 0.8495344161	-0.2470760441	 0.9168514702	-0.06538
H	 0.9150986034	 2.5240546888	 0.1642323879	 0.131766
H	-0.1199024704	 2.2294144695	-1.2546698803	 0.116573
H	-0.8256495011	 2.208699564	 0.362412834	 0.121371
H	 1.5270167858	-0.9501469369	-1.1541134031	 0.089174
H	 3.6551482226	-0.013725999	-0.251736721	 0.096522
H	 2.9296370355	 1.4698785854	-0.9049689464	 0.108471
H	 3.3844936237	-0.1910449236	 3.2579214567	 0.122199
H	 1.9864297056	-1.2841975464	 3.2744002195	 0.113961
H	 3.1183717851	-1.3177409057	 1.9141592527	 0.115817
H	 0.5257486163	 2.1127735335	 2.4608619481	 0.123924
H	 0.4678539939	 0.7577038515	 3.6018634327	 0.114491
H	 1.8817639259	 1.8252887024	 3.5624426289	 0.122558
H	 0.3105575153	-1.1313746252	 1.2492249431	 0.086795
159.2262	176.5391	192.6899	221.2748	235.935	252.7276	284.6259	338.7101	376.6845	410.3648	461.7977	561.0806	604.2452	742.3797	750.8178	811.4782	841.3109	862.938	924.1942	948.479	976.5371	997.7483	1010.0492	1030.6863	1076.8336	1105.2647	1131.9398	1155.3957	1179.9196	1195.0111	1205.8461	1232.2747	1262.9883	1310.4373	1326.575	1364.6768	1396.4152	1405.6295	1418.3177	1456.5448	1476.5035	1481.6387	1491.5438	1496.5419	1505.8025	1514.5702	1523.5478	2978.6058	3021.3808	3037.0042	3048.7911	3053.8157	3086.9665	3096.5128	3106.4359	3112.6624	3118.2268	3129.1251	3139.5281	3145.4522
CN1C2COC(C)(C)C12	CN1[C@H]2COC(C)(C)[C@@H]12	
InChI=1S/C7H13NO/c1-7(2)6-5(4-9-7)8(6)3/h5-6H,4H2,1-3H3	InChI=1S/C7H13NO/c1-7(2)6-5(4-9-7)8(6)3/h5-6H,4H2,1-3H3/t5-,6-,8?/m0/s1
