15
gdb 57828	3.7927	0.70867	0.62669	1.8837	75.68	-0.2819	-0.0931	0.1888	1692.7409	0.108357	-457.748879	-457.738897	-457.737953	-457.785479	33.365	
C	-0.3061809175	 1.6023265783	-0.1804076333	-0.404234
C	 0.0524793237	 0.1233027958	 0.0266802004	 0.046476
O	 0.8116949267	-0.0509183216	 1.1888310166	-0.432682
C	-1.1984673027	-0.7507261247	 0.1052189876	 0.192186
O	-1.4306534336	-1.4167735085	 1.0948107996	-0.308301
C	-2.0777259012	-0.7637600954	-1.0419335338	 0.063656
C	-2.8084758436	-0.7732512621	-2.0065557319	 0.104022
C	-3.6742062343	-0.8147774041	-3.1641686602	 0.020489
O	-4.5385294731	-0.0013124832	-3.3830756541	-0.209221
H	 0.616864369	 2.1857443523	-0.2055352608	 0.143142
H	-0.8449177734	 1.7557090117	-1.1195435405	 0.129585
H	-0.9206922886	 1.96448478	 0.6486346081	 0.134868
H	 0.6197524756	-0.2253072598	-0.8543223529	 0.102475
H	 0.3192327713	-0.6779760046	 1.7420173482	 0.297269
H	-3.4758929483	-1.666290534	-3.844187083	 0.12027
41.5003	51.3082	88.732	106.7207	208.1089	233.0439	257.831	308.8415	338.0671	380.7988	406.8219	447.3876	571.6408	666.956	711.7938	784.8966	917.546	961.2001	1015.5155	1047.2106	1095.4685	1152.3651	1202.3173	1276.4247	1349.558	1399.8571	1415.4947	1427.2935	1487.7197	1497.4118	1747.7242	1773.1385	2295.6028	2939.4684	2954.6407	3048.4638	3127.9072	3134.9227	3691.6188
CC(O)C(=O)C#CC=O	C[C@@H](O)C(=O)C#CC=O	
InChI=1S/C6H6O3/c1-5(8)6(9)3-2-4-7/h4-5,8H,1H3	InChI=1S/C6H6O3/c1-5(8)6(9)3-2-4-7/h4-5,8H,1H3/t5-/m1/s1
