18
gdb 79646	2.57528	1.51577	1.17701	4.5373	81.17	-0.2297	0.0134	0.2431	1095.7423	0.148117	-364.752679	-364.744635	-364.743691	-364.785121	31.284	
C	-0.2151563072	 1.5850867452	-0.0526454927	-0.44069
C	 0.1056188245	 0.0936091504	 0.0282071527	-0.068316
C	 1.3528593874	-0.664123024	-0.3185164977	-0.122723
C	 2.7075981477	-0.1145946607	 0.1917619063	-0.054384
C	 2.6354458439	 1.1580923601	 0.994318934	-0.310374
C	 2.1937574555	-0.1326389191	 1.620354155	-0.100419
C	 0.8160249375	-0.6806055033	 1.1348740091	 0.149977
C	 0.1768058624	-1.7560503452	 1.8116485062	 0.203684
N	-0.3366140551	-2.629883939	 2.3741301214	-0.355987
H	 0.4493709384	 2.1125880236	-0.7414991394	 0.138076
H	-1.2356016467	 1.7127724714	-0.4241453821	 0.124858
H	-0.1639918974	 2.0752327992	 0.9224397324	 0.141438
H	-0.7456456014	-0.5095184592	-0.2835447887	 0.119032
H	 1.3197187676	-1.5029518812	-1.002304428	 0.115957
H	 3.644763758	-0.5058157618	-0.1798950668	 0.103504
H	 3.6068574873	 1.4881766279	 1.3525362294	 0.123622
H	 1.9650898987	 1.9717761492	 0.76638615	 0.121999
H	 2.6670723691	-0.5518471635	 2.4976159689	 0.110745
116.3315	133.6332	162.4143	242.2636	272.1665	387.4759	425.0479	481.0982	543.6437	569.0537	652.2644	696.3113	722.5174	768.6521	835.947	879.1881	902.1169	927.1672	967.1942	1006.8294	1028.0998	1062.3614	1067.0631	1080.1117	1091.0051	1101.3504	1119.1511	1185.5367	1207.1729	1260.9838	1292.7647	1326.8474	1357.9251	1416.4191	1459.5375	1489.1641	1505.6695	1514.1317	2332.4382	3048.5869	3107.2531	3124.1475	3128.0643	3144.4254	3193.8107	3203.931	3212.8113	3263.7788
CC1C2C3CC3C12C#N	C[C@H]1[C@H]2[C@H]3C[C@H]3[C@@]12C#N	
InChI=1S/C8H9N/c1-4-7-5-2-6(5)8(4,7)3-9/h4-7H,2H2,1H3	InChI=1S/C8H9N/c1-4-7-5-2-6(5)8(4,7)3-9/h4-7H,2H2,1H3/t4-,5-,6+,7-,8+/m0/s1
