20
gdb 99262	4.40016	0.65651	0.59105	4.8579	73.88	-0.2511	0.025	0.276	1866.4931	0.168949	-477.453646	-477.443054	-477.442109	-477.490545	37.514	
C	-0.0275470521	 1.4553094917	-0.1142286843	-0.409987
C	-0.1651490145	-0.0618946953	-0.0578525193	 0.120246
O	 0.824797336	-0.6573572969	 0.7866595577	-0.434854
C	-1.5638222827	-0.505603268	 0.3844808579	-0.159765
N	-1.6118187239	-1.9505228953	 0.4967447257	-0.319954
C	-2.6567669688	-2.7007520851	 0.0851821889	 0.390701
O	-3.6887765204	-2.2395775113	-0.3851863756	-0.39556
C	-2.5063560026	-4.2198907844	 0.2320127944	-0.144575
O	-3.6578535586	-4.8552894559	-0.2367466475	-0.420509
H	 0.9856941638	 1.7321766037	-0.4160972715	 0.133325
H	-0.7342529423	 1.8885416644	-0.8287814856	 0.13093
H	-0.2294913391	 1.9036687173	 0.8667732507	 0.113463
H	 0.0342069088	-0.4888766643	-1.0475229996	 0.103705
H	 0.8119334551	-0.1889675102	 1.6296282821	 0.282657
H	-1.8089941564	-0.0317187823	 1.3479882512	 0.099171
H	-2.3275013648	-0.1980256721	-0.3337228128	 0.145854
H	-0.7751575513	-2.3920353498	 0.8490509726	 0.255949
H	-1.6149621215	-4.5456044856	-0.3281402533	 0.108564
H	-2.3222593628	-4.4581144218	 1.2922786247	 0.107255
H	-4.2323664218	-4.1236961289	-0.5228651466	 0.293386
35.3666	76.7058	80.8533	90.8657	204.6534	239.009	253.609	284.7795	352.2443	360.6686	440.0851	455.7926	470.7328	527.1438	554.497	639.7024	711.239	834.7951	901.3029	931.4796	968.9172	1037.9844	1068.7006	1079.1138	1124.954	1148.661	1163.8614	1230.6958	1245.99	1252.7302	1312.0395	1322.6818	1332.5169	1402.6053	1407.7335	1424.5657	1464.2966	1489.8997	1495.5246	1502.9925	1509.3578	1552.655	1764.6814	2972.2655	2983.5076	2990.7941	3027.9621	3052.675	3098.4104	3113.5162	3125.1273	3614.2481	3641.4861	3791.1473
CC(O)CNC(=O)CO	C[C@@H](O)CNC(=O)CO	
InChI=1S/C5H11NO3/c1-4(8)2-6-5(9)3-7/h4,7-8H,2-3H2,1H3,(H,6,9)	InChI=1S/C5H11NO3/c1-4(8)2-6-5(9)3-7/h4,7-8H,2-3H2,1H3,(H,6,9)/t4-/m1/s1
