17
gdb 80668	2.63373	1.83303	1.34266	3.5036	67.39	-0.2626	-0.0036	0.259	961.0699	0.13778	-458.986609	-458.97947	-458.978526	-459.018143	28.558	
O	 0.1624120659	 1.2217353154	 0.4167670183	-0.442965
C	-0.0284266211	-0.1210154986	 0.0319432498	 0.023515
C	-1.5140042402	-0.4428521565	-0.0861770874	-0.043981
C	-1.6242765275	-1.8790125958	-0.6762140701	-0.256087
C	-1.4016650007	-1.2024798029	-2.0461066266	 0.116382
C	-2.0280949689	 0.0827218727	-1.4564830627	-0.246534
O	 0.0132681172	-0.9987130047	-2.2820264163	-0.231118
C	 0.6940741381	-0.3571269251	-1.3116647331	 0.389556
O	 1.8176044435	 0.0340315548	-1.4923055915	-0.352984
H	 1.067781123	 1.4464652447	 0.1619668353	 0.297018
H	 0.4373272425	-0.8075433055	 0.7605604459	 0.096595
H	-2.0527447561	-0.1880347741	 0.8272265091	 0.086323
H	-0.8958980178	-2.6341103299	-0.3677573195	 0.111986
H	-2.635023867	-2.2832429911	-0.5884277654	 0.116722
H	-1.7826023271	-1.6502031952	-2.9626018853	 0.096699
H	-3.1176392531	 0.0606269347	-1.5258591095	 0.113303
H	-1.6493685107	 1.042284977	-1.8147005309	 0.125569
89.0415	206.0881	286.0053	385.9326	394.9542	441.3493	455.5044	495.8678	533.4579	588.2506	693.1018	813.4	838.1031	872.5105	899.5856	915.1929	941.2561	970.677	1011.8136	1074.4794	1086.0553	1097.936	1130.4291	1147.0217	1155.7524	1212.1838	1239.9069	1250.2847	1273.6914	1291.9782	1332.9154	1371.4084	1396.9739	1431.985	1471.7683	1500.2862	1838.3893	2950.3705	3062.9267	3073.616	3106.4726	3123.8505	3130.5435	3134.9609	3760.3292
OC1C2CC(C2)OC1=O	O[C@H]1[C@@H]2C[C@@H](C2)OC1=O	
InChI=1S/C6H8O3/c7-5-3-1-4(2-3)9-6(5)8/h3-5,7H,1-2H2	InChI=1S/C6H8O3/c7-5-3-1-4(2-3)9-6(5)8/h3-5,7H,1-2H2/t3-,4+,5-/m0/s1
