19
gdb 115085	2.80755	1.3612	1.00498	2.6932	77.47	-0.2315	-0.0169	0.2146	1206.8774	0.158814	-423.04705	-423.038276	-423.037331	-423.080721	32.47	
C	-0.1489810089	 1.3411688708	-0.0048298433	-0.246345
O	 0.1457418565	-0.0414207955	 0.0769872243	-0.234943
C	 0.638102741	-0.6096028753	-1.1028144329	 0.025285
C	 1.2626432965	-1.9705753799	-0.7516322933	-0.279825
C	 1.657265088	-2.7463824274	-1.9785930134	-0.069189
C	 1.1488097476	-2.5172538231	-3.1881913067	-0.050584
C	 0.0916247929	-1.4780125571	-3.4617426972	-0.359033
C	-0.4213133194	-0.7983594978	-2.1955380617	 0.367331
O	-1.5668774583	-0.4386049577	-2.0700909117	-0.31043
H	 0.7346841997	 1.9176923915	-0.3216961499	 0.09726
H	-0.9762892342	 1.5407674959	-0.6932789528	 0.135974
H	-0.4322531136	 1.6614452583	 1.000500754	 0.127436
H	 1.4309219915	 0.0240119758	-1.5458205089	 0.08043
H	 2.126777797	-1.7995913399	-0.1009493597	 0.118419
H	 0.5387672304	-2.5351558714	-0.1479382796	 0.134937
H	 2.396397131	-3.5319303503	-1.8462275185	 0.095606
H	 1.477211993	-3.1092600903	-4.0385242492	 0.096147
H	 0.4881257433	-0.6961227031	-4.128573993	 0.134604
H	-0.7714911041	-1.9028001136	-3.9864961064	 0.136919
87.5229	102.9055	130.367	188.388	234.9626	286.6263	382.6551	398.9198	429.5767	488.1696	561.1719	610.0514	681.9099	735.3971	820.6318	905.2997	935.6923	978.8396	999.4123	1026.679	1032.2077	1080.7126	1111.8172	1156.7656	1171.2887	1180.0586	1202.1547	1225.89	1249.2303	1315.3387	1326.4771	1331.6087	1392.1032	1409.4289	1446.9001	1478.4236	1483.4208	1486.9366	1515.272	1727.8633	1822.7829	2919.1049	2981.336	2995.5924	3022.3405	3065.3873	3068.5759	3077.0101	3123.8139	3151.74	3174.4918
COC1CC=CCC1=O	CO[C@H]1CC=CCC1=O	
InChI=1S/C7H10O2/c1-9-7-5-3-2-4-6(7)8/h2-3,7H,4-5H2,1H3	InChI=1S/C7H10O2/c1-9-7-5-3-2-4-6(7)8/h2-3,7H,4-5H2,1H3/t7-/m0/s1
