16
gdb 16280	3.30512	1.79724	1.44775	3.4272	70.64	-0.252	0.0094	0.2614	903.4719	0.131345	-342.759586	-342.752196	-342.751252	-342.791088	27.871	
C	-0.064472502	 1.5677868593	 0.0685959289	-0.413598
C	 0.0435765242	 0.0544286666	-0.0170870248	-0.034296
C	 1.1524793098	-0.5856941996	-0.9353515129	-0.236007
C	 1.7238641288	-1.3019838376	 0.2901930678	-0.104852
N	 2.1070473643	-0.2531014247	 1.2484709098	-0.358296
C	 0.6827785546	-0.6866569581	 1.180191316	 0.23496
C	 0.0191532777	-1.23249174	 2.315807436	 0.173059
N	-0.5389474693	-1.6687062836	 3.2321500056	-0.345796
H	 0.8960937736	 2.0057023752	 0.3511286278	 0.141697
H	-0.3646650067	 1.9868461102	-0.8974706956	 0.119182
H	-0.8128379245	 1.8670500705	 0.8099200214	 0.125907
H	-0.9261346994	-0.3964082986	-0.2435887916	 0.096134
H	 0.7376111356	-1.2639969724	-1.6825976735	 0.115003
H	 1.8438294554	 0.1129557289	-1.4116349306	 0.118986
H	 2.1526948647	-2.2944956857	 0.3492112984	 0.119619
H	 2.5245425333	-0.7053228904	 2.0620449475	 0.248297
122.4663	162.6505	201.8352	230.1041	304.8563	412.3218	482.795	536.5625	567.6152	618.8939	675.3933	804.7307	856.1279	874.8539	908.8177	937.9766	1000.4188	1030.0838	1083.1589	1097.7732	1111.6674	1149.56	1190.3269	1226.9646	1241.737	1291.5584	1314.6872	1368.5838	1395.8026	1411.4993	1478.2153	1490.4051	1503.4809	2340.9135	3037.4832	3072.9007	3077.3008	3101.0693	3126.5818	3135.2259	3200.1816	3478.3713
CC1CC2NC12C#N	C[C@H]1C[C@H]2N[C@@]12C#N	
InChI=1S/C6H8N2/c1-4-2-5-6(4,3-7)8-5/h4-5,8H,2H2,1H3	InChI=1S/C6H8N2/c1-4-2-5-6(4,3-7)8-5/h4-5,8H,2H2,1H3/t4-,5+,6-/m0/s1
