20
gdb 60902	3.14618	1.1331	1.0396	3.6345	80.57	-0.2379	0.0287	0.2665	1245.2898	0.170903	-403.143877	-403.134929	-403.133985	-403.177959	33.14	
C	-0.5655161893	 1.3389228699	 0.0102031807	-0.362074
N	-0.076511814	-0.03298308	 0.0222708964	-0.136918
C	 0.3354711135	-0.5974151793	 1.1991296025	 0.135154
O	 0.2995892032	-0.0636911574	 2.2876583464	-0.342739
C	 0.0792854358	-0.7113357456	-1.2157547176	 0.382399
C	-1.1128127183	-1.1087897596	-2.0464952615	-0.309191
C	-0.1699743415	-2.1807718332	-1.5681189047	-0.114426
C	 1.0827348545	-2.1967557667	-2.4527284986	-0.218326
C	 1.3479196778	-0.6971039785	-2.0905779575	-0.279203
H	 0.1150528328	 1.996018669	-0.5438069084	 0.126324
H	-1.5530413877	 1.38735875	-0.4599950398	 0.12595
H	-0.6297046194	 1.6782749869	 1.0439908336	 0.166222
H	 0.7015276373	-1.6291630237	 1.0427832561	 0.072881
H	-2.062307219	-1.0653477241	-1.5229090204	 0.120587
H	-1.162670694	-0.8497114469	-3.1019050829	 0.107479
H	-0.5106913045	-2.9892103791	-0.9332846735	 0.100742
H	 1.8681418791	-2.8584126458	-2.0826164942	 0.110521
H	 0.9059032503	-2.4184376542	-3.5094483605	 0.103623
H	 1.3616954441	 0.0219956365	-2.9156248853	 0.09819
H	 2.2564333693	-0.5727055882	-1.496990111	 0.112805
61.5617	107.5276	129.7335	147.2331	259.5194	305.5566	327.9083	390.216	409.0585	460.6894	522.5555	692.6309	786.4789	791.362	861.7603	887.0356	919.6279	940.5262	971.0583	993.7507	1026.1393	1036.3269	1049.9806	1088.5407	1111.9328	1139.3107	1157.3004	1177.4322	1221.3148	1224.6965	1235.9808	1282.954	1310.1068	1367.6444	1397.3204	1434.1251	1445.5127	1481.4203	1482.2573	1496.881	1510.8244	1514.1019	1793.4385	2961.1383	3028.0945	3049.1032	3059.117	3084.0582	3103.3581	3106.649	3121.2851	3158.0122	3189.7809	3205.7767
CN(C=O)C12CC1CC2	CN(C=O)[C@]12C[C@H]1CC2	
InChI=1S/C7H11NO/c1-8(5-9)7-3-2-6(7)4-7/h5-6H,2-4H2,1H3	InChI=1S/C7H11NO/c1-8(5-9)7-3-2-6(7)4-7/h5-6H,2-4H2,1H3/t6-,7-/m1/s1
