21
gdb 83544	2.24921	1.93465	1.35959	1.4575	82.55	-0.2112	0.0751	0.2863	1040.4614	0.184697	-383.205505	-383.197621	-383.196677	-383.237326	32.021	
C	 0.082900839	 1.4240413909	-0.3823282385	-0.331202
N	 0.0342764759	 0.0011598904	-0.0663107935	-0.094752
C	-1.1533613584	-0.4402972494	 0.7591927631	-0.110644
C	-0.9112547581	-1.9638389208	 0.7655077316	-0.208578
C	 0.6238121973	-1.943864617	 1.093289854	-0.204995
C	 0.8133061461	-0.4166815584	 1.1628797087	-0.087835
C	-0.3914543975	 0.0043186059	 2.0186927887	 0.441642
C	-0.618655638	 1.1363788373	 2.9285880092	-0.344035
N	-0.6192151297	-0.2625283779	 3.4290686407	-0.399207
H	 1.0683549997	 1.6579191923	-0.7989726858	 0.118207
H	-0.6607009735	 1.6392582716	-1.1572675856	 0.116217
H	-0.0993059849	 2.1060130286	 0.4625698608	 0.103363
H	-2.1396062237	-0.0624316546	 0.4839131081	 0.064087
H	-1.5033248142	-2.4806381955	 1.5258845083	 0.092062
H	-1.1270629442	-2.4034469625	-0.209866031	 0.105188
H	 0.8604638886	-2.4266059698	 2.0441328597	 0.108429
H	 1.2267343541	-2.3894809218	 0.3002988338	 0.10205
H	 1.8171327353	-0.0128221143	 1.2959163446	 0.068022
H	 0.2130540487	 1.7417725616	 3.2799044422	 0.120886
H	-1.5658063423	 1.6679564938	 2.8677713875	 0.112088
H	-1.5744206602	-0.5778476602	 3.5858021434	 0.22901
162.8663	196.3743	242.3218	247.2338	255.7355	304.332	378.0791	451.5525	546.6511	615.5957	712.2079	746.0624	813.7811	842.4713	876.5957	902.2883	913.5359	931.2233	944.7453	969.4839	977.0069	1007.2542	1036.4627	1048.4002	1086.1445	1130.6916	1148.0767	1164.4452	1187.0017	1189.4943	1222.7907	1240.3079	1245.4131	1260.5419	1266.5446	1286.0628	1311.524	1316.546	1440.9819	1452.2312	1475.3154	1490.1547	1495.3654	1505.4705	1524.4842	2983.6109	3060.2997	3062.6755	3075.8095	3092.6925	3098.5562	3104.6948	3114.1454	3121.264	3132.2345	3180.5127	3484.3345
CN1C2CCC1C21CN1	CN1[C@H]2CC[C@@H]1[C@]12CN1	
InChI=1S/C7H12N2/c1-9-5-2-3-6(9)7(5)4-8-7/h5-6,8H,2-4H2,1H3	InChI=1S/C7H12N2/c1-9-5-2-3-6(9)7(5)4-8-7/h5-6,8H,2-4H2,1H3/t5-,6+,7+
