20
gdb 82206	2.38295	1.83039	1.33637	0.9342	77.33	-0.2315	0.0738	0.3053	1025.709	0.171831	-403.114956	-403.106836	-403.105892	-403.14698	32.966	
C	 0.0027213718	 1.5854297306	-0.0451614785	-0.401209
C	 0.0315633256	 0.0549669237	-0.0126973546	-0.049732
C	 0.7037271956	-0.5985389666	-1.2192336571	-0.051096
N	 2.1479952268	-0.3189902868	-1.3558745849	-0.340719
C	 1.7029747679	-1.5948179174	-0.7478447241	-0.052608
C	 1.7105312957	-1.6035111405	 0.7650050327	-0.089458
C	 2.195170881	-0.3413011179	 1.460386669	-0.356689
C	 0.7248844927	-0.5569950627	 1.2223392862	 0.380017
O	-0.0952739192	-0.8184895849	 2.326242331	-0.471525
H	 1.0147086817	 1.987731239	-0.141746731	 0.1332
H	-0.5894215209	 1.9541059489	-0.8894200127	 0.108484
H	-0.4441605536	 1.9883897687	 0.8705231092	 0.101894
H	-0.9982991624	-0.3223898955	 0.0264247983	 0.083159
H	 0.1208711902	-0.7467686076	-2.1235083275	 0.082721
H	 2.4324746818	-0.4823239156	-2.318142395	 0.22883
H	 1.8931669575	-2.5190255002	-1.2822632927	 0.083543
H	 1.7912814207	-2.5518835623	 1.2819198078	 0.089551
H	 2.5218878556	-0.4648059684	 2.4879242044	 0.10181
H	 2.7436446755	 0.3806035973	 0.8687329021	 0.138395
H	-0.0981822341	-0.0348109217	 2.8859583275	 0.281433
131.9066	206.3844	223.4679	243.9464	283.3142	310.9406	404.845	418.8093	520.7196	557.8784	636.317	665.0128	686.585	807.0801	812.6359	872.8351	882.063	908.1547	912.6927	935.2525	985.4993	1002.0651	1051.1225	1058.1075	1072.0106	1081.6647	1106.1604	1117.9721	1134.6845	1166.6963	1207.3385	1246.4215	1267.8466	1317.097	1330.4852	1348.2109	1376.0322	1392.9207	1403.1698	1418.0717	1469.7666	1494.5543	1502.1314	3029.0526	3032.4528	3091.3427	3116.6814	3135.1362	3149.2517	3170.0803	3191.0584	3235.5028	3503.223	3800.6412
CC1C2NC2C2CC12O	C[C@H]1[C@H]2N[C@H]2[C@H]2C[C@@]12O	
InChI=1S/C7H11NO/c1-3-5-6(8-5)4-2-7(3,4)9/h3-6,8-9H,2H2,1H3	InChI=1S/C7H11NO/c1-3-5-6(8-5)4-2-7(3,4)9/h3-6,8-9H,2H2,1H3/t3-,4+,5+,6-,7+/m0/s1
