17
gdb 55342	2.05373	1.74055	1.18088	3.6251	68.99	-0.2393	-0.0416	0.1976	1084.2969	0.132603	-458.96025	-458.950887	-458.949943	-458.995556	32.005	
C	 0.5684056532	 1.5291919325	-0.1553253312	-0.488068
C	-0.0468265915	 0.1531998739	-0.039171553	 0.398032
O	-0.48126337	-0.3027780768	 0.989908541	-0.301701
C	-0.0812894401	-0.6931977193	-1.3260455681	 0.01181
O	-0.0629649545	-2.1012892047	-1.0391311729	-0.261348
C	-1.4417312277	-2.2687624361	-1.4124352771	-0.089727
C	-1.4791838393	-0.8323286463	-1.9945537068	-0.151346
C	-2.6118485585	 0.0815807608	-1.6210902252	 0.143881
O	-2.4813198978	 1.183722338	-1.1515525284	-0.241049
H	 1.6399323864	 1.4411139896	-0.3719608174	 0.136181
H	 0.1049957575	 2.0780156302	-0.980425588	 0.150452
H	 0.4292314494	 2.0768909668	 0.7771551798	 0.146268
H	 0.7343592078	-0.4059250704	-1.9997567082	 0.091212
H	-1.5837953164	-3.0906257407	-2.1213053123	 0.113736
H	-2.0836210261	-2.4185450742	-0.5360568584	 0.12574
H	-1.4146418667	-0.8448139627	-3.0886316181	 0.123014
H	-3.6228059656	-0.3346391005	-1.8344669257	 0.092913
54.0303	80.33	96.9859	112.9923	151.9496	226.2284	259.8278	344.3892	365.4884	543.1112	592.4046	663.6647	719.3565	804.003	873.919	918.7027	941.9596	1002.1497	1004.6451	1036.9758	1060.6907	1086.1395	1126.1671	1162.0795	1187.3147	1215.341	1255.1112	1327.5977	1343.2116	1368.7118	1381.804	1419.4304	1458.4808	1476.4031	1519.924	1819.0522	1827.855	2875.425	3027.3	3034.3396	3040.2854	3052.6402	3082.9176	3107.7915	3157.0047
CC(=O)C1OCC1C=O	CC(=O)[C@H]1OC[C@H]1C=O	
InChI=1S/C6H8O3/c1-4(8)6-5(2-7)3-9-6/h2,5-6H,3H2,1H3	InChI=1S/C6H8O3/c1-4(8)6-5(2-7)3-9-6/h2,5-6H,3H2,1H3/t5-,6-/m1/s1
