19
gdb 30820	2.35202	1.27483	0.87506	1.0937	80.44	-0.157	0.0634	0.2204	1339.7694	0.158837	-419.239872	-419.229706	-419.228762	-419.275372	36.776	
C	 0.244212703	 1.5828470417	-0.1801605136	-0.359731
C	-0.0630857183	 0.0940784927	 0.0745132243	-0.311949
C	 0.592584462	-0.4771566049	 1.2884626759	 0.239941
C	 0.0904815183	-0.8665071351	 2.5097181126	 0.183904
N	-1.2649525191	-0.8888800981	 2.9089039789	-0.610113
C	 1.1760544756	-1.3436563917	 3.3169304787	-0.372005
C	 2.3086072509	-1.2245572541	 2.5478819357	 0.384778
O	 3.616862569	-1.5146480859	 2.7735320597	-0.438744
N	 1.9744234172	-0.7085359835	 1.3382446222	-0.356632
H	 1.3193589332	 1.7489307429	-0.3074030713	 0.108499
H	-0.258010307	 1.9421702855	-1.0848877758	 0.106457
H	-0.0827770581	 2.1981702585	 0.6637146382	 0.116144
H	-1.1466069134	-0.0404581977	 0.1715716323	 0.104052
H	 0.2168791187	-0.4838605042	-0.8189559197	 0.098571
H	-1.8243032735	-0.2197040653	 2.3945531809	 0.232835
H	-1.3638636254	-0.6828246387	 3.8957285256	 0.235588
H	 1.1157715029	-1.7331285303	 4.3218446328	 0.075899
H	 3.6903838915	-1.8991810648	 3.6518002859	 0.305142
H	 2.6280765124	-0.5512039571	 0.5919420867	 0.257363
37.6101	98.7309	136.6047	189.9026	203.8315	224.8108	251.1698	281.6931	297.8841	361.4291	427.1992	513.5989	598.1297	616.6514	660.2715	669.942	703.9609	764.9709	791.2516	819.5492	959.0324	1031.3686	1055.8499	1065.5786	1080.2215	1177.0251	1192.8332	1219.9406	1241.1759	1309.7935	1351.6945	1362.4858	1406.6156	1478.3361	1483.9434	1495.1819	1504.9695	1549.1281	1594.7374	1650.2783	1670.9105	2991.4382	3029.4589	3053.858	3097.3706	3106.8269	3239.3662	3523.3172	3608.4618	3689.3782	3851.4176
CCC1=C(N)C=C(O)N1	CCc1c(N)cc(O)[nH]1	
InChI=1S/C6H10N2O/c1-2-5-4(7)3-6(9)8-5/h3,8-9H,2,7H2,1H3	InChI=1S/C6H10N2O/c1-2-5-4(7)3-6(9)8-5/h3,8-9H,2,7H2,1H3
