20
gdb 87500	3.02332	1.3714	1.13325	0.8852	80.45	-0.2079	0.0648	0.2727	1139.1292	0.169915	-403.034807	-403.026313	-403.025368	-403.067496	33.435	
C	 0.0886550763	 1.4981954331	-0.3031922817	-0.333221
N	-0.0066421772	 0.0660134906	-0.031297639	-0.095903
C	-1.0870255077	-0.4208872125	 0.9278298616	-0.111708
C	-0.2256514672	-1.7079600587	 1.059157424	-0.207799
C	 0.7316440484	-0.4900917952	 1.1793708798	-0.122707
C	-0.3065242212	 0.1397416531	 2.1349158998	 0.417701
C	-0.4084300872	 1.3909519966	 2.9514963176	-0.405181
C	-0.5575627472	 0.0372112111	 3.6050609739	-0.028739
O	-1.8442893122	-0.2770621797	 4.0657054181	-0.425228
H	 1.0534848469	 1.6927087304	-0.7841019515	 0.116939
H	-0.6941550256	 1.7652358657	-1.021370815	 0.117724
H	-0.0021994666	 2.1596599138	 0.5675766634	 0.113901
H	-2.149258932	-0.3304741901	 0.6958332868	 0.084402
H	-0.3679236252	-2.316550843	 1.9535335877	 0.083338
H	-0.1204522605	-2.2898914874	 0.1435731392	 0.104135
H	 1.8212976106	-0.484329904	 1.2444163174	 0.079339
H	 0.4863734988	 1.9674731184	 3.1647946237	 0.115148
H	-1.3171325373	 1.9784978311	 2.8643890643	 0.127511
H	 0.2569660485	-0.2958539412	 4.2503968234	 0.08414
H	-1.9916140824	-1.2168621721	 3.9153873864	 0.286207
128.2587	143.5038	171.1784	218.5212	280.3724	317.9728	328.3249	422.4785	452.1347	498.14	613.8392	677.8629	746.7722	754.521	815.2356	853.2836	874.042	896.8961	952.2517	990.7789	1015.3506	1039.176	1053.6635	1074.038	1090.0086	1125.1562	1149.5938	1152.5431	1161.2034	1167.7743	1181.1378	1190.8282	1215.0699	1240.3695	1257.044	1299.8998	1362.9773	1424.0792	1439.7603	1477.5701	1486.0612	1498.3706	1504.3827	3014.7716	3075.7404	3076.1831	3082.7458	3091.9959	3099.2548	3108.9453	3122.425	3158.6135	3209.5461	3801.4879
CN1C2CC1C21CC1O	CN1[C@H]2C[C@@H]1[C@]12C[C@H]1O	
InChI=1S/C7H11NO/c1-8-4-2-5(8)7(4)3-6(7)9/h4-6,9H,2-3H2,1H3	InChI=1S/C7H11NO/c1-8-4-2-5(8)7(4)3-6(7)9/h4-6,9H,2-3H2,1H3/t4-,5+,6-,7+/m1/s1
