19
gdb 114497	3.40848	1.13278	0.95922	3.0781	78.21	-0.2228	0.0205	0.2433	1277.4878	0.159372	-419.169274	-419.160889	-419.159945	-419.202608	31.529	
C	-0.1604474523	 1.5095277131	 0.073681628	-0.383277
C	 0.0899749829	 0.0177448129	-0.1337331285	-0.127432
N	 0.7067946052	-0.5818270974	 1.0353302051	-0.077672
C	 2.1329355631	-0.2778084183	 1.3133096883	-0.200868
C	 2.4109260294	-1.7736590589	 1.5244577611	 0.092401
O	 2.0256245916	-2.2798008613	 2.8380043262	-0.279577
C	 0.7624965246	-2.6480066438	 2.3829769436	 0.474679
N	-0.1641150649	-3.260806994	 2.9574737086	-0.552127
C	 0.9784717602	-2.043222383	 1.0077710695	-0.149109
H	 0.7775657021	 2.0501665888	 0.2398247679	 0.118698
H	-0.6412885899	 1.9441623274	-0.8077681773	 0.116198
H	-0.8033953877	 1.6726688634	 0.9429219015	 0.131991
H	-0.8625167696	-0.4972002568	-0.3040051261	 0.113559
H	 0.7026940464	-0.1308691664	-1.046313736	 0.071723
H	 2.6726955039	 0.0998563367	 0.4305989295	 0.098667
H	 2.3144270254	 0.3864887574	 2.1633090765	 0.12063
H	 3.3375439043	-2.2254382807	 1.1768726144	 0.103501
H	 0.0778752648	-3.4896716358	 3.9232568239	 0.22971
H	 0.6937032604	-2.5957631935	 0.1120723736	 0.098305
80.4998	110.8601	165.6956	184.8703	246.3062	331.4477	382.1049	406.2909	450.4023	632.8356	673.0915	780.1206	811.2211	825.1092	847.2046	868.4275	907.4684	964.2917	984.5847	1001.501	1009.0392	1035.9039	1046.0618	1110.0728	1148.4203	1178.9347	1190.218	1200.4699	1213.614	1253.5789	1293.0681	1309.4169	1332.7068	1343.6063	1396.6965	1416.5717	1485.893	1489.2956	1496.7206	1514.2096	1831.506	2893.6544	2981.6754	3038.5759	3053.8089	3081.2979	3105.6633	3114.9609	3122.3044	3139.7654	3474.2405
CCN1CC2OC(=N)C12	CCN1C[C@H]2O[C]([NH])[C@@H]12	
InChI=1S/C6H10N2O/c1-2-8-3-4-5(8)6(7)9-4/h4-5,7H,2-3H2,1H3	InChI=1S/C6H10N2O/c1-2-8-3-4-5(8)6(7)9-4/h4-5,7H,2-3H2,1H3/t4-,5+/m1/s1
