19
gdb 18276	4.25736	1.48144	1.24738	2.1606	70.35	-0.2272	0.0756	0.3028	1002.5825	0.167469	-365.038412	-365.030849	-365.029905	-365.07025	29.103	
O	-0.0534882953	 1.4248582321	-0.0402072935	-0.422338
C	 0.0319554432	 0.007061541	 0.0070237578	-0.093821
C	-1.3857902547	-0.5467355052	-0.0052065561	 0.035944
C	-2.1838787548	-0.2327256046	-1.2906728765	-0.244627
C	-3.1750831178	-1.4132516129	-1.4011976153	-0.159922
N	-2.583827454	-2.5803685696	-0.7131863115	-0.097547
C	-1.2048193836	-2.8671633662	-1.1304042251	-0.249438
C	-1.4634452759	-2.0657881804	 0.0969078532	-0.041121
H	 0.8396243762	 1.7811383072	-0.0388892335	 0.286835
H	 0.5895324044	-0.3886000489	-0.8574192417	 0.083724
H	 0.555875093	-0.3285573883	 0.9167215822	 0.08505
H	-1.9106736787	-0.1215154768	 0.8599347968	 0.084686
H	-2.6860963082	 0.7348132295	-1.2419211166	 0.11342
H	-1.5112584889	-0.1933039394	-2.1537555645	 0.101854
H	-4.1124693164	-1.180202831	-0.8842040809	 0.107188
H	-3.4250524149	-1.671539978	-2.4351818755	 0.103298
H	-0.9150675119	-3.9102593432	-1.0420233909	 0.113449
H	-0.8056964132	-2.3664614612	-2.0092554905	 0.106729
H	-1.3263873386	-2.522303924	 1.0736306923	 0.086637
101.4089	137.6554	206.3791	270.8455	291.6467	388.2223	420.5436	477.8482	641.7635	651.3946	746.5021	830.8	846.7901	868.2727	947.3844	965.9769	989.7229	1004.5058	1020.478	1065.1152	1088.0623	1108.6982	1121.8161	1147.2867	1176.103	1197.6271	1236.3283	1247.4373	1254.3712	1279.3925	1311.2079	1329.8867	1343.177	1361.5155	1399.1748	1462.2694	1491.104	1499.357	1515.6651	1523.9242	2962.7115	2989.2853	3028.4893	3040.6384	3053.0947	3084.3721	3107.2251	3117.848	3140.0244	3188.8236	3830.1137
OCC1CCN2CC12	OC[C@H]1CCN2C[C@@H]12	
InChI=1S/C6H11NO/c8-4-5-1-2-7-3-6(5)7/h5-6,8H,1-4H2	InChI=1S/C6H11NO/c8-4-5-1-2-7-3-6(5)7/h5-6,8H,1-4H2/t5-,6+,7?/m1/s1
