16
gdb 77184	3.03922	1.18004	0.98019	4.4708	65.86	-0.2525	0.0096	0.2621	1194.3159	0.123104	-475.003852	-474.995081	-474.994137	-475.038327	30.941	
O	 0.4705635201	 1.1685997114	 0.3076132185	-0.423607
C	 0.0650746953	-0.1393866504	 0.0465532066	-0.008744
C	-1.4734413808	-0.5018394832	 0.0375103134	-0.030991
N	-1.242603063	-1.0750531484	-1.2939352725	-0.331031
C	 0.047354081	-0.6162886532	-1.4313273676	 0.372297
O	 0.7996011731	-0.5409946183	-2.3647461151	-0.356565
C	-1.9539601149	-1.4451231075	 1.1107961426	 0.060665
C	-2.5580513175	-2.7534767032	 0.8262892494	-0.174614
O	-1.2076452576	-2.6504087212	 1.2768004186	-0.226351
H	 0.4154957976	 1.678937999	-0.5075701716	 0.298008
H	 0.6171749335	-0.8151729771	 0.7043268226	 0.138919
H	-2.094186717	 0.4022547733	 0.0240182958	 0.088368
H	-1.8950432057	-1.378305821	-2.0023994299	 0.253672
H	-2.2194856797	-0.9499105008	 2.0463033816	 0.106876
H	-3.2597255146	-3.1898301284	 1.5355025241	 0.121813
H	-2.67421096	-3.0775121711	-0.2064229263	 0.111286
65.1371	69.4021	104.8918	175.2593	228.0329	259.5152	317.7779	404.3081	467.2271	549.3903	623.0262	730.3722	733.6811	810.47	870.5693	900.8617	943.2501	967.8618	1011.5786	1088.3394	1096.0978	1133.9221	1156.1499	1168.5212	1169.7878	1209.2262	1252.8427	1288.2288	1306.3966	1366.2901	1388.5611	1416.8637	1429.9238	1524.336	1895.7264	3035.8679	3087.4937	3095.5096	3102.8864	3175.908	3605.3787	3809.3491
OC1C(NC1=O)C1CO1	O[C@H]1[C@@H](NC1=O)[C@H]1CO1	
InChI=1S/C5H7NO3/c7-4-3(2-1-9-2)6-5(4)8/h2-4,7H,1H2,(H,6,8)	InChI=1S/C5H7NO3/c7-4-3(2-1-9-2)6-5(4)8/h2-4,7H,1H2,(H,6,8)/t2-,3+,4+/m1/s1
