25
gdb 121399	3.83693	0.82153	0.71808	0.972	90.19	-0.2418	0.0854	0.3272	1692.475	0.230322	-389.517272	-389.507565	-389.506621	-389.55232	36.882	
C	 0.0871196667	 1.540395185	-0.0268091829	-0.381588
C	-0.1185964934	 0.0356627214	-0.1000763423	-0.041437
O	 0.7074403804	-0.4733421287	-1.1273840538	-0.2604
C	 0.7429633898	-1.8882327704	-1.2393906276	 0.156166
C	-0.514378711	-2.4600823529	-1.9136732925	-0.20798
C	-0.394149696	-3.9767025717	-2.1293345763	-0.196436
C	 0.8680838614	-4.3315440451	-2.9274457594	-0.176572
C	 2.124859464	-3.7552977004	-2.259936824	-0.200327
C	 1.9989712785	-2.2417864324	-2.0381466324	-0.203085
H	 1.1344968598	 1.7736407958	 0.1849520424	 0.123779
H	-0.1810897347	 2.0098687136	-0.9776494722	 0.125077
H	-0.5345931124	 1.9744113792	 0.7621921768	 0.110811
H	 0.1417405858	-0.4356878248	 0.8631944389	 0.081196
H	-1.1795314731	-0.1904389689	-0.2913400475	 0.086598
H	 0.8305049917	-2.3275067534	-0.2285787159	 0.054771
H	-1.4047434437	-2.2349040198	-1.3167684301	 0.088913
H	-0.6409616737	-1.952399667	-2.8791201499	 0.09807
H	-0.3583768807	-4.4812830624	-1.1535089612	 0.092224
H	-1.2883610449	-4.3542373344	-2.6377235241	 0.09159
H	 0.9575789876	-5.4185472886	-3.0341846583	 0.088264
H	 0.7791895299	-3.9232828455	-3.9436827227	 0.092816
H	 2.280382121	-4.2538566493	-1.2928784138	 0.091826
H	 3.0128327281	-3.9715981298	-2.8641283088	 0.091923
H	 1.9438585908	-1.7238807103	-3.0047048343	 0.099702
H	 2.8772460181	-1.8453704992	-1.5181999183	 0.094098
54.9725	77.561	112.5568	207.0451	223.3868	252.2043	305.2578	334.1927	364.2345	447.9499	474.0143	482.0909	575.4455	792.7583	800.7293	822.1146	849.1384	890.4094	895.0653	908.3439	934.8072	989.2903	1033.0259	1059.2693	1060.6538	1085.6043	1099.4235	1133.7698	1150.5631	1175.3489	1190.1113	1209.2168	1273.3582	1281.8475	1282.6793	1297.708	1334.7268	1341.7083	1366.3474	1377.401	1378.0123	1384.8236	1394.2597	1404.0964	1436.8958	1483.0723	1483.2852	1486.3936	1488.759	1494.2414	1499.9982	1508.5384	1530.1078	2930.3384	2956.2284	2987.7387	3009.2398	3010.3437	3015.9689	3022.52	3028.116	3043.3721	3061.2557	3062.0279	3066.3061	3071.1919	3078.314	3117.3557	3120.4232
CCOC1CCCCC1	CCOC1CCCCC1	
InChI=1S/C8H16O/c1-2-9-8-6-4-3-5-7-8/h8H,2-7H2,1H3	InChI=1S/C8H16O/c1-2-9-8-6-4-3-5-7-8/h8H,2-7H2,1H3
