16
gdb 66674	4.57818	1.19225	1.17137	4.5568	74.42	-0.2248	-0.0394	0.1854	1087.7919	0.122291	-400.6343	-400.626546	-400.625602	-400.666681	29.03	
C	 0.0789488415	 1.5297992598	 0.0214898543	-0.526459
C	 0.0097334024	 0.039916658	 0.0091404691	 0.335476
C	 0.9251152498	-1.0163804424	-0.5593618577	-0.060613
C	 0.680830288	-0.9970187449	 0.9278553406	-0.252692
C	-0.5012762599	-1.9637774539	 0.6876512005	 0.286069
C	-1.1100401105	-3.1008068996	 1.394775696	 0.01932
O	-2.0441734288	-3.7328170966	 0.9626545933	-0.256478
C	-1.1481813743	-0.9692991541	-0.2371920077	-0.154284
N	-0.2345369063	-1.9824304566	-0.8184856933	-0.186594
H	 1.1056963821	 1.8639383245	 0.2050817163	 0.129949
H	-0.242521785	 1.9524300395	-0.9371378468	 0.132551
H	-0.5547078989	 1.955083772	 0.8077755257	 0.130505
H	 1.8272831482	-0.9729473139	-1.156001486	 0.10928
H	 1.3561963667	-0.8423294426	 1.7575168912	 0.104351
H	-0.6550777653	-3.3320843135	 2.3842099146	 0.073318
H	-2.1912482896	-0.8912402556	-0.5214203602	 0.116299
87.5571	155.2965	166.2096	217.7102	268.6163	300.7012	441.1952	601.9835	650.3292	697.4566	745.8097	770.1398	823.3423	843.0436	866.9826	878.7151	931.5825	950.1625	998.0208	1019.0682	1036.3936	1052.3332	1103.3897	1117.256	1147.72	1180.1376	1234.8263	1281.7261	1356.03	1410.7244	1433.7979	1446.2007	1481.4643	1499.0775	1799.5582	2874.8636	3025.0868	3086.83	3097.4202	3186.7635	3195.1059	3218.8041
CC12C3C1C1(C=O)C2N31	C[C@@]12[C@H]3[C@@H]1[C@@]1(C=O)[C@@H]2N31	
InChI=1S/C7H7NO/c1-6-3-4(6)8-5(6)7(3,8)2-9/h2-5H,1H3	InChI=1S/C7H7NO/c1-6-3-4(6)8-5(6)7(3,8)2-9/h2-5H,1H3/t3-,4+,5+,6-,7-,8?/m0/s1
