18
gdb 53966	3.08907	1.04738	0.95542	3.7233	72.57	-0.2555	-0.0365	0.219	1281.2329	0.143277	-439.122446	-439.11193	-439.110986	-439.158413	37.056	
C	 0.0770905297	 1.494504403	 0.0258725493	-0.47303
C	-0.0447569041	-0.0144249065	 0.0400561313	 0.351716
O	-0.1804767927	-0.6487610369	 1.0610165867	-0.309138
C	-0.0144805157	-0.7358494624	-1.3326078867	 0.227603
C	-1.4617973058	-0.8734679362	-1.8222551502	-0.410694
O	 0.6610388075	 0.0332222065	-2.3151859986	-0.449162
C	 0.6537145904	-2.1197841558	-1.1312337732	-0.383285
C	 0.6678773124	-2.9286987811	-2.3452854437	 0.273152
N	 0.6800274855	-3.5701021772	-3.3062802993	-0.311721
H	 1.1061476006	 1.7810619577	-0.2183585332	 0.142365
H	-0.5537912974	 1.9390821817	-0.7480933982	 0.15299
H	-0.1797042188	 1.8852726421	 1.0108813505	 0.145729
H	-1.9042868111	 0.1147415992	-1.970428041	 0.133825
H	-1.4753777983	-1.4012405936	-2.7789835538	 0.159589
H	-2.0628093717	-1.4246741666	-1.0951720374	 0.139353
H	 1.6084433941	 0.0109925867	-2.1416075447	 0.28735
H	 1.6862843872	-1.9831890022	-0.7858215164	 0.143326
H	 0.1347116381	-2.6506106484	-0.3292464212	 0.180033
50.9882	64.3136	109.9556	130.5726	215.5474	225.9109	255.7867	308.3962	324.0393	352.0693	387.8032	405.4191	437.8219	536.3396	588.6778	606.5754	746.1781	838.3058	904.5518	953.6867	972.0566	986.0977	1015.2452	1085.1315	1120.904	1167.787	1240.9066	1253.0482	1330.0272	1359.7898	1383.7413	1405.7988	1451.9905	1459.1978	1466.1218	1484.545	1497.0667	1804.8856	2363.7808	3040.2205	3047.4207	3053.2254	3110.8831	3111.2638	3131.3082	3139.7422	3160.5624	3805.7721
CC(=O)C(C)(O)CC#N	CC(=O)[C@@](C)(O)CC#N	
InChI=1S/C6H9NO2/c1-5(8)6(2,9)3-4-7/h9H,3H2,1-2H3	InChI=1S/C6H9NO2/c1-5(8)6(2,9)3-4-7/h9H,3H2,1-2H3/t6-/m0/s1
