23
gdb 80974	2.63006	1.40457	1.13487	0.2147	91.89	-0.21	0.0275	0.2376	1225.852	0.205091	-351.141111	-351.131869	-351.130925	-351.17421	36.622	
C	-0.1902724031	 1.5175080721	-0.0537735561	-0.437705
C	 0.0204214927	 0.0088810928	-0.0012972004	 0.026715
C	 1.2068332913	-0.6175699018	-0.8290319675	-0.133456
C	 2.1383154483	-0.2112604571	 0.3581878674	-0.259059
C	 0.8670055404	-0.6054911562	 1.1931976816	 0.31072
C	 0.6719378811	-0.2019638054	 2.6367917754	-0.512551
C	 0.7729280832	-2.0931189057	 0.8098956505	-0.253817
C	 0.993670719	-2.1089144579	-0.5099290833	 0.349757
C	 1.0285057319	-3.2214832356	-1.4991990619	-0.518099
H	 0.7292070367	 2.0919470745	 0.0864106473	 0.115875
H	-0.6162579173	 1.8081800454	-1.02085902	 0.11413
H	-0.8989741092	 1.8332632902	 0.7204987671	 0.115717
H	-0.9377310257	-0.4977447976	-0.1576925426	 0.058399
H	 1.4118181227	-0.3304384453	-1.861772772	 0.049623
H	 3.0366781583	-0.814022683	 0.5130990712	 0.086209
H	 2.3873391665	 0.8530222541	 0.39542195	 0.086959
H	 0.7425036531	 0.883406265	 2.7635477098	 0.113037
H	-0.3099607475	-0.5179992653	 3.0081383244	 0.114315
H	 1.431819334	-0.6607175414	 3.279845928	 0.116058
H	 0.5590866914	-2.9114117726	 1.4853127781	 0.086754
H	 0.8364499498	-4.1865604158	-1.0209447278	 0.122575
H	 0.2794760572	-3.0801632354	-2.2895122437	 0.123811
H	 2.0018552253	-3.2811141281	-2.0037549256	 0.124034
151.9955	180.8612	184.2443	200.7776	203.7781	227.8167	272.382	360.3142	391.4272	499.2232	511.2131	572.9878	579.8131	642.9425	752.6445	780.056	808.3972	827.6824	869.0108	911.6111	928.8461	999.2089	1006.0924	1043.3768	1058.5152	1066.5683	1090.6057	1103.5336	1115.242	1128.1957	1184.193	1200.1088	1217.427	1231.4794	1239.8522	1295.8868	1331.0906	1373.235	1407.3304	1411.1096	1413.7776	1477.4705	1486.1766	1488.0456	1490.924	1494.9891	1496.9845	1511.4767	1690.4528	3010.2433	3022.8076	3028.3723	3044.9875	3053.2167	3053.3655	3084.3833	3085.3699	3093.3403	3099.9088	3102.2913	3106.4929	3117.4457	3210.7319
CC1C2CC1(C)C=C2C	C[C@H]1[C@H]2C[C@]1(C)C=C2C	
InChI=1S/C9H14/c1-6-4-9(3)5-8(6)7(9)2/h4,7-8H,5H2,1-3H3	InChI=1S/C9H14/c1-6-4-9(3)5-8(6)7(9)2/h4,7-8H,5H2,1-3H3/t7-,8-,9-/m0/s1
