19
gdb 65316	3.73109	1.02956	0.93296	1.9471	83.23	-0.24	0.0459	0.2859	1299.9934	0.156792	-385.825035	-385.81577	-385.814826	-385.858881	34.939	
C	-0.1047597702	 1.793198779	 0.2002653982	-0.468005
C	-0.0642938425	 0.2974759883	-0.0346908279	 0.295421
C	 1.2172453839	-0.3577850816	-0.4571711654	-0.336593
C	 0.6893316501	-0.6021608472	 0.9512432516	-0.239005
C	 1.3591348866	-0.0602156433	 2.0951434891	 0.319099
C	 1.9159137335	 0.3894333408	 3.0629101036	-0.443482
C	-1.351863156	-0.2659905269	-0.5655639844	 0.00513
C	-1.5671020289	-0.5408387216	-1.9932111969	-0.174862
O	-1.3287878071	-1.6031468853	-1.0633049474	-0.235236
H	 0.8123039309	 2.1402591425	 0.68080466	 0.136336
H	-0.225793752	 2.331414323	-0.7462874437	 0.117903
H	-0.9423669296	 2.0668744073	 0.8521117336	 0.122011
H	 1.1606087479	-1.1996947551	-1.1373270991	 0.132685
H	 2.0962191886	 0.2688032841	-0.5548403446	 0.120314
H	 0.2428441859	-1.5808560182	 1.1014389876	 0.125508
H	 2.4104467016	 0.7793900496	 3.9174587998	 0.192392
H	-2.2303788773	-0.0361574771	 0.0411939145	 0.095868
H	-2.5722522813	-0.5051494168	-2.409620618	 0.117897
H	-0.7587476639	-0.3534153316	-2.6979418504	 0.116616
83.5046	117.0088	144.3529	191.7518	220.4437	265.8945	303.2898	343.0345	420.9068	498.1164	528.2278	578.1591	606.6143	648.0655	683.9471	808.4481	835.9292	877.3687	894.3147	931.3203	963.5107	991.1857	1047.8305	1076.6561	1089.3521	1111.2817	1117.292	1139.2269	1157.1031	1175.5593	1261.0456	1283.6364	1322.1009	1396.2523	1417.0971	1433.0503	1472.1425	1491.1014	1502.2376	1524.7451	2232.8124	3031.0018	3085.2596	3089.2446	3090.8437	3127.4069	3142.1606	3151.7316	3178.5322	3236.5883	3505.1064
CC1(CC1C#C)C1CO1	C[C@]1(C[C@H]1C#C)[C@H]1CO1	
InChI=1S/C8H10O/c1-3-6-4-8(6,2)7-5-9-7/h1,6-7H,4-5H2,2H3	InChI=1S/C8H10O/c1-3-6-4-8(6,2)7-5-9-7/h1,6-7H,4-5H2,2H3/t6-,7-,8-/m1/s1
