17
gdb 35299	5.57361	0.95485	0.89749	0.2729	87.47	-0.237	0.0251	0.2621	1290.4742	0.134024	-347.459515	-347.45099	-347.450045	-347.492456	33.12	
C	 0.0184039253	-1.2455238463	-0.1440909463	-0.469543
C	 0.0166108387	-0.0457281601	-0.058809256	 0.331241
C	 0.0239042534	 1.4006208103	 0.0691593011	-0.176237
C	-0.2321326634	 2.0260378873	 1.4929653976	-0.310378
C	 1.117344053	 2.762363496	 1.4018714231	 0.2189
C	 2.2253483637	 1.749058154	 1.2014129704	-0.322552
C	 1.3873126589	 2.1200036212	 0.0214990548	-0.106578
C	 1.3510951633	 4.0937211131	 1.8444474347	 0.150585
C	 1.5248586628	 5.2226447411	 2.2253770181	-0.401241
H	 0.016499821	-2.3039204367	-0.2296505773	 0.196886
H	-0.6683247832	 1.84008438	-0.6544410549	 0.111779
H	-1.0887146854	 2.7007935203	 1.4921144972	 0.121468
H	-0.3276940083	 1.3168683354	 2.3187606929	 0.112999
H	 3.2264230914	 2.1651829832	 1.2080247336	 0.128951
H	 2.1373540441	 0.7617906889	 1.6478912829	 0.124397
H	 1.8044021664	 2.5856279338	-0.8624589509	 0.105865
H	 1.6842665084	 6.2167774684	 2.5617428688	 0.183457
80.327	109.9048	177.0227	202.1649	297.1534	384.8427	450.3786	485.8802	530.2439	557.3605	574.0613	608.2438	627.8294	631.748	646.778	697.9026	802.9816	844.4509	893.8959	956.6493	965.3151	975.7788	1030.2775	1065.1517	1080.9209	1091.4321	1132.6005	1198.7146	1222.9429	1254.523	1288.3303	1334.1618	1384.6228	1478.5772	1494.4151	2231.5243	2231.7072	3065.1774	3070.2062	3117.5034	3135.901	3194.2179	3218.2545	3503.6445	3504.0979
C#CC1CC2(CC12)C#C	C#C[C@H]1C[C@]2(C[C@@H]12)C#C	
InChI=1S/C9H8/c1-3-7-5-9(4-2)6-8(7)9/h1-2,7-8H,5-6H2	InChI=1S/C9H8/c1-3-7-5-9(4-2)6-8(7)9/h1-2,7-8H,5-6H2/t7-,8-,9-/m0/s1
