20
gdb 68192	3.51619	1.19565	1.11218	4.3127	83.08	-0.304	0.0362	0.3403	1172.0922	0.172986	-366.031952	-366.02399	-366.023046	-366.06417	31.75	
C	-0.0173816723	 1.532526017	 0.0470711301	-0.499101
C	 0.0303384943	 0.0224339717	 0.0273753315	 0.350689
C	 0.9873687739	-0.7779994263	-0.9132888984	-0.266277
C	 0.7207742929	-1.9227608046	 0.1000127363	-0.022051
C	 0.6587468076	-0.8156430195	 1.1864028583	-0.271512
C	-0.7900345794	-2.208958118	-0.1192755519	-0.147194
C	-1.304877313	-0.7228835631	-0.1935022495	-0.2675
C	-1.0711528227	-2.9947885269	-1.3156872567	 0.26731
N	-1.2872957571	-3.615085444	-2.267478717	-0.335205
H	 0.977161097	 1.9591329598	 0.2127885884	 0.117134
H	-0.3972936077	 1.9277597955	-0.9019355622	 0.121728
H	-0.6751322028	 1.8978974972	 0.844220191	 0.118151
H	 0.690774545	-0.9280457723	-1.9552984626	 0.111309
H	 2.0161596304	-0.4141248352	-0.8630571038	 0.101867
H	 1.3701094327	-2.7928930937	 0.1847554239	 0.080664
H	 1.6519170121	-0.4575376307	 1.4668626808	 0.102472
H	 0.0572598987	-0.9975722095	 2.083191243	 0.090163
H	-1.2170120592	-2.7384160283	 0.7379825775	 0.118858
H	-2.0396680913	-0.5114161463	 0.5881796003	 0.107075
H	-1.7576995192	-0.4908070526	-1.1605204391	 0.12142
107.8014	150.2779	217.6471	276.7638	296.8732	353.1918	422.8021	468.3281	510.0305	567.7295	622.2434	685.29	811.505	824.641	834.2886	872.9823	923.0638	926.8082	953.7967	982.6825	1005.1326	1025.8831	1040.1716	1063.2169	1108.0465	1116.3808	1152.73	1190.4964	1223.8939	1246.1617	1248.9952	1255.0557	1268.9737	1299.6521	1347.1639	1354.9293	1416.9222	1485.2435	1490.7548	1494.3034	1497.8796	1525.6097	2352.3486	3025.2033	3044.9508	3057.4574	3059.4584	3066.1435	3088.3509	3097.6183	3110.5262	3114.0479	3120.2914	3129.5535
CC12CC(C1)C(C2)C#N	C[C@@]12C[C@@H](C1)[C@@H](C2)C#N	
InChI=1S/C8H11N/c1-8-2-6(3-8)7(4-8)5-9/h6-7H,2-4H2,1H3	InChI=1S/C8H11N/c1-8-2-6(3-8)7(4-8)5-9/h6-7H,2-4H2,1H3/t6-,7-,8+/m0/s1
