20
gdb 92091	2.57681	1.56066	1.29136	3.9704	73.52	-0.2437	0.0593	0.303	1053.4076	0.174323	-440.276734	-440.268991	-440.268047	-440.308637	31.748	
O	 0.0757481785	 1.3979444452	 0.1038336055	-0.459396
C	 0.0125843313	-0.0237627198	 0.0411616046	 0.074843
C	-1.4253269782	-0.5617494602	 0.0690513012	-0.250769
C	-2.1664403703	-0.2891711527	-1.2225120099	-0.019189
N	-2.0052319544	 1.0764939731	-1.7634762886	-0.352539
C	-1.4116810533	-0.0711747503	-2.4879483855	-0.02722
C	 0.1084042931	-0.1107871138	-2.5268558826	-0.236875
C	 0.7820917886	-0.5208548113	-1.194215413	 0.133392
O	 2.1148900711	-0.0462325534	-1.1460117271	-0.448128
H	-0.598689464	 1.7188189999	-0.5221777306	 0.293708
H	 0.5489616386	-0.3837318981	 0.9261383996	 0.086177
H	-1.3986723923	-1.6450293362	 0.2422202265	 0.104712
H	-1.9609406493	-0.1122735329	 0.913298549	 0.11164
H	-3.1550926124	-0.736189041	-1.3024154673	 0.087128
H	-2.8542341064	 1.4002876692	-2.216176126	 0.237201
H	-1.9130479223	-0.3564798006	-3.4097047736	 0.087777
H	 0.4401693108	-0.7961532557	-3.3127398384	 0.106431
H	 0.4783633034	 0.8814021097	-2.807482615	 0.112016
H	 0.8412548925	-1.6155992468	-1.1434243727	 0.076608
H	 2.0360703146	 0.8708117959	-0.8462368463	 0.282483
102.374	204.4979	251.4537	329.9194	360.4037	373.7662	397.7132	472.9259	504.6342	574.0265	617.6419	718.9184	733.1161	776.4792	798.8469	859.1374	875.4017	911.1567	949.022	966.3133	1006.1774	1048.7553	1069.9086	1088.8772	1106.7117	1138.7733	1157.8687	1192.543	1211.9297	1242.9299	1267.27	1282.8799	1295.4291	1344.8476	1349.4625	1373.7284	1388.2654	1404.7056	1444.4932	1457.3829	1472.3901	1481.5168	1490.6692	3024.2442	3027.8258	3046.6484	3052.6898	3069.4081	3088.7162	3125.0892	3137.0766	3519.4955	3592.7765	3739.6972
OC1CC2NC2CC1O	O[C@H]1C[C@H]2N[C@H]2C[C@H]1O	
InChI=1S/C6H11NO2/c8-5-1-3-4(7-3)2-6(5)9/h3-9H,1-2H2	InChI=1S/C6H11NO2/c8-5-1-3-4(7-3)2-6(5)9/h3-9H,1-2H2/t3-,4+,5+,6-
