18
gdb 8388	3.79612	1.46162	1.29057	1.744	68.35	-0.2537	0.0673	0.321	1008.7394	0.151962	-384.910793	-384.902572	-384.901627	-384.9435	30.915	
C	-0.2135452731	 1.510253656	 0.3325554683	-0.414636
C	-0.1545177465	 0.0064883886	 0.2997716643	-0.020082
O	 1.0188173189	-0.5869066305	-0.2909149028	-0.297441
C	 0.7948938394	-0.7768196116	 1.0940557366	 0.455473
C	 1.743348991	-0.3226303597	 2.2087550144	-0.315481
C	 1.255148014	-1.5348583623	 3.0446517583	 0.121741
O	 0.3161042733	-1.0812385697	 4.0008203736	-0.436148
C	 0.6059005068	-2.1428871512	 1.760585992	-0.348892
H	 0.7420207874	 1.9324351767	 0.6534815124	 0.127225
H	-0.4470982471	 1.9085732794	-0.6603938998	 0.127809
H	-0.9946440949	 1.8466099511	 1.0231032768	 0.124178
H	-1.0825491165	-0.4897738685	 0.0072055543	 0.085898
H	 2.7918813738	-0.4084631265	 1.9114990441	 0.112481
H	 1.5693804835	 0.6526389318	 2.6680588235	 0.117022
H	 2.0392090946	-2.1421875344	 3.5131063749	 0.067539
H	-0.1130548421	-1.8529373026	 4.3843230903	 0.282653
H	-0.4139966486	-2.5227893346	 1.867121019	 0.09945
H	 1.233028206	-2.9084772422	 1.2933831298	 0.111211
54.1049	172.9744	190.9663	206.7013	310.4239	331.0035	386.7014	403.7698	454.8715	472.4487	575.1001	776.9732	810.6431	825.988	843.0456	930.5195	940.3517	965.8987	992.5619	1047.7589	1060.2206	1121.8914	1139.673	1144.8351	1181.4532	1199.559	1218.824	1236.9789	1270.4431	1325.2806	1353.9835	1408.3556	1415.4992	1448.6003	1464.1462	1479.3835	1490.6145	1525.3594	3019.024	3035.9268	3050.6323	3067.3102	3081.8651	3099.5616	3107.7608	3124.5624	3126.6815	3812.2474
CC1OC11CC(O)C1	C[C@H]1O[C@]21C[C@@H](O)C2	
InChI=1S/C6H10O2/c1-4-6(8-4)2-5(7)3-6/h4-5,7H,2-3H2,1H3	InChI=1S/C6H10O2/c1-4-6(8-4)2-5(7)3-6/h4-5,7H,2-3H2,1H3/t4-,5-,6-/m1/s1
