17
gdb 32374	4.13694	0.96223	0.81801	3.2686	87.9	-0.2134	-0.0134	0.2	1405.0953	0.136168	-380.889091	-380.880361	-380.879416	-380.922931	32.381	
C	 0.0756217252	 1.5205769756	-0.1750238084	-0.366703
C	 0.0191574932	 0.0034225064	 0.0636180836	-0.300564
C	-1.3759433591	-0.5398592041	 0.0169651685	 0.28044
C	-1.9197785144	-1.4394024739	-0.8723878467	-0.185508
N	-3.2278804014	-1.5967808569	-0.4920844597	-0.29041
C	-3.4342773211	-0.7972861975	 0.6026147053	 0.182648
N	-2.3268604431	-0.1492412339	 0.9265747133	-0.346007
C	-4.6878057229	-0.7260689403	 1.2514599727	 0.266914
C	-5.7678058628	-0.6873459578	 1.7820658314	-0.410423
H	 1.1009811503	 1.8926013132	-0.0855573878	 0.106486
H	-0.2940049213	 1.7747707937	-1.1737009757	 0.111738
H	-0.5473399969	 2.0422212781	 0.5562145654	 0.140765
H	 0.6329383026	-0.5184923916	-0.6792220014	 0.09536
H	 0.4547399267	-0.2207584594	 1.0450038509	 0.115495
H	-1.5029857296	-1.9661004717	-1.7150551005	 0.131646
H	-3.9176835603	-2.1880119369	-0.9247892559	 0.271626
H	-6.7136713352	-0.6413926931	 2.2625253148	 0.196495
54.2639	112.6596	139.8605	194.5413	220.9625	333.2601	397.069	455.5893	542.4005	545.8055	560.4186	566.6397	673.8578	684.0727	709.5847	743.1248	755.9817	794.1641	959.7201	1004.6872	1028.105	1075.7375	1090.6038	1115.8494	1223.5274	1274.7926	1307.2196	1352.2792	1387.6626	1405.217	1426.6645	1478.9681	1495.5064	1505.9631	1526.5302	1588.8203	2234.9514	3029.4145	3038.1753	3067.2076	3106.2562	3124.2508	3269.7934	3502.3156	3666.2982
CCC1=CNC(=N1)C#C	CCc1c[nH]c(n1)C#C	
InChI=1S/C7H8N2/c1-3-6-5-8-7(4-2)9-6/h2,5H,3H2,1H3,(H,8,9)	InChI=1S/C7H8N2/c1-3-6-5-8-7(4-2)9-6/h2,5H,3H2,1H3,(H,8,9)
