19
gdb 53789	2.52203	1.29334	1.05427	1.3298	72.28	-0.2371	-0.0916	0.1455	1226.8819	0.154133	-460.201625	-460.190923	-460.189979	-460.237857	38.154	
C	-0.3944530851	 1.3555584356	 0.1032310354	-0.470383
C	-0.1488914205	-0.1298939891	 0.0793394193	 0.319302
O	 0.1041307102	-0.7814983774	 1.0709188837	-0.301535
C	-0.1935534704	-0.7988219091	-1.3269018595	 0.259538
O	-0.2513867035	-0.080135692	-2.2962470208	-0.29108
C	-0.1229799503	-2.3370591516	-1.3955443139	 0.253439
C	-0.6711943373	-2.8218032818	-2.7354971199	-0.39409
C	 1.3427284676	-2.7717218948	-1.1998184761	-0.439999
O	-0.9648327141	-2.8857280786	-0.3878739251	-0.466378
H	 0.2930929593	 1.8628564077	-0.5792643561	 0.163855
H	-1.4026627387	 1.5677531826	-0.2692144776	 0.159981
H	-0.2818328229	 1.7306209264	 1.1204104948	 0.143948
H	-0.1187729568	-2.3794421184	-3.5660091689	 0.129765
H	-0.5908995397	-3.9105922191	-2.783881337	 0.121131
H	-1.7243158505	-2.5474476762	-2.8342663298	 0.126797
H	 1.7296456015	-2.4281900874	-0.2367474675	 0.132246
H	 1.389759171	-3.8643829411	-1.2226308223	 0.132547
H	 1.9838172875	-2.3766807621	-1.9941608523	 0.126048
H	-0.6054983573	-2.6007033036	 0.4629792137	 0.29487
32.9159	71.4424	106.1921	183.7698	196.917	208.0334	256.3345	289.0728	307.9874	359.4119	374.7321	429.8779	439.0592	529.751	558.6878	601.2691	643.7029	735.6808	826.6561	914.6632	936.1875	978.8891	1004.636	1028.7516	1054.9369	1140.4016	1207.9057	1218.7624	1271.8155	1383.3345	1384.5182	1400.6271	1420.3077	1449.7041	1457.5738	1474.5433	1484.5327	1493.3693	1509.6331	1788.0011	1800.407	3039.4244	3049.9969	3057.1735	3113.7465	3115.894	3124.2861	3130.7906	3147.4007	3165.1109	3757.6155
CC(=O)C(=O)C(C)(C)O	CC(=O)C(=O)C(C)(C)O	
InChI=1S/C6H10O3/c1-4(7)5(8)6(2,3)9/h9H,1-3H3	InChI=1S/C6H10O3/c1-4(7)5(8)6(2,3)9/h9H,1-3H3
