19
gdb 92716	1.95958	1.75901	1.0114	4.2827	82.68	-0.2255	0.0043	0.2298	1204.5136	0.158716	-382.087009	-382.077778	-382.076834	-382.121016	33.618	
C	-0.0370202903	 1.4872842017	 0.0751777276	-0.332682
N	-0.0515739691	 0.0444728131	 0.1867918073	-0.057205
C	-1.3607605509	-0.6068319686	 0.0969169948	-0.206742
C	-1.1786723568	-1.8556372954	 0.9089057001	-0.190304
C	-0.0426758101	-1.8346229332	 1.6012481065	 0.330548
C	 0.5108303432	-2.8443253672	 2.5507840478	-0.499482
C	 0.6705685874	-0.5151275174	 1.3250886911	-0.207656
C	 2.107682541	-0.6791649341	 1.025052762	 0.300682
N	 3.23629365	-0.8084560427	 0.8130663169	-0.339623
H	 0.995805168	 1.8480364055	 0.0480527252	 0.137756
H	-0.517429421	 1.7875634202	-0.8607825395	 0.128482
H	-0.5599512141	 1.9964081082	 0.9069776929	 0.096066
H	-2.1721987888	 0.018274272	 0.5181672338	 0.094348
H	-1.6289160512	-0.8044079122	-0.9504325047	 0.116672
H	-1.9123436602	-2.6523015061	 0.9336756322	 0.106431
H	-0.1434341192	-3.7163649901	 2.6225991568	 0.131392
H	 1.5047803145	-3.1811183244	 2.2345379988	 0.154776
H	 0.6277618843	-2.4214313557	 3.5567299858	 0.132735
H	 0.6166311833	 0.1262879364	 2.2294863347	 0.103805
69.8568	126.4751	164.6628	185.0837	225.4088	248.9862	262.1912	322.1216	374.8048	440.3813	502.989	558.3173	591.5921	696.5943	805.8546	879.6433	898.9722	953.5571	998.175	1037.6978	1046.5932	1067.9158	1069.1581	1146.8533	1189.9928	1198.7417	1211.6231	1263.126	1284.3827	1330.3767	1346.9315	1378.79	1419.5044	1462.3446	1476.9363	1488.943	1492.2034	1502.6882	1520.0779	1738.7076	2355.0758	2874.8687	2910.1238	2929.7837	3009.9949	3024.6145	3066.8901	3076.2609	3109.838	3122.4364	3209.0228
CN1CC=C(C)C1C#N	CN1CC=C(C)[C@H]1C#N	
InChI=1S/C7H10N2/c1-6-3-4-9(2)7(6)5-8/h3,7H,4H2,1-2H3	InChI=1S/C7H10N2/c1-6-3-4-9(2)7(6)5-8/h3,7H,4H2,1-2H3/t7-/m1/s1
