18
gdb 124788	4.07405	1.01688	0.91399	4.5563	74.61	-0.2528	0.0032	0.256	1325.4234	0.148255	-435.296795	-435.287661	-435.286717	-435.331708	32.498	
C	-0.0021550663	 1.4685267794	-0.1796133909	-0.393434
C	-0.0267635594	-0.0378764418	 0.1193295632	 0.047715
O	 0.5769033687	-0.3234638715	 1.3695671461	-0.437348
C	-1.4333136217	-0.5734532782	 0.0957763493	 0.342848
N	-2.0535704183	-1.0153158573	-0.9865954791	-0.318401
N	-3.2808652528	-1.3485517279	-0.5103031606	 0.054941
C	-4.2904924443	-1.9009343202	-1.3872271826	-0.321017
C	-3.3345084207	-1.1004920291	 0.8115262399	 0.003465
N	-2.1858337265	-0.6058002463	 1.233838033	-0.338202
H	 1.0261561515	 1.8349408522	-0.1200156524	 0.122271
H	-0.3970296108	 1.6755830917	-1.1793258976	 0.118664
H	-0.6080415824	 2.0107642664	 0.5535825853	 0.118298
H	 0.5555086517	-0.5623983677	-0.646348777	 0.100268
H	-0.1290075547	-0.2801433794	 2.0279370254	 0.292699
H	-3.9330272798	-2.832703188	-1.8322970395	 0.159037
H	-5.1916736748	-2.0995694718	-0.804527031	 0.145044
H	-4.523184033	-1.192064499	-2.1855462085	 0.157916
H	-4.2117764265	-1.2952038615	 1.4104337369	 0.145235
27.5277	105.8132	125.8945	184.3172	221.7865	257.8827	316.6201	360.004	381.3012	446.2464	508.9029	647.7842	687.3631	732.5061	783.7638	853.088	908.947	1013.7961	1037.6124	1038.9559	1077.9387	1096.5345	1125.6164	1154.2184	1228.1656	1276.5639	1315.7357	1354.2509	1362.7226	1394.0178	1421.188	1451.1772	1454.7865	1473.3686	1482.8572	1490.16	1506.3372	1529.0594	1570.4266	3035.8383	3051.8525	3055.4675	3112.6491	3122.3834	3126.9386	3148.4177	3253.9097	3763.7778
CC(O)C1=NN(C)C=N1	C[C@@H](O)c1nn(C)cn1	
InChI=1S/C5H9N3O/c1-4(9)5-6-3-8(2)7-5/h3-4,9H,1-2H3	InChI=1S/C5H9N3O/c1-4(9)5-6-3-8(2)7-5/h3-4,9H,1-2H3/t4-/m1/s1
