22
gdb 113795	2.98124	1.00112	0.9577	2.0322	82.76	-0.2275	0.0799	0.3074	1386.6026	0.192002	-404.29636	-404.286486	-404.285541	-404.331538	36.714	
C	 0.4674429326	 1.7294372041	 0.0519675208	-0.372332
C	-0.0657053608	 0.2994337664	 0.0048847872	-0.121389
N	 0.4767279721	-0.399031191	-1.1563486692	-0.082147
C	 1.7241638179	-1.135207858	-0.9918869022	-0.267524
C	 0.4427068185	-1.8640953128	-1.2167237407	-0.069356
C	-0.2123271549	-2.7481587398	-0.174620237	 0.393039
C	 0.5255825025	-3.0900494963	 1.1014583529	-0.470128
C	-1.6834485575	-2.8588781656	-0.2116061629	-0.214994
O	-0.8667383262	-3.8827367139	-0.7740466581	-0.277736
H	 1.5556295762	 1.7361199953	 0.1736358713	 0.117919
H	 0.229127844	 2.2574084968	-0.8754320717	 0.128217
H	 0.029568185	 2.2785958635	 0.8912580487	 0.110399
H	 0.1592665923	-0.2062628094	 0.9585736218	 0.08342
H	-1.1574004501	 0.3125711375	-0.0963835942	 0.103347
H	 2.4529020592	-1.0379508949	-1.7927489941	 0.115432
H	 2.1577286459	-1.1834309356	 0.0061607688	 0.106248
H	 0.2322654917	-2.2394316358	-2.2162565188	 0.105952
H	 0.7066545542	-2.2069290804	 1.7211305299	 0.126616
H	-0.0591595864	-3.8057092429	 1.6849380226	 0.127582
H	 1.4952166934	-3.5436785647	 0.8727555789	 0.131268
H	-2.2251237171	-3.1329825307	 0.6934411783	 0.109747
H	-2.2506941627	-2.2665054418	-0.9287677525	 0.11642
44.2806	80.2922	130.6374	203.1397	207.2378	247.779	273.6524	341.5326	364.0515	378.1887	413.0614	462.4918	597.3286	698.8855	741.9105	811.6086	818.0598	879.9891	912.9125	925.149	969.485	986.9923	1040.2942	1059.3094	1090.8679	1104.455	1118.287	1138.7943	1142.7772	1150.937	1165.1193	1200.4296	1281.0519	1310.7239	1325.4145	1352.8096	1384.7318	1403.1259	1409.9271	1424.0048	1480.2507	1488.2606	1489.2237	1495.9247	1505.3063	1517.9507	1527.829	2965.7153	3038.7878	3041.2869	3049.0964	3076.278	3090.1119	3107.5826	3108.8491	3120.6158	3123.4251	3126.1243	3162.1756	3172.7828
CCN1CC1C1(C)CO1	CCN1C[C@H]1[C@@]1(C)CO1	
InChI=1S/C7H13NO/c1-3-8-4-6(8)7(2)5-9-7/h6H,3-5H2,1-2H3	InChI=1S/C7H13NO/c1-3-8-4-6(8)7(2)5-9-7/h6H,3-5H2,1-2H3/t6-,7+,8?/m0/s1
