18
gdb 97240	2.53314	1.54289	0.99177	4.1726	78.29	-0.2258	-0.0265	0.1993	1186.9854	0.14941	-435.282771	-435.274021	-435.273077	-435.317266	31.632	
C	 0.2413163351	 1.4117288684	 0.1518620343	-0.326399
N	 0.2755824079	-0.0373455635	 0.0900509595	-0.29274
C	 0.4687357348	-0.61393697	-1.0174790881	 0.358239
O	 0.6970148933	 0.0887204829	-2.1653304935	-0.269345
C	 0.6140763935	-0.5991856516	-3.4172301512	-0.072227
C	 1.3511878952	-1.9224683026	-3.3526918338	-0.17649
N	 0.7535080775	-2.6973507473	-2.2861003786	-0.329059
C	 0.5097117478	-2.1277309701	-1.0523979795	 0.285384
N	 0.3143371518	-2.857011223	-0.0260336631	-0.523524
H	 1.2537736379	 1.803359604	 0.3160926812	 0.130735
H	-0.1501381538	 1.8780914412	-0.7596525421	 0.121673
H	-0.3683277993	 1.7155893999	 1.0069498735	 0.125201
H	-0.4393864585	-0.7681372037	-3.6730930489	 0.122879
H	 1.0572961383	 0.0742799191	-4.1538901629	 0.124123
H	 1.2288146273	-2.4549286411	-4.3011610149	 0.12154
H	 2.4282025081	-1.7406209688	-3.2050566809	 0.113747
H	 0.9601317711	-3.6844335589	-2.2337103773	 0.250686
H	 0.1113681119	-2.2453244251	 0.7653687065	 0.235577
34.1688	86.262	123.9681	204.3359	222.8854	309.7905	366.0168	452.8028	487.1438	510.6682	557.6769	607.1388	695.8486	731.5002	776.4093	896.9943	916.289	978.7387	1012.3665	1064.597	1107.8323	1117.4637	1121.9909	1177.7115	1183.3168	1214.8256	1256.161	1287.2594	1380.3719	1413.2558	1428.5433	1445.2358	1473.5679	1485.644	1496.0268	1503.2631	1509.331	1712.4682	1757.3337	2972.5416	3013.3061	3033.0804	3069.0062	3078.3082	3104.2647	3113.8097	3485.1681	3606.5654
CN=C1OCCNC1=N	CN=C1OCCN[C]1[NH]	
InChI=1S/C5H9N3O/c1-7-5-4(6)8-2-3-9-5/h2-3H2,1H3,(H2,6,8)	InChI=1S/C5H9N3O/c1-7-5-4(6)8-2-3-9-5/h2-3H2,1H3,(H2,6,8)
