20
gdb 26382	4.04544	0.89677	0.85958	2.1026	81.18	-0.2351	0.0059	0.241	1438.4167	0.171205	-403.194848	-403.185793	-403.184849	-403.22947	33.179	
C	-0.0557350117	 1.5381061155	-0.1055497464	-0.394256
C	 0.0204429325	 0.0112332313	 0.0093053826	 0.046902
C	 0.9177060901	-0.4136800563	 1.1776812523	-0.386285
C	-1.4025780981	-0.5867061442	 0.1349766743	-0.319908
C	-1.4579084966	-2.0699002204	 0.0528165512	 0.348498
C	-1.7889492909	-3.0762055178	 0.9002780405	-0.199182
N	-1.6500563567	-4.3025404491	 0.2569262579	-0.256779
C	-1.2477252594	-3.9853332653	-0.9276753704	 0.069254
O	-1.1037883379	-2.6559934951	-1.140557454	-0.180818
H	 0.9414611111	 1.9734734555	-0.2248110529	 0.11397
H	-0.6618079924	 1.8467917396	-0.9638910423	 0.111973
H	-0.5030100863	 1.9772799308	 0.7944492145	 0.113106
H	 0.4550170215	-0.3815908976	-0.919133741	 0.088938
H	 0.9708761572	-1.5022925251	 1.2705241587	 0.123237
H	 1.9363960879	-0.0354062746	 1.0461052753	 0.113727
H	 0.5363875666	-0.016222829	 2.1263815674	 0.110215
H	-1.8440016794	-0.2854031705	 1.0924284344	 0.11362
H	-2.0375185828	-0.1593355562	-0.6520693058	 0.115193
H	-2.1200198808	-3.0079833858	 1.9244962131	 0.121465
H	-1.0162519941	-4.6364046956	-1.7560484593	 0.14713
48.9566	76.0423	108.0205	219.4206	245.3533	279.4171	316.8786	341.9733	417.001	423.6806	656.5147	670.8198	754.5977	820.0199	833.64	859.013	881.2883	930.9202	941.0461	950.4311	968.5264	979.8652	1102.467	1126.9334	1133.7267	1136.1579	1191.1846	1226.2039	1242.6193	1274.8584	1317.9114	1352.2475	1371.7141	1373.8824	1402.5883	1422.8921	1468.7512	1487.4371	1493.2874	1503.6021	1509.6305	1552.5444	1637.1904	3018.7127	3021.0253	3024.2494	3030.2007	3068.705	3089.0264	3095.7242	3102.009	3110.6775	3263.1344	3275.7936
CC(C)CC1=CN=CO1	CC(C)Cc1cnco1	
InChI=1S/C7H11NO/c1-6(2)3-7-4-8-5-9-7/h4-6H,3H2,1-2H3	InChI=1S/C7H11NO/c1-6(2)3-7-4-8-5-9-7/h4-6H,3H2,1-2H3
