21
gdb 119684	4.30274	0.95204	0.93934	1.5048	82.36	-0.2248	0.0878	0.3126	1383.0262	0.182338	-387.031995	-387.02354	-387.022596	-387.06554	32.678	
C	-0.0505472827	 1.4869956139	 0.0122091853	-0.38513
C	-0.1585253749	-0.0311386624	-0.1450501801	-0.157478
C	 0.8521388583	-0.598434102	-1.1537843226	-0.325047
C	 0.7902763865	-2.0858653032	-1.2603030656	 0.518963
O	 1.1236979005	-2.8786663529	-0.1110008936	-0.334206
C	 1.1526473465	-4.0231741407	-1.0079777311	 0.068572
C	-0.3396811226	-4.2430595851	-1.3671240624	-0.232336
C	-0.2190966638	-2.9048895122	-2.0961778209	-0.157303
C	 1.2939893044	-3.0751802685	-2.2561622314	-0.225988
H	 0.9464090026	 1.7793689484	 0.3605000021	 0.115397
H	-0.2303521037	 1.9999966777	-0.9396182003	 0.110793
H	-0.7790954513	 1.8647680266	 0.7361738009	 0.112243
H	 0.0000668257	-0.520562235	 0.8224467182	 0.118924
H	-1.1722894543	-0.303344823	-0.4634916362	 0.097294
H	 0.6743749723	-0.1706639511	-2.1490248841	 0.100458
H	 1.8688758752	-0.3040479326	-0.8624406874	 0.106999
H	 1.8159432788	-4.819662437	-0.6774124556	 0.084369
H	-0.4701098704	-5.0713107682	-2.068761565	 0.101628
H	-1.0329949076	-4.3357420354	-0.5250491912	 0.098792
H	-0.9131657514	-2.4404102911	-2.7855794213	 0.0873
H	 1.9609735119	-3.0194130562	-3.1054648077	 0.095758
77.1873	87.3506	109.0714	248.7698	290.6911	317.1545	343.1816	454.1458	553.6522	677.5292	734.1844	768.8274	787.2343	799.9082	824.8441	864.1319	891.5451	905.4047	930.6323	940.5748	958.2031	991.23	1006.0657	1048.5168	1066.3087	1092.9466	1101.2843	1121.9835	1150.4891	1160.5571	1189.7395	1250.4534	1258.1512	1268.1473	1302.4176	1308.7388	1337.6213	1383.2209	1413.6711	1453.8432	1475.2473	1486.6807	1493.598	1501.1055	1510.474	3016.5943	3027.9313	3033.6709	3046.4153	3050.0869	3072.0582	3097.5304	3102.4747	3108.9622	3143.889	3192.4785	3208.2189
CCCC12OC3CC1C23	CCC[C@@]12O[C@H]3C[C@@H]1[C@@H]23	
InChI=1S/C8H12O/c1-2-3-8-5-4-6(9-8)7(5)8/h5-7H,2-4H2,1H3	InChI=1S/C8H12O/c1-2-3-8-5-4-6(9-8)7(5)8/h5-7H,2-4H2,1H3/t5-,6+,7-,8-/m1/s1
