17
gdb 65689	3.60032	0.96168	0.88895	3.013	69.22	-0.262	-0.0373	0.2247	1311.3547	0.133012	-459.006709	-458.997664	-458.99672	-459.04145	32.329	
C	-0.1745042746	 1.783346858	-0.2985957887	-0.440169
C	-0.0126900044	 0.2765174573	-0.2034941692	 0.389944
C	-1.3187658133	-0.4635218818	 0.0937173358	-0.322844
C	-1.9332221154	-0.0612322698	 1.4230083719	 0.152684
O	-3.0670502474	 0.320773535	 1.5549940253	-0.235995
C	 0.8927307014	-0.3808831113	-1.2704182125	-0.475203
C	 1.8203440522	-0.6615130729	-0.0900970043	 0.446299
O	 2.8702594735	-1.1814731314	 0.1032200835	-0.311412
O	 0.9971955314	-0.0665381908	 0.8328096981	-0.276872
H	 0.7904584786	 2.2633426958	-0.4810767044	 0.134208
H	-0.8532840396	 2.0396251699	-1.1180898285	 0.136198
H	-0.5919223456	 2.1924549468	 0.6260676084	 0.146855
H	-2.0496472356	-0.2856476209	-0.7004582278	 0.130086
H	-1.1081164113	-1.5404112293	 0.1396044526	 0.128745
H	-1.2464567833	-0.1535665361	 2.291509065	 0.106152
H	 0.5002862469	-1.2754944678	-1.7571144087	 0.144879
H	 1.3120892166	 0.2912304292	-2.0211347163	 0.146446
52.1849	67.728	107.4085	200.8064	219.466	310.8514	323.639	370.8972	429.8744	494.2321	525.2254	545.9925	654.1492	782.1129	840.0077	855.5357	905.2252	954.668	968.6353	1010.2226	1045.3382	1079.8125	1091.9708	1164.7389	1202.8374	1226.7107	1255.1351	1304.3358	1334.0895	1417.3148	1424.0308	1451.8779	1456.9007	1485.7815	1492.1802	1832.5474	1942.6262	2910.0406	3027.4487	3043.8363	3087.3878	3103.3682	3117.1732	3124.6696	3144.6104
CC1(CC=O)CC(=O)O1	C[C@@]1(CC=O)CC(=O)O1	
InChI=1S/C6H8O3/c1-6(2-3-7)4-5(8)9-6/h3H,2,4H2,1H3	InChI=1S/C6H8O3/c1-6(2-3-7)4-5(8)9-6/h3H,2,4H2,1H3/t6-/m1/s1
