15
gdb 84063	2.42061	1.64993	1.03946	3.1864	69.56	-0.2287	-0.1116	0.117	1103.5689	0.112008	-453.988526	-453.979876	-453.978932	-454.021941	31.415	
C	-0.0657973515	 1.5727964572	 0.006369042	-0.381735
C	 0.0281418612	 0.044184138	-0.0103953003	-0.096472
N	 0.7620025055	-0.44924378	-1.1918667429	-0.292351
C	 1.7745189745	-1.1658131027	-0.8394033598	 0.294298
N	 2.6823512883	-1.7307071386	-1.6680612671	-0.567256
C	 1.9254956841	-1.3433306018	 0.6371462688	 0.246139
O	 2.7482426791	-1.9968114549	 1.2256512482	-0.29226
C	 0.7553795415	-0.5122231469	 1.2101600143	 0.316068
O	 0.5122782729	-0.3540484098	 2.3757143376	-0.283115
H	 0.9310548972	 2.0233416863	 0.036930456	 0.122582
H	-0.5706789341	 1.9228792511	-0.8971804746	 0.134366
H	-0.6262232768	 1.9049618114	 0.8841567519	 0.137354
H	-0.9907848377	-0.3667417948	-0.0299451463	 0.117746
H	 2.492479411	-1.76587263	-2.6558992736	 0.268809
H	 3.3083385546	-2.4136483843	-1.2736784843	 0.275828
61.5233	137.4432	210.8618	215.6861	262.6594	289.0477	318.9234	351.7288	419.2798	514.0171	556.6974	570.0734	628.9449	669.1693	689.159	828.95	893.6369	963.5381	1053.618	1067.8131	1084.0161	1135.5033	1184.8149	1288.0798	1319.8866	1399.6564	1438.4019	1487.2646	1496.7935	1606.5212	1696.8417	1832.1956	1858.5482	3012.806	3045.2149	3120.1965	3133.6986	3598.489	3724.1772
CC1N=C(N)C(=O)C1=O	C[C@H]1N=C(N)C(=O)C1=O	
InChI=1S/C5H6N2O2/c1-2-3(8)4(9)5(6)7-2/h2H,1H3,(H2,6,7)	InChI=1S/C5H6N2O2/c1-2-3(8)4(9)5(6)7-2/h2H,1H3,(H2,6,7)/t2-/m1/s1
