18
gdb 114158	4.66905	0.89986	0.82437	5.3524	78.18	-0.2684	0.0189	0.2873	1376.4316	0.147945	-401.930204	-401.921558	-401.920613	-401.96376	32.158	
O	-0.0676123298	 1.4169402798	-0.1766776935	-0.418687
C	 0.0452521623	 0.0320794962	 0.1131589337	-0.097978
C	-1.3412898045	-0.5668890311	-0.0353651735	 0.034302
C	-1.990231198	-0.6168221688	-1.4579550248	-0.306825
C	-2.2036017827	-2.1340957793	-1.2889876759	 0.22499
C	-0.8762051105	-2.8192137811	-1.0609535278	-0.320392
C	-1.4987968637	-2.0885195626	 0.0887614377	-0.129713
C	-3.3769401892	-2.8490061045	-1.6666230504	 0.180622
N	-4.3383961641	-3.4158941788	-1.9756026266	-0.351819
H	 0.8081139769	 1.81111154	-0.1280927379	 0.290876
H	 0.7516609219	-0.4613819818	-0.5725016287	 0.085033
H	 0.4118484609	-0.1390427723	 1.1386413405	 0.091088
H	-2.0137654592	-0.0530774845	 0.6564031284	 0.098726
H	-2.9213726803	-0.0538907404	-1.5180991964	 0.131273
H	-1.348880791	-0.3333401783	-2.2969606761	 0.113338
H	-0.9225579505	-3.9007879663	-0.9972014357	 0.140157
H	 0.0033862198	-2.4367190269	-1.5712376171	 0.122324
H	-1.7968692683	-2.6143653094	 0.9873670139	 0.112686
84.4469	103.5272	137.9451	215.3011	237.1843	274.6093	369.0178	435.4753	443.9352	549.9352	570.3236	590.1859	705.3208	819.9908	849.6813	894.8055	903.6024	966.5531	970.4782	1031.787	1049.5085	1076.3337	1092.1722	1094.7959	1107.636	1165.4747	1206.371	1224.921	1252.1852	1266.0622	1281.5517	1296.4587	1369.7829	1381.6388	1464.118	1482.4889	1497.174	1521.1917	2343.1428	2965.3624	2994.5523	3068.8592	3078.52	3123.6111	3139.6677	3193.1062	3217.8783	3831.4609
OCC1CC2(CC12)C#N	OC[C@H]1C[C@]2(C[C@@H]12)C#N	
InChI=1S/C7H9NO/c8-4-7-1-5(3-9)6(7)2-7/h5-6,9H,1-3H2	InChI=1S/C7H9NO/c8-4-7-1-5(3-9)6(7)2-7/h5-6,9H,1-3H2/t5-,6+,7+/m1/s1
