19
gdb 114758	2.44131	1.49635	1.12398	3.0842	69.87	-0.2447	0.0575	0.3021	1119.8916	0.159605	-460.135184	-460.12666	-460.125716	-460.168644	32.705	
O	 0.0458026889	 1.2615477237	-0.5216735429	-0.426624
C	 0.0049067959	-0.1389549594	-0.3400850151	-0.054166
C	-1.3633990271	-0.5708639761	 0.1823828222	 0.047052
O	-2.3743931487	-0.0719490468	-0.7188844445	-0.288856
C	-3.1260320809	-1.134433256	-1.2438294649	 0.113806
C	-2.414998587	-2.1186934105	-2.1309990751	-0.344139
C	-2.6776470028	-2.435558364	-0.661280071	-0.10265
C	-1.5647678199	-2.1153424385	 0.3222994365	 0.077428
O	-0.3767005363	-2.874980492	 0.1593951658	-0.426925
H	-0.747608098	 1.4841565298	-1.0242012094	 0.288878
H	 0.239114159	-0.6681837454	-1.2780482088	 0.069518
H	 0.7798036344	-0.402715418	 0.3845844252	 0.121793
H	-1.5309956052	-0.068449047	 1.1426823307	 0.092346
H	-4.1640009324	-0.8714626994	-1.4132692229	 0.106368
H	-2.9997563292	-2.6698241411	-2.8594687438	 0.122663
H	-1.4120094525	-1.8657494933	-2.4608165303	 0.118136
H	-3.3703767619	-3.2319830128	-0.4191178042	 0.101857
H	-1.9015407826	-2.342429968	 1.3379152591	 0.09897
H	-0.2494421935	-3.0254983052	-0.7832057967	 0.284544
51.2526	131.6132	195.4359	199.7175	287.2763	307.3423	392.9534	459.6825	471.968	503.0218	516.6867	671.4637	746.9532	772.7121	796.0076	828.7958	910.4759	957.2893	989.7936	1018.3414	1036.1076	1049.6892	1070.8266	1087.8254	1101.9505	1110.8722	1125.2506	1158.1601	1204.3625	1229.9383	1264.4107	1291.8739	1318.3689	1334.2872	1362.8001	1386.8251	1398.8538	1433.5136	1438.1234	1477.7012	1496.7408	2970.3294	3031.9828	3069.3241	3098.3911	3126.955	3174.9272	3187.0316	3215.9527	3784.0053	3812.2743
OCC1OC2CC2C1O	OC[C@H]1O[C@H]2C[C@H]2[C@H]1O	
InChI=1S/C6H10O3/c7-2-5-6(8)3-1-4(3)9-5/h3-8H,1-2H2	InChI=1S/C6H10O3/c7-2-5-6(8)3-1-4(3)9-5/h3-8H,1-2H2/t3-,4+,5-,6-/m1/s1
