17
gdb 43412	2.45818	1.75861	1.20546	3.6331	75.43	-0.2477	-0.0576	0.19	1034.7087	0.137472	-421.834924	-421.827477	-421.826533	-421.867007	28.752	
O	 0.1105147412	 0.3281295156	 0.9999445679	-0.33007
C	-0.0159387724	 1.3268865828	 0.312843815	 0.346409
C	-1.3628772816	 1.7431457546	-0.1330933869	-0.139908
C	-1.7334606244	 2.602794054	-1.0901923165	-0.038906
C	-0.9009506561	 3.4320700584	-2.0242435973	-0.258145
C	 0.4674016013	 2.8699347492	-2.430893521	-0.260627
C	 1.4728053266	 2.795857343	-1.3004116689	 0.044805
O	 1.1861633726	 3.531703768	-0.1172638424	-0.24093
C	 1.2312247254	 2.1000864947	-0.0193914803	-0.047382
H	-2.1361784436	 1.2078727891	 0.4115059159	 0.112042
H	-2.8068164655	 2.7288447565	-1.2256719565	 0.107594
H	-1.4842062723	 3.6031629137	-2.9359330736	 0.109553
H	-0.7581103387	 4.4215077017	-1.5701298145	 0.145157
H	 0.3549391209	 1.875921392	-2.8812984981	 0.121089
H	 0.8798101878	 3.5182783071	-3.212364301	 0.114406
H	 2.5179978611	 2.8444010942	-1.6109272271	 0.103899
H	 2.0899658377	 1.7077321653	 0.5229575054	 0.111015
73.8351	189.0467	222.0914	287.8476	352.9544	367.6289	458.268	495.9908	609.4283	627.7659	696.3656	760.604	822.9779	845.5426	864.7008	886.8105	935.7334	984.5391	1012.7904	1042.1287	1081.9083	1105.4882	1141.1865	1206.6116	1231.4206	1276.1949	1286.9641	1313.4944	1367.9274	1382.3885	1401.7824	1428.0328	1448.0142	1467.7004	1487.0648	1701.6711	1745.5685	3028.5392	3031.5825	3063.8584	3070.3569	3096.1372	3134.7584	3135.1007	3172.5306
O=C1C=CCCC2OC12	O=C1C=CCC[C@H]2O[C@@H]12	
InChI=1S/C7H8O2/c8-5-3-1-2-4-6-7(5)9-6/h1,3,6-7H,2,4H2	InChI=1S/C7H8O2/c8-5-3-1-2-4-6-7(5)9-6/h1,3,6-7H,2,4H2/t6-,7+/m1/s1
