23
gdb 106168	2.53938	1.48656	1.32985	0.3319	88.23	-0.2387	0.0819	0.3206	1134.4036	0.208157	-351.149829	-351.141574	-351.14063	-351.182552	33.161	
C	 0.1304778477	 1.5061780569	-0.1615146997	-0.373455
C	-0.0067602113	 0.0003436404	 0.1056194822	-0.318399
C	-1.4274809738	-0.4835956801	 0.0652589403	 0.384854
C	-2.0186599316	-1.8783839246	-0.0801318754	-0.138409
C	-2.9472706824	-1.6544628945	 1.1125661706	-0.233119
C	-2.5903126719	-0.1331748825	 1.0508554228	-0.091182
C	-3.6211115777	 0.6403477725	 0.2174207315	-0.207249
C	-3.5788416328	-0.0634850152	-1.1683069706	-0.233574
C	-2.2491820448	-0.81749197	-1.151203721	-0.083477
H	 1.1769480281	 1.8233990036	-0.1128664248	 0.108796
H	-0.2566595682	 1.7661692351	-1.1522039988	 0.11603
H	-0.4282174843	 2.0907962333	 0.5773104038	 0.116966
H	 0.5805589017	-0.5581784199	-0.6346848026	 0.095086
H	 0.4371141806	-0.2355122531	 1.0827206965	 0.093956
H	-1.5074472035	-2.8042484563	-0.3231559072	 0.073298
H	-4.0058316328	-1.9227020234	 1.007835003	 0.083413
H	-2.554848225	-2.1269508179	 2.017039699	 0.096081
H	-2.3294010441	 0.3340126805	 2.0017487811	 0.059793
H	-4.6190313426	 0.6267726673	 0.6685346366	 0.090731
H	-3.3174747522	 1.6893615089	 0.1224369414	 0.094069
H	-4.4289972578	-0.7406984336	-1.3063145794	 0.098183
H	-3.6141646873	 0.6582682375	-1.9902473729	 0.093968
H	-1.727144244	-0.9964034547	-2.0860448764	 0.07364
78.3635	126.8094	201.4997	222.5061	297.3699	340.8473	374.7741	459.649	570.8981	623.6741	715.1302	725.5041	781.7395	812.6243	845.7907	861.7847	887.3597	912.6029	920.3597	975.7905	984.8199	990.348	1007.7995	1042.7988	1055.214	1080.8252	1099.0741	1107.4606	1123.534	1149.3257	1200.6473	1206.2613	1235.1438	1254.8066	1278.2513	1288.319	1300.7032	1307.847	1330.612	1349.4524	1360.052	1404.3133	1457.4505	1481.2505	1485.8461	1494.8206	1497.8195	1507.9131	1513.226	3007.3518	3023.9217	3030.3636	3031.9595	3041.1342	3041.2497	3068.3914	3084.329	3086.8276	3098.9083	3100.8551	3103.7806	3154.1916	3165.8773
CCC12C3CC1CCC23	CC[C@@]12[C@H]3C[C@@H]1CC[C@@H]23	
InChI=1S/C9H14/c1-2-9-6-3-4-7(9)8(9)5-6/h6-8H,2-5H2,1H3	InChI=1S/C9H14/c1-2-9-6-3-4-7(9)8(9)5-6/h6-8H,2-5H2,1H3/t6-,7+,8-,9+/m0/s1
