16
gdb 45219	3.16831	1.83307	1.44327	2.8237	67.28	-0.2241	-0.0394	0.1847	896.2313	0.126154	-437.849579	-437.843108	-437.842164	-437.880651	25.804	
O	 0.0905763732	 0.1494630437	-0.8509318084	-0.294817
C	 0.0431663618	 1.1956895111	-0.2639497125	 0.388334
C	-1.2208750694	 1.9076998617	 0.2628386837	-0.299676
N	-0.7920582934	 3.123982084	 0.9518576187	-0.110567
C	-0.323250087	 2.935768964	 2.3676999926	-0.192577
C	 1.1348385565	 3.104618547	 1.9260415431	 0.108341
O	 1.684871864	 1.8519746212	 1.4467445656	-0.309232
C	 1.2337167103	 2.1087140018	 0.0838043336	 0.00544
C	 0.6145042055	 3.4427767728	 0.5135710697	-0.083672
H	-1.8541707499	 2.1492535279	-0.6019241787	 0.13596
H	-1.8059821304	 1.2525015417	 0.9139977761	 0.141055
H	-0.703275194	 3.7342254915	 3.0137697909	 0.113407
H	-0.5508490292	 1.9627469469	 2.8158662536	 0.116191
H	 1.8494589184	 3.668281072	 2.526889339	 0.09201
H	 2.0518532973	 2.057443459	-0.6380136412	 0.099761
H	 0.7519728861	 4.3604765336	-0.0564032356	 0.090044
79.8504	210.2789	350.24	405.3011	424.2545	537.646	587.9199	645.1151	690.8242	799.9317	811.8246	821.4861	878.1017	917.5992	928.498	968.556	997.7789	1002.2842	1036.9671	1057.1669	1100.5447	1136.7964	1195.4635	1214.8117	1222.939	1244.9126	1259.4508	1269.6639	1278.5034	1303.4943	1318.7987	1320.774	1456.7369	1488.8994	1856.0062	3018.1911	3033.7175	3086.9188	3090.6696	3097.3395	3105.9045	3123.2153
O=C1CN2CC3OC1C23	O=C1CN2C[C@H]3O[C@@H]1[C@@H]23	
InChI=1S/C6H7NO2/c8-3-1-7-2-4-5(7)6(3)9-4/h4-6H,1-2H2	InChI=1S/C6H7NO2/c8-3-1-7-2-4-5(7)6(3)9-4/h4-6H,1-2H2/t4-,5+,6+/m1/s1
