22
gdb 78768	2.47897	1.58334	1.27228	1.6174	86.1	-0.226	0.0865	0.3125	1134.3956	0.1932	-367.167202	-367.158173	-367.157229	-367.200079	35.539	
C	-0.0941140793	 1.594451698	 0.0473538027	-0.424715
C	 0.0960490615	 0.087534191	 0.0680105118	 0.060157
N	 1.1422366443	-0.487544103	-0.8441828159	-0.197486
C	 1.3593323229	-1.5947349647	 0.1322647656	-0.154164
C	 2.4099578367	-0.5591310957	-0.0201856509	 0.351253
C	 3.7084994339	-0.5870750426	-0.762139246	-0.497962
C	 2.1330932892	-0.0087892972	 1.3802221643	-0.338228
C	 0.7330989088	-0.6730264703	 1.2592739162	 0.284508
C	-0.0534460446	-1.0869280955	 2.4751310219	-0.513738
H	 0.8281104023	 2.1371895169	 0.2691688201	 0.119403
H	-0.4334223786	 1.9104885427	-0.9445664408	 0.126496
H	-0.8545618205	 1.8989365025	 0.775263281	 0.113851
H	-0.8465158381	-0.4022464709	-0.2076799894	 0.071999
H	 1.2999203745	-2.6473185434	-0.1162465752	 0.088448
H	 3.605527592	-1.1522514493	-1.6922990839	 0.132229
H	 4.0339142228	 0.4272960578	-1.0200685921	 0.121168
H	 4.4961008165	-1.050203206	-0.1577506679	 0.114713
H	 2.7507066587	-0.5319901882	 2.1170389738	 0.097483
H	 2.1896489068	 1.0696104513	 1.5635707796	 0.088569
H	-0.3475442059	-0.2113680243	 3.0662759699	 0.120667
H	-0.9678222345	-1.6219887225	 2.1952560665	 0.117574
H	 0.5320835807	-1.7431862967	 3.1282588886	 0.117775
158.8243	173.9901	192.8306	200.4666	205.1659	246.4239	300.8415	349.4969	372.7368	492.9724	559.3901	583.0109	622.7498	717.9958	725.0056	802.9166	836.3983	871.1618	901.1073	928.3263	967.4956	997.2012	1021.4868	1026.736	1064.7759	1108.5034	1113.0524	1135.2076	1149.8097	1165.2681	1190.6935	1219.9586	1237.6932	1285.1762	1342.8322	1392.0422	1397.1442	1408.7438	1417.2401	1434.2278	1485.2209	1486.4404	1489.4622	1490.9183	1493.9548	1494.9817	1516.5001	3020.8451	3023.7621	3029.2866	3035.4654	3041.3538	3085.1788	3087.4656	3089.3296	3091.8303	3099.8687	3116.692	3121.3829	3187.9255
CC1N2C3C2(C)CC13C	C[C@H]1N2[C@H]3[C@]2(C)C[C@@]13C	
InChI=1S/C8H13N/c1-5-7(2)4-8(3)6(7)9(5)8/h5-6H,4H2,1-3H3	InChI=1S/C8H13N/c1-5-7(2)4-8(3)6(7)9(5)8/h5-6H,4H2,1-3H3/t5-,6-,7+,8+,9?/m1/s1
