16
gdb 73189	2.47019	1.44814	1.32342	2.8641	68.67	-0.2642	0.0143	0.2785	1027.5177	0.123808	-437.857882	-437.84977	-437.848826	-437.890891	30.098	
O	 0.3191275785	 1.3103166485	-0.058291263	-0.468713
C	 0.0263049823	-0.0435103905	-0.0148997636	 0.333652
C	 0.1273489303	-0.8811131507	-1.3085191161	-0.145459
O	-1.2450832095	-1.3248436772	-1.1719942825	-0.281503
C	-1.4297586877	-0.5739289412	 0.0396390094	 0.074567
C	-1.1067929986	-1.4055175697	 1.3054219246	-0.257526
C	 0.3506262663	-0.8160764777	 1.3179144773	-0.218857
C	 1.4754549517	-1.7320273082	 1.3198599161	 0.264895
N	 2.3736842079	-2.4602797395	 1.2804304821	-0.332416
H	 1.2522704939	 1.4252678667	-0.2742864476	 0.293811
H	 0.2616480953	-0.2598425985	-2.2019746223	 0.112521
H	 0.8415650776	-1.7117356042	-1.3167396149	 0.12991
H	-2.3230435559	 0.0527449576	 0.0282057719	 0.097435
H	-1.6772046222	-1.1431532452	 2.1976724388	 0.124146
H	-1.1679142331	-2.4796572395	 1.1304783129	 0.139057
H	 0.4719297633	-0.0853543809	 2.1212343369	 0.134481
61.4195	137.8746	181.8247	213.7322	278.5216	367.1784	380.8826	422.1697	523.9526	545.5026	637.3076	661.9106	767.0158	853.3156	900.6761	919.5177	986.3988	999.1448	1015.7925	1052.8073	1069.6007	1123.0444	1139.1685	1170.3866	1179.829	1190.8337	1259.0296	1277.4824	1306.2592	1327.9533	1340.5849	1402.9867	1467.361	1512.3284	2346.9759	3024.5708	3081.8137	3083.8759	3088.252	3104.5266	3153.9181	3787.523
OC12COC1CC2C#N	O[C@]12CO[C@H]1C[C@H]2C#N	
InChI=1S/C6H7NO2/c7-2-4-1-5-6(4,8)3-9-5/h4-5,8H,1,3H2	InChI=1S/C6H7NO2/c7-2-4-1-5-6(4,8)3-9-5/h4-5,8H,1,3H2/t4-,5-,6-/m0/s1
