19
gdb 70198	3.37474	1.29308	1.11194	4.4572	75.47	-0.2554	0.0119	0.2673	1141.1243	0.159962	-423.062086	-423.054	-423.053056	-423.094512	31.696	
C	-0.1515595352	 1.5561385246	 0.045684279	-0.464077
C	-0.0293030137	 0.0470958108	 0.0003298734	 0.28636
C	-0.8006496117	-0.7711142188	 1.0281176104	-0.364105
C	 0.6974026749	-0.6500061722	 1.1123927839	 0.09924
O	 1.5506196835	-1.7523405474	 0.8710443748	-0.224932
C	 1.5488510242	-2.4345767314	-0.304133356	 0.412473
O	 2.3429123733	-3.3208337264	-0.4618649336	-0.322843
C	 0.5035144434	-2.0443892237	-1.3356385137	-0.369563
C	 0.1932120346	-0.5427506136	-1.3810024989	-0.268739
H	 0.7268237784	 2.0373796052	-0.399423644	 0.123047
H	-1.0349491458	 1.8931051618	-0.5091455127	 0.122336
H	-0.2483734634	 1.919107569	 1.0734590689	 0.118212
H	-1.3903182713	-0.2388645832	 1.7669578032	 0.118742
H	-1.2169121143	-1.7288624882	 0.7381070996	 0.121513
H	 1.1251598646	-0.0661655241	 1.9193513917	 0.11249
H	 0.8600949102	-2.4112600654	-2.2995431868	 0.138268
H	-0.4038643758	-2.615137276	-1.1044490292	 0.138268
H	-0.6771344338	-0.3630629113	-2.0232201742	 0.109268
H	 1.0358530579	-0.0151517496	-1.8466480959	 0.114043
85.0249	200.132	208.0948	239.3791	309.4373	351.8045	370.0556	460.3142	482.8917	522.2221	599.7598	672.7467	717.7759	741.5098	848.4373	892.2218	912.2325	914.8512	955.8547	1025.5587	1037.6653	1045.5293	1068.7986	1116.7618	1121.2081	1142.9038	1198.951	1220.5079	1247.1656	1279.2357	1342.0429	1355.4155	1387.0274	1417.8652	1423.2153	1469.6234	1488.0864	1490.9397	1495.2892	1510.8251	1847.0371	3019.3533	3025.3956	3043.9091	3060.5267	3086.7466	3101.7758	3121.2	3138.6443	3176.6648	3224.6268
CC12CC1OC(=O)CC2	C[C@]12C[C@H]1OC(=O)CC2	
InChI=1S/C7H10O2/c1-7-3-2-6(8)9-5(7)4-7/h5H,2-4H2,1H3	InChI=1S/C7H10O2/c1-7-3-2-6(8)9-5(7)4-7/h5H,2-4H2,1H3/t5-,7+/m1/s1
