20
gdb 111997	2.5039	1.476	1.22699	2.6094	79.49	-0.2219	0.0034	0.2252	1108.5743	0.171729	-403.117628	-403.109178	-403.108234	-403.150475	33.039	
C	-0.1990631776	 1.3886018886	 0.2250393875	-0.422411
C	 0.0411325313	-0.1017103959	 0.1261358364	 0.019749
C	 0.5437991926	-0.8026655324	-1.0957235283	-0.101016
C	 1.3011845426	 0.0295712385	-2.0739047978	-0.082327
C	 2.4313497437	 0.4789465464	-1.5270548473	-0.116056
C	 2.6023721215	-0.0883218627	-0.1338181066	-0.01057
C	 2.9978381011	 0.8693923381	 0.9921051478	-0.066675
O	 3.1286210063	 0.179593433	 2.2216754405	-0.425554
N	 1.3391193132	-0.8197749167	 0.1612814901	-0.15796
H	 0.4472896573	 1.9714718144	-0.4318716086	 0.128405
H	-1.2395817248	 1.5961743074	-0.050738728	 0.119035
H	-0.0595623851	 1.7405570666	 1.252252028	 0.128586
H	-0.6871613442	-0.6701442914	 0.7044551733	 0.094764
H	 0.0860498462	-1.7334107562	-1.4243167024	 0.093015
H	 0.9473569874	 0.2336056077	-3.0772243971	 0.105452
H	 3.1561601225	 1.1337598577	-1.9975898741	 0.103083
H	 3.3902181509	-0.8579930225	-0.1524019892	 0.101652
H	 3.9781354326	 1.3049967023	 0.7668258709	 0.104015
H	 2.2826770063	 1.6992356719	 1.0717950829	 0.091615
H	 2.3822956761	-0.4290848845	 2.2737126421	 0.293198
80.974	144.7417	218.172	254.211	263.5652	284.2078	375.6212	415.5401	442.6229	530.1239	603.4651	697.2605	720.0626	732.9918	767.1684	830.3975	887.0737	928.3542	951.1042	977.3476	1014.7866	1043.7931	1055.9785	1075.7383	1102.5508	1114.408	1135.0945	1142.0964	1163.1459	1223.7572	1285.9321	1290.1948	1331.2862	1348.2956	1372.0782	1381.6707	1404.8781	1420.9649	1437.8718	1495.6559	1499.0767	1520.641	1664.3604	2972.3539	3019.1272	3035.5365	3063.3053	3091.2151	3100.0775	3126.4559	3143.222	3190.6523	3216.4429	3792.6212
CC1C2C=CC(CO)N12	C[C@H]1[C@H]2C=C[C@@H](CO)N12	
InChI=1S/C7H11NO/c1-5-7-3-2-6(4-9)8(5)7/h2-3,5-7,9H,4H2,1H3	InChI=1S/C7H11NO/c1-5-7-3-2-6(4-9)8(5)7/h2-3,5-7,9H,4H2,1H3/t5-,6-,7+,8?/m0/s1
