17
gdb 53909	2.12749	1.55818	1.04883	4.4761	74.38	-0.2327	0.0138	0.2465	1151.5756	0.135181	-417.976197	-417.966981	-417.966037	-418.010518	34.039	
N	 0.8579997899	-0.5672345003	-0.0196257511	-0.528991
C	-0.2519139772	-0.0130201584	 0.5169524807	 0.422596
O	-0.2194788844	 0.8738773556	 1.354555546	-0.372723
C	-1.6063824138	-0.5632413512	 0.0154275117	-0.332483
C	-1.4946634306	-1.5544442008	-1.0509600695	 0.32149
C	-1.4045045804	-2.38316389	-1.9183351627	-0.444427
C	-2.4710985154	-1.1186116966	 1.1652382493	 0.014667
C	-1.8782638013	-1.6946663569	 2.3952737112	-0.236889
N	-2.6039102144	-0.4125391071	 2.4350466765	-0.330008
H	 1.7559964608	-0.2167882643	 0.2705784777	 0.265953
H	 0.7957756915	-1.2799925624	-0.7271400746	 0.27307
H	-2.1283171765	 0.3187863011	-0.3817188592	 0.146423
H	-1.3428800165	-3.1108089396	-2.6899841022	 0.205954
H	-3.4003312399	-1.5413878174	 0.7899509532	 0.104369
H	-2.3688151032	-2.524629068	 2.8961271092	 0.114744
H	-0.7965368415	-1.678209805	 2.5020907589	 0.119692
H	-1.9243164473	 0.3479287615	 2.457562535	 0.256563
55.1091	82.0882	153.3832	186.1166	213.9942	314.7686	348.8907	372.2197	430.7083	488.3704	512.9274	555.4222	631.6064	641.3787	661.3148	722.6085	812.8565	846.228	894.7757	967.8598	984.4206	1009.1341	1030.8025	1111.0377	1116.6555	1159.4652	1224.7149	1244.1053	1298.4579	1303.8057	1328.0257	1359.7908	1412.81	1514.5317	1606.3868	1776.7673	2228.322	3015.5212	3107.9397	3128.916	3191.2621	3469.8258	3499.1953	3593.0607	3729.8804
NC(=O)C(C#C)C1CN1	NC(=O)[C@@H](C#C)[C@H]1CN1	
InChI=1S/C6H8N2O/c1-2-4(6(7)9)5-3-8-5/h1,4-5,8H,3H2,(H2,7,9)	InChI=1S/C6H8N2O/c1-2-4(6(7)9)5-3-8-5/h1,4-5,8H,3H2,(H2,7,9)/t4-,5+/m0/s1
