18
gdb 79281	2.98007	1.63669	1.49718	2.647	74.3	-0.2377	-0.0189	0.2189	958.3526	0.150141	-401.962574	-401.95557	-401.954626	-401.993743	28.393	
C	-0.1303264966	 1.5551797863	 0.0553428651	-0.415561
C	 0.0386220887	 0.0469774752	-0.0359946112	 0.06151
C	 0.8679724835	-0.5263405769	-1.2100289819	-0.184986
C	 2.3055268619	-0.1131186561	-0.8158106241	-0.257429
C	 2.2218148121	-0.5938360556	 0.6345184298	-0.029762
C	 1.3450864906	-1.8140914335	 0.6729801298	-0.167938
N	 0.8379938395	-0.4874109296	 1.1192996323	-0.121786
C	 0.8948449922	-2.000388761	-0.7526206531	 0.442995
O	 0.6358387816	-3.0061076337	-1.3542284801	-0.337433
H	 0.8267739605	 2.0827120068	 0.0310975398	 0.122126
H	-0.7449611444	 1.9227291407	-0.7722700394	 0.1205
H	-0.6277419029	 1.8133510416	 0.994866953	 0.134068
H	-0.9490669164	-0.4275830026	 0.001491702	 0.092935
H	 0.5336879526	-0.3503939878	-2.2283565402	 0.090242
H	 3.0659300047	-0.6487494767	-1.3915863783	 0.119932
H	 2.4988602455	 0.9588875042	-0.9010946749	 0.113325
H	 3.0137764296	-0.4374586328	 1.3567404019	 0.105306
H	 1.4243482572	-2.6174373484	 1.3928882993	 0.111954
146.0503	190.1123	242.4929	283.7942	396.1025	479.8967	515.6736	585.	691.7228	726.6094	775.4619	785.5687	817.7058	837.1906	886.9589	895.5961	931.2717	951.1429	989.0123	1028.3431	1046.046	1075.7892	1087.7614	1125.8602	1144.6116	1161.4352	1200.4696	1210.7043	1237.4409	1270.6561	1284.5982	1306.7684	1359.6476	1391.6693	1412.3845	1487.3737	1492.9879	1511.2621	1873.0331	3039.708	3044.9321	3063.7721	3107.2436	3114.6057	3124.0733	3168.6631	3190.7692	3214.1566
CC1C2CC3C(N13)C2=O	C[C@H]1[C@H]2C[C@@H]3[C@@H](N13)C2=O	
InChI=1S/C7H9NO/c1-3-4-2-5-6(7(4)9)8(3)5/h3-6H,2H2,1H3	InChI=1S/C7H9NO/c1-3-4-2-5-6(7(4)9)8(3)5/h3-6H,2H2,1H3/t3-,4+,5+,6+,8?/m0/s1
