16
gdb 54540	3.38783	1.33761	1.09259	3.7473	64.27	-0.2478	-0.0121	0.2356	1083.7389	0.125347	-475.028508	-475.02073	-475.019786	-475.061549	29.178	
O	-0.0929310232	 0.2206639188	 0.5847400876	-0.315137
C	-0.136795347	 1.3880450022	 0.3263608339	 0.374943
O	 1.002356714	 2.105413967	 0.1617807801	-0.374404
C	-1.4242028239	 2.1616159424	 0.1837305484	 0.229474
C	-1.5380237042	 3.6354304964	-0.2134376398	-0.293535
N	-2.9151091507	 4.0357217104	 0.1162110392	-0.292308
H	 0.8063289803	 3.0209056782	-0.0694712875	 0.308741
H	-3.4912298463	 3.8294413731	-0.6911530467	 0.238294
C	-3.3619233502	 3.1621039219	 1.2175895031	-0.212449
C	-2.5759533007	 1.8699506498	 1.0615467652	 0.001831
O	-2.5419091272	 1.3973895397	-0.2805984475	-0.270658
H	-0.8266138337	 4.2321579199	 0.3792436409	 0.108731
H	-1.3345308674	 3.8182258284	-1.272930958	 0.127111
H	-3.1244421719	 3.6118357377	 2.1909230442	 0.118269
H	-4.4447629559	 3.018436663	 1.1709011188	 0.124991
H	-2.5255142021	 1.1088091411	 1.8346903581	 0.126108
37.1111	161.2952	195.6871	240.5228	345.0716	388.7653	433.5856	469.5862	478.3629	677.5339	720.0993	749.5568	768.3327	791.1031	891.07	893.9123	937.0039	978.8887	986.8385	1027.3861	1102.632	1116.9026	1153.9344	1196.3076	1201.9457	1268.2655	1305.1998	1310.6258	1337.8169	1352.1688	1437.7913	1488.3378	1489.8987	1497.4403	1875.8702	2980.5659	3025.0859	3083.722	3097.3715	3170.6787	3550.9902	3805.771
[O-]C(=O)C12C[NH2+]CC1O2	O=C(O)[C@]12CNC[C@H]1O2	
InChI=1S/C5H7NO3/c7-4(8)5-2-6-1-3(5)9-5/h3,6H,1-2H2,(H,7,8)	InChI=1S/C5H7NO3/c7-4(8)5-2-6-1-3(5)9-5/h3,6H,1-2H2,(H,7,8)/t3-,5+/m1/s1
