20
gdb 54760	2.66905	1.52692	1.16444	3.3051	81.08	-0.2265	0.0202	0.2467	1129.0769	0.169488	-403.121455	-403.11242	-403.111476	-403.155312	33.878	
C	-0.0976007868	 1.4328790291	-0.1228749721	-0.48141
C	-0.0202585675	-0.0853485283	-0.0762456436	 0.352226
O	 0.952107446	-0.7062593011	-0.4656970298	-0.358251
N	-1.1008682613	-0.7001624771	 0.5294728078	-0.11839
C	-2.5568338273	-0.4616085627	 0.1978864696	-0.039379
C	-2.3929542829	-1.3689601001	-1.0534182642	-0.259883
C	-1.6313442905	-2.0698296932	 0.1244396637	 0.336271
C	-0.7818315587	-3.3047468748	 0.1083179206	-0.510855
C	-2.8616248978	-1.7354377182	 1.0250945021	-0.251376
H	 0.9074290798	 1.8341388624	-0.2556630242	 0.145249
H	-0.7111886007	 1.7468286526	-0.9755809735	 0.136129
H	-0.5499102646	 1.843829053	 0.7833209161	 0.134863
H	-3.0108601955	 0.5253205678	 0.2783970633	 0.092779
H	-3.2914512721	-1.8668801915	-1.4285266004	 0.096523
H	-1.7707324615	-0.9823750053	-1.8631207201	 0.113915
H	 0.0592789667	-3.1790693754	-0.5756696545	 0.158268
H	-0.3827722158	-3.5066134476	 1.107161796	 0.130201
H	-1.3802304985	-4.1668564431	-0.2043147285	 0.116254
H	-2.6649909752	-1.6700059952	 2.0959050824	 0.107423
H	-3.7909316257	-2.2574676614	 0.7913154092	 0.099444
81.1079	94.5388	145.2978	164.8838	194.9861	280.4674	305.6239	401.1816	502.1755	549.5942	562.7108	641.4529	652.9301	715.8657	776.2767	802.6824	897.841	908.5518	935.9069	995.9886	1010.8197	1012.8458	1030.8919	1051.0821	1074.8106	1117.8382	1125.7786	1168.7861	1181.5313	1214.144	1237.334	1241.0709	1335.348	1347.645	1389.8715	1411.4276	1469.5972	1475.5246	1480.1163	1482.5388	1493.5717	1525.4688	1764.5251	3040.8101	3041.8746	3055.0865	3077.1264	3108.1484	3109.5366	3127.2287	3131.0436	3142.6595	3153.9002	3156.4207
CC(=O)N1C2CC1(C)C2	CC(=O)N1[C@H]2C[C@]1(C)C2	
InChI=1S/C7H11NO/c1-5(9)8-6-3-7(8,2)4-6/h6H,3-4H2,1-2H3	InChI=1S/C7H11NO/c1-5(9)8-6-3-7(8,2)4-6/h6H,3-4H2,1-2H3/t6-,7+
