21
gdb 117193	3.10216	0.916	0.76961	1.5838	79.53	-0.2443	-0.0212	0.2231	1564.4795	0.178901	-424.235974	-424.225486	-424.224541	-424.272442	37.258	
C	 0.1276430972	 1.3567200765	 0.6808027601	-0.387816
C	-0.0340685501	 0.041569889	-0.0848215721	-0.163893
C	-1.3486800645	-0.668279521	 0.2385937244	-0.287588
C	-1.5505852658	-1.949788769	-0.5512332232	 0.3042
O	-0.8003035945	-2.2999831096	-1.4358192254	-0.313084
C	-2.7679939047	-2.795423154	-0.2264842314	 0.318845
C	-3.3123870696	-3.6253657939	-1.3640303769	-0.461264
C	-2.9518040934	-3.2356365747	 1.1747303805	-0.21875
O	-3.732575505	-2.1758111366	 0.6399701051	-0.260241
H	 1.0754484994	 1.84377137	 0.4320986235	 0.115113
H	-0.6794306143	 2.0587350409	 0.4426897507	 0.114752
H	 0.1122131355	 1.1944737701	 1.7646328291	 0.112104
H	 0.0160547356	 0.2218058078	-1.1635666437	 0.114812
H	 0.8018608391	-0.6305427053	 0.1399047424	 0.106865
H	-1.4314603821	-0.8822718491	 1.3119980068	 0.120845
H	-2.2127608767	-0.0224329905	 0.0277576763	 0.137015
H	-2.5259628385	-4.2673263806	-1.7665746103	 0.148002
H	-4.1487791083	-4.2391590989	-1.0223673809	 0.122668
H	-3.6625141321	-2.9803513944	-2.1757430511	 0.133283
H	-3.4810881695	-4.1704977184	 1.3549587959	 0.125036
H	-2.2330465377	-2.9541529384	 1.9428054304	 0.119096
50.7406	53.8452	93.6275	127.4664	168.4136	238.504	257.9361	273.2002	303.0146	358.0345	372.7514	483.4698	526.0054	580.8885	744.7188	761.3248	830.9721	847.2512	882.2645	909.8334	933.7413	995.4361	1051.5117	1068.5269	1082.7645	1118.101	1132.8317	1140.1316	1164.4193	1243.7512	1273.6929	1318.7524	1338.2344	1366.119	1397.5856	1410.0007	1414.9725	1435.6351	1477.3636	1487.3302	1494.3026	1499.2909	1508.108	1524.9699	1793.1205	3023.1312	3028.3678	3046.0637	3048.9682	3051.5596	3075.5512	3082.7777	3099.8324	3103.4043	3120.7726	3142.8302	3170.2434
CCCC(=O)C1(C)CO1	CCCC(=O)[C@@]1(C)CO1	
InChI=1S/C7H12O2/c1-3-4-6(8)7(2)5-9-7/h3-5H2,1-2H3	InChI=1S/C7H12O2/c1-3-4-6(8)7(2)5-9-7/h3-5H2,1-2H3/t7-/m1/s1
