18
gdb 65152	3.57861	1.10593	0.97327	4.9073	72.5	-0.2488	0.0349	0.2837	1234.3875	0.146403	-439.088768	-439.080047	-439.079103	-439.122538	32.517	
C	 0.0315693502	 1.5568709123	-0.15170408	-0.470399
C	 0.0375655309	 0.0468621384	-0.0633993634	 0.406292
C	 1.1557405379	-0.7212446618	-0.62817152	-0.226799
O	 1.0519337207	-0.5062609321	 0.7831916934	-0.261626
C	-1.3296649157	-0.6062791116	 0.0325273826	-0.031124
C	-1.410995808	-2.0621973216	 0.5780201704	-0.412335
C	-2.3232340167	-1.4779682561	 1.6830984237	 0.434605
O	-2.9720980099	-1.9140835085	 2.5931544663	-0.353401
N	-2.135782618	-0.2023262001	 1.1977998854	-0.32586
H	 1.0507254029	 1.9416332851	-0.231127813	 0.134836
H	-0.5391535374	 1.8963533054	-1.023093199	 0.122806
H	-0.4245923436	 1.9899474343	 0.7445295246	 0.130568
H	 1.0024324588	-1.7488494531	-0.9552286405	 0.11645
H	 1.9714048512	-0.1954128984	-1.1223614494	 0.117502
H	-1.8612570725	-0.4640236733	-0.9174753409	 0.088661
H	-1.9003642555	-2.7891710092	-0.0710819511	 0.128115
H	-0.4642749967	-2.4503935301	 0.9537601945	 0.152434
H	-2.6205730986	 0.6565082104	 1.4134998665	 0.249273
63.3383	80.2964	193.0537	206.6022	250.6291	333.8715	370.0287	384.4555	419.0094	519.9145	524.1997	571.2826	702.6289	764.6144	821.8649	873.8865	919.6305	944.3896	976.4993	997.9276	1016.8818	1040.4875	1102.524	1127.277	1135.9678	1174.291	1174.4956	1205.6616	1246.5753	1280.3685	1375.4135	1384.357	1395.21	1415.0339	1448.7109	1483.3471	1500.1928	1532.1177	1901.5612	3019.5393	3037.2565	3083.5642	3096.2051	3101.345	3127.5648	3161.7877	3169.333	3608.4503
CC1(CO1)C1CC(=O)N1	C[C@]1(CO1)[C@H]1CC(=O)N1	
InChI=1S/C6H9NO2/c1-6(3-9-6)4-2-5(8)7-4/h4H,2-3H2,1H3,(H,7,8)	InChI=1S/C6H9NO2/c1-6(3-9-6)4-2-5(8)7-4/h4H,2-3H2,1H3,(H,7,8)/t4-,6+/m1/s1
