20
gdb 92919	2.39051	1.33991	1.01675	4.1115	84.43	-0.2632	0.0015	0.2647	1240.2144	0.172558	-366.053934	-366.045321	-366.044377	-366.087202	32.94	
C	 0.0286102279	 1.5983497853	-0.0163036556	-0.408665
C	 0.0302305035	 0.0680774069	-0.021690753	 0.026568
C	 0.7424741952	-0.4978667269	-1.2616826681	-0.246844
C	 1.0133133613	-1.9745293733	-1.1610175058	-0.051507
C	 0.9185490736	-2.6780054327	-0.0354989441	-0.058647
C	 0.5573098922	-2.0480427732	 1.2986028085	-0.206754
C	 0.6721615983	-0.5060163068	 1.2484246021	-0.213685
C	-0.7887499953	-2.4713666583	 1.715181256	 0.276188
N	-1.848771427	-2.8004000493	 2.0392441509	-0.332938
H	 1.0491739759	 1.994389557	 0.0491815205	 0.113584
H	-0.4232020561	 1.9959496786	-0.9310809776	 0.116134
H	-0.5374864271	 1.9909819318	 0.8344638112	 0.118527
H	-1.0123492908	-0.2775951598	-0.0485357875	 0.098255
H	 0.1456846086	-0.2959459759	-2.1602718792	 0.111934
H	 1.6938523546	 0.033795545	-1.421355193	 0.109149
H	 1.3083572758	-2.4826458023	-2.0762518153	 0.097672
H	 1.1011334125	-3.7481631295	-0.0303689747	 0.105896
H	 1.2461797701	-2.4267233458	 2.0652989886	 0.126802
H	 1.738706754	-0.2498303762	 1.2682851451	 0.104013
H	 0.2182180428	-0.0723149246	 2.1446880609	 0.114318
83.3813	111.3978	185.9744	231.3892	260.9269	302.5107	389.802	416.4214	430.4212	453.2281	565.9927	616.095	720.0724	756.4007	802.2408	888.0443	897.1832	916.0548	937.9271	985.8747	1004.3753	1013.9229	1067.15	1109.2695	1120.1373	1137.2006	1186.296	1226.9975	1275.3842	1286.427	1321.9194	1329.4714	1338.4385	1382.2398	1400.6804	1407.9483	1415.4928	1470.0256	1488.2845	1497.9512	1499.7627	1725.7712	2350.2108	2988.1021	3011.9185	3019.5323	3025.5525	3036.9207	3042.2064	3085.1284	3092.7139	3102.4743	3151.1456	3181.605
CC1CC=CC(C1)C#N	C[C@H]1CC=C[C@@H](C1)C#N	
InChI=1S/C8H11N/c1-7-3-2-4-8(5-7)6-9/h2,4,7-8H,3,5H2,1H3	InChI=1S/C8H11N/c1-7-3-2-4-8(5-7)6-9/h2,4,7-8H,3,5H2,1H3/t7-,8-/m0/s1
