19
gdb 90707	3.12836	1.43676	1.12777	2.9116	76.16	-0.2465	0.0086	0.2551	1115.3451	0.160293	-423.021793	-423.013868	-423.012924	-423.054154	31.151	
C	 0.3709213013	 1.6578766614	-0.0180403971	-0.40372
C	-0.1519150485	 0.2573647619	 0.230766543	 0.151671
O	 0.2317862854	-0.6592454537	-0.837661246	-0.323576
C	 1.0749938024	-1.4323619286	 0.0538361474	 0.075073
C	 0.6013216127	-0.6134049036	 1.275122501	-0.135605
C	-0.2622622324	-1.5798875538	 2.041072887	-0.093295
C	-0.3145960147	-2.7811377172	 1.4666463864	-0.104866
C	 0.5375934587	-2.8803753151	 0.2136206237	 0.084172
O	-0.1702076919	-3.3072566892	-0.933283852	-0.436226
H	 1.4616199458	 1.6606575459	-0.1087910694	 0.122105
H	-0.0508955489	 2.0630187367	-0.9429143249	 0.129819
H	 0.0885449781	 2.3211482342	 0.8071160652	 0.117733
H	-1.2417728796	 0.2640892175	 0.3533946583	 0.082079
H	 2.1239788037	-1.3810771394	-0.2498735627	 0.079856
H	 1.3449440402	-0.0844593676	 1.8754213619	 0.080865
H	-0.7992800554	-1.2887021776	 2.9380118188	 0.099027
H	-0.9000247261	-3.6244555023	 1.8158815982	 0.10352
H	 1.3588642013	-3.5955896389	 0.3498828516	 0.083231
H	-0.5876684821	-2.5059746006	-1.2827409604	 0.288137
88.7651	168.7246	209.7811	236.6334	301.4618	344.6188	428.3714	487.3118	525.2401	557.9882	672.0616	756.2221	817.4284	826.132	836.5794	885.4351	905.4297	917.7331	976.8265	997.9695	1018.4019	1056.3819	1075.7089	1089.0708	1104.72	1123.8833	1138.279	1223.508	1239.8114	1264.3952	1279.346	1304.176	1330.0104	1336.3053	1376.5074	1387.1053	1406.1779	1445.879	1483.0475	1492.635	1676.9966	3022.9208	3030.1662	3033.696	3068.371	3085.4402	3105.6346	3113.8228	3178.0345	3207.1783	3722.0377
CC1OC2C1C=CC2O	C[C@H]1O[C@H]2[C@@H]1C=C[C@H]2O	
InChI=1S/C7H10O2/c1-4-5-2-3-6(8)7(5)9-4/h2-8H,1H3	InChI=1S/C7H10O2/c1-4-5-2-3-6(8)7(5)9-4/h2-8H,1H3/t4-,5-,6-,7+/m1/s1
