20
gdb 111197	2.50703	1.33532	1.01875	3.3193	80.63	-0.2356	-0.0333	0.2023	1238.6104	0.170379	-403.070065	-403.061345	-403.060401	-403.103976	32.521	
C	 0.1058609406	 1.5027271769	 0.6457161249	-0.371208
C	 0.12511817	 0.0817576295	 0.0672556854	-0.249951
C	-1.2643988755	-0.5331250647	 0.0518434355	 0.101744
C	-1.535978988	-2.0594985188	-0.0079192063	-0.118402
C	-1.1024846156	-2.0836224235	 1.4698478104	-0.176606
N	-1.9756654051	-0.8106871546	 1.4173790647	-0.161485
C	-2.9298299978	-1.6910405206	 0.5981898602	-0.03872
C	-4.0178029746	-1.0650161487	-0.2305306432	 0.126887
O	-4.2148398629	 0.1126558194	-0.3926527683	-0.238258
H	 1.1042690322	 1.9492693227	 0.6233603994	 0.109694
H	-0.566808778	 2.1518983272	 0.0755506197	 0.123684
H	-0.2453884632	 1.4933166594	 1.6813156325	 0.138858
H	 0.477331374	 0.1093613757	-0.9725074592	 0.102421
H	 0.850007902	-0.528822434	 0.613423908	 0.098708
H	-1.9062069855	 0.0810793567	-0.58078524	 0.103588
H	-1.3187044003	-2.7758833995	-0.80869652	 0.070643
H	-1.5171047373	-2.8657781537	 2.1115765749	 0.102533
H	-0.0593158929	-1.8963858013	 1.7176119085	 0.1103
H	-3.38683569	-2.4886224165	 1.1984406905	 0.088965
H	-4.680944002	-1.8268763717	-0.7058022775	 0.076606
63.5405	104.0466	134.8916	187.538	227.1933	255.7203	365.7466	407.0498	475.9619	564.1987	685.0405	719.958	770.4727	801.4958	827.5844	852.4093	895.2062	917.979	969.8426	1013.1112	1027.3687	1047.6417	1074.8855	1093.8011	1119.3059	1145.1389	1153.1851	1171.2678	1183.5193	1212.9533	1244.2774	1263.8827	1293.5714	1351.7085	1393.7248	1411.5424	1426.961	1463.0113	1484.0071	1496.8516	1508.0798	1545.1909	1824.8431	2847.4391	3025.8642	3026.6098	3035.3067	3040.2503	3066.0849	3075.3957	3107.037	3115.3622	3120.3035	3152.1753
CCC1C2CN1C2C=O	CC[C@H]1[C@H]2CN1[C@H]2C=O	
InChI=1S/C7H11NO/c1-2-6-5-3-8(6)7(5)4-9/h4-7H,2-3H2,1H3	InChI=1S/C7H11NO/c1-2-6-5-3-8(6)7(5)4-9/h4-7H,2-3H2,1H3/t5-,6+,7+/m1/s1
