18
gdb 94451	3.06691	1.3555	1.1924	1.9365	72.03	-0.2489	0.0126	0.2615	1088.4023	0.148327	-439.081064	-439.073017	-439.072072	-439.114315	29.872	
C	-0.4007524456	 1.4137808223	 0.0675181814	-0.416681
C	 0.1310229477	-0.0017693692	-0.0063067449	 0.130034
O	 1.3297863634	-0.0967564544	-0.8109135235	-0.295016
C	 2.0271705922	-0.8153987849	 0.2209197257	-0.107594
C	 0.8583318574	-0.6452554827	 1.2170023825	 0.205293
C	 1.1018402332	 0.182999086	 2.500687106	-0.179857
O	 0.5803648211	-0.6447290909	 3.5685728701	-0.217589
C	 0.1537743514	-1.7726281713	 2.9601717322	 0.108076
N	 0.2549221962	-1.8906829507	 1.7013990643	-0.294636
H	 0.3581300582	 2.1109116326	 0.4358255002	 0.119446
H	-0.6994441911	 1.7436080095	-0.9323077138	 0.134516
H	-1.2807103449	 1.4675737982	 0.7179354457	 0.121111
H	-0.6429635708	-0.6844484368	-0.379808388	 0.088067
H	 2.2183330724	-1.8610043045	-0.0470311132	 0.113199
H	 2.9707355797	-0.3270402913	 0.4983555209	 0.095555
H	 2.1634143134	 0.3618694005	 2.6965306114	 0.123179
H	 0.5706653848	 1.137210694	 2.5239123822	 0.127329
H	-0.2604491088	-2.5164399765	 3.6317334707	 0.145568
64.6082	73.3652	209.6998	235.8681	281.0014	340.847	385.3723	461.4022	496.5019	572.9263	759.8541	806.9078	859.4284	882.004	897.6013	942.9904	968.0737	969.8103	1028.2202	1030.7687	1082.2488	1099.2553	1124.1942	1154.2266	1160.2086	1183.6309	1229.3878	1239.6675	1285.5894	1323.3279	1360.3182	1377.9221	1383.2976	1404.296	1479.5028	1498.8795	1511.0134	1517.5883	1695.2476	3006.7307	3024.2288	3034.3011	3055.3893	3064.2281	3107.1449	3108.0738	3113.2178	3217.8501
CC1OCC11COC=N1	C[C@H]1OC[C@]21COC=N2	
InChI=1S/C6H9NO2/c1-5-6(3-9-5)2-8-4-7-6/h4-5H,2-3H2,1H3	InChI=1S/C6H9NO2/c1-5-6(3-9-5)2-8-4-7-6/h4-5H,2-3H2,1H3/t5-,6+/m1/s1
