21
gdb 101983	2.10775	1.03265	0.81663	0.5381	87.02	-0.2209	-0.0665	0.1544	1527.8749	0.179232	-420.423361	-420.412056	-420.411112	-420.461363	39.007	
C	 0.0077325193	 1.2916895865	 0.0946634422	-0.308551
N	-0.0743334402	-0.1247551902	-0.1668060814	-0.307488
C	 0.5135608976	-0.6982570731	-1.252850478	 0.255946
C	 0.374834482	-2.202837266	-1.2282335192	 0.112393
O	-0.152530365	-2.7875670198	-0.3103488258	-0.267344
N	 1.1047948451	 0.0147407442	-2.1410917807	-0.292194
C	 1.7183727705	-0.5183159506	-3.3456382651	 0.037647
C	 1.1361073736	 0.2322666944	-4.552107419	-0.36312
C	 3.2382695531	-0.3162024005	-3.252402543	-0.363721
H	 1.0450765143	 1.6211884249	 0.2382978952	 0.128894
H	-0.3985928024	 1.8615787348	-0.7475164421	 0.139347
H	-0.5684275985	 1.5215338074	 0.9930928924	 0.120732
H	-0.418411008	-0.7619264489	 0.532513421	 0.259704
H	 0.794724849	-2.7534289508	-2.0862146476	 0.109762
H	 1.5307443446	-1.5909128686	-3.5042208148	 0.060034
H	 1.3100433161	 1.3074133545	-4.4454606823	 0.122165
H	 1.6008079915	-0.1093083305	-5.4828810805	 0.105929
H	 0.0565256053	 0.0709818688	-4.6257818842	 0.110267
H	 3.6563725435	-0.8806483056	-2.4132069481	 0.107606
H	 3.7315313654	-0.648273504	-4.1717919672	 0.108083
H	 3.4670931632	 0.7422552631	-3.0941818719	 0.12391
18.5524	70.0858	87.5382	142.1978	155.7189	173.3843	214.0909	218.2848	250.2931	318.7804	359.297	413.4272	444.9989	470.5606	556.4407	574.063	671.0058	787.4779	881.1624	925.8337	950.8506	994.9781	1011.1786	1115.5226	1126.8391	1158.192	1160.5029	1188.4703	1211.5516	1283.8677	1342.7631	1369.2611	1390.6039	1410.5645	1427.7044	1455.0705	1471.9104	1479.3094	1486.3456	1491.9161	1508.8366	1512.6204	1548.3413	1697.0264	1792.0689	2966.7903	3007.1939	3017.5154	3031.7553	3036.3446	3073.4178	3104.7101	3108.5594	3111.1305	3116.2903	3130.4058	3650.2215
CNC(C=O)=NC(C)C	CNC(=NC(C)C)C=O	
InChI=1S/C6H12N2O/c1-5(2)8-6(4-9)7-3/h4-5H,1-3H3,(H,7,8)	InChI=1S/C6H12N2O/c1-5(2)8-6(4-9)7-3/h4-5H,1-3H3,(H,7,8)
