17
gdb 34726	3.63516	1.45509	1.43023	2.9959	74.29	-0.2574	0.0279	0.2853	955.0477	0.140192	-380.882639	-380.87617	-380.875225	-380.913468	26.358	
N	-0.075638332	-1.175790747	-0.1022782984	-0.332851
C	-0.0417230707	-0.0214129509	-0.047280558	 0.269745
C	-0.0020752128	 1.4347881801	 0.0240023811	-0.162986
C	-0.4454755244	 1.9998121411	 1.3830976345	-0.040246
C	 0.7686284981	 2.0958559643	 2.2404687741	-0.022169
C	 1.9539329399	 1.5872642958	 1.4276076987	-0.247526
C	 1.4281527811	 2.0520231947	 0.0530932201	-0.071066
C	 1.0542707221	 3.5096161253	 0.3777455276	-0.168789
N	 0.2130059525	 3.3093034683	 1.5842248143	-0.126115
H	-0.5978493088	 1.8402624679	-0.80062287	 0.125343
H	-1.4544991642	 1.8711418138	 1.7523397206	 0.11167
H	 0.733005633	 2.0599121283	 3.3216646553	 0.103023
H	 2.8969682662	 2.0705989328	 1.6984084181	 0.110963
H	 2.0790982919	 0.5035673574	 1.4975126521	 0.133494
H	 2.0524033907	 1.8621159708	-0.8169940222	 0.092467
H	 1.9199579335	 4.131036753	 0.6226596183	 0.113899
H	 0.4734718839	 4.0039532345	-0.4064508564	 0.111144
133.95	157.9823	381.7859	424.9231	438.4019	508.2209	542.1347	689.9088	721.6541	790.2306	809.9826	852.3183	891.4725	916.4404	928.9119	949.943	954.2392	958.0486	1026.0793	1037.7139	1063.0898	1079.8016	1088.5017	1145.6309	1184.3075	1198.7605	1213.6464	1232.9285	1260.1166	1288.1375	1301.7645	1325.3801	1343.1402	1381.051	1490.2965	1510.1194	2355.0476	3056.5154	3060.7468	3065.6165	3107.7019	3114.0822	3151.7612	3197.3351	3207.2527
N#CC1C2C3CC1CN23	N#C[C@H]1[C@H]2[C@H]3C[C@@H]1CN23	
InChI=1S/C7H8N2/c8-2-5-4-1-6-7(5)9(6)3-4/h4-7H,1,3H2	InChI=1S/C7H8N2/c8-2-5-4-1-6-7(5)9(6)3-4/h4-7H,1,3H2/t4-,5-,6-,7+,9?/m1/s1
