13
gdb 132714	5.85506	0.99484	0.85035	1.9079	78.35	-0.2432	-0.0456	0.1977	1225.0001	0.089223	-423.596722	-423.589596	-423.588652	-423.6284	27.23	
F	 0.0002245393	 0.0143047272	 0.0033898242	-0.070927
C	-0.0042467336	 1.3469063885	 0.0103743472	 0.271021
C	-1.2169026408	 2.0292421206	 0.0298188916	-0.125426
N	-1.291016968	 3.3555903608	 0.037666123	-0.299885
C	-0.142025515	 4.0559092361	 0.0262430274	 0.164414
C	 1.1161471725	 3.4358041908	 0.0065028855	-0.148278
C	 1.189551864	 2.0501749459	-0.0016418611	-0.219658
C	-0.2367935969	 5.4826308377	 0.0348375639	 0.223151
C	-0.2795633956	 6.6851319253	 0.0415700933	-0.369784
H	-2.1489234565	 1.4699512805	 0.03914044	 0.126394
H	 2.0143627468	 4.0411682504	-0.0021514169	 0.12311
H	 2.1361535007	 1.5226739237	-0.0167999941	 0.127943
H	-0.3368851968	 7.7456057824	 0.047719586	 0.197923
101.1354	149.2662	268.2586	389.5827	417.9591	433.5095	467.3673	537.5449	558.4445	615.5199	652.7314	659.605	714.9478	784.5186	861.1658	869.0482	948.4122	982.8551	1029.6904	1133.0212	1241.0092	1277.7563	1285.0238	1315.1294	1407.8551	1507.2514	1604.5975	1633.5909	2232.5411	3167.0718	3200.6195	3214.9198	3502.4637
FC1=CN=C(C=C1)C#C	Fc1cnc(cc1)C#C	
InChI=1S/C7H4FN/c1-2-7-4-3-6(8)5-9-7/h1,3-5H	InChI=1S/C7H4FN/c1-2-7-4-3-6(8)5-9-7/h1,3-5H
