15
gdb 67143	2.11215	1.8877	1.51059	3.8919	65.27	-0.228	-0.0053	0.2227	943.5186	0.110531	-457.700768	-457.692809	-457.691864	-457.733157	29.871	
C	-0.1394291294	 1.4648687998	 0.0009918553	-0.512616
C	 0.0319891633	-0.0210211137	 0.0290374841	 0.101009
C	-0.0523017569	-0.9445025424	-1.2052459334	-0.04854
O	 0.6827826544	-2.137830109	-0.9339735003	-0.277104
C	 0.0801720451	-2.1493345711	 0.3848345867	-0.161033
C	 0.6760956983	-0.8925572114	 1.0668653536	 0.423822
O	 1.1923823698	-0.68138137	 2.127133192	-0.331141
C	-1.0510873554	-1.1414392289	-0.1192619415	 0.277289
O	-2.3859685123	-0.980668026	 0.077829345	-0.432226
H	 0.7798635357	 1.9597596842	-0.3277578961	 0.139331
H	-0.9437332576	 1.7569356191	-0.6815800679	 0.131021
H	-0.3881454576	 1.841810313	 0.9974008808	 0.147661
H	-0.1040221652	-0.5631449013	-2.2172443965	 0.128157
H	 0.0043733606	-3.1271395031	 0.8525116015	 0.108291
H	-2.8574395729	-1.6819142193	-0.3887948734	 0.306079
119.4653	134.3047	171.297	212.5361	327.5333	355.2768	372.1606	441.1935	536.485	625.6207	630.7612	683.6748	714.1746	785.8042	808.6425	854.6915	942.2067	972.0176	995.2405	1046.6799	1090.327	1096.9871	1114.3212	1183.163	1201.5317	1262.2769	1296.2087	1377.986	1418.6924	1476.8675	1483.2014	1499.3221	1882.5119	3038.2233	3105.1995	3110.9997	3170.7107	3202.6497	3776.5334
CC12C3OC(C1=O)C23O	C[C@@]12[C@H]3O[C@@H](C1=O)[C@@]23O	
InChI=1S/C6H6O3/c1-5-2(7)3-6(5,8)4(5)9-3/h3-4,8H,1H3	InChI=1S/C6H6O3/c1-5-2(7)3-6(5,8)4(5)9-3/h3-4,8H,1H3/t3-,4+,5-,6-/m0/s1
