16
gdb 36586	3.04074	0.92394	0.77167	3.5255	75.63	-0.2719	-0.0028	0.2691	1440.4793	0.121726	-400.702277	-400.693059	-400.692114	-400.737098	32.871	
C	 0.041500789	-1.2233873429	-0.0424867674	-0.427296
C	 0.0329461943	-0.0261413804	-0.1441598894	 0.287251
C	 0.0584969317	 1.4260592798	-0.2523282715	-0.360306
C	 1.37637394	 2.0256928176	 0.2837221397	-0.276736
C	 1.4155052254	 3.5344861044	 0.1425813659	 0.25226
C	 2.6512728587	 4.2472544861	-0.2412741745	-0.211773
O	 1.6043774284	 4.0401903123	-1.1848769633	-0.248914
C	 0.4285649658	 4.2650440797	 0.9252248075	 0.266123
N	-0.361746264	 4.8137122246	 1.5656501128	-0.330111
H	 0.0313573471	-2.2818765316	 0.0411385734	 0.199644
H	-0.0671234078	 1.7256824661	-1.2997372491	 0.152489
H	-0.7892863566	 1.8535635593	 0.2975905676	 0.155512
H	 1.5066122822	 1.7552171204	 1.3366332599	 0.135637
H	 2.2214045175	 1.609746317	-0.2716269568	 0.130031
H	 2.7988788188	 5.2764969618	 0.0781187995	 0.142686
H	 3.5544511593	 3.6610712859	-0.4010276743	 0.133503
58.3088	78.4554	112.9254	159.2571	222.5817	259.62	331.0136	363.4285	419.9225	487.4914	575.7231	597.9343	623.9139	651.3712	719.9778	764.8785	847.4778	919.6266	937.8433	990.7166	1034.3897	1041.3432	1133.4993	1165.2345	1182.2628	1259.2183	1282.662	1317.6862	1366.5289	1395.9465	1468.0448	1482.4232	1521.8863	2242.8994	2357.6445	3029.675	3057.9076	3064.8252	3095.2173	3110.6974	3192.0759	3506.838
C#CCCC1(CO1)C#N	C#CCC[C@]1(CO1)C#N	
InChI=1S/C7H7NO/c1-2-3-4-7(5-8)6-9-7/h1H,3-4,6H2	InChI=1S/C7H7NO/c1-2-3-4-7(5-8)6-9-7/h1H,3-4,6H2/t7-/m1/s1
