18
gdb 69607	3.30575	1.25886	1.20202	1.5047	84.08	-0.2179	0.019	0.2369	1125.1755	0.145569	-364.696599	-364.688271	-364.687326	-364.729	33.152	
C	 0.1907576042	 1.4622373049	 0.0359750738	-0.4716
C	 0.0301516506	-0.0248391095	 0.0428845232	 0.368591
C	-0.985611303	-0.7848110933	 0.8503098913	-0.354943
C	 0.4813619214	-1.0944145076	 1.0078431815	-0.164785
C	 1.0659092925	-1.8574400083	-0.2035346109	 0.104576
C	 0.0895669674	-2.103401648	-1.2960238514	-0.284402
N	 0.6333389083	-0.7459750579	-1.1624110213	-0.209247
C	 2.3865162454	-2.3913760861	-0.1902340457	 0.252148
C	 3.4946626928	-2.8569945095	-0.1310172364	-0.39738
H	 1.2227540871	 1.7376337149	-0.2019216809	 0.133737
H	-0.4599744096	 1.9188011477	-0.719137539	 0.126118
H	-0.0688683812	 1.8869331461	 1.0103077922	 0.116764
H	-1.3866166588	-0.1989651285	 1.6727654194	 0.11907
H	-1.7051453284	-1.4882550333	 0.446391043	 0.114598
H	 1.0189446275	-1.0043010197	 1.9420047371	 0.098865
H	 0.4817689253	-2.6077850508	-2.1742737144	 0.134145
H	-0.9524751239	-2.319764449	-1.0901597243	 0.122104
H	 4.4751931225	-3.2627185723	-0.0937519472	 0.191642
103.5998	148.8725	199.5372	243.3277	307.7487	362.3081	452.2825	480.5586	495.0457	518.4057	581.2922	600.9617	610.1178	655.7885	738.2542	775.2357	809.593	868.6896	910.0552	947.012	959.8945	978.9402	1018.7938	1056.6805	1080.9733	1103.7828	1128.3221	1138.5855	1170.5569	1210.7686	1269.4038	1345.4938	1385.1982	1423.6297	1475.108	1476.4851	1498.9745	1522.8496	2231.4489	3029.5322	3093.4032	3113.7862	3120.8728	3134.6785	3197.5405	3206.8183	3213.2877	3502.9067
CC12CC1C1(CN21)C#C	C[C@]12C[C@H]1[C@]1(CN21)C#C	
InChI=1S/C8H9N/c1-3-8-5-9(8)7(2)4-6(7)8/h1,6H,4-5H2,2H3	InChI=1S/C8H9N/c1-3-8-5-9(8)7(2)4-6(7)8/h1,6H,4-5H2,2H3/t6-,7+,8-,9?/m1/s1
