16
gdb 56870	2.67685	1.26583	1.06514	3.8901	70.15	-0.2761	0.015	0.2911	1156.6314	0.124917	-434.068677	-434.060093	-434.059149	-434.102463	31.215	
N	 0.2881374164	 1.5750570679	 0.1683865762	-0.500686
C	-0.0754254445	 0.1677046581	 0.0276208819	-0.141754
C	 0.1165203577	-0.3641857334	-1.3408016519	 0.263298
N	 0.2562452042	-0.7396249498	-2.4251928861	-0.323544
C	 0.7083151056	-0.6399683822	 1.0624910619	 0.140551
C	 0.7695448619	-2.1767669054	 0.9597355407	-0.402151
C	 2.2522186891	-1.9455872341	 0.7508271388	 0.462496
N	 3.2514666635	-2.6781288051	 0.592570949	-0.531667
O	 2.147220074	-0.5599482889	 0.8158590266	-0.272236
H	 1.2797834867	 1.6817647542	-0.0284744054	 0.25764
H	-0.2142483637	 2.1415749179	-0.5075386336	 0.249861
H	-1.1404021829	 0.0599908751	 0.2712069526	 0.139944
H	 0.4768208487	-0.2363610971	 2.0510702888	 0.11838
H	 0.5090611985	-2.7267314056	 1.8644375863	 0.144886
H	 0.2614356374	-2.615554192	 0.0992107295	 0.159698
H	 4.1087967374	-2.1340800596	 0.4859968448	 0.235283
68.3822	82.0032	156.0877	193.4032	253.9072	312.1038	377.5868	386.2768	482.3957	494.5328	595.805	667.4713	696.7319	803.646	857.185	867.8915	917.7301	946.0064	962.6481	1002.4661	1041.963	1072.232	1130.7081	1141.0723	1188.9528	1217.9179	1247.4472	1313.9484	1331.348	1378.8701	1391.0707	1465.018	1658.8912	1840.6384	2348.0926	3037.2738	3090.5654	3093.8268	3150.6896	3486.0697	3499.4256	3582.0568
NC(C#N)C1CC(=N)O1	N[C@@H](C#N)[C@H]1C[C]([NH])O1	
InChI=1S/C5H7N3O/c6-2-3(7)4-1-5(8)9-4/h3-4,8H,1,7H2	InChI=1S/C5H7N3O/c6-2-3(7)4-1-5(8)9-4/h3-4,8H,1,7H2/t3-,4+/m0/s1
