19
gdb 92832	2.27471	1.69257	1.53269	2.3153	75.7	-0.2277	0.0119	0.2396	1002.4725	0.160561	-419.180195	-419.172015	-419.171071	-419.212397	32.318	
C	-0.0519193468	 1.5396702841	-0.0607319972	-0.406094
C	-0.0099841634	 0.0120086478	 0.0040751166	-0.057228
C	 0.9939714826	-0.5850090845	-1.0619579859	-0.176977
N	 2.3315775318	-0.6805176046	-0.3946551383	-0.316521
C	 2.0319359694	-0.7166858474	 0.8360072994	 0.305968
N	 2.5798050507	-0.4504199739	 2.0917501244	-0.377083
C	 1.2678026925	 0.1682974621	 2.5162944841	-0.268685
C	 0.6049215949	-0.5742383173	 1.2900274807	 0.364694
O	-0.1023006564	-1.7441800368	 1.6436205038	-0.491249
H	 0.9507744359	 1.9719603048	 0.0289414644	 0.122098
H	-0.4643514772	 1.8683637868	-1.0196536995	 0.120055
H	-0.6775754886	 1.9592866938	 0.7335936543	 0.115689
H	-1.0172988786	-0.3926393168	-0.1255238084	 0.087468
H	 0.6671007895	-1.5677316451	-1.4222198321	 0.111438
H	 1.086448655	 0.0711310802	-1.9328661991	 0.104164
H	 3.4553227138	 0.0539865527	 2.1739462413	 0.243233
H	 0.9248108316	-0.160425613	 3.5001342356	 0.11339
H	 1.2660127378	 1.2603333173	 2.4522679856	 0.118527
H	 0.4792491254	-2.3007322704	 2.1745311902	 0.287116
108.358	213.5103	237.8153	250.5338	264.9696	327.6229	358.9472	383.4318	459.2409	529.4985	616.5282	679.5303	711.4979	750.9419	820.3602	835.7354	905.2067	926.0084	938.6346	966.5714	993.1059	1018.7852	1069.1297	1105.3765	1137.2356	1142.1479	1189.5474	1201.3925	1228.6399	1273.6842	1301.3957	1321.8826	1336.1984	1371.1712	1383.449	1410.4461	1491.5542	1496.6823	1501.7015	1506.4052	1770.8723	3030.9964	3034.3756	3051.1358	3074.7811	3083.4097	3102.3759	3104.0165	3117.0868	3550.2328	3794.1351
CC1CN=C2NCC12O	C[C@H]1C[N][C]2NC[C@@]12O	
InChI=1S/C6H10N2O/c1-4-2-7-5-6(4,9)3-8-5/h4,9H,2-3H2,1H3,(H,7,8)	InChI=1S/C6H10N2O/c1-4-2-7-5-6(4,9)3-8-5/h4,9H,2-3H2,1H3,(H,7,8)/t4-,6+/m0/s1
