17
gdb 53373	3.84562	0.84092	0.77501	1.3507	78.99	-0.226	0.0478	0.2738	1519.5937	0.136154	-418.005536	-417.996121	-417.995177	-418.042528	32.731	
C	-0.1234057277	 1.4237369211	 0.1190134289	-0.496312
C	-0.0747459372	-0.0286553981	 0.032184983	 0.017541
C	-0.0471111963	-1.2298020362	-0.0465225775	 0.137
C	 0.0036055603	-2.6899464367	-0.1278389771	-0.176631
C	 0.7204614995	-3.3448288159	 1.1016457912	-0.11727
O	-0.3265140074	-4.071183048	 1.7707728313	-0.249739
C	-1.4092889593	-3.9866029675	 0.95038369	 0.475443
N	-2.5097832541	-4.6412109474	 1.4281264107	-0.574
N	-1.3386362943	-3.3035834671	-0.1246939826	-0.337308
H	 0.3464055215	 1.7855190597	 1.0404134755	 0.145174
H	 0.3960100432	 1.8923571393	-0.724248587	 0.146399
H	-1.157995449	 1.7842447148	 0.1121757975	 0.151153
H	 0.5208792201	-2.9683216674	-1.0544493144	 0.104574
H	 1.4986307178	-4.0532232884	 0.8013565504	 0.113113
H	 1.1367745061	-2.613424865	 1.7957085308	 0.128776
H	-2.3208520431	-5.4382610376	 2.0155966527	 0.262709
H	-3.23754404	-4.7751255695	 0.7440790965	 0.269377
12.2707	34.436	97.6039	141.6713	211.2403	293.3691	329.4626	368.8218	432.6359	449.6803	533.0416	539.3462	701.0973	718.7416	757.0237	788.2481	914.5249	956.4295	992.3139	1042.5612	1049.584	1052.7477	1057.0517	1159.2185	1183.241	1229.0223	1264.9456	1337.2206	1356.7055	1414.332	1432.5213	1478.2501	1478.7741	1521.4127	1617.722	1752.8095	2370.8457	3015.9504	3025.8023	3054.5129	3085.5384	3087.4267	3124.0032	3592.9161	3707.7032
CC#CC1COC(N)=N1	CC#C[C@H]1COC(=N1)N	
InChI=1S/C6H8N2O/c1-2-3-5-4-9-6(7)8-5/h5H,4H2,1H3,(H2,7,8)	InChI=1S/C6H8N2O/c1-2-3-5-4-9-6(7)8-5/h5H,4H2,1H3,(H2,7,8)/t5-/m0/s1
