20
gdb 18016	4.31646	1.48531	1.32934	1.0048	74.88	-0.2419	0.0779	0.3198	1013.7086	0.177693	-348.967574	-348.959729	-348.958785	-349.	29.695	
C	 0.1939344844	 1.1926542905	 0.260158473	-0.236406
O	-0.2276801574	-0.0821860118	-0.1663163891	-0.238731
C	 0.4918694286	-0.5678109013	-1.269072585	 0.163493
C	 1.9563918318	-1.0728759677	-1.0567676878	-0.279221
C	 1.5811874508	-2.4083164049	-1.7656260803	-0.010975
C	 1.2563962724	-3.5701742256	-0.7995791557	-0.218035
C	-0.181924695	-2.9997831386	-0.6085463726	-0.22601
C	 0.0688011335	-1.9666446622	-1.7457556639	-0.065635
H	 1.2450744024	 1.1927304913	 0.5861224126	 0.107206
H	 0.0823692179	 1.9451143038	-0.5368949182	 0.10221
H	-0.4354771047	 1.4794419775	 1.1062409656	 0.125231
H	 0.4505817356	 0.1612550333	-2.0945746563	 0.05907
H	 2.7329982182	-0.4771682183	-1.5416691265	 0.096487
H	 2.2211048406	-1.2001829337	-0.0022914345	 0.100182
H	 2.1279655639	-2.6333566542	-2.6817861094	 0.060259
H	 1.2517510378	-4.5414088043	-1.3026477817	 0.095818
H	 1.8864693412	-3.6503602208	 0.0919611005	 0.091671
H	-0.9848300935	-3.7108056559	-0.8132924607	 0.097358
H	-0.3749773523	-2.5340607062	 0.3594546363	 0.11686
H	-0.5967677562	-2.0222934509	-2.6079661263	 0.059166
75.1472	109.1057	174.6611	198.7241	309.9244	351.7917	427.0054	499.5867	625.6886	730.332	746.2946	787.8242	845.7533	892.6759	899.3968	939.11	954.5828	1006.8368	1037.325	1051.4095	1077.8724	1112.0634	1134.1089	1162.3241	1179.3583	1186.092	1208.8695	1223.4948	1243.22	1247.7752	1262.217	1283.1884	1304.3593	1311.1731	1328.0751	1385.1838	1472.7357	1478.9322	1483.463	1486.7412	1496.9911	1509.8556	2961.4307	2973.8345	3019.6078	3043.3262	3050.2913	3073.3429	3086.8665	3094.0894	3100.3428	3112.0135	3112.3489	3129.2345
COC1CC2CCC12	CO[C@H]1C[C@H]2CC[C@@H]12	
InChI=1S/C7H12O/c1-8-7-4-5-2-3-6(5)7/h5-7H,2-4H2,1H3	InChI=1S/C7H12O/c1-8-7-4-5-2-3-6(5)7/h5-7H,2-4H2,1H3/t5-,6-,7+/m1/s1
