19
gdb 62900	4.00566	1.14937	0.99961	2.1001	83.2	-0.2433	0.0403	0.2836	1229.9387	0.156277	-385.784945	-385.776036	-385.775091	-385.817926	34.726	
C	 0.7259216155	-1.1807227986	-0.7303749489	-0.418818
C	 0.5713997447	-0.0055899984	-0.5299503114	 0.313205
C	 0.3373022579	 1.4094883012	-0.3458462629	-0.229868
C	 0.2160502085	 1.9530970985	 1.1134741745	 0.009551
O	 1.6488440092	 1.6454387769	 1.3026217741	-0.303118
C	 1.5597839851	 2.3213239827	-0.0083175165	 0.009545
C	 0.6133333106	 3.3940725443	 0.6362393415	 0.337554
C	-0.3350160786	 4.2247178051	-0.2270592991	-0.481653
C	 1.2598275746	 4.2783789598	 1.7009405918	-0.463166
H	 0.8766269869	-2.2194048963	-0.8904863508	 0.191187
H	-0.3768905692	 1.7886430215	-1.0768758751	 0.100031
H	-0.4743799361	 1.6368908899	 1.8970293531	 0.098197
H	 2.4846855788	 2.4477695823	-0.5733015514	 0.098197
H	-0.8416684204	 3.6681712447	-1.0167328749	 0.121541
H	-1.1071977498	 4.6809904646	 0.4020676433	 0.124447
H	 0.2159419899	 5.043668797	-0.7024673402	 0.124446
H	 1.8158475334	 5.0967983922	 1.2298676069	 0.112705
H	 0.4913033927	 4.7336358775	 2.3357583227	 0.112706
H	 1.9415996364	 3.7075711552	 2.3300788432	 0.14331
130.9072	134.5654	158.7074	212.5769	229.2341	317.953	365.1405	380.5939	427.3601	506.847	518.3343	607.7685	627.8302	633.1206	731.2371	739.1848	779.8527	865.2087	876.1885	923.7414	952.7431	960.2987	1011.5834	1044.4404	1098.0798	1114.3305	1114.9503	1165.2067	1180.3883	1181.9167	1233.901	1266.626	1319.2514	1366.0525	1398.173	1424.4476	1484.4406	1487.7298	1507.2907	1514.874	2239.2696	3032.1666	3038.938	3085.5868	3093.8633	3101.0357	3106.4707	3113.5102	3132.1384	3156.0747	3505.4503
C#CC1C2OC1C2(C)C	C#C[C@H]1[C@H]2O[C@@H]1C2(C)C	
InChI=1S/C8H10O/c1-4-5-6-8(2,3)7(5)9-6/h1,5-7H,2-3H3	InChI=1S/C8H10O/c1-4-5-6-8(2,3)7(5)9-6/h1,5-7H,2-3H3/t5-,6+,7-
