18
gdb 23403	2.78931	1.41323	1.37045	1.4215	74.76	-0.2414	0.0048	0.2462	1038.1662	0.149734	-439.044706	-439.037199	-439.036254	-439.076633	29.608	
O	-0.1495699916	 1.3222321176	 0.0392187556	-0.393449
N	-0.0082652252	-0.080393384	 0.0026609483	-0.294991
C	-1.1311850759	-0.6603117825	 0.0058483734	 0.470358
C	-1.4125856831	-2.1444793486	 0.0048800019	-0.137805
C	-2.2673759172	-2.2579548874	 1.2988646825	-0.222875
C	-3.0797742547	-0.9134854351	 1.3069149989	-0.222939
C	-2.5819545846	-0.2223801281	 0.0216790011	 0.01888
O	-3.1142644464	-0.9413710848	-1.1048435899	-0.289045
C	-2.3809049109	-2.1855435396	-1.1937293896	-0.070853
H	 0.7671639479	 1.6167319027	 0.010810276	 0.30676
H	-0.5576543536	-2.8137601228	-0.0661236306	 0.088053
H	-2.9136490299	-3.1396886301	 1.2765075611	 0.104714
H	-1.6235085616	-2.3375143768	 2.1782265041	 0.110412
H	-4.1597874337	-1.0690327137	 1.2556624832	 0.112931
H	-2.8593450767	-0.311486385	 2.1934703332	 0.109593
H	-2.8017334985	 0.8357387027	-0.091592532	 0.102146
H	-1.8494276195	-2.2248429411	-2.1526394037	 0.107392
H	-3.0814734348	-3.0276952935	-1.1430756036	 0.100717
110.4103	167.312	200.8087	307.9298	329.3555	390.1381	415.1181	517.9966	591.7444	676.2269	721.366	794.2846	808.8459	861.9433	871.4331	887.8654	920.6957	964.9235	969.6173	979.9265	1027.9516	1038.7949	1082.8808	1143.096	1180.0362	1194.2484	1205.1291	1229.4165	1263.2066	1281.7901	1301.4141	1320.6986	1333.1633	1374.486	1414.4538	1476.9536	1499.0774	1528.9894	1804.0874	3016.1622	3054.9566	3057.0468	3064.3072	3099.0982	3118.828	3144.6052	3165.8023	3817.1675
ON=C1C2CCC1OC2	ON=C1[C@H]2CC[C@@H]1OC2	
InChI=1S/C6H9NO2/c8-7-6-4-1-2-5(6)9-3-4/h4-5,8H,1-3H2	InChI=1S/C6H9NO2/c8-7-6-4-1-2-5(6)9-3-4/h4-5,8H,1-3H2/t4-,5-/m0/s1
