17
gdb 41314	3.1578	2.1422	1.77896	1.3561	69.94	-0.2397	0.0462	0.2859	813.3235	0.138218	-421.703869	-421.697974	-421.69703	-421.733632	25.821	
C	 0.0411709995	 1.5364462432	-0.2207539233	-0.175539
O	 1.4502605547	 1.5512151502	 0.2133352967	-0.326112
C	 1.2501690489	 0.260396276	 0.7941609077	 0.334895
C	 0.4887193224	 0.102428695	 2.1376825524	-0.29862
C	-0.3429241307	-0.8545258037	 1.2618262216	 0.022648
O	 0.6455009965	-1.8990864141	 1.0182385443	-0.280975
C	 1.6081445075	-1.1602487649	 0.2218700974	 0.023503
C	 0.7694453536	-0.8507482871	-1.0271400949	-0.274413
C	-0.0484788253	 0.0106093812	-0.0187457565	 0.12125
H	-0.5806025401	 2.1497671087	 0.4398897391	 0.11721
H	-0.05959102	 1.8897856613	-1.2507665337	 0.12099
H	 0.9815764803	-0.3398349097	 3.0039917033	 0.111332
H	-0.0147024576	 1.032562785	 2.4044942512	 0.11269
H	-1.2921417444	-1.3108266261	 1.5394868269	 0.083705
H	 2.5724591559	-1.6671027616	 0.2474327242	 0.083179
H	 1.2773479409	-0.2104432363	-1.7499662314	 0.117023
H	 0.298330218	-1.7032703871	-1.5185777551	 0.107235
314.456	344.0591	357.1142	447.8568	505.7474	521.7795	537.2653	713.8489	741.9431	801.539	816.2625	859.9816	887.0271	899.7328	923.9269	929.2636	938.7605	952.4838	986.2719	1021.8874	1040.2195	1121.2084	1138.3353	1150.8359	1162.7239	1189.6983	1201.219	1215.1065	1235.1802	1251.9626	1255.9206	1268.3955	1311.1395	1328.3759	1469.004	1475.7242	1512.0678	3038.4277	3079.9584	3084.5956	3096.3873	3121.3278	3125.4658	3145.8229	3150.1632
C1OC23CC4OC2CC134	C1O[C@]23C[C@@H]4O[C@H]2C[C@]134	
InChI=1S/C7H8O2/c1-5-7-2-4(9-5)6(1,7)3-8-7/h4-5H,1-3H2	InChI=1S/C7H8O2/c1-5-7-2-4(9-5)6(1,7)3-8-7/h4-5H,1-3H2/t4-,5-,6+,7+/m0/s1
