21
gdb 120072	5.51124	0.88132	0.86876	0.9243	84.28	-0.2432	0.0946	0.3378	1444.5032	0.182408	-387.008288	-386.999969	-386.999025	-387.041898	31.796	
C	-0.0044749738	 1.5177898612	-0.0240041116	-0.384159
C	-0.1714962963	 0.0209915082	-0.2238893976	-0.037754
O	 0.9524173894	-0.4667459534	-0.9332168771	-0.269907
C	 0.9348135677	-1.8537816887	-1.1332119769	 0.153301
C	 0.1326959501	-2.428775771	-2.3226092402	-0.087713
C	 1.211188545	-1.9515144825	-3.3612521687	-0.029436
C	 1.3294383103	-3.3557750151	-3.9851998733	-0.263341
C	 1.1436249886	-3.6182912352	-2.4773390688	-0.048402
C	 2.0159422429	-2.3761764314	-2.0803491927	-0.088745
H	 0.9075920208	 1.7292298474	 0.541455451	 0.125835
H	 0.0662560779	 2.0277953115	-0.9889920008	 0.125549
H	-0.8577578426	 1.9281904367	 0.5243791232	 0.112541
H	-0.2547801665	-0.4921442607	 0.7492317562	 0.084168
H	-1.0989094629	-0.1923195651	-0.7798183024	 0.087163
H	 0.8189507471	-2.3865596358	-0.174959488	 0.054459
H	-0.9444277816	-2.4812974855	-2.4886099151	 0.067134
H	 1.248455839	-0.9760598988	-3.8436458139	 0.078126
H	 0.5152381601	-3.6744555572	-4.6444506424	 0.090269
H	 2.2993175528	-3.6253374145	-4.4162829099	 0.091113
H	 1.1014629196	-4.5666351871	-1.9396419927	 0.068909
H	 3.0999409727	-2.3574784031	-1.9611428785	 0.070888
62.1244	78.9671	129.8826	228.8109	267.036	333.3298	359.6773	463.6328	596.7951	731.7367	786.5868	819.6891	846.1749	850.7084	863.9162	899.3698	910.575	923.7679	953.4334	970.4701	1007.0859	1028.7312	1053.6742	1068.8453	1115.6704	1138.653	1142.4216	1150.1323	1156.7424	1163.4158	1177.993	1190.4813	1193.8641	1241.3522	1253.8039	1291.4479	1296.688	1313.0144	1377.545	1403.9711	1444.1415	1482.8228	1500.1446	1510.7005	1529.6221	2956.6787	2970.0895	2986.3269	3034.3763	3044.0588	3090.4422	3095.3454	3102.4041	3110.2875	3118.2756	3120.5037	3129.2458
CCOC1C2C3CC2C13	CCO[C@H]1[C@H]2[C@@H]3C[C@H]2[C@H]13	
InChI=1S/C8H12O/c1-2-9-8-6-4-3-5(6)7(4)8/h4-8H,2-3H2,1H3	InChI=1S/C8H12O/c1-2-9-8-6-4-3-5(6)7(4)8/h4-8H,2-3H2,1H3/t4-,5+,6-,7+,8-
