17
gdb 119367	3.5759	1.02461	0.91096	2.3858	70.76	-0.2577	-0.0098	0.2479	1309.3231	0.133347	-458.888255	-458.879493	-458.878549	-458.922595	31.158	
C	 0.4244576099	 1.5570127795	 0.8563215416	-0.223185
O	 0.7956243501	 0.2199528886	 1.1067726931	-0.23599
C	 0.1380860081	-0.6947859953	 0.2622110357	-0.218354
C	 0.5598002213	-2.0826948899	 0.6128911221	 0.275767
C	 1.9403655144	-2.6333441646	 1.0506671088	-0.256904
C	 0.9278189019	-3.772400258	 1.3118341761	-0.078018
O	-0.0284632414	-2.7529493798	 1.8162084403	-0.327791
C	 0.289226331	-3.4602344886	-0.0673386191	 0.433964
O	-0.233406942	-3.9554762252	-1.0096653071	-0.312312
H	-0.6526959895	 1.7175318505	 1.0172069853	 0.111564
H	 0.9843856712	 2.1841248985	 1.5534468371	 0.133193
H	 0.6681493642	 1.8617729424	-0.1736616985	 0.107504
H	-0.9572749905	-0.6179468209	 0.3585542171	 0.116406
H	 0.3876087193	-0.5091144584	-0.7970713957	 0.107679
H	 2.7149493389	-2.7746589454	 0.2926447593	 0.113576
H	 2.3027790339	-2.1645418923	 1.9656054594	 0.134966
H	 1.0321928592	-4.6908309212	 1.8839325345	 0.117936
62.9	84.7193	109.0357	184.9592	225.8049	258.4059	317.4211	342.8656	516.0216	541.5193	664.5962	729.9382	764.1951	808.2692	859.7249	879.2908	933.4124	975.3813	995.7364	1037.4953	1072.4186	1118.534	1159.0228	1173.3848	1183.4664	1202.561	1207.8196	1230.2702	1273.5221	1336.1235	1434.0943	1475.8865	1481.1535	1485.3607	1492.9878	1516.5769	1930.5934	2957.4201	2975.6961	2994.6729	3021.7144	3070.2399	3122.0161	3160.7111	3164.7444
COCC12CC(O1)C2=O	COC[C@@]12C[C@@H](O1)C2=O	
InChI=1S/C6H8O3/c1-8-3-6-2-4(9-6)5(6)7/h4H,2-3H2,1H3	InChI=1S/C6H8O3/c1-8-3-6-2-4(9-6)5(6)7/h4H,2-3H2,1H3/t4-,6-/m1/s1
