19
gdb 38610	2.56015	2.29201	1.62522	1.4599	77.21	-0.2266	0.0905	0.317	888.0814	0.162712	-385.854999	-385.848624	-385.84768	-385.885274	27.631	
C	-0.0788050197	 1.4325619983	-0.0446579951	-0.398666
C	 1.329424676	 0.8268149566	-0.046631372	-0.076701
C	 2.1587066022	 0.3969945795	-1.2518287854	-0.259114
C	 1.4651561187	-0.8842690416	-1.7211984762	-0.038738
C	 0.9461724705	-1.9860514545	-0.77045849	-0.0861
C	 0.9312886165	-1.9158339338	 0.7718046134	-0.115668
O	-0.0330859224	-0.8990715948	 1.1234698802	-0.294316
C	 0.0905434474	-0.0383125399	 0.0220545201	 0.421957
C	 0.0419170952	-0.8851626736	-1.2382110851	-0.14789
H	-0.3399202497	 1.9757659977	 0.8573577242	 0.126111
H	-0.5112742756	 1.8416719793	-0.9537047586	 0.115768
H	 1.8548020551	 0.9740486628	 0.8907604363	 0.092686
H	 2.1659322791	 1.1261011251	-2.0729146067	 0.099244
H	 3.2040994223	 0.2422862757	-0.9609416048	 0.100225
H	 1.6902775142	-1.2458312767	-2.721270036	 0.079982
H	 0.8871013145	-2.9724305126	-1.2167732096	 0.091458
H	 0.5953240617	-2.86118583	 1.2065114316	 0.108925
H	 1.9109089998	-1.6597594919	 1.1972133652	 0.096836
H	-0.8508528458	-1.0008370955	-1.8411296314	 0.084001
212.2494	239.7779	349.1711	423.6336	432.0301	544.3682	599.2171	671.5907	711.8913	742.0668	791.1479	821.3098	832.2921	854.367	891.3898	928.9227	947.2499	962.5042	985.0366	1028.6674	1031.3535	1045.8523	1079.165	1081.1339	1091.0455	1112.2692	1124.5567	1161.4486	1203.3261	1226.518	1235.4718	1273.397	1308.856	1325.1739	1346.8462	1355.2594	1389.9915	1411.0055	1477.6017	1494.1962	1508.0528	3012.6647	3015.6441	3057.0817	3090.7449	3120.0579	3143.3103	3167.7181	3171.0346	3182.1658	3210.482
C1C2CC3C4COC12C34	C1[C@@H]2C[C@H]3[C@H]4CO[C@@]12[C@@H]34	
InChI=1S/C8H10O/c1-4-2-8(4)7-5(1)6(7)3-9-8/h4-7H,1-3H2	InChI=1S/C8H10O/c1-4-2-8(4)7-5(1)6(7)3-9-8/h4-7H,1-3H2/t4-,5-,6+,7-,8-/m0/s1
