14
gdb 132598	3.2091	1.34534	0.94873	4.6527	69.34	-0.2079	-0.0168	0.1911	1123.3183	0.101674	-478.03129	-478.02371	-478.022766	-478.063026	29.568	
N	-0.033348433	 1.4071096462	-0.1710959715	-0.597832
C	-0.0403331709	 0.0229373312	-0.0791810851	 0.18343
C	-1.1993172567	-0.7510879237	-0.0989096061	-0.311817
C	-1.0982044719	-2.1438380748	-0.0634850505	 0.360088
O	-2.1839552934	-2.9664002289	-0.080430519	-0.441389
C	 0.1644434458	-2.728083067	-0.00607401	-0.086481
N	 1.2795885515	-1.9882915631	 0.0186165172	-0.307381
C	 1.16692617	-0.693337151	-0.0164835609	 0.280249
F	 2.2985749461	 0.0348053144	 0.0170811917	-0.09617
H	 0.8296841818	 1.8333323648	 0.1321199978	 0.261963
H	-0.85013052	 1.8745523792	 0.1926159751	 0.251447
H	-2.1725330865	-0.2686934444	-0.1477210894	 0.087203
H	-2.9862530045	-2.4375212333	-0.1333656087	 0.298706
H	 0.2687642018	-3.8070348797	 0.0234616194	 0.117985
148.4194	226.7109	294.2731	312.1809	327.0893	349.6153	404.0493	478.1935	484.0756	507.6162	579.1407	613.6393	649.9305	735.565	757.0254	797.9261	862.6492	892.8393	1009.4735	1102.4488	1193.903	1209.7166	1269.1589	1295.0034	1339.0673	1401.9387	1498.7464	1525.8319	1633.552	1642.0035	1663.2174	3155.3787	3191.0826	3572.3073	3677.3301	3828.5309
NC1=CC(O)=CN=C1F	Nc1cc(O)cnc1F	
InChI=1S/C5H5FN2O/c6-5-4(7)1-3(9)2-8-5/h1-2,9H,7H2	InChI=1S/C5H5FN2O/c6-5-4(7)1-3(9)2-8-5/h1-2,9H,7H2
