13
gdb 129974	3.24808	1.48605	1.01958	5.8384	65.12	-0.2288	-0.0516	0.1772	1054.0395	0.090746	-486.11588	-486.108002	-486.107058	-486.148359	29.231	
N	 0.0238707801	 1.3489729234	 0.0086930754	-0.551786
C	-0.0268311979	 0.0015934103	 0.0017130905	 0.358045
N	-1.1692828166	-0.6245955909	 0.0041222704	-0.404139
C	-1.1828863264	-2.0100488164	-0.0032277004	 0.442198
O	-2.1817770309	-2.6961040631	-0.0018744733	-0.389035
N	 0.0810870727	-2.6249125544	-0.012693821	-0.293859
N	 1.2767574852	-2.0046707483	-0.0154787004	-0.265668
C	 1.2370181641	-0.7220424506	-0.0085001636	 0.38885
O	 2.3751172967	 0.0139828593	-0.0106590339	-0.43155
H	 0.9065319675	 1.8276401259	 0.0063014019	 0.283288
H	-0.8393572459	 1.8656724332	 0.015378497	 0.277591
H	 0.109343381	-3.6330927338	-0.0182943842	 0.275661
H	 3.1218303802	-0.6003863646	-0.0175062781	 0.310404
88.9982	128.2731	203.0192	311.8002	355.2352	375.6385	389.8605	461.6823	509.5223	538.8838	578.854	607.7402	613.0345	736.8422	764.3456	795.555	817.3719	940.1634	1112.0228	1152.4272	1214.1652	1312.6894	1349.3651	1427.6363	1521.0927	1594.3257	1636.9694	1700.2804	1812.8546	3616.887	3632.4634	3757.46	3775.2951
NC1=NC(=O)NN=C1O	Nc1nc(=O)[nH]nc1O	
InChI=1S/C3H4N4O2/c4-1-2(8)6-7-3(9)5-1/h(H,6,8)(H3,4,5,7,9)	InChI=1S/C3H4N4O2/c4-1-2(8)6-7-3(9)5-1/h(H,6,8)(H3,4,5,7,9)
