20
gdb 92416	2.16845	1.59165	1.2404	2.9554	78.91	-0.2233	-0.0313	0.192	1116.8933	0.170442	-403.114604	-403.105891	-403.104947	-403.148416	32.667	
C	 0.1308906869	 1.5909042026	-0.0548925047	-0.417577
C	 0.0573240692	 0.0861606493	 0.1428532807	-0.042111
C	 0.838452154	-0.8570761097	-0.8103292353	-0.190671
N	 1.3704943601	-1.6543203352	 0.3429851675	-0.171703
C	 2.772451966	-1.2660218618	 0.7137271081	-0.162935
C	 2.2781918061	-0.1252574442	 1.643248542	-0.330449
C	 0.8462590513	-0.5919053799	 1.3053332613	 0.270551
C	 0.0080023672	-1.1059487816	 2.4447520077	 0.097146
O	 0.1957557442	-0.858234816	 3.6088533228	-0.251283
H	 1.1648252662	 1.9400818284	-0.138402128	 0.120534
H	-0.3898023259	 1.8811603818	-0.9738460884	 0.123811
H	-0.3391669022	 2.1263974494	 0.7767967658	 0.127635
H	-0.9928192893	-0.2221544411	 0.2014686559	 0.083639
H	 0.2364414778	-1.4532161041	-1.5020805791	 0.108431
H	 1.6249216051	-0.3516248799	-1.3858002304	 0.097169
H	 3.282516745	-2.0825442085	 1.2328967023	 0.114243
H	 3.382169686	-0.9663447471	-0.1446758573	 0.104705
H	 2.5241135016	-0.2307532608	 2.7008572397	 0.132608
H	 2.5310830885	 0.8879816691	 1.3253263924	 0.10766
H	-0.8300713679	-1.7632945605	 2.1162545671	 0.078598
60.1778	74.5617	206.8717	213.5119	230.8714	264.6211	338.7137	410.5033	470.2505	488.99	624.2964	691.0829	762.793	800.4877	834.374	895.6756	903.5586	927.8195	949.234	969.8176	1022.2476	1034.8294	1060.5425	1119.6381	1135.0123	1175.9318	1188.9137	1203.4738	1228.3057	1234.2177	1261.5223	1294.9524	1303.7076	1326.3029	1375.5981	1412.874	1415.9448	1483.2309	1494.5941	1497.2632	1502.4371	1519.0907	1822.1806	2868.4223	3016.4045	3032.5412	3035.6036	3043.198	3078.7333	3079.8229	3090.4649	3098.406	3105.15	3135.7618
CC1CN2CCC12C=O	C[C@H]1CN2CC[C@@]12C=O	
InChI=1S/C7H11NO/c1-6-4-8-3-2-7(6,8)5-9/h5-6H,2-4H2,1H3	InChI=1S/C7H11NO/c1-6-4-8-3-2-7(6,8)5-9/h5-6H,2-4H2,1H3/t6-,7+/m0/s1
