18
gdb 12708	2.84587	2.16202	1.66574	2.7855	71.67	-0.2333	-0.0161	0.2172	864.2647	0.153142	-347.805974	-347.798227	-347.797283	-347.838128	29.276	
C	-0.2217286168	 1.5179056028	 0.0315253839	-0.49392
C	 0.035289644	 0.0274718878	 0.0205666566	 0.232463
C	-1.1885073138	-0.9387635709	 0.1939147084	-0.27604
C	-0.4533544726	-1.6905893376	 1.3407312193	-0.21576
C	 0.8060898517	-0.8171839536	 1.1233209015	-0.078972
C	 1.7842387106	-1.3546504372	 0.0420870804	-0.358303
C	 1.0231935701	-0.5279553006	-1.0131063503	 0.366846
O	 1.1786440453	-0.3338082098	-2.1851410544	-0.30678
H	 0.7117952865	 2.0880423656	 0.0860094699	 0.120474
H	-0.7400046963	 1.8195509485	-0.8853629939	 0.136552
H	-0.8462944149	 1.8060791687	 0.8839543965	 0.115584
H	-2.0880833589	-0.4090727409	 0.5173084573	 0.110306
H	-1.4450928101	-1.5293678809	-0.689163187	 0.112993
H	-0.9219096712	-1.5350135147	 2.3153370325	 0.105489
H	-0.3101800616	-2.7660877869	 1.2026401195	 0.100748
H	 1.2659760853	-0.3553489124	 1.9969151732	 0.071862
H	 2.8137311064	-0.9976402132	 0.1543668254	 0.132401
H	 1.8152269564	-2.4367725646	-0.1183356089	 0.124058
60.5585	151.2367	188.2156	255.5301	267.5929	351.3827	461.8492	510.2478	586.8135	653.3223	724.9956	763.3994	818.0491	846.3298	874.0469	921.4473	955.8972	1002.7531	1026.9462	1041.4053	1049.3101	1108.9166	1148.9114	1180.8445	1189.4246	1220.4645	1226.1964	1248.3728	1278.399	1309.7698	1323.0127	1405.6436	1433.3143	1477.3189	1487.7974	1490.1784	1496.8193	1879.544	3026.4468	3047.6635	3054.3285	3061.2127	3095.0112	3096.2	3097.3281	3097.8329	3110.4971	3118.6683
CC12CCC1CC2=O	C[C@]12CC[C@H]1CC2=O	
InChI=1S/C7H10O/c1-7-3-2-5(7)4-6(7)8/h5H,2-4H2,1H3	InChI=1S/C7H10O/c1-7-3-2-5(7)4-6(7)8/h5H,2-4H2,1H3/t5-,7-/m0/s1
