21
gdb 68931	2.32398	1.74451	1.19677	1.3852	78.14	-0.2457	0.0874	0.3332	1112.7579	0.181963	-424.228856	-424.219934	-424.21899	-424.261863	34.575	
C	-0.0827037737	 1.5489302337	-0.0720664239	-0.471051
C	 0.1055057932	 0.0497763606	-0.0099852033	 0.335461
C	 0.1336863695	-0.6423345524	-1.3641086409	-0.265516
C	 0.3934451874	-2.1403476925	-1.21953738	-0.092213
O	 1.5721886163	-2.3613761593	-0.463904166	-0.249051
C	 1.428058489	-1.9890556723	 0.8904226521	-0.135117
C	 0.7609585592	-0.6333662333	 1.1291172037	 0.305914
C	 1.2774352572	 0.0872963103	 2.3550276939	-0.476479
O	-0.6753482388	-0.6455772317	 0.9798218993	-0.331408
H	 0.7449459564	 2.0183403389	-0.6146929538	 0.122365
H	-1.0082163039	 1.785229055	-0.6089429975	 0.125944
H	-0.1467234538	 1.9972037383	 0.9199017746	 0.126512
H	-0.8194811891	-0.4696490859	-1.8805427094	 0.10106
H	 0.9238680903	-0.1916640352	-1.9765996007	 0.106776
H	-0.4699001133	-2.6289542633	-0.7446336128	 0.104141
H	 0.5608547226	-2.6035575229	-2.1957192392	 0.104357
H	 0.8454133403	-2.7456993993	 1.4441672588	 0.098654
H	 2.4411021741	-1.9778264036	 1.3049881697	 0.106251
H	 2.3063184204	 0.4305672238	 2.2028867682	 0.124639
H	 0.652757974	 0.943408274	 2.6114515264	 0.13149
H	 1.2776210527	-0.592418523	 3.2153834308	 0.127272
131.5865	153.343	166.187	177.8679	285.1191	319.8684	338.2959	343.1453	406.711	441.5069	481.053	559.3486	620.1057	658.1981	709.2427	856.611	877.497	898.2184	947.5639	974.0968	990.8512	1017.6453	1028.2807	1109.2396	1136.5248	1138.1017	1156.0357	1196.8219	1237.9012	1259.0048	1274.764	1325.6076	1375.4629	1387.9546	1405.3266	1414.9541	1424.0666	1451.0858	1469.0942	1477.3928	1482.4601	1486.2334	1498.7766	1503.4762	1516.7009	2957.6828	3003.4426	3023.9897	3033.1517	3038.9467	3067.1041	3074.7786	3091.6314	3092.4505	3096.2859	3135.5172	3148.3176
CC12CCOCC1(C)O2	C[C@@]12CCOC[C@]1(C)O2	
InChI=1S/C7H12O2/c1-6-3-4-8-5-7(6,2)9-6/h3-5H2,1-2H3	InChI=1S/C7H12O2/c1-6-3-4-8-5-7(6,2)9-6/h3-5H2,1-2H3/t6-,7+/m1/s1
