21
gdb 92538	2.20074	1.76489	1.41437	2.4176	76.55	-0.2422	0.0599	0.302	1038.3618	0.184055	-424.21916	-424.210795	-424.209851	-424.251681	32.957	
C	 0.1127163109	 1.5742573783	-0.2427873956	-0.389102
C	-0.0350970254	 0.061954528	-0.023110276	-0.046772
C	 0.4682429803	-0.7761183208	-1.2227826755	-0.242293
C	 1.944610673	-1.0481871079	-0.9377516792	 0.132092
O	 2.7978412915	 0.1060872411	-1.1479651611	-0.298612
C	 3.1595821659	 0.148587121	 0.2537389952	-0.083283
C	 2.1504745525	-0.9613412464	 0.5945863384	-0.077053
C	 0.799626836	-0.5059927729	 1.1702198506	 0.11185
O	 1.0208236795	 0.3888486449	 2.2479251766	-0.431655
H	 1.1147817206	 1.835902499	-0.5871313305	 0.146043
H	-0.5970987528	 1.9076739044	-1.007058134	 0.105944
H	-0.0934205304	 2.1329625393	 0.6745397907	 0.099963
H	-1.096055068	-0.1469182267	 0.1602852487	 0.061566
H	-0.0584623812	-1.7374868984	-1.2725253018	 0.093891
H	 0.3252309131	-0.2747073612	-2.1849681706	 0.110224
H	 2.3378753362	-1.9256297168	-1.4635953619	 0.067412
H	 4.2090882773	-0.1336141453	 0.4030935829	 0.097586
H	 2.978874307	 1.1273061054	 0.7070885128	 0.119097
H	 2.5570730841	-1.8258488953	 1.1191777281	 0.073836
H	 0.2796938919	-1.4059040784	 1.5368607154	 0.064296
H	 0.1689470082	 0.6112408486	 2.6361654266	 0.284968
108.4035	164.581	220.335	250.2022	270.6196	282.7131	338.0469	372.979	450.2714	524.8837	625.9219	730.0347	755.0575	793.9176	853.0479	863.8192	889.3542	930.7293	957.7931	1002.202	1020.4621	1041.8714	1047.1354	1088.5302	1100.4758	1127.6701	1145.9911	1168.5803	1203.8759	1215.1862	1250.7339	1269.6164	1282.5108	1316.7833	1335.6624	1346.5705	1362.4497	1372.6627	1385.3107	1416.4166	1431.0963	1471.3797	1491.1687	1510.3027	1532.4232	2958.0511	3018.6634	3022.1902	3030.3717	3042.7724	3046.4117	3087.8512	3089.3426	3104.5163	3109.0199	3140.3556	3821.538
CC1CC2OCC2C1O	C[C@H]1C[C@H]2OC[C@H]2[C@H]1O	
InChI=1S/C7H12O2/c1-4-2-6-5(3-9-6)7(4)8/h4-8H,2-3H2,1H3	InChI=1S/C7H12O2/c1-4-2-6-5(3-9-6)7(4)8/h4-8H,2-3H2,1H3/t4-,5+,6+,7-/m0/s1
