25
gdb 60456	4.70084	0.56643	0.5446	0.9976	90.97	-0.2415	0.0828	0.3244	2170.2216	0.226726	-389.47612	-389.465138	-389.464193	-389.51339	39.931	
C	 0.390421239	 1.2787968595	-0.3405084401	-0.381595
C	-0.0894574735	-0.1325980481	 0.030426062	 0.039715
C	 0.5270037384	-0.5765961076	 1.3640756259	-0.38781
C	-1.6230579387	-0.2392958565	 0.091956587	-0.182246
C	-2.3307476897	-0.0069581236	-1.2371261737	-0.067508
O	-3.714000479	-0.2644650901	-1.0486667281	-0.250112
C	-4.4761557199	-0.0461789611	-2.1915572347	 0.152199
C	-4.5928798143	-1.1407757481	-3.2236612073	-0.287875
C	-5.7509073932	-0.8158297546	-2.2984289881	-0.28764
H	 1.4843254615	 1.3283763211	-0.3526456195	 0.109986
H	 0.0369408542	 1.5910227739	-1.327684447	 0.11343
H	 0.0336959252	 2.0152770439	 0.3898541444	 0.112465
H	 0.2637907885	-0.8245966774	-0.748340858	 0.070831
H	 0.2045838271	 0.079897054	 2.1812167312	 0.112536
H	 0.2283623502	-1.598134152	 1.6215839303	 0.110308
H	 1.620896086	-0.5448195592	 1.3255247175	 0.108051
H	-1.9036618873	-1.2390994053	 0.4445957372	 0.1001
H	-2.015813601	 0.4708567265	 0.831355898	 0.099231
H	-2.1902556678	 1.0268432645	-1.5901514282	 0.086269
H	-1.9232974899	-0.6732719326	-2.0151776529	 0.086183
H	-4.463645123	 0.985159456	-2.5489937815	 0.079215
H	-4.6654806591	-0.8697509138	-4.2712841163	 0.110251
H	-4.0513806095	-2.059089315	-3.0256959338	 0.117421
H	-5.954988541	-1.5191775083	-1.4993175886	 0.124447
H	-6.6251701331	-0.3191364562	-2.7036619657	 0.112148
40.5959	50.7471	102.0161	116.3136	136.0736	224.6035	237.4823	255.249	277.0585	378.9407	389.2088	424.9803	465.7067	510.3164	756.136	791.7525	815.9667	817.4306	849.0586	927.8694	946.1654	961.7304	966.9203	983.1256	996.8316	1045.8888	1067.5032	1071.3392	1087.9849	1129.1167	1156.8323	1191.3101	1193.8713	1195.1976	1207.161	1241.7182	1252.3025	1302.0326	1310.9782	1362.6477	1372.8317	1385.5526	1400.4675	1421.2967	1439.1039	1453.6966	1483.6134	1489.8393	1497.949	1499.0117	1505.8474	1511.0538	1527.9509	2965.0985	2993.0889	2994.8098	3022.5531	3024.344	3030.0434	3067.0304	3082.0479	3088.1985	3094.2894	3099.6559	3103.9859	3134.5033	3141.8941	3219.0491	3234.1727
CC(C)CCOC1CC1	CC(C)CCOC1CC1	
InChI=1S/C8H16O/c1-7(2)5-6-9-8-3-4-8/h7-8H,3-6H2,1-2H3	InChI=1S/C8H16O/c1-7(2)5-6-9-8-3-4-8/h7-8H,3-6H2,1-2H3
