14
gdb 27827	2.0285	1.8872	0.98359	4.2801	68.67	-0.2451	-0.0507	0.1944	1118.123	0.10084	-473.910668	-473.902886	-473.901942	-473.943209	28.735	
C	 0.0193483489	 1.4674702758	 0.0088411724	-0.467924
C	-0.0672033229	-0.0240083255	 0.0081068389	 0.426994
N	-1.1975650734	-0.6382332444	-0.1172572545	-0.404283
C	-1.1504497904	-2.0100361937	-0.1034598227	 0.443212
O	-2.3353344351	-2.6138970541	-0.2351107176	-0.398323
C	-0.0062202652	-2.7372444868	 0.0317125927	-0.368824
C	 1.2434335896	-2.0619696506	 0.1703251905	 0.42862
O	 2.3531227611	-2.4877647563	 0.2997021708	-0.334502
O	 1.1133209144	-0.617697824	 0.1466040058	-0.242078
H	 0.6693100531	 1.8031409471	-0.8051627269	 0.161098
H	-0.974455869	 1.8974584224	-0.1070974963	 0.152989
H	 0.4698907209	 1.813842195	 0.9441292958	 0.161096
H	-2.9963773364	-1.9117729554	-0.3149307764	 0.308245
H	-0.0106776656	-3.8174210997	 0.0378310775	 0.13368
108.9152	151.0794	175.2335	204.5274	289.9557	372.8865	477.6812	534.6402	546.6361	585.4585	605.8897	622.1633	728.3462	766.7324	790.9085	843.1272	973.8718	1009.3187	1061.0929	1066.1715	1129.0388	1209.8055	1306.7411	1350.6221	1411.0081	1449.4884	1468.6476	1472.7579	1625.3277	1697.9274	1882.8986	3052.8467	3112.5616	3170.4177	3242.6857	3766.2939
CC1=NC(O)=CC(=O)O1	Cc1nc(O)cc(=O)o1	
InChI=1S/C5H5NO3/c1-3-6-4(7)2-5(8)9-3/h2,7H,1H3	InChI=1S/C5H5NO3/c1-3-6-4(7)2-5(8)9-3/h2,7H,1H3
