19
gdb 105983	2.6443	1.55252	1.18641	1.5762	78.86	-0.2199	0.0663	0.2862	1096.7095	0.157735	-385.776847	-385.768385	-385.767441	-385.809892	32.546	
C	-0.043321909	 1.4706836281	 0.1210275963	-0.526773
C	 0.0200554791	-0.0190261643	 0.0318563681	 0.289668
C	 0.2242252784	-0.9770283522	-1.1871638635	-0.152387
C	-0.6174214022	-2.0395562374	-0.4988052718	-0.082012
C	 0.8871327587	-2.0027901695	-0.2807626727	-0.173538
C	 0.6881027524	-1.0501277236	 0.9450645109	 0.283626
C	 1.4609324195	-0.8747232686	 2.2077312607	-0.214376
O	 1.3432284236	-1.9681644953	 3.1143287792	-0.41195
C	-0.8231597306	-1.0896115612	 0.716608935	-0.199738
H	 0.8845673635	 1.9379813571	-0.2299877272	 0.120863
H	-0.8668325909	 1.8684141607	-0.484068892	 0.123491
H	-0.2094107497	 1.7941169062	 1.1543078762	 0.123663
H	 0.3761324203	-0.7899243549	-2.2422460943	 0.085361
H	-1.2328773659	-2.8174005752	-0.930282936	 0.086641
H	 1.640510502	-2.742374383	-0.5220122862	 0.081817
H	 2.5204949667	-0.6754836502	 1.9751705049	 0.08855
H	 1.0838689479	-0.0012062573	 2.7516541751	 0.109006
H	 1.5942559039	-2.7663075816	 2.6385947498	 0.282023
H	-1.6200229976	-0.981432778	 1.4411319874	 0.086065
80.5997	119.6506	202.8147	222.2608	230.5581	265.0436	319.0521	430.1732	567.245	644.7249	699.3133	763.9233	768.9496	775.9988	805.9658	847.0467	867.3207	908.745	933.2259	940.6369	977.9037	983.9376	1003.3619	1021.5884	1046.4102	1093.2592	1099.6018	1155.3107	1177.4441	1200.3753	1224.741	1273.0564	1321.763	1343.664	1366.3501	1408.6841	1412.2677	1457.6882	1482.0743	1490.9299	1500.067	2962.1502	3017.6595	3061.4261	3074.8368	3091.6962	3182.024	3189.6612	3198.4285	3208.4463	3817.5022
CC12C3C4C3C1(CO)C24	C[C@@]12[C@@H]3[C@H]4[C@@H]3[C@]1(CO)[C@@H]24	
InChI=1S/C8H10O/c1-7-4-3-5(4)8(7,2-9)6(3)7/h3-6,9H,2H2,1H3	InChI=1S/C8H10O/c1-7-4-3-5(4)8(7,2-9)6(3)7/h3-6,9H,2H2,1H3/t3-,4+,5-,6+,7-,8+/m0/s1
