17
gdb 94428	2.49643	1.47244	1.23818	3.5257	69.35	-0.2311	-0.0312	0.1998	1068.3109	0.133972	-458.940779	-458.93201	-458.931066	-458.975159	31.436	
O	 0.1292663604	 1.1765867557	-0.3817259709	-0.41673
C	 0.0658573828	-0.1296975512	 0.1246935836	-0.015221
C	-0.0271441561	-0.3106029074	 1.6566079534	-0.10657
O	-1.2941142685	-0.9936175628	 1.5282835916	-0.312469
C	-1.365046494	-0.7420050684	 0.1287395061	 0.33973
C	-2.5388820742	 0.0589888351	-0.4947007831	-0.309827
C	-2.5750257146	-0.9273013383	-1.6997207257	-0.344588
C	-1.6750547627	-1.8711799435	-0.8787537118	 0.329062
O	-1.3937343294	-3.0319357728	-0.9346815216	-0.300116
H	 1.0405184002	 1.3791643672	-0.6113392243	 0.296593
H	 0.8038731694	-0.7879405031	-0.3469569343	 0.098112
H	 0.7323989812	-0.9402297857	 2.1321594244	 0.110986
H	-0.1231398552	 0.6393682894	 2.1957372084	 0.109224
H	-3.4280987847	-0.0170249007	 0.1349748305	 0.123627
H	-2.3239496824	 1.1034361705	-0.7165263297	 0.129924
H	-3.5420915482	-1.3399227373	-1.9949850234	 0.133975
H	-2.0669605139	-0.5501209867	-2.5928919532	 0.134288
53.8287	73.7273	125.7475	136.6575	237.0897	265.1048	384.831	432.0165	480.4252	530.5206	607.3457	711.2166	752.7341	776.1451	850.1846	894.7444	929.8868	992.1299	1019.8881	1029.5437	1062.8198	1079.7615	1137.6068	1154.717	1167.9391	1184.6727	1200.8996	1226.708	1240.1333	1275.4005	1293.0429	1333.8905	1437.5938	1439.3538	1475.461	1511.0829	1889.4096	3025.3312	3041.4411	3062.4341	3083.9613	3084.6598	3120.8973	3155.5655	3838.3095
OC1COC11CCC1=O	O[C@H]1CO[C@]21CCC2=O	
InChI=1S/C6H8O3/c7-4-1-2-6(4)5(8)3-9-6/h5,8H,1-3H2	InChI=1S/C6H8O3/c7-4-1-2-6(4)5(8)3-9-6/h5,8H,1-3H2/t5-,6+/m0/s1
