19
gdb 94577	3.17945	1.1625	0.92809	3.6596	71.14	-0.2393	0.0516	0.2909	1260.0058	0.15877	-460.106705	-460.097741	-460.096796	-460.142032	31.589	
O	 0.1179965721	 1.263730426	-0.392507603	-0.422889
C	 0.0654387324	-0.088145833	-0.0034301694	 0.039252
C	-0.0107442692	-0.4060739759	 1.5077226042	-0.101394
O	-1.2942543477	-1.0445293566	 1.3467800263	-0.296385
C	-1.3631209306	-0.680078765	-0.0551413637	 0.099633
C	-2.4917838984	 0.284074002	-0.3500715591	-0.019119
C	-2.753957414	 0.544556456	-1.8491045315	-0.082952
O	-3.9954761275	-0.1887053505	-1.807079652	-0.275172
C	-3.8982185309	-0.3549687665	-0.3761393463	-0.09625
H	 1.0360398442	 1.5505601129	-0.3933592352	 0.29222
H	 0.8070073284	-0.6890145241	-0.5428384809	 0.081893
H	 0.743035126	-1.0937624574	 1.909172398	 0.100974
H	-0.0653083397	 0.4905841619	 2.1385488982	 0.103487
H	-1.4634386731	-1.576421382	-0.6825497311	 0.082778
H	-2.3953758517	 1.1784775072	 0.2649383548	 0.08849
H	-2.9027270235	 1.5984648262	-2.1142078879	 0.100929
H	-2.0370965892	 0.1020275574	-2.5523808811	 0.097744
H	-3.9573071267	-1.4080093109	-0.0753371203	 0.108598
H	-4.673270371	 0.2107163023	 0.1562074699	 0.098162
46.6945	61.0753	69.3289	149.5292	214.958	251.6725	317.2355	397.9948	428.1573	552.59	755.5339	818.2418	839.7675	881.9443	897.2902	946.3013	955.7945	1016.7542	1022.0608	1035.7789	1044.3353	1072.1929	1081.9215	1148.2453	1153.3844	1159.3242	1164.3345	1183.6888	1232.294	1246.0425	1283.4087	1307.3499	1307.9055	1310.2393	1343.9702	1378.0289	1416.0863	1439.9208	1512.9693	1513.973	1538.1251	3005.4294	3007.509	3012.6098	3018.4177	3032.328	3052.4051	3056.3884	3065.1614	3116.3774	3828.7318
OC1COC1C1COC1	O[C@H]1CO[C@H]1C1COC1	
InChI=1S/C6H10O3/c7-5-3-9-6(5)4-1-8-2-4/h4-7H,1-3H2	InChI=1S/C6H10O3/c7-5-3-9-6(5)4-1-8-2-4/h4-7H,1-3H2/t5-,6-/m0/s1
