20
gdb 40147	2.58517	1.50398	1.22552	1.4998	78.27	-0.2434	0.0655	0.3089	1097.6065	0.171595	-403.082538	-403.074307	-403.073363	-403.116081	31.421	
C	 0.0448666397	 1.4774608884	-0.1299340136	-0.309007
N	 1.2763214153	 0.6673837172	-0.006367133	-0.367462
C	-0.0211801613	 0.0057775728	 0.009097013	 0.307062
C	-0.589145605	-0.8035820654	 1.1777102035	-0.299426
C	-1.4716094933	-1.5623782648	 0.1424051829	-0.307407
C	-0.603399732	-0.9889754254	-1.0069389759	 0.227129
C	-1.1387133154	-0.6103248211	-2.398021344	-0.146379
O	-0.1747277466	-1.4533782738	-3.0599609252	-0.273964
C	 0.3486070993	-1.9159326512	-1.7995120824	-0.130479
H	-0.1712550092	 2.1116397841	 0.7263130443	 0.119656
H	-0.1916452724	 1.9230310786	-1.0930640733	 0.113753
H	 1.7162557796	 0.5652544982	-0.9193500693	 0.233688
H	 0.1692864804	-1.4430613213	 1.638091855	 0.113608
H	-1.105915997	-0.2486079172	 1.9637478287	 0.105399
H	-1.5069550658	-2.651626398	 0.2217958084	 0.104328
H	-2.4959176973	-1.1806006634	 0.1066721801	 0.107475
H	-2.1720900035	-0.9267663334	-2.5951946558	 0.101072
H	-1.0318394343	 0.4429187537	-2.6902562623	 0.099099
H	 1.4226650161	-1.7103610449	-1.6987934254	 0.101157
H	 0.1782995427	-2.9907352829	-1.650554386	 0.100698
48.482	71.9311	198.6764	240.8998	277.9026	328.8397	409.9302	474.8925	509.3868	569.1415	737.2304	829.392	847.5279	867.361	886.9153	915.2519	924.5963	951.5485	959.883	978.1338	995.8788	1037.8142	1045.604	1109.6582	1120.5286	1150.15	1157.2221	1176.9848	1183.4919	1206.6188	1213.8344	1250.3112	1257.0716	1265.5979	1306.4762	1322.4971	1381.2271	1406.0624	1475.8132	1493.2804	1502.768	1517.076	1532.4345	2993.0326	3005.4643	3038.7092	3041.6431	3056.2904	3061.8106	3101.5061	3103.6881	3119.6011	3185.3452	3478.0816
C1NC11CCC11COC1	C1N[C@]21CCC12COC1	
InChI=1S/C7H11NO/c1-2-7(3-8-7)6(1)4-9-5-6/h8H,1-5H2	InChI=1S/C7H11NO/c1-2-7(3-8-7)6(1)4-9-5-6/h8H,1-5H2/t7-/m0/s1
