16
gdb 124667	3.68114	1.09163	0.96042	2.099	70.34	-0.2554	-0.0375	0.2179	1215.7408	0.125162	-434.104536	-434.09617	-434.095226	-434.139044	29.386	
C	-0.5290772887	 1.4536013999	-0.1996323015	-0.4209
C	 0.0660674588	 0.0529317535	-0.0542527839	-0.186904
C	-0.9901083973	-0.980185016	 0.3663204049	 0.147296
O	-2.1268105536	-0.699668995	 0.6365839559	-0.230627
C	 0.7726667286	-0.4605692804	-1.2738408621	 0.366636
N	 1.5784626935	-1.5100940887	-1.3151515956	-0.318674
C	 1.913198591	-1.5904365355	-2.6327789354	 0.024214
N	 1.3742842747	-0.6663035802	-3.409175674	-0.210131
N	 0.6390738934	 0.0453448198	-2.5198915483	-0.243196
H	 0.2433029832	 2.1852542842	-0.4512489454	 0.12567
H	-1.3076108985	 1.4753415141	-0.9687983359	 0.130135
H	-1.0059479814	 1.7553954594	 0.734282261	 0.148053
H	 0.8114418208	 0.0370222724	 0.7540830741	 0.138612
H	-0.6103937921	-2.0219646533	 0.4024997412	 0.115651
H	 2.5746363901	-2.3466533217	-3.0280694083	 0.13103
H	 0.1111768074	 0.8431865275	-2.8327670467	 0.283135
26.0901	78.4734	154.1691	212.0211	233.7848	265.3799	365.2838	434.7508	566.3471	594.1047	697.724	707.4423	755.2361	852.414	913.5853	936.2217	982.1892	1021.1215	1068.362	1097.6	1117.5502	1143.5567	1210.4973	1271.4878	1288.271	1307.3263	1312.6778	1399.6877	1418.114	1423.2476	1487.7693	1496.3776	1503.7467	1576.4251	1833.3828	2931.3767	3016.7672	3048.7042	3116.5086	3141.1431	3263.6303	3669.0093
CC(C=O)C1=NC=NN1	C[C@@H](C=O)c1ncn[nH]1	
InChI=1S/C5H7N3O/c1-4(2-9)5-6-3-7-8-5/h2-4H,1H3,(H,6,7,8)	InChI=1S/C5H7N3O/c1-4(2-9)5-6-3-7-8-5/h2-4H,1H3,(H,6,7,8)/t4-/m0/s1
