12
gdb 132953	2.40851	1.74307	1.01123	3.4611	62.47	-0.2325	-0.0424	0.1901	1020.473	0.077146	-521.876608	-521.869712	-521.868768	-521.908152	26.083	
F	 0.0711405768	 0.0845994219	 0.2303312874	-0.071324
C	 0.0187912737	 1.4069182643	 0.0580914435	 0.135708
C	-1.1705660724	 2.025143005	 0.0020201918	-0.044671
O	-1.2854431015	 3.3631429732	-0.1708989783	-0.190611
C	-0.1417567028	 4.0855651005	-0.2895421414	-0.053148
C	 1.0823011955	 3.5334776445	-0.2428611455	 0.171712
F	 2.1511789995	 4.3079484882	-0.3667858688	-0.047069
C	 1.2979452225	 2.1018462267	-0.059790274	 0.104031
N	 2.4691534855	 1.5827714301	-0.0163213518	-0.54607
H	-2.1246090307	 1.5243946168	 0.0876721884	 0.157795
H	-0.3233826239	 5.1421022617	-0.4241938178	 0.157209
H	 2.3911002678	 0.5727479272	 0.1176651668	 0.226439
107.5283	280.1818	301.2587	312.3163	321.2943	449.8957	477.841	511.2798	523.692	590.7668	682.5634	755.3659	860.867	868.0311	871.9844	898.2026	971.8031	1087.8675	1228.5013	1261.0324	1319.3693	1325.4329	1368.4342	1468.5462	1663.601	1679.193	1723.2368	3241.1095	3247.7034	3464.1753
FC1=COC=C(F)C1=N	FC1=COCC(=C1[NH])F	
InChI=1S/C5H3F2NO/c6-3-1-9-2-4(7)5(3)8/h1-2,8H	InChI=1S/C5H4F2NO/c6-3-1-9-2-4(7)5(3)8/h1,8H,2H2
