14
gdb 132368	1.98792	1.82633	0.95748	1.944	67.11	-0.265	-0.0262	0.2388	1129.0894	0.101099	-478.056667	-478.048991	-478.048047	-478.090247	28.031	
C	 0.0062700404	 1.4557166341	 0.0466220457	-0.457711
C	 0.0163718077	-0.0453484081	 0.016869403	 0.352256
N	 0.0119580797	-0.6310636601	-1.1875378948	-0.344752
C	 0.0419275036	-1.9485212639	-1.1812435521	 0.356829
F	 0.0359761503	-2.5371299357	-2.367499995	-0.05982
C	 0.0746878581	-2.7410751646	-0.0478709909	-0.38773
C	 0.0748152614	-2.0197687527	 1.1435506773	 0.457968
O	 0.102327633	-2.6764884434	 2.3103417493	-0.405406
N	 0.0452464627	-0.6874173218	 1.1885600164	-0.379913
H	 1.0152910853	 1.8361803756	-0.1513317381	 0.147586
H	-0.6458655632	 1.8459239557	-0.7374591447	 0.146413
H	-0.3113960601	 1.8177803847	 1.0248618614	 0.13707
H	 0.0946315185	-3.8204455863	-0.0817181217	 0.132284
H	 0.0959073527	-1.9986580536	 3.0019843842	 0.304926
21.2576	190.593	201.8295	241.8549	300.8893	353.4375	520.059	556.6816	560.9654	581.3733	619.3534	634.9873	718.5554	789.2837	859.1072	978.4548	998.7289	1033.3063	1063.4736	1084.7931	1172.8619	1240.3084	1318.1731	1390.5837	1442.928	1451.2094	1477.7181	1480.5701	1495.4106	1631.8324	1649.6115	3045.5963	3113.9423	3159.1556	3242.6175	3755.9055
CC1=NC(F)=CC(O)=N1	Cc1nc(F)cc(O)n1	
InChI=1S/C5H5FN2O/c1-3-7-4(6)2-5(9)8-3/h2H,1H3,(H,7,8,9)	InChI=1S/C5H5FN2O/c1-3-7-4(6)2-5(9)8-3/h2H,1H3,(H,7,8,9)
