19
gdb 62392	2.50006	1.84983	1.38415	3.9025	78.53	-0.2468	0.0126	0.2594	993.2221	0.161589	-382.050184	-382.04243	-382.041486	-382.082014	30.91	
C	-0.1427431813	 1.5259009964	 0.0595766524	-0.464307
C	-0.0095460468	 0.0013767695	-0.0170496275	 0.194626
C	-1.3126593747	-0.5724275146	 0.3332414324	 0.249761
N	-2.3551723625	-1.0020540273	 0.5889738886	-0.353832
C	 0.7328917129	-0.6163294064	-1.2539319545	-0.055411
C	 2.0050345732	-0.250581251	-0.4551714175	-0.193136
N	 1.1818759012	-0.5492982512	 0.7889338547	-0.148236
C	 0.9943530455	-2.0220749561	 0.5864550337	-0.17898
C	 0.6462430499	-2.1215634073	-0.9436956918	-0.248676
H	 0.7632183567	 2.0397829424	-0.2607384938	 0.129687
H	-0.9667446323	 1.8581630854	-0.5778662756	 0.13971
H	-0.3619893161	 1.8244464673	 1.0877155108	 0.150392
H	 0.5336304981	-0.2825286866	-2.2732553453	 0.076783
H	 2.8800700501	-0.893745502	-0.5732249613	 0.108969
H	 2.3125563302	 0.7921909797	-0.4897658756	 0.115373
H	 1.9217915942	-2.5323157255	 0.8531159645	 0.110435
H	 0.1972596948	-2.3901543035	 1.233498169	 0.13553
H	-0.3448766662	-2.5411228851	-1.1279774569	 0.127938
H	 1.3780347031	-2.6972405641	-1.5157973863	 0.103375
150.029	166.4905	169.2227	273.3933	320.3019	365.3337	458.5423	507.3201	536.9207	571.1691	632.7931	732.8307	814.7101	839.2756	842.6995	854.2774	903.2746	916.3152	954.0753	970.2852	996.8077	1032.3102	1067.5563	1099.7467	1129.6152	1170.4544	1195.721	1219.7946	1242.1012	1250.1654	1263.8522	1265.7575	1303.3202	1326.8288	1415.2698	1485.6793	1489.804	1499.7395	1512.366	1540.4483	2347.1048	3058.9105	3068.9712	3080.973	3085.7078	3109.1751	3116.0043	3127.0024	3138.356	3147.0522	3163.7242
CC1(C#N)C2CN1CC2	C[C@@]1(C#N)[C@H]2CN1CC2	
InChI=1S/C7H10N2/c1-7(5-8)6-2-3-9(7)4-6/h6H,2-4H2,1H3	InChI=1S/C7H10N2/c1-7(5-8)6-2-3-9(7)4-6/h6H,2-4H2,1H3/t6-,7-/m1/s1
