20
gdb 107101	4.17151	0.92968	0.84603	4.3253	82.04	-0.2319	0.0255	0.2573	1417.2653	0.170524	-403.141178	-403.132178	-403.131234	-403.175384	33.286	
C	-0.0116902309	 1.5563068441	 0.302876787	-0.374465
C	 0.0122529407	 0.0495891575	 0.0095222821	-0.296038
C	-1.3640297242	-0.5320677927	-0.1518981257	 0.338517
C	-2.2194302504	-1.014955662	 0.9981829289	-0.335735
C	-1.8451317365	-1.9791119044	-0.0982793221	-0.098736
N	-2.6700431224	-1.7481792338	-1.2756277609	-0.038102
C	-2.2501416467	-0.3407007344	-1.4028517453	-0.235799
C	-3.8559622864	-2.3017720556	-1.6374479128	 0.131574
O	-4.6450743544	-1.7992202526	-2.4097819121	-0.326625
H	 1.0028106315	 1.95112525	 0.4109473624	 0.116572
H	-0.4999314988	 2.1101707539	-0.5060386453	 0.12282
H	-0.5587800584	 1.767362994	 1.2272359282	 0.122292
H	 0.5961245221	-0.1383045034	-0.9010467688	 0.104263
H	 0.5314848861	-0.4747058377	 0.821082726	 0.101875
H	-1.6840688404	-1.1510354593	 1.93356269	 0.119419
H	-3.2533340971	-0.6977767893	 1.1077961805	 0.119302
H	-1.2980410138	-2.9036545419	 0.0435894346	 0.111679
H	-3.0724251217	 0.3786565771	-1.3413805574	 0.127416
H	-1.6777899576	-0.1634702003	-2.3193401646	 0.121569
H	-4.0015866804	-3.2988990592	-1.1716934847	 0.068202
66.5437	77.3832	140.6984	198.5798	234.4436	280.134	324.9712	361.82	400.4748	467.2336	564.9488	650.6485	755.7092	787.6963	843.3179	871.079	900.5269	962.9287	977.6446	993.7458	1024.6156	1035.4555	1046.9453	1073.2356	1089.114	1132.1018	1153.3213	1174.8203	1231.5128	1258.295	1276.574	1329.3532	1354.5008	1393.1148	1408.4657	1417.3561	1436.9462	1479.466	1486.5865	1499.5853	1507.9224	1511.9377	1793.2071	2917.4585	3019.3536	3035.9429	3043.0919	3054.6368	3094.9113	3104.8721	3110.6798	3111.092	3182.4535	3202.0246
CCC12CC1N(C2)C=O	CC[C@]12C[C@H]1N(C2)C=O	
InChI=1S/C7H11NO/c1-2-7-3-6(7)8(4-7)5-9/h5-6H,2-4H2,1H3	InChI=1S/C7H11NO/c1-2-7-3-6(7)8(4-7)5-9/h5-6H,2-4H2,1H3/t6-,7-/m1/s1
