23
gdb 103079	2.08802	1.33671	1.12738	1.2015	82.36	-0.2365	0.069	0.3055	1272.3837	0.201821	-425.41552	-425.40425	-425.403306	-425.451024	41.95	
C	 0.2200961395	 1.5834446849	 0.1673292897	-0.401698
C	-0.1632666439	 0.1216930472	-0.1001754765	-0.220193
C	 0.6155989514	-0.4845764769	-1.2541549932	 0.33177
O	 0.4334328717	 0.1954430649	-2.4759190633	-0.470818
C	 1.9787147359	-1.090516391	-1.0251024002	-0.032991
O	 2.4801635923	-1.0675453342	 0.2824562944	-0.422241
C	 0.8010641637	-1.9889178868	-1.4036199713	 0.213985
C	 0.236212008	-2.9253138788	-0.3498262982	-0.464479
C	 0.7941319245	-2.5727158519	-2.8054147805	-0.44297
H	 1.2808079306	 1.667153276	 0.425442802	 0.130053
H	 0.0234760055	 2.2162616542	-0.7049424701	 0.107256
H	-0.3612589443	 1.9920955305	 0.9991166186	 0.113379
H	 0.0088768249	-0.4597217537	 0.8071267309	 0.111357
H	-1.233198838	 0.0561537648	-0.3332632978	 0.097952
H	 0.9158020109	 1.0273457864	-2.4223513718	 0.281338
H	 2.7205397839	-0.9103409408	-1.8051938774	 0.078504
H	 2.9707600928	-1.8831499653	 0.4307916416	 0.28908
H	 0.4571797621	-2.5937255382	 0.6662900174	 0.125549
H	-0.8504919495	-3.0241685005	-0.4489601869	 0.119918
H	 0.6651894412	-3.9273076485	-0.4708776386	 0.108174
H	 1.3982254883	-3.4871311346	-2.841286518	 0.102433
H	-0.2248324557	-2.8369485721	-3.1116529261	 0.11533
H	 1.1826952841	-1.8654480856	-3.5386387947	 0.129312
65.3047	128.3571	159.6571	184.2836	197.2369	228.3849	238.4485	267.076	276.4707	305.6186	312.3751	340.6058	379.6759	416.5221	454.1918	548.6447	581.8906	694.5092	726.1676	790.6505	870.4537	958.5926	973.9141	983.6909	1008.5182	1035.4768	1050.3659	1091.3906	1129.5779	1161.8672	1187.884	1201.0222	1275.1499	1288.9069	1305.2307	1317.2287	1338.8688	1376.3519	1401.8371	1407.1282	1420.3098	1462.8308	1470.1366	1486.714	1491.7584	1501.1031	1509.6219	1511.6956	1514.8334	3024.1882	3028.7265	3033.2931	3035.7715	3078.3167	3081.38	3083.4561	3093.6209	3109.0413	3118.3789	3130.4603	3143.053	3797.1536	3803.8281
CCC1(O)C(O)C1(C)C	CC[C@@]1(O)[C@@H](O)C1(C)C	
InChI=1S/C7H14O2/c1-4-7(9)5(8)6(7,2)3/h5,8-9H,4H2,1-3H3	InChI=1S/C7H14O2/c1-4-7(9)5(8)6(7,2)3/h5,8-9H,4H2,1-3H3/t5-,7+/m0/s1
