17
gdb 69097	2.58288	1.61799	1.17812	4.3821	73.24	-0.2377	0.0033	0.241	1059.8365	0.136073	-418.004968	-417.996698	-417.995754	-418.037546	31.211	
C	-0.0132186405	 1.519374893	-0.0484295963	-0.486467
C	-0.0573431997	 0.023424088	 0.0655154961	 0.332458
C	-1.3007763363	-0.7576033949	-0.3319759407	-0.225229
N	-1.0434525617	-2.1142673691	 0.1584466736	-0.314486
C	-0.1989640094	-2.0417361818	 1.3535492656	-0.245733
C	 0.6193054223	-0.7850157978	 1.1076864858	 0.24357
O	 1.1570298493	-0.6874027576	-0.2161099183	-0.302559
C	 1.403924603	-0.2167438618	 2.1743781265	 0.224828
N	 2.0179372473	 0.2302576147	 3.0459514918	-0.340443
H	 0.9105575379	 1.9116640048	 0.3818337265	 0.153512
H	-0.057635132	 1.8187024659	-1.1006634758	 0.139682
H	-0.8642700575	 1.9725655207	 0.4690278653	 0.133396
H	-2.1706568153	-0.2586092162	 0.1295579844	 0.095896
H	-1.4549223136	-0.7639401438	-1.4176023815	 0.121064
H	-1.890837642	-2.6432701307	 0.3140060331	 0.231938
H	-0.743331412	-1.9094922032	 2.3042526611	 0.107845
H	 0.4264854502	-2.9367386001	 1.4425705129	 0.130727
132.055	149.001	171.8007	213.6161	243.9861	317.8798	390.3338	437.2737	499.1522	548.8611	561.5006	588.4502	653.6171	702.8258	818.5303	907.0449	926.4206	983.6352	999.4725	1047.1669	1067.7978	1112.5522	1133.6549	1187.0863	1212.0032	1233.5308	1238.1948	1312.0795	1373.4147	1418.2621	1446.6489	1449.3758	1483.8547	1495.1586	1502.9283	1516.6366	2358.8899	2953.1702	2961.7137	3044.3505	3048.8226	3061.2201	3109.3256	3136.5607	3579.1374
CC12CNCC1(O2)C#N	C[C@]12CNC[C@]1(O2)C#N	
InChI=1S/C6H8N2O/c1-5-3-8-4-6(5,2-7)9-5/h8H,3-4H2,1H3	InChI=1S/C6H8N2O/c1-5-3-8-4-6(5,2-7)9-5/h8H,3-4H2,1H3/t5-,6+/m0/s1
