18
gdb 38560	3.5807	2.06294	1.73806	1.5634	78.67	-0.2145	0.0033	0.2178	832.0769	0.151077	-364.722562	-364.716845	-364.715901	-364.752054	26.006	
C	-0.0187042452	 1.5897301522	 0.1013330932	-0.352116
C	 1.5333889151	 1.3431477226	-0.0392272894	-0.087328
C	 1.838998171	 0.6008096758	 1.2653745468	-0.164974
N	 0.9028372609	-0.5405935195	 1.0935680445	-0.153775
C	 1.4046376383	-1.2709776639	-0.1501796276	-0.093947
C	 0.1270749317	-2.0533240028	-0.523946306	-0.075814
C	-0.8609112511	-1.1577044375	-0.3908855857	-0.203617
C	-0.0703815094	 0.0685317509	-0.003550473	 0.330635
C	 1.1975076656	 0.0714785754	-0.9043346442	-0.027568
H	-0.3857347086	 2.0871334377	 1.0038979645	 0.103788
H	-0.4405634615	 2.0619908018	-0.7898206256	 0.109966
H	 2.2007749555	 2.1316039656	-0.3850723413	 0.06645
H	 2.8726498564	 0.2506996218	 1.3469467188	 0.100099
H	 1.5888432877	 1.1672322788	 2.1676147792	 0.098244
H	 2.3435894957	-1.8249240984	-0.0729216875	 0.059952
H	 0.0786378901	-3.1033405599	-0.7729314908	 0.106577
H	-1.9285511199	-1.2671914716	-0.505726469	 0.113166
H	 1.1258177375	 0.1585675113	-1.9894433169	 0.070264
352.9113	385.4903	431.7325	447.6054	530.0323	633.6508	645.4178	683.3672	706.5661	763.1785	822.005	835.6278	874.4201	883.1654	902.7365	911.247	919.7804	946.0663	979.1882	985.4632	1017.8085	1033.7263	1059.1158	1094.7009	1113.4009	1139.4294	1186.3109	1194.3582	1205.0226	1223.3524	1226.8722	1256.5075	1278.4868	1285.8802	1318.5708	1349.0261	1482.5454	1510.8172	1595.185	3046.4387	3053.0827	3081.0375	3092.525	3104.4177	3114.802	3122.9559	3231.2825	3257.7741
C1C2CN3C4C=CC13C24	C1[C@H]2CN3[C@H]4C=C[C@@]13[C@@H]24	
InChI=1S/C8H9N/c1-2-8-3-5-4-9(8)6(1)7(5)8/h1-2,5-7H,3-4H2	InChI=1S/C8H9N/c1-2-8-3-5-4-9(8)6(1)7(5)8/h1-2,5-7H,3-4H2/t5-,6-,7-,8-/m0/s1
