21
gdb 85950	2.43391	1.44813	1.08489	4.048	78.55	-0.2432	-0.0272	0.2159	1194.1739	0.180548	-424.241179	-424.231633	-424.230689	-424.275889	36.465	
C	-0.6328519743	 1.436611345	 0.0791529916	-0.490938
C	 0.0170235532	 0.0699205879	 0.0212290783	 0.357394
O	 0.5352362514	-0.39637155	 1.0203360401	-0.328735
C	 0.0549332042	-0.690615741	-1.3044843412	 0.211661
C	-0.8593132046	-0.1310420892	-2.3905303453	-0.486873
C	 1.5620370047	-0.9081655687	-1.7251894561	-0.279489
C	 1.5144040128	-2.3593142966	-1.1567470404	 0.155479
O	 2.1701696096	-2.5511263972	 0.0663078819	-0.44119
C	-0.0347759557	-2.2388368847	-1.0695556776	-0.283659
H	-0.1555940289	 2.117310103	-0.6347108026	 0.146125
H	-1.6898487658	 1.3797387374	-0.2003850839	 0.145474
H	-0.53771146	 1.8378034163	 1.0883390093	 0.144369
H	-0.6153180589	 0.9047659626	-2.6479221868	 0.118329
H	-0.7572161694	-0.7258623578	-3.303428224	 0.119971
H	-1.9140031746	-0.1658006465	-2.0949778072	 0.119961
H	 1.6747529862	-0.8704975855	-2.8123358555	 0.098956
H	 2.3064109192	-0.2546531637	-1.2643199221	 0.109835
H	 1.8900449856	-3.1327835707	-1.8313265908	 0.080895
H	 1.7725505031	-1.9238115978	 0.6909494709	 0.293027
H	-0.4682699434	-2.563485981	-0.121488623	 0.112746
H	-0.5539728045	-2.7343902617	-1.8944007855	 0.096662
23.9854	146.4925	176.5809	209.4792	259.2773	267.1376	311.1471	322.0495	370.2492	424.146	442.6946	556.4889	593.2478	622.0002	634.1697	761.513	786.8398	829.1709	879.9789	904.9482	962.5199	967.0395	978.1455	1035.6986	1043.4788	1096.6119	1137.3323	1155.3033	1168.7075	1222.3239	1228.6827	1263.2848	1266.4983	1314.7817	1353.4162	1382.1038	1415.6713	1454.0202	1456.4947	1468.3145	1473.3555	1484.0235	1500.0911	1502.1727	1763.6778	3027.9683	3041.1173	3053.6288	3058.7608	3077.8809	3093.0701	3100.7582	3103.4398	3117.9734	3124.6638	3155.6562	3681.3626
CC(=O)C1(C)CC(O)C1	CC(=O)[C@@]1(C)C[C@@H](O)C1	
InChI=1S/C7H12O2/c1-5(8)7(2)3-6(9)4-7/h6,9H,3-4H2,1-2H3	InChI=1S/C7H12O2/c1-5(8)7(2)3-6(9)4-7/h6,9H,3-4H2,1-2H3/t6-,7+
