19
gdb 90805	3.18623	1.81272	1.4573	0.2191	77.28	-0.213	0.0567	0.2697	950.0148	0.16126	-381.979729	-381.97273	-381.971786	-382.011147	28.844	
C	 0.1436191737	 1.5962770116	 0.0269939675	-0.39306
C	-0.0546008581	 0.0841162601	-0.0332377444	 0.063873
C	 0.3856708406	-0.5112882895	-1.3848314126	-0.176277
N	 1.138603807	-1.762070821	-1.276038603	-0.093916
C	 2.2335333214	-1.8712174964	-0.3433827606	-0.076613
C	 0.9929829185	-2.6846633277	-0.1646892257	-0.081903
C	 0.7279017546	-1.9764696422	 1.2164936315	-0.082271
C	 1.9516817735	-1.1402869633	 1.0234309072	-0.087306
N	 0.63029528	-0.5419645321	 1.106686666	-0.092525
H	 1.2047168401	 1.8490324506	-0.0774541283	 0.117165
H	-0.4007484476	 2.0898036933	-0.7854005958	 0.112342
H	-0.2109170943	 1.9961903467	 0.9807642411	 0.122052
H	-1.1166914489	-0.1345503309	 0.1294521781	 0.080923
H	-0.4799537976	-0.6955053727	-2.0296123583	 0.107221
H	 1.0370004992	 0.1890119088	-1.9207648363	 0.103559
H	 3.2197159969	-2.1546179023	-0.6939171873	 0.092633
H	 0.8046642788	-3.732858791	-0.3655648173	 0.096064
H	 0.3507549101	-2.4803864567	 2.0994823647	 0.092445
H	 2.7161497019	-0.8434102254	 1.7317545136	 0.095595
64.8069	234.5715	274.9846	342.3332	427.5429	510.8891	533.8557	570.3012	686.2951	706.0824	744.3296	782.8665	821.1185	869.1483	885.4573	905.091	928.1948	950.0998	955.9185	970.6891	995.6066	1044.6021	1051.4042	1076.1468	1087.6494	1163.3474	1165.0068	1220.011	1234.1562	1238.6089	1258.5444	1293.3585	1320.2393	1350.8434	1369.4333	1381.2883	1404.1377	1410.9451	1487.1339	1494.3163	1499.5039	3025.167	3029.2919	3033.422	3073.0957	3098.9606	3117.4176	3163.2565	3169.7356	3178.1058	3185.7946
CC1CN2C3C2C2C3N12	C[C@H]1CN2[C@@H]3[C@H]2[C@H]2[C@@H]3N12	
InChI=1S/C7H10N2/c1-3-2-8-4-5(8)7-6(4)9(3)7/h3-7H,2H2,1H3	InChI=1S/C7H10N2/c1-3-2-8-4-5(8)7-6(4)9(3)7/h3-7H,2H2,1H3/t3-,4-,5+,6-,7+,8?,9?/m0/s1
