23
gdb 119227	1.94116	1.15838	0.86032	3.0017	87.95	-0.2453	-0.0131	0.2322	1489.6033	0.203501	-388.305614	-388.295033	-388.294089	-388.341461	38.532	
C	-0.1743214286	 1.6227042768	-0.056497732	-0.381387
C	-0.2675722201	 0.1035656627	-0.2192668386	-0.164877
C	 0.9144542008	-0.4773368329	-1.0105388138	-0.276071
C	 0.846262159	-1.9844636659	-1.1810842632	 0.246285
C	-0.1540856875	-2.6182829907	-2.1481426228	-0.330842
C	 1.2992458092	-2.6954678563	-2.4692704972	-0.049858
C	 1.9141942239	-1.9466848298	-3.6306933392	-0.414369
C	 1.1223381059	-2.7834855593	 0.0395138561	 0.124441
O	 1.4437439053	-2.331392291	 1.1120408666	-0.277822
H	 0.7375388511	 1.9068069416	 0.4801734208	 0.118489
H	-0.1562240324	 2.1286511751	-1.0288667925	 0.107578
H	-1.0266644401	 2.0155997353	 0.5064606006	 0.111111
H	-0.3019149038	-0.3717484692	 0.7660566583	 0.121867
H	-1.205455616	-0.1564495985	-0.7270295522	 0.088387
H	 0.9636569788	 0.0091772962	-1.9903050716	 0.089383
H	 1.847249423	-0.2315504908	-0.4893738128	 0.112864
H	-0.6798077713	-3.5149529174	-1.8351952874	 0.119065
H	-0.7627435256	-1.9189409033	-2.712622884	 0.1234
H	 1.7585879472	-3.6660126462	-2.2920171625	 0.093326
H	 1.3828970993	-1.0176157763	-3.851496783	 0.124617
H	 2.9630982978	-1.6985768208	-3.4376409621	 0.127355
H	 1.8783639988	-2.5656436522	-4.5337155037	 0.124842
H	 1.0218603854	-3.8862649471	-0.1076939237	 0.062217
75.6488	82.1938	106.0941	130.0368	201.816	217.1626	239.1528	258.0836	287.821	327.0003	401.6424	429.118	496.6951	556.4308	732.149	751.9471	814.6555	869.6366	875.1845	897.3328	921.5789	943.0925	1020.3585	1034.7299	1050.6871	1056.6002	1075.4958	1122.2443	1133.9625	1151.0735	1197.7392	1244.5648	1291.6431	1311.8511	1336.6746	1346.7092	1392.3263	1408.0129	1411.2413	1426.8463	1443.0306	1470.9538	1489.4677	1492.4104	1494.8191	1499.2019	1503.32	1508.9019	1809.8892	2836.0544	3023.3208	3027.0964	3035.2692	3040.3911	3068.5888	3081.7935	3096.1851	3101.6693	3102.1148	3111.259	3124.8754	3129.1952	3209.6906
CCCC1(CC1C)C=O	CCC[C@]1(C[C@H]1C)C=O	
InChI=1S/C8H14O/c1-3-4-8(6-9)5-7(8)2/h6-7H,3-5H2,1-2H3	InChI=1S/C8H14O/c1-3-4-8(6-9)5-7(8)2/h6-7H,3-5H2,1-2H3/t7-,8+/m1/s1
