19
gdb 80068	2.84603	1.86097	1.65401	1.6502	78.29	-0.2337	0.0075	0.2412	906.7242	0.162574	-385.86022	-385.853659	-385.852714	-385.890618	28.61	
O	 0.1522018711	 1.4221053318	-0.1620333541	-0.442339
C	-0.0017957473	 0.0430094219	-0.005658454	 0.176277
C	 0.2284940019	-0.6548740402	 1.3964430538	-0.143889
C	-0.3821641393	 0.2636926612	 2.4178139375	-0.080583
C	-1.6820815735	 0.5221128222	 2.2342630396	-0.094686
C	-2.3513952219	-0.3204425745	 1.1774059115	-0.082895
C	-2.147331842	-1.808709187	 1.6354415281	-0.225026
C	-0.8057957685	-1.7614671735	 0.9007483872	-0.024538
C	-1.3686215637	-0.6405728513	-0.0384839546	-0.090772
H	-0.3479588964	 1.8384452932	 0.5515221795	 0.275413
H	 0.6465931898	-0.4297695333	-0.7500957825	 0.089818
H	 1.2389949738	-0.9835782973	 1.6383688026	 0.063503
H	 0.2256921593	 0.7341923026	 3.1830524567	 0.095601
H	-2.2612328197	 1.1954922052	 2.8577198204	 0.093166
H	-3.3608075467	 0.0028366239	 0.9242621742	 0.066527
H	-2.1816097392	-2.0119238458	 2.7093536813	 0.093738
H	-2.8303219883	-2.4808580092	 1.1066039765	 0.099574
H	-0.3362142867	-2.6742825955	 0.5333867478	 0.066578
H	-1.8750541327	-0.8369048142	-0.9846031813	 0.064534
190.2455	262.238	375.7338	399.0136	448.9466	509.2998	549.0211	597.2875	657.8863	718.5187	741.7743	777.9375	797.1158	808.0592	856.1323	895.603	947.3868	966.5756	973.3739	997.4648	1019.7355	1050.5621	1067.6054	1077.7005	1095.5094	1109.3696	1138.9607	1161.4381	1184.5042	1214.4332	1232.1251	1255.6788	1274.0399	1291.0982	1302.1696	1323.4766	1347.2524	1391.2944	1443.0927	1483.0086	1666.9447	3044.1958	3065.8158	3094.4422	3101.0806	3102.2684	3110.0096	3114.8904	3171.1264	3195.1951	3762.9329
OC1C2C=CC3CC2C13	O[C@H]1[C@H]2C=C[C@@H]3C[C@H]2[C@H]13	
InChI=1S/C8H10O/c9-8-5-2-1-4-3-6(5)7(4)8/h1-2,4-9H,3H2	InChI=1S/C8H10O/c9-8-5-2-1-4-3-6(5)7(4)8/h1-2,4-9H,3H2/t4-,5+,6-,7-,8+/m1/s1
