21
gdb 117711	3.52778	0.78922	0.758	3.986	77.22	-0.2691	0.011	0.2801	1592.4282	0.178233	-461.380451	-461.369445	-461.368501	-461.416788	38.498	
C	 0.0400960476	 1.3971163797	-0.092137152	-0.227826
O	 0.0141002387	-0.0102196782	-0.0188310369	-0.239502
C	 0.6396750518	-0.6310198623	-1.1164653455	-0.075359
C	 0.5534128654	-2.1548614244	-0.9343330396	 0.311443
C	 1.3107732052	-2.5837540405	 0.3245521399	-0.419919
C	-0.9085510619	-2.6075715611	-0.9263869447	-0.419957
O	 1.2362232449	-2.6251212981	-2.1366605081	-0.232951
C	 1.3758803154	-3.9404490063	-2.3598850122	 0.165125
O	 1.9282345542	-4.3688047672	-3.3314628826	-0.282519
H	 1.0706007744	 1.7835893677	-0.1115717529	 0.111104
H	-0.4830573239	 1.7666778121	-0.9873550728	 0.111103
H	-0.465622106	 1.7788328701	 0.7976501949	 0.131116
H	 0.1503536566	-0.3520676425	-2.0631191685	 0.100301
H	 1.698228509	-0.3353950452	-1.1904204449	 0.100305
H	 0.9110269527	-2.0400476792	 1.1833873017	 0.146821
H	 1.2111641008	-3.6549510303	 0.5189055512	 0.117764
H	 2.3736650679	-2.3445494162	 0.2267861645	 0.129698
H	-1.3788881235	-2.3852306836	-1.888606066	 0.129697
H	-1.0058953879	-3.678641494	-0.7302090282	 0.117768
H	-1.4452177752	-2.0649418371	-0.145002352	 0.146836
H	 0.9391765438	-4.5800591032	-1.5735667055	 0.078952
70.159	95.558	115.9482	121.1913	142.1176	219.7629	244.6675	246.6805	253.4214	329.3165	348.7283	352.4796	378.7285	458.0807	515.7122	658.8074	795.4825	921.312	935.994	968.9695	995.9939	1017.0309	1046.6927	1054.0016	1158.9843	1177.8118	1181.6566	1187.294	1214.2812	1234.7826	1292.6521	1299.7371	1398.5459	1398.8758	1422.2954	1439.1912	1480.931	1482.5908	1485.1162	1488.5719	1496.4819	1504.6213	1510.529	1528.1681	1852.8748	2969.6406	2981.6553	2988.9054	3009.2822	3025.9202	3047.6517	3052.0835	3119.7827	3120.2236	3123.0262	3135.1039	3139.0168
COCC(C)(C)OC=O	COCC(C)(C)OC=O	
InChI=1S/C6H12O3/c1-6(2,4-8-3)9-5-7/h5H,4H2,1-3H3	InChI=1S/C6H12O3/c1-6(2,4-8-3)9-5-7/h5H,4H2,1-3H3
