20
gdb 79634	2.13497	1.93549	1.58276	3.4722	76.94	-0.2181	0.06	0.2781	978.6976	0.173394	-403.113911	-403.106367	-403.105423	-403.145464	31.168	
C	-0.0165175102	 1.6003031484	-0.0042933288	-0.394424
C	 0.0341238451	 0.0663680949	 0.0256102413	-0.005491
C	 0.6648534839	-0.5840858224	-1.2100449654	-0.050729
N	 2.0971795526	-0.2876279521	-1.4268548476	-0.363174
C	 1.6866582266	-1.570059936	-0.7786767764	-0.040436
C	 1.7771953996	-1.5821150416	 0.7303877094	-0.12607
C	 2.2561883115	-0.3345199783	 1.4528788288	 0.121523
O	 3.042322951	 0.655917552	 0.885359001	-0.429987
C	 0.773216077	-0.5336159175	 1.2361220386	-0.127674
H	 0.9912604868	 2.0189302743	-0.0141608864	 0.142848
H	-0.5580935008	 1.9612884409	-0.8854179687	 0.102172
H	-0.5298098997	 1.9839518626	 0.8828779159	 0.113674
H	-0.9958060487	-0.3132315104	 0.0636298199	 0.077856
H	 0.0518672717	-0.7303031136	-2.0942801069	 0.089401
H	 2.3464381422	-0.4477906514	-2.3984071968	 0.237336
H	 1.8729528905	-2.4880482781	-1.3244451203	 0.092994
H	 1.8954055934	-2.5521436163	 1.2006629407	 0.080474
H	 2.5656027369	-0.5080722106	 2.4812921349	 0.095864
H	 2.9218717834	 0.5702374047	-0.0822305276	 0.30495
H	 0.1703131073	-0.7225097798	 2.1196683645	 0.078891
146.0069	187.5122	214.1147	292.8145	308.1005	395.5649	496.5679	555.137	640.7293	687.4444	704.56	728.3213	743.8461	761.509	813.6893	826.7199	871.4588	906.3909	929.3979	981.3877	1020.4332	1032.8053	1051.5244	1059.3631	1079.6795	1114.1562	1123.2777	1127.8326	1142.0083	1170.7829	1235.9188	1251.83	1312.9835	1321.45	1337.169	1364.6455	1369.5013	1386.3079	1409.9152	1434.71	1495.1568	1503.3716	1520.3538	3012.8592	3038.8905	3098.9648	3126.7057	3142.2899	3143.89	3153.8732	3162.7464	3180.677	3479.392	3514.593
CC1C2NC2C2C(O)C12	C[C@H]1[C@H]2N[C@H]2[C@H]2[C@@H](O)[C@@H]12	
InChI=1S/C7H11NO/c1-2-3-4(7(3)9)6-5(2)8-6/h2-9H,1H3	InChI=1S/C7H11NO/c1-2-3-4(7(3)9)6-5(2)8-6/h2-9H,1H3/t2-,3+,4+,5-,6+,7+/m1/s1
