19
gdb 94754	3.93765	1.14256	1.027	1.0583	83.09	-0.2424	0.0452	0.2875	1213.9147	0.158732	-385.857791	-385.849287	-385.848343	-385.890486	33.264	
C	 0.0389965241	 1.5568666446	-0.0587359268	-0.400521
C	 0.0547923061	 0.0404451079	 0.0480525011	 0.126411
O	 0.7708765794	-0.4864674843	-1.0736227824	-0.272627
C	 1.205833256	-1.7981191125	-0.7521266251	-0.157576
C	 1.50089402	-1.7776427334	 0.7505376134	 0.177197
C	 2.264477063	-0.5505786831	 1.2215815262	-0.327839
C	 0.7638297336	-0.5454296949	 1.2617405476	-0.110861
C	 1.567565057	-3.0139697441	 1.464002177	 0.159071
C	 1.6239664132	-4.0705211328	 2.0373538474	-0.389171
H	 1.0540087544	 1.9598479857	-0.0032663787	 0.123485
H	-0.4042849649	 1.8638315149	-1.0100521618	 0.128246
H	-0.5535840091	 1.9894705339	 0.7530662277	 0.116389
H	-0.9818059197	-0.3385044368	 0.0381882078	 0.071041
H	 0.4272116596	-2.5483477872	-0.958989731	 0.101292
H	 2.0805811374	-2.0200131514	-1.3710094787	 0.114502
H	 2.7884500804	-0.6408407255	 2.1652628459	 0.124954
H	 2.7679911488	 0.0418429873	 0.4643821321	 0.127921
H	 0.2486374565	-0.5688498643	 2.2140947173	 0.102598
H	 1.6761591942	-4.9985885238	 2.5501696612	 0.185489
112.7143	138.8252	186.3675	221.7497	265.5454	323.8413	374.3469	450.2946	513.6323	544.8791	556.9322	582.7752	648.811	649.6192	729.2244	812.8475	865.9062	887.0788	935.8312	973.9481	1001.7498	1039.7759	1061.2993	1074.4986	1089.9144	1117.0246	1127.6754	1156.9365	1233.3816	1246.4372	1268.2143	1345.4504	1349.5521	1384.4638	1408.6868	1413.0183	1475.1974	1486.133	1496.5328	1515.9192	2235.9253	2952.0187	2988.9145	3044.6119	3079.6305	3118.0162	3123.7154	3136.3808	3193.699	3231.847	3503.6578
CC1OCC2(CC12)C#C	C[C@H]1OC[C@]2(C[C@@H]12)C#C	
InChI=1S/C8H10O/c1-3-8-4-7(8)6(2)9-5-8/h1,6-7H,4-5H2,2H3	InChI=1S/C8H10O/c1-3-8-4-7(8)6(2)9-5-8/h1,6-7H,4-5H2,2H3/t6-,7+,8-/m1/s1
