22
gdb 114741	2.90896	1.24354	1.00258	2.2475	81.2	-0.2243	0.0624	0.2867	1270.8886	0.195194	-404.326804	-404.317839	-404.316895	-404.360495	34.664	
C	-0.0558195579	 1.5814219132	 0.0332764347	-0.387723
C	-0.0264982084	 0.0489677553	 0.0130024455	-0.21712
C	 0.7447192229	-0.5382125801	-1.1712368006	 0.036103
C	 2.2567245302	-0.2269250081	-1.2116851948	-0.187076
N	 2.8624766456	-1.2417307211	-2.1074227789	-0.102154
C	 3.2319541487	-2.487815166	-1.4256310349	-0.232702
C	 1.9296839257	-2.3972216317	-2.1263417814	-0.033806
C	 0.6951586881	-2.0868073901	-1.288407835	 0.055203
O	 0.7901426576	-2.7540444745	-0.0319915818	-0.429159
H	 0.9513116149	 2.0005541696	 0.1240105508	 0.12478
H	-0.499407544	 1.9810171346	-0.8853054948	 0.117053
H	-0.6453842399	 1.9529689477	 0.8770355155	 0.113559
H	 0.4175349597	-0.3205529718	 0.9452046065	 0.103574
H	-1.0603849471	-0.3252705738	-0.0117834987	 0.086494
H	 0.3086246001	-0.1502039448	-2.1024982023	 0.076515
H	 2.4630348763	 0.7672171136	-1.6171236884	 0.105739
H	 2.6948076902	-0.2708378363	-0.2054352278	 0.099431
H	 4.0522345617	-3.0353063738	-1.8823869884	 0.108485
H	 3.2098383576	-2.5125971562	-0.3399729023	 0.127549
H	 1.7864241699	-2.8817356162	-3.0875811667	 0.087148
H	-0.2159409501	-2.4101379461	-1.8106255948	 0.064248
H	-0.0134960918	-2.5657641935	 0.4633350687	 0.28386
73.0168	101.4337	171.8261	217.5606	250.6873	297.7962	330.3788	366.1665	414.6947	476.8484	541.6428	643.4653	721.3692	774.5811	784.8218	815.1883	855.49	902.7527	951.4839	963.5211	981.5701	1017.5793	1021.6684	1051.8728	1093.3416	1113.0713	1119.9262	1146.6011	1158.7357	1183.7205	1219.1848	1225.3546	1275.2676	1286.4263	1308.8159	1317.3108	1331.345	1373.4905	1378.7759	1395.4498	1414.9758	1426.3558	1493.4593	1496.7451	1500.0923	1508.4	1518.7274	2996.1667	3000.0648	3011.7626	3017.4982	3033.3972	3053.0504	3082.4195	3100.9787	3105.8357	3107.738	3147.0528	3196.836	3814.5965
CCC1CN2CC2C1O	CC[C@H]1CN2C[C@H]2[C@H]1O	
InChI=1S/C7H13NO/c1-2-5-3-8-4-6(8)7(5)9/h5-7,9H,2-4H2,1H3	InChI=1S/C7H13NO/c1-2-5-3-8-4-6(8)7(5)9/h5-7,9H,2-4H2,1H3/t5-,6-,7-,8?/m0/s1
