15
gdb 29050	2.76043	1.68949	1.04805	1.2711	86.48	-0.2127	-0.0717	0.141	1065.3612	0.1148	-416.854851	-416.847388	-416.846444	-416.88675	28.664	
N	-0.0030017568	 1.3516120698	 0.0094171893	-0.523048
C	-0.0385730015	 0.0075268883	 0.0018810978	 0.225057
C	-1.2566794884	-0.6696201325	 0.0050168922	-0.07473
N	-1.5736914223	-1.9679441394	 0.0001628336	-0.248026
C	-0.7517514734	-2.9887195965	-0.009299752	-0.01741
C	 0.6638422237	-3.0156986539	-0.0171064461	-0.074536
C	 1.5597676805	-1.9829116668	-0.0171034373	-0.169325
C	 1.3406605318	-0.5600273971	-0.0091775929	 0.315268
O	 2.2828206865	 0.239723123	-0.0111582877	-0.408428
H	 0.9235630504	 1.7590408601	 0.0036618425	 0.283543
H	-0.832934818	 1.9165725122	 0.0135457661	 0.267765
H	-2.1327040843	-0.0164950941	 0.0131620945	 0.090497
H	-1.2411334625	-3.9625369669	-0.0115197947	 0.106765
H	 1.0930253204	-4.0157424606	-0.0243059721	 0.107306
H	 2.6179638839	-2.2303201255	-0.0242652633	 0.119303
102.8059	152.949	252.8738	352.5797	373.6649	373.7809	413.2478	457.9149	522.6424	636.1733	659.7488	683.5469	744.1769	756.2486	844.4434	875.2819	913.8606	956.749	998.7027	1027.0782	1027.534	1167.0865	1277.8176	1279.5508	1369.6274	1435.2931	1463.7652	1473.6197	1498.5688	1568.2868	1603.5536	1634.6318	1689.0463	3086.9172	3121.712	3150.3886	3176.2701	3542.4016	3726.8421
NC1=CN=CC=CC1=O	Nc1cncccc1=O	
InChI=1S/C6H6N2O/c7-5-4-8-3-1-2-6(5)9/h1-4H,(H2,7,9)	InChI=1S/C6H6N2O/c7-5-4-8-3-1-2-6(5)9/h1-4H,(H2,7,9)
