19
gdb 32817	3.14714	1.01774	0.80424	1.357	80.19	-0.2122	0.0233	0.2356	1444.5892	0.158123	-423.04859	-423.039163	-423.038219	-423.084053	33.246	
C	 0.3288172543	 1.4070261283	-0.0660363197	-0.218691
O	 0.5271467972	 0.0144283114	-0.06690068	-0.230622
C	 0.2261509576	-0.5771526516	 1.1858151728	-0.19928
C	 0.3829674663	-2.0572633503	 1.0816754194	 0.171576
C	 1.175820975	-2.8742009255	 1.8341581202	 0.264959
C	 2.1267424713	-2.6478240961	 2.9548246361	-0.493666
O	 1.0176755515	-4.1697787514	 1.4346305976	-0.182542
C	 0.119213055	-4.1720748861	 0.4103336448	-0.020569
C	-0.3048986761	-2.9131736728	 0.1512737202	-0.256893
H	 0.9773929457	 1.9145229439	 0.6665559469	 0.100746
H	 0.5743780271	 1.7732084751	-1.0658442087	 0.127065
H	-0.7157502088	 1.6735984872	 0.1641229404	 0.101071
H	 0.8827528783	-0.1687326829	 1.9717137857	 0.086865
H	-0.8083242905	-0.3170829479	 1.4736247649	 0.091848
H	 1.7764715189	-3.1134745822	 3.8835434386	 0.137758
H	 3.1109212845	-3.0719434316	 2.727422861	 0.140781
H	 2.2509552584	-1.5787561782	 3.1388357269	 0.13553
H	-0.0986909048	-5.1369814464	-0.0166152969	 0.130605
H	-1.0041952109	-2.6062879928	-0.6102919101	 0.113461
36.411	85.5274	108.472	130.2183	228.051	231.6721	266.0711	346.552	348.6846	440.6369	619.5962	647.0119	673.0484	743.7693	786.6385	825.9466	913.7163	960.4718	976.3132	1001.8555	1062.1885	1069.503	1140.59	1152.7205	1174.9399	1185.1018	1221.3744	1239.198	1274.1441	1289.1089	1407.5297	1418.9997	1443.1514	1471.8593	1479.1551	1484.9408	1487.9643	1502.1183	1521.169	1555.7254	1670.7882	2938.7435	2963.7902	2977.5221	3004.9011	3030.8727	3081.3231	3113.5692	3131.6846	3257.6996	3284.7152
COCC1=C(C)OC=C1	COCc1c(C)occ1	
InChI=1S/C7H10O2/c1-6-7(5-8-2)3-4-9-6/h3-4H,5H2,1-2H3	InChI=1S/C7H10O2/c1-6-7(5-8-2)3-4-9-6/h3-4H,5H2,1-2H3
