17
gdb 126438	2.60685	1.51511	0.96947	4.7993	78.82	-0.2234	-0.0309	0.1925	1187.0112	0.137415	-418.047425	-418.039209	-418.038265	-418.080727	30.658	
C	-0.0708769543	 1.5513044476	-0.0815872365	-0.383281
C	 0.0291422065	 0.0336653836	 0.0495603889	-0.243072
C	 0.7562995593	-0.4653559735	 1.2661908071	 0.209499
N	 1.2408440241	 0.4007735037	 2.1076584147	-0.254742
N	 1.8869994651	-0.0771786579	 3.1886352618	-0.222038
C	 2.0665996668	-1.3925530772	 3.4591913305	 0.046745
C	 1.5841772403	-2.3429742218	 2.6191974454	-0.245863
C	 0.8713361523	-1.9422493221	 1.4235671302	 0.326354
O	 0.3926621261	-2.7103516949	 0.5946948689	-0.387105
H	 0.9190779373	 2.0139470887	-0.1262320167	 0.12147
H	-0.6141703867	 1.815493696	-0.9933315131	 0.109016
H	-0.5965258134	 1.9915690208	 0.7704100018	 0.121475
H	-0.9656890589	-0.430575294	 0.0519036268	 0.131619
H	 0.5201607094	-0.4086243616	-0.8270695193	 0.131619
H	 2.2397458175	 0.6375354203	 3.8032711814	 0.28004
H	 2.6099021097	-1.6090796144	 4.372709515	 0.138098
H	 1.7224601089	-3.3962421732	 2.8265033431	 0.120164
51.0682	121.5573	190.8337	214.5691	293.179	332.0631	451.062	474.3804	512.7885	548.8857	588.9354	591.3526	728.2337	739.7259	800.004	862.7511	888.4749	962.9063	992.589	1027.8874	1085.4244	1097.662	1118.2488	1164.166	1269.404	1270.3192	1312.549	1393.6235	1413.2458	1420.8547	1453.5089	1493.5754	1500.6428	1527.5794	1625.4696	1642.5093	1727.8063	3032.1385	3045.5225	3049.3635	3116.0001	3116.8022	3190.9062	3222.9265	3654.84
CCC1=NNC=CC1=O	CCc1n[nH]ccc1=O	
InChI=1S/C6H8N2O/c1-2-5-6(9)3-4-7-8-5/h3-4H,2H2,1H3,(H,7,9)	InChI=1S/C6H8N2O/c1-2-5-6(9)3-4-7-8-5/h3-4H,2H2,1H3,(H,7,9)
