19
gdb 59261	2.50895	1.25733	1.12776	2.1419	71.41	-0.2268	0.0601	0.2869	1188.7874	0.157089	-460.104268	-460.095031	-460.094086	-460.138319	34.831	
C	-0.0078455697	 1.5248315702	 0.0235064699	-0.405932
C	 0.0449622385	-0.0027456234	-0.0179443881	 0.111723
O	 0.8728431178	-0.5272603868	 1.0222486739	-0.433197
C	-1.3462364503	-0.6136672766	 0.0045475124	-0.111311
C	-1.9876549418	-1.3017908436	-1.186644622	-0.017436
O	-0.9966782517	-1.9713360597	-1.9714699468	-0.281948
C	-0.6490695239	-2.838181813	-0.8531278976	-0.157558
C	-1.6217799167	-2.0912023562	 0.0570134841	 0.292497
O	-2.3358061265	-2.6294804143	 1.1047535667	-0.449995
H	 1.0027523773	 1.9400418712	-0.0069884951	 0.12331
H	-0.5750965399	 1.9200256821	-0.8257584168	 0.119487
H	-0.493580336	 1.8737799571	 0.943430143	 0.104459
H	 0.540238561	-0.3173415765	-0.9416390263	 0.106567
H	 0.4189022042	-0.3832750169	 1.8599600811	 0.278579
H	-2.0882436624	-0.075631452	 0.5951172069	 0.092686
H	-2.9086926591	-1.0025722354	-1.6729936512	 0.108766
H	-0.9579692587	-3.8699379154	-1.0643986427	 0.097498
H	 0.4136859937	-2.8039123198	-0.5974626892	 0.133018
H	-2.8281361458	-3.3926292411	 0.7803051178	 0.288785
50.9626	129.8858	165.5555	248.1635	262.6687	273.7806	298.6331	332.4617	390.3305	412.6354	464.2659	535.8724	573.5737	640.8587	804.4616	844.8739	886.7132	914.402	930.7926	974.1159	988.7956	1016.2839	1046.5014	1061.3783	1076.0612	1106.5125	1150.3599	1155.6794	1204.5043	1252.6282	1265.1961	1294.0006	1327.1472	1346.7514	1387.9379	1401.9788	1432.4497	1484.7507	1491.5159	1497.0977	1514.7481	3021.644	3024.4151	3068.6782	3095.6253	3097.4265	3117.5785	3121.216	3184.9705	3785.0058	3800.4698
CC(O)C1C2OCC12O	C[C@@H](O)[C@H]1[C@H]2OC[C@@]12O	
InChI=1S/C6H10O3/c1-3(7)4-5-6(4,8)2-9-5/h3-5,7-8H,2H2,1H3	InChI=1S/C6H10O3/c1-3(7)4-5-6(4,8)2-9-5/h3-5,7-8H,2H2,1H3/t3-,4+,5-,6-/m1/s1
