13
gdb 133455	5.15226	1.01976	0.85581	4.3533	62.49	-0.2499	-0.0821	0.1678	1217.2307	0.088757	-494.032238	-494.024619	-494.023675	-494.065484	26.905	
O	-0.0194980383	 1.420702802	 0.0085078778	-0.418227
C	-0.0078825545	 0.0071191251	 0.0019252716	-0.144441
C	-1.4339591774	-0.4817869097	 0.0123589313	 0.299057
C	-2.5375879733	 0.3793485904	 0.0236684666	-0.034998
N	-3.7730548194	-0.1056045062	 0.0324301367	-0.285258
C	-3.8323961237	-1.4273793283	 0.0294156503	 0.387787
F	-5.0375114635	-1.954280541	 0.0372859941	-0.045904
N	-2.8358256059	-2.2995520533	 0.0188306911	-0.243332
N	-1.6047339128	-1.8022590333	 0.0101871677	-0.229581
H	 0.8888595094	 1.7342106811	 0.0017471675	 0.301695
H	 0.4951455431	-0.3988620386	-0.8887621105	 0.126463
H	 0.5108928098	-0.4071153148	 0.879652646	 0.126502
H	-2.4103701936	 1.4557499866	 0.0256311497	 0.160237
38.9295	112.1844	203.8756	217.6369	343.3037	398.224	415.181	496.6773	560.8095	576.8433	663.2247	770.3408	824.6614	899.7465	971.3121	1049.8467	1070.1508	1100.4529	1150.7291	1209.9756	1242.2832	1252.7582	1351.1012	1373.9078	1444.9785	1482.7611	1506.7594	1569.2377	1604.9327	2986.099	3013.7247	3208.9874	3848.0181
OCC1=CN=C(F)N=N1	OCc1cnc(F)nn1	
InChI=1S/C4H4FN3O/c5-4-6-1-3(2-9)7-8-4/h1,9H,2H2	InChI=1S/C4H4FN3O/c5-4-6-1-3(2-9)7-8-4/h1,9H,2H2
