18
gdb 41362	2.84352	1.89634	1.70763	1.9098	70.1	-0.2275	0.0503	0.2777	877.307	0.151297	-439.007968	-439.001586	-439.000642	-439.038359	26.962	
C	 0.0124481462	 1.491196514	-0.0654352235	-0.189845
O	 1.4674928227	 1.4542637226	 0.1365546799	-0.315563
C	 1.2801908488	 0.1816051881	 0.8203860831	 0.164289
C	 1.790107346	-1.2360515598	 0.572886918	 0.00489
C	 0.5334195686	-1.940953071	 1.2190928275	-0.19232
N	-0.657335486	-1.0682919653	 0.8262821909	-0.382948
C	 0.016911111	-0.0541464223	 0.0263347685	 0.218293
C	 0.5915381631	-0.6738948868	-1.2720475818	-0.098627
O	 1.7318954229	-1.4382715582	-0.8279789605	-0.265841
H	-0.4904774254	 1.9879959975	 0.7722234773	 0.115362
H	-0.2534017792	 1.9629910735	-1.0146939385	 0.111597
H	 1.1088991654	 0.365782719	 1.8868722756	 0.092981
H	 2.7522340315	-1.5804471244	 0.9517557948	 0.08819
H	 0.449810087	-2.9514263132	 0.8114043134	 0.118075
H	 0.6066589815	-2.0080180729	 2.3101201335	 0.114173
H	-1.3090944973	-1.6180629641	 0.2750896557	 0.217036
H	-0.1426975267	-1.3403375084	-1.7436192509	 0.087899
H	 0.92475774	 0.0659483117	-2.0065728731	 0.112358
196.4988	298.2412	333.6752	353.5602	418.9693	455.5132	610.1615	611.4346	715.5791	803.6281	820.5647	836.9594	860.587	882.4397	906.3043	944.9228	959.2229	980.4378	993.3481	1023.9007	1044.3207	1078.6029	1101.7145	1133.7905	1178.5037	1183.7489	1195.9745	1227.6495	1241.7913	1270.2397	1312.0041	1315.9242	1349.5436	1384.3709	1401.7477	1413.2855	1494.3922	1510.9291	1514.1431	3013.3274	3034.3452	3038.0966	3049.2569	3071.3336	3101.9375	3106.7854	3128.9851	3508.934
C1OC2C3CNC12CO3	C1O[C@@H]2[C@H]3CN[C@@]12CO3	
InChI=1S/C6H9NO2/c1-4-5-6(7-1,2-8-4)3-9-5/h4-5,7H,1-3H2	InChI=1S/C6H9NO2/c1-4-5-6(7-1,2-8-4)3-9-5/h4-5,7H,1-3H2/t4-,5-,6+/m1/s1
