18
gdb 59224	2.66506	1.42373	1.22189	3.0174	71.13	-0.2477	-0.0151	0.2326	1091.1826	0.146787	-439.063191	-439.054574	-439.05363	-439.096668	32.391	
C	 0.1024164053	 1.5393960259	-0.1921927989	-0.418265
C	 0.1197836604	 0.0205681611	-0.0141262355	 0.099502
O	 0.8732445906	-0.3525493429	 1.1408508879	-0.429739
C	-1.3040440825	-0.5512856643	 0.0420755302	-0.140079
C	-1.5980429034	-2.0569078812	 0.0250983944	-0.066582
C	-1.1309916906	-2.7454135204	 1.2355728675	-0.243082
N	-2.4130810767	-1.966943866	 1.3244262302	-0.180958
C	-2.0075889202	-0.5783425341	 1.4124486959	 0.39169
O	-2.2135242313	 0.2221992928	 2.2736336887	-0.314536
H	 1.122590448	 1.9309083048	-0.1650470087	 0.128701
H	-0.3540724835	 1.8218185967	-1.146148636	 0.120301
H	-0.4770340574	 2.0104380833	 0.6102335566	 0.1392
H	 0.6518620376	-0.4436028938	-0.8528363191	 0.099322
H	 0.5461944068	 0.1758984162	 1.8794662015	 0.293079
H	-1.9467909571	-0.0353212677	-0.6801160906	 0.114214
H	-2.0174707094	-2.5855223411	-0.8225268584	 0.112668
H	-1.3086589008	-3.8127561082	 1.3141095223	 0.138036
H	-0.2588209056	-2.3742744813	 1.7611211419	 0.156529
58.9288	123.8895	150.9741	221.8685	258.5302	321.4131	366.7727	398.1686	454.7075	511.279	565.0785	663.2593	698.9738	754.0212	808.0228	856.1505	886.6349	926.7362	1000.9767	1018.8824	1032.2324	1053.9298	1069.4083	1082.1252	1132.1388	1141.887	1158.9308	1198.4624	1239.0854	1295.2609	1331.5077	1349.7456	1368.5762	1404.9348	1424.0362	1492.5046	1499.3453	1502.2012	1897.285	3033.0395	3044.3564	3059.6495	3105.0318	3123.0313	3139.0905	3190.1015	3235.4335	3783.333
CC(O)C1C2CN2C1=O	C[C@@H](O)[C@H]1[C@H]2CN2C1=O	
InChI=1S/C6H9NO2/c1-3(8)5-4-2-7(4)6(5)9/h3-5,8H,2H2,1H3	InChI=1S/C6H9NO2/c1-3(8)5-4-2-7(4)6(5)9/h3-5,8H,2H2,1H3/t3-,4-,5+,7?/m1/s1
