19
gdb 55185	3.20396	1.34223	1.10268	3.5527	76.08	-0.2291	0.055	0.284	1137.2367	0.161142	-419.217574	-419.209293	-419.208348	-419.250873	31.543	
N	-0.0027554984	 1.3029990378	 0.049371635	-0.558156
C	 0.0376196191	-0.0835779673	 0.1531277436	 0.40794
O	 1.0770322277	-0.720081855	 0.1689707503	-0.401804
N	-1.1967161834	-0.6795261275	 0.2058140863	-0.093844
C	-2.5064027371	-0.2204786037	-0.2904407835	-0.1988
C	-2.8764445095	-1.6968020662	-0.5810008585	-0.04442
C	-2.4570482376	-2.2001156628	-1.989773562	-0.230006
C	-1.0590572922	-2.6215870874	-1.4363131416	-0.224065
C	-1.4615394399	-2.1006358859	-0.0332392464	 0.017455
H	 0.8897493968	 1.7291621429	 0.2490053558	 0.258709
H	-0.7892544819	 1.7805441876	 0.4637875355	 0.25038
H	-3.1152496214	 0.2684841131	 0.4810989894	 0.103046
H	-2.4554036617	 0.4355987949	-1.168494669	 0.113767
H	-3.812226553	-2.0620408377	-0.1616284582	 0.076488
H	-3.0562973627	-3.0416931598	-2.3445983021	 0.105224
H	-2.4568942509	-1.4335926082	-2.7700510558	 0.101313
H	-0.8964903075	-3.7020898149	-1.4558127294	 0.10447
H	-0.1820314714	-2.1333422597	-1.8626175261	 0.128639
H	-1.282162375	-2.7453411003	 0.8288301268	 0.083663
68.7039	104.2897	124.3409	193.4013	356.6187	375.9256	417.2573	436.8412	547.4514	564.9812	657.4833	725.2038	760.4999	778.2545	796.0107	837.5712	887.6936	943.296	955.7232	980.1742	1019.4959	1069.7371	1099.3689	1129.137	1144.2783	1155.331	1198.5993	1212.2335	1218.9521	1237.3817	1265.5403	1274.3678	1304.2253	1320.938	1343.4545	1436.4594	1476.0381	1491.4673	1520.7341	1621.991	1783.3003	3003.6366	3047.4904	3056.978	3071.4365	3092.6851	3103.9357	3127.5459	3136.7237	3571.3253	3686.6868
NC(=O)N1CC2CCC12	NC(=O)N1C[C@H]2CC[C@@H]12	
InChI=1S/C6H10N2O/c7-6(9)8-3-4-1-2-5(4)8/h4-5H,1-3H2,(H2,7,9)	InChI=1S/C6H10N2O/c7-6(9)8-3-4-1-2-5(4)8/h4-5H,1-3H2,(H2,7,9)/t4-,5-/m1/s1
