18
gdb 76776	2.227	1.65229	1.09957	2.6028	73.73	-0.2364	-0.0373	0.1992	1124.9743	0.146238	-439.058151	-439.049027	-439.048083	-439.092585	33.353	
C	-0.708962332	 1.2539966246	 0.0570861115	-0.406122
C	-0.0037506308	-0.096548539	-0.0358414068	-0.162816
C	 0.8959333005	-0.3892322245	-1.2946041088	 0.003234
O	 1.0638358723	 0.6412750683	-2.2437593182	-0.421272
C	 2.0996656717	-0.6214115648	-0.357463367	 0.19703
C	 3.2188946664	-1.5923252622	-0.4983603641	-0.294929
N	 3.4728084054	-0.1576246161	-0.6101411963	-0.349837
C	 1.2558559145	-0.2739769512	 0.8501287769	 0.349377
O	 1.4648700195	-0.1740566602	 2.024706549	-0.303255
H	-0.0137605096	 2.0917592357	-0.064990242	 0.110596
H	-1.4848190486	 1.3459004165	-0.7078829231	 0.13406
H	-1.1724726218	 1.3644989532	 1.0410450302	 0.142821
H	-0.7206782499	-0.9063857257	 0.1407649102	 0.106416
H	 0.5819182315	-1.2632296864	-1.8692100599	 0.09804
H	 1.3056818494	 1.4512116836	-1.7806623388	 0.287541
H	 3.6219503509	-2.0573972424	 0.3969936338	 0.140936
H	 3.2301301472	-2.2088148252	-1.3941962241	 0.125264
H	 3.5184547035	 0.111786776	-1.5938295725	 0.242917
30.366	165.8565	178.8562	188.412	218.4446	227.7991	255.3634	336.6284	365.2943	506.7032	568.1866	604.6803	702.2064	742.5446	802.541	835.06	875.3149	916.153	967.7335	998.981	1008.6266	1063.1711	1072.3838	1118.9976	1133.7695	1140.8187	1190.1808	1231.3585	1272.0117	1278.1352	1288.0749	1321.4239	1393.8068	1408.4821	1433.7617	1490.8791	1500.2533	1501.506	1886.8772	3038.7516	3048.8021	3091.6294	3103.8912	3104.3337	3124.2122	3197.2311	3456.8533	3803.8287
CC1C(O)C2(CN2)C1=O	C[C@H]1[C@@H](O)[C@]2(CN2)C1=O	
InChI=1S/C6H9NO2/c1-3-4(8)6(2-7-6)5(3)9/h3-4,7-8H,2H2,1H3	InChI=1S/C6H9NO2/c1-3-4(8)6(2-7-6)5(3)9/h3-4,7-8H,2H2,1H3/t3-,4+,6+/m0/s1
