19
gdb 105651	2.07051	1.40083	1.25702	2.5191	76.67	-0.2409	0.0177	0.2586	1156.709	0.157977	-419.184929	-419.175288	-419.174344	-419.219329	34.764	
C	 0.0187350559	 1.4312213471	 0.0992940168	-0.265666
O	-0.0840398824	 0.0224114496	-0.0441963388	-0.275565
C	 0.6063030756	-0.5249010369	-1.133644535	 0.265834
C	 2.1566457555	-0.6240085868	-0.9626743951	-0.222574
N	 1.9942476498	-2.0166032217	-0.498822917	-0.324333
C	 0.6179214018	-2.0911764448	-1.0483108884	 0.004822
C	-0.4089157841	-2.7742140943	-0.1665661892	-0.387749
C	 0.1375622518	 0.0373519806	-2.4089773186	 0.235846
N	-0.228164765	 0.4806485491	-3.4122669457	-0.349239
H	 1.0592857951	 1.75265698	 0.2401761697	 0.117004
H	-0.4016193973	 1.9561569052	-0.7680967398	 0.138119
H	-0.5554820867	 1.6897576977	 0.9904740256	 0.140195
H	 2.6851306485	-0.499946836	-1.916180692	 0.113519
H	 2.5899460939	 0.0534663932	-0.2201896184	 0.119444
H	 2.6507254013	-2.6793413062	-0.8952066687	 0.224204
H	 0.5817409068	-2.5018693668	-2.0671163502	 0.084777
H	-0.4213402267	-2.3236802761	 0.8264546667	 0.140984
H	-1.4094655696	-2.7013521299	-0.6043279382	 0.123478
H	-0.156634524	-3.8352309729	-0.0680625638	 0.1169
90.4431	118.9803	145.8226	167.713	183.7115	210.3755	216.8509	311.1063	366.5139	417.0876	499.2004	530.7468	576.7495	623.675	683.4686	820.8547	884.8343	952.782	990.8249	1020.292	1024.0187	1087.2628	1091.7128	1123.2037	1153.0609	1184.6117	1194.3733	1207.2772	1228.85	1274.1163	1347.7744	1371.4494	1384.0349	1410.1512	1480.5637	1483.212	1489.2601	1491.9933	1501.3137	1509.5312	2346.6906	3000.5652	3005.6443	3021.044	3043.7595	3065.4747	3078.6346	3107.7049	3135.5117	3150.8318	3538.3019
COC1(CNC1C)C#N	CO[C@]1(CN[C@H]1C)C#N	
InChI=1S/C6H10N2O/c1-5-6(3-7,9-2)4-8-5/h5,8H,4H2,1-2H3	InChI=1S/C6H10N2O/c1-5-6(3-7,9-2)4-8-5/h5,8H,4H2,1-2H3/t5-,6-/m0/s1
