19
gdb 59295	2.58844	1.52445	1.01252	3.1213	78.32	-0.2079	-0.0112	0.1967	1178.7258	0.159262	-419.227427	-419.218522	-419.217578	-419.261091	33.445	
C	 0.1136812158	 1.3917528137	-0.1772334809	-0.310982
N	 0.0493689934	-0.0360483561	 0.0968519908	-0.070665
C	 0.6095887014	-0.3351815434	 1.4124955568	-0.334547
C	-1.3010594813	-0.5884039851	-0.0509506221	-0.112178
C	-2.0501344218	-0.1749604206	-1.2987413288	-0.171449
C	-2.3879852271	-1.2671923959	-1.9875891811	-0.021462
N	-1.9365620749	-2.4329325299	-1.3554465787	-0.327613
C	-1.2503890171	-2.1411363357	-0.1939864784	 0.436722
O	-0.7315161973	-2.954388706	 0.5357012618	-0.367105
H	 1.1459233706	 1.7284557269	-0.0425421302	 0.119346
H	-0.1735371833	 1.5998750894	-1.2103357139	 0.119295
H	-0.5259965815	 1.9988045141	 0.4935201544	 0.086099
H	 0.0692688372	 0.1857310736	 2.2276268562	 0.082599
H	 0.5653765913	-1.4076558687	 1.5991965342	 0.161935
H	 1.6548320245	-0.012499578	 1.4390966942	 0.111455
H	-1.9229189126	-0.3627866391	 0.8422592125	 0.088079
H	-2.3296510754	 0.8353735288	-1.5499735376	 0.115482
H	-2.9590371197	-1.3489296546	-2.9016049436	 0.133408
H	-1.9984390322	-3.3672858735	-1.7243453256	 0.261581
68.7453	90.133	205.119	241.4866	257.5183	270.6631	345.6234	368.2616	407.7138	467.868	513.5486	551.1859	662.1509	698.4581	724.7192	813.0344	888.5453	909.1844	918.0192	1002.3995	1064.2739	1070.7341	1090.8946	1126.1296	1144.1535	1177.4604	1207.7205	1217.5072	1287.9635	1295.3936	1319.2951	1380.3031	1416.5745	1440.7982	1472.9855	1487.5433	1496.933	1502.3207	1517.4881	1676.416	1829.9989	2864.9973	2909.9066	2919.5983	3071.6318	3075.795	3118.1529	3156.9959	3235.1846	3266.9469	3661.6396
CN(C)C1C=CNC1=O	CN(C)[C@H]1C=CNC1=O	
InChI=1S/C6H10N2O/c1-8(2)5-3-4-7-6(5)9/h3-5H,1-2H3,(H,7,9)	InChI=1S/C6H10N2O/c1-8(2)5-3-4-7-6(5)9/h3-5H,1-2H3,(H,7,9)/t5-/m0/s1
