19
gdb 84000	2.20602	1.72643	1.45778	2.5694	70.52	-0.2314	0.082	0.3133	1015.0202	0.159411	-460.140071	-460.131626	-460.130682	-460.172668	32.448	
C	-0.0699438242	 1.4900872536	 0.035064905	-0.469754
C	 0.0124400804	-0.0202307481	-0.0337873819	 0.184185
C	-1.234099726	-0.7030726721	-0.5796177764	-0.142664
O	-1.3650230391	-2.0661705622	-0.1708608601	-0.236814
C	-1.0777852582	-2.2228755745	 1.1857249201	-0.000875
O	 0.2992936876	-2.0413338046	 1.4386126404	-0.253487
C	 0.7449669373	-0.7552601206	 1.0834638661	-0.020022
C	 1.3684795442	-0.6559401784	-0.2899854529	 0.084576
O	 1.498084205	-1.8022999336	-1.062198295	-0.430211
H	 0.8607577575	 1.9199027006	 0.4181499002	 0.12167
H	-0.243766316	 1.9203427615	-0.9583560516	 0.12604
H	-0.883422395	 1.8186526151	 0.6926678195	 0.118442
H	-2.1223656507	-0.1413247574	-0.2485186084	 0.095719
H	-1.2259670098	-0.7199321021	-1.6732639369	 0.127435
H	-1.6693408313	-1.5179147027	 1.7953379421	 0.087223
H	-1.3107271862	-3.2544673982	 1.4556115122	 0.122129
H	 1.1534982875	-0.1990392647	 1.9241197545	 0.095116
H	 2.2131380977	 0.0151261022	-0.4202150016	 0.097627
H	 1.0632161493	-2.5171588238	-0.5765700453	 0.293665
136.5149	153.2447	200.7509	212.4992	259.074	300.9871	325.8735	387.0338	468.0014	503.8862	522.1417	636.6711	645.9601	778.6013	832.9601	861.7508	941.4014	978.588	998.5246	1014.2981	1031.598	1075.271	1101.8405	1126.7609	1164.7181	1183.3009	1198.3785	1234.6867	1274.919	1316.1373	1329.3485	1332.4853	1359.4966	1410.3167	1417.8359	1437.238	1463.2799	1490.6839	1494.5928	1502.2188	1511.9146	2955.0278	2976.2304	3021.2022	3081.8063	3085.2015	3098.7813	3119.4871	3125.7435	3147.1989	3746.9535
CC12COCOC1C2O	C[C@]12COCO[C@H]1[C@H]2O	
InChI=1S/C6H10O3/c1-6-2-8-3-9-5(6)4(6)7/h4-5,7H,2-3H2,1H3	InChI=1S/C6H10O3/c1-6-2-8-3-9-5(6)4(6)7/h4-5,7H,2-3H2,1H3/t4-,5+,6-/m1/s1
