20
gdb 63386	2.86241	1.17483	0.97562	5.1237	79.73	-0.2722	0.0378	0.31	1267.0784	0.168646	-403.163699	-403.15396	-403.153016	-403.197772	36.943	
C	 0.5290236116	 1.4607823459	 0.0984520589	-0.460573
C	-0.0776947211	 0.06755163	-0.0230228029	 0.431819
O	-1.4791336069	 0.1452017535	-0.2071109328	-0.471368
C	 0.6612488507	-0.8952287772	-1.0085017497	-0.326604
C	 1.198202377	-1.7278032983	 0.2089751111	 0.169279
C	 2.6918660269	-1.5300719083	 0.5035729787	-0.451728
C	 0.238540262	-0.9069830691	 1.1404221153	-0.305944
C	 0.8922817726	-3.1528492843	 0.140150678	 0.244584
N	 0.6506376153	-4.2825655813	 0.0838140554	-0.350979
H	 1.6047597902	 1.4246931888	 0.2933288238	 0.122658
H	 0.3844950802	 2.0256202569	-0.8313861618	 0.112153
H	 0.0478675621	 2.0103180429	 0.9133738723	 0.131615
H	-1.6569682549	 0.7551901959	-0.9317090052	 0.276591
H	-0.0502504233	-1.4537303234	-1.6177729859	 0.12713
H	 1.4346378472	-0.462897124	-1.6488510464	 0.104261
H	 2.9329716136	-0.4646618634	 0.554870551	 0.124657
H	 2.9636156072	-1.9879871397	 1.4591388472	 0.138071
H	 3.3065566752	-1.9826244495	-0.2799725023	 0.137393
H	 0.7057951946	-0.4808841885	 2.0312797462	 0.109128
H	-0.6529244401	-1.4648849569	 1.4276581092	 0.137856
67.1993	145.3444	187.8719	225.2072	243.2388	263.7704	283.2414	298.8821	352.1391	361.4116	435.0603	437.4963	524.7175	588.7437	597.9261	712.7797	831.0209	854.883	890.098	904.7533	943.18	954.692	956.5344	985.4978	1073.8642	1116.9687	1145.2885	1164.7569	1211.8446	1239.9907	1266.881	1275.3023	1310.0929	1378.0287	1405.674	1413.0029	1459.9593	1478.952	1483.8369	1489.1502	1493.5292	1498.9376	2348.3131	3023.1402	3041.6985	3063.7038	3073.5565	3092.1023	3114.8028	3117.26	3120.1428	3137.2078	3144.6138	3798.8343
CC1(O)CC(C)(C1)C#N	C[C@@]1(O)C[C@@](C)(C1)C#N	
InChI=1S/C7H11NO/c1-6(5-8)3-7(2,9)4-6/h9H,3-4H2,1-2H3	InChI=1S/C7H11NO/c1-6(5-8)3-7(2,9)4-6/h9H,3-4H2,1-2H3/t6-,7+
