17
gdb 62767	3.60547	1.21125	1.18083	3.2102	67.82	-0.2545	0.0075	0.262	1089.2411	0.135033	-458.990248	-458.982071	-458.981127	-459.022795	31.394	
C	 0.1230006903	 1.5938534586	 0.0229223454	-0.46923
C	 0.0645110484	 0.0870097563	-0.0466893368	 0.341281
O	-1.1301992255	-0.4766262729	 0.4297760657	-0.457135
C	 0.6031808634	-0.7289225865	-1.2041144855	-0.120122
C	 1.6330627536	-0.1170644858	-2.1251117311	-0.391589
C	 2.8259153228	 0.2120381628	-1.2181368088	 0.420269
O	 3.8472438966	 0.7590838728	-1.5060628444	-0.325698
O	 2.5546762961	-0.1979662395	 0.0622614049	-0.211388
C	 1.2773100528	-0.7944223186	 0.1509550323	 0.00383
H	 1.0769587093	 1.9981703619	-0.3213534838	 0.144017
H	-0.6788368815	 2.0300045447	-0.5806534111	 0.134016
H	-0.0121734288	 1.9269090789	 1.0588215654	 0.1193
H	-1.2003779727	-0.2712127958	 1.3694793867	 0.28606
H	-0.0174926838	-1.5465852853	-1.5470552336	 0.115261
H	 1.9630209619	-0.8212463445	-2.8947641977	 0.147557
H	 1.3186519716	 0.7962130163	-2.6378795971	 0.146059
H	 1.2481404555	-1.6541965935	 0.8085621694	 0.117513
94.7657	172.4567	179.6173	248.4484	280.9477	339.6381	390.4607	448.5452	486.0629	498.4551	566.0405	686.5046	700.1273	739.7651	827.0278	862.8984	881.5931	958.5852	985.2273	1017.1653	1049.0372	1082.5473	1086.7229	1116.4633	1147.27	1182.3302	1209.866	1282.2266	1293.6645	1316.1725	1328.18	1422.1596	1437.8434	1461.1405	1486.6899	1501.5734	1888.2416	3034.6902	3066.0818	3097.2024	3104.3747	3133.3313	3192.612	3201.4528	3786.3316
CC1(O)C2CC(=O)OC12	C[C@@]1(O)[C@H]2CC(=O)O[C@@H]12	
InChI=1S/C6H8O3/c1-6(8)3-2-4(7)9-5(3)6/h3,5,8H,2H2,1H3	InChI=1S/C6H8O3/c1-6(8)3-2-4(7)9-5(3)6/h3,5,8H,2H2,1H3/t3-,5+,6+/m0/s1
