22
gdb 114333	3.02504	1.07092	1.02974	2.8168	81.44	-0.2135	0.0718	0.2854	1295.9668	0.195144	-404.324065	-404.314945	-404.314001	-404.35832	34.747	
C	-0.0946369558	 1.5955840205	 0.043174531	-0.425995
C	 0.0381063722	 0.0925120616	-0.0388517113	 0.024187
C	 0.6040753093	-0.6408582723	-1.2046689918	-0.043595
C	 1.4193325114	 0.1115063171	-2.2513914346	-0.287053
C	 2.8106324929	 0.299116636	-1.592963853	 0.057608
C	 3.5071222079	 1.5916887107	-1.9875470736	-0.09885
O	 4.7656406221	 1.6291415127	-1.3303184219	-0.422027
C	 2.5463985665	 0.1608722237	-0.0717521948	-0.180761
N	 1.3143248393	-0.6402039479	 0.0953904949	-0.119029
H	 0.6040441603	 2.1370000844	-0.5978649151	 0.120757
H	-1.1076408372	 1.8892616955	-0.2525138103	 0.120875
H	 0.0608813635	 1.9425027134	 1.0712326797	 0.126181
H	-0.758321173	-0.4179474642	 0.5030958977	 0.084344
H	 0.1603882845	-1.5883363102	-1.5017969928	 0.083306
H	 1.4843411817	-0.4593890188	-3.1811290289	 0.104792
H	 0.9686616095	 1.0780267394	-2.5077318713	 0.099905
H	 3.4575952004	-0.5301484086	-1.9009596548	 0.087089
H	 3.6274799913	 1.6344766431	-3.0823359933	 0.086546
H	 2.8802554439	 2.451983211	-1.6950634533	 0.082528
H	 5.2013158423	 2.4561982592	-1.5554645385	 0.287192
H	 3.3662499694	-0.3613216016	 0.4264222295	 0.114633
H	 2.4604769175	 1.142576255	 0.4096854566	 0.097367
41.0346	114.8541	175.0974	193.3865	260.3903	270.7338	287.3751	391.0331	415.7155	444.9333	541.5465	604.0909	692.6425	750.0182	761.0787	846.2909	883.1818	921.7989	934.0916	980.5838	1012.8579	1032.7701	1052.1188	1076.4624	1099.4166	1115.4106	1139.5503	1149.3403	1167.534	1190.9764	1220.3793	1250.7021	1280.7975	1298.8057	1305.0473	1319.6113	1338.5666	1373.1036	1379.7745	1412.9157	1430.4621	1458.7166	1485.3575	1495.7596	1506.9808	1512.5167	1523.497	2948.942	2979.817	3029.0583	3031.9257	3035.8774	3043.9095	3088.5411	3090.1837	3093.0213	3094.3067	3124.0329	3129.0319	3830.2442
CC1C2CC(CO)CN12	C[C@H]1[C@H]2C[C@@H](CO)CN12	
InChI=1S/C7H13NO/c1-5-7-2-6(4-9)3-8(5)7/h5-7,9H,2-4H2,1H3	InChI=1S/C7H13NO/c1-5-7-2-6(4-9)3-8(5)7/h5-7,9H,2-4H2,1H3/t5-,6+,7+,8?/m0/s1
