20
gdb 87569	2.45562	1.46451	1.21983	1.3723	78.89	-0.2363	0.0655	0.3019	1126.3907	0.170719	-403.091856	-403.083124	-403.08218	-403.124969	33.813	
C	-0.0702282469	 1.5462472241	 0.0080093129	-0.390681
C	-0.0560568832	 0.0423297638	 0.1284653421	-0.079313
N	 1.2385454104	-0.6304718838	-0.1334497982	-0.412299
C	 0.6669106391	-0.6746320164	 1.204303559	 0.321623
C	 1.3450284819	-0.1550091802	 2.4579909257	-0.121311
C	 0.2946913314	 0.0190400704	 3.5177185465	-0.2994
C	 0.8158411442	-1.3676608636	 3.2417096036	-0.092137
C	 0.2233310215	-1.9536082676	 1.9539797855	 0.043469
O	-1.1170081828	-2.3801696646	 1.9053259895	-0.430014
H	 0.8418318528	 1.9743210014	 0.4319897509	 0.125937
H	-0.1311882832	 1.8531781838	-1.0416026826	 0.121017
H	-0.9304269896	 1.9741406394	 0.5347142945	 0.110843
H	-0.9463708523	-0.4658906222	-0.2414377003	 0.087921
H	 1.0899639976	-1.5188867021	-0.6083496276	 0.229002
H	 2.3245508322	 0.3016681597	 2.5034318107	 0.100308
H	 0.6264408262	 0.4505557913	 4.4564394605	 0.11825
H	-0.714863714	 0.3138355235	 3.236074193	 0.098726
H	 1.313536832	-1.9442480901	 4.0113365629	 0.090953
H	 0.8154077109	-2.8102731164	 1.6140111738	 0.096419
H	-1.6603273081	-1.6905935003	 2.3017824975	 0.280686
107.8294	136.6644	168.5718	181.6546	253.0424	270.5464	323.7403	434.0086	469.4343	512.3899	578.2891	609.8714	720.8399	790.2557	817.0745	836.4396	887.8062	917.8261	957.5607	982.4574	995.4828	1028.1722	1037.4497	1063.5576	1073.126	1083.579	1089.1327	1118.4118	1134.5881	1180.4572	1226.8466	1229.4117	1243.4694	1277.8008	1298.8837	1343.0285	1367.7291	1411.3359	1427.637	1473.2405	1486.4676	1492.7625	1505.7288	3032.7586	3057.4323	3093.8088	3097.0411	3105.8845	3124.8455	3186.6244	3194.99	3210.7008	3478.6058	3809.7963
CC1NC11C2CC2C1O	C[C@H]1N[C@]21[C@H]1C[C@H]1[C@H]2O	
InChI=1S/C7H11NO/c1-3-7(8-3)5-2-4(5)6(7)9/h3-6,8-9H,2H2,1H3	InChI=1S/C7H11NO/c1-3-7(8-3)5-2-4(5)6(7)9/h3-6,8-9H,2H2,1H3/t3-,4-,5+,6-,7-/m1/s1
