18
gdb 79210	2.60449	1.63077	1.27569	1.4335	82.09	-0.2356	0.0289	0.2645	1043.6481	0.147158	-364.713356	-364.705423	-364.704479	-364.745465	31.493	
C	 0.0250852307	 1.5957358091	 0.002684641	-0.436138
C	 0.0977828697	 0.0757746112	 0.0011216155	-0.014195
C	 0.7712160196	-0.7077137718	-1.125487298	-0.066024
C	 1.2377727421	-1.7672876455	-0.2076011656	-0.106269
N	 2.2447300166	-0.8820237578	-0.8458805802	-0.154869
C	 2.4744117666	-0.2098346559	 0.4692962727	-0.191182
C	 1.0863267211	-0.6892516015	 0.9562996279	 0.193222
C	 0.7683701029	-0.8946789045	 2.3370125788	 0.03641
C	 0.5049696785	-1.0665031854	 3.4988518853	-0.337517
H	 0.9880474581	 2.0626931354	-0.2190037977	 0.123924
H	-0.6876091433	 1.9415360248	-0.7537791104	 0.12135
H	-0.3182977244	 1.9648549525	 0.9750892548	 0.128205
H	-0.8998601743	-0.3478389084	 0.1577984303	 0.091049
H	 0.476406051	-0.7864019159	-2.1637102202	 0.101105
H	 1.243823524	-2.8486768797	-0.2337764609	 0.105475
H	 3.2896125646	-0.7249696009	 0.9818021616	 0.120403
H	 2.6760431132	 0.8652223054	 0.4344468133	 0.102981
H	 0.2724293734	-1.217973511	 4.5237768216	 0.182068
123.1624	151.1276	180.4558	240.6823	290.0965	425.6282	483.4302	514.9706	552.2715	592.2438	616.5061	644.8239	677.337	757.1545	793.9981	822.7101	873.7417	905.611	962.5321	968.7268	994.4946	1015.3577	1071.1442	1090.8919	1119.6283	1131.1609	1150.2863	1165.483	1197.2833	1235.3038	1266.6086	1312.9312	1334.3026	1389.4367	1411.5729	1491.4363	1495.8496	1518.9218	2230.5272	3036.2121	3053.2497	3056.5214	3098.5111	3114.4268	3121.4978	3199.4674	3213.8597	3501.5346
CC1C2C3N2CC13C#C	C[C@H]1[C@@H]2[C@H]3N2C[C@@]13C#C	
InChI=1S/C8H9N/c1-3-8-4-9-6(5(8)2)7(8)9/h1,5-7H,4H2,2H3	InChI=1S/C8H9N/c1-3-8-4-9-6(5(8)2)7(8)9/h1,5-7H,4H2,2H3/t5-,6+,7+,8-,9?/m0/s1
