21
gdb 93223	2.55797	1.28014	0.91974	2.9321	78.56	-0.2375	-0.0142	0.2233	1294.4745	0.182647	-424.269498	-424.260315	-424.259371	-424.303242	35.062	
C	-0.0789189714	 1.5415354568	-0.0067894761	-0.39732
C	 0.0636381705	 0.0207409376	 0.0179915062	-0.095404
C	 0.7468793687	-0.5352931284	-1.2502438562	-0.191763
C	 0.9026064793	-2.054476449	-1.213438246	 0.120678
O	 1.5434911697	-2.4349589995	-2.4223574662	-0.438248
C	 1.7031197355	-2.4841261604	 0.0218940365	-0.232913
C	 1.0503843072	-1.9735391943	 1.3192873381	-0.307411
C	 0.8019976781	-0.4699614905	 1.2663274394	 0.391136
O	 1.1620489878	 0.2748538031	 2.1482780483	-0.308112
H	 0.9022446129	 2.0226361321	-0.0599792153	 0.126184
H	-0.664981649	 1.8588915919	-0.8745839646	 0.107554
H	-0.5693542915	 1.9038065211	 0.8993890963	 0.128027
H	-0.9389401257	-0.4340615092	 0.0729747438	 0.091408
H	 0.1732002452	-0.2495284612	-2.137716189	 0.109562
H	 1.7436504013	-0.0887232541	-1.361010608	 0.111075
H	-0.1031001707	-2.509050122	-1.1574879828	 0.061034
H	 1.6701442955	-3.389054365	-2.4068232928	 0.280929
H	 1.7934956694	-3.5772086401	 0.0552181838	 0.090333
H	 2.7196525215	-2.0828492353	-0.0721110476	 0.116326
H	 0.0780106897	-2.468112727	 1.4554005275	 0.115369
H	 1.6598893362	-2.1944787767	 2.1982235246	 0.121558
75.7313	134.1258	187.4786	208.6177	264.068	287.2376	289.7102	366.1504	384.2006	415.7408	479.5442	504.846	568.4982	701.9115	725.8116	820.7201	879.5793	900.9264	932.675	979.1437	998.8263	1050.7452	1069.4063	1088.7516	1117.7148	1138.9432	1151.7244	1158.3167	1236.5995	1242.887	1280.7694	1307.1234	1315.0804	1338.1189	1347.5997	1375.7027	1396.1317	1413.2154	1437.7537	1468.5506	1486.4938	1490.4872	1494.7867	1506.2671	1812.7829	2934.2383	2978.4065	3015.842	3021.7566	3030.8672	3045.5822	3066.6059	3081.5564	3109.4225	3113.7559	3128.2481	3815.2027
CC1CC(O)CCC1=O	C[C@H]1C[C@@H](O)CCC1=O	
InChI=1S/C7H12O2/c1-5-4-6(8)2-3-7(5)9/h5-6,8H,2-4H2,1H3	InChI=1S/C7H12O2/c1-5-4-6(8)2-3-7(5)9/h5-6,8H,2-4H2,1H3/t5-,6-/m0/s1
