22
gdb 113098	3.9276	0.71888	0.69043	3.6954	85.17	-0.2475	0.0321	0.2796	1730.2943	0.19415	-404.373277	-404.363425	-404.362481	-404.409174	35.878	
C	-0.9415318455	 1.0791981294	 0.0156847372	-0.381617
C	-0.1359658521	-0.2209593376	 0.0880338786	-0.177182
C	 1.0773306242	-0.1293647204	 1.0157083946	 0.028858
C	 0.7429162434	-0.1534164659	 2.5397561858	-0.258842
C	 1.104598603	-1.6632779886	 2.559776329	 0.083042
C	 1.8439308675	-1.472053305	 1.2075928123	-0.271091
N	 1.8346758826	-2.1898354305	 3.6869173048	-0.289972
C	 1.4273798858	-3.2612732701	 4.4217905885	 0.150577
O	 0.4176020273	-3.9044233146	 4.229054548	-0.322319
H	-0.3237840738	 1.9046908463	-0.3554628262	 0.113579
H	-1.8000554144	 0.9775139651	-0.6551749441	 0.114512
H	-1.3234693446	 1.3698953092	 1.000142604	 0.117998
H	-0.7892647384	-1.0418101202	 0.413297179	 0.100996
H	 0.2109648424	-0.4921032421	-0.9177545979	 0.095974
H	 1.704041494	 0.7116086326	 0.7029960779	 0.065774
H	 1.4564025459	 0.43681419	 3.1241129348	 0.09053
H	-0.2687800288	 0.1216611957	 2.8496440384	 0.106691
H	 0.2221989475	-2.2946121042	 2.4544275317	 0.125952
H	 1.7082246888	-2.2478208622	 0.4489115737	 0.105097
H	 2.9171067643	-1.3137057827	 1.3564509256	 0.089739
H	 2.6966251827	-1.7388112771	 3.9533752797	 0.241092
H	 2.1402893283	-3.4889763572	 5.2397947147	 0.070612
37.0432	61.6449	116.6865	165.1082	208.2279	223.5938	251.3321	306.5408	388.4901	430.6759	450.6361	540.5717	636.1127	762.7874	795.1488	819.7599	823.0018	913.4946	934.419	962.5591	976.8675	995.5593	1028.2449	1052.3599	1063.6571	1103.5785	1132.8897	1157.9436	1215.4966	1219.8084	1247.8012	1261.9388	1275.7931	1288.6597	1301.5723	1344.3295	1371.2212	1395.1602	1413.9617	1433.0945	1471.249	1487.6494	1496.0706	1500.4098	1507.5016	1534.1149	1806.0213	2928.8773	3014.0812	3031.7955	3036.9861	3043.5372	3047.2353	3060.5991	3096.4402	3098.0471	3101.2902	3105.0357	3128.7075	3618.6698
CCC1CC(C1)NC=O	CC[C@H]1C[C@@H](C1)NC=O	
InChI=1S/C7H13NO/c1-2-6-3-7(4-6)8-5-9/h5-7H,2-4H2,1H3,(H,8,9)	InChI=1S/C7H13NO/c1-2-6-3-7(4-6)8-5-9/h5-7H,2-4H2,1H3,(H,8,9)/t6-,7-
