16
gdb 27381	1.92237	1.82804	0.9407	7.1588	77.52	-0.2021	0.004	0.206	1180.1325	0.127134	-434.127506	-434.119415	-434.118471	-434.159682	31.893	
N	 0.1217379517	 1.3907015024	 0.1453518681	-0.590692
C	-0.0124280056	 0.0044289928	 0.0315692254	 0.420817
C	-1.1787753183	-0.6819972628	-0.0081223316	-0.343878
C	-1.2114654757	-2.1456613539	-0.0150496182	 0.410392
O	-2.2577153715	-2.788983224	-0.0477425591	-0.417169
C	 0.1096508272	-2.7765124426	-0.0255461747	-0.343878
C	 1.2485856171	-2.0455243413	 0.0145165354	 0.420815
N	 2.5471886721	-2.5522012442	 0.1125527918	-0.590693
N	 1.200441986	-0.662272244	 0.0183694092	-0.422244
H	 0.7711430548	 1.7914968201	-0.5217822228	 0.248967
H	-0.7685894199	 1.866594006	 0.0936246506	 0.260491
H	-2.1241864344	-0.1548016206	-0.054209806	 0.090134
H	 0.153464566	-3.8574406098	-0.0850116055	 0.090134
H	 2.5700114029	-3.5607686807	 0.0484926032	 0.26049
H	 3.1928094864	-2.1452827468	-0.5545482166	 0.248967
H	 1.9921135512	-0.1785936607	 0.4163861509	 0.257347
167.3367	188.2568	211.6667	294.4188	305.2037	326.6506	354.7156	497.1387	505.4641	520.5832	554.8327	603.5135	624.7564	638.0353	721.8956	731.2881	772.8988	838.9315	861.0722	941.5668	1010.8108	1032.9178	1135.6119	1154.3049	1214.8214	1255.6786	1270.3932	1361.9053	1443.2679	1534.761	1630.4961	1639.1778	1670.3662	1714.3874	1729.1813	3202.3676	3203.523	3528.653	3528.7695	3612.4432	3635.6555	3635.8293
NC1=CC(=O)C=C(N)N1	Nc1cc(=O)cc(N)[nH]1	
InChI=1S/C5H7N3O/c6-4-1-3(9)2-5(7)8-4/h1-2H,(H5,6,7,8,9)	InChI=1S/C5H7N3O/c6-4-1-3(9)2-5(7)8-4/h1-2H,(H5,6,7,8,9)
