20
gdb 122260	2.72811	0.82792	0.70059	3.1274	81.99	-0.244	0.0433	0.2873	1638.7015	0.168671	-403.078266	-403.068043	-403.067098	-403.114198	37.012	
O	 0.0323399165	 1.3793262582	 0.3436432318	-0.419918
C	 0.0412687558	 0.0180288749	-0.0556570831	-0.0745
C	-1.3627777153	-0.5365991998	 0.1446094759	-0.16536
C	-1.4717350742	-2.0162227589	-0.2407898138	-0.287652
C	-2.8775737939	-2.5810235219	-0.0712761293	 0.101364
C	-3.0319497055	-4.0073083436	 0.3486021265	-0.274682
N	-3.3471950621	-2.9311437648	 1.2947806789	-0.331776
C	-3.880734717	-1.9948346929	-0.9295714471	 0.353232
C	-4.6840018714	-1.5061362589	-1.6787768686	-0.458713
H	 0.91270404	 1.7401486917	 0.2048714721	 0.285653
H	 0.3343132697	-0.0868394208	-1.1135718749	 0.08534
H	 0.7636695368	-0.5668313331	 0.5388663404	 0.08017
H	-1.6477603713	-0.3958409215	 1.1940403329	 0.10816
H	-2.0652154818	 0.0544882894	-0.4522843008	 0.126984
H	-1.1623096034	-2.1516187044	-1.2849435499	 0.11143
H	-0.7841358026	-2.6165212006	 0.3698823262	 0.090275
H	-3.890266825	-4.574361957	 0.0020299493	 0.129406
H	-2.1223776161	-4.5873578511	 0.4857011458	 0.113072
H	-2.5753251076	-2.8047341858	 1.9467037396	 0.232108
H	-5.4069380416	-1.074130129	-2.3255292518	 0.195407
56.7624	71.6794	109.3012	137.3234	176.749	221.576	263.2332	292.4176	320.3397	389.3798	470.084	549.1372	577.1559	612.2705	652.3845	703.607	758.7153	833.4886	877.1402	905.3827	943.8744	981.8267	1017.9573	1050.1973	1072.6634	1095.114	1111.1443	1140.5068	1209.7573	1228.3894	1256.0501	1291.612	1296.8632	1314.1283	1317.7342	1376.5186	1390.3262	1463.8933	1476.1267	1499.7736	1504.644	1528.5732	2238.1506	2951.9818	2977.5036	3011.9226	3040.9834	3052.7718	3092.7923	3107.1129	3199.8573	3485.853	3502.8476	3830.4703
OCCCC1(CN1)C#C	OCCC[C@]1(CN1)C#C	
InChI=1S/C7H11NO/c1-2-7(6-8-7)4-3-5-9/h1,8-9H,3-6H2	InChI=1S/C7H11NO/c1-2-7(6-8-7)4-3-5-9/h1,8-9H,3-6H2/t7-/m0/s1
