14
gdb 32048	3.84173	1.2564	0.95247	4.127	68.65	-0.2499	-0.0542	0.1957	1158.3878	0.101458	-473.888318	-473.880645	-473.879701	-473.920868	27.595	
C	-0.0462603501	 1.3738755894	 0.0678915018	-0.230686
O	 0.0356095277	-0.0548320511	-0.058578142	-0.227385
C	 0.6464975634	-0.5211677714	-1.1302590732	 0.536941
N	 1.1573274472	 0.2444909628	-2.0404152569	-0.411724
C	 1.7535049345	-0.4176770785	-3.0826812168	 0.018752
C	 1.8270380221	-1.7667685294	-3.1948285558	-0.265044
C	 1.254418417	-2.6040648002	-2.1746811314	 0.426506
O	 1.2089324137	-3.7933923888	-2.0787860287	-0.321785
O	 0.6453701175	-1.8488338029	-1.1108081621	-0.234051
H	 0.953508128	 1.8114589631	 0.1031660703	 0.150755
H	-0.5945501668	 1.8004249466	-0.7745416061	 0.150755
H	-0.5777647559	 1.5454673037	 1.0031824553	 0.14651
H	 2.1822490994	 0.224538019	-3.8467105177	 0.130204
H	 2.3046749423	-2.2588882324	-4.0303161467	 0.130251
102.1028	145.8074	167.6591	219.0709	229.9914	396.0685	420.7794	489.6724	549.284	638.1402	735.847	785.9468	791.4913	832.0167	837.0071	972.5995	1014.3127	1046.9517	1115.9358	1137.1713	1180.8186	1207.3286	1320.4105	1390.8566	1435.3121	1480.5189	1482.779	1495.0107	1588.8309	1653.2273	1883.4576	3060.6818	3141.7911	3170.4525	3176.5422	3238.8478
COC1=NC=CC(=O)O1	COc1nccc(=O)o1	
InChI=1S/C5H5NO3/c1-8-5-6-3-2-4(7)9-5/h2-3H,1H3	InChI=1S/C5H5NO3/c1-8-5-6-3-2-4(7)9-5/h2-3H,1H3
