13
gdb 20682	4.03469	2.00797	1.37869	5.3347	65.26	-0.2472	-0.0668	0.1803	845.6412	0.096543	-390.94123	-390.93431	-390.933366	-390.972632	25.102	
C	-0.020173526	 1.5034138798	 0.0322447533	-0.489571
C	-0.0219385156	 0.0092635707	-0.0857894372	 0.404091
N	 0.098791622	-0.5865660671	-1.2173542437	-0.284125
C	 0.0578783338	-1.9806147639	-1.1763233015	 0.386902
N	-0.2617809929	-2.6717613242	-2.1914765047	-0.479327
N	 0.4418599884	-2.6305482489	 0.0577570813	-0.196905
N	 0.313978048	-2.0214414417	 1.1382745693	-0.04222
N	-0.1420735898	-0.7147099306	 1.0813755767	-0.282706
H	 0.8181491288	 1.8471787732	 0.6481233945	 0.148281
H	 0.0622897613	 1.9336597019	-0.96517865	 0.173919
H	-0.9457302635	 1.8554323113	 0.500907246	 0.151663
H	-0.1889864003	-3.66218924	-1.9492457335	 0.232166
H	-0.1002995342	-0.2630661107	 1.9826246294	 0.277832
99.869	116.2156	192.9553	315.5528	423.642	502.1015	558.0603	574.5145	591.6267	628.6395	744.7991	799.9089	893.7148	917.3682	938.6691	1015.7359	1052.3301	1061.1381	1131.0409	1268.2231	1333.4299	1404.6947	1417.1888	1475.2929	1480.0376	1614.4977	1695.4654	1729.3814	3040.1907	3098.8048	3166.152	3470.1083	3626.0658
CC1=NC(=N)N=NN1	CC1=N[C@@H]([NH])N=NN1	
InChI=1S/C3H5N5/c1-2-5-3(4)7-8-6-2/h1H3,(H2,4,5,6,7)	InChI=1S/C3H6N5/c1-2-5-3(4)7-8-6-2/h3-4H,1H3,(H,5,6,7)/t3-/m1/s1
