14
gdb 28237	5.00062	1.26613	1.02612	0.9248	65.49	-0.1783	0.0193	0.1976	1084.3752	0.101972	-473.79985	-473.792496	-473.791552	-473.83167	27.577	
N	-0.0102742514	 1.3503624439	-0.1100826664	-0.589549
C	-0.112741637	-0.022185582	 0.0454041615	 0.307211
C	-1.2089560254	-0.8468524454	 0.0946976841	-0.371982
C	-0.6811321544	-2.1682564817	 0.0926589337	 0.229214
C	 0.6536813957	-2.0474049257	 0.0741696759	 0.322942
O	 1.3180408468	-3.1981249522	 0.3665718077	-0.278442
C	 0.2341285499	-4.1537166952	 0.1921366636	 0.007758
O	-1.0202933045	-3.4819607465	 0.3818971544	-0.278407
O	 1.0840083702	-0.7880413576	 0.0489574527	-0.224211
H	 0.6411849461	 1.7743021081	 0.5412761964	 0.249371
H	 0.2351473215	 1.6416018018	-1.051547009	 0.248433
H	-2.2312074456	-0.5068436827	 0.1057875384	 0.126477
H	 0.2876412402	-4.5367787092	-0.838246454	 0.11224
H	 0.342316548	-4.9479467555	 0.9310330911	 0.138946
116.8726	155.9237	225.6436	285.8879	314.0258	318.0525	507.6111	563.7764	597.6202	640.9535	721.0164	736.7895	754.7501	811.4272	834.1733	884.0194	900.2328	1045.1374	1108.5639	1133.3828	1157.4941	1194.2283	1217.3843	1246.6856	1403.534	1431.4033	1498.0305	1520.1283	1613.8045	1664.818	1707.1815	2986.1231	3134.2168	3273.7063	3490.5988	3565.5295
NC1=CC2=C(OCO2)O1	Nc1cc2c(OCO2)o1	
InChI=1S/C5H5NO3/c6-4-1-3-5(9-4)8-2-7-3/h1H,2,6H2	InChI=1S/C5H5NO3/c6-4-1-3-5(9-4)8-2-7-3/h1H,2,6H2
