15
gdb 29487	3.39172	1.64816	1.11686	4.4162	73.53	-0.199	0.0077	0.2067	1027.2522	0.115645	-416.850633	-416.843586	-416.842641	-416.881999	27.148	
C	-0.0166135334	 1.5588725242	-0.0344853494	-0.511842
C	-0.007198579	 0.0649119452	 0.0337756288	 0.095961
C	-0.0325954679	-0.807828791	-1.0224913089	-0.099224
O	-0.014929581	-2.1338451583	-0.6484294077	-0.201987
C	 0.0231091618	-2.0968427406	 0.7032515793	 0.366281
C	 0.02959236	-0.8058368267	 1.1710818792	 0.19528
N	 0.0691097568	-0.9578804242	 2.541853464	-0.413016
C	 0.0828255157	-2.3183245614	 2.7743666827	-0.010831
N	 0.0552989226	-3.0443054742	 1.6685276336	-0.347435
H	 0.8790487088	 1.990596993	 0.4275861902	 0.129003
H	-0.052055787	 1.9010621271	-1.0721928452	 0.13241
H	-0.8844959225	 1.9819657582	 0.4849620496	 0.128864
H	-0.0638245452	-0.6329969988	-2.0856161198	 0.135329
H	 0.0854140607	-0.2422769141	 3.2473984302	 0.267734
H	 0.1132724295	-2.7169849683	 3.7768399135	 0.133472
150.5689	173.1982	237.9356	251.3273	393.2382	448.2933	533.661	594.4569	598.6706	648.1581	701.8519	721.058	759.5029	784.9073	794.0226	963.2029	1008.7157	1064.7867	1069.1706	1113.2624	1126.6944	1212.5997	1257.5315	1307.4435	1385.6247	1421.7499	1434.685	1465.9513	1481.9904	1493.9562	1549.6363	1563.8207	1624.9024	3025.0167	3073.0962	3112.9989	3259.8844	3274.6183	3679.9346
CC1=COC2=C1NC=N2	Cc1coc2c1[nH]cn2	
InChI=1S/C6H6N2O/c1-4-2-9-6-5(4)7-3-8-6/h2-3H,1H3,(H,7,8)	InChI=1S/C6H6N2O/c1-4-2-9-6-5(4)7-3-8-6/h2-3H,1H3,(H,7,8)
