23
gdb 110833	3.34835	1.08567	0.98038	1.4617	86.19	-0.2299	0.0862	0.3161	1357.384	0.203865	-388.26168	-388.251909	-388.250965	-388.295827	37.561	
C	-0.0638442363	 1.6955081387	-0.5044099491	-0.383853
C	 0.1005039953	 0.2039985709	-0.1850011047	-0.213437
C	-1.2376590359	-0.509121827	-0.1519817288	-0.014342
C	-1.8042097257	-1.2805669671	-1.3012886352	 0.070018
O	-0.7889481556	-2.0124196526	-1.9951769339	-0.331405
C	-0.6116190488	-2.8988618619	-0.8321188968	 0.407496
C	-1.2796814455	-4.2378221199	-1.1374458736	-0.412967
C	 0.8479308167	-3.0932665014	-0.4471170463	-0.441261
C	-1.5312128481	-1.9967483	 0.0045417234	-0.213872
H	 0.9065758903	 2.1993909482	-0.5480953973	 0.110782
H	-0.5590870437	 1.8370906791	-1.47076981	 0.120698
H	-0.6685050458	 2.2023243063	 0.256221122	 0.110614
H	 0.731368111	-0.2593168019	-0.9477066364	 0.120157
H	 0.6158630027	 0.0891043611	 0.776919452	 0.093297
H	-2.0154082897	 0.0593436895	 0.3605388616	 0.082375
H	-2.7188599955	-1.057975518	-1.8400388246	 0.094866
H	-0.7496685635	-4.7471892397	-1.9481012394	 0.120952
H	-1.2647297088	-4.8872956649	-0.2550049706	 0.110121
H	-2.3192294411	-4.0911536648	-1.4416911848	 0.118841
H	 1.3950001316	-3.5516135041	-1.2780802038	 0.122109
H	 1.338759649	-2.1563883395	-0.1868128679	 0.124533
H	 0.9188398367	-3.7674817084	 0.4129853022	 0.115625
H	-2.2238368793	-2.3667005827	 0.7505306322	 0.088653
77.3876	141.6679	159.7892	183.8996	234.8231	244.3379	254.9578	294.8072	359.0549	382.8759	412.6274	561.3465	624.9076	638.3212	730.1905	790.5131	814.0348	846.5324	887.8139	913.8506	929.3262	959.4971	993.7307	1000.9689	1018.8918	1048.4728	1059.0254	1063.4643	1089.4705	1131.7379	1169.5056	1203.5937	1225.6297	1255.0184	1293.0943	1310.633	1334.7867	1360.5576	1396.7524	1408.5551	1413.0263	1448.0489	1474.9009	1479.7465	1489.9814	1496.6629	1499.4355	1506.062	1506.7255	3026.4696	3030.1868	3032.6587	3043.0541	3083.465	3097.9636	3098.489	3105.4289	3106.8253	3109.7399	3120.6712	3158.8222	3165.5415	3186.217
CCC1C2OC(C)(C)C12	CC[C@H]1[C@H]2OC(C)(C)[C@@H]12	
InChI=1S/C8H14O/c1-4-5-6-7(5)9-8(6,2)3/h5-7H,4H2,1-3H3	InChI=1S/C8H14O/c1-4-5-6-7(5)9-8(6,2)3/h5-7H,4H2,1-3H3/t5-,6+,7-/m1/s1
