18
gdb 86492	2.52988	1.34271	1.04915	2.2334	73.57	-0.2384	-0.0553	0.1831	1180.8023	0.145176	-439.082979	-439.07364	-439.072696	-439.11771	33.24	
C	-0.5816907576	 1.3447960816	 0.1325231124	-0.412927
C	-0.0038267995	-0.0539985921	-0.0235187632	 0.088929
C	 0.8194572279	-0.3053806692	-1.3174065375	-0.318039
C	 2.0703043289	-0.4080709179	-0.3703257347	 0.167615
N	 1.2013691487	-0.3530134897	 0.8096140353	-0.38052
C	 2.8549188033	-1.7041875176	-0.5135553805	 0.08871
O	 3.4974585002	-1.9839249073	-1.4930897889	-0.25546
C	 3.0119779148	 0.7712584889	-0.5526317187	 0.106837
O	 3.0227109778	 1.7232542639	 0.1854745163	-0.25486
H	 0.1839210991	 2.1088140124	-0.0346361044	 0.135594
H	-1.3979563946	 1.507042531	-0.5797342543	 0.121283
H	-0.9865356035	 1.4833770959	 1.1410157493	 0.125946
H	-0.7900566478	-0.7988889766	 0.1433052548	 0.084078
H	 0.5988195961	-1.2297860908	-1.8528091948	 0.128518
H	 0.8458669451	 0.5208656144	-2.0312891326	 0.123113
H	 1.4605125906	 0.4108961089	 1.4303174347	 0.230797
H	 2.7680343122	-2.3743216712	 0.369036269	 0.103428
H	 3.6888833782	 0.6858746256	-1.4266001621	 0.116959
53.5642	89.5087	114.8509	179.8066	222.461	255.539	279.5499	323.2015	361.3989	390.6657	506.3232	665.2086	674.7862	787.4122	804.713	883.4658	908.289	915.1382	958.5303	976.7025	1000.1189	1079.3819	1116.2504	1139.8165	1182.847	1192.3661	1220.1387	1249.7959	1304.4158	1357.9731	1378.7793	1390.5668	1410.4289	1423.4277	1486.6598	1492.2572	1501.4666	1798.045	1827.4178	2905.9404	2938.3325	3030.3692	3033.8999	3074.833	3098.9508	3112.7746	3133.8767	3492.751
CC1CC(N1)(C=O)C=O	C[C@H]1CC(N1)(C=O)C=O	
InChI=1S/C6H9NO2/c1-5-2-6(3-8,4-9)7-5/h3-5,7H,2H2,1H3	InChI=1S/C6H9NO2/c1-5-2-6(3-8,4-9)7-5/h3-5,7H,2H2,1H3/t5-/m0/s1
