17
gdb 67430	2.65572	1.50038	1.23227	3.3115	74.51	-0.2397	-0.023	0.2167	1055.7638	0.13463	-421.773305	-421.765336	-421.764392	-421.805878	30.034	
C	-0.1561895498	 1.533762649	-0.0543795491	-0.528879
C	-0.0180879099	 0.0476672546	-0.0018043539	 0.219503
C	 0.0677430327	-1.0470196483	-0.9828964765	 0.009628
O	 1.1991794344	-1.6857494227	-0.424844905	-0.28942
C	 0.8925387936	-0.9622906161	 0.8085838765	 0.021946
C	-0.3699552396	-1.6809532693	 1.3395554001	-0.295448
C	-1.0676100995	-1.0950569167	 0.1190086127	 0.172352
C	-2.4840430579	-1.0599258812	-0.2270732134	 0.038227
O	-3.3593124301	-1.6157833218	 0.3977702835	-0.271147
H	 0.7955622916	 2.0034316314	-0.3258863887	 0.137807
H	-0.8995119434	 1.8298409138	-0.8011307886	 0.135725
H	-0.4732384185	 1.9419619281	 0.9111089154	 0.135228
H	-0.1286829286	-1.1199428963	-2.0449522432	 0.123665
H	 1.768855809	-0.741606312	 1.413928192	 0.097562
H	-0.2992505016	-2.7666131492	 1.4416330883	 0.117218
H	-0.7465046662	-1.2307353109	 2.2608442065	 0.118481
H	-2.7222428861	-0.4684209925	-1.1432265966	 0.05755
90.7245	157.9344	198.3559	216.2697	233.5062	310.5739	438.6622	471.7266	534.5707	612.3696	660.1482	720.2665	805.5454	826.9135	910.3421	924.1195	928.0152	972.687	1018.633	1035.7245	1047.7374	1098.2223	1102.2451	1132.8648	1172.1075	1176.9888	1217.6765	1248.2411	1284.9251	1355.9624	1411.7138	1427.5756	1466.598	1483.1486	1488.6733	1497.6981	1792.9493	2839.9541	3030.4994	3067.039	3094.5163	3104.5011	3128.0709	3151.3752	3207.2754
CC12C3OC1CC23C=O	C[C@@]12[C@H]3O[C@@H]1C[C@@]23C=O	
InChI=1S/C7H8O2/c1-6-4-2-7(6,3-8)5(6)9-4/h3-5H,2H2,1H3	InChI=1S/C7H8O2/c1-6-4-2-7(6,3-8)5(6)9-4/h3-5H,2H2,1H3/t4-,5-,6+,7+/m1/s1
