20
gdb 54682	3.29498	1.13601	0.87372	4.6387	86.19	-0.1956	-0.0123	0.1833	1337.1863	0.172242	-403.196489	-403.187468	-403.186524	-403.230344	33.735	
C	 0.0756505294	 1.5278280366	 0.02183996	-0.490018
C	 0.0842849149	 0.0033226401	-0.00990319	 0.310365
O	 1.1502607799	-0.5973590932	-0.0489692097	-0.354845
C	-1.2154504036	-0.681724301	 0.0122521517	 0.096198
C	-1.1994908222	-2.0403912457	-0.019572089	 0.006419
N	-2.3052889236	-2.8247530535	-0.004594108	-0.296956
C	-3.62280837	-2.2467167559	 0.21217173	-0.154389
C	-3.6832951277	-0.8619353216	-0.4412327136	-0.209092
C	-2.5445102813	 0.0452625471	 0.0592458018	-0.321451
H	 1.1034752943	 1.8841033293	 0.0972704718	 0.131764
H	-0.3772702661	 1.9334235641	-0.8905357427	 0.129804
H	-0.5101947482	 1.909397107	 0.8655117544	 0.124738
H	-0.2432054789	-2.5499563851	-0.0772095293	 0.13485
H	-2.1917354544	-3.8182109426	 0.0961905028	 0.251973
H	-4.3757866795	-2.9133169544	-0.2200817671	 0.110266
H	-3.8381008941	-2.1617909264	 1.2886907943	 0.108332
H	-3.5988328746	-0.9855174252	-1.5268064429	 0.113681
H	-4.6583368915	-0.4085079089	-0.2389753862	 0.101171
H	-2.7713426572	 0.3914712703	 1.0784769131	 0.103263
H	-2.5179502456	 0.9493559489	-0.5589158015	 0.103927
81.2426	91.5937	162.5726	208.2049	238.5278	275.1262	321.2101	353.3469	450.4834	469.9093	545.4565	565.1304	613.0264	659.7033	775.1206	869.3199	885.7902	938.187	968.4262	978.8712	1012.4153	1041.5552	1061.6125	1083.1193	1109.612	1199.0995	1212.8557	1232.7123	1295.3916	1325.1064	1340.2312	1368.9983	1376.4039	1386.6252	1391.8074	1465.3827	1478.0535	1482.8965	1489.824	1506.0784	1536.5249	1642.7189	1747.6767	2980.7757	2992.7446	3030.8625	3040.5964	3058.9418	3071.9902	3089.9817	3091.4513	3149.3245	3197.4499	3663.6417
CC(=O)C1=CNCCC1	CC(=O)C1=CNCCC1	
InChI=1S/C7H11NO/c1-6(9)7-3-2-4-8-5-7/h5,8H,2-4H2,1H3	InChI=1S/C7H11NO/c1-6(9)7-3-2-4-8-5-7/h5,8H,2-4H2,1H3
