19
gdb 48788	2.71383	1.44466	1.14604	2.9897	81.46	-0.2433	-0.0239	0.2194	1121.2722	0.15867	-385.859146	-385.850952	-385.850008	-385.891821	31.743	
O	-0.1504652067	 0.1566339939	-0.712898881	-0.280877
C	 0.0694181796	 0.9977807917	 0.1313120299	 0.054674
C	 1.219175119	 1.9111354197	 0.1190072331	 0.178971
C	 2.0730410106	 2.0781414635	-1.1217075057	-0.32165
C	 2.7136409887	 1.4409451087	 0.055439873	-0.073428
C	 3.087966124	 2.4646574233	 1.1360532845	-0.315254
C	 1.6193980543	 2.9395308953	 1.1644180696	 0.293586
C	 1.1111041487	 4.3459166983	 1.3026547959	-0.31863
C	 0.8486471192	 3.3261946171	 2.3910142118	-0.341874
H	-0.6034406072	 1.1082485743	 1.0108921438	 0.065912
H	 1.7982529999	 1.4074152525	-1.9284617905	 0.144444
H	 2.34985337	 3.0863224765	-1.419067941	 0.116571
H	 3.0289191306	 0.4052622553	 0.037442804	 0.113158
H	 3.3951669935	 1.9966385305	 2.0747474223	 0.112541
H	 3.8418682844	 3.2035211044	 0.8433153508	 0.10409
H	 1.8329555678	 5.130937509	 1.5036132969	 0.115105
H	 0.2757420435	 4.6542357663	 0.6820781221	 0.116442
H	-0.1665661335	 2.9629296816	 2.5102062144	 0.120367
H	 1.3961627538	 3.4168780779	 3.3239056761	 0.115851
106.4344	130.9323	179.6152	206.4798	285.6357	302.2306	400.3953	471.4574	497.0838	563.488	727.6008	764.7894	774.4242	814.9473	858.7554	887.0438	905.111	930.3087	942.1704	991.9062	1005.6979	1048.1826	1054.3921	1062.7615	1078.3695	1083.9363	1104.2694	1158.8869	1178.0584	1187.9918	1249.6242	1274.0941	1281.9825	1372.4993	1384.2878	1438.5776	1464.563	1470.1891	1490.6097	1506.0524	1787.1874	2876.7448	3040.9355	3099.5989	3116.7764	3124.6072	3128.6188	3196.823	3202.8108	3217.3119	3221.0347
O=CC12CC1CC21CC1	O=C[C@]12C[C@H]1CC12CC1	
InChI=1S/C8H10O/c9-5-8-4-6(8)3-7(8)1-2-7/h5-6H,1-4H2	InChI=1S/C8H10O/c9-5-8-4-6(8)3-7(8)1-2-7/h5-6H,1-4H2/t6-,8-/m1/s1
