19
gdb 108936	4.72872	1.01444	0.90949	1.6053	80.17	-0.1981	0.0612	0.2593	1333.4217	0.160134	-419.213563	-419.204707	-419.203763	-419.247768	32.472	
C	 0.0347064696	 1.430384644	-0.0133796514	-0.327614
N	-0.0602965454	-0.0178972896	-0.0923661754	-0.37298
C	 0.5586159289	-0.7352210664	-1.071764672	 0.486197
N	 0.8659562493	-1.9758550855	-1.0193695059	-0.411517
C	 1.4025495456	-2.3007809738	-2.3185770487	 0.349571
C	 2.4763497396	-3.3448455495	-2.446495432	-0.318416
C	 1.0766465653	-3.6265633893	-2.9534341975	-0.316176
C	 1.4281906336	-0.9871318306	-3.1145004176	-0.170167
O	 0.8162281915	-0.0385451377	-2.2165063974	-0.26169
H	 1.0209745433	 1.7856987613	 0.3184178947	 0.120218
H	-0.1719462112	 1.860871784	-0.9938077823	 0.156335
H	-0.7192695677	 1.7943051966	 0.6887899602	 0.12829
H	-0.1011587302	-0.521002316	 0.780337451	 0.256252
H	 3.2647515201	-3.1854026657	-3.1763384313	 0.104534
H	 2.7931997444	-3.8353565677	-1.5332227543	 0.12149
H	 0.4567763307	-4.3053871414	-2.3790778546	 0.121824
H	 0.9156328926	-3.6568095988	-4.0271000061	 0.104322
H	 2.4402719653	-0.6374851871	-3.3470407955	 0.113295
H	 0.8398412949	-1.016461467	-4.037170824	 0.116232
51.8691	95.4087	114.616	183.4535	212.4017	298.6874	303.8631	459.9977	473.2561	515.677	600.897	707.3581	726.1409	773.0583	834.5066	855.3799	916.7282	930.094	946.6105	999.2087	1033.6557	1052.2202	1065.4894	1082.5672	1089.7538	1152.5074	1187.089	1190.9758	1214.645	1263.4883	1302.9659	1388.9498	1419.9868	1453.5321	1457.4991	1475.5656	1495.3056	1499.8707	1520.6437	1527.2885	1745.458	3000.2103	3032.6469	3077.2733	3095.7946	3121.5766	3125.8075	3148.0377	3210.8801	3225.4159	3634.4624
CNC1=NC2(CC2)CO1	CNC1=NC2(CC2)CO1	
InChI=1S/C6H10N2O/c1-7-5-8-6(2-3-6)4-9-5/h2-4H2,1H3,(H,7,8)	InChI=1S/C6H10N2O/c1-7-5-8-6(2-3-6)4-9-5/h2-4H2,1H3,(H,7,8)
