23
gdb 113436	3.75572	0.86091	0.80401	1.5333	87.28	-0.2192	0.0877	0.307	1576.4447	0.20401	-388.27166	-388.261762	-388.260818	-388.306896	37.093	
C	-0.0478739345	 1.6370741263	-0.9241113871	-0.368374
C	 0.0129215462	 0.3702147648	-0.0627116117	-0.198836
C	-1.3390425884	-0.2883606729	 0.1167353265	-0.071436
C	-1.9081455481	-1.216251221	-0.9555770226	-0.366492
C	-1.4717430445	-1.7525102839	 0.3715811553	 0.450048
C	-0.4254194769	-2.8115691148	 0.697084272	-0.380946
C	-1.5205423134	-3.3805402732	 1.6313962616	 0.15927
C	-1.2247115267	-3.4756558588	 3.1135992786	-0.396924
O	-2.4087133745	-2.2730617221	 1.316539728	-0.325728
H	 0.9434152312	 2.0857680167	-1.0431114458	 0.108458
H	-0.4408591849	 1.4141419823	-1.9214918938	 0.118474
H	-0.7033166514	 2.3892431431	-0.4717756969	 0.115127
H	 0.707638835	-0.3475273953	-0.5181372402	 0.092765
H	 0.4328720103	 0.6157774414	 0.9218444579	 0.096749
H	-2.0829280161	 0.3198988303	 0.627971041	 0.090878
H	-2.9747058223	-1.174262734	-1.1491509452	 0.118267
H	-1.2945419561	-1.4339777352	-1.8259538699	 0.105804
H	-0.1167370864	-3.4548362179	-0.128880052	 0.108527
H	 0.4602323847	-2.4399875754	 1.219543708	 0.107554
H	-1.9517727444	-4.322171729	 1.2660526095	 0.076133
H	-0.7769280415	-2.5467545645	 3.4802930245	 0.119727
H	-2.1458836412	-3.6577486078	 3.6760681734	 0.126894
H	-0.5328110762	-4.301406109	 3.3140023589	 0.114062
47.6711	78.4889	126.7379	165.1831	228.6599	240.8909	289.0895	314.9184	376.0619	384.4403	413.9544	512.055	596.993	759.9721	781.7933	808.8745	859.5996	896.5132	903.8943	914.793	925.2462	947.3854	975.655	1025.2714	1038.3365	1075.2374	1095.3692	1111.5389	1127.8294	1135.2847	1180.3891	1199.8926	1211.0849	1243.4277	1289.9765	1311.1161	1334.9214	1358.8153	1386.1737	1406.9937	1408.7681	1423.9874	1479.5221	1482.3289	1485.8294	1496.6115	1497.2869	1502.8222	1506.6072	3009.7744	3012.2233	3031.7588	3032.3064	3043.2658	3063.198	3099.7486	3104.0022	3104.268	3112.1252	3115.0911	3119.7723	3129.5199	3208.8664
CCC1CC11CC(C)O1	CC[C@H]1C[C@]21C[C@@H](C)O2	
InChI=1S/C8H14O/c1-3-7-5-8(7)4-6(2)9-8/h6-7H,3-5H2,1-2H3	InChI=1S/C8H14O/c1-3-7-5-8(7)4-6(2)9-8/h6-7H,3-5H2,1-2H3/t6-,7+,8+/m1/s1
