17
gdb 66691	2.54157	2.00393	1.658	2.2695	71.08	-0.2247	0.0692	0.2939	884.7727	0.13602	-421.736773	-421.729707	-421.728763	-421.76761	29.541	
O	-0.0921404692	 1.2938726724	 0.1532887468	-0.455154
C	 0.0442535888	-0.0695417142	 0.0590564106	 0.347843
C	-0.6164751711	-1.0732217372	-0.8870228255	-0.297541
C	 0.4511624052	-2.0800077316	-0.3672688136	-0.045546
C	 1.2861165196	-0.9481829718	 0.3488968412	-0.118963
C	 1.0461803107	-1.6241809569	 1.7237109972	-0.25616
C	-0.2302486052	-2.1933949252	 1.0518437255	-0.118978
C	-1.0635380134	-0.9792569676	 0.5725379342	 0.347848
O	-2.1945972325	-0.4326482775	 1.1277905501	-0.455153
H	 0.3529777186	 1.6951060939	-0.600735887	 0.287448
H	-1.1473142259	-0.9547890841	-1.8224748935	 0.09033
H	 0.8822062875	-2.9138666386	-0.9145369762	 0.070813
H	 2.2659524796	-0.6090934607	 0.0105439337	 0.05888
H	 1.7832217437	-2.4075452113	 1.9259301087	 0.094836
H	 0.9288399168	-0.9844529257	 2.6038101606	 0.103171
H	-0.7485063738	-3.084529883	 1.4079769145	 0.058877
H	-2.9394621795	-1.0088201308	 0.9256124828	 0.287448
217.2703	229.8569	271.903	326.0919	331.2565	424.9956	483.4382	527.4778	658.9887	660.1594	732.3265	775.6474	781.4019	825.4368	834.624	866.2619	887.0534	898.5395	971.5115	972.407	992.6561	1045.1671	1068.1371	1084.7794	1115.3205	1121.4084	1168.7573	1198.6076	1219.2919	1229.4565	1247.2616	1267.4185	1277.4757	1308.721	1392.5861	1486.9058	1492.762	3045.1754	3101.667	3107.0151	3108.6508	3151.009	3201.3267	3798.8007	3798.8655
OC12C3C4C1CC4C23O	O[C@@]12[C@H]3[C@H]4[C@@H]1C[C@H]4[C@@]23O	
InChI=1S/C7H8O2/c8-6-2-1-3-4(2)5(6)7(3,6)9/h2-5,8-9H,1H2	InChI=1S/C7H8O2/c8-6-2-1-3-4(2)5(6)7(3,6)9/h2-5,8-9H,1H2/t2-,3+,4-,5+,6+,7-
