12
gdb 62370	2.48769	1.81008	1.19413	2.9967	59.68	-0.2814	-0.0502	0.2311	955.2497	0.074913	-472.547804	-472.540181	-472.539237	-472.579951	28.052	
O	-0.0533306642	 1.3984561815	-0.0393206193	-0.445954
C	 0.0396347762	 0.0143430098	-0.0205651726	 0.33467
C	 1.0251382354	-0.5007394239	-0.9790567579	 0.203538
N	 1.8286824999	-0.8828032867	-1.7164517671	-0.315536
C	-0.0406159124	-0.7122185936	 1.3789692493	-0.136883
O	-1.4456197592	-0.2593534039	 1.4668526144	-0.290723
C	-1.3539000257	-0.6817601353	 0.0502723255	-0.103827
C	-0.6565001677	-1.9388309841	 0.6500811342	 0.459376
O	-0.7334208823	-3.1172099259	 0.6989378752	-0.286914
H	 0.8173403015	 1.7772443867	 0.1280001728	 0.306586
H	 0.5961265237	-0.6003608387	 2.2532720716	 0.134966
H	-2.2169222753	-0.5311527057	-0.592825276	 0.140701
111.3659	149.9281	204.7166	268.5521	290.7844	326.8251	479.5205	509.7479	526.8089	536.329	622.7347	724.1502	783.2127	791.4149	829.1566	893.1373	981.5057	1046.5043	1076.8924	1120.5772	1133.7097	1179.0575	1216.2285	1255.9167	1368.689	1955.0881	2353.4677	3165.3109	3174.9866	3806.6542
OC1(C#N)C2OC1C2=O	O[C@@]1(C#N)[C@H]2O[C@@H]1C2=O	
InChI=1S/C5H3NO3/c6-1-5(8)3-2(7)4(5)9-3/h3-4,8H	InChI=1S/C5H3NO3/c6-1-5(8)3-2(7)4(5)9-3/h3-4,8H/t3-,4+,5-
