18
gdb 73092	2.52721	1.82444	1.38836	2.5587	71.75	-0.2416	0.0234	0.265	971.5165	0.149219	-439.082517	-439.074874	-439.07393	-439.114367	30.162	
O	 0.0117288584	 1.3237202712	-0.5381103246	-0.479311
C	 0.0402806643	 0.0163143371	 0.0036270234	 0.354998
C	 0.2978927928	-1.093262753	-1.056021426	-0.286286
C	-1.2365312461	-1.3131491914	-1.156565525	-0.214709
C	-1.4118708224	-0.5099593918	 0.1703645617	-0.010418
N	-1.6227754405	-1.3949281361	 1.3013996159	-0.265156
C	-0.6523852586	-1.6772696151	 2.0606376575	 0.122454
O	 0.6222580347	-1.2074317727	 2.049331379	-0.222965
C	 0.8307586885	-0.0021618752	 1.3031081984	-0.152448
H	 0.8665869394	 1.5005399566	-0.9467407207	 0.279685
H	 0.8175519406	-0.7633735036	-1.9596010819	 0.093308
H	 0.8261734664	-1.9541082258	-0.6377779011	 0.114101
H	-1.6800377484	-0.7965034421	-2.0097454349	 0.111351
H	-1.5979772687	-2.3414538645	-1.1237635082	 0.110139
H	-2.180628079	 0.2664009402	 0.1619702603	 0.091485
H	-0.7668694022	-2.4070159957	 2.8602814376	 0.124124
H	 1.9108464906	 0.0666961681	 1.1364378268	 0.108095
H	 0.5119929201	 0.8540531238	 1.9108286619	 0.121553
111.2614	168.7041	261.6379	289.906	322.022	358.7066	408.4223	491.4316	514.3313	545.5075	662.7747	722.7897	813.6006	845.3302	883.0088	922.1253	954.299	963.1485	975.4643	1001.694	1012.1267	1097.8627	1121.9265	1158.7136	1175.0958	1200.2356	1220.5749	1249.0561	1267.6452	1273.1577	1296.2548	1324.8316	1360.3784	1401.4571	1415.3604	1466.8769	1484.4753	1498.8627	1727.3498	3026.5663	3057.8387	3075.5525	3081.2445	3083.9612	3111.0663	3142.185	3157.7121	3795.1085
OC12CCC1N=COC2	O[C@]12CC[C@H]1N=COC2	
InChI=1S/C6H9NO2/c8-6-2-1-5(6)7-4-9-3-6/h4-5,8H,1-3H2	InChI=1S/C6H9NO2/c8-6-2-1-5(6)7-4-9-3-6/h4-5,8H,1-3H2/t5-,6+/m1/s1
