18
gdb 87757	4.88349	0.85202	0.80719	4.0976	75.68	-0.2466	0.0186	0.2652	1436.7703	0.145893	-439.075193	-439.066131	-439.065187	-439.110774	32.07	
C	-0.1430013102	 1.544571891	 0.136533536	-0.41977
C	-0.1142503356	 0.0397413145	 0.1634722465	-0.013018
O	 1.0969370981	-0.5987439951	-0.2987475461	-0.279288
C	 0.7514015521	-0.7244241214	 1.0593832198	 0.395167
C	 1.6546589873	-0.2562686366	 2.217468489	-0.266767
N	 1.3522716301	-1.5401252647	 2.8620320759	-0.056476
C	 0.5322465038	-2.0717236656	 1.7692811079	-0.256495
C	 1.5874680854	-2.0439285021	 4.0929388482	 0.137789
O	 1.179402105	-3.1182382032	 4.4838229742	-0.329924
H	 0.7894092161	 1.9630600341	 0.5245385937	 0.12948
H	-0.2799093172	 1.9070063279	-0.8871594479	 0.138478
H	-0.9753796276	 1.921395679	 0.7405566286	 0.128984
H	-1.0211718759	-0.454385854	-0.1896946848	 0.100549
H	 2.7055514058	-0.1285920065	 1.9336529354	 0.130907
H	 1.3140682471	 0.6268086296	 2.7702339233	 0.122626
H	-0.4944459306	-2.3160137205	 2.0602632158	 0.131188
H	 0.9786029762	-2.929708736	 1.2552681632	 0.136576
H	 2.2028091699	-1.3576662204	 4.7106986714	 0.069991
13.0061	106.215	148.2323	180.396	197.461	226.0118	318.7438	382.4432	442.0249	458.8407	486.2522	639.1121	780.8437	806.8692	876.7619	925.2282	958.3737	968.8352	1032.1648	1034.2239	1103.1735	1122.9685	1128.9267	1135.6828	1166.8626	1179.3858	1206.15	1274.2003	1290.8207	1362.5869	1398.0747	1411.5692	1446.8382	1476.6199	1491.5236	1495.367	1514.097	1543.879	1792.3979	2922.1059	3024.6608	3039.2525	3042.4034	3072.9457	3089.6316	3094.2823	3105.6788	3125.6313
CC1OC11CN(C1)C=O	C[C@H]1OC21CN(C2)C=O	
InChI=1S/C6H9NO2/c1-5-6(9-5)2-7(3-6)4-8/h4-5H,2-3H2,1H3	InChI=1S/C6H9NO2/c1-5-6(9-5)2-7(3-6)4-8/h4-5H,2-3H2,1H3/t5-/m1/s1
