19
gdb 65603	3.70505	1.18309	1.17648	2.3463	75.51	-0.2652	-0.0367	0.2285	1122.5945	0.159593	-423.039627	-423.031609	-423.030665	-423.072016	31.782	
O	-0.3700536211	 0.9736330095	 0.6717560667	-0.471086
C	 0.0216295804	-0.2174613806	 0.0277233868	 0.268543
C	 0.8538974098	-1.1288339444	 0.9825643939	-0.255084
C	-0.1559805309	-2.0531442244	 1.6448415942	-0.036275
C	-1.4083725634	-1.4287668485	 2.2117185653	-0.286031
C	-1.4270765055	-2.0283508722	 0.826251328	-0.036268
C	-1.2161127531	-1.088530473	-0.3507032367	-0.255003
C	 0.8243400192	 0.1368228181	-1.2070087087	 0.112791
O	 1.051661253	 1.2789622185	-1.5246045539	-0.273162
H	-0.006761719	 1.6947603465	 0.1324356186	 0.290469
H	 1.5754676723	-1.7276830911	 0.4109537567	 0.094631
H	 1.4155263817	-0.4985737165	 1.6774955998	 0.119467
H	 0.2109247356	-2.9742578668	 2.0838078786	 0.082654
H	-1.9208986758	-1.9828457924	 2.9906381516	 0.105615
H	-1.4532479944	-0.3509613642	 2.3142935249	 0.145795
H	-2.0037191244	-2.9309694429	 0.6572598844	 0.082643
H	-2.0635692424	-0.4311891277	-0.5635024257	 0.119492
H	-1.0101384037	-1.6775209143	-1.2544214013	 0.094628
H	 1.1942417019	-0.7201351935	-1.8069468132	 0.096181
88.0056	129.78	249.277	319.3332	342.4065	358.1235	391.7296	401.5067	470.7907	494.8419	633.6074	756.2842	770.1173	827.524	836.972	862.3616	876.6456	903.8089	966.0683	992.8012	1029.6983	1040.3934	1053.3715	1086.1292	1094.5438	1096.2243	1128.9893	1161.815	1209.7015	1212.9046	1293.6724	1308.5388	1310.282	1339.365	1387.4482	1402.4402	1432.6318	1468.4604	1476.9025	1497.9294	1811.8752	2923.9998	3018.681	3022.7148	3093.3433	3094.9063	3139.3503	3164.2657	3174.0275	3231.3894	3675.4408
OC1(CC2CC2C1)C=O	O[C@]1(C[C@H]2C[C@H]2C1)C=O	
InChI=1S/C7H10O2/c8-4-7(9)2-5-1-6(5)3-7/h4-6,9H,1-3H2	InChI=1S/C7H10O2/c8-4-7(9)2-5-1-6(5)3-7/h4-6,9H,1-3H2/t5-,6+,7+
