18
gdb 54156	2.16144	1.45611	1.09921	4.0819	77.62	-0.2569	-0.031	0.2259	1164.8937	0.145458	-401.976994	-401.967491	-401.966547	-402.011356	34.64	
C	 0.673819203	 0.5789531708	-0.7837913794	-0.518676
C	-0.2756579059	 0.2987144058	 0.3649984267	 0.342422
O	-0.1813171063	 0.8955005613	 1.4144546139	-0.294394
C	-1.4090661707	-0.6979261545	 0.1956839929	 0.193547
C	-2.4735522082	-0.587125571	 1.2711672717	-0.449685
C	-1.824603129	-1.1578000265	-1.1800636566	-0.325426
C	-1.1115495805	-2.1386433055	-0.2790996242	-0.192543
C	 0.2051484773	-2.6129259387	-0.5975419587	 0.29713
N	 1.2578149768	-3.0181482739	-0.8565561612	-0.340943
H	 1.1249269597	-0.3308957751	-1.1876872971	 0.172019
H	 0.1338237808	 1.0718057287	-1.6005197061	 0.142549
H	 1.4566651174	 1.2469589659	-0.4241596707	 0.15026
H	-2.931660221	 0.4057292177	 1.2512804338	 0.136862
H	-3.2603217021	-1.3318908298	 1.1198471748	 0.110739
H	-2.0370087273	-0.7261939838	 2.2620766286	 0.1502
H	-2.8806644221	-1.3272501844	-1.3573262032	 0.137132
H	-1.2740119104	-0.7919154275	-2.0377053099	 0.143718
H	-1.7235243415	-2.8914957296	 0.2071936147	 0.14509
57.6581	137.4258	142.1719	161.7842	208.5967	263.2248	286.123	325.0794	362.4592	436.2679	486.5962	528.8482	568.0762	648.992	655.6922	773.4721	848.9702	881.7083	938.2338	956.9341	998.7861	1053.1306	1086.8032	1094.9359	1112.4261	1139.3087	1155.4216	1274.4373	1332.1254	1385.3777	1395.4567	1418.633	1465.1799	1479.3291	1482.8453	1490.4079	1497.1237	1791.024	2349.7555	3043.7439	3047.956	3116.3873	3116.6019	3136.2018	3149.0208	3159.6488	3166.4929	3241.5898
CC(=O)C1(C)CC1C#N	CC(=O)[C@@]1(C)C[C@H]1C#N	
InChI=1S/C7H9NO/c1-5(9)7(2)3-6(7)4-8/h6H,3H2,1-2H3	InChI=1S/C7H9NO/c1-5(9)7(2)3-6(7)4-8/h6H,3H2,1-2H3/t6-,7+/m0/s1
