21
gdb 110036	2.0075	1.65154	1.05287	1.8291	79.23	-0.2247	-0.0231	0.2016	1216.4293	0.181517	-424.252896	-424.243306	-424.242362	-424.287425	35.186	
C	 0.2698736709	 1.2898329669	-0.2864927535	-0.242116
O	 0.0636469331	-0.0941515105	-0.0630079068	-0.256473
C	 0.5448815975	-0.5598867878	 1.1932931752	 0.016101
C	 0.0408999247	-1.9904305328	 1.4138548169	-0.004263
C	-1.4465960846	-2.2060581439	 1.1478691168	-0.408551
C	 0.9904895047	-2.8432165965	 0.5362633652	-0.219306
C	 2.3701423472	-2.1905003512	 0.7188623788	-0.322477
C	 2.0769320371	-0.7256981808	 1.0558867257	 0.403821
O	 2.8855944038	 0.1630681931	 1.1513130094	-0.323412
H	 1.3335888169	 1.555078575	-0.2813974852	 0.137879
H	-0.1575056479	 1.5157849007	-1.266309267	 0.125443
H	-0.242680796	 1.8933379128	 0.4777515425	 0.107423
H	 0.2770108581	 0.1419945964	 1.9948785741	 0.072563
H	 0.2551076917	-2.227961464	 2.4663098193	 0.076799
H	-1.7025024546	-1.9174949762	 0.1258339494	 0.13576
H	-1.7136809743	-3.2586577746	 1.2877014161	 0.110692
H	-2.0641247586	-1.6117637658	 1.8295551641	 0.111817
H	 0.9738930479	-3.8992594767	 0.8177671015	 0.098524
H	 0.673973241	-2.7738823486	-0.5094939493	 0.118114
H	 2.9108200634	-2.6174752704	 1.5735693665	 0.130794
H	 3.0379664281	-2.2652645548	-0.1431362395	 0.130868
62.6418	116.7723	156.0861	178.2292	201.3128	212.5624	243.191	288.8727	383.8678	443.1212	514.99	534.4948	595.7046	634.4158	800.3613	821.5202	867.9251	923.8065	946.4689	969.1594	1001.2169	1054.6068	1084.2908	1116.8086	1143.3086	1172.466	1179.1921	1189.334	1224.8316	1236.4818	1257.7744	1298.6048	1315.3144	1347.1928	1359.1105	1384.8763	1410.0132	1447.7238	1477.383	1485.2074	1491.9505	1497.0198	1503.452	1514.901	1836.5008	2991.3829	2997.7509	3017.6459	3035.9679	3038.1854	3054.8591	3065.5001	3096.4655	3098.5952	3106.4893	3120.9708	3127.9017
COC1C(C)CCC1=O	CO[C@H]1[C@@H](C)CCC1=O	
InChI=1S/C7H12O2/c1-5-3-4-6(8)7(5)9-2/h5,7H,3-4H2,1-2H3	InChI=1S/C7H12O2/c1-5-3-4-6(8)7(5)9-2/h5,7H,3-4H2,1-2H3/t5-,7-/m0/s1
