17
gdb 42907	3.30267	1.44097	1.18295	2.5442	72.7	-0.2253	-0.0203	0.205	1056.8112	0.136179	-417.942277	-417.934539	-417.933595	-417.974884	29.223	
O	-0.1022554293	-0.0288373315	 0.2581403129	-0.306998
C	-0.0664355988	 1.1621477717	 0.1983841617	 0.370778
C	-1.1295796852	 2.2975694971	 0.1095217275	-0.091541
C	 0.0879161893	 3.2002040463	-0.1292356162	-0.031878
C	 1.0436438735	 3.0911335496	 0.9734006316	-0.249771
N	 1.0755814153	 2.0189153276	-0.0735431614	-0.173846
N	-2.0872019634	 2.2634638279	-0.9759953372	-0.09589
C	-1.8169094865	 1.4495514462	-2.1633915855	-0.238303
C	-2.856911821	 1.0359134838	-1.1813012945	-0.222501
H	-1.675244506	 2.4973122136	 1.037747107	 0.110087
H	 0.1609568755	 3.9222299057	-0.9320351711	 0.124991
H	 1.9414477979	 3.6995983777	 0.9542106764	 0.144509
H	 0.6948220064	 2.8312633995	 1.9703547695	 0.133177
H	-2.1022085434	 1.9117543098	-3.1035584626	 0.120742
H	-0.9092014461	 0.8530033479	-2.2037770926	 0.140841
H	-2.621550705	 0.1779617988	-0.5574918217	 0.1453
H	-3.9108825031	 1.1840092482	-1.3987325039	 0.120302
70.5261	143.4599	156.8164	211.7046	326.3197	383.4518	440.8506	494.7429	659.1088	671.6949	757.4942	784.0117	820.2863	840.3089	893.365	929.5306	938.6948	1012.0696	1034.9453	1043.2701	1078.4628	1083.4349	1118.8244	1125.6653	1133.5291	1154.4909	1177.9234	1191.3094	1222.0411	1241.3058	1313.5468	1330.935	1366.6511	1492.6679	1506.312	1517.5325	1892.9023	3051.3904	3111.6343	3113.0093	3114.8799	3195.3691	3204.93	3209.2899	3215.0945
O=C1C(C2CN12)N1CC1	O=C1[C@@H]([C@H]2CN12)N1CC1	
InChI=1S/C6H8N2O/c9-6-5(7-1-2-7)4-3-8(4)6/h4-5H,1-3H2	InChI=1S/C6H8N2O/c9-6-5(7-1-2-7)4-3-8(4)6/h4-5H,1-3H2/t4-,5-,8?/m1/s1
