21
gdb 86724	3.05657	1.00716	0.81967	3.4258	86.97	-0.2355	-0.0212	0.2143	1445.273	0.181228	-387.126575	-387.116991	-387.116047	-387.161512	35.232	
C	 0.0391907925	 1.5822626662	-0.0636094838	-0.403403
C	 0.0435632326	 0.0521365643	 0.0370780552	-0.060475
C	 0.7237044819	-0.6411236406	-1.1708847192	-0.258344
C	 1.4533676603	-1.8908234248	-0.6065520106	-0.100828
C	 2.8166726275	-2.0838080254	-1.2412282921	 0.158656
O	 3.2114411603	-3.0975962366	-1.7552003488	-0.252081
C	 1.5550755987	-1.5606006557	 0.8697854993	-0.207332
C	 0.8033101445	-0.5164007298	 1.2256689207	 0.332064
C	 0.6243023428	 0.0198916774	 2.6115848756	-0.496103
H	 1.0615965715	 1.9747600922	-0.1046796106	 0.116511
H	-0.4818272913	 1.9088776097	-0.9694287341	 0.118277
H	-0.4657916168	 2.0427091866	 0.7913904237	 0.116489
H	-1.0041948783	-0.2788130469	 0.1147166631	 0.081308
H	 0.0255263581	-0.8953204002	-1.9717350142	 0.10995
H	 1.4661760101	 0.0458111643	-1.598330132	 0.101746
H	 0.8896072881	-2.817651095	-0.7704993496	 0.093068
H	 3.4623762798	-1.1737409337	-1.1864129951	 0.066971
H	 2.1449184842	-2.1619687638	 1.5539193568	 0.097339
H	 1.2008133135	-0.5535525204	 3.3419435563	 0.126503
H	 0.9373347786	 1.068668608	 2.67939061	 0.13203
H	-0.4313028689	-0.0090007959	 2.9115677695	 0.127655
56.6136	68.0337	136.195	188.1895	228.5318	257.0348	296.4377	334.4372	384.9881	393.073	426.3136	552.5743	585.1258	696.5061	772.1597	854.447	884.5568	906.5799	953.6613	963.9906	1011.0744	1024.221	1045.419	1069.3517	1093.513	1120.6679	1143.8845	1179.249	1233.1507	1262.0685	1276.5917	1295.2183	1330.1322	1339.5566	1369.2301	1407.5139	1413.7703	1420.6093	1478.6875	1484.6089	1487.2912	1498.5375	1502.6345	1711.403	1832.5717	2838.5663	2974.5741	3019.4223	3020.9842	3029.0896	3031.0881	3067.5127	3096.6653	3101.0113	3102.816	3114.062	3183.6402
CC1CC(C=O)C=C1C	C[C@H]1C[C@@H](C=O)C=C1C	
InChI=1S/C8H12O/c1-6-3-8(5-9)4-7(6)2/h3,5,7-8H,4H2,1-2H3	InChI=1S/C8H12O/c1-6-3-8(5-9)4-7(6)2/h3,5,7-8H,4H2,1-2H3/t7-,8-/m0/s1
