21
gdb 86807	4.36464	0.75864	0.72292	3.5317	80.94	-0.2381	0.0599	0.298	1642.8351	0.182975	-420.445003	-420.435225	-420.434281	-420.480525	36.387	
C	-0.2371672736	 1.4980205543	-0.056129046	-0.39054
C	-0.0573147287	-0.0176020781	-0.0283730295	 0.026247
C	 1.1547565335	-0.536356639	-0.8608849822	-0.258297
C	 1.9818559095	-0.6023727286	 0.4501782249	 0.092867
C	 0.6498493786	-0.5573248454	 1.2517945112	-0.25521
N	 2.8928059664	-1.7023720196	 0.6363853636	-0.353864
C	 4.1323773638	-1.5312943288	 1.2125710745	 0.445779
N	 4.8069970619	-2.7268909058	 1.4538553781	-0.568203
O	 4.5983386337	-0.4471631532	 1.5102773489	-0.390173
H	 0.6980121868	 2.0192042335	 0.1779997647	 0.121705
H	-0.5665497809	 1.8374095389	-1.0442618135	 0.113233
H	-0.9861611961	 1.8193286927	 0.6758348037	 0.114067
H	-1.0094706414	-0.5021011359	-0.2613460971	 0.066499
H	 0.9704244423	-1.5371413892	-1.2656055381	 0.086415
H	 1.5332107789	 0.1003486181	-1.6655702962	 0.099949
H	 2.5700952659	 0.3016029856	 0.6074515213	 0.125182
H	 0.6236504968	 0.0631102306	 2.151742888	 0.103826
H	 0.3061269298	-1.5644874076	 1.5117620077	 0.086304
H	 2.4996550736	-2.6309162042	 0.6351304052	 0.231694
H	 4.6502596191	-3.4848247218	 0.8055318918	 0.243701
H	 5.7824939299	-2.5709606464	 1.660042209	 0.258818
42.077	70.9287	76.4639	205.462	238.1803	292.2236	300.0648	362.1518	406.6468	412.9457	454.5505	483.898	567.2489	621.3294	731.5936	777.4874	802.3367	818.4904	892.0235	909.3211	950.7102	962.464	985.9137	1042.9183	1064.4479	1095.903	1134.2192	1147.9501	1210.5327	1216.0979	1240.0973	1271.1207	1275.9528	1290.2446	1309.5454	1368.3446	1392.0763	1412.5778	1470.5203	1494.7085	1496.9289	1501.3581	1541.0643	1627.6593	1802.2169	3025.2462	3039.6159	3042.2849	3060.822	3093.2481	3093.6613	3096.825	3098.7374	3129.9388	3567.9475	3616.3372	3680.9379
CC1CC(C1)NC(N)=O	C[C@H]1C[C@@H](C1)NC(=O)N	
InChI=1S/C6H12N2O/c1-4-2-5(3-4)8-6(7)9/h4-5H,2-3H2,1H3,(H3,7,8,9)	InChI=1S/C6H12N2O/c1-4-2-5(3-4)8-6(7)9/h4-5H,2-3H2,1H3,(H3,7,8,9)/t4-,5-
