18
gdb 74561	2.44571	1.55338	1.25006	3.9881	81.42	-0.2367	0.0047	0.2414	1078.479	0.1486	-364.837277	-364.829201	-364.828257	-364.869898	30.934	
C	-0.0647331037	 1.4890939382	 0.0434774248	-0.491391
C	 0.0328701212	-0.0003757728	-0.0236874037	 0.330501
C	 0.0399568512	-0.7685774086	-1.1194740506	-0.183693
C	 0.0531013139	-2.2198448723	-0.7851144157	-0.083769
C	 0.061396379	-2.2850403486	 0.7229034481	-0.067489
C	 0.0955228513	-0.8487937489	 1.2369412198	-0.328325
C	-1.1758241214	-2.7553095759	-0.033797854	-0.195822
C	-2.4053619823	-2.017461594	 0.0200976208	 0.306279
N	-3.4015341761	-1.4316662387	 0.0831122229	-0.355138
H	 0.7649188265	 1.9159450027	 0.6212404717	 0.123774
H	-0.0557840572	 1.93770936	-0.9531358497	 0.128001
H	-0.9897313712	 1.7982351407	 0.5454728832	 0.142521
H	-0.0100903026	-0.403681595	-2.1385299452	 0.09782
H	 0.5814768714	-2.9326837081	-1.408184969	 0.10101
H	 0.608266104	-3.0535327486	 1.2551477907	 0.101638
H	 1.0177128221	-0.6565465705	 1.801075058	 0.112724
H	-0.737144519	-0.625203013	 1.9160034319	 0.131356
H	-1.3152686471	-3.8314671568	-0.0641165239	 0.130004
90.987	132.1023	177.8508	207.9908	312.4874	360.1611	377.1254	452.046	571.3289	608.1917	626.2648	741.5542	767.6652	781.0437	852.1394	862.0002	921.6768	944.5349	968.5207	992.6633	1010.9815	1039.7386	1050.0461	1079.4303	1111.4914	1183.9505	1195.0184	1197.6431	1281.2673	1321.1813	1349.0513	1354.2608	1392.3609	1415.0613	1473.4182	1479.1517	1487.4486	1705.2693	2348.8033	3018.2741	3022.6439	3051.6167	3069.657	3115.9392	3159.5572	3173.0574	3189.8368	3203.5037
CC1=CC2C(C1)C2C#N	CC1=C[C@H]2[C@@H](C1)[C@H]2C#N	
InChI=1S/C8H9N/c1-5-2-6-7(3-5)8(6)4-9/h2,6-8H,3H2,1H3	InChI=1S/C8H9N/c1-5-2-6-7(3-5)8(6)4-9/h2,6-8H,3H2,1H3/t6-,7+,8-/m0/s1
