19
gdb 64868	3.494	0.91185	0.8209	2.4841	83.55	-0.2493	-0.0275	0.2219	1424.1448	0.156392	-385.859599	-385.850125	-385.849181	-385.89416	35.233	
C	-0.2124172446	 1.5788399212	-0.0140935827	-0.445988
C	-0.0255654304	 0.0542254808	-0.0021488981	 0.147951
C	 1.1733543719	-0.4070602286	-0.9018779829	-0.281856
C	 2.0922615607	-0.4560152003	 0.3568497735	-0.06825
C	 0.8042408178	-0.4355510666	 1.2352838221	-0.281872
C	 2.9656028409	-1.6712974556	 0.4913122736	 0.157766
O	 4.1519549554	-1.6597355052	 0.6957375726	-0.251475
C	-1.2891897687	-0.6264666348	-0.2294783602	 0.260185
C	-2.3308755926	-1.1982325386	-0.4170122627	-0.44328
H	 0.7414688316	 2.0878934903	 0.1574386397	 0.119071
H	-0.6104924581	 1.9105532344	-0.9774534451	 0.129675
H	-0.9119845301	 1.8872768681	 0.7682322201	 0.129674
H	 1.0006958485	-1.4026529793	-1.3190087687	 0.117922
H	 1.4720222154	 0.2694755837	-1.705261307	 0.117438
H	 2.7072237223	 0.437486019	 0.4749323232	 0.09499
H	 0.813111735	 0.2186252565	 2.1095302823	 0.117427
H	 0.5061442518	-1.4408257187	 1.5444417025	 0.117916
H	 2.4098140187	-2.6348814802	 0.3830408354	 0.0684
H	-3.2510070655	-1.701887426	-0.5826038275	 0.194305
60.259	73.6965	172.5923	178.4894	253.0641	274.8927	289.542	356.2488	365.3533	420.6145	536.0424	550.2618	606.3335	625.3526	632.6312	748.6598	832.9544	900.8126	905.8365	921.7967	925.6061	959.9116	1051.9947	1059.6612	1084.768	1163.5727	1177.4278	1196.9502	1240.1693	1261.7765	1269.3984	1297.7761	1327.3175	1410.7112	1430.3257	1468.0758	1487.1482	1491.2865	1498.1909	1831.2474	2230.1535	2836.3483	3036.9834	3061.419	3065.7811	3100.6185	3110.3544	3116.084	3122.8538	3127.1084	3501.7309
CC1(CC(C1)C=O)C#C	C[C@]1(C[C@@H](C1)C=O)C#C	
InChI=1S/C8H10O/c1-3-8(2)4-7(5-8)6-9/h1,6-7H,4-5H2,2H3	InChI=1S/C8H10O/c1-3-8(2)4-7(5-8)6-9/h1,6-7H,4-5H2,2H3/t7-,8+
