14
gdb 45925	3.03169	1.49742	1.01456	2.1658	67.49	-0.2696	-0.0609	0.2087	1077.8054	0.103145	-470.056073	-470.048543	-470.047599	-470.08879	27.636	
N	-0.0809284303	 1.2397742191	 0.3291043179	-0.488917
C	 0.0273499389	 0.0019614499	 0.0793747444	 0.309722
N	-1.1168497847	-0.7487211165	-0.1775674457	-0.362144
C	-1.1867179846	-2.1130419577	-0.293603324	 0.394989
O	-2.2208964353	-2.7153078914	-0.4674996088	-0.342514
C	 0.1401300909	-2.8358898635	-0.1277623982	-0.205815
O	 1.3152180261	-2.0528928265	-0.3456921404	-0.25278
C	 1.336537021	-0.7390224501	-0.0139746184	 0.355898
N	 2.4104946332	-0.0915380824	 0.1453195346	-0.50155
H	 0.8547182117	 1.6285637286	 0.4614801992	 0.256284
H	-1.990512595	-0.2363495175	-0.2062879365	 0.275703
H	 0.1668544759	-3.2640611527	 0.8830939668	 0.154717
H	 0.1727604331	-3.6578032146	-0.8437382221	 0.166755
H	 3.223575299	-0.6995421948	 0.0419361311	 0.239653
70.6221	105.6328	141.8302	351.5242	392.5644	433.7949	452.286	489.7659	554.5181	597.6123	659.7878	719.891	775.6994	810.6526	892.8191	913.3627	938.7197	990.1065	1020.9868	1139.6947	1161.3707	1257.1877	1279.6707	1361.6207	1392.6935	1427.5592	1445.2198	1484.9112	1726.2074	1745.0617	1821.962	3030.8925	3134.8576	3479.088	3494.4186	3581.0176
N=C1NC(=O)COC1=N	[NH]C1=C(OCC(=O)N1)[NH]	
InChI=1S/C4H5N3O2/c5-3-4(6)9-1-2(8)7-3/h6H,1H2,(H2,5,7,8)	InChI=1S/C4H5N3O2/c5-3-4(6)9-1-2(8)7-3/h6H,1H2,(H2,5,7,8)
