14
gdb 133206	3.09019	1.40516	0.97175	2.7997	70.77	-0.2413	-0.0736	0.1677	1122.2074	0.099366	-477.958326	-477.950554	-477.94961	-477.990782	28.933	
C	-0.335790559	 1.4672127555	 0.0307256084	-0.478294
C	 0.0087251624	 0.0078683214	 0.0015797329	 0.23697
N	 0.1717128782	-0.5461029381	-1.1506986017	-0.115472
O	 0.4912484954	-1.8978552901	-1.1885341515	-0.295347
C	 0.647482545	-2.6963582343	-0.0550777635	 0.420229
N	 0.9397169353	-3.9244378318	-0.1713426582	-0.527997
C	 0.4571520692	-2.0424377259	 1.2239209282	-0.303809
C	 0.1504803877	-0.741924346	 1.2345904778	 0.275754
F	-0.0411044728	-0.0635318651	 2.3615752855	-0.054018
H	 0.4210119195	 2.0321516627	 0.5845427889	 0.149824
H	-0.3966719003	 1.847599641	-0.9891596885	 0.157296
H	-1.2934142601	 1.6283690997	 0.5362946021	 0.149821
H	 1.0288564796	-4.1853572956	-1.1541126402	 0.23143
H	 0.57083512	-2.6330156435	 2.1225599296	 0.153613
85.4464	176.8664	192.3746	271.5678	312.278	353.9465	395.4541	442.3591	527.8491	548.1477	670.5634	709.9972	721.8561	760.7794	848.3556	875.8932	914.6886	948.5663	1048.3882	1060.5141	1089.2373	1223.3722	1224.659	1321.7378	1411.6921	1414.0234	1472.4131	1476.4736	1629.6123	1706.1385	1747.5534	3045.8815	3103.3109	3156.653	3238.788	3489.117
CC1=NOC(=N)C=C1F	CC1=NOC(=C[C]1F)[NH]	
InChI=1S/C5H5FN2O/c1-3-4(6)2-5(7)9-8-3/h2,7H,1H3	InChI=1S/C5H5FN2O/c1-3-4(6)2-5(7)9-8-3/h2,7H,1H3
