22
gdb 100963	2.68752	1.00602	0.92739	2.1017	78.46	-0.2505	0.0605	0.311	1402.2266	0.192475	-441.454905	-441.444386	-441.443442	-441.490153	39.154	
C	 0.3407916248	 1.5164473807	-0.2437820124	-0.402697
C	 0.187580902	 0.0231592537	-0.0675056962	-0.041487
N	 1.3866667382	-0.8134949939	-0.2443867107	-0.378689
C	 0.7382153189	-0.7689121391	 1.0807015296	 0.283177
C	 1.5531635458	-0.1115141161	 2.1777665017	-0.448227
C	-0.0692759612	-1.959492676	 1.5940322172	 0.035637
O	-1.1755515348	-1.5088812615	 2.394264902	-0.440734
C	-0.5936039775	-2.9636507869	 0.5575558879	-0.097724
O	-1.3942481767	-3.934349615	 1.1950762865	-0.424883
H	 1.3096882336	 1.8666605553	 0.1155154725	 0.133228
H	 0.2679258835	 1.7788015189	-1.3046395733	 0.124147
H	-0.4465370488	 2.0595340062	 0.2905758162	 0.114245
H	-0.7336717618	-0.3654200498	-0.5027301854	 0.076501
H	 1.1610728494	-1.667239686	-0.7470063862	 0.23389
H	 2.0686874678	 0.7817291331	 1.8241770516	 0.124153
H	 0.9071160508	 0.1584039239	 3.018742165	 0.127266
H	 2.3136683446	-0.8087263836	 2.5465268955	 0.122166
H	 0.5492524001	-2.5270845415	 2.2995267257	 0.098489
H	-1.6348217852	-0.8301482747	 1.885174209	 0.282809
H	-1.1610508207	-2.4450106189	-0.2353062667	 0.082712
H	 0.2386307655	-3.493482026	 0.0805887647	 0.109671
H	-1.9012256185	-3.4448156226	 1.857415996	 0.28635
67.1782	113.7328	150.5444	168.0967	179.9852	200.6167	275.6784	299.8065	325.5188	343.5829	368.0815	471.9741	483.6584	537.888	538.857	550.2119	727.0119	797.8379	848.7289	892.6888	970.6696	981.2431	1028.2987	1054.0709	1061.9504	1088.5982	1095.6603	1103.046	1117.9269	1147.2302	1210.7058	1232.9681	1281.8529	1289.3631	1315.9309	1352.4713	1395.8165	1410.7372	1418.9151	1425.8858	1453.359	1456.8639	1480.0639	1488.6513	1498.8223	1510.9048	1512.2847	2947.3448	3036.9386	3040.2818	3044.7938	3061.4319	3093.5673	3095.9135	3103.474	3135.6499	3148.6383	3515.462	3749.3391	3787.9717
CC1NC1(C)C(O)CO	C[C@H]1N[C@]1(C)[C@@H](O)CO	
InChI=1S/C6H13NO2/c1-4-6(2,7-4)5(9)3-8/h4-5,7-9H,3H2,1-2H3	InChI=1S/C6H13NO2/c1-4-6(2,7-4)5(9)3-8/h4-5,7-9H,3H2,1-2H3/t4-,5+,6+/m1/s1
