21
gdb 63477	3.23727	1.04606	0.9206	0.9904	85.39	-0.246	0.0448	0.2908	1357.68	0.178604	-387.049323	-387.038914	-387.03797	-387.084061	39.574	
C	 0.0209188281	 1.4863727471	-0.0608164771	-0.441423
C	 0.009446878	-0.0307977715	 0.016073146	 0.265452
C	-1.1917989961	-0.6548488344	-0.6726899887	-0.452113
C	 1.348034045	-0.7566523597	-0.0654619997	-0.384424
C	 0.6012333674	-0.6738618759	 1.2472280105	 0.385344
O	 1.0778063952	 0.2216110217	 2.214095768	-0.47002
C	 0.0022739206	-1.9327436349	 1.8763645018	-0.410569
C	 0.9795015819	-2.6001207663	 2.7337432924	 0.274166
C	 1.8187228475	-3.0949163386	 3.4392803084	-0.432454
H	 0.8684288305	 1.9087051079	 0.4792895881	 0.133627
H	 0.07103715	 1.8119813682	-1.1062511121	 0.108089
H	-0.8939313541	 1.9054945138	 0.3740373762	 0.112881
H	-1.2402159273	-0.3204156939	-1.7153908221	 0.116948
H	-1.1554468717	-1.7472133704	-0.6870408576	 0.111225
H	-2.1287613362	-0.3548377287	-0.1885456312	 0.117228
H	 1.3886589119	-1.7089796187	-0.5857068531	 0.104216
H	 2.2442106331	-0.1517806087	-0.1547864385	 0.11062
H	 1.751930044	-0.2469331872	 2.7228378257	 0.285425
H	-0.8740879349	-1.6524871637	 2.4747052977	 0.137299
H	-0.3440762093	-2.6284121331	 1.1068051604	 0.129765
H	 2.5420892864	-3.562678003	 4.060346455	 0.198718
65.4708	108.9565	173.0773	183.8684	204.3008	244.8985	302.9963	342.059	362.7374	368.747	391.317	412.6896	424.3884	481.0008	560.1316	620.2955	653.7378	698.8201	778.6681	891.5327	893.7405	920.4161	957.5834	969.3226	973.2586	1000.8303	1037.2721	1045.5762	1148.546	1157.3388	1204.4449	1261.9207	1296.2022	1311.3135	1325.8999	1408.6087	1417.675	1424.3962	1458.7465	1484.4121	1489.3271	1491.2242	1505.5661	1518.4792	2231.2145	3024.3599	3028.9538	3031.3906	3080.4606	3084.0183	3086.5211	3111.1164	3121.858	3145.2587	3211.9813	3504.6095	3764.3671
CC1(C)CC1(O)CC#C	CC1(C)C[C@]1(O)CC#C	
InChI=1S/C8H12O/c1-4-5-8(9)6-7(8,2)3/h1,9H,5-6H2,2-3H3	InChI=1S/C8H12O/c1-4-5-8(9)6-7(8,2)3/h1,9H,5-6H2,2-3H3/t8-/m1/s1
