16
gdb 26537	2.37392	1.87708	1.05617	4.6689	76.95	-0.2062	-0.0202	0.186	1079.9184	0.125617	-434.10689	-434.098493	-434.097548	-434.140404	31.071	
C	 0.0008627134	 1.550014386	 0.0163893814	-0.516312
C	 0.0073680119	 0.0451839485	 0.0146858739	 0.144286
C	-1.136697775	-0.6738802312	 0.0273713008	 0.328937
N	-2.4241924239	-0.1965744738	 0.112284421	-0.575464
O	-1.1428169391	-2.0452750738	 0.0137918874	-0.216308
C	 0.0739273725	-2.6538644763	-0.0017910158	 0.114193
N	 1.208058378	-2.0974289112	 0.0027049946	-0.310861
C	 1.2764571111	-0.6755389115	 0.0206559358	 0.275206
N	 2.4018636266	-0.0648289228	 0.0350167823	-0.53564
H	 0.9883208589	 1.9054322773	-0.2810113402	 0.171125
H	-0.7400125243	 1.9621639326	-0.6809704055	 0.103247
H	-0.2142452613	 1.9616569667	 1.0102580652	 0.13136
H	-2.5357989177	 0.7749790316	-0.13364608	 0.266297
H	-3.1240110184	-0.8010358737	-0.2938945903	 0.262438
H	-0.0501502138	-3.7327410078	-0.0176539755	 0.14251
H	 3.1514427212	-0.7577303407	 0.0259404649	 0.214986
43.7292	103.1538	178.1756	255.9889	303.3904	331.4471	367.676	476.025	514.257	522.4397	538.2072	568.8515	671.3328	688.103	771.2708	886.4188	889.455	911.8705	958.5192	995.0229	1042.2732	1060.4312	1181.1773	1211.8477	1234.1546	1321.3906	1402.2283	1419.0109	1436.7763	1484.3869	1499.8774	1626.3605	1674.7512	1685.6473	1746.201	3012.4471	3061.0043	3142.1506	3188.3837	3475.6524	3572.8773	3685.0142
CC1=C(N)OC=NC1=N	CC1=C(N=CO[C@H]1N)[NH]	
InChI=1S/C5H7N3O/c1-3-4(6)8-2-9-5(3)7/h2,6H,7H2,1H3	InChI=1S/C5H8N3O/c1-3-4(6)8-2-9-5(3)7/h2,5-6H,7H2,1H3/t5-/m1/s1
