20
gdb 94990	2.85951	1.76578	1.36823	0.6549	77.64	-0.2293	0.0853	0.3146	1003.4483	0.173397	-403.112713	-403.1053	-403.104356	-403.144168	30.084	
C	-0.0589188165	 1.5298241071	-0.0526191358	-0.406201
C	 0.0114893955	 0.0108827196	-0.0041594015	 0.119893
O	 0.6568471617	-0.4159453029	-1.2014350659	-0.256056
C	 0.7685294218	-1.8220056717	-1.2877980533	-0.114289
C	 1.2485015466	-2.4926987965	-0.0169751712	-0.011599
C	 2.2560537009	-2.0014975569	 0.9494681076	-0.047854
C	 2.3292633513	-0.4844123535	 1.0680432781	-0.259627
C	 0.7824598856	-0.5158517215	 1.1990088323	 0.013019
N	 0.7691938739	-2.03568026	 1.303183076	-0.174086
H	 0.9452872939	 1.9645939429	-0.0395257623	 0.125746
H	-0.5567592426	 1.8527844567	-0.9706312888	 0.126893
H	-0.6182282581	 1.9172319943	 0.8039216461	 0.116976
H	-1.0093002723	-0.4099986732	 0.0309289585	 0.072248
H	-0.2108454054	-2.2620819583	-1.5463221333	 0.095082
H	 1.4547234793	-2.030796437	-2.1158410641	 0.113206
H	 1.1970518419	-3.5787473916	-0.0875161852	 0.094287
H	 2.9530052962	-2.6896010428	 1.4194605723	 0.091206
H	 2.8111083954	-0.1747982176	 1.9973931115	 0.107092
H	 2.7614876793	 0.068534021	 0.2317756671	 0.114066
H	 0.3938662817	-0.090819648	 2.126454442	 0.079997
150.7395	199.9523	228.035	277.9212	322.5225	371.4932	473.1537	484.256	591.2502	692.7615	747.5344	777.5678	792.6829	840.4745	860.8788	903.8504	945.8373	972.2603	992.4131	1019.4825	1045.3329	1061.739	1089.4522	1116.5062	1143.8415	1148.1598	1166.0609	1171.051	1229.0743	1257.4994	1275.6774	1298.1243	1325.3081	1348.9781	1365.1134	1389.7838	1408.0616	1409.7303	1452.937	1483.9568	1490.8345	1492.1655	1500.9498	2946.916	2952.4447	3043.3771	3064.1055	3071.4039	3087.3304	3115.8389	3116.4629	3123.4593	3124.8248	3150.8268
CC1OCC2C3CC1N23	C[C@H]1OC[C@H]2[C@H]3C[C@@H]1N23	
InChI=1S/C7H11NO/c1-4-5-2-6-7(3-9-4)8(5)6/h4-7H,2-3H2,1H3	InChI=1S/C7H11NO/c1-4-5-2-6-7(3-9-4)8(5)6/h4-7H,2-3H2,1H3/t4-,5+,6-,7+,8?/m1/s1
