25
gdb 68782	2.23314	1.40927	1.29413	0.2788	93.05	-0.2344	0.0783	0.3127	1219.9166	0.227117	-352.350679	-352.340479	-352.339535	-352.384436	40.326	
C	-0.0004856468	 1.5693191834	 0.0644626629	-0.500481
C	-0.0233156429	 0.0668714203	 0.0672460918	 0.331387
C	 1.1446228636	-0.7783534306	-0.3641166064	-0.394687
C	 0.6048778264	-0.9469908564	 1.0367203831	 0.294184
C	 1.4790502732	-0.7328784349	 2.2429796788	-0.50488
C	-0.6906114154	-1.8031952319	 1.0094546879	 0.292385
C	-0.5529011436	-3.2588265583	 0.5596338803	-0.450752
C	-1.4504172771	-1.7350359818	 2.3369207652	-0.44481
C	-1.2924570124	-0.789756163	-0.0324921911	-0.343796
H	 0.9822615261	 1.9537777074	 0.3579582691	 0.11412
H	-0.2223009714	 1.9688137849	-0.9331905212	 0.117614
H	-0.742262753	 1.9849295806	 0.7567216875	 0.111745
H	 1.0243026183	-1.5480565338	-1.1233104782	 0.097127
H	 2.0987841289	-0.2609861524	-0.4195504225	 0.100356
H	 2.1956570045	 0.0762864755	 2.0668583511	 0.113837
H	 0.8982777745	-0.4705361467	 3.1335833255	 0.115091
H	 2.0600906381	-1.6328271107	 2.4809218843	 0.117045
H	-0.0083471284	-3.8510219945	 1.3045295019	 0.109028
H	-1.5391283017	-3.7198624819	 0.4299790757	 0.108929
H	-0.0195319506	-3.3486712936	-0.3909148195	 0.110675
H	-1.5629160525	-0.7022180216	 2.683428247	 0.110275
H	-2.4539769938	-2.160991467	 2.22518193	 0.108876
H	-0.9365068855	-2.2988153386	 3.1238451698	 0.109849
H	-2.1889331329	-0.2911255233	 0.3474442617	 0.091778
H	-1.5157737159	-1.1904589412	-1.0282075445	 0.085104
127.5023	176.7952	196.3562	202.4661	209.6244	229.9929	270.6512	300.5303	336.5419	358.2779	389.2059	442.6867	453.7321	503.5591	558.3399	642.2414	699.7718	790.0051	824.6656	888.3885	923.5683	947.2328	961.9524	963.9969	985.7681	1000.9865	1029.417	1058.7869	1062.7441	1103.8339	1120.9711	1172.0098	1198.9548	1216.8751	1246.7929	1265.1628	1299.4348	1327.1984	1391.3494	1403.4094	1413.5116	1418.1499	1431.8634	1481.3537	1483.2662	1486.1836	1489.9727	1493.7639	1496.1007	1501.3902	1506.9977	1511.3493	1517.5539	3015.4455	3019.2308	3020.3683	3024.4401	3030.8611	3071.2227	3077.3513	3080.8228	3084.6287	3088.6154	3090.8142	3093.8364	3095.607	3098.6086	3105.7608	3181.869
CC12CC1(C)C(C)(C)C2	C[C@@]12C[C@]1(C)C(C)(C)C2	
InChI=1S/C9H16/c1-7(2)5-8(3)6-9(7,8)4/h5-6H2,1-4H3	InChI=1S/C9H16/c1-7(2)5-8(3)6-9(7,8)4/h5-6H2,1-4H3/t8-,9-/m1/s1
