16
gdb 126929	5.34755	0.91476	0.78885	7.402	76.63	-0.2406	-0.0696	0.171	1405.0068	0.124029	-430.202559	-430.194064	-430.19312	-430.236942	29.916	
C	-0.0934833802	 1.5757911861	 0.0120995742	-0.412454
C	 0.0355832437	 0.0561394303	 0.0032113484	-0.118642
N	-1.2794226212	-0.5640109686	 0.0107814012	-0.350304
C	-1.5183968835	-1.8882755715	 0.0067675765	 0.459714
C	-0.5215814414	-2.88424032	-0.0049661334	-0.046405
N	-0.860943925	-4.1545786221	-0.0076898912	-0.162507
N	-2.1555293439	-4.4921283877	 0.0006639337	-0.093548
N	-3.0861865367	-3.5621321732	 0.0113984552	-0.063578
N	-2.8067781228	-2.2750460063	 0.0146706716	-0.266272
H	 0.8964371661	 2.0376334498	 0.0064153452	 0.13968
H	-0.6374927804	 1.928182388	-0.8699029156	 0.13738
H	-0.6230736042	 1.919009008	 0.906401061	 0.137414
H	 0.5951325594	-0.26517063	-0.8859729855	 0.124771
H	 0.6093861942	-0.2742517454	 0.8798741533	 0.124807
H	-2.1021816585	 0.0216580539	 0.0189558962	 0.26101
H	 0.5404908743	-2.6580818613	-0.0120941907	 0.128933
38.7456	74.5989	145.3314	148.649	263.6839	327.8465	350.1025	444.4256	465.3449	561.4606	639.7031	686.9125	820.4191	830.0581	865.7224	920.2324	926.7367	968.5247	1058.6998	1081.3706	1091.4972	1170.7793	1173.83	1248.477	1305.5481	1341.4757	1361.2805	1412.4875	1425.7978	1494.3634	1494.7917	1502.0131	1529.9892	1554.6208	1614.981	3003.3598	3030.4584	3044.4496	3114.4389	3131.2888	3171.2232	3606.9038
CCNC1=CN=NN=N1	CCNc1cnnnn1	
InChI=1S/C4H7N5/c1-2-5-4-3-6-8-9-7-4/h3H,2H2,1H3,(H,5,7,8)	InChI=1S/C4H7N5/c1-2-5-4-3-6-8-9-7-4/h3H,2H2,1H3,(H,5,7,8)
