16
gdb 46210	3.1019	1.54676	1.22174	2.9096	70.48	-0.2253	-0.0278	0.1975	1014.9068	0.124023	-437.816126	-437.808629	-437.807684	-437.848406	28.379	
O	 0.0483832161	 0.0163848183	-0.2846368404	-0.306993
C	 0.0249362578	 1.197193061	-0.0928333931	 0.325876
C	-1.0495448079	 2.2257759067	 0.3168654254	-0.281272
N	 0.0317905845	 3.2578225467	 0.4442138366	-0.399108
C	 1.034072425	 2.3100412114	-0.0790052587	 0.22659
C	 2.4843937797	 2.3406938956	 0.377551291	-0.203873
C	 3.2080508127	 1.1472161775	-0.243721732	-0.090005
O	 2.7772399824	 1.5458548404	-1.5828353317	-0.273414
C	 2.1362933676	 2.6873842074	-1.0446076424	 0.016126
H	-1.7885084795	 2.4159542542	-0.4698743936	 0.131614
H	-1.570222236	 2.0171577119	 1.2562302155	 0.138972
H	-0.1227756911	 4.0427727792	-0.1818564558	 0.226169
H	 2.7909771199	 2.953668384	 1.2139762321	 0.118035
H	 4.2983047397	 1.2021198255	-0.1650292507	 0.118985
H	 2.8499616397	 0.1484548367	 0.0193776246	 0.139432
H	 2.1314814295	 3.6106554235	-1.6160530567	 0.112867
98.5592	127.2753	136.2845	306.0312	337.5275	395.0145	440.5762	544.3222	634.1891	707.5054	750.8579	822.4835	835.0662	903.764	922.7946	936.5909	970.0135	990.7905	1009.6385	1037.2257	1056.3914	1061.986	1082.8112	1124.2978	1158.4219	1169.2798	1227.0029	1246.3485	1290.2382	1314.1183	1362.2384	1401.3105	1469.9105	1505.1829	1893.0201	3040.0081	3048.0393	3094.9574	3110.2454	3160.0373	3212.6619	3504.5684
O=C1CNC11C2COC12	O=C1CN[C@]21[C@H]1CO[C@@H]21	
InChI=1S/C6H7NO2/c8-4-1-7-6(4)3-2-9-5(3)6/h3,5,7H,1-2H2	InChI=1S/C6H7NO2/c8-4-1-7-6(4)3-2-9-5(3)6/h3,5,7H,1-2H2/t3-,5+,6-/m0/s1
