17
gdb 67589	2.33033	2.20209	1.53852	0.791	69.85	-0.22	0.0684	0.2884	909.3856	0.135629	-421.763452	-421.756118	-421.755174	-421.79476	29.625	
C	-0.0341593996	 1.5274770528	 0.0496297697	-0.514871
C	-0.0295290125	 0.032690797	-0.0230064048	 0.208488
C	 1.0027545188	-0.8684320592	-0.6683414783	 0.020154
O	 0.4292807649	-1.8878121294	-1.4447477387	-0.229611
C	-0.7497448766	-2.132132746	-0.729613277	-0.020557
C	-0.5650582992	-1.9268274959	 0.7782067878	-0.186152
C	 0.6856835308	-1.0318215101	 0.8118147875	-0.175554
C	-1.2868726717	-0.8877466013	-0.0599085882	 0.291606
O	-2.5987466995	-0.4749911167	 0.0056818152	-0.456337
H	 0.9785338145	 1.9154091869	 0.200707131	 0.120523
H	-0.4244563459	 1.9726322028	-0.8733233816	 0.118782
H	-0.6560101856	 1.8817673517	 0.8789052673	 0.131034
H	 1.9564080881	-0.512870527	-1.0371301739	 0.105357
H	-1.3861151503	-2.9072759226	-1.1355800684	 0.109998
H	-0.9167542516	-2.6147307032	 1.5335133243	 0.097991
H	 1.4042578253	-0.9326080397	 1.6136446533	 0.089392
H	-2.9140645	-0.31379572	-0.8911229853	 0.289757
175.8896	197.1657	202.4642	264.5591	332.2898	392.2058	537.0198	558.5335	631.0492	632.608	717.4417	753.0691	799.5166	829.7675	855.0343	877.7795	892.0016	923.3737	931.3225	994.264	1003.9646	1036.2139	1040.0856	1096.9566	1106.3021	1124.7895	1193.6153	1214.2563	1229.8447	1244.6324	1302.6986	1316.7368	1411.7815	1435.708	1458.4169	1484.8239	1498.5664	3023.1917	3082.9904	3097.0803	3202.1438	3210.1401	3213.9859	3225.1534	3782.7265
CC12C3OC4C(C13)C24O	C[C@@]12[C@@H]3O[C@H]4[C@@H]([C@H]13)[C@@]24O	
InChI=1S/C7H8O2/c1-6-2-3-5(7(3,6)8)9-4(2)6/h2-5,8H,1H3	InChI=1S/C7H8O2/c1-6-2-3-5(7(3,6)8)9-4(2)6/h2-5,8H,1H3/t2-,3+,4+,5-,6-,7-/m0/s1
