15
gdb 28804	3.3402	1.63977	1.12037	3.4652	66.87	-0.1848	0.0574	0.2422	1010.5159	0.115856	-453.971805	-453.964763	-453.963819	-454.003357	26.816	
O	 0.1794731159	 1.3206732303	 0.1726519492	-0.429983
C	 0.1086176896	-0.0170831656	 0.0355654847	 0.426956
N	 0.0492825888	-0.7007160289	-1.069694439	-0.380408
C	-0.0081642028	-2.0525324175	-0.6881229668	-0.246508
C	 0.0250548545	-2.1107115152	 0.6671807193	 0.368628
O	-0.0536416245	-3.0045445051	 1.6885230846	-0.278728
C	 0.3056002727	-2.2793711171	 2.8830300454	-0.103739
C	 0.0352042378	-0.7766007189	 2.5845879946	-0.201186
N	 0.1180773503	-0.8165999833	 1.1395420391	-0.113036
H	 0.17918545	 1.6789991214	-0.7241047638	 0.312322
H	-0.066408761	-2.8454511323	-1.4130478521	 0.113344
H	-0.2893215928	-2.669969852	 3.7097554461	 0.132183
H	 1.369787902	-2.442221964	 3.0914315823	 0.125789
H	-0.9566454658	-0.4535334133	 2.9207477095	 0.133943
H	 0.7901569952	-0.1263246084	 3.0316172369	 0.140424
129.5551	159.0762	221.4954	283.9378	371.0428	409.3765	557.4856	623.247	646.5331	660.1908	696.5158	761.3667	763.3221	809.4028	884.4803	943.2221	1021.2159	1052.4393	1120.5522	1136.1059	1193.6258	1210.9736	1249.767	1261.9221	1301.9145	1320.4657	1380.8366	1429.5334	1508.2378	1522.5358	1563.1148	1609.969	1660.5077	3033.9086	3040.3863	3106.2509	3127.2677	3281.8671	3801.4607
OC1=NC=C2OCCN12	Oc1ncc2OCCn12	
InChI=1S/C5H6N2O2/c8-5-6-3-4-7(5)1-2-9-4/h3H,1-2H2,(H,6,8)	InChI=1S/C5H6N2O2/c8-5-6-3-4-7(5)1-2-9-4/h3H,1-2H2,(H,6,8)
