21
gdb 116093	2.641	1.16437	0.86676	2.0523	79.64	-0.2367	-0.014	0.2228	1366.9203	0.182819	-424.257877	-424.248768	-424.247824	-424.292149	33.916	
C	-0.1612870911	 1.3677748972	 0.0096197767	-0.244237
O	 0.1147695927	-0.0143501507	 0.0560885254	-0.243431
C	 0.7322794597	-0.5410280929	-1.1038943442	 0.128762
C	 1.3410699818	-1.8896692737	-0.7215565241	-0.209211
C	 2.0099383782	-2.5682990058	-1.9231252252	-0.224648
C	 1.0249521557	-2.7571450436	-3.0939024967	-0.284766
C	 0.3476377911	-1.4425595436	-3.4526182023	 0.378332
O	 0.3095926804	-1.0093601124	-4.5805132529	-0.303841
C	-0.2679055019	-0.7004514713	-2.2713882108	-0.316136
H	 0.743773209	 1.9544589233	-0.2119388154	 0.10644
H	-0.9282813006	 1.622778406	-0.7355611397	 0.111317
H	-0.5316211148	 1.6526736006	 0.9974293419	 0.12924
H	 1.5404971305	 0.1393217918	-1.4255902874	 0.071786
H	 2.0603613953	-1.7370446688	 0.0887509222	 0.10626
H	 0.5418524626	-2.5268402867	-0.3212916542	 0.105375
H	 2.8590815875	-1.9612554059	-2.2629322137	 0.109698
H	 2.421412244	-3.5381635355	-1.6273109019	 0.107586
H	 1.5148246569	-3.1537157503	-3.9859252575	 0.118198
H	 0.2425018418	-3.4681262529	-2.7928221313	 0.115881
H	-1.1170336276	-1.2874545358	-1.8951417054	 0.120992
H	-0.6450904713	 0.2596791009	-2.6290221134	 0.116405
77.6697	95.3772	109.9887	188.4552	231.7602	275.1027	357.3821	391.964	423.8268	478.9062	490.1397	523.7428	647.0181	760.7563	833.3946	874.207	883.1473	907.0678	944.6107	1022.0942	1040.8946	1049.841	1096.8955	1124.9365	1147.1367	1181.5349	1197.7534	1220.882	1236.3001	1248.0652	1277.8154	1287.5891	1332.0931	1346.6441	1371.0753	1375.3022	1403.19	1463.9048	1470.1268	1480.062	1491.9555	1493.1281	1500.4984	1510.6799	1816.7257	2947.4176	2980.1456	3015.2186	3025.6265	3026.9622	3031.2422	3034.5439	3079.9002	3087.5347	3110.1328	3112.7547	3115.162
COC1CCCC(=O)C1	CO[C@H]1CCCC(=O)C1	
InChI=1S/C7H12O2/c1-9-7-4-2-3-6(8)5-7/h7H,2-5H2,1H3	InChI=1S/C7H12O2/c1-9-7-4-2-3-6(8)5-7/h7H,2-5H2,1H3/t7-/m0/s1
