19
gdb 94470	2.86131	1.35711	1.21418	2.128	71.1	-0.2466	0.0644	0.311	1102.4181	0.159561	-460.146874	-460.138481	-460.137537	-460.180191	31.559	
O	 0.393850608	 0.9176849048	-0.6712252075	-0.434067
C	 0.1151454375	-0.2078264895	 0.1260683735	 0.074386
C	-0.1051392448	-0.0417904616	 1.6568333343	-0.273065
C	-1.2864106524	-1.0429495896	 1.5392903614	-0.289601
C	-1.3307089313	-0.7461358891	 0.0170460599	 0.387043
C	-2.3884453246	 0.2699076547	-0.4562449865	-0.169427
O	-3.3743180085	-0.5522452514	-1.0691217838	-0.238141
C	-2.6343075591	-1.568429421	-1.6877475339	 0.009757
O	-1.5424694589	-1.8625513679	-0.8329469777	-0.305946
H	 1.3274384361	 1.1332581496	-0.5861440163	 0.288099
H	 0.8120271921	-1.0320468202	-0.0784042672	 0.082152
H	 0.721451004	-0.3007550758	 2.3210010224	 0.099298
H	-0.4457839862	 0.9724169931	 1.883653451	 0.109662
H	-0.9741012804	-2.075199963	 1.71419716	 0.114626
H	-2.192692741	-0.8410631314	 2.1139663503	 0.106276
H	-2.8598161801	 0.8282655176	 0.3544063018	 0.11615
H	-1.9508175332	 0.9713970932	-1.1784573569	 0.121702
H	-3.2671168089	-2.4544347868	-1.8000664761	 0.115054
H	-2.2571592383	-1.2419743757	-2.673772529	 0.086042
63.269	116.492	196.7641	218.426	249.8908	269.2415	359.361	416.0887	490.9423	557.7228	663.5226	741.0675	784.9561	803.7417	879.5446	914.6791	943.4287	965.6285	982.4116	1031.3179	1075.9059	1096.4918	1120.6983	1135.3064	1159.3648	1171.8543	1185.6481	1200.1262	1214.6726	1239.3088	1255.0807	1277.6832	1287.4743	1324.8807	1367.2065	1428.7587	1434.7706	1479.086	1497.286	1514.5015	1546.6307	2939.3273	3014.0806	3027.2665	3063.7545	3069.7765	3075.6977	3115.3032	3117.2001	3130.6339	3824.8828
OC1CCC11COCO1	O[C@H]1CC[C@]21COCO2	
InChI=1S/C6H10O3/c7-5-1-2-6(5)3-8-4-9-6/h5,7H,1-4H2	InChI=1S/C6H10O3/c7-5-1-2-6(5)3-8-4-9-6/h5,7H,1-4H2/t5-,6+/m0/s1
