24
gdb 59865	2.99414	0.82494	0.76113	3.2641	87.82	-0.2375	0.0394	0.2769	1691.1058	0.214894	-405.604624	-405.592966	-405.592022	-405.643435	41.545	
C	 0.0646848175	 1.4342935784	 0.9957712915	-0.381895
C	-0.0334657059	 0.2362588494	 0.043710652	 0.052417
C	 0.9537670376	-0.8759018828	 0.41511734	-0.38373
N	-1.3981258608	-0.2816729959	-0.0007942485	-0.328699
C	-2.1850460018	-0.2398504837	-1.1146540487	 0.42793
O	-1.8111301097	 0.2334956408	-2.1761055047	-0.397198
C	-3.5870894721	-0.837691641	-0.9550039203	-0.083924
C	-4.63446841	 0.2446009587	-1.2582328983	-0.377432
C	-3.7319370949	-2.0368618976	-1.9053198963	-0.377257
H	 1.0788980523	 1.8458436554	 0.9954257675	 0.118819
H	-0.6279538653	 2.2256150126	 0.6967086319	 0.126863
H	-0.1744039667	 1.1411679464	 2.0254160456	 0.105561
H	 0.1657598883	 0.5717306674	-0.9773802099	 0.127117
H	 0.7496346289	-1.2657951498	 1.4200512688	 0.105999
H	 0.8889313893	-1.7069470251	-0.2924537062	 0.125509
H	 1.980858036	-0.4979966056	 0.4100249617	 0.119756
H	-1.7799212141	-0.6799678195	 0.842566395	 0.236402
H	-3.7230334705	-1.1850441508	 0.0777447136	 0.059197
H	-4.5730218786	 1.0734053256	-0.5455157831	 0.111195
H	-4.4688490682	 0.6480965284	-2.2606347581	 0.142574
H	-5.6454573715	-0.1717437771	-1.2091469703	 0.108383
H	-3.022480433	-2.8330841567	-1.657629401	 0.111271
H	-4.742742773	-2.4527557052	-1.8502075533	 0.108978
H	-3.538694524	-1.7195094822	-2.933546039	 0.142166
18.8558	23.0721	73.569	156.8233	215.9036	228.15	239.5579	247.3541	259.2448	268.1313	303.6439	367.5349	442.8014	446.1203	479.1039	485.91	661.0404	769.1914	829.6487	878.9106	916.8714	931.5329	931.8425	948.2754	974.3301	992.5936	1104.547	1118.2059	1146.7322	1174.0239	1189.6621	1203.2696	1223.3067	1334.957	1351.4143	1365.1425	1388.4431	1391.4449	1399.6359	1413.9512	1419.1507	1484.2254	1484.3941	1488.6682	1492.8391	1495.1111	1499.7873	1507.1144	1514.7405	1535.0727	1765.1073	3013.7229	3025.4782	3029.3857	3035.4724	3038.8591	3082.0749	3091.7965	3101.8602	3104.5478	3109.342	3116.9062	3119.7574	3122.0188	3126.738	3628.5713
CC(C)NC(=O)C(C)C	CC(C)NC(=O)C(C)C	
InChI=1S/C7H15NO/c1-5(2)7(9)8-6(3)4/h5-6H,1-4H3,(H,8,9)	InChI=1S/C7H15NO/c1-5(2)7(9)8-6(3)4/h5-6H,1-4H3,(H,8,9)
