19
gdb 102828	2.58579	1.05245	0.81411	2.6309	72.34	-0.2511	-0.0412	0.21	1397.9303	0.156965	-460.141899	-460.132383	-460.131439	-460.177124	33.858	
O	 0.4508902614	 1.3907383406	 0.0265731646	-0.428222
C	 0.2697462425	 0.0440337272	-0.3306172777	-0.06581
C	-1.1600282907	-0.4900305605	-0.0704949486	-0.05888
C	-2.1567304497	-0.2663611116	-1.2223344959	-0.300668
C	-2.4890696272	 1.1471212092	-1.6184247357	 0.154276
O	-1.919345137	 2.1516830989	-1.2585956447	-0.247833
C	-1.1104716107	-1.9759568161	 0.2287819659	 0.081653
C	-1.1777215521	-2.5057448578	 1.5949992351	-0.182052
O	-2.3124220168	-2.5705317637	 0.7244645343	-0.246346
H	-0.2686990934	 1.8939193916	-0.3847184899	 0.299407
H	 0.5414409428	-0.146837788	-1.3850017992	 0.075348
H	 0.9745373512	-0.5308495906	 0.2821470911	 0.103608
H	-1.5348607684	 0.0245854383	 0.8218609066	 0.097616
H	-1.8067543891	-0.7611944806	-2.1438304316	 0.133856
H	-3.1078566083	-0.7644277529	-0.9877722959	 0.149337
H	-3.3471684952	 1.226215951	-2.3207027477	 0.09944
H	-0.6009915499	-2.583239498	-0.5239322516	 0.094047
H	-0.7175078001	-3.4636614798	 1.832031803	 0.11922
H	-1.2702155793	-1.8143185373	 2.4312473178	 0.122001
63.5681	76.2568	112.1092	167.8571	175.6176	233.7574	260.6112	294.2682	411.1471	449.708	499.3383	593.7139	661.2149	753.7029	833.0284	858.2845	881.0969	938.9661	968.7693	975.891	1080.6298	1093.7993	1115.2061	1122.489	1141.0227	1162.1914	1178.8035	1218.9613	1254.9932	1275.9956	1296.0157	1332.3505	1377.477	1402.1722	1426.2516	1440.4968	1448.5404	1480.3068	1510.3883	1530.8163	1811.5373	2901.9964	2933.1156	2992.0979	3040.2269	3045.888	3053.0205	3077.8672	3087.1896	3174.4404	3684.3482
OCC(CC=O)C1CO1	OC[C@@H](CC=O)[C@H]1CO1	
InChI=1S/C6H10O3/c7-2-1-5(3-8)6-4-9-6/h2,5-6,8H,1,3-4H2	InChI=1S/C6H10O3/c7-2-1-5(3-8)6-4-9-6/h2,5-6,8H,1,3-4H2/t5-,6-/m1/s1
