23
gdb 106620	2.53624	1.35537	1.19902	1.4423	84.37	-0.2465	0.0673	0.3139	1193.9948	0.207087	-388.291467	-388.282551	-388.281607	-388.324732	35.383	
C	-0.092556211	 1.5343878454	 0.0669889719	-0.386404
C	 0.0741779634	 0.0105798812	 0.0058282296	-0.291656
C	 0.7370272835	-0.5030089766	-1.2567139895	 0.319749
C	 0.0686971056	-0.4255946343	-2.6672001517	-0.26899
C	 1.0687858247	-1.5639710019	-3.0155852106	-0.070846
C	 2.4226198127	-0.8376954882	-2.9096668646	-0.238748
C	 2.177049521	-0.0400075768	-1.584844603	-0.273665
C	 0.8353848963	-2.0372840761	-1.5522671641	 0.136547
O	 1.7492320974	-2.8608012207	-0.8777114413	-0.452901
H	 0.8739872187	 2.0480282623	 0.0514426208	 0.116404
H	-0.6784566128	 1.9044002523	-0.781468423	 0.116379
H	-0.610268897	 1.8343570342	 0.9833058367	 0.112132
H	 0.6591534437	-0.32959645	 0.8711278476	 0.099802
H	-0.9111853223	-0.4634944164	 0.1034751179	 0.091831
H	-0.9726977057	-0.7573635659	-2.659211569	 0.095436
H	 0.1609666421	 0.5108882013	-3.2236413195	 0.090731
H	 0.9178584685	-2.2280296352	-3.8668984819	 0.059475
H	 3.2690372816	-1.5306753604	-2.8454659069	 0.089712
H	 2.6091016617	-0.1838875198	-3.765787272	 0.100568
H	 2.2423750473	 1.0408960066	-1.7321263096	 0.101702
H	 2.8839181329	-0.2987467661	-0.7878991579	 0.088261
H	-0.1389000172	-2.5194099865	-1.4362551333	 0.08149
H	 2.634932885	-2.5005564386	-0.9859840066	 0.282991
72.5974	154.0122	214.2652	233.9025	251.283	269.1589	302.3664	337.8584	457.2771	481.8996	573.1859	619.5657	725.2893	779.9388	792.9986	824.6225	849.7133	871.1476	887.9145	929.6623	963.017	981.7769	983.9928	1008.2925	1029.6032	1080.7676	1095.9874	1138.0579	1151.1498	1164.6206	1181.6113	1212.6509	1226.3846	1242.9155	1251.7184	1275.8581	1299.3492	1308.5975	1331.3473	1345.9382	1379.1304	1410.2422	1446.4781	1483.0194	1499.8183	1501.1903	1501.7778	1507.7247	1527.257	3011.8189	3032.9275	3034.0275	3042.8793	3045.7251	3056.3495	3079.9522	3082.5467	3097.5557	3100.5214	3105.5664	3113.3514	3116.3847	3822.2002
CCC12CC(CC1)C2O	CC[C@@]12C[C@@H](CC1)[C@H]2O	
InChI=1S/C8H14O/c1-2-8-4-3-6(5-8)7(8)9/h6-7,9H,2-5H2,1H3	InChI=1S/C8H14O/c1-2-8-4-3-6(5-8)7(8)9/h6-7,9H,2-5H2,1H3/t6-,7-,8+/m1/s1
