17
gdb 128475	3.78535	1.05947	0.86116	4.2313	70.24	-0.2738	-0.0422	0.2317	1314.8466	0.13451	-455.094961	-455.086093	-455.085149	-455.129953	31.055	
C	 0.014994353	 1.359856885	-0.0799944264	-0.238337
O	-0.0024840226	-0.0413747234	 0.0896623495	-0.251165
C	-1.2900891898	-0.6318117773	 0.0021629053	 0.023129
C	-1.8190094424	-0.7218315791	-1.4323881058	-0.404146
C	-1.1519378543	-1.9874575927	 0.6405004781	 0.33216
N	-2.0426220734	-2.934484892	 0.5214250258	-0.169652
O	-1.5719461074	-3.9867178855	 1.2570933712	-0.146632
N	-0.3706347002	-3.6903107369	 1.8355375673	-0.068111
C	-0.0988933308	-2.4692792525	 1.4699219169	-0.099998
H	 1.0371503463	 1.6898933371	 0.1181619974	 0.135384
H	-0.2584126571	 1.6636709121	-1.0995006061	 0.117018
H	-0.6644773302	 1.8600493343	 0.6270741566	 0.111235
H	-1.998611141	-0.0403358531	 0.6075325927	 0.096703
H	-2.7694274442	-1.2607454619	-1.4444222549	 0.150315
H	-1.9818283447	 0.2738592305	-1.8523800314	 0.119335
H	-1.1050065192	-1.25978018	-2.0617611444	 0.134293
H	 0.8038487782	-1.9693479346	 1.7779961783	 0.15847
27.3314	78.274	156.8333	171.8861	203.23	248.7947	325.9112	368.6242	435.93	480.0113	648.1178	677.268	759.8899	865.1463	892.9273	910.9103	934.5859	1012.5915	1033.573	1052.6702	1092.8091	1109.6064	1154.8346	1183.6043	1199.7564	1224.6164	1341.8362	1366.925	1402.0843	1422.2425	1463.0541	1477.1638	1483.2383	1492.9159	1501.8484	1513.0564	1611.9924	2954.2955	2986.195	3042.1133	3053.2806	3121.0339	3129.4318	3136.33	3294.4492
COC(C)C1=NON=C1	CO[C@@H](C)c1nonc1	
InChI=1S/C5H8N2O2/c1-4(8-2)5-3-6-9-7-5/h3-4H,1-2H3	InChI=1S/C5H8N2O2/c1-4(8-2)5-3-6-9-7-5/h3-4H,1-2H3/t4-/m0/s1
