20
gdb 53322	3.1326	1.04811	0.90665	1.7855	88.18	-0.222	0.0394	0.2613	1378.718	0.169925	-365.941725	-365.932178	-365.931234	-365.977589	34.562	
C	 0.0536212665	 1.7170477355	-0.4854591287	-0.498679
C	-0.0133316608	 0.2691473985	-0.3514270432	 0.054884
C	-0.0774299577	-0.9290283744	-0.2377147172	 0.121575
C	-0.118036613	-2.3760186236	-0.1421031914	-0.148071
C	 0.330256057	-3.1128622122	 1.157529822	-0.280196
C	-1.0321716598	-3.7993344888	 1.1327380383	-0.044054
C	-2.1536278801	-2.8401039935	 1.1597542338	 0.034732
C	-2.2137716485	-1.5468967586	 1.9394582813	-0.420357
N	-1.4745607127	-3.0689424275	-0.1381139368	-0.163571
H	 1.0876912271	 2.0732456097	-0.4185862074	 0.149172
H	-0.3462257647	 2.0450232719	-1.4513685069	 0.151095
H	-0.5211511992	 2.2197026257	 0.3003708334	 0.147303
H	 0.4153281223	-2.7951982428	-1.0009170502	 0.112699
H	 1.169226339	-3.7878501038	 0.9831738598	 0.112721
H	 0.5503854111	-2.495844654	 2.0322200275	 0.109666
H	-1.178135704	-4.8695734943	 1.2429830029	 0.091654
H	-3.1254624894	-3.329872541	 1.104765824	 0.095173
H	-1.237572965	-1.0914416328	 2.1069172412	 0.131569
H	-2.8346699557	-0.8122304274	 1.417371185	 0.128528
H	-2.6714723124	-1.7413387466	 2.9160506026	 0.114156
17.526	83.1931	97.9213	177.7199	227.7044	245.5031	302.4327	319.8878	396.4231	454.2678	495.2154	570.8045	699.1678	727.917	765.9676	790.3932	905.0484	920.1711	972.1226	982.8641	998.6137	1051.3374	1053.6683	1060.9199	1082.7741	1108.7481	1148.7175	1158.0421	1199.1286	1248.311	1263.0021	1274.2394	1350.4818	1367.5787	1414.1039	1419.7612	1442.6997	1476.8311	1478.6853	1484.4516	1495.5391	1506.0788	2361.6809	3026.1124	3039.0579	3049.5853	3067.3069	3086.4254	3087.5967	3097.8019	3109.8281	3125.1423	3145.4587	3156.6249
CC#CC1CC2C(C)N12	CC#C[C@H]1C[C@H]2[C@@H](C)N12	
InChI=1S/C8H11N/c1-3-4-7-5-8-6(2)9(7)8/h6-8H,5H2,1-2H3	InChI=1S/C8H11N/c1-3-4-7-5-8-6(2)9(7)8/h6-8H,5H2,1-2H3/t6-,7+,8+,9?/m1/s1
