21
gdb 40899	3.41685	1.26794	1.22224	1.3562	81.97	-0.2201	0.0845	0.3046	1139.8053	0.184583	-387.065594	-387.057663	-387.056719	-387.098314	30.987	
C	 0.1211972901	 1.6040950145	-0.0674400875	-0.208555
C	 1.63889521	 1.5474657767	 0.2827434378	-0.299074
C	 1.446329994	 0.0749238025	 0.6741440952	 0.32903
C	 0.0393123651	 0.053899805	 0.0611352569	-0.304925
C	 2.4133670964	-1.0893251696	 0.7291538732	-0.172159
C	 3.9020938888	-0.8006486439	 0.8435811235	-0.249075
C	 3.9849592554	 0.2054000997	 2.0150956913	-0.081185
O	 2.7852042234	 0.0701951522	 2.7837466125	-0.25858
C	 1.8028288032	-0.5489663936	 1.9941475718	 0.038554
H	-0.4640438906	 2.1210270163	 0.6964182159	 0.106886
H	-0.1368345753	 2.0228295529	-1.0423082346	 0.098311
H	 2.2882085145	 1.6903588493	-0.5874748574	 0.097074
H	 1.9734317829	 2.2120867114	 1.0831035323	 0.111904
H	-0.763800421	-0.3465953375	 0.687339153	 0.097799
H	 0.0038313998	-0.453153565	-0.9089378659	 0.098041
H	 2.098265239	-2.0362141689	 0.3026995644	 0.083623
H	 4.4324472882	-1.7291118281	 1.0792586074	 0.108083
H	 4.3456858673	-0.3869433111	-0.0675066884	 0.104264
H	 4.8329217966	 0.021106622	 2.6819776739	 0.105667
H	 4.0707370409	 1.2313326307	 1.6361548917	 0.100875
H	 1.0611886914	-1.0678794758	 2.5931087329	 0.093445
72.0884	151.1595	172.7679	182.3312	245.6059	383.3301	466.6643	570.7307	696.2245	711.4017	717.619	790.6043	835.4565	851.3941	854.0551	878.0988	928.1141	942.2619	959.4901	973.8489	995.334	1033.867	1050.7922	1073.9592	1123.0012	1127.2595	1145.1163	1168.725	1209.2804	1219.1592	1229.958	1238.3482	1251.7231	1259.1651	1278.2158	1291.8343	1308.756	1319.2938	1393.825	1433.2885	1477.4076	1480.6778	1497.8817	1504.3023	1526.7877	3021.5769	3037.8427	3043.76	3045.9206	3068.0536	3070.4754	3082.6657	3090.393	3097.1966	3123.3546	3155.1247	3165.1832
C1CC2(C1)C1CCOC21	C1CC2(C1)[C@H]1CCO[C@@H]21	
InChI=1S/C8H12O/c1-3-8(4-1)6-2-5-9-7(6)8/h6-7H,1-5H2	InChI=1S/C8H12O/c1-3-8(4-1)6-2-5-9-7(6)8/h6-7H,1-5H2/t6-,7+/m0/s1
