18
gdb 115261	3.30177	0.94009	0.76077	5.4176	81.92	-0.2576	-0.0379	0.2197	1451.9108	0.148448	-401.978083	-401.969239	-401.968295	-402.012159	32.149	
O	-0.0444078691	 1.4556252919	 0.0259314347	-0.42074
C	 0.027936332	 0.0408006885	-0.0357313083	-0.090312
C	-1.3987396323	-0.499177398	 0.0470028869	-0.012977
C	-1.4872774243	-2.0446824802	-0.0475593333	-0.251347
C	-2.6287276857	-2.4632776535	 0.9116314681	-0.314857
C	-2.7478295136	-1.2583688652	 1.8308276667	 0.192207
C	-2.0858523179	-0.1959239842	 1.3540368554	-0.148434
C	-3.5194362421	-1.2858821335	 3.0244042379	 0.20038
N	-4.1530437211	-1.3450911162	 3.9927596921	-0.337504
H	 0.8501603052	 1.8080153497	 0.0368812624	 0.292175
H	 0.4914399829	-0.2993462478	-0.9756414954	 0.093195
H	 0.6226784081	-0.3698447559	 0.7959661724	 0.091175
H	-1.9632742533	-0.0200053906	-0.7667346993	 0.103054
H	-1.6476891711	-2.3951105177	-1.0693972354	 0.111061
H	-0.5436523664	-2.4796472161	 0.3011661994	 0.110316
H	-3.5752098454	-2.6271458212	 0.3812972682	 0.125817
H	-2.4113387534	-3.3865311392	 1.4564961502	 0.125079
H	-2.0525398025	 0.7824179891	 1.8161282373	 0.131711
80.1604	112.3215	122.636	162.3574	225.359	263.1719	319.0182	409.3263	476.3767	529.1264	567.4709	575.6114	636.7839	833.6096	868.1475	905.2997	914.7273	948.5933	973.4766	1027.6204	1076.2231	1086.4272	1112.4981	1157.4561	1173.8967	1239.35	1243.4894	1250.2914	1266.4214	1305.9635	1325.6653	1341.0238	1369.1379	1453.1527	1485.8445	1501.373	1521.9285	1674.5866	2336.0917	2964.8923	2989.6971	3007.377	3032.0277	3043.2424	3083.7958	3108.0247	3226.4666	3833.6593
OCC1CCC(=C1)C#N	OC[C@H]1CCC(=C1)C#N	
InChI=1S/C7H9NO/c8-4-6-1-2-7(3-6)5-9/h3,7,9H,1-2,5H2	InChI=1S/C7H9NO/c8-4-6-1-2-7(3-6)5-9/h3,7,9H,1-2,5H2/t7-/m0/s1
