20
gdb 73556	2.68014	1.71595	1.35872	3.8038	78.58	-0.2412	0.0304	0.2716	1025.5149	0.173789	-403.178099	-403.170351	-403.169407	-403.209895	30.853	
C	 0.1013946725	 1.4481952413	-0.0518195375	-0.445346
C	-0.0666090578	-0.0838781768	-0.1016955929	 0.213654
C	 0.8098754977	-0.7100196058	-1.200685146	-0.310192
C	 2.1662274565	-0.8534879117	-0.4658224759	-0.090331
O	 1.8580098284	-1.0235643407	 0.9407905241	-0.258978
C	 0.5527851067	-0.7433977056	 1.1147522305	 0.428874
N	-0.1808116517	-1.0537051771	 2.0981560564	-0.322596
C	-1.5532440664	-0.677045469	 1.6929351837	-0.160013
C	-1.5264896952	-0.5077706974	 0.1377239465	-0.301774
H	 1.1543508175	 1.7437753833	-0.0126518584	 0.122338
H	-0.3436890052	 1.9035113014	-0.9427809038	 0.119204
H	-0.3924448123	 1.870328164	 0.8280799209	 0.130809
H	 0.4301919294	-1.6968113326	-1.4837897806	 0.11338
H	 0.9027942249	-0.1046723578	-2.1059975637	 0.107091
H	 2.7414279243	-1.7260070101	-0.7837943291	 0.124386
H	 2.7948052723	 0.0366551318	-0.5785039924	 0.117645
H	-2.2531237313	-1.4552525201	 2.0115858747	 0.108687
H	-1.8591811595	 0.2485346271	 2.1992793311	 0.103737
H	-2.2628142562	 0.2114060741	-0.2311787924	 0.096785
H	-1.7283606947	-1.4738020984	-0.3373572553	 0.102639
153.6924	192.3421	224.9036	242.003	274.65	338.8312	356.1232	489.5595	622.9715	638.176	696.0217	712.2109	733.3725	834.011	850.8304	917.3608	934.2673	955.9768	968.9091	977.1622	984.8868	1046.4709	1056.0068	1127.9533	1146.3526	1192.3819	1210.7883	1234.562	1241.5924	1259.058	1299.1866	1312.8976	1326.043	1333.1601	1403.8377	1424.0135	1480.3679	1492.5718	1497.0339	1500.8727	1509.6591	1525.8058	1761.8939	3016.101	3035.1526	3045.2532	3046.1263	3054.1368	3076.923	3099.169	3100.5727	3104.6055	3111.4092	3114.5124
CC12CCOC1=NCC2	C[C@@]12CCO[C]1[N]CC2	
InChI=1S/C7H11NO/c1-7-2-4-8-6(7)9-5-3-7/h2-5H2,1H3	InChI=1S/C7H11NO/c1-7-2-4-8-6(7)9-5-3-7/h2-5H2,1H3/t7-/m1/s1
