18
gdb 54763	2.78702	1.33606	1.25905	6.148	72.83	-0.2487	0.0162	0.2648	1087.5342	0.148458	-439.064975	-439.057118	-439.056174	-439.097448	30.397	
C	 0.2079856473	 1.4329993276	 0.2126555931	-0.513265
C	 0.0761116415	-0.0444156635	-0.0083179053	 0.321159
C	 0.5752485246	-0.9247542648	-1.1909483529	-0.271835
C	-0.0130918335	-1.8786199717	-0.1251366906	-0.031286
N	 0.6623890966	-1.070300847	 0.9724887502	-0.386602
H	 1.6801885369	-1.1153259623	 0.8812067101	 0.21874
H	-0.5415234044	-1.0886498754	 2.2297514451	 0.312757
C	-1.231403173	-0.9159588349	 0.0059141225	-0.14612
C	-2.1317593416	-0.9421262401	 1.2376950808	 0.388656
O	-1.5162596339	-1.0397358599	 2.4210566695	-0.379747
O	-3.3296658026	-0.8684740239	 1.1334632961	-0.342775
H	 1.258896824	 1.7405741019	 0.1950514281	 0.126865
H	-0.3204692323	 1.9825364064	-0.5722709994	 0.139596
H	-0.2204664742	 1.715479906	 1.178970611	 0.148794
H	 0.0526087225	-0.8380232237	-2.1471500988	 0.110038
H	 1.6609664372	-0.969813202	-1.3230301004	 0.098587
H	-0.0194977797	-2.9679270929	-0.103320129	 0.104942
H	-1.8576971456	-0.8294705999	-0.8806795002	 0.101497
90.0673	133.6824	202.8118	280.0731	308.9516	329.0928	423.8951	431.1803	614.6798	616.9001	705.4991	706.8267	771.404	823.3742	886.7894	904.2248	915.6468	940.1564	963.2609	1015.1842	1024.0165	1057.4215	1083.4663	1110.4299	1157.1772	1178.9639	1198.0626	1219.1576	1257.5223	1269.3961	1295.1043	1319.8976	1367.356	1413.6327	1482.7407	1487.717	1505.8923	1512.0144	1849.2012	3037.2579	3044.4078	3107.9413	3114.0341	3118.1419	3125.336	3136.6133	3215.9782	3412.9807
CC12CC([NH2+]1)C2C([O-])=O	C[C@@]12C[C@@H](N1)[C@H]2C(=O)O	
InChI=1S/C6H9NO2/c1-6-2-3(7-6)4(6)5(8)9/h3-4,7H,2H2,1H3,(H,8,9)	InChI=1S/C6H9NO2/c1-6-2-3(7-6)4(6)5(8)9/h3-4,7H,2H2,1H3,(H,8,9)/t3-,4+,6+/m1/s1
