19
gdb 72156	2.71944	1.95807	1.81446	0.2689	73.17	-0.2328	0.0935	0.3263	883.318	0.162181	-423.024406	-423.017891	-423.016947	-423.054826	28.113	
C	-0.0866388068	 1.479268621	 0.0083151081	-0.501799
C	 0.0222905952	-0.0207499847	-0.0454364949	 0.377217
C	 0.6626728378	-0.7370425141	-1.2547542374	-0.227771
C	 0.5972338287	-2.0826029579	-0.517695031	 0.032932
O	 1.5318291087	-1.7936475296	 0.5368699872	-0.267639
C	 0.7236030634	-0.8018455816	 1.190749763	 0.007791
C	-0.4093666334	-1.7177694938	 1.6840273742	-0.203839
C	-0.8302419068	-1.9806890508	 0.2274897197	 0.045356
O	-1.2738146187	-0.6584156358	-0.1090846245	-0.298542
H	 0.9079137501	 1.9348536421	-0.0040420356	 0.124016
H	-0.6482970946	 1.8548350709	-0.8523642688	 0.130823
H	-0.6039633734	 1.8017913524	 0.9171967281	 0.125978
H	 0.0256329974	-0.6248226737	-2.1332892096	 0.102237
H	 1.6992874777	-0.4833809707	-1.4812091487	 0.102511
H	 0.8519109876	-3.0096047342	-1.0267776794	 0.081786
H	 1.3102884743	-0.215620112	 1.8953887519	 0.078487
H	 0.0030448426	-2.5607363233	 2.240038098	 0.104486
H	-1.2260843429	-1.2434227718	 2.2294251157	 0.104439
H	-1.5888344269	-2.7248406824	-0.0054401457	 0.081533
204.5601	251.0556	273.3356	422.5836	494.2552	563.4661	589.5613	593.5514	635.9138	679.3738	762.2814	824.9948	859.9426	872.2443	899.1353	917.8019	931.9325	945.0351	968.4984	983.4063	1004.1981	1012.8925	1039.4352	1088.0645	1113.1894	1142.1933	1168.4793	1181.9864	1220.6971	1245.9045	1259.6807	1270.8202	1278.1833	1304.7519	1324.1293	1349.9225	1417.6188	1473.0793	1475.5837	1482.3317	1495.7341	3040.1725	3081.388	3084.1476	3110.1182	3115.9022	3143.7536	3144.2284	3145.1248	3148.512	3153.9887
CC12CC3OC1CC3O2	C[C@@]12C[C@H]3O[C@@H]1C[C@H]3O2	
InChI=1S/C7H10O2/c1-7-3-5-4(9-7)2-6(7)8-5/h4-6H,2-3H2,1H3	InChI=1S/C7H10O2/c1-7-3-5-4(9-7)2-6(7)8-5/h4-6H,2-3H2,1H3/t4-,5-,6-,7-/m1/s1
