21
gdb 120860	3.74212	0.6176	0.56577	1.3466	77.07	-0.255	0.0751	0.3301	1989.489	0.179544	-461.318627	-461.307858	-461.306914	-461.35614	36.851	
C	-0.4554624597	 1.3043320882	-0.1516873461	-0.225346
O	-0.2866142505	-0.0914423482	-0.2109081723	-0.233505
C	 0.8311163481	-0.4748332879	-0.9813560222	-0.083992
C	 0.9057729026	-1.9792744562	-0.970364167	 0.044524
O	 0.25861618	-2.6915562803	-2.0290307989	-0.259596
C	 1.6872276105	-2.7726927909	-1.9306609273	 0.049331
C	 2.4993246835	-2.2039654195	-3.06902673	-0.218225
C	 2.4333287938	-3.0957747419	-4.3059407537	-0.066413
O	 3.262629264	-2.5139971549	-5.2993153478	-0.422333
H	 0.4163082171	 1.8031087711	 0.3021219974	 0.102506
H	-0.6164606956	 1.7399556335	-1.1504763958	 0.106574
H	-1.3355225677	 1.50089348	 0.4651267928	 0.129633
H	 0.7404086586	-0.1049562704	-2.0131403936	 0.099759
H	 1.7576446721	-0.0519436964	-0.5520598763	 0.088579
H	 0.7359438263	-2.4041235952	 0.0203034916	 0.097854
H	 2.0378666168	-3.7461090184	-1.5774178018	 0.087801
H	 2.1516965151	-1.2040376122	-3.3408599129	 0.113274
H	 3.5470845909	-2.112810392	-2.7567375699	 0.111297
H	 2.7705442559	-4.1137008662	-4.0485772269	 0.084128
H	 1.3883744919	-3.170686543	-4.6417467317	 0.107075
H	 3.1832067962	-3.037913229	-6.1016032073	 0.287075
44.6821	69.3623	84.218	88.3638	119.0044	182.3843	233.1405	256.8946	272.9715	331.4357	366.9297	487.0438	500.6423	551.4784	772.3826	824.2504	867.7883	929.512	988.7132	1014.6506	1033.807	1068.7056	1094.9321	1104.1993	1149.1343	1171.4523	1174.812	1189.1255	1227.6212	1230.4795	1243.1476	1266.8267	1301.7035	1313.1205	1328.3036	1370.4855	1427.8386	1459.0917	1476.4983	1478.2211	1485.7308	1496.1813	1503.581	1522.3227	1529.0592	2942.4513	2962.749	2968.8802	3008.0083	3010.4082	3013.7325	3042.2879	3069.5696	3103.1146	3109.0455	3116.3114	3831.9484
COCC1OC1CCO	COC[C@H]1O[C@H]1CCO	
InChI=1S/C6H12O3/c1-8-4-6-5(9-6)2-3-7/h5-7H,2-4H2,1H3	InChI=1S/C6H12O3/c1-8-4-6-5(9-6)2-3-7/h5-7H,2-4H2,1H3/t5-,6+/m0/s1
