15
gdb 33962	3.40983	1.445	1.24472	4.9172	69.62	-0.2627	-0.0043	0.2584	998.3073	0.114019	-416.772398	-416.765486	-416.764542	-416.803691	27.131	
N	 0.0163845931	-1.1586984128	-0.0750609107	-0.331514
C	 0.0485025728	-0.0056479565	 0.0007435497	 0.210458
C	 0.0644980193	 1.4280975925	 0.1427672577	 0.338789
O	 0.2810041915	 2.1979102746	-1.0399466711	-0.26053
C	 1.2817564063	 2.2650072696	-0.0269546416	-0.027712
C	 1.1972443697	 3.46515187	 0.909882693	-0.252633
C	-0.1425936874	 3.3315394745	 1.6360268139	-0.040498
N	-1.3265208781	 3.4072060743	 0.765095225	-0.307815
C	-0.828371695	 2.088366272	 1.1850568165	-0.158877
H	 2.2456700159	 1.8443826523	-0.303494082	 0.121191
H	 2.0207751747	 3.4158026157	 1.6301312761	 0.118497
H	 1.2808291939	 4.4071959489	 0.3600183442	 0.138503
H	-0.2206612374	 3.6834036012	 2.659720647	 0.101675
H	-2.1457324848	 3.6447078033	 1.3199270979	 0.240837
H	-1.4155072345	 1.4554329706	 1.8393199543	 0.109627
137.9726	154.6553	266.3284	327.0077	404.3443	479.2363	513.2779	550.7339	624.8589	709.5816	733.4082	805.5802	854.4897	864.6483	887.6819	927.3429	948.9085	985.6686	1001.3002	1044.7993	1100.3264	1148.4512	1163.1871	1175.6614	1212.0008	1232.013	1289.7719	1323.2781	1350.0636	1421.206	1428.4257	1461.2424	2359.0669	3055.5111	3103.2209	3148.6098	3161.6711	3192.6434	3500.1683
N#CC12OC1CC1NC21	N#C[C@]12O[C@H]1C[C@H]1N[C@@H]21	
InChI=1S/C6H6N2O/c7-2-6-4(9-6)1-3-5(6)8-3/h3-5,8H,1H2	InChI=1S/C6H6N2O/c7-2-6-4(9-6)1-3-5(6)8-3/h3-5,8H,1H2/t3-,4+,5-,6+/m1/s1
