21
gdb 40296	2.50958	1.54587	1.16713	2.3546	78.11	-0.2445	0.0703	0.3148	1130.5338	0.184165	-424.206322	-424.19797	-424.197026	-424.239517	32.266	
C	-0.077668927	 1.5350743599	-0.019550277	-0.232763
O	 1.1545784513	 0.8154637316	 0.0095026682	-0.273539
C	-0.0683987908	 0.0628575217	 0.0174120587	 0.412411
C	-0.378296086	-0.6651826915	 1.3142405243	-0.298484
C	 0.6812174354	-1.6995285879	 1.7469480323	-0.188274
C	 1.2678428533	-2.5882298811	 0.6276762681	-0.19929
C	 0.3662748704	-2.8575603269	-0.5839308162	-0.071535
O	 0.4167279196	-1.8090536254	-1.5398694774	-0.237792
C	-0.382027472	-0.6781258811	-1.2747983775	-0.139529
H	-0.3214940374	 2.0899355112	 0.8857749549	 0.110754
H	-0.2913246683	 2.0581526418	-0.9513919865	 0.110805
H	-0.500020948	 0.0632392122	 2.1225264362	 0.099552
H	-1.3529111359	-1.1544076182	 1.1964030238	 0.101216
H	 1.5071207207	-1.1701407038	 2.2319699129	 0.114233
H	 0.2270448238	-2.3291698906	 2.5206690546	 0.095537
H	 2.1760339668	-2.1265662718	 0.2258371639	 0.125032
H	 1.5720261046	-3.5484233271	 1.0606016068	 0.091903
H	 0.7315130895	-3.7418224175	-1.116135855	 0.106649
H	-0.6753900369	-3.0630600082	-0.285413722	 0.082541
H	-1.4514834408	-0.9550840047	-1.2582569076	 0.083621
H	-0.2184182725	-0.0073340427	-2.1228410054	 0.106949
60.3614	118.2649	164.3649	278.2019	298.5912	349.5083	378.5643	417.156	437.8403	556.3931	570.2317	711.3557	772.3397	801.8573	854.9437	895.2145	929.8424	946.8547	966.9376	996.5994	1014.0828	1031.8195	1097.3563	1111.2944	1131.8012	1143.3208	1176.2001	1210.6593	1226.4998	1259.0659	1297.3563	1314.2243	1332.9327	1363.9574	1374.3227	1381.7476	1393.216	1413.467	1442.0972	1473.8264	1476.2769	1484.204	1496.8808	1503.7094	1532.0123	2946.8579	2969.3953	3027.8443	3031.962	3042.6143	3065.0205	3071.3683	3076.1961	3077.2662	3088.9769	3092.3075	3161.4519
C1OC11CCCCOC1	C1O[C@]21CCCCOC2	
InChI=1S/C7H12O2/c1-2-4-8-5-7(3-1)6-9-7/h1-6H2	InChI=1S/C7H12O2/c1-2-4-8-5-7(3-1)6-9-7/h1-6H2/t7-/m1/s1
