16
gdb 44143	3.33095	1.20311	1.0655	2.1299	69.42	-0.2525	-0.0172	0.2353	1138.3383	0.123773	-437.832237	-437.824605	-437.82366	-437.865138	28.494	
O	-0.1491652129	-0.0103380311	 0.0491287093	-0.290283
C	-0.1463512455	 1.1793545283	 0.0617786371	 0.398016
C	-1.2138289499	 2.2877573254	 0.0722548971	-0.385452
C	-0.0275795878	 3.2480709828	 0.0403070963	-0.04388
C	 0.9526106158	 3.0076675334	 1.1107504245	-0.028189
C	 0.6385853143	 2.516394296	 2.4875736228	 0.07051
C	 1.710368362	 2.3565718454	 3.4784461789	-0.182144
O	 0.832651953	 3.4836961377	 3.521252562	-0.234046
N	 0.9838916892	 2.0903732429	-0.0795205963	-0.201057
H	-1.7864199259	 2.2821506875	-0.8587894153	 0.149214
H	-1.9061274979	 2.3308253679	 0.9158930347	 0.141231
H	 0.055759302	 4.0946518643	-0.6304553803	 0.1197
H	 1.8202543646	 3.6632605919	 1.1003781755	 0.121019
H	-0.255436949	 1.9060407151	 2.6054962583	 0.111749
H	 1.5893523228	 1.6362271302	 4.2851004478	 0.128061
H	 2.7385897551	 2.5749986124	 3.1945725975	 0.125551
58.143	106.0052	180.3129	235.8811	333.8446	432.131	475.2491	515.6659	588.9664	672.3378	741.0872	804.0424	858.0358	860.1521	872.0568	953.8302	965.0289	992.6311	1022.5836	1053.2413	1077.0496	1094.3305	1136.2243	1155.8283	1160.6642	1182.1246	1224.8579	1254.1903	1297.5317	1330.1113	1366.6136	1458.8471	1483.7837	1530.1509	1917.2998	3073.5649	3091.321	3123.2871	3128.7223	3145.9579	3182.3036	3194.233
O=C1CC2C(C3CO3)N12	O=C1C[C@H]2[C@@H]([C@H]3CO3)N12	
InChI=1S/C6H7NO2/c8-5-1-3-6(7(3)5)4-2-9-4/h3-4,6H,1-2H2	InChI=1S/C6H7NO2/c8-5-1-3-6(7(3)5)4-2-9-4/h3-4,6H,1-2H2/t3-,4+,6-,7?/m0/s1
