19
gdb 70093	2.15829	1.91332	1.46181	1.726	75.43	-0.2436	-0.0046	0.2389	1000.3549	0.15698	-423.019425	-423.010491	-423.009547	-423.052176	34.723	
C	-0.0874438644	 1.4900714933	 0.0321440617	-0.487759
C	 0.1220383247	 0.0027825738	-0.0233853092	 0.390133
O	-0.4712937218	-0.7789054911	 1.0189175255	-0.304822
C	 0.9757537017	-0.7796258874	 0.8860618106	-0.075682
C	 1.4896054715	-1.9528521022	 0.1207566324	-0.092858
C	 0.9837655414	-1.9487858437	-1.1131834703	-0.128587
C	 0.0990366215	-0.7375232399	-1.3817284959	 0.275193
C	-1.3178264172	-1.1193047323	-1.8175201615	-0.440713
O	 0.701574961	 0.1476070562	-2.3321647485	-0.471016
H	 0.6452871548	 2.0044492357	-0.5930085688	 0.143588
H	-1.0858867249	 1.755815864	-0.332202358	 0.124072
H	 0.0016171505	 1.8407917616	 1.0632256681	 0.122615
H	 1.5115813253	-0.3500290729	 1.7272845959	 0.095038
H	 2.145527109	-2.7044686398	 0.5429434796	 0.106453
H	 1.1356495229	-2.7170143046	-1.8652659514	 0.095776
H	-1.8127790916	-1.7019150911	-1.037845294	 0.145299
H	-1.9046186478	-0.2176639296	-2.0185914253	 0.123326
H	-1.2922714384	-1.7204243946	-2.734398117	 0.101732
H	 0.6865079019	-0.2866054655	-3.1914892139	 0.278213
126.6532	189.3591	194.6773	227.8927	238.9419	268.6348	288.8159	359.6436	408.5719	448.2797	487.0208	589.9699	611.1288	654.2714	757.4508	768.032	840.6463	860.8325	923.7439	941.8803	958.5016	976.8176	1006.8046	1055.9487	1088.6138	1106.7086	1141.4383	1146.1563	1195.1262	1226.1495	1277.566	1360.2097	1384.5576	1397.1926	1403.7529	1445.9442	1481.8443	1489.1045	1496.6638	1497.3233	1665.3222	3029.6256	3043.6094	3096.3962	3109.7118	3136.2002	3140.2703	3160.5972	3175.6832	3212.9418	3813.1721
CC12OC1C=CC2(C)O	C[C@]12O[C@H]1C=C[C@]2(C)O	
InChI=1S/C7H10O2/c1-6(8)4-3-5-7(6,2)9-5/h3-5,8H,1-2H3	InChI=1S/C7H10O2/c1-6(8)4-3-5-7(6,2)9-5/h3-5,8H,1-2H3/t5-,6-,7-/m0/s1
