21
gdb 92819	2.7777	1.63033	1.20914	0.207	88.93	-0.2232	0.0243	0.2475	1097.4411	0.184745	-349.978986	-349.971203	-349.970258	-350.010921	31.638	
C	-0.0714326288	 1.5567448391	-0.1163834617	-0.384262
C	-0.0136261068	 0.0275282435	-0.0507813944	-0.011075
C	 0.9366051198	-0.5520429183	-1.1495683337	-0.254232
C	 2.273493702	-0.6593226774	-0.4380415271	-0.227457
C	 2.104896327	-0.6401750031	 0.8803319329	 0.355134
C	 2.9714097015	-0.4229718108	 2.0920458139	-0.382071
C	 1.9993096274	 0.3253389543	 2.9962263996	-0.067058
C	 0.7433906118	 0.3007642223	 2.5389131217	-0.095273
C	 0.6400195796	-0.502465699	 1.2593966471	-0.096563
H	 0.9271792043	 1.9916343571	-0.0044637907	 0.120816
H	-0.4793996322	 1.8880715373	-1.0771443489	 0.106695
H	-0.7046340908	 1.9682348954	 0.6760636195	 0.108484
H	-1.0276826618	-0.3686097409	-0.1690377075	 0.060104
H	 0.5848528403	-1.5315937798	-1.5048692955	 0.098146
H	 0.9834535667	 0.0964089676	-2.0328869629	 0.095221
H	 3.2217715413	-0.6971843632	-0.9630231939	 0.084744
H	 3.293010275	-1.3633630039	 2.5662189214	 0.113561
H	 3.8858838496	 0.1403964888	 1.8727810917	 0.113437
H	 2.3170441731	 0.7874794363	 3.9248000801	 0.091138
H	-0.1089296653	 0.7349182196	 3.0500103179	 0.091489
H	 0.1955694462	-1.4857283451	 1.4921754704	 0.079023
103.9844	177.4968	244.5199	254.8235	321.5144	374.7879	403.8887	462.0255	611.759	647.3386	693.1337	752.837	773.4807	816.4995	847.5967	863.5942	903.8791	926.8743	940.9043	969.7935	974.3733	990.2064	1021.6317	1068.8712	1085.4415	1102.172	1131.0943	1147.8679	1168.9243	1215.549	1237.3734	1251.2062	1275.9835	1303.1547	1315.8607	1332.5676	1362.5675	1379.8932	1407.6846	1472.3861	1484.964	1496.2821	1499.1642	1659.2504	1740.4649	2941.8816	2986.5518	2998.3824	3031.7044	3045.4602	3048.1913	3051.3263	3098.387	3105.5298	3178.6521	3188.4372	3203.5959
CC1CC=C2CC=CC12	C[C@H]1CC=C2CC=C[C@@H]12	
InChI=1S/C9H12/c1-7-5-6-8-3-2-4-9(7)8/h2,4,6-7,9H,3,5H2,1H3	InChI=1S/C9H12/c1-7-5-6-8-3-2-4-9(7)8/h2,4,6-7,9H,3,5H2,1H3/t7-,9-/m0/s1
