17
gdb 75238	3.04287	1.50421	1.10047	0.773	76.32	-0.2363	-0.0498	0.1865	1090.5606	0.137279	-418.041141	-418.033026	-418.032081	-418.073677	31.188	
N	 0.0491266905	 1.3074522685	 0.1000333002	-0.569502
C	-0.0480770308	-0.0442880908	 0.0323547828	 0.299538
N	-1.1257641613	-0.7427650876	 0.013319076	-0.304403
C	-0.7754516961	-2.171584135	-0.0037594733	-0.262095
C	 0.747051465	-2.2630767249	-0.0106507873	 0.218214
C	 1.5705092967	-3.3095154789	 0.7212109481	-0.295188
C	 1.5634620524	-3.2946707305	-0.7692966876	-0.295718
C	 1.2195254211	-0.8558761558	 0.0018527921	 0.284333
O	 2.3493583254	-0.4189296478	-0.0262241409	-0.357818
H	 0.9534003892	 1.6986471295	-0.1115452012	 0.26911
H	-0.7651455448	 1.8632020138	-0.1021905024	 0.263117
H	-1.2205835792	-2.660369215	 0.8721864926	 0.115002
H	-1.2253165113	-2.6404154226	-0.8880112304	 0.114208
H	 2.4586118069	-2.949632452	 1.2301337882	 0.136981
H	 1.019172152	-4.0875942265	 1.2382987777	 0.124026
H	 1.008435069	-4.0633264487	-1.2964114487	 0.123571
H	 2.4466646153	-2.9231076657	-1.2784990359	 0.136624
71.9185	214.2678	226.1984	230.5181	272.7966	329.3596	366.0912	457.6938	471.8479	539.6697	575.5544	656.1136	739.0221	788.6274	792.5478	855.0771	903.1491	951.1511	956.2062	995.1992	1046.8266	1057.581	1077.0904	1094.2348	1156.6633	1202.8957	1206.0293	1265.0853	1293.8608	1379.09	1424.2517	1457.369	1488.1902	1495.7861	1606.6389	1722.1124	1811.4882	3018.6636	3044.6339	3129.587	3130.8862	3215.0018	3229.9518	3593.4319	3718.3013
NC1=NCC2(CC2)C1=O	NC1=NCC2(CC2)C1=O	
InChI=1S/C6H8N2O/c7-5-4(9)6(1-2-6)3-8-5/h1-3H2,(H2,7,8)	InChI=1S/C6H8N2O/c7-5-4(9)6(1-2-6)3-8-5/h1-3H2,(H2,7,8)
