19
gdb 40725	4.12687	1.12554	1.05659	2.5828	74.72	-0.2493	0.0837	0.3331	1184.6376	0.160846	-422.978942	-422.971582	-422.970637	-423.011212	28.956	
C	 0.1977519087	 1.4907952071	 0.0064002683	-0.186862
O	 1.1892227019	 0.4722616632	-0.1355940481	-0.245718
C	-0.1773359441	 0.072184431	 0.0244148615	 0.077443
C	-0.5166385187	-0.6568476534	 1.2968893732	-0.002088
C	-2.0561416047	-0.7827537279	 1.5645442794	-0.256118
C	-2.1383141693	-2.3232267238	 1.537514936	 0.086663
C	-0.9564028362	-2.7731061244	 2.4237993913	-0.236323
C	-0.2224205237	-2.1774146359	 1.2053405354	 0.066057
O	-1.3249556407	-2.6473241038	 0.3640097844	-0.300597
H	 0.2327272613	 2.0485233809	 0.9421177231	 0.10822
H	 0.0118755011	 2.0920262643	-0.882663717	 0.114082
H	-0.625232277	-0.3539608521	-0.8739079551	 0.105956
H	 0.0221159507	-0.1931696167	 2.1285463401	 0.075897
H	-2.3664134556	-0.3484572844	 2.518189948	 0.101919
H	-2.6559818718	-0.337470674	 0.7668340623	 0.109954
H	-3.1172836927	-2.801660472	 1.5472332413	 0.081221
H	-0.8195854037	-2.3182946044	 3.4086375402	 0.094595
H	-0.865057879	-3.8586835227	 2.4639914968	 0.113789
H	 0.7645901735	-2.4950747913	 0.8712035889	 0.091911
76.126	132.4812	172.6918	321.0217	379.3925	420.5839	471.9573	587.9029	720.4457	806.017	833.336	846.9714	858.526	868.6066	877.2431	913.7603	943.5643	962.107	981.9563	994.4284	1038.0137	1051.7932	1089.4127	1110.072	1126.2717	1156.4845	1177.8453	1194.305	1208.6199	1226.0085	1239.4304	1262.7604	1281.4711	1288.2741	1291.2461	1322.2391	1341.0575	1451.9424	1480.0494	1494.6888	1531.083	3062.0993	3063.4473	3069.732	3078.146	3111.5096	3115.8771	3126.3258	3133.8191	3146.1152	3163.7769
C1OC1C1CC2CC1O2	C1O[C@H]1[C@H]1C[C@@H]2C[C@H]1O2	
InChI=1S/C7H10O2/c1-4-2-6(9-4)5(1)7-3-8-7/h4-7H,1-3H2	InChI=1S/C7H10O2/c1-4-2-6(9-4)5(1)7-3-8-7/h4-7H,1-3H2/t4-,5+,6-,7-/m1/s1
