20
gdb 111700	2.65587	1.17448	0.95262	4.5251	85.28	-0.2636	0.0198	0.2834	1309.9549	0.17161	-366.009605	-366.000717	-365.999772	-366.043433	33.402	
C	 0.2134523451	 1.4395810492	 0.207611263	-0.375915
C	-0.197597771	-0.0047049586	-0.1050026592	-0.215449
C	 0.5967392301	-0.5830202224	-1.259403448	-0.042612
C	 1.9594637937	-1.202023276	-1.1676667947	-0.110303
C	 2.140006596	-2.033296508	 0.1088874246	-0.232178
C	 0.9026599158	-2.9021050975	-0.278018011	-0.294394
C	 0.7290887845	-2.0657441984	-1.5611785506	 0.182264
C	 0.3845420753	-2.6057647957	-2.8345593788	 0.184571
N	 0.1031444782	-3.0551706947	-3.864544845	-0.355315
H	 1.2694290915	 1.4971808456	 0.4914643339	 0.121464
H	 0.068515904	 2.0895972235	-0.6619264423	 0.120579
H	-0.3800021094	 1.8472868875	 1.0312491584	 0.117853
H	-0.0795183133	-0.6192611248	 0.7927051115	 0.104604
H	-1.2639076159	-0.0393625447	-0.3598382519	 0.110776
H	 0.4834461177	-0.0119961813	-2.1795616896	 0.107513
H	 2.7645244483	-0.8906113868	-1.8220221839	 0.108975
H	 3.0640633991	-2.6134020251	 0.1012290248	 0.117868
H	 2.0855604852	-1.4821129307	 1.0518895709	 0.109474
H	 1.1759031318	-3.9344061552	-0.4997070828	 0.128148
H	 0.0503762633	-2.9048174359	 0.4063543107	 0.112078
65.647	129.6879	147.1264	202.9344	205.9711	272.4103	294.7234	402.6274	487.4245	533.3914	572.3309	609.1269	726.3036	772.2972	796.4989	826.1335	876.3923	932.3046	940.8398	953.6751	1007.7414	1036.2621	1060.5143	1083.8972	1116.9324	1131.022	1145.4136	1219.437	1228.464	1245.5061	1252.7184	1288.5023	1308.8016	1330.2494	1364.574	1411.5102	1460.9547	1477.382	1492.2945	1497.4526	1505.5123	1510.0516	2338.5799	3034.3659	3037.3664	3062.299	3069.1162	3078.4766	3105.1806	3109.5171	3114.3772	3130.7647	3133.6527	3191.28
CCC1C2CCC12C#N	CC[C@H]1[C@H]2CC[C@@]12C#N	
InChI=1S/C8H11N/c1-2-6-7-3-4-8(6,7)5-9/h6-7H,2-4H2,1H3	InChI=1S/C8H11N/c1-2-6-7-3-4-8(6,7)5-9/h6-7H,2-4H2,1H3/t6-,7+,8+/m0/s1
