22
gdb 68833	2.69509	1.41936	1.19233	1.8229	87.52	-0.2124	0.0743	0.2868	1173.0306	0.193285	-367.166848	-367.157676	-367.156732	-367.200004	36.061	
C	-0.0612935792	 1.5291191113	 0.0683430898	-0.506419
C	 0.1428539131	 0.0472902966	 0.0079984632	 0.300293
C	 0.6882174938	-0.7570067172	-1.1868289453	-0.368029
C	 1.2944778487	-1.7494820291	-0.1669160446	 0.388519
C	 1.4198647693	-3.2372991931	-0.2607170258	-0.317237
C	 2.6595385627	-2.3660701366	-0.2366643467	-0.343785
C	 0.7347105434	-0.9232778127	 0.9809972736	 0.19628
C	 1.3170687015	-0.7527386357	 2.3489591064	-0.518
N	-0.7417936898	-0.8985050278	 0.744383091	-0.412123
H	 0.8075717239	 2.0642214066	-0.3301200843	 0.122284
H	-0.9363191955	 1.8318718188	-0.5197202226	 0.127908
H	-0.2214992489	 1.8679061498	 1.0981594977	 0.113877
H	-0.0716546388	-1.152178121	-1.8669322362	 0.101496
H	 1.4505571771	-0.2146997366	-1.7544486809	 0.096004
H	 1.1924553339	-3.8295439877	 0.6198353496	 0.11021
H	 1.1484298049	-3.7130375783	-1.1975244788	 0.111199
H	 3.2266028365	-2.250968298	-1.155406446	 0.108393
H	 3.2706982764	-2.3768022454	 0.6608302807	 0.107777
H	 2.3941319239	-0.5613104224	 2.2978731492	 0.126002
H	 0.851329599	 0.0882642289	 2.8742242565	 0.116121
H	 1.1648835313	-1.649238143	 2.9625425215	 0.12737
H	-1.1465941272	-0.3678200674	 1.5184397019	 0.211858
110.9352	178.7582	191.4231	198.8591	220.3365	223.4039	335.403	336.6893	422.7394	470.6624	479.8265	556.9817	622.5605	705.0129	755.5972	779.0637	836.6418	863.3322	899.1322	937.5017	949.1641	977.2506	987.4941	1046.7705	1055.7223	1075.1119	1087.1446	1098.7211	1115.485	1139.2412	1176.9234	1185.6945	1209.1145	1223.6899	1306.6	1351.0632	1392.3937	1409.4849	1415.6493	1453.4583	1463.8567	1479.0792	1481.3936	1492.2834	1495.6958	1504.3971	1514.6824	3018.9402	3021.569	3046.6696	3079.3804	3080.6695	3091.6746	3096.2238	3102.8417	3118.2971	3126.56	3195.7918	3212.7554	3438.3432
CC12CC3(CC3)C1(C)N2	C[C@@]12CC3(CC3)[C@]1(C)N2	
InChI=1S/C8H13N/c1-6-5-8(3-4-8)7(6,2)9-6/h9H,3-5H2,1-2H3	InChI=1S/C8H13N/c1-6-5-8(3-4-8)7(6,2)9-6/h9H,3-5H2,1-2H3/t6-,7-/m1/s1
