14
gdb 21730	3.66582	1.90929	1.30515	3.7135	59.66	-0.2205	-0.0049	0.2156	881.6396	0.109241	-415.84184	-415.834982	-415.834037	-415.872925	25.904	
N	 0.0944438097	 1.5509999422	 0.1459913726	-0.526929
H	 0.5421759717	 0.7182222313	-0.225992229	 0.250555
H	 1.4369494892	 2.4257014432	 1.3076906215	 0.301694
H	-0.3985616853	 1.9902729286	-0.6240735302	 0.247924
C	-0.8528705559	 1.1800734507	 1.2185008693	-0.280958
C	-0.0754492009	 0.8247191292	 2.4490511608	 0.280679
N	-0.4676902356	-0.0900395979	 3.3029724466	-0.20739
O	 0.4799155478	-0.0983712523	 4.3100896244	-0.16998
C	 1.4444560823	 0.8084795435	 4.0280540154	-0.023503
C	 1.15340064	 1.4328277159	 2.8556154158	 0.152758
O	 1.8336386216	 2.397326126	 2.2031820508	-0.43997
H	-1.4695597757	 2.0638466588	 1.4224189548	 0.137394
H	-1.5367462077	 0.3619337098	 0.9581696471	 0.129982
H	 2.2501906188	 0.8919846711	 4.73780309	 0.147744
105.9359	213.598	249.7284	315.5833	365.1371	424.0136	473.8037	604.0942	660.0552	712.1607	740.6442	745.8007	786.9354	898.5996	924.4578	952.7348	1006.1462	1043.5959	1130.7579	1171.2035	1215.5509	1284.2687	1302.9488	1378.7821	1411.5126	1492.85	1503.6866	1534.7384	1654.3772	1699.7357	3019.5151	3058.5223	3282.9252	3497.4918	3506.6917	3582.5752
[NH3+]CC1=NOC=C1[O-]	NCc1nocc1O	
InChI=1S/C4H6N2O2/c5-1-3-4(7)2-8-6-3/h2,7H,1,5H2	InChI=1S/C4H6N2O2/c5-1-3-4(7)2-8-6-3/h2,7H,1,5H2
