14
gdb 46167	1.88553	1.65821	1.32142	5.4491	74.41	-0.2582	0.0009	0.2591	1042.0481	0.099782	-395.685825	-395.677198	-395.676254	-395.719183	31.314	
N	-0.0233320762	 1.1763140982	-0.4649685073	-0.525607
C	 0.0396887023	-0.0065862826	-0.0488520124	 0.369257
N	 0.9581017046	-0.8628246877	 0.5286881462	-0.328971
C	 0.1172386891	-2.0590438743	 0.4752267865	-0.195496
C	-1.059221015	-1.1249365805	-0.0252819486	-0.105294
C	-2.1348698772	-0.912045935	 0.9264462431	 0.294444
C	-3.0068953952	-0.7391502444	 1.7325541182	-0.41696
C	-1.5541224827	-1.473448568	-1.3556423228	 0.267808
N	-1.9191681256	-1.7720349227	-2.4099735669	-0.331888
H	 0.8624111033	 1.6750903099	-0.3751267701	 0.224775
H	 1.9644617779	-0.8095394718	 0.4861086481	 0.256106
H	 0.4156572905	-2.8056152262	-0.2661518835	 0.140773
H	-0.0679436019	-2.5291929751	 1.4430660108	 0.139526
H	-3.7867826639	-0.5758736399	 2.4353389488	 0.211525
96.5917	122.6382	131.3588	159.9644	225.2269	354.9629	370.5657	415.7074	483.9153	555.8218	580.0289	617.7376	644.6492	665.494	678.9881	770.9665	819.5392	929.0844	942.2439	1021.0428	1032.7892	1146.3471	1155.3778	1219.9365	1226.6572	1320.8401	1380.537	1520.2853	1815.9089	2249.5255	2364.9813	3057.1006	3120.2717	3480.7618	3499.7739	3621.7102
N=C1NCC1(C#C)C#N	[NH][C]1NC[C@]1(C#C)C#N	
InChI=1S/C6H5N3/c1-2-6(3-7)4-9-5(6)8/h1H,4H2,(H2,8,9)	InChI=1S/C6H5N3/c1-2-6(3-7)4-9-5(6)8/h1H,4H2,(H2,8,9)/t6-/m0/s1
