14
gdb 18843	4.0281	2.37801	1.9625	3.2581	64.91	-0.2192	-0.0143	0.2049	700.637	0.108901	-345.392266	-345.386685	-345.385741	-345.421724	22.929	
O	 0.0122687537	 0.0671934292	-0.0172064109	-0.331574
C	-0.0213477996	 1.2622185184	 0.0712561006	 0.440285
C	-1.1210305284	 2.2649451654	-0.010613974	-0.202072
C	-0.7422984804	 3.5893546973	 0.6955593084	-0.078171
C	 0.2812832568	 3.5336931099	 1.7909598349	-0.091248
C	 1.3569852934	 2.8735544933	 1.3565679405	-0.090172
C	 1.0934102106	 2.3587913233	-0.0425464007	-0.215431
C	-0.0689289813	 3.2493772141	-0.5898969134	-0.074468
H	-2.1391445434	 2.071655489	-0.3219075109	 0.113395
H	-1.5462968179	 4.3168620261	 0.7100862918	 0.100133
H	 0.120828634	 3.9449925204	 2.7785565285	 0.108547
H	 2.2329649672	 2.6039877432	 1.9314309135	 0.114544
H	 1.9463261058	 2.1070976784	-0.6695216637	 0.092527
H	-0.1146865605	 3.777996262	-1.5321555746	 0.113704
152.5808	353.612	428.9592	489.9901	605.556	691.5997	712.9665	738.2672	793.4921	811.4317	822.3415	844.9903	861.1621	932.0555	942.6294	955.1321	965.4543	999.7056	1060.2941	1076.1096	1104.9458	1123.1003	1131.9816	1233.4515	1255.0732	1291.2905	1344.2059	1369.3547	1649.2343	1870.1258	3143.4922	3176.5388	3205.1463	3213.2119	3214.9157	3237.5394
O=C1C2C3C=CC1C23	O=C1[C@H]2[C@H]3C=C[C@@H]1[C@@H]23	
InChI=1S/C7H6O/c8-7-4-2-1-3-5(4)6(3)7/h1-6H	InChI=1S/C7H6O/c8-7-4-2-1-3-5(4)6(3)7/h1-6H/t3-,4+,5-,6-/m0/s1
