22
gdb 121852	3.29173	0.7187	0.62518	2.192	83.23	-0.2472	0.0276	0.2748	1855.5995	0.191319	-441.49222	-441.480855	-441.479911	-441.531298	38.985	
C	 0.4788828975	 0.9285437421	 0.5022462684	-0.35723
C	 0.1308802199	-0.5127805772	 0.1209239018	-0.137682
N	-1.3062971637	-0.6745673682	 0.0134700217	-0.288362
C	-1.8412281617	-1.1501103136	-1.0287502677	 0.405602
C	-1.2032505317	-1.6371369563	-2.3101997209	-0.487278
O	-3.1901529432	-1.2966856682	-1.099482527	-0.273279
C	-3.9512622111	-0.9323214919	 0.0609711823	-0.063368
C	-5.3983563084	-1.2462585977	-0.2749794643	-0.067538
O	-5.5956952424	-2.6208824429	-0.5456438633	-0.421415
H	 1.5566168286	 1.0394935083	 0.658435728	 0.107947
H	 0.1728252907	 1.6235625137	-0.2862264631	 0.113948
H	-0.0396566266	 1.2147212936	 1.4215439796	 0.125522
H	 0.677870546	-0.7952242804	-0.791106542	 0.082534
H	 0.4844803586	-1.1848146924	 0.9146343521	 0.106595
H	-0.7384681385	-2.6169388178	-2.1593170605	 0.146875
H	-1.9607775508	-1.7318493506	-3.0887600253	 0.139276
H	-0.425513185	-0.9510487537	-2.6522956551	 0.145017
H	-3.6046427248	-1.5149188825	 0.9202738726	 0.120647
H	-3.8044388809	 0.1292676845	 0.2873500294	 0.111695
H	-6.0296500753	-0.9957689205	 0.5839149737	 0.111437
H	-5.7198811665	-0.6186987532	-1.1216854407	 0.091426
H	-4.9445209508	-2.857242395	-1.2155375798	 0.287631
28.3924	34.7952	47.0211	88.048	137.6952	154.4861	213.1059	245.199	289.3385	330.6359	398.5615	423.9678	460.3621	516.5944	577.2412	631.5927	784.5616	814.5868	875.5372	901.6556	970.0942	1000.2742	1052.1602	1060.3184	1094.0565	1097.1446	1126.3937	1147.2059	1162.2551	1235.5925	1257.7889	1282.6262	1304.4939	1381.3055	1383.1198	1389.6527	1403.5527	1408.5424	1436.3533	1479.2533	1480.0379	1487.9003	1497.702	1498.451	1500.9857	1518.0945	1754.9412	2980.4107	2990.2657	3026.34	3037.9781	3046.5489	3053.576	3079.6184	3097.4012	3107.8769	3118.6513	3119.1159	3151.2848	3806.4177
CCN=C(C)OCCO	CCN=C(C)OCCO	
InChI=1S/C6H13NO2/c1-3-7-6(2)9-5-4-8/h8H,3-5H2,1-2H3	InChI=1S/C6H13NO2/c1-3-7-6(2)9-5-4-8/h8H,3-5H2,1-2H3
