16
gdb 44682	2.69801	1.72667	1.33956	2.4931	69.25	-0.2451	-0.0295	0.2155	962.7938	0.125825	-437.901341	-437.894149	-437.893205	-437.93342	27.307	
O	-0.0544469816	-0.0565336331	-0.2080335064	-0.2919
C	-0.0700296174	 1.1259054607	-0.0340267875	 0.392875
C	-1.1615602159	 2.1679909283	 0.2460757064	-0.334753
C	-0.0249953189	 3.1471026421	 0.6962269327	-0.0162
N	 0.0236948496	 3.2464802788	 2.141988778	-0.261946
C	 0.9128872011	 2.6116115641	 2.7811638474	 0.130771
O	 1.9329966053	 1.8442203644	 2.3331883861	-0.221524
C	 2.2591084312	 1.9262553511	 0.9383195396	-0.10031
C	 1.0430386532	 2.1929778193	 0.0739541431	-0.165978
H	-1.6611061253	 2.4792502365	-0.6774359922	 0.13252
H	-1.9126934903	 1.9177982812	 0.9977077126	 0.14273
H	-0.0874513114	 4.1492670158	 0.2685102593	 0.090706
H	 0.9188299919	 2.6231860794	 3.8697747996	 0.130068
H	 2.9996004691	 2.7261123168	 0.8136362618	 0.120694
H	 2.7280914956	 0.9727784176	 0.6820422083	 0.141324
H	 1.3580142336	 2.496123087	-0.9310239788	 0.110922
77.1912	118.6442	197.3441	322.5176	414.9857	461.5905	518.231	542.6782	602.2434	707.9911	739.1282	809.7783	827.3008	888.696	922.473	960.8943	979.4214	1008.7671	1046.2712	1060.3248	1093.8374	1136.7462	1175.0608	1191.7218	1217.3217	1257.1977	1294.8835	1314.8703	1346.9601	1403.7165	1420.2359	1431.1847	1499.0565	1726.196	1896.1358	3028.2782	3053.654	3059.0927	3090.4022	3100.0436	3129.4071	3158.2691
O=C1CC2N=COCC12	O=C1C[C@H]2N=COC[C@@H]12	
InChI=1S/C6H7NO2/c8-6-1-5-4(6)2-9-3-7-5/h3-5H,1-2H2	InChI=1S/C6H7NO2/c8-6-1-5-4(6)2-9-3-7-5/h3-5H,1-2H2/t4-,5-/m1/s1
