21
gdb 89529	2.20793	1.69515	1.25413	2.3224	76.7	-0.2535	0.0585	0.3119	1087.0492	0.183265	-424.228234	-424.219689	-424.218745	-424.261068	34.246	
O	 0.344973614	 1.0091449127	-0.7804288272	-0.430374
C	 0.01992297	-0.1432234659	-0.0380871223	 0.148234
C	 0.0975910915	-0.075891906	 1.5131095721	-0.340565
C	-1.3432418505	-0.6740497564	 1.6066766313	 0.428876
O	-1.4067862259	-1.9975097899	 2.0951807538	-0.495949
C	-2.4158084765	 0.2651967055	 2.1794172508	-0.274876
C	-2.6615626262	 1.2973784733	 1.064367255	-0.221819
C	-2.5360680245	 0.4767961574	-0.2408916782	-0.235921
C	-1.475080327	-0.5959210436	 0.0496349021	-0.075084
H	-0.1114199692	 1.7617424371	-0.3902244026	 0.279788
H	 0.6521977768	-0.9333691876	-0.4494802745	 0.095267
H	 0.8735827814	-0.6916826644	 1.974381543	 0.100834
H	 0.1867467429	 0.9464038214	 1.8973438902	 0.086891
H	-1.2180521722	-1.9757737716	 3.0396694618	 0.273358
H	-3.321741264	-0.328146022	 2.3510484888	 0.10476
H	-2.1247388721	 0.7201359314	 3.1331727684	 0.086693
H	-3.6276041791	 1.8012225295	 1.1569367203	 0.10241
H	-1.8978951124	 2.0858047371	 1.1044249885	 0.085189
H	-3.4924892149	-0.008843116	-0.4610569376	 0.104199
H	-2.2796449108	 1.0899992152	-1.1102599355	 0.103008
H	-1.6822731413	-1.5452218271	-0.4465913581	 0.075082
64.5311	204.33	243.1904	258.8954	280.4151	306.2236	356.7724	369.8418	445.7429	519.5375	550.7565	572.5857	658.3867	757.8283	799.1488	841.9905	879.9862	894.8549	906.3555	949.8595	969.5069	985.6687	1038.0907	1064.4295	1066.3822	1078.2053	1142.0902	1145.7271	1192.8959	1204.6099	1230.3296	1254.7688	1265.294	1278.7791	1291.1879	1319.3553	1323.509	1336.2957	1352.7178	1381.176	1434.7052	1462.0407	1483.7715	1490.5383	1507.3629	3016.2302	3030.3916	3039.5492	3045.6526	3075.6473	3078.2794	3084.4858	3092.7148	3100.2526	3107.8396	3799.9218	3812.2173
OC1CC2(O)CCCC12	O[C@H]1C[C@@]2(O)CCC[C@@H]12	
InChI=1S/C7H12O2/c8-6-4-7(9)3-1-2-5(6)7/h5-6,8-9H,1-4H2	InChI=1S/C7H12O2/c8-6-4-7(9)3-1-2-5(6)7/h5-6,8-9H,1-4H2/t5-,6-,7-/m0/s1
