18
gdb 26474	3.58991	1.29941	1.03867	2.2537	78.58	-0.224	0.0065	0.2305	1158.2616	0.148665	-401.974547	-401.966582	-401.965638	-402.007278	30.445	
C	 0.119801101	 1.5012503991	-0.1603889161	-0.475689
C	 0.011742869	-0.0054413229	-0.0260537768	 0.225937
C	 1.2865446576	-0.8310710011	-0.0955020441	-0.296917
C	 0.5812790802	-0.6631684488	 1.2207130388	-0.296939
C	-1.2125083205	-0.5740519498	-0.6096347242	 0.32844
C	-2.2916087352	-0.0587294742	-1.2541407488	-0.2245
N	-3.1698816063	-1.0848198138	-1.5941645497	-0.257362
C	-2.5938217014	-2.1487199563	-1.1493444918	 0.063596
O	-1.4018666753	-1.9330075669	-0.5377575581	-0.192146
H	 1.0487658872	 1.8584945904	 0.2921070548	 0.117743
H	 0.1188304468	 1.8073662453	-1.2120938649	 0.126878
H	-0.7136318758	 2.0055001858	 0.3405256888	 0.126874
H	 1.2305433183	-1.7990934979	-0.5791199515	 0.12726
H	 2.2137517131	-0.2929086814	-0.2604087596	 0.116139
H	 1.0208420959	-0.0089582069	 1.9659281946	 0.116135
H	 0.0508810432	-1.5182410212	 1.6227452103	 0.127254
H	-2.5038730706	 0.9689256095	-1.4990198032	 0.120384
H	-2.931778757	-3.171683659	-1.1999439385	 0.146913
64.1436	162.2373	177.2138	229.9534	302.6138	321.1414	438.5222	441.7537	535.1652	664.1871	712.6466	787.4789	821.4796	833.4611	833.8676	851.9756	939.1543	946.5697	960.117	976.1157	1045.5577	1070.873	1082.4926	1119.0011	1124.1466	1127.8947	1153.2757	1196.386	1246.2623	1308.6228	1335.9212	1370.8164	1417.303	1462.0058	1487.7417	1494.3359	1504.3713	1557.7465	1632.3671	3031.899	3094.6089	3112.8316	3135.4851	3138.8404	3220.9485	3234.9341	3271.8088	3278.2257
CC1(CC1)C1=CN=CO1	CC1(CC1)c1cnco1	
InChI=1S/C7H9NO/c1-7(2-3-7)6-4-8-5-9-6/h4-5H,2-3H2,1H3	InChI=1S/C7H9NO/c1-7(2-3-7)6-4-8-5-9-6/h4-5H,2-3H2,1H3
