20
gdb 102821	1.7156	1.43936	0.86478	3.4179	76.39	-0.2521	-0.0011	0.251	1373.9005	0.169544	-440.282785	-440.272922	-440.271978	-440.318683	34.719	
C	 0.3030956397	 1.494675315	-0.0767390599	-0.403329
C	 0.0803675186	-0.0173400581	-0.0089340682	-0.169853
C	-1.3950791778	-0.4221186624	 0.0495643001	 0.055952
O	-2.0373812601	 0.0185145384	-1.1632625929	-0.19627
C	-3.1101498568	 0.8312627418	-1.0781852778	 0.172868
O	-3.7035022303	 1.2172558346	-2.0388513122	-0.273354
C	-1.5733512663	-1.9237179761	 0.1903599538	 0.020278
C	-2.7924406011	-2.6234736951	-0.2767106287	-0.258033
N	-1.5098983923	-2.8003061613	-0.9853581999	-0.317639
H	 1.3713487116	 1.7280065285	-0.0895529	 0.12426
H	-0.1418502341	 1.9207812925	-0.9802545054	 0.138208
H	-0.1364221974	 2.0021842956	 0.7896501003	 0.114076
H	 0.5398933829	-0.5100310583	-0.8732713291	 0.121652
H	 0.5695050945	-0.4305523302	 0.8811671935	 0.10785
H	-1.8753902139	 0.0791837401	 0.9035374433	 0.090551
H	-3.3651438585	 1.0945284651	-0.0336442892	 0.083997
H	-1.0539898578	-2.3216240489	 1.0608123419	 0.096529
H	-3.1475986918	-3.4996596132	 0.2579476322	 0.122369
H	-3.5690448826	-2.041249151	-0.7636634509	 0.124821
H	-1.5260961266	-2.2236740369	-1.8249220909	 0.245066
47.7144	73.7818	99.6404	147.7987	169.84	196.3282	259.8548	302.7041	327.1779	392.072	494.8844	552.0114	677.5486	793.8202	802.5262	856.6922	901.7424	954.7931	980.3729	996.7388	1020.9158	1044.5373	1058.4632	1107.0345	1138.5363	1143.878	1151.3337	1186.1141	1209.3592	1269.158	1292.3693	1300.0838	1321.5523	1374.7348	1386.1672	1413.3768	1418.8928	1438.6101	1478.091	1500.2401	1509.8054	1510.5249	1864.5545	2953.4632	2993.5064	3036.4872	3038.8601	3076.0359	3106.1204	3115.974	3120.1137	3122.1329	3202.6796	3489.6148
CCC(OC=O)C1CN1	CC[C@@H](OC=O)[C@H]1CN1	
InChI=1S/C6H11NO2/c1-2-6(9-4-8)5-3-7-5/h4-7H,2-3H2,1H3	InChI=1S/C6H11NO2/c1-2-6(9-4-8)5-3-7-5/h4-7H,2-3H2,1H3/t5-,6-/m1/s1
