21
gdb 94176	2.4117	1.29717	1.15279	2.4395	78.4	-0.2442	-0.0179	0.2263	1212.0333	0.179178	-424.234374	-424.224032	-424.223087	-424.270262	37.044	
C	-0.4427738936	 1.3402526124	-0.11155757	-0.419163
C	 0.2397690239	-0.0091149795	-0.082455907	 0.132488
O	 1.5620692282	 0.00913584	-0.6829317244	-0.294436
C	 2.1068981076	-0.7974316628	 0.3722351521	-0.123633
C	 0.8268734585	-0.608912083	 1.2294667038	 0.160859
C	 1.0135931968	 0.3797774526	 2.3869588338	-0.463588
C	 0.1076994064	-1.8510315201	 1.7381194613	 0.319676
C	 0.9395459974	-2.9040216001	 2.4498395577	-0.486867
O	-1.0859813608	-1.9804242261	 1.5816741815	-0.305763
H	 0.1461888885	 2.1112192857	 0.3914078528	 0.116737
H	-0.5907412058	 1.6515949946	-1.1504929319	 0.129518
H	-1.4255978656	 1.2725760517	 0.3657606207	 0.131141
H	-0.3964918729	-0.7495729952	-0.5853217128	 0.084938
H	 2.2959758405	-1.8296327862	 0.0440425982	 0.093401
H	 3.0352714424	-0.3788962223	 0.7791321289	 0.102133
H	 1.548227696	 1.2706287871	 2.0462078553	 0.135663
H	 0.0492975227	 0.6916728912	 2.7991721092	 0.136743
H	 1.5997718351	-0.0670851523	 3.1967770132	 0.120192
H	 0.2820942171	-3.6092690024	 2.9595991436	 0.145945
H	 1.5411154035	-3.4505197297	 1.7137224521	 0.148745
H	 1.639526294	-2.4571574956	 3.162433452	 0.135271
42.5663	67.9756	99.6064	165.6285	212.5287	221.2957	242.9299	284.6499	294.0789	334.1051	427.0353	492.9462	514.9618	608.0118	620.2623	768.2737	862.3148	873.471	917.9113	945.7674	973.9082	1015.6059	1031.8136	1052.9176	1091.2333	1105.8981	1159.1638	1167.2765	1183.0427	1228.6318	1266.7128	1301.4025	1357.1149	1381.667	1391.7886	1408.6069	1414.6638	1461.7408	1473.6772	1480.9474	1488.7165	1499.4871	1505.5929	1525.8626	1798.7327	2992.8776	3016.517	3035.4333	3039.0117	3042.6063	3049.2251	3099.5856	3105.0231	3111.2095	3117.201	3126.3698	3152.6696
CC1OCC1(C)C(C)=O	C[C@H]1OC[C@]1(C)C(=O)C	
InChI=1S/C7H12O2/c1-5(8)7(3)4-9-6(7)2/h6H,4H2,1-3H3	InChI=1S/C7H12O2/c1-5(8)7(3)4-9-6(7)2/h6H,4H2,1-3H3/t6-,7-/m1/s1
