16
gdb 24291	4.08759	1.57804	1.23909	1.9145	74.88	-0.1883	0.0436	0.2319	973.9429	0.127583	-400.754818	-400.748291	-400.747347	-400.785383	27.116	
C	 0.0027069592	 1.4965796155	 0.0875848196	-0.321697
C	 1.2989631919	 0.7446377382	 0.0122227838	 0.087333
O	 2.0075833588	 0.469963452	 1.2166788037	-0.282184
C	 1.2005323917	-0.3665097316	 1.9383908724	 0.306851
C	 1.2580273057	-0.9768118657	 3.162057465	-0.236785
N	 0.1011875483	-1.7435454099	 3.2336242272	-0.244839
C	-0.6618762405	-1.6058968033	 2.095786246	-0.244312
C	 0.0098766462	-0.7388942356	 1.2689517924	 0.236243
C	-0.0186867235	-0.0283188825	-0.0280548413	-0.241368
H	-0.2916305168	 1.9365870875	 1.0338247971	 0.125515
H	-0.2732670433	 2.0665227141	-0.7935249758	 0.113322
H	 1.9673603394	 0.8617963491	-0.8315590172	 0.103315
H	 1.979985365	-0.963771273	 3.9594410349	 0.122346
H	-0.1403645095	-2.3271756473	 4.0136667423	 0.259801
H	-1.5985436259	-2.128485922	 1.9915276197	 0.121302
H	-0.3911533968	-0.4912689055	-0.9343279299	 0.095157
158.3709	260.8255	324.8638	414.1701	455.4364	461.1569	607.6596	636.5386	644.2405	696.3303	727.5755	734.8953	773.989	780.8026	820.8158	931.1515	955.5878	969.6713	1023.982	1051.2863	1055.8332	1083.0048	1111.5055	1140.0794	1173.3656	1187.4644	1234.5792	1301.2829	1332.8004	1373.1808	1440.2699	1463.1067	1468.0673	1573.9702	1664.2751	3130.8851	3174.1955	3192.3509	3224.8679	3264.5424	3284.437	3699.2672
C1C2OC3=CNC=C3C12	C1[C@H]2Oc3c[nH]cc3[C@@H]12	
InChI=1S/C7H7NO/c1-4-5-2-8-3-7(5)9-6(1)4/h2-4,6,8H,1H2	InChI=1S/C7H7NO/c1-4-5-2-8-3-7(5)9-6(1)4/h2-4,6,8H,1H2/t4-,6-/m1/s1
