17
gdb 105320	2.40009	1.55316	1.17648	3.1067	72.26	-0.2404	0.0163	0.2567	1082.7321	0.135428	-417.962368	-417.95391	-417.952966	-417.995393	31.513	
C	 0.1128733042	 1.4219936622	-0.0922417745	-0.340589
N	-0.03702762	-0.0104075133	 0.1466810298	-0.331969
C	-1.3783494009	-0.5221630956	 0.0282142056	 0.149423
C	-2.1390786394	-0.5421236794	-1.3906009114	-0.320845
C	-2.1173662075	-2.0672648672	-1.3110858821	 0.050373
O	-0.7399190559	-2.4632550594	-1.1836434989	-0.252088
C	-1.4421025481	-2.0727556364	-0.0069572158	-0.02323
C	-2.2470437869	 0.0310942289	 1.0700613127	 0.279897
N	-2.9531986381	 0.4546552829	 1.881070229	-0.341849
H	 1.1713005315	 1.6829928735	-0.0163022201	 0.130496
H	-0.2566030945	 1.7564917959	-1.0760592649	 0.104158
H	-0.4262906571	 1.9813610157	 0.6783769086	 0.149401
H	 0.545142228	-0.5474541165	-0.4875864837	 0.239259
H	-3.1389768438	-0.10843121	-1.340152853	 0.136181
H	-1.5789333167	-0.1084519053	-2.2216307308	 0.122294
H	-2.7991713724	-2.7884182427	-1.7432235081	 0.121488
H	-1.4612729325	-2.7548146235	 0.8340458776	 0.127601
116.6424	132.4547	170.8282	182.8749	196.9951	290.4095	384.0556	418.0204	501.0054	553.0002	568.0372	634.4607	779.8055	787.2723	835.003	866.0787	908.6576	951.7555	963.7539	1006.7088	1036.2421	1066.3872	1091.9976	1134.8698	1161.2793	1185.638	1219.6857	1248.47	1261.993	1293.4244	1381.4164	1461.0645	1465.2059	1484.2802	1496.3252	1519.7882	2356.2946	2967.8044	3077.0133	3078.5872	3121.557	3143.918	3197.921	3213.2143	3533.8044
CNC1(CC2OC12)C#N	CN[C@]1(C[C@H]2O[C@@H]12)C#N	
InChI=1S/C6H8N2O/c1-8-6(3-7)2-4-5(6)9-4/h4-5,8H,2H2,1H3	InChI=1S/C6H8N2O/c1-8-6(3-7)2-4-5(6)9-4/h4-5,8H,2H2,1H3/t4-,5-,6-/m1/s1
