23
gdb 64264	2.50583	1.52028	1.44542	1.3014	84.01	-0.2551	0.0736	0.3287	1079.8277	0.207714	-388.29519	-388.286834	-388.285889	-388.327288	34.815	
C	-0.2940336804	 1.58185088	 0.1027928522	-0.429968
C	 0.0096528204	 0.0816444122	-0.0021026176	 0.396069
O	-1.2217591105	-0.6453312228	 0.1239705367	-0.481559
C	 0.7002123819	-0.2854225893	-1.3495834832	-0.265134
C	 2.2411690486	-0.4193236462	-1.2632215095	-0.21215
C	 2.6777933265	-0.8661229984	 0.1410512541	 0.002998
C	 1.5798558201	-1.7523221266	 0.8026780479	-0.239629
C	 0.871046549	-0.417782556	 1.1723531592	-0.007742
C	 2.2815539132	 0.2315331409	 1.1627183887	-0.23442
H	 0.5963140824	 2.1984083973	-0.050039323	 0.115821
H	-1.0227959942	 1.8686899938	-0.6650862606	 0.098867
H	-0.7209892233	 1.8216887056	 1.0813078728	 0.118747
H	-1.7957768013	-0.3799593618	-0.6026328761	 0.269692
H	 0.2832514913	-1.2532771022	-1.6420640781	 0.109215
H	 0.4162337339	 0.4250607636	-2.1342835796	 0.083096
H	 2.5762122049	-1.1390675855	-2.0187397795	 0.093506
H	 2.7339133536	 0.5310373806	-1.5035533377	 0.093318
H	 3.7104695772	-1.2239743507	 0.147370613	 0.054757
H	 1.036698189	-2.475650531	 0.1906898353	 0.099763
H	 1.9617259351	-2.2546876962	 1.6952395166	 0.092287
H	 0.2830643443	-0.3771499496	 2.0921616366	 0.064208
H	 2.7809629955	 0.0921108343	 2.1254192139	 0.09329
H	 2.3852422529	 1.276967618	 0.8590523179	 0.084967
118.0282	219.5423	244.4943	280.5672	313.783	348.2457	389.7802	401.1758	435.5545	474.885	503.7423	566.746	700.2121	781.0304	823.067	829.8833	893.5986	904.3202	911.9365	944.681	951.4452	958.0343	996.0863	1007.3076	1057.1115	1085.3103	1087.7782	1109.4544	1124.175	1136.9686	1156.6368	1209.1973	1232.4566	1251.7637	1256.494	1279.1292	1291.7419	1326.8164	1337.6762	1350.8653	1373.4508	1396.8596	1408.615	1477.1716	1484.9339	1493.0839	1497.9908	1505.4694	1521.474	3020.6562	3026.3709	3040.2935	3049.9435	3054.6064	3059.7696	3073.1051	3082.603	3088.0066	3092.2193	3102.053	3115.9545	3117.4866	3801.9494
CC1(O)CCC2CC1C2	C[C@@]1(O)CC[C@@H]2C[C@H]1C2	
InChI=1S/C8H14O/c1-8(9)3-2-6-4-7(8)5-6/h6-7,9H,2-5H2,1H3	InChI=1S/C8H14O/c1-8(9)3-2-6-4-7(8)5-6/h6-7,9H,2-5H2,1H3/t6-,7+,8-/m1/s1
