13
gdb 133151	2.3507	1.79816	1.02526	3.7063	63.08	-0.2521	-0.0567	0.1954	1031.8588	0.087777	-502.020289	-502.012776	-502.011832	-502.053	27.053	
C	-0.0213140736	 1.550929224	 0.0085614688	-0.511995
C	 0.0090778627	 0.0523671096	-0.0305034262	-0.019386
C	-0.0648749565	-0.7065945992	-1.1786047749	 0.243915
F	-0.1720134578	-0.1216912435	-2.3676170597	-0.057608
C	-0.0274880717	-2.101098286	-1.0996270596	-0.085033
N	 0.078154599	-2.7446489994	 0.0538766906	-0.193342
N	 0.1524831015	-2.0454931322	 1.1897901233	-0.254837
C	 0.1181214641	-0.7357780614	 1.1247847873	 0.326062
F	 0.1959105269	-0.0977291665	 2.2867102929	-0.053329
H	 0.888571808	 1.943519492	 0.4728390033	 0.15763
H	-0.1087398529	 1.96264698	-0.9971663788	 0.149434
H	-0.8650521462	 1.9044049764	 0.6091971636	 0.15764
H	-0.0851185136	-2.7062076438	-1.9980682904	 0.14085
56.9128	138.8464	245.8638	260.6772	290.4683	335.2578	485.0493	541.0913	555.0093	581.9359	655.5331	694.6487	779.1816	854.2104	928.5216	950.9768	1061.4765	1126.631	1142.2285	1229.2233	1250.653	1343.588	1408.9813	1416.2667	1469.8799	1485.2491	1495.1778	1602.4349	1637.7206	3050.6307	3106.2515	3152.842	3196.1895
CC1=C(F)C=NN=C1F	Cc1c(F)cnnc1F	
InChI=1S/C5H4F2N2/c1-3-4(6)2-8-9-5(3)7/h2H,1H3	InChI=1S/C5H4F2N2/c1-3-4(6)2-8-9-5(3)7/h2H,1H3
