19
gdb 69728	3.6675	1.62646	1.42797	1.0703	78.52	-0.2196	0.0791	0.2986	969.6029	0.161895	-381.971191	-381.964392	-381.963448	-382.00192	28.619	
C	-0.0157448523	 1.5060802168	 0.0353199436	-0.503255
C	 0.0516409647	 0.006411287	-0.0067352566	 0.333341
N	-0.6141572346	-0.8469635189	 1.0122287052	-0.375274
C	 0.8686203262	-0.8603746315	 0.8723514363	-0.124278
C	 1.3459997132	-1.9045198572	-0.1156046858	 0.024246
C	 0.1940595002	-2.2754715915	-1.0870750934	-0.065535
C	 1.2680297029	-2.3606442121	-2.1778715182	-0.190183
N	 1.725759905	-1.1184720604	-1.4136741368	-0.171752
C	 0.2119297822	-0.7437287827	-1.3227518046	-0.030764
H	 0.7797940263	 1.9430458588	-0.577327521	 0.140736
H	-0.9749903721	 1.8741565599	-0.3471319853	 0.124771
H	 0.1031221882	 1.8801171361	 1.0577312521	 0.11477
H	-0.8482914172	-0.258075656	 1.8114939491	 0.223498
H	 1.4977834165	-0.4828788172	 1.6696761225	 0.094255
H	 2.0767704361	-2.6531720227	 0.1938858547	 0.071235
H	-0.6681135316	-2.9188623217	-0.8962174351	 0.075195
H	 1.9831611507	-3.187693362	-2.1362441746	 0.096458
H	 0.9724104338	-2.1550674598	-3.2110114605	 0.095997
H	-0.2055287182	-0.3139559449	-2.2355417815	 0.066539
189.8507	215.9219	254.6816	343.0142	414.232	483.9128	545.0815	569.6525	709.9393	742.6339	783.3756	809.3276	848.0452	864.5743	887.3429	928.402	938.2065	949.4079	969.9131	998.7012	1041.7039	1048.7422	1069.1501	1099.8745	1113.6528	1115.0725	1126.1875	1153.5438	1184.7199	1224.9545	1228.8087	1259.5151	1265.0061	1295.0374	1344.3421	1367.5529	1414.047	1447.3604	1487.0823	1499.2834	1531.0739	3025.4413	3043.5091	3076.3886	3087.8708	3098.869	3101.6585	3103.8755	3109.563	3186.7877	3466.6753
CC12NC1C1C3CN1C23	C[C@]12N[C@H]1[C@H]1[C@@H]3CN1[C@H]23	
InChI=1S/C7H10N2/c1-7-5(8-7)4-3-2-9(4)6(3)7/h3-6,8H,2H2,1H3	InChI=1S/C7H10N2/c1-7-5(8-7)4-3-2-9(4)6(3)7/h3-6,8H,2H2,1H3/t3-,4+,5-,6-,7-/m0/s1
