20
gdb 58060	1.97204	1.4191	1.07389	3.0976	79.44	-0.2463	0.0205	0.2668	1230.1797	0.17081	-399.290374	-399.2806	-399.279656	-399.325269	35.29	
C	 0.1756288372	 1.2622660551	-0.0606380973	-0.337744
N	-0.1421715033	-0.1639094396	 0.0387408174	-0.070635
C	 0.566162057	-0.7763505185	 1.1600633988	-0.33487
C	-1.57136694	-0.4754742559	 0.0253889869	-0.146542
C	-2.3972615669	 0.4945600322	 0.782552907	 0.270713
N	-3.0141969518	 1.2711094828	 1.3764612817	-0.326952
C	-2.1442457637	-0.689184032	-1.3809816586	 0.014614
C	-1.5227937176	-0.1567384729	-2.6156497642	-0.235662
N	-1.436371529	-1.5944564346	-2.2892794633	-0.326214
H	 1.2347282349	 1.373853448	-0.3110329999	 0.125319
H	-0.4161306014	 1.7304827762	-0.848367812	 0.136435
H	-0.020844725	 1.8065885694	 0.8769304908	 0.125773
H	 0.2674797597	-0.3629707372	 2.1387524508	 0.118317
H	 0.3935787724	-1.8562349164	 1.1703009353	 0.127818
H	 1.6399257658	-0.6070270566	 1.0373058589	 0.129977
H	-1.6931919607	-1.4364877382	 0.5419605519	 0.135901
H	-3.2228931074	-0.8299118459	-1.3689261444	 0.111655
H	-2.1556951537	 0.0870909254	-3.4638710172	 0.125543
H	-0.6142591297	 0.4286068713	-2.5384465401	 0.124594
H	-0.5076616668	-1.7559499124	-1.8986320424	 0.231959
58.7512	97.5933	138.4691	165.401	188.1959	242.6041	271.5702	332.3388	346.269	377.2264	409.705	481.8703	577.5162	626.8163	801.3329	831.6761	878.2725	936.1058	968.6071	982.5067	1017.9101	1055.5106	1069.5731	1122.1105	1129.7897	1162.4983	1189.583	1195.8329	1222.1222	1280.154	1300.249	1306.9761	1313.1502	1377.0788	1418.4289	1445.7081	1476.7965	1483.5772	1498.8877	1500.4827	1506.974	1517.0614	2345.7041	2963.1318	2983.1592	3026.7836	3072.5367	3080.6076	3114.0427	3127.3279	3134.8585	3139.756	3222.0129	3463.5263
CN(C)C(C#N)C1CN1	CN(C)[C@@H](C#N)[C@H]1CN1	
InChI=1S/C6H11N3/c1-9(2)6(3-7)5-4-8-5/h5-6,8H,4H2,1-2H3	InChI=1S/C6H11N3/c1-9(2)6(3-7)5-4-8-5/h5-6,8H,4H2,1-2H3/t5-,6+/m1/s1
