15
gdb 24019	4.19931	1.24375	1.04791	3.6005	78.2	-0.2233	0.0262	0.2495	1112.1969	0.113993	-379.632036	-379.624619	-379.623675	-379.664493	27.777	
C	-0.2497664582	-1.2661668577	-0.2328825132	-0.44967
C	-0.1056977962	-0.0776195716	-0.1328522092	 0.347594
C	 0.0578997984	 1.3568738151	-0.0028614414	-0.354491
C	-0.2916497491	 1.9902454254	 1.4213964678	-0.182571
N	 1.1117053532	 2.4346571003	 1.4722720066	 0.017484
C	 2.1963741872	 3.1248092368	 1.959171561	-0.174824
C	 3.1514000851	 2.9357624553	 0.9754774477	-0.089359
N	 2.6825705848	 2.1811297316	-0.0918270323	-0.370033
C	 1.4556103256	 1.9181808115	 0.2772616476	 0.390796
H	-0.3641503491	-2.3176942775	-0.328696698	 0.205694
H	-0.4608979176	 1.8774394579	-0.8147861451	 0.133488
H	-1.0178501007	 2.8061627388	 1.3933175865	 0.136664
H	-0.5571939545	 1.2622291936	 2.1898964902	 0.144217
H	 2.2176795955	 3.6416259536	 2.9028884119	 0.134426
H	 4.1663265056	 3.3047769268	 0.9819505099	 0.110585
65.3694	109.7847	158.9944	276.2055	396.4445	480.3128	543.8094	621.8518	632.6642	649.9835	689.1987	718.6775	752.6332	790.6242	837.2712	858.8974	936.3656	1009.4971	1044.7321	1075.2564	1127.8552	1141.8902	1147.65	1179.2371	1253.881	1277.549	1324.3906	1408.3682	1429.5995	1470.8967	1510.9835	1576.8846	2242.8984	3054.7364	3068.7165	3133.4587	3246.9635	3289.5042	3503.2638
C#CC1CN2C=CN=C12	C#C[C@H]1Cn2ccnc12	
InChI=1S/C7H6N2/c1-2-6-5-9-4-3-8-7(6)9/h1,3-4,6H,5H2	InChI=1S/C7H6N2/c1-2-6-5-9-4-3-8-7(6)9/h1,3-4,6H,5H2/t6-/m0/s1
