21
gdb 63173	2.32928	1.62008	1.29909	2.3071	78.5	-0.2296	0.0748	0.3044	1095.9566	0.181098	-424.220154	-424.210801	-424.209856	-424.253465	36.006	
C	-0.0888097692	 1.5803749028	 0.0883349008	-0.457381
C	 0.015876368	 0.0752211961	 0.0384269288	 0.326558
O	-1.1713721266	-0.565441924	-0.3650931945	-0.468727
C	 1.2945238266	-0.6629782421	-0.3650035662	-0.193257
C	 2.6365404988	 0.0633955568	-0.3315153159	-0.263246
C	 2.9404939204	 0.1275910392	 1.1806743807	-0.075178
O	 1.6762977614	 0.0623591497	 1.8463726263	-0.299618
C	 0.7916783103	-0.7171845421	 1.063598662	 0.383105
C	 0.2419599892	-1.9306481833	 1.7612838366	-0.465419
H	 0.7680462721	 2.0313242743	 0.5896604919	 0.133102
H	-0.1644056263	 2.0050321497	-0.9207186299	 0.102214
H	-0.9909751917	 1.8607890518	 0.6406921369	 0.127943
H	-1.3112316849	-0.364577866	-1.297394345	 0.279709
H	 1.1629017582	-1.5190809322	-1.0175315978	 0.087674
H	 3.4045215256	-0.4946685237	-0.8742459329	 0.104668
H	 2.5856264629	 1.0632950506	-0.7748005822	 0.105379
H	 3.5714075378	-0.7218224093	 1.4838735175	 0.09445
H	 3.4345208914	 1.0508916802	 1.4964072822	 0.105326
H	-0.2630654695	-1.6396209645	 2.6882518381	 0.125309
H	-0.481162916	-2.440707945	 1.1230916766	 0.13586
H	 1.0468355814	-2.6271418491	 2.019185256	 0.111529
128.5883	168.2205	189.3445	194.9827	205.7325	255.6096	278.9977	313.9715	364.2888	405.72	471.6155	506.8191	619.6169	665.256	721.2619	746.5962	845.5393	895.6642	918.5605	941.417	963.8965	972.2678	1025.8425	1058.1153	1071.8502	1115.7211	1132.9191	1163.472	1190.376	1221.1005	1233.305	1246.4598	1280.9615	1299.7217	1320.7572	1384.2419	1404.4634	1412.2531	1453.5287	1481.8471	1485.7096	1493.0115	1500.3949	1509.1433	1520.238	2986.2962	3026.3578	3037.7184	3047.6949	3082.8199	3092.884	3095.8782	3096.9163	3143.3289	3144.4838	3170.4781	3788.7322
CC1(O)C2CCOC12C	C[C@@]1(O)[C@H]2CCO[C@@]12C	
InChI=1S/C7H12O2/c1-6(8)5-3-4-9-7(5,6)2/h5,8H,3-4H2,1-2H3	InChI=1S/C7H12O2/c1-6(8)5-3-4-9-7(5,6)2/h5,8H,3-4H2,1-2H3/t5-,6-,7-/m1/s1
