20
gdb 12798	3.38758	1.98801	1.53262	0.2269	79.68	-0.2338	0.0319	0.2657	913.3723	0.1788	-311.881573	-311.874156	-311.873212	-311.912674	29.91	
C	-0.287810586	 1.5424848045	 0.1927192523	-0.466196
C	 0.0728158082	 0.0839681768	-0.0025247077	 0.352421
C	-0.7321248295	-0.9493141365	 0.7522431748	-0.323985
C	 0.6974983669	-0.6648681688	 1.1549430828	-0.055528
C	 1.7747926711	-1.7089783516	 0.9185711017	-0.272746
C	 1.838192295	-2.1973711384	-0.5026065651	-0.061389
C	 1.2817643892	-1.5610080174	-1.5315670874	-0.052341
C	 0.5250551016	-0.2660221313	-1.415720173	-0.320113
H	 0.5727440056	 2.1947167026	 0.0003725292	 0.111621
H	-1.091823891	 1.8465575781	-0.4890009022	 0.112206
H	-0.6306876451	 1.7336121654	 1.2146470478	 0.110325
H	-1.5290181178	-0.6034161243	 1.4026167601	 0.100904
H	-0.9334977915	-1.894665845	 0.2583688696	 0.110807
H	 0.8235770078	-0.0959061839	 2.0726152366	 0.073261
H	 2.7542545426	-1.2890843587	 1.1938760669	 0.108237
H	 1.6267294453	-2.5610211106	 1.5973666975	 0.102729
H	 2.389936725	-3.1181051946	-0.6763217261	 0.081963
H	 1.3877877321	-1.9684646959	-2.5342925028	 0.081952
H	-0.3449409702	-0.2811769469	-2.0885252122	 0.100669
H	 1.1630901906	 0.5477685865	-1.7955906329	 0.105202
128.1505	201.1935	238.1998	313.7946	358.0021	383.5334	406.834	477.2654	547.8853	668.0395	687.4285	767.6412	820.9373	880.9253	905.1869	916.0452	933.6192	966.3738	994.9252	1009.0537	1031.22	1052.0002	1065.2063	1102.8088	1128.3956	1133.2464	1203.2732	1221.2187	1240.2383	1264.1631	1318.3129	1359.3888	1377.0077	1409.7061	1419.0703	1426.4812	1475.54	1479.4124	1490.5066	1492.7502	1508.0424	1730.1801	2981.3845	2990.9863	3007.2596	3013.576	3016.2181	3073.5932	3094.6492	3124.1576	3133.2294	3141.0866	3164.9904	3209.5804
CC12CC1CC=CC2	C[C@]12C[C@H]1CC=CC2	
InChI=1S/C8H12/c1-8-5-3-2-4-7(8)6-8/h2-3,7H,4-6H2,1H3	InChI=1S/C8H12/c1-8-5-3-2-4-7(8)6-8/h2-3,7H,4-6H2,1H3/t7-,8+/m1/s1
