15
gdb 85353	3.34943	1.20481	0.91792	1.7778	71.68	-0.2585	-0.1093	0.1492	1186.4593	0.111927	-457.804877	-457.796843	-457.795899	-457.837911	29.435	
O	 0.1192337155	 1.3792679012	 0.1417764264	-0.435226
C	 0.0195037835	-0.0261158528	 0.0277456447	 0.024033
C	-1.4489327714	-0.4545762351	-0.1104153653	-0.355763
C	-1.4948819695	-1.4025762321	-1.3145253119	 0.398325
O	-2.4256963317	-2.0831570675	-1.668842047	-0.310408
C	-0.1571936547	-1.3260812969	-1.972985031	-0.28866
C	 0.6675083631	-0.5562880479	-1.2473743974	 0.217316
C	 2.0550237276	-0.2083099688	-1.5895572471	 0.08972
O	 2.7171498909	 0.5667338071	-0.9302375939	-0.269387
H	 1.0633011059	 1.5870098553	 0.133921278	 0.299526
H	 0.4907608067	-0.5187642506	 0.89295016	 0.094135
H	-1.8713359405	-0.929864727	 0.7768270918	 0.138509
H	-2.0524043587	 0.4312306028	-0.3350410176	 0.159661
H	 0.0678812569	-1.8343090196	-2.9038847762	 0.134999
H	 2.4708237863	-0.689725658	-2.4980538434	 0.103221
81.718	104.122	191.736	208.467	291.1902	351.7785	426.6748	498.5885	513.5081	529.3405	565.8869	665.2929	743.9348	816.0446	838.6706	883.6203	960.7392	1012.935	1037.9315	1097.111	1140.9285	1169.9659	1185.0332	1256.4404	1275.0888	1320.4182	1356.8674	1410.1345	1425.6811	1445.5057	1668.242	1767.4068	1821.0648	2928.9774	2974.692	3068.1714	3125.7271	3207.0269	3763.7897
OC1CC(=O)C=C1C=O	O[C@H]1CC(=O)C=C1C=O	
InChI=1S/C6H6O3/c7-3-4-1-5(8)2-6(4)9/h1,3,6,9H,2H2	InChI=1S/C6H6O3/c7-3-4-1-5(8)2-6(4)9/h1,3,6,9H,2H2/t6-/m0/s1
