15
gdb 31183	2.74402	1.34086	0.90598	8.8247	73.07	-0.2214	-0.0214	0.2001	1214.7001	0.112756	-453.975466	-453.967109	-453.966165	-454.0093	29.445	
C	-0.0139866986	 1.4059000711	 0.0177498074	-0.271506
O	 0.0067961481	-0.0145359586	-0.0069938582	-0.247199
C	 0.5992796048	-0.614678503	-1.0462254053	 0.402704
C	 0.7460817096	-1.9719103106	-1.2941197787	 0.041079
C	 0.2667592257	-3.0494320262	-0.4410499608	 0.080155
O	 0.3940071002	-4.2345433178	-0.6557540809	-0.286075
N	 1.4267250366	-2.1431484962	-2.4917897496	-0.280213
C	 1.676476092	-0.9520907771	-2.9413204236	 0.010098
N	 1.1924312403	 0.0342432995	-2.0962612242	-0.351277
H	 1.002700184	 1.8187869569	 0.0425097902	 0.132951
H	-0.5598150401	 1.8113710444	-0.8438840947	 0.132936
H	-0.5346272964	 1.6864789024	 0.9331585475	 0.161566
H	-0.2534069429	-2.6820228213	 0.4724272542	 0.062703
H	 2.1943237731	-0.702641798	-3.8555372366	 0.139461
H	 1.2639383836	 1.0283503745	-2.2318514665	 0.272616
42.5155	145.476	153.9257	200.222	251.751	260.6826	345.3517	394.1558	470.743	574.6871	666.9821	674.7708	715.7305	797.4189	814.9381	944.4005	1031.9642	1036.6267	1086.5366	1152.6321	1174.2051	1207.4667	1288.4212	1326.5067	1357.3025	1425.3549	1466.0053	1495.096	1497.8325	1506.925	1557.7688	1618.3968	1793.5899	2871.179	3005.6744	3069.2077	3153.0307	3250.6544	3667.9296
COC1=C(C=O)N=CN1	COc1c(C=O)nc[nH]1	
InChI=1S/C5H6N2O2/c1-9-5-4(2-8)6-3-7-5/h2-3H,1H3,(H,6,7)	InChI=1S/C5H6N2O2/c1-9-5-4(2-8)6-3-7-5/h2-3H,1H3,(H,6,7)
