18
gdb 8147	4.35773	1.61253	1.35079	1.9818	73.36	-0.2318	0.0093	0.2411	970.1667	0.152876	-347.81022	-347.802442	-347.801497	-347.841811	29.948	
C	 0.0498274303	 1.4950702032	 0.0149742945	-0.485866
C	-0.0305872	 0.0034161583	-0.0364355144	 0.315526
C	-0.0289117649	-0.7752402999	-1.1259355465	-0.189236
C	-0.0236607676	-2.2151804594	-0.7437081142	-0.057632
O	 1.1429361373	-2.6005825874	 0.0317973663	-0.303501
C	-0.0673175322	-2.2793370337	 0.7296032886	 0.415695
C	-0.6829871891	-3.3862495404	 1.5404090241	-0.484162
C	-0.0925982419	-0.8335705463	 1.2324276623	-0.369571
H	 0.9616551507	 1.8243275099	 0.5295261078	 0.130974
H	 0.0507845733	 1.9326656389	-0.9869188603	 0.125485
H	-0.7932369351	 1.9197610912	 0.5750553179	 0.124092
H	 0.0110095046	-0.4242119162	-2.1503182624	 0.092521
H	-0.4158135354	-2.9941097567	-1.391582878	 0.088203
H	-0.6230467603	-4.3344712735	 1.0004057869	 0.129063
H	-0.1579822396	-3.5067519019	 2.4949575551	 0.125586
H	-1.734141165	-3.1724443726	 1.7613970602	 0.119102
H	 0.7539476511	-0.6286144299	 1.8997126819	 0.119369
H	-1.0056549064	-0.6232679137	 1.80638977	 0.104353
141.5936	175.6495	187.053	243.9453	290.2453	362.0595	401.0808	426.377	508.4728	572.4836	681.3087	728.1527	822.4824	851.2283	876.4809	898.4819	941.2519	960.9327	1002.1056	1029.3992	1036.3002	1092.2823	1108.4699	1177.489	1198.4705	1231.0973	1274.3196	1309.7195	1343.6758	1407.7705	1413.2285	1441.0181	1460.1804	1479.0032	1484.4628	1487.4206	1495.6961	1698.3961	3013.8778	3018.4502	3032.5286	3054.9579	3062.764	3093.2251	3111.945	3121.8255	3154.0637	3201.4009
CC1=CC2OC2(C)C1	CC1=C[C@H]2O[C@@]2(C)C1	
InChI=1S/C7H10O/c1-5-3-6-7(2,4-5)8-6/h3,6H,4H2,1-2H3	InChI=1S/C7H10O/c1-5-3-6-7(2,4-5)8-6/h3,6H,4H2,1-2H3/t6-,7+/m1/s1
