17
gdb 79306	3.77248	1.27336	1.16262	4.8735	78.42	-0.2629	0.0039	0.2667	1092.8819	0.137129	-380.822213	-380.814653	-380.813709	-380.8542	29.235	
C	-0.0397189265	 1.5628350006	 0.0247860556	-0.429141
C	 0.0753485623	 0.0567466651	-0.1038327133	 0.087214
C	 0.7602220197	-0.6302950692	-1.3071653864	-0.152034
C	 2.1954829271	-0.0441618159	-1.3059743065	-0.252983
C	 2.3424553467	-0.689780158	 0.0716380656	-0.09027
N	 1.0469315117	-0.6351140537	 0.8249823305	-0.182797
C	 1.2642818236	-1.6769831066	-0.228490869	 0.304832
C	 1.1366195736	-3.0781050346	-0.0642170748	 0.124963
N	 1.0278845951	-4.2271570454	 0.0266921588	-0.355225
H	 0.9194618971	 2.0708539975	-0.099459203	 0.12588
H	-0.7365437543	 1.9566377647	-0.7228826678	 0.125562
H	-0.4266683135	 1.8202633848	 1.015556966	 0.138278
H	-0.8959572479	-0.4109192319	 0.0847934812	 0.099948
H	 0.2373780113	-0.8488081837	-2.2352696583	 0.096109
H	 2.8337274654	-0.5553033108	-2.0300849269	 0.124902
H	 2.3152693498	 1.0371935487	-1.4069251806	 0.109546
H	 3.2315162391	-0.8391963317	 0.6692528991	 0.125215
115.0889	151.1134	175.8961	262.8176	302.2595	437.462	472.8297	535.3192	573.6878	624.921	691.9526	720.2289	801.6482	853.1775	876.4566	915.0635	953.7995	984.5292	999.914	1049.9738	1064.5	1083.9257	1105.5722	1128.3838	1144.3892	1174.7429	1227.7843	1245.5374	1280.0294	1304.5982	1378.5477	1401.6446	1418.6978	1485.4761	1490.4655	1512.5789	2346.2765	3042.1624	3062.5742	3069.2981	3108.884	3120.6718	3129.2242	3150.536	3218.0981
CC1C2CC3N1C23C#N	C[C@H]1[C@H]2C[C@H]3N1[C@@]23C#N	
InChI=1S/C7H8N2/c1-4-5-2-6-7(5,3-8)9(4)6/h4-6H,2H2,1H3	InChI=1S/C7H8N2/c1-4-5-2-6-7(5,3-8)9(4)6/h4-6H,2H2,1H3/t4-,5+,6+,7-,9?/m0/s1
