21
gdb 94620	3.3709	0.89502	0.78828	2.2191	79.08	-0.2566	0.0715	0.3281	1498.8422	0.181845	-424.186668	-424.177378	-424.176433	-424.221542	34.352	
O	 0.1975532262	 1.1925205556	-0.584011497	-0.430185
C	 0.0209905411	-0.0810244199	-0.0066352725	 0.126182
C	-0.0504718236	-0.210711973	 1.5386379914	-0.258381
C	-1.2589354857	-1.1696029259	 1.3505462265	-0.232515
C	-1.4250769117	-0.6378152577	-0.1073283861	-0.012716
C	-2.5032852563	 0.4373031104	-0.2794876887	-0.225416
C	-3.890943815	-0.155820316	-0.293496061	 0.093401
C	-4.9547420539	 0.3534641288	-1.1670229857	-0.18133
O	-4.2701816187	-0.8600592423	-1.4826387286	-0.238885
H	 1.1144623693	 1.4573591699	-0.4618824035	 0.283818
H	 0.736899132	-0.8038655546	-0.4243867624	 0.066368
H	 0.8304833064	-0.5892632641	 2.0632746919	 0.09101
H	-0.3486961326	 0.7410163378	 1.9872330233	 0.106595
H	-0.9663129764	-2.222053127	 1.3786019412	 0.103921
H	-2.1065471657	-1.0323904272	 2.0266529482	 0.097946
H	-1.5717912404	-1.4009243611	-0.8763332436	 0.085312
H	-2.4387656587	 1.1797685715	 0.5260258652	 0.098623
H	-2.3315033674	 0.9745422745	-1.2172636754	 0.116142
H	-4.1992556733	-0.662422316	 0.6234771663	 0.088106
H	-5.9994612785	 0.2412654511	-0.8790356754	 0.110002
H	-4.7449702672	 1.1932989751	-1.8287113543	 0.112003
59.7384	82.3702	124.5797	135.9978	213.5593	232.7055	317.5272	391.1006	420.0931	471.7224	547.042	651.8131	761.8952	787.8953	831.2966	870.0036	893.5968	918.9688	935.2313	954.5063	971.7752	1025.061	1068.4331	1089.8115	1108.324	1148.5601	1154.1055	1160.8952	1173.3133	1197.9458	1210.5824	1236.8385	1259.8413	1267.6756	1288.7806	1300.9766	1317.3733	1332.9899	1383.1867	1422.7792	1447.9686	1468.6512	1479.8809	1500.0382	1530.7025	2988.6506	3031.5929	3055.9398	3061.9775	3070.1853	3078.2855	3082.705	3095.8533	3102.6937	3119.5939	3164.4611	3820.6939
OC1CCC1CC1CO1	O[C@H]1CC[C@H]1C[C@H]1CO1	
InChI=1S/C7H12O2/c8-7-2-1-5(7)3-6-4-9-6/h5-8H,1-4H2	InChI=1S/C7H12O2/c8-7-2-1-5(7)3-6-4-9-6/h5-8H,1-4H2/t5-,6-,7-/m0/s1
