21
gdb 74775	2.67588	1.6411	1.44035	0.1879	87.67	-0.2168	0.0164	0.2332	1040.8583	0.185562	-349.982042	-349.9745	-349.973556	-350.013513	31.292	
C	-0.0074245831	 1.4876019522	 0.0461360234	-0.505287
C	-0.0646138795	-0.0029768318	-0.0147614436	 0.352105
C	-0.1003841228	-0.797276531	-1.0885740109	-0.179965
C	-0.027345655	-2.259961085	-0.6750106495	-0.05575
C	-0.6501358096	-2.1776729443	 0.7369355601	-0.218129
C	 0.0387497176	-0.8904300415	 1.2387715936	-0.143762
C	 1.5096695279	-1.2139366001	 1.4690134039	-0.067764
C	 2.1426651652	-2.0468128121	 0.6397964592	-0.039381
C	 1.4535317367	-2.7081192294	-0.534518608	-0.248279
H	 0.9228001533	 1.8273096249	 0.5199996969	 0.127622
H	-0.0613923605	 1.9344601733	-0.9506771713	 0.121849
H	-0.8296598326	 1.8951165445	 0.6485154258	 0.121928
H	-0.0845801797	-0.46391152	-2.1209948476	 0.079826
H	-0.5600201422	-2.9349084762	-1.3514454306	 0.057639
H	-1.7333032312	-2.0389196261	 0.6690409535	 0.089873
H	-0.4375104557	-3.0477071185	 1.3652388946	 0.088983
H	-0.4218474569	-0.4512386597	 2.1279586976	 0.054209
H	 2.0335237552	-0.7432193932	 2.296147121	 0.080492
H	 3.1966986982	-2.2736537931	 0.7834891796	 0.08105
H	 1.5026456258	-3.8003405423	-0.41657937	 0.102131
H	 2.0060268989	-2.4870021206	-1.4591984877	 0.100608
142.8574	190.3958	219.0109	314.4508	359.8214	410.8575	452.0101	490.6784	570.2866	615.2797	682.057	711.9281	812.0136	831.9793	849.0977	875.7444	907.7051	924.0041	939.8977	965.8244	988.812	1018.4319	1027.4381	1041.6651	1063.2134	1075.8707	1131.3033	1150.7599	1190.2629	1214.1184	1254.937	1267.4589	1303.4033	1308.0396	1328.0146	1335.5273	1371.4417	1401.8554	1411.583	1466.312	1478.651	1487.3394	1494.632	1699.6764	1708.7342	2997.546	3013.4512	3021.6278	3045.2679	3058.5985	3060.5879	3068.7099	3098.8256	3105.7565	3142.591	3170.2465	3183.5652
CC1=CC2CC1C=CC2	CC1=C[C@@H]2C[C@H]1C=CC2	
InChI=1S/C9H12/c1-7-5-8-3-2-4-9(7)6-8/h2,4-5,8-9H,3,6H2,1H3	InChI=1S/C9H12/c1-7-5-8-3-2-4-9(7)6-8/h2,4-5,8-9H,3,6H2,1H3/t8-,9-/m1/s1
