21
gdb 100354	2.33312	1.09061	0.93271	3.8731	75.71	-0.2685	0.0106	0.2791	1359.4996	0.178887	-461.386333	-461.3754	-461.374456	-461.422325	38.937	
C	-0.1474943796	 1.5504163441	-0.0760272034	-0.402638
C	 0.0131497911	 0.0276789533	-0.0666428264	-0.194199
C	 0.7172915353	-0.5558368346	 1.1718404298	 0.342511
C	 0.8480075002	-2.079063974	 1.0735675066	-0.436493
C	 2.1039774275	 0.0696860913	 1.3914374862	-0.109583
O	 2.8608876354	-0.1218146919	 0.2079077219	-0.421669
O	 0.0291525206	-0.1605606296	 2.3989174869	-0.235682
C	-1.2022443774	-0.6226804767	 2.663025864	 0.163104
O	-1.798085865	-0.3209465955	 3.6564210792	-0.283921
H	 0.8212139139	 2.0527119333	-0.149846986	 0.126776
H	-0.7439146007	 1.8612135819	-0.9386547323	 0.116417
H	-0.6495778386	 1.909132753	 0.8270368397	 0.134075
H	-0.9696959464	-0.4495297665	-0.1606072172	 0.094635
H	 0.592448382	-0.2881957426	-0.9396278786	 0.126768
H	 1.6040444671	-2.3169525864	 0.3213959684	 0.147786
H	 1.17053127	-2.4950920963	 2.0326535338	 0.12792
H	-0.0876421334	-2.5621526935	 0.7798721898	 0.118683
H	 1.9801639251	 1.1335419989	 1.6313932533	 0.108134
H	 2.5717225085	-0.4162919872	 2.2596061693	 0.100208
H	 3.7448750418	 0.225400206	 0.3547116612	 0.296862
H	-1.6067272075	-1.2967715071	 1.8887423739	 0.080305
69.8768	88.5115	129.1744	153.3164	167.5275	227.5591	228.9842	253.7034	264.7149	304.807	352.1554	377.9021	391.978	474.6102	525.8256	640.6496	757.0219	799.5172	918.5873	934.4296	976.3959	1011.2664	1047.6659	1061.7928	1077.799	1087.5462	1157.9947	1184.0742	1194.4498	1225.459	1276.2756	1292.3753	1328.648	1381.8726	1404.0032	1413.6189	1432.9788	1455.6932	1479.9046	1493.0593	1500.9379	1504.7333	1508.4989	1531.4229	1851.0559	2989.105	3000.3147	3037.7064	3042.5751	3047.1038	3048.0866	3086.7203	3113.3904	3118.7759	3122.076	3132.5062	3843.6091
CCC(C)(CO)OC=O	CC[C@@](C)(CO)OC=O	
InChI=1S/C6H12O3/c1-3-6(2,4-7)9-5-8/h5,7H,3-4H2,1-2H3	InChI=1S/C6H12O3/c1-3-6(2,4-7)9-5-8/h5,7H,3-4H2,1-2H3/t6-/m0/s1
