14
gdb 127630	3.52944	1.72805	1.16879	2.8382	69.25	-0.2313	-0.0066	0.2247	972.0696	0.103877	-432.877063	-432.870092	-432.869148	-432.909337	25.359	
C	-0.0064517178	 1.4328481915	-0.0045013016	-0.340279
N	-0.0278874165	-0.0116073995	 0.0465433443	-0.128145
N	 0.0071961281	-0.7549320927	-1.1111956058	-0.265174
C	 0.0469148237	-2.0402422761	-0.7569137961	-0.119384
C	 0.0469567106	-2.1546747387	 0.6520358039	 0.15236
C	 0.0054660418	-0.8551413799	 1.0879899041	 0.472648
O	-0.0070906293	-0.7969551452	 2.4357579285	-0.222372
C	 0.0290362887	-2.1580133253	 2.7628787658	 0.035342
N	 0.0605644699	-2.9847494776	 1.7752991173	-0.329711
H	 1.0030279105	 1.824875494	 0.1596309121	 0.146347
H	-0.3506451389	 1.7304807395	-0.9946705561	 0.167531
H	-0.6770995404	 1.8423477693	 0.755206692	 0.147743
H	 0.0675806467	-2.7983137997	-1.5244908098	 0.127743
H	 0.0279186528	-2.3676709694	 3.8206934213	 0.155352
41.785	146.6851	234.8593	260.129	357.0886	536.6185	610.5974	628.9918	642.6076	702.1373	761.3959	805.6531	843.3408	869.8147	906.8589	980.3318	1018.7825	1128.0572	1152.3462	1201.359	1241.1819	1275.3216	1332.188	1406.4086	1443.5473	1479.3471	1489.9285	1503.1755	1550.6289	1555.8665	1637.9041	3040.6501	3108.8576	3163.0187	3257.4218	3281.7836
CN1N=CC2=C1OC=N2	Cn1ncc2c1ocn2	
InChI=1S/C5H5N3O/c1-8-5-4(2-7-8)6-3-9-5/h2-3H,1H3	InChI=1S/C5H5N3O/c1-8-5-4(2-7-8)6-3-9-5/h2-3H,1H3
