15
gdb 128582	2.6872	1.45158	0.94818	6.1299	71.43	-0.2384	-0.0374	0.201	1170.6672	0.113098	-453.966383	-453.958307	-453.957363	-453.999503	28.687	
C	 0.8651138228	 0.581984033	 0.1897073151	-0.253941
O	-0.522346636	 0.8632145634	 0.0266187592	-0.25766
C	-1.3443717785	-0.1774559056	 0.1985105713	 0.540091
C	-1.1547995432	-1.4993160336	 0.5062328023	-0.407341
C	-2.477219433	-2.0298819605	 0.5284361002	 0.03734
N	-3.4049393908	-1.1372601945	 0.2627012588	-0.235452
N	-2.7036645109	 0.0261483477	 0.0546798627	-0.131536
C	-3.3306876522	 1.23938462	-0.260619319	 0.177049
O	-4.514310669	 1.3820450681	-0.3762124988	-0.265442
H	 1.1963503983	-0.1665014809	-0.5388415613	 0.140278
H	 1.3886072637	 1.5224961043	 0.0184562203	 0.151233
H	 1.0700725001	 0.2211046681	 1.2038527898	 0.14028
H	-0.2260039951	-2.0114730495	 0.6874357065	 0.120028
H	-2.7684979367	-3.0506267989	 0.7343614428	 0.127758
H	-2.5847974195	 2.0411397689	-0.38297273	 0.117314
82.6905	141.8279	177.8882	193.1238	231.3768	267.758	346.0166	410.0497	583.2752	660.5343	689.998	696.4915	762.1947	834.2511	911.2637	928.1465	1027.8426	1033.9938	1062.9297	1147.8836	1181.6095	1214.324	1254.7958	1307.1236	1353.7723	1404.925	1458.7654	1464.2535	1487.9807	1504.3131	1535.3511	1631.9426	1842.7483	3017.3165	3025.2567	3093.3186	3155.5548	3236.67	3284.5796
COC1=CC=NN1C=O	COc1ccnn1C=O	
InChI=1S/C5H6N2O2/c1-9-5-2-3-6-7(5)4-8/h2-4H,1H3	InChI=1S/C5H6N2O2/c1-9-5-2-3-6-7(5)4-8/h2-4H,1H3
