22
gdb 116920	5.00818	0.53482	0.50399	1.288	94.93	-0.2306	0.0465	0.2771	2277.2693	0.192738	-367.171228	-367.160485	-367.159541	-367.209293	37.945	
C	 0.0874797534	 1.5932883709	 0.0483297389	-0.381656
C	 0.0550640796	 0.0638208603	 0.0428026669	-0.152503
C	-1.3823197001	-0.4922569278	-0.023595539	-0.338295
C	-1.438420197	-1.949517043	-0.0303895227	 0.045245
C	-1.4560639313	-3.1548771289	-0.0215437749	 0.185152
C	-1.4690647228	-4.5916566256	-0.0527477141	-0.258818
N	-1.8916747898	-5.3121387224	 1.1777449113	-0.324516
C	-2.7332026207	-5.3981521645	-0.0202045812	 0.020683
C	-4.0975818054	-4.7625059822	 0.0554358044	-0.395429
H	 1.114615446	 1.9667770827	 0.0992816767	 0.114193
H	-0.371736877	 2.0043198804	-0.8577910891	 0.114969
H	-0.4573307052	 1.9991500413	 0.9081374772	 0.115979
H	 0.6237623277	-0.3226275989	-0.8104155812	 0.106998
H	 0.5437053131	-0.327994995	 0.9417439142	 0.110606
H	-1.9571431903	-0.1097966092	 0.8309154417	 0.127142
H	-1.8813838304	-0.0984607145	-0.9199066465	 0.122946
H	-0.6487748423	-5.0335507777	-0.6159733563	 0.100869
H	-1.3284992537	-6.1524792747	 1.2816214158	 0.231212
H	-2.6912271823	-6.3282084026	-0.586870298	 0.083199
H	-4.0488363757	-3.8171887406	 0.5998368039	 0.138695
H	-4.4885853934	-4.5657486602	-0.9485434029	 0.115694
H	-4.8016074827	-5.4233424876	 0.5720964549	 0.117635
13.4545	63.281	74.6603	129.0501	142.4368	191.1356	245.0115	295.7925	314.9862	331.9443	397.9512	477.7422	544.728	573.0337	743.4274	750.2698	778.8636	859.1588	872.154	890.5599	925.9968	982.5306	1008.9682	1041.2272	1069.7709	1107.9593	1120.6258	1127.7386	1156.9616	1207.0378	1249.0238	1258.5119	1265.8766	1306.2132	1320.9829	1380.0771	1392.8328	1413.0127	1422.0863	1454.3093	1472.8041	1487.4516	1492.3159	1495.7597	1499.6293	1509.3816	2362.7811	3006.5501	3029.6387	3033.4486	3037.4706	3041.546	3073.2522	3099.2183	3100.1772	3101.8056	3105.3984	3116.6955	3136.4335	3498.8862
CCCC#CC1NC1C	CCCC#C[C@H]1N[C@H]1C	
InChI=1S/C8H13N/c1-3-4-5-6-8-7(2)9-8/h7-9H,3-4H2,1-2H3	InChI=1S/C8H13N/c1-3-4-5-6-8-7(2)9-8/h7-9H,3-4H2,1-2H3/t7-,8+/m0/s1
