13
gdb 131959	4.77381	1.08718	0.89042	4.5157	66.17	-0.3008	-0.1073	0.1935	1213.8733	0.08808	-489.792417	-489.784757	-489.783813	-489.82536	26.907	
C	-0.0087129843	 1.491730121	-0.0290341514	-0.494728
C	-0.00182154	 0.000193827	 0.0504589007	 0.403755
N	-0.0572452904	-0.7208140189	-1.0519920613	-0.169224
O	-0.0344091566	-2.0532122176	-0.6580754204	-0.179038
C	 0.0340965933	-2.077728932	 0.670871894	 0.550642
C	 0.0592490664	-0.8328437462	 1.2052935399	-0.399537
N	 0.0697407606	-3.3721766865	 1.3150215866	 0.350008
O	 0.1327097393	-3.3514867124	 2.5384693382	-0.353748
O	 0.0349366584	-4.3602206185	 0.6012325546	-0.333654
H	 0.8985412373	 1.9085737372	 0.4190935863	 0.150686
H	-0.0639002486	 1.8082697785	-1.0719359779	 0.162016
H	-0.865672781	 1.9053596222	 0.5115241236	 0.150661
H	 0.1123252556	-0.5646718638	 2.2457820673	 0.162163
69.7126	127.6495	151.7211	184.9218	325.126	340.4323	412.4757	539.9935	614.6456	663.3201	682.773	781.2704	836.9115	864.0692	945.3956	978.5925	1021.9712	1043.4249	1067.8142	1121.9414	1301.8835	1392.62	1409.4202	1437.3553	1479.587	1480.4559	1503.6265	1628.0332	1653.1268	3048.4924	3108.5025	3146.2129	3299.3891
CC1=NOC(=C1)N(=O)=O	Cc1noc(c1)N(=O)=O	
InChI=1S/C4H4N2O3/c1-3-2-4(6(7)8)9-5-3/h2H,1H3	InChI=1S/C4H4N2O3/c1-3-2-4(6(7)8)9-5-3/h2H,1H3
