21
gdb 113964	3.82353	0.7393	0.72988	2.0384	79.14	-0.26	0.0784	0.3383	1654.7545	0.181515	-424.183996	-424.174356	-424.173411	-424.219901	35.123	
O	 0.003980687	 1.0283629731	-0.973022335	-0.419222
C	 0.0068220829	 0.1109462418	 0.1088990648	-0.083822
C	-1.3224897307	-0.5942674334	 0.2142174411	 0.02413
O	-1.5937406305	-1.5550880623	-0.823032081	-0.26999
C	-1.5111990942	-2.0197855513	 0.5306007027	 0.079842
C	-0.414020271	-3.0046421463	 0.8715985726	-0.262362
C	-0.7785037129	-4.4217593134	 0.4719019902	 0.035012
C	-0.6103450922	-4.8663077442	-0.9586789176	-0.244039
C	 0.2985215045	-5.4141112934	 0.1145631934	-0.28212
H	-0.230388547	 0.5237596926	-1.7603833262	 0.292759
H	 0.8250888704	-0.6152927969	 0.0139137716	 0.091879
H	 0.1866079397	 0.7031829181	 1.0130238777	 0.112281
H	-2.1596546517	 0.0795206036	 0.4075123231	 0.095653
H	-2.4854271535	-2.2873355114	 0.9483805527	 0.087872
H	 0.5142795129	-2.7131858501	 0.3712465932	 0.102348
H	-0.2239838457	-2.958180813	 1.9528984902	 0.103585
H	-1.6414274176	-4.8250803708	 0.9967364643	 0.082536
H	-1.3577827287	-5.5248918337	-1.3865824153	 0.111469
H	-0.2004085639	-4.1473946057	-1.6592558025	 0.120754
H	 1.3284530549	-5.0721590566	 0.1324530728	 0.109724
H	 0.1710231474	-6.4462249267	 0.4218210371	 0.111712
41.4236	64.4172	84.1525	118.7639	196.2204	259.9202	329.1563	354.2804	407.6179	456.9807	490.7851	568.2161	767.0164	778.8467	801.6507	833.3915	846.4601	895.5759	923.3593	961.0123	987.7028	1037.5419	1056.367	1067.7599	1074.1446	1078.8137	1123.4243	1137.2006	1162.9935	1183.6762	1196.2165	1228.2538	1233.1163	1271.6266	1296.8297	1323.8064	1358.0649	1399.4319	1413.4663	1434.8213	1465.7613	1472.1403	1493.9978	1495.8133	1507.9904	3013.0338	3019.4014	3067.2161	3072.6262	3086.0894	3099.1648	3129.5739	3132.7314	3140.0646	3209.0976	3226.2834	3800.2278
OCC1OC1CC1CC1	OC[C@H]1O[C@H]1CC1CC1	
InChI=1S/C7H12O2/c8-4-7-6(9-7)3-5-1-2-5/h5-8H,1-4H2	InChI=1S/C7H12O2/c8-4-7-6(9-7)3-5-1-2-5/h5-8H,1-4H2/t6-,7+/m0/s1
