15
gdb 11711	5.55333	1.43202	1.28968	4.8405	67.22	-0.2595	-0.0032	0.2563	946.2386	0.118405	-362.635534	-362.628269	-362.627325	-362.666901	27.217	
C	-0.0800222892	 1.528463795	-0.0211241852	-0.412111
C	 0.1183186542	 0.0322544853	 0.0659750107	 0.14048
O	 1.1944179024	-0.4665927868	-0.7986419198	-0.330374
C	 1.7567559314	-1.1923825716	 0.2919692946	 0.35633
C	 2.236174747	-0.2561525189	 1.366396355	-0.334183
C	 0.7710310515	-0.6082772268	 1.2951229739	-0.190618
C	 2.2248489177	-2.5250901603	 0.084473665	 0.215176
N	 2.6116418069	-3.6047077999	-0.0689934367	-0.345886
H	 0.8149635949	 2.0734762649	 0.2892836092	 0.126731
H	-0.3179556403	 1.815281176	-1.0499592382	 0.140046
H	-0.9148659414	 1.8329327054	 0.6187179336	 0.127634
H	-0.8042738438	-0.4988146321	-0.196797952	 0.102139
H	 2.7699276992	-0.7197805371	 2.1891331075	 0.143914
H	 2.6043168296	 0.7176995091	 1.0595730121	 0.134804
H	 0.2500514799	-1.1049306823	 2.1015680002	 0.125919
119.0436	151.1633	220.0262	250.2951	309.1947	450.4241	469.2084	533.354	577.3507	622.0784	709.8731	840.0585	859.5211	867.3212	954.6248	968.4988	1008.7837	1021.3154	1070.0483	1090.9992	1107.3699	1151.0301	1171.05	1280.2749	1307.2693	1362.4223	1390.4651	1414.4663	1475.0599	1484.7824	1493.4868	2350.2665	3037.5485	3043.1692	3112.8883	3125.5532	3130.743	3215.8992	3226.7514
CC1OC2(CC12)C#N	C[C@H]1O[C@]2(C[C@@H]12)C#N	
InChI=1S/C6H7NO/c1-4-5-2-6(5,3-7)8-4/h4-5H,2H2,1H3	InChI=1S/C6H7NO/c1-4-5-2-6(5,3-7)8-4/h4-5H,2H2,1H3/t4-,5+,6-/m1/s1
