17
gdb 53842	4.12312	0.8998	0.76921	1.3897	70.38	-0.2374	-0.0635	0.174	1445.9592	0.134403	-455.15437	-455.145088	-455.144144	-455.18955	33.067	
N	-0.1524590965	 1.2877477376	-0.0912169575	-0.519084
C	 0.0186898161	-0.0423246984	 0.0636688331	 0.334504
O	 1.0804991543	-0.620990852	 0.2001691754	-0.353103
C	-1.3256589815	-0.808318116	 0.0477898737	 0.289245
O	-2.3689859927	-0.2168245262	-0.0993960261	-0.298972
C	-1.2011164747	-2.3097117779	 0.1978490121	-0.25577
N	-2.4852853	-2.9407073422	 0.3949201098	-0.055684
C	-3.2607357818	-3.2315695859	-0.8047401206	-0.207019
C	-2.6011326128	-4.3284404662	-0.0440794539	-0.224631
H	 0.6431348755	 1.9028084355	-0.0940169007	 0.26985
H	-1.0883131691	 1.6467807765	-0.1922478643	 0.280038
H	-0.6486306456	-2.6698516043	-0.693205525	 0.120845
H	-0.5387506786	-2.516894808	 1.0459854898	 0.151724
H	-4.3298061323	-3.0624921244	-0.7246740589	 0.124382
H	-2.8297193444	-2.9665255216	-1.768973071	 0.109935
H	-1.7289490386	-4.7971859297	-0.4974647119	 0.112254
H	-3.1797994972	-4.9778157468	 0.6060521359	 0.121488
50.0704	63.0517	93.3333	143.7543	248.0835	312.8721	328.8718	376.7815	390.8401	420.2577	519.448	609.95	636.6535	726.3578	774.9006	812.9442	845.1401	914.5031	988.8838	1028.5569	1041.0669	1084.0284	1104.1968	1120.4146	1122.3939	1169.524	1180.7642	1251.1515	1331.9678	1354.6827	1397.7327	1438.5656	1493.7417	1522.4743	1588.5521	1798.5108	1815.2062	2914.9798	3070.0981	3096.1475	3101.9279	3182.6565	3197.6003	3595.3487	3737.2448
NC(=O)C(=O)CN1CC1	NC(=O)C(=O)CN1CC1	
InChI=1S/C5H8N2O2/c6-5(9)4(8)3-7-1-2-7/h1-3H2,(H2,6,9)	InChI=1S/C5H8N2O2/c6-5(9)4(8)3-7-1-2-7/h1-3H2,(H2,6,9)
