17
gdb 32090	3.00041	1.27091	0.95029	2.1773	77.75	-0.251	-0.0362	0.2147	1235.017	0.138068	-418.088125	-418.080113	-418.079169	-418.121501	29.87	
C	-0.2723114331	 1.5275170929	 0.0859045068	-0.372289
C	 0.0454549231	 0.0275328338	-0.0331981546	-0.269228
C	 0.7403467266	-0.5027772143	 1.1948855376	 0.324195
C	 0.12733182	-1.3991652118	 2.0736853137	-0.19726
C	 0.8654063293	-1.8013388136	 3.1780804771	 0.017801
N	 2.1038181324	-1.3671687811	 3.4133765303	-0.353709
C	 2.5871547095	-0.5117408896	 2.5060019333	 0.440644
O	 3.8312476966	-0.0554956254	 2.7130779071	-0.391124
N	 1.9826916824	-0.0561901981	 1.4152172866	-0.330178
H	 0.643941145	 2.0932352348	 0.2719696265	 0.145451
H	-0.7301712699	 1.898260876	-0.8355721222	 0.116161
H	-0.9655308841	 1.7196150278	 0.9111344676	 0.1174
H	-0.8717019613	-0.5426494276	-0.2120988748	 0.101251
H	 0.7065830724	-0.1315430908	-0.8922944447	 0.125834
H	-0.8765665932	-1.765718638	 1.9010921804	 0.101891
H	 0.4547344201	-2.4991079012	 3.9045156605	 0.118889
H	 4.1347643441	-0.4715064639	 3.531479829	 0.304271
38.8299	133.6571	195.6872	217.3898	292.7652	344.469	469.1507	490.2883	547.3276	575.0051	601.8351	712.4677	764.988	793.4934	829.1012	852.5036	948.0938	1000.0352	1005.7135	1017.4669	1084.7391	1094.0985	1121.4913	1221.6151	1254.9087	1269.2466	1310.5932	1360.6554	1378.3587	1403.6675	1477.1352	1479.5782	1496.3258	1501.6374	1514.3596	1605.7154	1639.1492	3041.3887	3043.3939	3085.1227	3111.9957	3130.6513	3155.9319	3211.1912	3781.6495
CCC1=CC=NC(O)=N1	CCc1ccnc(O)n1	
InChI=1S/C6H8N2O/c1-2-5-3-4-7-6(9)8-5/h3-4H,2H2,1H3,(H,7,8,9)	InChI=1S/C6H8N2O/c1-2-5-3-4-7-6(9)8-5/h3-4H,2H2,1H3,(H,7,8,9)
