15
gdb 49185	4.02208	1.34526	1.19793	3.0615	72.34	-0.2432	-0.0663	0.1769	1013.2435	0.113178	-420.589407	-420.582794	-420.581849	-420.620592	26.105	
O	-0.0220707104	-0.00112071	 0.189695876	-0.272361
C	 0.02418445	 1.2050397867	 0.0879286836	 0.068833
C	 1.2623795589	 1.9722033356	-0.0618265642	 0.277218
C	 1.3570513898	 3.3190672287	-0.0854521073	-0.187214
C	 2.8192549753	 3.6745755811	-0.0364268501	 0.037976
O	 3.237189165	 3.2760202845	 1.3369458699	-0.2878
C	 3.6832180789	 2.0448012022	 0.8149491772	 0.101879
C	 3.5775724152	 2.4395939062	-0.6139946856	-0.161367
C	 2.6178412949	 1.376749662	-0.1242595748	-0.212158
H	-0.9022116566	 1.820712903	 0.0873400523	 0.071773
H	 0.5447065206	 4.0246065931	 0.0360840365	 0.122386
H	 3.1342441615	 4.6918456551	-0.2588490478	 0.093812
H	 4.3895112252	 1.4701656334	 1.4004109132	 0.123146
H	 4.248008108	 2.3784945354	-1.4608663041	 0.109564
H	 2.7675850838	 0.334073953	-0.3698741546	 0.114314
106.1672	182.3015	236.68	407.029	453.9265	518.2219	636.6671	686.6146	727.2693	727.9127	783.7819	809.3523	821.8128	853.5744	891.3294	946.6889	959.2535	984.6399	1028.4805	1038.2802	1056.3308	1076.0444	1103.4713	1182.741	1213.3344	1223.3144	1257.8493	1304.4119	1358.6325	1391.1637	1421.1898	1634.8791	1783.1443	2888.5008	3143.9883	3195.5838	3207.0387	3217.1107	3220.8644
O=CC1=CC2OC3C2C13	O=CC1=C[C@H]2O[C@@H]3[C@H]2[C@H]13	
InChI=1S/C7H6O2/c8-2-3-1-4-6-5(3)7(6)9-4/h1-2,4-7H	InChI=1S/C7H6O2/c8-2-3-1-4-6-5(3)7(6)9-4/h1-2,4-7H/t4-,5+,6-,7+/m1/s1
