21
gdb 56584	2.33211	1.08283	0.99175	4.4442	82.36	-0.2552	0.0249	0.2802	1348.7737	0.182062	-383.266576	-383.256458	-383.255513	-383.301775	37.152	
C	-0.4302471921	 1.3467836089	 0.2530462529	-0.412451
C	 0.0497194859	-0.0828992047	-0.0238707046	-0.020251
C	 0.8751823065	-0.1956515772	-1.3444980471	-0.113052
N	 0.1814673187	 0.1445468175	-2.5898823804	-0.514581
C	 2.1026294747	 0.6136469048	-1.2545017262	 0.304827
N	 3.0521165941	 1.2636211412	-1.147794398	-0.336653
C	 0.8283239145	-0.6492507596	 1.1492884125	 0.036047
C	 0.1053297008	-1.275726425	 2.3136773263	-0.281947
C	 0.9068929167	-2.1400889922	 1.3709707261	-0.277573
H	 0.4181624127	 2.0229518243	 0.4018215328	 0.142017
H	-1.0381110142	 1.7405438143	-0.5680491727	 0.104668
H	-1.0423921524	 1.3715897144	 1.1586932171	 0.126069
H	-0.8293713874	-0.7233562095	-0.1866527467	 0.067407
H	 1.1986698916	-1.240446854	-1.4314061871	 0.133677
H	-0.6563160051	-0.4241475923	-2.6706006712	 0.23515
H	-0.1176185531	 1.1146175076	-2.5749041245	 0.242274
H	 1.7242419004	-0.0850570931	 1.396282365	 0.107307
H	 0.4909149254	-1.1051139431	 3.3124230072	 0.118004
H	-0.9767828157	-1.3435973926	 2.262096572	 0.110818
H	 0.356666344	-2.7858992431	 0.6933589258	 0.108027
H	 1.8412245942	-2.5627036366	 1.7225031409	 0.120217
61.4935	88.9153	132.6356	178.5586	209.6383	212.8414	250.8045	270.322	309.6316	396.3704	411.8454	453.0108	597.6476	653.5899	750.2345	790.6936	828.7219	838.9816	860.6493	920.6773	937.3007	964.5172	999.347	1057.2113	1076.3211	1081.182	1094.9745	1135.2987	1143.7461	1196.5645	1199.0801	1218.9494	1228.3619	1278.9206	1301.449	1353.5683	1406.9773	1411.439	1425.9549	1470.985	1496.5022	1498.9836	1506.6644	1656.4121	2358.1424	2999.2977	3036.35	3038.9332	3102.4931	3115.0575	3127.6276	3132.6181	3142.4978	3207.3905	3222.2929	3494.6217	3580.6038
CC(C(N)C#N)C1CC1	C[C@@H]([C@@H](N)C#N)C1CC1	
InChI=1S/C7H12N2/c1-5(6-2-3-6)7(9)4-8/h5-7H,2-3,9H2,1H3	InChI=1S/C7H12N2/c1-5(6-2-3-6)7(9)4-8/h5-7H,2-3,9H2,1H3/t5-,7+/m1/s1
