14
gdb 12726	3.08344	2.29757	1.70469	3.0345	57.17	-0.2677	-0.0047	0.2631	776.2451	0.10706	-419.682613	-419.675739	-419.674795	-419.713652	25.73	
O	 0.3453317939	 1.4700321805	-0.1347258558	-0.457961
C	 0.085877392	 0.1154578157	-0.1137943466	 0.234677
C	 0.4271164804	-0.6334136909	-1.4320170895	-0.277582
C	-0.9487653173	-1.3691413913	-1.392480715	-0.23452
C	-1.2849661868	-0.6626480532	-0.0699717739	 0.03674
O	-0.7844151972	-1.4259911283	 1.0775999855	-0.255505
C	 0.3832506481	-0.7027885775	 1.1478755653	 0.375084
O	 1.2252653532	-0.7496138185	 1.9865802585	-0.328885
H	 0.3394321989	 1.8108924239	 0.766976429	 0.299921
H	 0.4985735095	 0.0882769651	-2.2480318646	 0.132101
H	 1.3322304467	-1.2427270921	-1.4174184572	 0.12595
H	-1.6097360105	-1.0850109876	-2.2138182384	 0.119044
H	-0.9212953412	-2.457139789	-1.3159038558	 0.126759
H	-2.2666561197	-0.2401103767	 0.1352315784	 0.104176
123.3407	156.2273	242.8186	316.2133	330.5104	401.2245	524.3261	620.5936	705.1763	729.408	773.6146	836.2979	873.2696	905.5636	951.3996	970.9072	1028.6863	1060.1064	1114.3649	1129.734	1177.7529	1217.1157	1243.5712	1270.8224	1313.5605	1355.8061	1367.1198	1465.1869	1484.8326	1927.5074	3077.6558	3082.4652	3128.5685	3140.042	3145.4077	3802.6927
OC12CCC1OC2=O	O[C@]12CC[C@H]1OC2=O	
InChI=1S/C5H6O3/c6-4-5(7)2-1-3(5)8-4/h3,7H,1-2H2	InChI=1S/C5H6O3/c6-4-5(7)2-1-3(5)8-4/h3,7H,1-2H2/t3-,5-/m1/s1
