18
gdb 80456	2.50393	1.59687	1.34891	3.0834	71.08	-0.25	-0.0155	0.2345	1024.355	0.148055	-439.094076	-439.085865	-439.08492	-439.126989	31.337	
C	-0.2981161415	 1.4272906211	 0.1409017749	-0.418267
C	-0.0242036453	-0.0415733848	-0.068928737	 0.000464
C	 0.7752090629	-0.598068518	-1.2013093862	-0.053953
C	 1.6477168385	 0.3075863667	-2.0803312853	-0.288132
C	 2.9203112112	 0.4960944335	-1.2260704106	 0.073967
O	 3.5434384066	 1.7429044127	-1.3575292176	-0.440526
C	 2.3893980646	 0.2947431896	 0.2007314034	 0.343167
O	 2.8154019963	 0.8826133367	 1.1640815795	-0.348276
N	 1.3217959045	-0.6207447755	 0.1771370693	-0.135759
H	 0.4558154181	 2.0737370241	-0.3144287524	 0.137853
H	-1.2725114995	 1.6825124924	-0.2878130012	 0.127798
H	-0.3262816861	 1.6580276192	 1.2101969926	 0.148874
H	-0.8062776264	-0.6894844577	 0.3228431971	 0.108578
H	 0.4938678492	-1.5690743129	-1.5983667705	 0.103372
H	 1.8569075197	-0.1615856345	-3.0425506855	 0.119516
H	 1.1905595727	 1.2813658771	-2.2774882686	 0.127707
H	 3.6242626665	-0.3262023041	-1.4424973541	 0.099738
H	 3.7845429479	 2.0063429945	-0.4558828579	 0.29388
61.5523	133.002	192.7306	258.2594	274.8258	372.396	391.0121	438.25	514.8763	531.058	563.581	684.8306	697.908	773.5935	808.0091	821.0091	940.5809	984.5443	985.4665	1002.7033	1060.4627	1095.8024	1139.0741	1150.0825	1160.8187	1180.1168	1195.5942	1249.1623	1290.6432	1308.0193	1362.0429	1374.2899	1414.6932	1422.5928	1429.2012	1483.9062	1492.9006	1508.2706	1829.3105	2953.4935	3044.1679	3072.5384	3110.5727	3115.0082	3123.6999	3132.3358	3152.3453	3707.2554
CC1C2CC(O)C(=O)N12	C[C@H]1[C@H]2C[C@@H](O)C(=O)N12	
InChI=1S/C6H9NO2/c1-3-4-2-5(8)6(9)7(3)4/h3-5,8H,2H2,1H3	InChI=1S/C6H9NO2/c1-3-4-2-5(8)6(9)7(3)4/h3-5,8H,2H2,1H3/t3-,4+,5+,7?/m0/s1
