19
gdb 16372	2.32165	2.2944	1.47481	1.7613	71.47	-0.2412	0.0701	0.3113	943.4646	0.164559	-365.025227	-365.016891	-365.015947	-365.057821	31.254	
C	-0.3425981165	 1.2793436425	-1.2678509629	-0.403851
C	 0.2386497367	-0.051919349	-0.834611206	 0.090168
O	 1.6222676523	-0.2138250992	-1.231173351	-0.324696
C	 2.0402947822	-0.5834977003	 0.1121282622	 0.115832
C	 3.2186490448	 0.2315013192	 0.6025330678	-0.407716
C	 0.6366388266	-0.270160121	 0.6272468718	 0.248024
C	 0.1828355916	 0.4522181422	 1.832567717	-0.303633
N	-0.0599200231	-0.9992041381	 1.6719369828	-0.365523
H	 0.2402239328	 2.1098469215	-0.8601321074	 0.122219
H	-0.3362826675	 1.3549322035	-2.3598000325	 0.130196
H	-1.3807662091	 1.3775264899	-0.9304558947	 0.111415
H	-0.3727180009	-0.8799229972	-1.2283164236	 0.072617
H	 2.2643765407	-1.6584468775	 0.1639879643	 0.080985
H	 2.9864930228	 1.3004193315	 0.5914075691	 0.117368
H	 3.4860273175	-0.0616384423	 1.6235635856	 0.120922
H	 4.0893009649	 0.060178391	-0.0381004783	 0.128067
H	 0.8879957833	 0.7109668927	 2.61788806	 0.122403
H	-0.6543196171	 1.1391348394	 1.7336795698	 0.114339
H	-1.0273260222	-1.1692391689	 1.4042454559	 0.230863
69.5846	198.2551	207.3375	213.8066	215.8454	247.8738	356.3894	419.6533	462.2296	523.4609	562.3799	746.7836	837.4801	863.0618	883.7231	905.5801	943.8241	968.3387	1002.7532	1037.289	1069.8417	1105.8189	1109.6776	1120.5514	1141.6745	1157.4876	1249.8009	1261.4764	1292.5084	1313.0419	1364.0164	1391.751	1401.2872	1413.561	1435.3836	1480.4687	1488.9287	1489.9019	1493.4823	1520.6798	2969.3766	3004.0024	3033.0849	3035.5658	3101.7962	3105.5311	3107.6578	3115.9584	3119.7896	3188.9598	3484.3092
CC1OC(C)C11CN1	C[C@H]1O[C@@H](C)[C@]21CN2	
InChI=1S/C6H11NO/c1-4-6(3-7-6)5(2)8-4/h4-5,7H,3H2,1-2H3	InChI=1S/C6H11NO/c1-4-6(3-7-6)5(2)8-4/h4-5,7H,3H2,1-2H3/t4-,5+,6-
