12
gdb 129510	2.97456	1.64304	1.05841	3.134	59.4	-0.265	-0.0651	0.1999	1010.9412	0.076724	-502.104423	-502.096454	-502.09551	-502.137861	27.919	
N	-0.1320670059	 1.3438464279	 0.0113088446	-0.572953
C	 0.104887114	 0.0097535149	 0.0015902176	 0.524337
O	 1.1764359694	-0.5311163264	-0.0102502789	-0.328171
N	-1.1138743392	-0.7565217914	 0.0088424616	-0.173714
N	-2.3312269922	-0.1514428671	 0.0201218965	-0.050236
N	-3.2388920238	-1.0009382938	 0.0242314723	 0.021694
O	-2.6609392319	-2.2844617811	 0.0154354272	-0.244105
C	-1.283277087	-2.1488506373	 0.0054172164	 0.534644
N	-0.4154978579	-3.0532207574	-0.0041510893	-0.530565
H	 0.6710215967	 1.9475272962	 0.0017251874	 0.28265
H	-1.0602130444	 1.7288604138	 0.01519251	 0.288843
H	-0.8493741279	-3.9739070484	-0.0039130553	 0.247577
46.4747	116.2245	146.1992	208.5739	229.8471	378.4484	442.2244	521.2599	542.1051	653.6303	665.539	704.5879	754.6587	763.0751	796.5821	810.7455	984.6421	1017.5492	1084.5717	1160.3587	1214.6164	1303.2671	1383.5258	1557.3103	1603.1955	1796.3668	1881.92	3530.57	3621.534	3758.3207
NC(=O)N1N=NOC1=N	NC(=O)N1N=NO[C@@H]1[NH]	
InChI=1S/C2H3N5O2/c3-1(8)7-2(4)9-6-5-7/h4H,(H2,3,8)	InChI=1S/C2H4N5O2/c3-1(8)7-2(4)9-6-5-7/h2,4H,(H2,3,8)/t2-/m1/s1
