15
gdb 5391	5.22569	1.60364	1.2379	2.4235	72.88	-0.212	-0.0327	0.1793	945.5625	0.121441	-358.892629	-358.885473	-358.884529	-358.924301	26.017	
C	 0.0611229246	 1.4445699507	 0.0754420282	-0.32506
N	-0.0504475808	 0.0130421654	-0.0813391078	-0.346782
C	-1.2260835551	-0.6783079746	-0.020782625	 0.397122
C	-2.4905099674	-0.0449272451	 0.0016734751	-0.085437
N	-3.6191890571	-0.7389375822	 0.0342643173	-0.225047
C	-3.517605823	-2.073019249	 0.0486252028	-0.041385
C	-2.2748892602	-2.6960360159	 0.0355400875	-0.01243
N	-1.1302847537	-2.0167339507	 0.0032899355	-0.326278
H	 1.1152202781	 1.7220782802	 0.0201615579	 0.13444
H	-0.4645967296	 1.9763724856	-0.7267761189	 0.137294
H	-0.3375110751	 1.8004383549	 1.036560003	 0.127988
H	 0.7711979962	-0.5570907017	 0.0370989285	 0.249495
H	-2.5763075589	 1.037466337	-0.0075280926	 0.102331
H	-4.4391152913	-2.6458994877	 0.0752882179	 0.105241
H	-2.1955458366	-3.7807741869	 0.0542977006	 0.108508
73.7037	143.9275	217.5425	226.3971	390.1294	442.7187	485.7968	553.5933	584.4386	649.9617	785.3133	845.655	854.3447	921.8961	978.9307	1013.4654	1071.4484	1103.1074	1158.952	1169.399	1218.8601	1261.4624	1312.0052	1357.0891	1448.6907	1458.0695	1484.0674	1485.9443	1522.9437	1554.018	1587.7896	1623.3466	2996.869	3052.8104	3129.7206	3150.2854	3168.6655	3181.5935	3641.6499
CNC1=CN=CC=N1	CNc1cnccn1	
InChI=1S/C5H7N3/c1-6-5-4-7-2-3-8-5/h2-4H,1H3,(H,6,8)	InChI=1S/C5H7N3/c1-6-5-4-7-2-3-8-5/h2-4H,1H3,(H,6,8)
