23
gdb 110315	1.9052	1.4601	1.00036	1.2179	86.01	-0.2407	0.072	0.3128	1322.5622	0.204435	-388.263387	-388.253401	-388.252457	-388.297945	38.012	
C	-0.6696234584	 1.4090152294	-0.7698315254	-0.378602
C	-0.3422594667	-0.0798047851	-0.9457107898	-0.210234
C	-1.580370236	-0.9490857243	-0.8152540031	-0.047261
C	-1.6834928585	-2.4641100789	-0.7000001985	-0.18165
C	-0.6300269627	-3.11789251	 0.2100063183	 0.054796
C	 0.8204917355	-3.2603644965	-0.2397750013	-0.413969
C	-1.0254972182	-2.1188416302	 1.353663861	-0.335547
C	-2.1299098774	-1.5551466451	 0.443504368	 0.375595
O	-3.4310422308	-1.343400746	 0.8774160139	-0.463168
H	 0.2236276239	 2.0309782932	-0.8840737856	 0.112114
H	-1.4051114442	 1.7428865311	-1.5103216592	 0.114598
H	-1.0882530374	 1.6061572829	 0.2234951336	 0.10889
H	 0.1148027218	-0.2391658535	-1.9309278	 0.097113
H	 0.413055347	-0.3674281646	-0.2088905365	 0.102511
H	-2.4035006392	-0.5902823876	-1.4350975322	 0.082211
H	-2.3006903615	-3.0101555223	-1.4050782461	 0.083536
H	-0.9992009922	-4.1106941908	 0.4894225971	 0.079202
H	 1.2677620951	-2.3069036562	-0.53036191	 0.117573
H	 1.4345586757	-3.6868474112	 0.5616526652	 0.110976
H	 0.8915745216	-3.9332173786	-1.1018692458	 0.113371
H	-1.4376083894	-2.6250389462	 2.2289522633	 0.106804
H	-0.2562182462	-1.4138192459	 1.6873323526	 0.088835
H	-3.5171413019	-0.4197226536	 1.1364023106	 0.282306
66.8792	140.2549	163.7534	182.8816	207.2034	229.7935	244.0589	296.4039	362.3175	375.5413	406.1352	481.0898	551.9682	632.7351	690.1957	746.2469	821.8238	841.0554	892.6198	897.7824	937.522	959.3409	998.7589	1001.7583	1053.1621	1065.4429	1088.6136	1118.6741	1127.1285	1159.7759	1181.8089	1222.37	1235.1499	1252.4596	1292.2369	1300.0977	1323.0319	1335.7313	1365.6502	1380.3204	1407.3326	1411.329	1470.4677	1483.9094	1495.6023	1498.2483	1499.8726	1502.3018	1507.2518	3024.4293	3027.6869	3030.1812	3038.6758	3040.2382	3075.2859	3087.8871	3094.904	3100.8256	3106.7036	3110.7864	3125.3213	3169.857	3797.6437
CCC1C2C(C)CC12O	CC[C@H]1[C@H]2[C@@H](C)C[C@@]12O	
InChI=1S/C8H14O/c1-3-6-7-5(2)4-8(6,7)9/h5-7,9H,3-4H2,1-2H3	InChI=1S/C8H14O/c1-3-6-7-5(2)4-8(6,7)9/h5-7,9H,3-4H2,1-2H3/t5-,6-,7+,8+/m0/s1
