18
gdb 82120	3.2146	1.19059	1.00248	3.7631	74.99	-0.2688	0.0361	0.3049	1190.5616	0.147158	-401.927475	-401.918969	-401.918024	-401.960919	31.623	
C	-0.3256686502	 1.5268270928	 0.1436450031	-0.425354
C	-0.0774778024	 0.0261059645	 0.076812996	-0.020092
C	 0.4744469332	-0.5382383749	-1.2423151534	 0.024828
O	 1.7897746402	 0.0069091603	-1.4249256069	-0.24779
C	 1.6389803931	-1.1362361813	-0.574505491	-0.00226
C	 1.1846840708	-0.619906082	 0.7980410702	-0.044551
C	 2.1951468244	 0.2779905843	 1.5249853745	-0.350666
C	 1.6644263155	 0.8477899347	 2.7615208313	 0.26259
N	 1.2268693687	 1.282121058	 3.7392813386	-0.315873
H	 0.5241765685	 2.0846237424	-0.2588705157	 0.131439
H	-1.207787543	 1.7912256717	-0.4492840522	 0.119123
H	-0.5028169756	 1.8573398579	 1.1710345619	 0.144879
H	-0.9728823763	-0.5237393824	 0.3819721355	 0.088379
H	-0.0574790242	-0.845398341	-2.135421619	 0.10886
H	 2.2261690304	-2.01543888	-0.8143783305	 0.109216
H	 0.8710919762	-1.4358514082	 1.4539873219	 0.099052
H	 3.091553548	-0.3033158708	 1.7731635168	 0.15022
H	 2.514916813	 1.086833404	 0.8615155189	 0.168
73.0502	104.7293	169.4035	223.7486	233.8229	256.1389	383.4157	398.3065	479.136	569.9115	608.9915	709.658	754.644	837.9815	863.0384	866.5858	927.8049	948.1261	968.6368	1006.3163	1019.5061	1052.9748	1074.1408	1124.2669	1142.0689	1196.2486	1226.5975	1240.3905	1248.1148	1279.7017	1310.2483	1360.793	1369.505	1393.8836	1413.7986	1467.8002	1494.8363	1507.0552	2359.2086	3040.216	3043.2623	3062.048	3081.7235	3099.3312	3106.5764	3124.0027	3178.8652	3194.3219
CC1C2OC2C1CC#N	C[C@H]1[C@H]2O[C@H]2[C@H]1CC#N	
InChI=1S/C7H9NO/c1-4-5(2-3-8)7-6(4)9-7/h4-7H,2H2,1H3	InChI=1S/C7H9NO/c1-4-5(2-3-8)7-6(4)9-7/h4-7H,2H2,1H3/t4-,5+,6-,7+/m1/s1
