19
gdb 133869	3.09994	1.9658	1.89316	1.447	77.78	-0.2476	0.0811	0.3287	849.7933	0.163634	-385.814978	-385.809206	-385.808262	-385.844608	26.226	
C	-0.9177336979	 1.750634396	 0.4319306304	-0.32319
C	 0.5687126687	 1.5889798038	-0.1695254886	-0.12347
C	-0.0192680186	 0.4601787355	-1.0638705389	-0.02981
C	 0.5759655497	-0.9227524396	-1.3721431931	-0.267108
C	 0.436124881	-1.5785970934	 0.0282745445	 0.042906
C	 1.4956580708	-0.8210219973	 0.8734527499	-0.267108
C	 0.8113970075	 0.5520619614	 0.9643493901	-0.02981
C	-0.5797145166	 0.2398911761	 0.3619343492	 0.437596
O	-0.8724409828	-1.1230896567	 0.5435680099	-0.347325
H	-1.6732519978	 2.1357054181	-0.2568986672	 0.102873
H	-0.9864709038	 2.2116745261	 1.4200046601	 0.102873
H	 1.2036341484	 2.4244622727	-0.4674090461	 0.077482
H	-0.7386350158	 0.8026955237	-1.8099994588	 0.067481
H	 1.6092184679	-0.9527701955	-1.7271248549	 0.101538
H	-0.055312329	-1.4170858653	-2.1156545945	 0.103696
H	 0.4549482309	-2.6668285175	 0.0698650556	 0.078664
H	 2.4821142173	-0.8562152909	 0.4042086575	 0.101537
H	 1.581719705	-1.2360089227	 1.8814538244	 0.103695
H	 0.8099183751	 0.9739863256	 1.9710730404	 0.067481
301.0096	396.961	430.9067	451.2174	550.6789	599.8363	601.9201	696.8232	758.5795	765.9291	783.6945	829.062	852.439	888.7446	908.3705	912.922	970.184	984.9278	1007.7627	1026.6849	1043.448	1068.2102	1087.4361	1096.8797	1107.907	1128.5276	1159.9282	1177.8403	1183.5496	1214.1075	1220.178	1232.7197	1251.1163	1298.6511	1310.6179	1333.8051	1360.7396	1414.9277	1479.325	1500.8918	1512.3152	3057.2527	3057.7921	3059.6279	3081.3292	3084.4721	3104.1274	3104.2505	3111.3233	3131.875	3133.1368
C1C2C3CC4CC2C13O4	C1[C@@H]2[C@H]3C[C@H]4C[C@@H]2[C@@]13O4	
InChI=1S/C8H10O/c1-4-2-7-5-3-8(7,9-4)6(1)5/h4-7H,1-3H2	InChI=1S/C8H10O/c1-4-2-7-5-3-8(7,9-4)6(1)5/h4-7H,1-3H2/t4-,5+,6+,7-,8+
