15
gdb 46212	3.12638	1.54518	1.22105	2.2505	67.03	-0.2323	-0.035	0.1973	1000.8187	0.111217	-457.694373	-457.686991	-457.686047	-457.72659	27.574	
O	-0.0119216366	-0.008596675	-0.3021801772	-0.292126
C	 0.0059579461	 1.1693371562	-0.1072335971	 0.277066
C	-1.0133711227	 2.2540184836	 0.2924798801	-0.192675
O	 0.0592566786	 3.2316012626	 0.3178000457	-0.332912
C	 1.0279924321	 2.2673792053	-0.0990956116	 0.331959
C	 2.4545647763	 2.3839859809	 0.3926916205	-0.233315
C	 3.2516856643	 1.2122874725	-0.1761911986	-0.08944
O	 2.8301710806	 1.542691969	-1.5352868852	-0.272589
C	 2.1253022238	 2.6730573069	-1.0542073528	 0.012828
H	-1.7726652685	 2.4844298564	-0.4629183136	 0.140063
H	-1.4835046225	 2.1239991302	 1.2730343139	 0.139295
H	 2.7104279407	 3.0348717627	 1.217619246	 0.123773
H	 4.335120391	 1.3310530874	-0.0751495199	 0.122817
H	 2.9473998227	 0.2029239856	 0.114433435	 0.137388
H	 2.0784647641	 3.5785454357	-1.6485031453	 0.127869
113.2817	121.9393	127.1733	326.0032	335.3983	393.3644	440.5332	551.9849	634.8306	726.1244	772.4034	831.5218	905.5544	915.8477	929.514	981.2208	991.6787	997.1302	1015.3705	1043.1185	1062.1574	1086.7061	1136.5505	1137.3421	1157.6497	1225.3698	1258.8151	1294.4755	1325.4287	1401.8251	1479.3072	1508.9053	1909.0475	3038.4627	3045.7816	3094.1783	3105.242	3184.444	3212.8045
O=C1COC11C2COC12	O=C1CO[C@]21[C@H]1CO[C@@H]21	
InChI=1S/C6H6O3/c7-4-2-9-6(4)3-1-8-5(3)6/h3,5H,1-2H2	InChI=1S/C6H6O3/c7-4-2-9-6(4)3-1-8-5(3)6/h3,5H,1-2H2/t3-,5+,6-/m0/s1
