20
gdb 101938	2.21877	1.29998	0.88072	5.9843	75.07	-0.245	0.0287	0.2737	1332.084	0.171567	-440.306474	-440.297217	-440.296273	-440.34104	34.406	
N	-0.0199391763	 1.0504074737	-0.1956972976	-0.525334
H	 0.2771330435	 0.0808164232	-0.2188465414	 0.249079
H	 1.1431791373	 2.369714397	-0.0172126947	 0.31027
H	-0.6751838346	 1.1809496639	-0.9607977572	 0.245083
C	-0.6579619937	 1.3806827838	 1.0943459453	-0.185376
C	-0.7708436649	 2.9100700698	 1.2725898225	-0.173736
C	-1.6183793809	 3.2704756171	 2.4726524414	 0.059166
C	-2.4262584195	 4.5355446024	 2.4841388106	-0.258308
C	-3.1256916307	 3.2021253634	 2.3868328433	-0.293152
C	 0.6111174788	 3.5996409163	 1.3405366719	 0.415653
O	 1.5174298255	 3.1559902206	 0.4589850154	-0.385587
O	 0.8610660239	 4.4856274174	 2.1152348069	-0.32869
H	-1.6564925401	 0.93760232	 1.2017310767	 0.112351
H	-0.0320051843	 0.9629889016	 1.8906122239	 0.127385
H	-1.264226065	 3.3040626161	 0.3697551429	 0.092199
H	-1.1753893562	 2.9875012377	 3.4230715984	 0.092823
H	-2.4903153263	 5.0905046776	 3.4125860764	 0.119048
H	-2.3968552586	 5.1611432256	 1.598337018	 0.113489
H	-3.5722955544	 2.9326064097	 1.4341799683	 0.101268
H	-3.6760196436	 2.8395152131	 3.247896129	 0.112368
68.2066	76.4339	140.8323	161.4643	243.663	268.8281	326.6212	351.4309	403.5366	435.4056	508.8985	607.4486	728.6112	769.9671	809.1915	827.9374	885.9715	895.6116	927.7155	961.85	971.1633	1021.916	1056.7222	1061.026	1069.2113	1080.1447	1130.3252	1144.9091	1191.245	1195.3423	1231.5694	1236.5847	1282.3673	1320.0619	1345.1055	1411.3973	1424.8262	1472.3973	1491.7924	1509.2955	1510.2285	1649.4775	1851.3635	2986.3	3015.6654	3074.2232	3125.2404	3139.3419	3150.8859	3205.3729	3225.9216	3243.144	3501.4955	3583.725
[NH3+]CC(C1CC1)C([O-])=O	NC[C@@H](C1CC1)C(=O)O	
InChI=1S/C6H11NO2/c7-3-5(6(8)9)4-1-2-4/h4-5H,1-3,7H2,(H,8,9)	InChI=1S/C6H11NO2/c7-3-5(6(8)9)4-1-2-4/h4-5H,1-3,7H2,(H,8,9)/t5-/m0/s1
