23
gdb 95833	2.82423	1.21885	0.91946	0.7837	82.6	-0.2387	0.0831	0.3218	1354.2588	0.205996	-425.428513	-425.419033	-425.418089	-425.46256	36.186	
C	 0.1461866197	 1.6074765439	 0.0249419094	-0.415941
C	-0.0175089639	 0.0832089806	-0.0333973054	 0.001974
C	 0.6146302295	-0.5094249862	-1.3037486096	-0.075888
O	 0.0309114119	-1.7486035174	-1.6738167751	-0.253779
C	 0.4959350807	-2.882009875	-0.9738140268	-0.064216
C	 0.256538325	-2.8433663484	 0.5407455552	 0.101556
C	 0.6117298946	-4.176323115	 1.1922489612	-0.396439
O	 1.0925315076	-1.8485309552	 1.1259125439	-0.26205
C	 0.541465641	-0.553052141	 1.2621685606	-0.081564
H	 1.2045361786	 1.8916185439	-0.0135299785	 0.118517
H	-0.3651095811	 2.0950666564	-0.8107782738	 0.11806
H	-0.2695956872	 2.014347136	 0.9529152432	 0.117646
H	-1.0875665059	-0.1450353286	-0.1096136019	 0.083981
H	 0.4222443785	 0.1629586667	-2.1470077015	 0.098231
H	 1.7051740962	-0.6079764155	-1.190570092	 0.094576
H	-0.03143342	-3.7351082398	-1.4145189675	 0.099765
H	 1.5777097666	-3.0236677426	-1.1357950624	 0.089593
H	-0.8018051278	-2.6081814122	 0.7314827685	 0.073046
H	 1.6623924574	-4.422368339	 1.0072768366	 0.125541
H	 0.4641307475	-4.1174070177	 2.2733889138	 0.123121
H	-0.0095289181	-4.9860082548	 0.7977145625	 0.114172
H	 1.3716712341	 0.0558502537	 1.6380868884	 0.102217
H	-0.2421698947	-0.5476247529	 2.0377590613	 0.087883
61.5988	160.0545	185.5921	202.668	240.1155	271.0053	297.8775	316.2774	346.9705	385.7611	451.7825	463.9468	548.0727	600.7023	820.4907	838.4257	889.6414	915.0624	933.5407	937.5482	962.1778	983.6143	1082.5505	1090.2485	1135.0741	1143.5676	1151.3372	1160.1901	1171.1225	1193.2471	1272.1404	1297.8174	1324.3366	1326.2438	1337.8684	1373.5423	1391.1564	1392.1512	1406.2244	1409.289	1418.9541	1434.3415	1474.9907	1485.4902	1490.1134	1495.4754	1499.0887	1501.7897	1504.2041	2966.2156	2967.1581	2991.0562	2992.3964	3026.5419	3030.8411	3041.4933	3059.9384	3065.6208	3071.1274	3092.5948	3104.1363	3113.1784	3124.2193
CC1COCC(C)OC1	C[C@H]1COC[C@@H](C)OC1	
InChI=1S/C7H14O2/c1-6-3-8-5-7(2)9-4-6/h6-7H,3-5H2,1-2H3	InChI=1S/C7H14O2/c1-6-3-8-5-7(2)9-4-6/h6-7H,3-5H2,1-2H3/t6-,7+/m0/s1
