16
gdb 124399	3.1904	1.18252	1.03082	2.8749	75.26	-0.2558	0.0043	0.2601	1187.5561	0.125	-396.922486	-396.914027	-396.913083	-396.957076	30.734	
C	 0.0949242586	 1.6016965942	-0.0227949795	-0.388761
C	 0.0533021348	 0.061950502	 0.0475791334	-0.234489
C	 0.6152005289	-0.5409225448	-1.1648875718	 0.343303
C	 1.0778932168	-1.0151860892	-2.1673140547	-0.48984
C	 0.7481065111	-0.4743543154	 1.2769357372	 0.35174
N	 1.8001629311	 0.1134864873	 1.8257950573	-0.264889
N	 2.0818848945	-0.7133422264	 2.8602843215	-0.174713
C	 1.2066776546	-1.7367350499	 2.8924562401	 0.013586
N	 0.3435358104	-1.6194117007	 1.9039588754	-0.298534
H	 1.126844892	 1.9548620762	-0.0661423174	 0.146416
H	-0.4328588777	 1.9494095871	-0.9138923113	 0.122407
H	-0.380158982	 2.0326532039	 0.862616568	 0.118732
H	-0.9910614445	-0.2635135055	 0.1279102416	 0.128098
H	 1.4850447042	-1.4446110813	-3.0487900778	 0.195163
H	 2.8524309229	-0.5049316391	 3.4737805044	 0.283288
H	 1.2343615646	-2.5188482285	 3.6362268236	 0.148493
15.544	104.3569	186.7334	211.9848	230.0356	313.6202	402.5874	457.2469	544.9248	549.29	619.841	634.9478	682.1998	699.1973	805.2779	855.9668	874.1444	986.4584	998.1006	1028.2607	1081.7875	1107.9718	1117.4457	1179.793	1250.9908	1307.7703	1320.7463	1374.7521	1407.1227	1471.0291	1473.2856	1490.9079	1500.7927	1553.6033	2237.1185	3038.3427	3053.2314	3128.0013	3142.9841	3259.4842	3505.9938	3664.6607
CC(C#C)C1=NNC=N1	C[C@@H](C#C)c1n[nH]cn1	
InChI=1S/C6H7N3/c1-3-5(2)6-7-4-8-9-6/h1,4-5H,2H3,(H,7,8,9)	InChI=1S/C6H7N3/c1-3-5(2)6-7-4-8-9-6/h1,4-5H,2H3,(H,7,8,9)/t5-/m0/s1
