17
gdb 56124	4.81237	0.7026	0.61892	3.3778	73.48	-0.2398	-0.0675	0.1723	1722.6725	0.132744	-455.177704	-455.167556	-455.166612	-455.214782	34.303	
C	-0.1142202934	 1.4232413478	 0.0228542045	-0.477359
C	-0.0636357694	-0.087167287	 0.0180727104	 0.372155
O	-0.176503298	-0.7508410052	 1.0252264881	-0.299162
C	 0.1430770492	-0.7560761766	-1.3345528961	-0.22893
N	 0.236709437	-2.1775581252	-1.1644080681	-0.328455
C	 0.1929188757	-3.0332410392	-2.221702461	 0.290748
N	 0.1753626882	-2.6348993451	-3.4382636912	-0.524391
C	 0.184883273	-4.4949766185	-1.8269567036	 0.107001
O	 0.1540132643	-5.3834755335	-2.6362110688	-0.234672
H	 0.854467538	 1.8291499543	-0.2902942121	 0.152382
H	-0.8582160957	 1.7874587746	-0.6935035643	 0.148671
H	-0.3524611761	 1.7829611411	 1.0240124063	 0.151879
H	-0.6863812936	-0.4880552613	-2.0069271346	 0.149157
H	 1.0429942447	-0.3446994261	-1.8149906523	 0.142724
H	 0.1000929269	-2.5014655771	-0.2170941768	 0.257546
H	 0.159802494	-3.4588011062	-4.0422712122	 0.234087
H	 0.208950725	-4.703640337	-0.7335426281	 0.08662
28.6197	49.645	95.6647	106.8147	136.2163	203.7835	268.4792	275.7706	353.6186	429.3487	481.4979	496.4373	586.4926	600.6568	734.0988	831.9972	847.0385	881.2156	945.8565	979.5221	1026.7247	1087.9859	1118.8968	1188.1944	1213.7685	1237.7643	1294.8378	1372.7052	1390.0788	1430.5653	1461.3968	1474.7923	1485.3805	1543.5704	1698.0944	1808.4591	1834.5648	2880.455	3001.0556	3017.2821	3041.6282	3102.605	3158.574	3469.6956	3595.8608
CC(=O)CNC(=N)C=O	CC(=O)CNC(=N)C=O	
InChI=1S/C5H8N2O2/c1-4(9)2-7-5(6)3-8/h3H,2H2,1H3,(H2,6,7)	InChI=1S/C5H8N2O2/c1-4(9)2-7-5(6)3-8/h3H,2H2,1H3,(H2,6,7)
