22
gdb 78228	2.29002	1.50859	1.23299	1.1596	82.25	-0.2229	0.0716	0.2945	1153.8703	0.191869	-404.293599	-404.283741	-404.282797	-404.327294	37.879	
C	 0.2926411518	 1.6968563278	-0.611692703	-0.316622
N	 0.4334771265	 0.2738056196	-0.3427858955	-0.083805
C	 1.6763121662	-0.4486268817	-0.3828635258	-0.110245
C	 0.8657093248	-0.3484185196	 0.8865836415	-0.079141
C	 2.0620733211	 0.3008568519	 1.643369671	 0.270483
C	 1.8451678429	 1.629633456	 2.3690705847	-0.459695
C	 2.6417990689	-0.7326970601	 2.6169801996	-0.410591
C	 2.8505567669	 0.3165471762	 0.2846748092	 0.053303
O	 4.0624617077	-0.4048325139	 0.3576716603	-0.427882
H	 1.1723228059	 2.3148309291	-0.3910840794	 0.109838
H	 0.0601311343	 1.8200668342	-1.6748812897	 0.120334
H	-0.553082188	 2.0855456502	-0.0365462132	 0.124761
H	 1.7995658206	-1.2805903232	-1.0712195855	 0.088435
H	 0.2033457592	-1.0829536211	 1.3375615924	 0.085821
H	 1.1299225311	 1.5049793397	 3.1901700004	 0.114136
H	 2.785794498	 1.9857899863	 2.8051853617	 0.116075
H	 1.4623467867	 2.4162465109	 1.7166959176	 0.112346
H	 2.7853384022	-1.7043213093	 2.1399956168	 0.123081
H	 3.6111005981	-0.4056082475	 3.0029375811	 0.120835
H	 1.9603025727	-0.8608262091	 3.4655085435	 0.102785
H	 3.0286840235	 1.3226833567	-0.1205411954	 0.061049
H	 4.4334369888	-0.445785343	-0.5294915423	 0.284698
128.9837	168.9349	184.8409	192.3422	230.5615	243.4586	258.5763	293.563	319.5986	339.9878	375.8286	434.2955	553.7	591.4033	628.9013	737.4345	805.7341	839.7084	901.5285	944.5038	953.6899	966.0051	991.4917	1024.7168	1047.9951	1078.1293	1108.1563	1148.4201	1156.013	1185.7868	1195.4598	1225.8435	1250.9935	1265.9664	1280.7544	1320.3917	1380.0738	1398.8326	1410.6098	1434.6567	1454.1795	1480.0828	1483.5747	1489.1654	1496.8002	1508.8998	1513.469	2987.9232	3013.0524	3029.2946	3037.6165	3071.1377	3085.7786	3103.4088	3105.7127	3129.8658	3130.8007	3136.2181	3148.521	3817.205
CN1C2C1C(C)(C)C2O	CN1[C@@H]2[C@H]1C(C)(C)[C@H]2O	
InChI=1S/C7H13NO/c1-7(2)5-4(6(7)9)8(5)3/h4-6,9H,1-3H3	InChI=1S/C7H13NO/c1-7(2)5-4(6(7)9)8(5)3/h4-6,9H,1-3H3/t4-,5+,6+,8?/m1/s1
