21
gdb 87003	4.05954	0.7046	0.64289	4.2295	80.9	-0.2751	0.0112	0.2863	1762.1856	0.181382	-424.244259	-424.234573	-424.233628	-424.280321	34.667	
C	 0.1995757439	 1.5526974331	 0.2895946832	-0.408066
C	 0.1521609247	 0.0358660501	 0.2035307489	 0.06166
C	 0.9716573779	-0.6851694046	-0.9055213189	-0.261203
C	 1.3156945841	-1.7956489791	 0.1258081108	 0.038899
C	 2.7158803225	-2.3720852779	 0.0986156493	-0.114919
O	 2.8824489121	-3.3422348546	 1.1447412351	-0.176231
C	 3.7006363978	-3.0457964505	 2.1692787349	 0.174826
O	 3.8711651967	-3.7783237727	 3.0969502227	-0.277252
C	 0.9235705186	-0.8076184166	 1.2589254065	-0.24723
H	 1.2342007378	 1.9122990508	 0.3322319919	 0.109702
H	-0.278706067	 2.0165069647	-0.5803955841	 0.116537
H	-0.3161420392	 1.9162536429	 1.1853727491	 0.118231
H	-0.8896782506	-0.3012583578	 0.1604664041	 0.077224
H	 0.4561244392	-0.98006567	-1.8225797065	 0.102037
H	 1.8607585335	-0.1039078208	-1.1783350517	 0.095388
H	 0.5939454118	-2.616218005	 0.0666023221	 0.090565
H	 2.9093763891	-2.8943912634	-0.844422889	 0.122586
H	 3.4664459341	-1.5766454157	 0.2057543283	 0.103568
H	 4.1961874114	-2.0614394269	 2.0508415485	 0.073142
H	 1.7980324832	-0.2624314881	 1.6346313628	 0.091542
H	 0.3672976382	-1.2011758079	 2.1122360921	 0.108994
36.5774	58.6015	91.5494	150.2713	195.0939	243.6017	302.5773	363.0381	370.6204	394.8063	432.1842	603.6947	674.1799	780.5125	815.2701	887.3847	897.3454	936.7757	953.1975	983.8915	1028.9252	1045.2129	1063.4357	1089.3468	1131.3905	1142.1053	1153.1897	1211.1365	1234.1408	1250.4812	1261.5026	1271.4852	1295.2593	1316.303	1365.5433	1380.9833	1405.0928	1413.9184	1434.749	1476.9837	1494.2218	1496.2794	1497.6234	1506.8742	1865.0226	2937.2511	3010.6018	3022.708	3032.4616	3034.1988	3043.4485	3060.6743	3077.6531	3090.6937	3092.7147	3102.3392	3110.3283
CC1CC(COC=O)C1	C[C@H]1C[C@@H](COC=O)C1	
InChI=1S/C7H12O2/c1-6-2-7(3-6)4-9-5-8/h5-7H,2-4H2,1H3	InChI=1S/C7H12O2/c1-6-2-7(3-6)4-9-5-8/h5-7H,2-4H2,1H3/t6-,7+
