17
gdb 85270	2.85002	1.34776	1.00492	3.5312	68.95	-0.2429	-0.0371	0.2058	1156.2127	0.134981	-458.964795	-458.956584	-458.95564	-458.997774	31.106	
O	-0.0708678481	 1.4054973414	-0.0284488441	-0.426751
C	 0.0134594793	-0.0055390553	 0.0061027201	 0.107543
C	 0.6210541477	-0.5820013383	 1.3018679824	-0.368083
C	-0.0264292443	-1.9556115897	 1.4587597489	 0.344127
O	 0.3460807454	-2.8691007523	 2.1468326346	-0.311893
C	-1.2499135395	-1.9771379811	 0.5523841825	 0.345247
C	-1.6394397807	-3.2460525777	-0.0946236821	-0.234798
O	-2.3834256167	-2.7154429768	 0.9938207592	-0.265046
C	-1.4092566835	-0.5908948541	-0.039789166	-0.331783
H	 0.8222030843	 1.7621294653	-0.0690862814	 0.286623
H	 0.5856923386	-0.3792832761	-0.8576385482	 0.07899
H	 1.711801071	-0.6364609053	 1.328800267	 0.123829
H	 0.291745026	 0.0415376158	 2.1446075607	 0.145243
H	-2.1283380762	-3.2061464386	-1.0673439171	 0.120668
H	-1.0696910775	-4.1460039371	 0.1289669566	 0.136442
H	-2.0494375856	 0.0159758249	 0.6114434637	 0.133025
H	-1.8412316102	-0.5810545551	-1.0421058867	 0.116618
74.9639	113.7899	249.1371	259.0903	286.252	318.3479	360.644	441.3195	473.3384	498.5451	577.0262	635.2665	702.2685	833.0199	862.7541	877.0314	920.8825	955.9698	1005.2343	1036.7455	1086.003	1108.0882	1133.7757	1153.4597	1170.935	1199.9117	1232.6386	1235.6442	1282.0525	1294.013	1363.8548	1409.2258	1429.7782	1450.5507	1492.6976	1508.5949	1850.1806	2975.1952	3030.4657	3050.359	3083.2155	3110.0188	3115.9123	3182.5925	3819.0996
OC1CC(=O)C2(CO2)C1	O[C@H]1CC(=O)[C@]2(CO2)C1	
InChI=1S/C6H8O3/c7-4-1-5(8)6(2-4)3-9-6/h4,7H,1-3H2	InChI=1S/C6H8O3/c7-4-1-5(8)6(2-4)3-9-6/h4,7H,1-3H2/t4-,6+/m0/s1
