17
gdb 50140	3.84295	1.14039	0.95109	5.2395	79.72	-0.2477	-0.0195	0.2281	1235.1529	0.136188	-418.012521	-418.004079	-418.003135	-418.046049	30.629	
N	 0.0493957263	 1.3003325933	 0.006832426	-0.415305
C	-0.0206275378	 0.0330179041	 0.0045718732	 0.072885
N	-1.2195314123	-0.6531376577	 0.0119572013	-0.119417
C	-1.4707048146	-2.108321262	 0.0105773598	-0.26083
C	-2.9675608419	-1.7678308411	 0.0225514404	 0.175703
C	-4.1164408851	-2.3877328048	-0.7221810819	-0.312034
C	-4.10518768	-2.3911748687	 0.7815481257	-0.312034
C	-2.5899676095	-0.3045677436	 0.0230987921	 0.410171
O	-3.171076538	 0.7396805556	 0.0297767316	-0.34209
H	 1.0244202241	 1.5946444702	 0.0001063322	 0.229486
H	 0.8321805871	-0.6591550133	-0.0034445857	 0.094766
H	-1.1079853643	-2.6137394791	-0.8902665106	 0.122914
H	-1.0945461785	-2.6177617995	 0.9036103458	 0.122914
H	-4.7914817358	-1.7074320941	-1.2301505155	 0.142462
H	-3.9317265422	-3.3231329596	-1.2395247239	 0.123975
H	-3.9127828763	-3.3289265504	 1.2917824261	 0.123973
H	-4.7725255011	-1.7132283093	 1.3026729136	 0.142461
62.6327	149.2255	162.9571	169.6567	218.499	221.0175	345.1616	425.2972	527.5488	608.3808	726.4695	761.4897	794.4111	812.3756	850.8348	864.1945	952.7155	959.9841	1019.9565	1061.6219	1062.0848	1075.579	1091.2242	1096.0915	1152.4021	1194.9505	1208.4906	1246.5564	1267.2922	1390.7928	1403.5022	1432.7298	1458.4627	1501.4736	1518.8562	1717.121	1898.8048	3025.0684	3038.2235	3087.0498	3133.2041	3135.2463	3216.4188	3230.5206	3503.0402
N=CN1CC2(CC2)C1=O	[NH][CH]N1CC2(CC2)C1=O	
InChI=1S/C6H8N2O/c7-4-8-3-6(1-2-6)5(8)9/h4,7H,1-3H2	InChI=1S/C6H8N2O/c7-4-8-3-6(1-2-6)5(8)9/h4,7H,1-3H2
