19
gdb 133840	3.02495	2.02899	1.88358	2.7836	82.16	-0.1878	0.0085	0.1963	856.3923	0.159954	-348.639983	-348.633045	-348.632101	-348.670583	29.361	
C	 1.691747794	-0.2736373595	 0.0335175224	-0.511975
C	 3.0830817662	 0.2688502835	 0.1583553366	 0.371078
C	 4.0651786243	-0.1195142608	 1.2149198219	-0.12955
C	 4.3167889581	-0.7317298439	-0.1515289337	-0.097098
C	 4.4287992089	 0.7857366667	-1.3674402343	-0.158344
C	 5.4428633376	 0.2940222617	-0.4099310553	-0.054008
C	 5.1845166089	 0.9337209922	 1.0150892906	-0.094033
C	 4.4328831844	 2.2259061845	 0.6731751538	-0.235335
C	 3.5426571734	 1.6053472875	-0.4231118868	-0.102464
H	 1.6279949489	-1.2988724969	 0.4134848361	 0.119513
H	 1.3703854175	-0.2794951544	-1.0124404556	 0.144576
H	 0.9852923367	 0.3414652753	 0.602219411	 0.126411
H	 3.7864365094	-0.6639395255	 2.1075809047	 0.098234
H	 4.1760649937	-1.7299345518	-0.5359775297	 0.109924
H	 6.4110510911	-0.0703038634	-0.7332613212	 0.088296
H	 5.9965970576	 0.9631616083	 1.7377790713	 0.066712
H	 5.0902123817	 3.0114704669	 0.2845454642	 0.099722
H	 3.8600362998	 2.6236510729	 1.5190716232	 0.092532
H	 2.7718966377	 2.2201278466	-0.8814931291	 0.065809
188.217	220.007	273.2517	312.445	398.5062	406.127	551.3702	645.9598	668.5432	703.8062	782.2385	822.4045	850.9431	857.3674	885.6761	903.8975	910.3711	937.3941	947.2983	965.5416	994.2315	1002.1083	1024.6523	1061.2682	1076.5729	1104.0114	1106.5486	1146.9543	1172.0137	1193.5455	1196.0799	1220.3548	1261.6193	1270.2267	1296.0308	1324.9772	1392.041	1419.4746	1481.252	1486.1237	1496.1646	3028.4254	3035.2813	3087.2755	3092.5155	3105.8865	3140.024	3145.2961	3183.1849	3200.4443	3235.7488
CC12C3C1C1=CC3CC21	C[C@@]12[C@H]3[C@@H]1[C@H]1[C][C@@H]2C[C@@H]31	
InChI=1S/C9H10/c1-9-6-3-4-2-5(6)8(9)7(4)9/h2,4,6-8H,3H2,1H3	InChI=1S/C9H10/c1-9-4-2-5-6(3-4)8(9)7(5)9/h4-8H,2H2,1H3/t4-,5+,6-,7+,8-,9+/m0/s1
