16
gdb 133632	3.96659	0.71241	0.69913	2.3795	58.16	-0.2757	0.0927	0.3684	1565.2105	0.11977	-569.378602	-569.369829	-569.368885	-569.413735	30.927	
F	-0.1713331376	 0.1461065818	-0.1926632887	-0.087865
C	 0.0013788037	 1.4568427448	 0.0565267937	 0.28281
F	 1.3255430162	 1.6863000043	 0.0625824364	-0.085128
F	-0.5178539263	 2.1320555582	-0.9798308728	-0.077992
C	-0.6460213227	 1.8673158666	 1.3610230665	-0.324129
C	-0.0717728623	 1.1154248342	 2.5685061647	-0.232905
C	-0.7342526959	 1.5478599188	 3.8532465781	 0.086948
C	 0.0161570992	 1.725969902	 5.1012707259	-0.178435
O	-0.3956329754	 2.8545319788	 4.3268397833	-0.235269
H	-0.4986813222	 2.9441473093	 1.481955867	 0.148781
H	-1.7212233792	 1.6879090014	 1.2591852282	 0.128929
H	-0.2097367146	 0.0366237192	 2.4327247302	 0.120438
H	 1.0042856867	 1.3031919524	 2.6346026189	 0.122747
H	-1.7988704049	 1.3167712761	 3.9319429739	 0.094865
H	-0.4869142514	 1.6070562354	 6.0596812342	 0.11874
H	 1.0882023566	 1.5334952768	 5.1122408402	 0.117465
50.952	61.3194	115.1573	135.3662	226.3715	325.1617	360.5219	437.944	452.5127	540.1171	562.3863	653.1637	770.1202	809.9345	846.6393	880.2359	952.6586	983.9833	1052.7653	1072.5505	1097.7854	1158.908	1162.6242	1182.5111	1191.1886	1261.2506	1269.3961	1293.8968	1316.3627	1338.2538	1403.5561	1449.705	1473.4153	1489.2093	1531.0141	3045.975	3063.1572	3080.6588	3085.4815	3097.8792	3119.2732	3171.6896
FC(F)(F)CCC1CO1	FC(F)(F)CC[C@H]1CO1	
InChI=1S/C5H7F3O/c6-5(7,8)2-1-4-3-9-4/h4H,1-3H2	InChI=1S/C5H7F3O/c6-5(7,8)2-1-4-3-9-4/h4H,1-3H2/t4-/m0/s1
