15
gdb 10093	2.30035	1.71695	1.05138	2.8285	62.82	-0.2704	-0.0285	0.2419	1088.6831	0.116224	-436.946861	-436.937752	-436.936808	-436.981639	30.267	
C	-2.0625762516	 0.3716276879	-1.328452516	-0.337366
N	-1.1532915791	-0.6859660811	-0.9221765664	-0.257202
C	 0.0917155286	-0.5746950361	-1.0769446089	 0.376983
C	 1.014618403	-1.6903471542	-0.6329725724	-0.173745
O	 1.7649633269	-1.3529403126	 0.5297481704	-0.401316
O	 0.6488556468	 0.5403066995	-1.6968817045	-0.217603
C	 1.9441223017	 0.9372065146	-1.4817136722	 0.135327
O	 2.419188684	 1.8194853084	-2.1259435329	-0.250604
H	-2.7244126685	 0.5990086842	-0.4862905616	 0.134548
H	-1.5731418956	 1.2895976944	-1.666364305	 0.138193
H	-2.6994274347	-0.0096750063	-2.1344288731	 0.14086
H	 0.3900532927	-2.574212296	-0.4725496029	 0.138158
H	 1.7504597515	-1.9148610314	-1.4118057065	 0.134445
H	 1.1381986479	-1.2229433133	 1.2504344326	 0.296956
H	 2.4393041464	 0.3876880922	-0.6700201706	 0.142363
65.7309	72.5897	101.9917	143.4817	180.5384	216.5812	287.6301	348.4364	390.3153	443.4423	547.9864	593.9663	736.0285	882.9696	949.583	1025.2088	1071.101	1084.8235	1107.1638	1129.8168	1147.9148	1207.5482	1254.7489	1370.7969	1415.0135	1433.1422	1435.8228	1490.2059	1493.0782	1495.0758	1767.264	1865.7083	3030.0853	3051.4786	3067.6484	3090.0945	3105.0173	3111.3611	3805.0711
CN=C(CO)OC=O	CN=C(CO)OC=O	
InChI=1S/C4H7NO3/c1-5-4(2-6)8-3-7/h3,6H,2H2,1H3	InChI=1S/C4H7NO3/c1-5-4(2-6)8-3-7/h3,6H,2H2,1H3
