23
gdb 119371	3.03024	0.95448	0.84081	1.1661	86.65	-0.2627	0.0809	0.3436	1478.5629	0.205634	-388.24049	-388.230953	-388.230009	-388.275169	36.173	
C	-0.1637137733	 1.5737402021	 0.0145724368	-0.445242
C	 0.0256994529	 0.0640444997	 0.0327757505	 0.019468
C	 1.1819699111	-0.6394231984	-0.7465269864	-0.062388
C	 2.1690654431	-0.1485806765	 0.3487373167	-0.267914
C	 0.9032560077	-0.6507757761	 1.1215017523	 0.348052
C	 0.6599513551	-0.6483763395	 2.6106140256	-0.324837
C	 1.6816116394	-1.4622953555	 3.3968401552	-0.073093
O	 1.3423351632	-1.3710639016	 4.7730677081	-0.419245
C	 0.92419485	-1.8790101935	 0.1536373601	-0.258128
H	 0.766582651	 2.1325553782	 0.143822942	 0.116332
H	-0.6081139232	 1.8903730649	-0.9357151511	 0.115894
H	-0.8486939422	 1.8844664596	 0.8116107398	 0.117922
H	-0.9457451389	-0.4261310559	-0.1115056933	 0.056609
H	 1.3453851318	-0.6375429826	-1.8254223676	 0.064992
H	 3.0798812986	-0.7418494992	 0.4739396768	 0.084507
H	 2.3991485099	 0.917359686	 0.3903110477	 0.08954
H	 0.6729125502	 0.3814535085	 2.9893736514	 0.106215
H	-0.3400108305	-1.0474628541	 2.8230306479	 0.104525
H	 1.6683939665	-2.5085968264	 3.0520000944	 0.087574
H	 2.6939881134	-1.0698177515	 3.2093753744	 0.087332
H	 1.9819355336	-1.8847440502	 5.2746000825	 0.284025
H	-0.0250465865	-2.404658161	 0.0106604522	 0.084738
H	 1.7569193774	-2.5792220372	 0.2659654942	 0.083122
70.341	89.1749	115.9288	173.1145	220.3479	262.714	304.3915	346.7582	353.6535	418.7204	544.9226	582.2244	694.9831	759.68	777.7111	803.3153	823.3395	913.2676	925.5079	948.257	996.7905	1007.2907	1019.8589	1035.9191	1054.2361	1073.0756	1118.8828	1119.8391	1142.9756	1149.9476	1164.1888	1180.2178	1215.6986	1228.7719	1241.8476	1251.2597	1260.2455	1302.371	1316.1023	1361.6916	1405.6899	1423.5985	1461.0386	1485.3168	1490.8932	1495.8056	1511.2924	1528.1289	1544.9819	2966.0756	2991.9301	3017.4738	3023.9745	3032.515	3040.6325	3054.8688	3064.8139	3087.021	3098.1767	3104.4399	3110.9047	3124.3426	3829.4493
CC1C2CC1(CCO)C2	C[C@H]1[C@H]2C[C@]1(CCO)C2	
InChI=1S/C8H14O/c1-6-7-4-8(6,5-7)2-3-9/h6-7,9H,2-5H2,1H3	InChI=1S/C8H14O/c1-6-7-4-8(6,5-7)2-3-9/h6-7,9H,2-5H2,1H3/t6-,7-,8+/m0/s1
