19
gdb 65780	2.78875	1.20097	1.06654	4.4008	71.9	-0.2622	0.0124	0.2746	1210.8119	0.15846	-460.207047	-460.198086	-460.197142	-460.241271	32.79	
C	-0.1162788289	 1.7549031834	-0.036823929	-0.440137
C	 0.0912569758	 0.2493479296	-0.031359389	 0.471714
C	 0.8033098885	-0.3364996074	-1.275386405	-0.287011
C	 1.9461770761	-1.1952330978	-0.6891973525	-0.21546
C	 1.5394533238	-1.3348400182	 0.7812501645	-0.097509
O	 0.8658547375	-0.1060433291	 1.0802777276	-0.263245
O	-1.206516163	-0.4252586246	 0.0139626503	-0.245769
C	-1.9058095501	-0.387113588	 1.1664637455	 0.153571
O	-2.9968789151	-0.8701278302	 1.2621226525	-0.284559
H	 0.845456408	 2.2602181572	-0.153789882	 0.130574
H	-0.7734724806	 2.037657963	-0.8625130768	 0.138859
H	-0.5677118602	 2.0887442408	 0.9010944864	 0.13205
H	 0.0878457118	-0.9286266064	-1.8471174927	 0.135737
H	 1.1770496002	 0.459751873	-1.9219782496	 0.113886
H	 2.0520185138	-2.160746223	-1.1880991667	 0.114635
H	 2.902360441	-0.6702128513	-0.7646967947	 0.114162
H	 0.8616577922	-2.1855612732	 0.9326745836	 0.113178
H	 2.3769627751	-1.4247008629	 1.4756510865	 0.116341
H	-1.367215626	 0.1033253452	 1.9930659411	 0.098984
50.9517	105.7683	164.2367	173.5828	230.2161	250.892	325.3289	361.3607	396.1363	513.2081	572.0494	630.8399	700.1441	801.5706	857.9565	894.1929	914.0943	926.8977	936.2026	1010.3525	1040.5542	1053.6977	1065.6636	1113.4266	1176.1011	1189.5526	1210.3741	1233.37	1269.1135	1277.9026	1325.5174	1346.0093	1392.0276	1412.7811	1429.3101	1484.0673	1485.3839	1490.8832	1501.1893	1520.4826	1850.957	3014.3115	3018.8785	3053.6384	3065.1071	3084.3338	3109.8526	3118.361	3130.1372	3137.5816	3139.1586
CC1(CCCO1)OC=O	C[C@]1(CCCO1)OC=O	
InChI=1S/C6H10O3/c1-6(9-5-7)3-2-4-8-6/h5H,2-4H2,1H3	InChI=1S/C6H10O3/c1-6(9-5-7)3-2-4-8-6/h5H,2-4H2,1H3/t6-/m1/s1
