15
gdb 42702	3.26848	2.07001	1.9373	3.1787	67.54	-0.2258	-0.0296	0.1963	769.9402	0.115299	-416.713149	-416.707499	-416.706554	-416.743014	23.607	
O	-0.0128344613	 0.06547258	 0.3280980238	-0.30358
C	-0.0717674817	 1.2269897085	 0.0674119031	 0.41992
C	-1.1509249128	 2.2810463485	-0.1285044113	-0.158003
C	-0.0179542858	 3.1699868672	-0.7145297803	-0.001316
C	-0.0286131405	 4.0293132338	 0.5383178183	-0.005242
C	 1.0085667116	 3.076546412	 1.2011725241	-0.031352
C	-0.1326973429	 2.6678849962	 2.1447932773	-0.186904
N	-1.1467838512	 3.176567143	 1.1437699153	-0.168856
N	 0.9940858236	 2.2175008521	-0.0888782698	-0.214212
H	-2.1506526548	 2.0783569179	-0.5115634379	 0.098778
H	 0.1162613253	 3.4575795528	-1.7546336087	 0.0972
H	-0.0865767865	 5.1104596932	 0.6476947499	 0.093283
H	 2.0102871105	 3.3226491804	 1.5550481486	 0.096209
H	-0.2413326738	 1.6286061423	 2.4640884437	 0.142744
H	-0.1676218197	 3.3267742223	 3.0184535139	 0.12133
150.8269	317.2095	457.3511	499.0461	615.9845	640.9944	700.9958	770.0616	813.4194	818.0099	831.4073	871.9546	895.7123	911.301	931.636	946.865	983.968	998.5811	1018.8266	1049.8642	1081.2378	1165.3634	1168.8751	1182.3664	1190.0023	1214.2716	1224.8561	1252.4069	1269.3364	1292.7094	1294.7097	1492.6773	1896.3677	3052.3485	3101.9789	3115.2889	3115.9916	3130.5227	3144.9756
O=C1C2C3C4C(CN24)N13	O=C1[C@@H]2[C@H]3[C@@H]4[C@@H](CN24)N13	
InChI=1S/C6H6N2O/c9-6-5-4-3-2(8(4)6)1-7(3)5/h2-5H,1H2	InChI=1S/C6H6N2O/c9-6-5-4-3-2(8(4)6)1-7(3)5/h2-5H,1H2/t2-,3+,4-,5+/m1/s1
