17
gdb 92711	2.32162	1.82532	1.13312	1.7473	69.76	-0.2359	0.0101	0.246	1055.2409	0.136923	-455.13549	-455.127299	-455.126355	-455.16806	31.673	
N	 0.0710790661	 1.3389843375	 0.3723863104	-0.578928
C	-0.0258677792	 0.0002045665	 0.1028337374	 0.309885
N	-1.1160310265	-0.6685857718	 0.0223064787	-0.297765
C	-0.7819945211	-2.0485106917	-0.3507026933	-0.206487
C	 0.7488310182	-2.2337701011	-0.1536064418	 0.023808
O	 1.3871573681	-3.0999578982	-1.0674894006	-0.426833
C	 1.2206681631	-0.7803811761	-0.167665843	 0.334779
C	 2.3594450909	-0.2775124109	-0.9500703594	-0.251811
O	 2.4304212193	-0.3741780126	 0.4777192846	-0.289989
H	 0.9273182638	 1.6097728404	 0.8353604096	 0.263704
H	-0.7656494218	 1.7630018751	 0.7457979199	 0.259984
H	-1.3705205684	-2.7549058639	 0.2425768298	 0.114439
H	-1.0433997158	-2.2326454388	-1.4046471304	 0.093537
H	 0.9587573226	-2.6533621238	 0.8358249042	 0.11551
H	 1.1034159434	-2.8551731938	-1.9554780054	 0.279974
H	 2.9698151285	-1.0000650066	-1.487837052	 0.131771
H	 2.3358290587	 0.7334411499	-1.3522618589	 0.124422
72.5449	233.1677	238.7107	263.9877	269.1513	306.0572	329.9648	463.5014	498.2466	513.3952	549.2901	608.2043	677.2678	704.8275	731.7451	857.8419	883.2257	938.0726	992.0826	1021.1683	1026.9337	1096.7879	1135.5823	1150.4379	1167.5023	1187.7322	1201.0798	1284.8639	1291.6273	1340.3916	1381.4908	1430.8483	1453.9766	1501.9497	1514.0559	1619.7581	1726.0023	2984.417	3060.7432	3077.2523	3092.9101	3189.6649	3561.5624	3673.9684	3798.4619
NC1=NCC(O)C11CO1	N[C]1[N]C[C@@H](O)[C@]21CO2	
InChI=1S/C5H8N2O2/c6-4-5(2-9-5)3(8)1-7-4/h3,8H,1-2H2,(H2,6,7)	InChI=1S/C5H8N2O2/c6-4-5(2-9-5)3(8)1-7-4/h3,8H,1-2H2,(H2,6,7)/t3-,5+/m1/s1
