17
gdb 82368	2.47649	1.66987	1.35945	2.1958	66.83	-0.2449	-0.0488	0.1962	987.0211	0.13535	-458.945507	-458.937602	-458.936658	-458.978296	30.189	
O	 0.3174657053	 1.1863019624	 0.6338281472	-0.441402
C	-0.0623181841	-0.0585516315	 0.1152708773	 0.124618
C	-1.5087510684	-0.2221658787	-0.345745704	-0.102732
C	-1.8928191796	 0.3152579878	-1.7118505232	-0.343963
C	-1.4440754491	-1.1116899711	-1.5460790159	 0.112627
O	-0.0983213328	-1.4439112663	-1.8479091728	-0.260527
C	 0.7427184488	-0.5477984927	-1.137333856	-0.074721
C	 1.2131120034	 0.5453205192	-2.0920538235	 0.147738
O	 1.5733974967	 1.6553266341	-1.7748658994	-0.262949
H	 0.7058883405	 1.7157487822	-0.0776717411	 0.302037
H	 0.0976089163	-0.7904794532	 0.9169599181	 0.095566
H	-2.2682694077	-0.3301590351	 0.4186769948	 0.100994
H	-2.9497551625	 0.4792679551	-1.8925165554	 0.124341
H	-1.2522626514	 1.0351606637	-2.2110125703	 0.127092
H	-2.1085554328	-1.9438313937	-1.7411497312	 0.10975
H	 1.6458214554	-1.0959211865	-0.8365236679	 0.126627
H	 1.2084160017	 0.2170498545	-3.1535036066	 0.114904
54.7993	132.419	192.8497	252.794	350.771	401.2924	426.7718	436.9334	513.4042	600.3805	668.6286	713.7932	756.7453	811.2061	825.6428	902.2154	962.77	987.7142	1026.1782	1042.0118	1065.7795	1069.9626	1097.7866	1111.4438	1141.1788	1157.5504	1203.6562	1237.3979	1290.0741	1324.4004	1339.8967	1351.98	1397.5641	1400.1157	1466.7553	1490.4919	1803.7095	2916.031	3018.414	3031.7266	3132.6721	3185.7026	3197.2276	3215.6877	3705.3232
OC1C2CC2OC1C=O	O[C@H]1[C@H]2C[C@H]2O[C@H]1C=O	
InChI=1S/C6H8O3/c7-2-5-6(8)3-1-4(3)9-5/h2-6,8H,1H2	InChI=1S/C6H8O3/c7-2-5-6(8)3-1-4(3)9-5/h2-6,8H,1H2/t3-,4+,5-,6-/m0/s1
