15
gdb 123505	3.97746	1.74395	1.21237	1.455	84.78	-0.1996	-0.0431	0.1565	953.6736	0.117186	-379.725562	-379.719567	-379.718623	-379.755693	24.871	
C	 0.0009313395	 1.3972555249	 0.0099920969	-0.139776
C	 1.3232013636	 1.8170814017	-0.0004670536	-0.090805
N	 2.1088641286	 0.7071865699	-0.0141952945	-0.001647
N	 3.458635877	 0.7171435086	-0.0272076584	-0.238656
C	 4.0234857469	-0.4633979139	-0.0391089381	 0.015367
C	 3.3280143672	-1.7031471185	-0.0391273764	-0.144782
C	 1.9588944084	-1.6868636649	-0.0257817958	-0.199437
C	 1.292334561	-0.4494228781	-0.0125903089	 0.393709
C	-0.0271932243	-0.0095342396	 0.0025166352	-0.285573
H	-0.8548234815	 2.0554624352	 0.0218752983	 0.107466
H	 1.771810902	 2.7962198447	 0.0005831875	 0.133054
H	 5.1085686807	-0.4397623341	-0.0494812954	 0.12268
H	 3.8863753145	-2.6304445378	-0.0495940869	 0.106989
H	 1.3736660427	-2.5998598293	-0.0251042247	 0.117734
H	-0.8983192664	-0.646091729	 0.007431595	 0.103677
211.1693	232.8185	422.9962	429.8202	577.8953	593.5288	620.924	624.0637	723.0994	739.8845	751.8978	767.4414	806.3962	868.6625	886.3349	918.6487	948.8457	974.5545	1040.7761	1059.1546	1086.6597	1142.8186	1223.6968	1243.3389	1305.8519	1338.8876	1372.4012	1417.4827	1468.5881	1495.6747	1533.2925	1569.116	1663.0766	3182.4272	3193.2522	3217.3032	3242.9257	3257.9016	3285.2056
C1=CN2N=CC=CC2=C1	c1cn2ncccc2c1	
InChI=1S/C7H6N2/c1-3-7-4-2-6-9(7)8-5-1/h1-6H	InChI=1S/C7H6N2/c1-3-7-4-2-6-9(7)8-5-1/h1-6H
