24
gdb 100981	2.332	1.11353	1.0532	1.8439	86.63	-0.2204	0.0769	0.2973	1368.5764	0.214063	-405.510244	-405.499092	-405.498148	-405.546272	40.688	
C	 0.353674695	 1.2570133038	-0.3298666987	-0.235178
O	 0.1482093526	-0.1107842808	-0.0683930992	-0.250816
C	-1.2140814188	-0.4926019976	 0.1030740801	 0.073356
C	-1.9770843871	-0.5026261474	-1.2271756232	-0.420167
C	-1.1768653789	-1.8575592268	 0.7881489331	 0.353381
C	-0.5253725048	-2.9686943623	-0.0136762718	-0.455584
C	-1.0455128301	-1.8640168613	 2.2756241564	-0.292658
N	-2.2826160522	-2.3072419937	 1.6436758191	-0.129007
C	-3.4846856878	-1.5154298453	 1.8521709511	-0.316631
H	 1.433253829	 1.4277840843	-0.3142697606	 0.127069
H	-0.0310115917	 1.5676415733	-1.3121800757	 0.106396
H	-0.1145425395	 1.8926771978	 0.4388236689	 0.100666
H	-1.6945691675	 0.2315879322	 0.7776950953	 0.057739
H	-2.9949233774	-0.877537564	-1.0834952592	 0.123374
H	-2.0530823321	 0.5038917319	-1.6481504038	 0.114977
H	-1.4733155518	-1.1400163143	-1.9584902425	 0.129843
H	 0.4758530316	-2.6687620976	-0.3352303823	 0.131135
H	-0.4502523881	-3.8726189574	 0.594822259	 0.118492
H	-1.1128681678	-3.217755969	-0.9034470691	 0.113268
H	-0.4586886344	-2.6301726169	 2.7771601407	 0.107405
H	-1.0476605465	-0.8965841317	 2.7784477875	 0.098468
H	-3.3206467644	-0.4324571497	 1.9670622264	 0.100137
H	-4.1790856319	-1.6722688078	 1.0200673374	 0.121466
H	-3.9749179952	-1.8714134697	 2.7645634711	 0.12287
65.297	71.2349	143.5391	190.3995	194.0697	204.2795	224.117	236.8868	264.4452	284.5824	337.2151	365.9741	440.4067	463.8473	513.1097	532.0284	727.1953	761.508	855.1113	901.8972	926.54	980.6203	1026.3486	1059.8904	1068.1592	1100.4936	1116.2679	1123.0125	1140.5724	1164.6081	1177.1707	1182.5635	1206.1711	1221.6919	1298.1251	1333.9545	1370.6263	1400.5024	1404.4934	1426.6225	1450.8447	1476.625	1481.7556	1483.858	1490.2656	1494.3692	1500.6675	1504.0968	1508.0001	1514.3849	1517.0509	2969.41	2972.989	2993.2653	3022.9525	3041.9776	3048.1592	3060.9369	3078.6896	3094.1389	3107.9186	3108.4666	3114.7321	3126.7005	3131.0094	3163.85
COC(C)C1(C)CN1C	CO[C@@H](C)[C@@]1(C)CN1C	
InChI=1S/C7H15NO/c1-6(9-4)7(2)5-8(7)3/h6H,5H2,1-4H3	InChI=1S/C7H15NO/c1-6(9-4)7(2)5-8(7)3/h6H,5H2,1-4H3/t6-,7+,8?/m0/s1
