20
gdb 87187	3.62498	0.94028	0.848	6.4564	75.8	-0.2409	0.0327	0.2736	1408.8819	0.17022	-440.31351	-440.30395	-440.303006	-440.348099	35.681	
C	-0.0691267318	 1.5171470352	-0.1605128927	-0.415713
C	-0.0097128847	 0.0088215031	-0.0680406254	-0.032795
C	 1.2736964672	-0.740936892	-0.368261934	-0.324467
C	 0.7422479856	-0.7057175749	 1.0396298372	 0.292334
N	 1.5187641072	 0.0266956653	 2.0360639513	-0.577137
H	 2.1910750286	 0.6536948461	 1.6107078244	 0.24722
H	 0.917294999	 0.5808978563	 2.6402770062	 0.244307
H	 2.1712683465	-1.5070957326	 2.7285438233	 0.312623
C	 0.1384555725	-1.9717209171	 1.6306682382	-0.390734
C	 1.1539738805	-3.002560954	 2.1463239071	 0.404961
O	 2.2185944029	-2.4939876342	 2.7818405128	-0.373022
O	 0.9924586426	-4.187609076	 2.0173069895	-0.333419
H	 0.8547055212	 1.9853761809	 0.193373142	 0.102261
H	-0.2198671235	 1.8380327021	-1.1964223745	 0.131338
H	-0.8949423079	 1.9223475887	 0.4351215739	 0.121504
H	-0.9221117459	-0.4880236412	-0.388935851	 0.093135
H	 1.2265337652	-1.6775370114	-0.9128996177	 0.13282
H	 2.1577729628	-0.1488711922	-0.5889516581	 0.111424
H	-0.5134458782	-1.7038872772	 2.4750174578	 0.121138
H	-0.48895662	-2.481801965	 0.8982078897	 0.132221
71.9937	77.6095	146.0888	171.5184	223.2728	289.0977	302.1489	336.5335	389.0858	414.6921	450.2186	545.5485	577.1361	665.9142	750.7863	809.3085	854.592	889.9689	904.287	925.7505	943.2098	951.1489	978.3126	1018.0867	1049.9891	1083.6587	1123.7856	1156.6048	1180.0395	1197.59	1274.5653	1304.1679	1322.5434	1351.2309	1409.8506	1428.7657	1460.6255	1482.2106	1489.6967	1493.3215	1506.2003	1643.0268	1859.1399	3013.6838	3031.0222	3092.3641	3099.689	3120.6136	3123.0518	3137.8112	3209.9639	3303.3435	3491.0611	3591.9537
CC1CC1([NH3+])CC([O-])=O	C[C@H]1C[C@]1(N)CC(=O)O	
InChI=1S/C6H11NO2/c1-4-2-6(4,7)3-5(8)9/h4H,2-3,7H2,1H3,(H,8,9)	InChI=1S/C6H11NO2/c1-4-2-6(4,7)3-5(8)9/h4H,2-3,7H2,1H3,(H,8,9)/t4-,6-/m0/s1
