16
gdb 42982	2.83794	1.71006	1.27687	3.366	69.02	-0.2432	-0.0413	0.202	978.8004	0.124727	-437.852057	-437.844814	-437.843869	-437.883884	27.975	
O	 0.0698037867	 0.1131578308	 0.3546594601	-0.321374
C	 0.0072885176	 1.2943240405	 0.1329832083	 0.367514
C	-1.2014728571	 2.1099744284	-0.1929974155	-0.152522
C	-1.3853029461	 3.317816108	 0.6767980626	-0.241602
N	-0.7861120885	 3.4635585972	-0.6385343617	-0.100284
C	 0.6978284161	 3.523931907	-0.5956163443	-0.267362
C	 1.192190383	 2.254358824	 0.0824158155	 0.29846
C	 2.2970197555	 2.125995525	 1.0505036438	-0.235214
O	 2.4466066979	 1.7037810394	-0.2989601306	-0.254512
H	-2.0482929764	 1.6381516659	-0.6778549026	 0.124886
H	-2.3859408595	 3.7260584801	 0.7815793944	 0.137065
H	-0.7565887558	 3.4171454084	 1.5599688513	 0.12581
H	 1.0676369435	 3.5453839362	-1.6256886656	 0.138818
H	 1.0139108289	 4.4457392128	-0.0997887391	 0.121899
H	 2.8544043053	 3.0187215243	 1.3326410441	 0.122102
H	 2.2638579888	 1.324053512	 1.7862568495	 0.136315
77.0831	205.9232	252.7099	268.1282	360.0832	374.7427	448.4807	570.5157	612.4219	687.4715	762.2999	775.0974	849.4977	872.5584	887.0841	931.5007	957.9399	994.2895	1037.2868	1081.5267	1107.693	1128.9876	1139.2073	1160.7625	1174.2121	1221.7621	1239.4463	1261.5093	1304.0345	1341.768	1411.8414	1489.7129	1506.9103	1512.3169	1847.6888	3053.7634	3081.0471	3100.3981	3101.6262	3177.4368	3184.4063	3195.7766
O=C1C2CN2CC11CO1	O=C1[C@H]2CN2C[C@]21CO2	
InChI=1S/C6H7NO2/c8-5-4-1-7(4)2-6(5)3-9-6/h4H,1-3H2	InChI=1S/C6H7NO2/c8-5-4-1-7(4)2-6(5)3-9-6/h4H,1-3H2/t4-,6-,7?/m1/s1
