20
gdb 58940	3.36943	1.28181	1.17896	2.1312	77.98	-0.2367	0.0718	0.3084	1134.8741	0.170914	-403.07989	-403.07151	-403.070566	-403.112892	32.677	
C	 0.0735858236	 1.4084019257	-0.2474087441	-0.413706
C	-0.0235115806	-0.0644392489	 0.1524367448	 0.002721
O	 0.6027282765	-0.3155986028	 1.4098038592	-0.426882
C	-1.4472410997	-0.552707799	 0.1537678166	 0.371953
C	-2.5642239157	-0.2299229408	 1.1532793606	-0.313351
C	-3.3711585243	-1.3448697287	 0.43437349	-0.087882
C	-3.5393825547	-0.7611709475	-0.9765845526	-0.146725
N	-2.0577120987	-0.873679548	-1.1894301383	-0.191355
C	-1.9980909105	-1.9025769232	-0.1072071293	-0.111393
H	 1.1171509999	 1.7341984865	-0.2423204511	 0.121714
H	-0.3432151534	 1.5603451006	-1.24684419	 0.137339
H	-0.4872053989	 2.041166823	 0.4523723565	 0.103719
H	 0.5354177651	-0.6688951466	-0.5700558414	 0.097999
H	 0.2440957795	 0.3141629408	 2.0443482648	 0.277742
H	-2.2661997482	-0.5306894651	 2.1611389409	 0.107648
H	-2.9998500438	 0.7759761402	 1.1739836857	 0.09169
H	-4.1590044551	-1.8903029037	 0.9502399773	 0.075376
H	-4.0374720946	-1.4376517309	-1.675931583	 0.109507
H	-3.9550354546	 0.249196164	-1.0758033737	 0.094003
H	-1.5501896318	-2.8818499357	-0.2142923828	 0.099883
61.2048	139.4414	187.1119	261.5324	269.4237	318.936	355.3982	439.4308	484.4553	523.9713	641.3069	730.6055	755.6249	806.5152	849.1672	882.1359	923.8524	937.7688	955.0231	975.9008	995.6224	1008.1841	1016.933	1067.6629	1080.9765	1105.7162	1124.7997	1145.2949	1160.9832	1184.714	1228.8753	1245.8917	1265.7738	1298.341	1314.5521	1341.1989	1395.5398	1404.651	1428.933	1492.849	1493.4232	1497.6873	1512.758	3024.8151	3025.8096	3034.3993	3057.2372	3098.8282	3100.2402	3101.7196	3127.2491	3133.8253	3202.8113	3805.4866
CC(O)C12CC3CN1C23	C[C@@H](O)[C@@]12C[C@H]3CN1[C@@H]23	
InChI=1S/C7H11NO/c1-4(9)7-2-5-3-8(7)6(5)7/h4-6,9H,2-3H2,1H3	InChI=1S/C7H11NO/c1-4(9)7-2-5-3-8(7)6(5)7/h4-6,9H,2-3H2,1H3/t4-,5+,6-,7-,8?/m1/s1
