20
gdb 72542	2.60811	1.71082	1.70721	1.5459	73.47	-0.2191	0.0692	0.2883	954.1445	0.173632	-440.289848	-440.28214	-440.281196	-440.321693	30.942	
C	-0.0588829191	 1.5050308015	-0.0339022157	-0.444552
C	 0.0113493657	-0.0061643937	 0.0271959092	 0.443028
O	 0.6138797802	-0.455688585	-1.1775515883	-0.295517
C	 0.7908546042	-1.8782871357	-1.1862741119	-0.056939
C	 0.0440527056	-2.4724482438	 0.0077767568	-0.065775
N	 0.7481367303	-2.0314972401	 1.2188823484	-0.300952
C	 0.8158388112	-0.5508161583	 1.223238747	-0.203043
C	-1.3852275979	-1.9148133369	-0.0202823083	-0.065837
O	-1.3238468388	-0.4917215985	 0.1189882515	-0.29393
H	 0.9472131956	 1.9307481709	-0.0448419749	 0.123918
H	-0.5794058352	 1.8046625747	-0.9459194271	 0.134457
H	-0.6060210663	 1.8902107082	 0.829344688	 0.124183
H	 0.3906815905	-2.263372331	-2.1313593496	 0.103985
H	 1.8591583473	-2.123319009	-1.1274631271	 0.105569
H	 0.0426822183	-3.5652078879	-0.0437571323	 0.076565
H	 0.239144661	-2.3525182392	 2.0348896139	 0.218688
H	 1.8571264166	-0.2147595551	 1.1364312125	 0.105409
H	 0.4068437503	-0.1415147637	 2.1520861283	 0.102781
H	-1.8969302942	-2.1700682549	-0.9604413225	 0.09654
H	-1.9807553354	-2.3200248326	 0.808937592	 0.091421
95.9507	185.4719	267.2013	274.9949	338.2443	361.6702	420.7199	459.9724	551.3788	582.2635	598.306	750.4282	787.207	840.1626	848.5996	898.5526	932.9959	941.8071	957.6019	971.4049	1022.4262	1054.1266	1102.1205	1113.9335	1149.9076	1158.2216	1214.4109	1217.9169	1238.3179	1254.7619	1270.1015	1311.5091	1334.52	1389.248	1401.6156	1405.1256	1415.7558	1467.5525	1480.0641	1488.9492	1502.2453	1514.036	1528.2044	2986.4409	3014.7166	3016.8721	3026.8625	3058.8221	3060.6318	3070.4251	3074.0963	3138.8186	3141.8131	3525.9961
CC12OCC(NC1)CO2	C[C@@]12OC[C@@H](NC1)CO2	
InChI=1S/C6H11NO2/c1-6-4-7-5(2-8-6)3-9-6/h5,7H,2-4H2,1H3	InChI=1S/C6H11NO2/c1-6-4-7-5(2-8-6)3-9-6/h5,7H,2-4H2,1H3/t5-,6+
