15
gdb 45948	2.28218	1.99768	1.16897	1.5445	66.49	-0.2603	-0.0468	0.2135	1000.9445	0.112685	-457.817807	-457.810212	-457.809268	-457.850217	28.129	
O	 0.0023255534	 0.0132034452	 0.0071373503	-0.320571
C	 0.0129565189	 1.2182121166	 0.0115440824	 0.315087
C	-1.2166525762	 2.1314012448	 0.0309596747	-0.202574
O	-0.7254392274	 3.4764952988	 0.0295936061	-0.232004
C	 0.6419466221	 3.5234010421	 0.0119550141	 0.411445
O	 1.2473195067	 4.5561054487	 0.0079639631	-0.3515
C	 1.1735258127	 2.1337662312	-0.0001362024	 0.020038
C	 2.4786030442	 1.7919628242	 0.7202427862	-0.280478
C	 2.4594299357	 1.7974657239	-0.7566617042	-0.280483
H	-1.8435864117	 1.9662765066	-0.8513094427	 0.154296
H	-1.8204203445	 1.959621548	 0.9279923468	 0.154295
H	 2.9460976769	 2.6232058469	 1.2354272713	 0.155726
H	 2.4776583556	 0.8374335979	 1.2346939232	 0.150499
H	 2.445041484	 0.8467938958	-1.2780094164	 0.150499
H	 2.9134802995	 2.6325653293	-1.2776017424	 0.155725
77.25	180.7268	206.1358	207.4363	233.8286	351.3368	528.7351	580.8231	587.0239	639.2115	707.1687	735.9018	795.7651	837.8475	868.7425	975.9542	976.4137	1028.2059	1064.5813	1067.678	1079.4977	1105.9981	1154.1768	1204.6873	1212.284	1276.285	1342.1801	1382.4369	1445.7137	1480.3174	1481.5239	1841.9005	1887.3692	3051.1706	3097.8355	3141.9214	3142.4173	3235.1666	3249.2109
O=C1COC(=O)C11CC1	O=C1COC(=O)C21CC2	
InChI=1S/C6H6O3/c7-4-3-9-5(8)6(4)1-2-6/h1-3H2	InChI=1S/C6H6O3/c7-4-3-9-5(8)6(4)1-2-6/h1-3H2
