15
gdb 5246	6.99272	1.06264	0.97743	2.1594	62.98	-0.2389	0.0037	0.2426	1146.3894	0.119819	-399.824989	-399.817435	-399.816491	-399.857785	26.451	
O	-0.0599781568	 1.4294317721	-0.1325816673	-0.416959
C	 0.0466189395	 0.0166439667	-0.1134180539	-0.069101
C	-1.3599498985	-0.5363105969	 0.1376087474	-0.301199
C	-1.4081524761	-2.0201179739	 0.1744471338	 0.327971
C	-1.6739390485	-2.952591215	 1.1225359495	-0.195439
N	-1.561550919	-4.2271562391	 0.5763013859	-0.255313
C	-1.2370360363	-4.0087895722	-0.6538321127	 0.070468
O	-1.1213396351	-2.701431222	-0.9859248702	-0.179879
H	 0.8119576597	 1.7963431542	-0.3045766189	 0.289656
H	 0.4286973402	-0.3754257787	-1.0677607252	 0.102295
H	 0.7234244993	-0.3303095755	 0.6828053971	 0.094906
H	-1.7280978762	-0.1503429832	 1.0927767148	 0.129213
H	-2.0247751702	-0.1492682313	-0.6438307471	 0.130624
H	-1.9413991212	-2.8001741581	 2.15621499	 0.124205
H	-1.0504077104	-4.7260683971	-1.4376016332	 0.148553
64.1384	92.2748	119.8582	251.7096	314.8153	349.6383	375.3528	661.2382	672.3931	764.371	796.28	834.2923	859.7091	940.8146	967.7485	1008.0098	1062.8766	1083.7867	1125.8014	1133.5626	1207.8526	1232.6821	1243.2776	1263.9826	1307.7675	1338.8562	1358.5734	1456.0196	1478.0695	1529.8004	1551.9076	1641.5404	2978.4551	3012.0513	3042.2455	3099.6234	3263.7307	3275.6478	3833.8103
OCCC1=CN=CO1	OCCc1cnco1	
InChI=1S/C5H7NO2/c7-2-1-5-3-6-4-8-5/h3-4,7H,1-2H2	InChI=1S/C5H7NO2/c7-2-1-5-3-6-4-8-5/h3-4,7H,1-2H2
