17
gdb 92865	2.14551	1.76743	1.21182	5.4167	75.7	-0.2329	-0.0858	0.1471	1063.3017	0.135929	-421.8715	-421.863198	-421.862254	-421.904691	30.814	
C	-0.1269104928	 1.5505916843	 0.0428040346	-0.406779
C	 0.0190399986	 0.0136870851	-0.0019961294	-0.107044
C	 0.7742429872	-0.4498153193	-1.2659096381	-0.290188
C	 2.2654155571	-0.3061151	-1.1681687812	-0.048316
C	 2.9420599996	-0.2163017462	-0.0137588255	-0.147581
C	 2.2715589845	-0.2763602114	 1.2951262111	 0.290305
O	 2.8621436399	-0.2286465483	 2.3514507632	-0.3014
C	 0.7266281367	-0.4452144725	 1.2665198881	 0.298344
O	 0.1480166367	-0.8873453446	 2.2259076235	-0.286773
H	 0.8467598486	 2.0497998093	 0.0273074433	 0.133355
H	-0.6977336052	 1.8963829446	-0.8243247029	 0.126278
H	-0.656290301	 1.8620547406	 0.9471618574	 0.142632
H	-0.9808471069	-0.429560758	 0.0177400793	 0.10468
H	 0.5444041051	-1.5049410938	-1.4742483959	 0.137743
H	 0.4083756557	 0.1030359473	-2.1396026631	 0.119912
H	 2.8146379578	-0.2944406035	-2.1073876684	 0.117719
H	 4.0239505184	-0.1271538637	 0.011057354	 0.117115
58.2359	118.2524	195.1663	227.7708	294.911	331.0521	340.2113	435.9072	494.5599	527.2283	563.4546	650.4484	708.534	815.9259	852.727	873.3554	918.3741	946.8808	1003.1723	1027.2268	1065.71	1092.5669	1142.0371	1165.9494	1229.2435	1269.1644	1304.0965	1332.91	1373.8924	1406.9035	1411.663	1468.8614	1497.7671	1500.9162	1678.6661	1778.848	1822.8301	3008.2204	3040.9913	3049.2134	3068.6933	3113.3554	3122.7398	3151.6073	3185.8632
CC1CC=CC(=O)C1=O	C[C@H]1CC=CC(=O)C1=O	
InChI=1S/C7H8O2/c1-5-3-2-4-6(8)7(5)9/h2,4-5H,3H2,1H3	InChI=1S/C7H8O2/c1-5-3-2-4-6(8)7(5)9/h2,4-5H,3H2,1H3/t5-/m0/s1
