21
gdb 95391	2.17113	1.6372	1.10576	3.1342	85.69	-0.2326	-0.0428	0.1898	1187.2367	0.182961	-387.145292	-387.13616	-387.135216	-387.178943	34.625	
C	-0.2114310744	 1.5200557578	 0.0449982135	-0.400611
C	 0.0355483834	-0.0009623366	-0.0149728897	-0.076778
C	 0.7934100381	-0.4431524645	-1.2754086377	-0.235659
C	 2.2559918016	 0.0171809723	-1.2584511483	-0.258109
C	 2.9160143772	-0.2557810303	 0.0621133465	-0.131216
C	 2.2603953567	-0.4872578319	 1.2116095642	 0.215722
C	 2.9505169814	-0.7878986359	 2.5136630905	-0.47677
C	 0.7726854163	-0.4325356872	 1.2538806034	 0.319304
O	 0.1658730521	-0.6688205138	 2.2818961119	-0.335523
H	 0.7256292284	 2.0860905766	 0.070264368	 0.120576
H	-0.7820703648	 1.8499917229	-0.829174207	 0.115425
H	-0.7801165298	 1.7748072701	 0.9432209422	 0.136337
H	-0.9393416447	-0.4981424533	 0.0207591172	 0.093081
H	 0.7747183797	-1.5384096468	-1.3317642634	 0.105512
H	 0.2846692327	-0.0715971446	-2.1720633306	 0.096551
H	 2.8197669189	-0.4774193516	-2.0585312121	 0.110361
H	 2.3288593304	 1.0925223563	-1.4804582199	 0.12016
H	 4.0053530983	-0.2587166084	 0.0708392478	 0.09392
H	 4.0369015512	-0.7956677057	 2.3939114005	 0.110691
H	 2.6826704335	-0.0503123119	 3.277201779	 0.137236
H	 2.6315436638	-1.7588601434	 2.906065804	 0.13979
69.377	142.5564	169.9577	210.4179	244.0535	281.2088	298.174	341.3313	383.7515	423.5699	523.39	543.2679	657.4166	686.7575	772.7746	844.9569	862.9762	887.3541	907.3542	974.8885	997.7711	1012.0232	1070.0487	1074.2608	1103.505	1112.8001	1150.3706	1195.0213	1220.4233	1278.6106	1329.9603	1339.3922	1375.2903	1380.1639	1386.1378	1406.0444	1414.3307	1470.4347	1472.7962	1485.9278	1490.2034	1496.4926	1507.7766	1703.2285	1762.5582	3001.3654	3025.6919	3035.5292	3039.7944	3048.044	3056.1401	3069.1304	3096.6973	3103.0304	3118.5482	3121.0633	3134.3792
CC1CCC=C(C)C1=O	C[C@H]1CCC=C(C)C1=O	
InChI=1S/C8H12O/c1-6-4-3-5-7(2)8(6)9/h4,7H,3,5H2,1-2H3	InChI=1S/C8H12O/c1-6-4-3-5-7(2)8(6)9/h4,7H,3,5H2,1-2H3/t7-/m0/s1
