14
gdb 19539	4.71858	1.73538	1.63179	1.3666	69.19	-0.2305	0.0249	0.2554	812.0074	0.106999	-345.299214	-345.292922	-345.291977	-345.329458	25.06	
C	-0.0717396749	-1.2317071304	-0.0024974255	-0.359217
C	-0.0394738974	-0.0275734003	 0.0044671243	-0.021279
C	 0.0145786922	 1.3793391907	 0.0166758719	 0.287894
C	-0.7553359296	 2.4680900856	 0.795681528	-0.165154
C	 0.5490637267	 3.1235730814	 1.2480532808	-0.237027
C	 1.1669223865	 2.4750200588	-0.0142454534	 0.01148
O	 0.5089726466	 3.1637110992	-1.1131190831	-0.285674
C	-0.6805438222	 2.4852887183	-0.7320953529	 0.034386
H	-0.1022587561	-2.2927193123	-0.0138845225	 0.179501
H	-1.6838475529	 2.3415637786	 1.3364343059	 0.108427
H	 0.6015943328	 4.2150117881	 1.3029217916	 0.107169
H	 0.9271646185	 2.6677849128	 2.1659354854	 0.114735
H	 2.2327533208	 2.3251006441	-0.1657776832	 0.101751
H	-1.5244600411	 2.4676714253	-1.4081430173	 0.123008
143.5887	164.2291	406.2242	461.1774	487.4321	552.027	566.1324	574.8639	666.5538	752.2702	767.6052	827.7925	884.6957	894.0371	925.3412	956.9931	978.8782	1012.4351	1031.6973	1067.2864	1098.2796	1134.3245	1160.2869	1221.9444	1231.4181	1267.5493	1320.0457	1421.0519	1487.067	2229.7249	3055.8155	3121.904	3161.259	3209.8971	3222.0453	3503.113
C#CC12C3CC1OC23	C#C[C@@]12[C@H]3C[C@@H]1O[C@@H]23	
InChI=1S/C7H6O/c1-2-7-4-3-5(7)8-6(4)7/h1,4-6H,3H2	InChI=1S/C7H6O/c1-2-7-4-3-5(7)8-6(4)7/h1,4-6H,3H2/t4-,5-,6+,7+/m0/s1
