15
gdb 42764	2.71117	1.61707	1.30066	2.6135	72.96	-0.2298	-0.0287	0.2011	991.0362	0.111591	-420.57205	-420.564533	-420.563588	-420.603946	29.121	
O	-0.0572329844	-0.0162740469	 0.0260831281	-0.297072
C	-0.0487469205	 1.1708488545	-0.0200161665	 0.403994
C	-1.077932034	 2.3243365129	 0.0253348914	-0.220663
C	-0.0559110142	 2.9797664419	 1.0148221998	-0.291813
C	 1.0037961828	 2.3328000334	 0.0656170671	 0.21777
O	 0.7645486506	 3.0148861667	-1.1854061301	-0.322319
C	-0.6859998357	 3.03832913	-1.276193047	-0.082665
C	 2.3916485725	 2.1742343937	 0.3742913992	 0.121655
C	 3.5440002044	 1.9996611004	 0.6657205182	-0.328306
H	-2.130341545	 2.1739448529	 0.2495891984	 0.106743
H	-0.0332904853	 4.0704265186	 1.0449302303	 0.126899
H	-0.0660433044	 2.5437232688	 2.0144151467	 0.134921
H	-1.01359443	 2.5059288022	-2.1757191485	 0.122636
H	-1.0329810667	 4.0765221487	-1.323898517	 0.11495
H	 4.5652684899	 1.8477534322	 0.91504442	 0.19327
123.3278	145.7118	173.9911	288.2154	365.4543	442.4138	497.5335	510.0281	574.3388	627.1911	663.2423	680.2997	714.4596	770.8376	842.2712	876.4422	919.0946	949.7784	959.0228	996.6266	1040.7893	1057.6511	1116.3103	1146.0374	1174.3403	1224.2682	1246.8538	1312.611	1358.2728	1476.0909	1531.1725	1919.4117	2247.5594	3030.2607	3075.2533	3082.0522	3156.1573	3166.2986	3501.2566
O=C1C2CC1(OC2)C#C	O=C1[C@H]2C[C@@]1(OC2)C#C	
InChI=1S/C7H6O2/c1-2-7-3-5(4-9-7)6(7)8/h1,5H,3-4H2	InChI=1S/C7H6O2/c1-2-7-3-5(4-9-7)6(7)8/h1,5H,3-4H2/t5-,7-/m0/s1
