19
gdb 90922	3.39149	1.46156	1.37554	2.0409	75.72	-0.2298	0.066	0.2958	1000.7041	0.160592	-422.918022	-422.910861	-422.909916	-422.949148	29.94	
O	 0.1356828783	 1.367379269	-0.1729390473	-0.43027
C	 0.0956754834	-0.030265686	 0.0020313338	 0.009827
C	 0.2824208676	-0.4753241819	 1.5322748318	-0.35023
C	-1.2718357625	-0.2955168156	 1.6426498028	 0.024927
C	-2.6577537334	-1.0361073138	 1.623624587	 0.042649
C	-2.899268265	-0.2022087183	 0.2777015313	-0.335683
C	-1.3688343977	-0.5409231305	 0.1496006423	 0.244651
C	-1.4794203698	-2.0812053115	 0.0753203574	-0.102218
O	-2.4043906931	-2.3495698041	 1.1482072438	-0.263184
H	 1.0460497264	 1.6560861975	-0.0525626393	 0.287378
H	 0.7255842721	-0.5402928591	-0.7410648213	 0.066768
H	 0.661121899	-1.4917331409	 1.6419370654	 0.117642
H	 0.8885847188	 0.201474298	 2.1406509549	 0.095438
H	-1.4566193799	 0.7625029306	 1.8360949735	 0.097428
H	-3.369439933	-1.0668880518	 2.4492416516	 0.081422
H	-3.6067486973	-0.6458172811	-0.4293245801	 0.09918
H	-3.1040022169	 0.8554127936	 0.4366418133	 0.117015
H	-1.9025955054	-2.4110190893	-0.8813643519	 0.099698
H	-0.5450431015	-2.6251464647	 0.245014201	 0.097562
163.378	207.3611	291.0183	332.8558	373.7174	428.8553	465.0781	494.4801	625.4706	653.6392	687.6167	761.2385	802.2172	834.2497	864.2295	935.1176	947.2285	959.5296	975.0584	1001.2687	1023.2441	1043.6436	1062.9679	1109.6898	1122.4339	1137.3358	1157.4862	1169.6373	1187.9138	1196.9828	1206.4564	1226.4016	1244.9082	1292.2692	1302.8301	1371.6664	1396.7024	1414.7947	1470.0432	1486.9649	1535.2045	2988.8819	3025.9558	3060.1458	3063.2638	3072.9302	3087.6549	3120.801	3137.6283	3156.0117	3815.437
OC1CC2C3CC12CO3	O[C@H]1C[C@@H]2[C@H]3C[C@@]12CO3	
InChI=1S/C7H10O2/c8-6-1-4-5-2-7(4,6)3-9-5/h4-6,8H,1-3H2	InChI=1S/C7H10O2/c8-6-1-4-5-2-7(4,6)3-9-5/h4-6,8H,1-3H2/t4-,5-,6+,7+/m1/s1
