17
gdb 106000	2.70919	1.58482	1.21274	0.837	72.13	-0.2192	0.0667	0.2859	1041.3026	0.134213	-421.697943	-421.689911	-421.688967	-421.730516	31.182	
O	-0.0192539023	 1.3317818251	 0.3588112157	-0.421175
C	-0.063920781	 0.0109838351	-0.175601931	-0.241043
C	-1.4621301784	-0.4845123308	-0.1370143999	 0.33907
C	-2.7635306391	-0.0719461257	-0.8895969684	-0.142287
C	-3.5970653926	-0.490816424	 0.3099370771	-0.076617
C	-3.2891371209	-1.4989216561	-0.7888025013	-0.184533
C	-1.9790943287	-1.9030044128	-0.0187538481	 0.303666
O	-1.2240116637	-3.0458725566	-0.0040336542	-0.454145
C	-2.3108596436	-0.9027364241	 1.0811967583	-0.236798
H	 0.8715367229	 1.6709521941	 0.2273288379	 0.283883
H	 0.3066841907	-0.002354577	-1.2137130941	 0.09158
H	 0.5695254003	-0.6806439828	 0.4029709914	 0.09636
H	-2.9546672497	 0.6800037888	-1.6442111891	 0.087067
H	-4.5564132025	-0.1242578821	 0.6503816634	 0.086575
H	-3.9617007351	-2.0345821686	-1.4458140151	 0.08829
H	-1.652197772	-3.6881076388	 0.5743357058	 0.289702
H	-2.0305140041	-0.8782931538	 2.1257934517	 0.090405
84.2022	120.0461	226.8402	263.0744	292.225	304.2151	385.8003	462.2211	574.9377	654.076	717.6046	754.7238	771.3962	785.7298	806.0079	863.9518	875.9155	899.0705	935.6001	972.3269	977.3958	1006.0213	1030.1074	1052.1641	1064.0099	1138.6915	1175.1061	1188.9234	1227.8836	1249.1051	1276.3316	1298.2022	1318.2723	1358.7643	1451.6639	1497.1502	1505.6979	2961.7515	2990.3582	3189.7219	3192.1729	3206.2887	3209.9125	3776.8715	3820.3186
OCC12C3C4C3C1(O)C24	OC[C@@]12[C@@H]3[C@H]4[C@@H]3[C@]1(O)[C@@H]24	
InChI=1S/C7H8O2/c8-1-6-3-2-4(3)7(6,9)5(2)6/h2-5,8-9H,1H2	InChI=1S/C7H8O2/c8-1-6-3-2-4(3)7(6,9)5(2)6/h2-5,8-9H,1H2/t2-,3+,4-,5+,6-,7-/m0/s1
