19
gdb 16668	3.3118	2.02875	1.53498	2.21	70.21	-0.2249	0.0599	0.2848	886.6369	0.166852	-365.039245	-365.031684	-365.03074	-365.070719	29.732	
C	-0.0703693146	 1.5687785137	-0.0228441777	-0.4366
C	 0.0842705903	 0.050369378	 0.0093754924	 0.032533
C	 0.8549924501	-0.5571854524	-1.1805150603	-0.181193
N	 1.2799518637	-1.9091050708	-0.744868004	-0.101628
C	 2.5677903723	-1.9232868603	-0.0407865116	-0.232082
C	 1.309706314	-1.8782078215	 0.7405330476	-0.032289
C	 0.833748643	-0.5200865472	 1.2443905153	 0.070588
O	 1.9561961495	 0.266917663	 1.6346636348	-0.430169
H	 0.9065667911	 2.0629414218	-0.0252772212	 0.122292
H	-0.6048405284	 1.8909428605	-0.9219512923	 0.122973
H	-0.639328923	 1.9343289393	 0.8404344	 0.109739
H	-0.9120857527	-0.4109142533	 0.0203692667	 0.080786
H	 0.2260898372	-0.6489515931	-2.0709777458	 0.103405
H	 1.7183237608	 0.0660394004	-1.4482364432	 0.099819
H	 3.1221639756	-2.8551343062	-0.1152669016	 0.108626
H	 3.1750662138	-1.0229152539	-0.0539927217	 0.127815
H	 0.9430398722	-2.76720132	 1.2449818061	 0.087251
H	 0.1518520789	-0.6425212432	 2.0971983091	 0.064029
H	 1.6253051062	 1.1051037152	 1.9729760974	 0.284106
95.4576	217.1209	244.9629	266.0213	317.3339	330.6891	423.5773	481.1658	537.9002	635.1634	699.2662	773.1589	808.3981	854.1557	904.4509	919.1085	952.5421	988.2251	1018.807	1032.5987	1089.213	1113.0123	1120.2076	1137.3568	1166.749	1183.3254	1218.35	1226.2026	1276.3782	1311.037	1320.8512	1338.0694	1373.9906	1392.7421	1403.5708	1428.4686	1497.7753	1499.4451	1507.8289	1520.8549	2999.3627	3016.4527	3024.8303	3027.0886	3077.7591	3090.9437	3105.1305	3109.3619	3147.6459	3199.5062	3816.0676
CC1CN2CC2C1O	C[C@H]1CN2C[C@H]2[C@H]1O	
InChI=1S/C6H11NO/c1-4-2-7-3-5(7)6(4)8/h4-6,8H,2-3H2,1H3	InChI=1S/C6H11NO/c1-4-2-7-3-5(7)6(4)8/h4-6,8H,2-3H2,1H3/t4-,5-,6-,7?/m0/s1
