14
gdb 74314	2.9899	1.29831	0.95664	6.5064	65.6	-0.2432	-0.0348	0.2084	1151.8463	0.100995	-470.063416	-470.055144	-470.054199	-470.097152	29.708	
N	-0.0608322689	 1.3888715068	 0.5295030453	-0.580593
C	-0.071800197	 0.0598719679	 0.1997179976	 0.443498
N	-1.1039651154	-0.7043503024	 0.220057803	-0.321943
C	-0.6326749293	-2.0437942567	-0.1095807993	-0.192183
C	-1.2803569133	-2.5557904571	-1.399705424	 0.16875
O	-1.5254363612	-3.7087647472	-1.6191420361	-0.227578
C	 0.9039099442	-1.9297317418	-0.2950680553	 0.390704
O	 1.7273588556	-2.7746612181	-0.5186770475	-0.337649
N	 1.1311153623	-0.5641127678	-0.1339405142	-0.374256
H	 0.5857849467	 1.9778546915	 0.0260211921	 0.261834
H	-0.98888994	 1.7803255327	 0.6088198103	 0.274537
H	-0.8430446104	-2.7757178324	 0.6772373246	 0.138185
H	-1.5062668931	-1.7450448774	-2.1264652409	 0.085687
H	 2.0548259796	-0.1711611878	-0.0431960756	 0.271007
47.9726	87.9259	157.4046	210.6458	330.3959	367.7704	399.9029	445.7211	466.3025	530.6316	593.7801	639.034	675.7263	732.296	744.677	867.6395	987.9948	1014.5185	1047.3595	1057.1774	1160.1188	1194.4305	1221.3685	1251.8817	1301.6816	1402.5847	1490.7124	1625.1166	1723.953	1827.5751	1875.3272	2894.8215	3067.578	3569.6331	3643.1464	3676.7172
NC1=NC(C=O)C(=O)N1	NC1=N[C@@H](C=O)C(=O)N1	
InChI=1S/C4H5N3O2/c5-4-6-2(1-8)3(9)7-4/h1-2H,(H3,5,6,7,9)	InChI=1S/C4H5N3O2/c5-4-6-2(1-8)3(9)7-4/h1-2H,(H3,5,6,7,9)/t2-/m0/s1
