13
gdb 130132	3.15945	1.51263	1.02409	5.6189	65.79	-0.225	-0.0473	0.1777	1057.9822	0.090647	-486.087218	-486.079557	-486.078613	-486.119636	28.594	
N	-0.0170769838	 1.3795525385	 0.1186582417	-0.557647
C	-0.0809914824	 0.0080874077	 0.1045374051	 0.500637
N	-1.1492238603	-0.6245315568	-0.1957951111	-0.321148
N	-1.0851537086	-1.9973605013	-0.0456200645	-0.301015
C	-0.007793944	-2.7523992062	 0.3166597658	 0.392265
O	-0.0343870196	-3.9597671862	 0.4033456618	-0.342153
C	 1.2298079704	-1.9303092033	 0.6029518733	 0.287651
N	 2.3226802304	-2.4574760337	 0.9258484618	-0.462527
O	 1.0976793938	-0.5467169666	 0.4984799187	-0.255047
H	 0.8858778214	 1.7643715134	-0.1171347377	 0.269115
H	-0.7924134512	 1.8218622742	-0.3521401676	 0.275813
H	-1.9411170477	-2.4849298228	-0.2630582362	 0.276928
H	 3.0404037116	-1.747525247	 1.0830653486	 0.237128
83.6723	104.4694	276.4339	328.7044	352.2675	383.7463	413.0677	486.4887	511.5194	590.565	593.7882	611.256	699.3346	705.1763	787.4432	825.1418	915.3616	960.8274	1021.4979	1115.7819	1218.7173	1251.6264	1360.9801	1403.5761	1456.8874	1623.0456	1746.0834	1770.8604	1812.3503	3480.7297	3576.4199	3633.4688	3688.3397
NC1=NNC(=O)C(=N)O1	NC1=NNC(=O)[C]([NH])O1	
InChI=1S/C3H4N4O2/c4-1-2(8)6-7-3(5)9-1/h4H,(H2,5,7)(H,6,8)	InChI=1S/C3H4N4O2/c4-1-2(8)6-7-3(5)9-1/h4H,(H2,5,7)(H,6,8)
