21
gdb 101054	2.13745	1.29207	0.93697	4.9739	82.99	-0.2695	0.0248	0.2943	1337.0716	0.181821	-383.262681	-383.252693	-383.251749	-383.297725	36.768	
C	 0.024713063	 1.4534984934	 0.3002506326	-0.396698
C	 0.3451311928	-0.0392568967	 0.1781671383	-0.173496
C	 0.6665549233	-0.509840296	-1.2585348645	-0.053728
C	 1.9687857002	 0.0964566293	-1.795720175	-0.432173
C	 0.6404477523	-2.0477939108	-1.3113114087	 0.140189
C	 1.5826493262	-2.862960161	-2.1392710376	-0.274442
N	 1.7012340994	-2.8645124297	-0.6786936556	-0.326637
C	-0.6916120317	-2.5953412631	-1.1145501025	 0.299816
N	-1.7683669013	-2.9969497863	-0.9880629702	-0.3494
H	 0.8790747796	 2.0868998858	 0.0429223849	 0.118038
H	-0.8084352166	 1.732497054	-0.3542736932	 0.122043
H	-0.2645411395	 1.6998878691	 1.3261087471	 0.12225
H	 1.1878476862	-0.2926939901	 0.8353062063	 0.09591
H	-0.5113837092	-0.6138237213	 0.5479833117	 0.128309
H	-0.1512409073	-0.1714755835	-1.9087519013	 0.097985
H	 2.8473324041	-0.2527864604	-1.2394755191	 0.113695
H	 2.1195932352	-0.1321031423	-2.8538419106	 0.127466
H	 1.9449291243	 1.1842199924	-1.70060473	 0.132999
H	 1.2349268728	-3.7971671612	-2.5690047789	 0.141641
H	 2.3226205242	-2.3328934719	-2.7290120402	 0.126055
H	 2.459498832	-2.2515559095	-0.3866554035	 0.240177
62.0336	77.509	144.6129	190.5492	219.8898	237.5786	252.6649	295.1093	335.228	385.3837	406.2813	480.6803	576.0306	600.04	686.4269	776.2304	830.562	853.2822	897.0444	934.5688	977.0046	986.6022	994.1604	1040.3584	1057.9118	1102.6671	1137.8116	1158.7041	1183.0122	1250.6226	1274.7416	1297.8402	1320.9436	1354.3906	1375.4949	1390.6149	1413.6234	1420.9273	1482.0872	1494.6183	1499.9388	1504.7551	1508.7342	1521.2003	2355.1304	3014.335	3024.2163	3033.6951	3037.0956	3066.5014	3103.0442	3104.5316	3109.8649	3125.8947	3129.5037	3218.1514	3497.9536
CCC(C)C1(CN1)C#N	CC[C@@H](C)[C@]1(CN1)C#N	
InChI=1S/C7H12N2/c1-3-6(2)7(4-8)5-9-7/h6,9H,3,5H2,1-2H3	InChI=1S/C7H12N2/c1-3-6(2)7(4-8)5-9-7/h6,9H,3,5H2,1-2H3/t6-,7-/m1/s1
