16
gdb 70850	3.15202	1.80745	1.43844	3.5078	66.27	-0.2281	0.0572	0.2853	899.0669	0.124022	-437.786892	-437.779893	-437.778949	-437.81769	28.97	
O	-0.0804675045	 1.3481275134	 0.0373179118	-0.480679
C	 0.0847779416	-0.0247575275	 0.0022452974	 0.404726
C	 1.1192480332	-0.8023415484	 0.8596555444	-0.383857
C	 0.8337069771	-1.9508542684	-0.1449536203	 0.40475
O	 1.6361704899	-3.066801151	-0.3001027221	-0.480681
C	-0.6807187013	-2.228459327	-0.101547537	-0.085294
C	-1.2182642942	-0.8460453883	 0.0039361152	-0.085289
N	-1.0177752885	-1.464502318	-1.3502563879	-0.170001
C	 0.4126903232	-0.915446882	-1.2549212605	-0.16589
H	 0.78174717	 1.7666949907	-0.0544128397	 0.284102
H	 2.1319954353	-0.3982034198	 0.7238584733	 0.081265
H	 0.9138676905	-0.9633624208	 1.9216030526	 0.107615
H	 2.5496910389	-2.7801560934	-0.4018026339	 0.284105
H	-1.1924300756	-3.1398324524	 0.1825919875	 0.102285
H	-2.1942462852	-0.5634431675	 0.3791424266	 0.102288
H	 0.9695989394	-0.6308152596	-2.1458003475	 0.080556
244.0865	250.3348	256.5319	334.3458	354.4444	388.021	430.3922	575.2455	591.1129	616.1518	746.5176	760.3229	791.0442	830.8499	876.9201	894.6547	918.8873	979.419	986.8734	993.5631	1022.3571	1047.4655	1076.3653	1111.7176	1117.8843	1137.3903	1159.3111	1206.1484	1233.4016	1287.9844	1295.3181	1356.7174	1406.4842	1408.6298	1486.5041	3016.6872	3099.2335	3136.8018	3186.7565	3198.1178	3813.6475	3814.6328
OC12CC3(O)C4C1N4C23	O[C@@]12C[C@@]3(O)[C@H]4[C@@H]1N4[C@@H]23	
InChI=1S/C6H7NO2/c8-5-1-6(9)3-2(5)7(3)4(5)6/h2-4,8-9H,1H2	InChI=1S/C6H7NO2/c8-5-1-6(9)3-2(5)7(3)4(5)6/h2-4,8-9H,1H2/t2-,3+,4-,5-,6+,7?
