22
gdb 122849	6.92945	0.47403	0.44986	1.375	80.97	-0.2588	0.0369	0.2956	2396.4426	0.192491	-441.490042	-441.478908	-441.477964	-441.527609	38.407	
C	-0.112558447	 1.2962167799	 0.1917982708	-0.224515
O	 0.0328705086	-0.1049440616	-0.0384885014	-0.23606
C	 0.6720930468	-0.4618492164	-1.1721296447	 0.400454
N	 1.11331505	 0.4144741502	-1.97766985	-0.537268
C	 0.7379155536	-1.9727103835	-1.2583561329	-0.279429
C	 1.440125751	-2.5211667755	-2.5006498865	-0.208548
C	 1.472319046	-4.0522058878	-2.5265004116	-0.17116
C	 2.1701227348	-4.6087478483	-3.7605800643	-0.076319
O	 2.1395135055	-6.0248874948	-3.6768940716	-0.42034
H	 0.8641854109	 1.7844031016	 0.2522673411	 0.134625
H	-0.681085207	 1.7666233804	-0.6153366007	 0.134686
H	-0.6455985999	 1.3865210528	 1.1394482352	 0.122826
H	 1.5660411041	-0.0218438284	-2.7768324472	 0.221385
H	 1.2320267231	-2.335756774	-0.3485325443	 0.127466
H	-0.2894366783	-2.3534267385	-1.2007212141	 0.127461
H	 0.931852417	-2.1507950293	-3.4008052071	 0.105994
H	 2.466541057	-2.1330526914	-2.5411450614	 0.105992
H	 1.984816122	-4.4347954406	-1.6354569884	 0.108695
H	 0.4516856622	-4.4525343356	-2.494377378	 0.108699
H	 1.6586658089	-4.2508262784	-4.6695761839	 0.084569
H	 3.2059967139	-4.2330384631	-3.8026749156	 0.08457
H	 2.579086947	-6.3825882579	-4.453586353	 0.286217
45.7539	66.2116	86.6602	116.5129	139.5361	168.7999	186.2497	222.9592	263.5537	269.6088	344.467	435.1769	507.9805	562.846	669.2795	751.8836	805.8622	852.6746	898.3079	943.1016	984.7469	1024.2832	1050.4943	1070.147	1097.4666	1120.6664	1131.9817	1180.9665	1205.7957	1218.5453	1223.5528	1280.1936	1281.184	1318.4465	1327.9254	1327.9442	1379.4501	1417.3167	1466.5021	1467.8095	1477.1474	1480.4643	1492.71	1500.2739	1508.5224	1530.4159	1723.8163	2957.1695	2982.0709	3012.4154	3030.3063	3036.4212	3041.1859	3044.1219	3066.031	3081.121	3115.2906	3146.099	3524.5909	3830.9106
COC(=N)CCCCO	CO[C]([NH])CCCCO	
InChI=1S/C6H13NO2/c1-9-6(7)4-2-3-5-8/h7-8H,2-5H2,1H3	InChI=1S/C6H13NO2/c1-9-6(7)4-2-3-5-8/h7-8H,2-5H2,1H3
