21
gdb 82100	2.81811	1.28173	1.03171	1.5536	81.98	-0.2456	0.0676	0.3132	1231.73	0.183022	-387.040855	-387.032222	-387.031278	-387.074568	33.516	
O	 0.112472566	 1.368077346	-0.21903483	-0.427539
C	-0.0558584575	-0.0135540048	-0.0069651074	 0.109712
C	 0.4174563538	-0.6255039803	 1.3103194378	-0.083778
C	-0.4306081408	-0.144389051	 2.4599630894	-0.30228
C	-0.9777276435	-1.2118219232	 1.5596486163	-0.054178
C	-1.5057343705	-0.6066415646	 0.2488621079	-0.058926
C	-2.6885458238	 0.3234880704	 0.2853758973	 0.036511
C	-3.4602180959	 0.6116658196	-0.9774920169	-0.263272
C	-4.0858024473	-0.2245595525	 0.1104042184	-0.277604
H	-0.0607905591	 1.8214163038	 0.6122901333	 0.278826
H	 0.4050744634	-0.4978736273	-0.871202337	 0.089009
H	 1.388477131	-1.0751238247	 1.4800879387	 0.085449
H	-0.0994608838	-0.4791445253	 3.4375143418	 0.115679
H	-0.8642911846	 0.8535628434	 2.4765532091	 0.096206
H	-1.227193656	-2.1965759434	 1.9352884219	 0.08606
H	-1.7003962142	-1.3945442093	-0.4869846331	 0.065518
H	-2.6027421612	 1.1580834407	 0.9754957628	 0.068242
H	-3.8327105869	 1.6175196035	-1.1356162577	 0.110197
H	-3.1448256424	 0.1101429139	-1.8865840065	 0.110037
H	-4.1923188723	-1.2902812791	-0.0651889257	 0.10736
H	-4.8878741643	 0.2081441641	 0.6981935297	 0.10877
48.7734	123.4239	141.667	221.7511	255.1258	290.2945	327.6371	471.9395	515.9138	581.048	699.8195	751.3991	788.2931	800.6879	812.0315	838.0042	909.6871	923.9312	932.4776	977.3753	985.8876	1014.6125	1023.7031	1057.2794	1062.9235	1067.6914	1075.079	1085.3066	1120.7132	1128.414	1166.2635	1175.5301	1195.9371	1228.004	1234.1425	1262.0998	1278.5671	1306.974	1317.7853	1359.9739	1431.3149	1439.5965	1470.4377	1497.5022	1505.5741	3040.1241	3082.2992	3103.2057	3128.0559	3133.5979	3141.9039	3177.3937	3184.5076	3199.158	3205.7868	3221.5556	3817.2268
OC1C2CC2C1C1CC1	O[C@H]1[C@H]2C[C@H]2[C@H]1C1CC1	
InChI=1S/C8H12O/c9-8-6-3-5(6)7(8)4-1-2-4/h4-9H,1-3H2	InChI=1S/C8H12O/c9-8-6-3-5(6)7(8)4-1-2-4/h4-9H,1-3H2/t5-,6+,7-,8+/m1/s1
