16
gdb 125046	2.32482	1.88882	1.05096	5.984	78.85	-0.206	-0.0446	0.1614	1083.2471	0.1254	-430.23043	-430.221869	-430.220924	-430.263685	31.787	
C	 0.0120174834	 1.5567290627	 0.0105330684	-0.499553
C	-0.033175125	 0.0584209949	 0.0202145561	 0.155393
C	-1.171223152	-0.6797365041	-0.0003853137	 0.34747
N	-2.4828517421	-0.2196343928	 0.0558706316	-0.592236
N	-1.0623835389	-2.0562917854	-0.0289504294	-0.304301
N	 0.1070982427	-2.741093942	-0.00852536	-0.042488
N	 1.1886686856	-2.1024500655	 0.0183975116	-0.263244
C	 1.2254308059	-0.6699263225	 0.0565383551	 0.316211
N	 2.3555427828	-0.0657952587	 0.1090193601	-0.528838
H	 0.8285952175	 1.8869471033	-0.6371858907	 0.162045
H	-0.9202537797	 2.0103299029	-0.3416272909	 0.094778
H	 0.2311003672	 1.9569705233	 1.0075149184	 0.144783
H	-2.5549323933	 0.7867291871	 0.0159717215	 0.263525
H	-3.1045134084	-0.6496392007	-0.6186108602	 0.255981
H	-1.8707925678	-2.6437951362	 0.0992675396	 0.273261
H	 3.100210822	-0.7655467763	 0.1049946325	 0.217212
79.0878	96.9301	172.015	247.8418	292.4912	316.5565	341.8845	411.9385	503.189	514.4565	552.4024	573.4181	608.4945	674.812	722.8016	780.5436	889.5539	899.8064	923.1286	1034.0724	1056.9773	1064.2355	1126.0937	1218.1944	1238.0941	1334.0121	1370.1712	1415.2726	1463.2518	1477.7585	1489.8835	1598.2184	1642.1394	1677.7855	1715.2319	3027.701	3082.8432	3114.8108	3463.5027	3538.7477	3645.34	3648.5718
CC1=C(N)NN=NC1=N	Cc1c(N)[nH]nnc1[NH]	
InChI=1S/C4H7N5/c1-2-3(5)7-9-8-4(2)6/h1H3,(H4,5,6,7,8)	InChI=1S/C4H12N5/c1-2-3(5)7-9-8-4(2)6/h2-5,7-9H,6H2,1H3
