16
gdb 27266	3.2304	1.55314	1.07209	1.6179	72.27	-0.1979	0.0221	0.22	1076.4026	0.126585	-437.896472	-437.888934	-437.88799	-437.928548	28.677	
N	-0.0308905135	 1.4282656469	 0.0668405466	-0.593434
C	-0.1031944795	 0.0410304091	 0.0043630985	 0.135577
C	-1.1306067671	-0.8453526862	-0.0012018401	 0.296652
O	-2.4849803906	-0.7894901915	 0.0610320928	-0.285899
C	-2.95520238	-2.1276932973	-0.2449816622	-0.093011
C	-1.7648872733	-3.1214244794	-0.0480900361	-0.382949
C	-0.6098786354	-2.1650875219	-0.0819158502	 0.172188
C	 0.7376525331	-2.0326771853	-0.1183764547	-0.163796
O	 1.0739150664	-0.7132587945	-0.0680838972	-0.185571
H	 0.4546870496	 1.7593955442	 0.8946320976	 0.243408
H	 0.4212000233	 1.8336547894	-0.7466103529	 0.243293
H	-3.8064374819	-2.3342517462	 0.4070504675	 0.119228
H	-3.2982311673	-2.1376386856	-1.2865720794	 0.114745
H	-1.8366793736	-3.6427296292	 0.9133960577	 0.124729
H	-1.7523943136	-3.8816972957	-0.8337002272	 0.122087
H	 1.5624657533	-2.7239949668	-0.1796846008	 0.132752
116.4832	148.1077	177.8865	277.3951	312.3797	323.0262	527.886	593.4811	601.0145	630.6757	690.3884	743.1328	746.9745	768.6969	815.2627	847.4944	939.1902	983.1822	1036.4418	1073.3921	1085.2298	1148.241	1201.5154	1216.1101	1235.825	1270.4911	1284.2441	1311.1254	1380.6228	1445.4214	1490.7404	1516.5224	1631.9788	1659.9929	1756.4361	3030.7618	3036.9911	3086.7971	3110.5097	3263.9762	3491.8998	3556.3688
NC1=C2OCCC2=CO1	Nc1c2OCCc2co1	
InChI=1S/C6H7NO2/c7-6-5-4(3-9-6)1-2-8-5/h3H,1-2,7H2	InChI=1S/C6H7NO2/c7-6-5-4(3-9-6)1-2-8-5/h3H,1-2,7H2
