17
gdb 40542	4.81596	1.12508	1.03909	1.774	73.74	-0.2143	0.0074	0.2217	1164.5097	0.137703	-417.976543	-417.969221	-417.968277	-418.008551	28.566	
C	 0.8220615189	 0.884537037	-0.1710647819	-0.17546
O	-0.1044303917	-0.0162301881	-0.7757126185	-0.242011
C	-0.5070180706	 0.6586127925	 0.4255542378	-0.013409
C	-0.6720018102	-0.2061914719	 1.6165342288	 0.362535
N	-1.391489774	 0.1035646563	 2.6352138611	-0.319931
C	-1.3413960206	-1.0414475414	 3.520038965	 0.001776
C	-1.9327488893	-2.3307539534	 2.9932504057	-0.303708
C	-0.4458951083	-2.0901552089	 2.862272535	-0.024759
N	 0.020022746	-1.4065022427	 1.6819192513	-0.346708
H	 1.6926900452	 0.4217266872	 0.2881586598	 0.128925
H	 1.004395262	 1.806530139	-0.7202062468	 0.127449
H	-1.2749658494	 1.4179541866	 0.3056767223	 0.120453
H	-1.356307345	-0.836880122	 4.5836172582	 0.097427
H	-2.2334422968	-3.0642285432	 3.7330983935	 0.115727
H	-2.5567420342	-2.2825591558	 2.1066834937	 0.115646
H	 0.2724819384	-2.7130498567	 3.3821360569	 0.100462
H	 0.1925901797	-1.9023130344	 0.8190112279	 0.255587
84.9658	147.7187	185.3134	311.9098	380.2313	434.1	510.2469	540.7945	653.7168	719.7052	749.3383	766.6145	811.9812	859.2718	885.753	915.1375	957.9758	994.6564	1014.7009	1025.7344	1047.3786	1088.6881	1095.535	1120.2033	1139.0135	1154.689	1170.3384	1190.8222	1251.4636	1276.3406	1322.2102	1359.56	1399.0709	1455.2691	1465.8594	1517.897	1679.1881	3094.3704	3128.345	3159.9453	3171.8413	3184.7119	3190.1357	3222.8945	3608.8387
C1OC1C1=NC2CC2N1	C1O[C@H]1C1=N[C@H]2C[C@H]2N1	
InChI=1S/C6H8N2O/c1-3-4(1)8-6(7-3)5-2-9-5/h3-5H,1-2H2,(H,7,8)	InChI=1S/C6H8N2O/c1-3-4(1)8-6(7-3)5-2-9-5/h3-5H,1-2H2,(H,7,8)/t3-,4+,5-/m1/s1
