16
gdb 32059	3.63231	1.14182	0.87872	1.9799	78.59	-0.2062	-0.0524	0.1538	1254.9958	0.126482	-434.090666	-434.08269	-434.081746	-434.123512	29.953	
O	 0.2022804635	 1.3661664739	-0.1973804346	-0.393322
C	 0.0239339326	-0.0291616254	-0.1715493596	-0.152746
C	-1.4109084623	-0.4512068292	 0.0427470454	 0.316877
C	-2.4813249427	 0.3804860215	-0.0663687984	-0.134414
N	-3.7682949736	-0.0663002911	 0.1410940853	-0.224357
C	-3.9535128462	-1.310855839	 0.4360680909	-0.064153
C	-2.8916320716	-2.312683278	 0.5749535274	 0.336683
N	-2.9804825283	-3.5599480627	 0.8602808865	-0.561298
N	-1.6267467422	-1.7607766072	 0.3622359731	-0.382542
H	-0.0713231505	 1.717057117	 0.6572823067	 0.292592
H	 0.3720318305	-0.3964305172	-1.1450743239	 0.146027
H	 0.6562184598	-0.5144875105	 0.5922813639	 0.106735
H	-2.3508218433	 1.4185547688	-0.3362012331	 0.1212
H	-4.9737617458	-1.65613127	 0.5999234755	 0.115653
H	-3.9556330322	-3.8217567586	 0.9932128204	 0.216119
H	-0.8531181677	-2.4046901124	 0.4641165448	 0.260946
73.989	150.45	173.2441	206.0964	335.9253	372.3324	439.9274	461.0095	536.6618	560.4954	611.3225	679.5522	738.5821	750.0681	787.097	853.6854	932.6652	933.8052	991.0787	1039.1737	1095.4785	1121.5463	1145.949	1214.9216	1219.6715	1340.6113	1362.7517	1382.4179	1404.3691	1416.7532	1491.2541	1500.3005	1575.2347	1650.361	1700.5126	2955.2965	3049.791	3135.6419	3233.8094	3501.1686	3586.8264	3807.5528
OCC1=CN=CC(=N)N1	OCc1cncc([NH])[nH]1	
InChI=1S/C5H7N3O/c6-5-2-7-1-4(3-9)8-5/h1-2,9H,3H2,(H2,6,8)	InChI=1S/C5H12N3O/c6-5-2-7-1-4(3-9)8-5/h4-9H,1-3H2
