17
gdb 33021	4.98244	0.9428	0.80076	1.5784	78.35	-0.2431	-0.0459	0.1973	1402.6903	0.137184	-418.040948	-418.03269	-418.031746	-418.075	29.231	
C	 0.0029533073	 1.4122178147	 0.0389674575	-0.226804
O	-0.0068782745	 0.0045724428	-0.0095793451	-0.232841
C	 0.6497921904	-0.5854207616	 1.0838015711	-0.129134
C	 0.6038812284	-2.088165423	 0.9634287565	 0.257786
N	 1.1919975228	-2.7726928482	 1.9489177701	-0.294565
C	 1.1582405357	-4.1011584841	 1.8532913399	-0.022156
C	 0.543448865	-4.7485558247	 0.7843905961	-0.011501
N	-0.0452878338	-4.0714394049	-0.2022057547	-0.238604
C	-0.012311065	-2.740439409	-0.1079998935	-0.04182
H	 1.0288907222	 1.8119827692	 0.029101982	 0.109862
H	-0.5267742469	 1.7721346338	-0.8457176483	 0.132646
H	-0.5052338038	 1.7913602183	 0.9392169484	 0.109869
H	 1.7032638681	-0.2615683434	 1.1386441463	 0.112653
H	 0.1830675212	-0.2872399411	 2.0381796683	 0.11276
H	 1.6343033551	-4.6666072215	 2.6506329347	 0.114258
H	 0.5255856645	-5.83364112	 0.7229885566	 0.114524
H	-0.4842868367	-2.1680277674	-0.8979728158	 0.133067
44.075	74.622	150.1357	196.938	223.8396	342.6348	410.3637	418.249	477.5173	616.9515	668.8135	779.7313	853.5641	858.8907	973.6963	992.9112	1006.9775	1034.8089	1045.3921	1080.096	1164.3627	1185.6175	1196.0395	1229.9393	1237.6675	1246.0962	1271.4108	1321.5884	1407.0862	1434.4152	1478.2571	1485.0587	1495.3206	1507.9964	1519.4826	1584.4124	1617.8645	2955.1927	2976.3388	2978.9934	3021.313	3121.6282	3152.5735	3171.893	3205.9226
COCC1=NC=CN=C1	COCc1nccnc1	
InChI=1S/C6H8N2O/c1-9-5-6-4-7-2-3-8-6/h2-4H,5H2,1H3	InChI=1S/C6H8N2O/c1-9-5-6-4-7-2-3-8-6/h2-4H,5H2,1H3
