16
gdb 27562	3.30913	1.19844	0.88462	4.8673	87.05	-0.2602	-0.0496	0.2106	1260.2907	0.126229	-363.707599	-363.699635	-363.698691	-363.741077	29.296	
C	-0.0206092802	 1.5251640668	 0.0096528472	-0.494835
C	 0.0085828266	 0.0167228355	-0.0010992414	 0.32538
C	-0.0360173901	-0.6954015894	-1.1970137556	-0.288558
C	-0.0082107469	-2.0974007505	-1.1999954183	 0.200889
C	 0.0650721068	-2.8017077602	 0.0070183766	-0.20974
C	 0.1096526724	-2.0943364972	 1.2027465817	-0.085996
C	 0.0817260165	-0.7036290055	 1.197743874	-0.184868
C	-0.0551007784	-2.8066196318	-2.4418523197	 0.207737
N	-0.0930845372	-3.37955427	-3.4473196762	-0.335985
H	 0.8775179406	 1.9346608834	 0.4847670392	 0.139106
H	-0.0794411597	 1.9312489158	-1.0029251284	 0.131558
H	-0.8818820862	 1.9000455211	 0.5732835653	 0.139069
H	-0.0930609531	-0.1671040874	-2.1424010272	 0.117843
H	 0.0862084517	-3.8847968506	-0.0019131125	 0.123787
H	 0.1664559894	-2.631493196	 2.1432146265	 0.110983
H	 0.1170761679	-0.1637652839	 2.1394812089	 0.10363
33.3592	142.7243	148.1794	213.0836	338.412	399.5856	462.6566	463.7234	527.9688	578.457	611.2608	713.084	721.7054	817.2072	903.5828	918.0443	938.8622	978.8475	1010.5281	1018.296	1065.2093	1119.6747	1176.0594	1197.5402	1267.1018	1317.6429	1346.9829	1414.1706	1445.4423	1484.4768	1496.4535	1517.8654	1618.4641	1643.0438	2343.3383	3035.5962	3090.5728	3122.244	3170.955	3191.4553	3193.0313	3211.2411
CC1=CC(=CC=C1)C#N	Cc1cc(ccc1)C#N	
InChI=1S/C8H7N/c1-7-3-2-4-8(5-7)6-9/h2-5H,1H3	InChI=1S/C8H7N/c1-7-3-2-4-8(5-7)6-9/h2-5H,1H3
