18
gdb 33533	2.10408	1.66563	1.13087	1.892	77.15	-0.2491	0.0335	0.2825	1115.6767	0.147125	-401.85296	-401.844406	-401.843462	-401.886298	32.231	
C	 0.3025294265	-1.3537717908	-0.2372679625	-0.427861
C	 0.1339528507	-0.1698428843	-0.1127765474	 0.265349
C	-0.0692267706	 1.2607327718	 0.0277792179	 0.060948
C	-0.2553289119	 1.798188304	 1.4778387271	-0.140631
O	 0.7636878735	 2.7935711983	 1.2853603635	-0.269922
C	 1.2135496628	 2.1545721737	 0.0741493667	-0.107549
C	-1.0790904332	 1.7625214435	-0.9996630774	-0.047752
C	-2.5137731595	 1.9388896038	-0.6775148516	-0.24514
N	-1.6496646451	 3.1096834886	-0.9132307614	-0.330206
H	 0.4512071035	-2.3999624015	-0.3443705782	 0.198282
H	-1.2233799649	 2.2411368489	 1.7365493394	 0.107774
H	 0.0189618149	 1.0616114733	 2.2420945401	 0.115883
H	 2.1406467191	 1.5893688954	 0.2249875628	 0.111102
H	 1.3325675945	 2.8652741991	-0.7495361985	 0.124399
H	-0.8135548882	 1.4690627343	-2.0134770457	 0.102948
H	-3.2665323636	 1.7631575498	-1.4403343118	 0.124179
H	-2.8431649886	 1.7219435866	 0.3353671722	 0.114191
H	-1.3887298697	 3.5545723755	-0.0356765653	 0.244007
88.0633	109.3095	151.4658	184.5533	241.9302	291.5346	410.4842	463.9835	514.2657	533.8927	583.8989	633.8132	642.8994	794.2256	851.3548	875.4088	918.2615	951.4479	962.0052	978.0813	990.8436	1036.3031	1063.1843	1096.9056	1145.9046	1159.4734	1163.7672	1172.0966	1238.6072	1243.1065	1259.8015	1305.6103	1307.4109	1365.3954	1412.5312	1505.9962	1516.3524	1534.3268	2235.0767	3022.1012	3032.0526	3073.1587	3090.2841	3110.6614	3124.7999	3193.8754	3499.9343	3500.0529
C#CC1(COC1)C1CN1	C#CC1(COC1)[C@H]1CN1	
InChI=1S/C7H9NO/c1-2-7(4-9-5-7)6-3-8-6/h1,6,8H,3-5H2	InChI=1S/C7H9NO/c1-2-7(4-9-5-7)6-3-8-6/h1,6,8H,3-5H2/t6-/m1/s1
