16
gdb 51935	5.88198	0.46084	0.44537	2.5694	79.5	-0.2601	-0.0352	0.2248	2306.7325	0.121458	-400.740927	-400.73083	-400.729886	-400.780075	33.041	
O	-0.1513892637	 0.1370452288	 0.426026343	-0.227663
C	 0.1337366024	 0.9244067814	-0.4370031393	 0.155294
C	 1.4228736403	 1.7152943407	-0.4947185909	-0.264196
C	 1.1541632276	 3.2286920238	-0.6686876692	-0.366044
C	 2.3781603552	 3.9996605755	-0.8419310527	 0.058521
C	 3.402550014	 4.6124476393	-0.9850400178	 0.125349
C	 4.6395276254	 5.3702008433	-1.1588230409	-0.472814
C	 5.1591007964	 5.3136967305	-2.5321114328	 0.278578
N	 5.5760923533	 5.2750220977	-3.6079585175	-0.29869
H	-0.5641452675	 1.1244301123	-1.2849070041	 0.075714
H	 2.0069312461	 1.5146051348	 0.4062203314	 0.136314
H	 1.9957212701	 1.3591549783	-1.3613109704	 0.140098
H	 0.4989126097	 3.3870885234	-1.5353926925	 0.143758
H	 0.6042469911	 3.6050129869	 0.2029511438	 0.148831
H	 4.485794072	 6.4243542369	-0.8942309388	 0.183685
H	 5.4194752276	 4.9968087062	-0.4827012112	 0.183265
5.8209	51.6224	62.3369	80.6745	118.1808	245.1063	270.0075	297.1202	372.9615	392.6895	438.6462	531.6411	577.7037	756.2128	792.442	850.3516	928.1611	936.2661	990.7454	1074.626	1092.1968	1167.8611	1198.9697	1234.6089	1265.0127	1304.4156	1337.8101	1364.762	1429.1606	1448.0192	1461.8498	1478.672	1841.115	2370.752	2384.2488	2850.1002	3020.4206	3026.2892	3033.4027	3055.2859	3056.2487	3119.3058
O=CCCC#CCC#N	O=CCCC#CCC#N	
InChI=1S/C7H7NO/c8-6-4-2-1-3-5-7-9/h7H,3-5H2	InChI=1S/C7H7NO/c8-6-4-2-1-3-5-7-9/h7H,3-5H2
