18
gdb 38886	3.60069	1.52885	1.1996	3.6687	76.02	-0.2299	0.0255	0.2554	1032.2748	0.150889	-401.9324	-401.925585	-401.924641	-401.963482	27.773	
C	-0.0557747302	 1.5007027923	-0.004983222	-0.282551
C	 1.2993464199	 0.8192819453	-0.0071452657	-0.040485
C	 2.2208921755	 0.8678676668	 1.2234816027	-0.274842
C	 2.1111705933	-0.5021793361	 1.9022726733	-0.141126
C	 2.1220600198	-0.7700600733	 3.4260973127	-0.125009
O	 0.7292102434	-1.2446135872	 3.3572935362	-0.269687
C	 0.6530492412	-0.845433423	 2.0504656883	 0.456166
N	-0.3588215356	-0.6309492407	 1.3367877601	-0.307106
C	 0.0127495515	 0.0012442467	 0.0844972871	 0.003585
H	-0.3459092094	 2.024855517	 0.9004940002	 0.117237
H	-0.4098435825	 1.9565038793	-0.9236820644	 0.110537
H	 1.8148467379	 0.7858213551	-0.961716939	 0.087038
H	 3.2472202111	 1.1058113489	 0.9299251792	 0.105539
H	 1.8977917167	 1.6488688135	 1.9207171609	 0.109683
H	 2.6706370968	-1.2614862047	 1.3490532935	 0.108818
H	 2.787860768	-1.5543792217	 3.7914622946	 0.123534
H	 2.184781427	 0.1166250324	 4.063452902	 0.124166
H	-0.2938315945	-0.5610332707	-0.7923384997	 0.094504
132.3746	188.763	308.9719	347.8019	402.5966	466.5898	501.2358	588.5777	679.0045	757.5624	788.5671	799.5591	818.5355	881.5139	897.3536	939.9761	969.2133	984.3511	1021.5575	1058.443	1070.1223	1108.1601	1124.9825	1132.003	1154.0069	1162.6375	1194.5679	1201.9902	1224.0045	1248.7033	1300.146	1347.3578	1358.171	1374.4565	1383.1277	1476.6158	1495.888	1511.215	1806.9219	3040.3215	3059.6034	3071.1659	3089.5031	3124.0917	3125.5676	3146.0288	3155.4866	3213.1609
C1C2CC3COC3=NC12	C1[C@H]2C[C@H]3CO[C]3[N][C@@H]12	
InChI=1S/C7H9NO/c1-4-2-6(4)8-7-5(1)3-9-7/h4-6H,1-3H2	InChI=1S/C7H9NO/c1-4-2-6(4)8-7-5(1)3-9-7/h4-6H,1-3H2/t4-,5+,6+/m1/s1
