20
gdb 87362	2.01735	1.62343	1.10445	3.9359	81.37	-0.2264	-0.0251	0.2013	1185.0126	0.16877	-403.127784	-403.118444	-403.1175	-403.161981	34.736	
C	-0.4683584303	 1.4087063365	 0.0380204883	-0.408592
C	 0.0897998469	-0.0034650135	-0.0894763078	-0.076848
C	 1.4389947315	-0.1553958362	-0.870306484	-0.377106
C	 2.0323793323	-0.8919462418	 0.3477926156	 0.353628
O	 3.0724327351	-1.440555608	 0.5709542143	-0.302796
C	 0.7741244867	-0.6397167306	 1.1494083435	 0.233879
C	 0.6887580071	-0.2173092001	 2.5840151491	-0.299906
N	 0.2469503814	-1.535269736	 2.174329609	-0.12065
C	-1.1902836704	-1.7776018032	 2.1615292097	-0.32047
H	 0.2782735601	 2.089408	 0.4614421695	 0.119381
H	-0.7642666996	 1.8007123585	-0.9409662959	 0.121546
H	-1.3509816043	 1.4381093598	 0.685706754	 0.118804
H	-0.6737553693	-0.6734226365	-0.4986502701	 0.084766
H	 1.4095803895	-0.7434249066	-1.7910891573	 0.131294
H	 1.9454996014	 0.7928207477	-1.0786091591	 0.129285
H	 1.5946001468	-0.1826317296	 3.1835395929	 0.133128
H	-0.0653727607	 0.5312670034	 2.8278744775	 0.112864
H	-1.7923571728	-0.8920131462	 1.9025261327	 0.105158
H	-1.4170763208	-2.5724442599	 1.4445467899	 0.130028
H	-1.4943516404	-2.1192135075	 3.1554413585	 0.132608
56.38	123.4183	163.3159	185.74	224.8879	241.0551	269.8747	355.2326	379.1824	471.0206	516.2577	541.6707	610.5275	672.2343	740.9875	819.7019	877.1583	894.7124	924.1817	1018.6855	1031.9499	1049.9964	1062.139	1096.6073	1114.8061	1133.2203	1160.4713	1170.4187	1192.7942	1204.864	1241.2914	1261.9938	1357.4309	1385.7925	1410.6843	1441.5433	1447.2783	1488.9271	1491.2964	1493.8456	1496.9805	1504.8457	1889.2102	2975.5589	3027.7847	3047.7959	3056.3819	3074.3858	3084.7437	3095.8521	3099.1949	3110.1134	3114.3061	3180.6053
CC1CC(=O)C11CN1C	C[C@H]1CC(=O)[C@]21CN2C	
InChI=1S/C7H11NO/c1-5-3-6(9)7(5)4-8(7)2/h5H,3-4H2,1-2H3	InChI=1S/C7H11NO/c1-5-3-6(9)7(5)4-8(7)2/h5H,3-4H2,1-2H3/t5-,7+,8?/m0/s1
