18
gdb 86720	2.96267	1.29046	1.0698	2.2356	71.09	-0.2451	-0.0282	0.2169	1141.023	0.147589	-439.065017	-439.056724	-439.05578	-439.098345	31.104	
O	 0.079989404	 1.4025815157	 0.2353218597	-0.432101
C	 0.0237941985	-0.0008603108	 0.0415280548	 0.111789
C	 0.6993009174	-0.8306314941	 1.1588061571	-0.298595
C	-0.1869392066	-2.0816523999	 1.275380021	-0.059075
C	-0.2782766616	-2.6903739114	 2.6619801435	 0.155864
O	 0.44395755	-2.4042004114	 3.5819800243	-0.241435
N	-1.5480240743	-1.7485853892	 0.7796923476	-0.121687
C	-2.095191278	-0.5165405807	 1.3840180528	-0.251496
C	-1.4244873658	-0.464637973	 0.063627433	-0.016363
H	 0.9929915622	 1.6848534592	 0.1218632446	 0.286844
H	 0.4562346156	-0.2654008054	-0.9358340932	 0.071983
H	 1.7385811862	-1.0795248969	 0.9338732271	 0.108336
H	 0.6975642541	-0.2633906668	 2.0931947208	 0.13237
H	 0.1822264963	-2.8808782864	 0.6145502794	 0.105664
H	-1.090540398	-3.44241008	 2.7680018913	 0.095609
H	-3.1788155071	-0.4927631012	 1.4346093949	 0.123172
H	-1.5915537256	-0.0722957981	 2.2376643739	 0.13247
H	-2.0116206372	-0.3545881297	-0.8427506822	 0.09665
64.8246	104.8645	187.7026	194.7333	273.3685	317.0248	401.1992	438.4136	527.1086	585.6907	619.1266	667.2057	762.714	826.2391	862.8455	884.018	940.1193	981.9866	1011.3124	1015.2147	1076.2496	1105.9649	1109.2201	1118.6966	1120.2357	1168.2836	1193.9905	1233.5896	1248.2359	1276.5294	1303.2431	1351.7971	1354.4132	1390.9269	1411.2204	1436.464	1492.5087	1521.6883	1830.8781	2899.5779	2977.7536	2993.4959	3074.2521	3118.4574	3123.8684	3158.1766	3209.3032	3819.5471
OC1CC(C=O)N2CC12	O[C@H]1C[C@@H](C=O)N2C[C@@H]12	
InChI=1S/C6H9NO2/c8-3-4-1-6(9)5-2-7(4)5/h3-6,9H,1-2H2	InChI=1S/C6H9NO2/c8-3-4-1-6(9)5-2-7(4)5/h3-6,9H,1-2H2/t4-,5-,6-,7?/m0/s1
