17
gdb 35710	2.39939	1.51602	1.08608	3.0569	73.52	-0.2544	0.0187	0.2732	1124.1216	0.134352	-421.73554	-421.727002	-421.726058	-421.769588	31.045	
C	-0.1164660851	-1.2571906853	-0.1865679796	-0.45506
C	-0.0520843658	-0.0726578407	 0.0066636249	 0.356166
C	 0.0156089601	 1.363958928	 0.2130355231	-0.063733
O	 0.1152492758	 1.7546649421	 1.6024044566	-0.274629
C	 1.3591245926	 2.4532783977	 1.38215248	-0.088337
C	 1.3611760974	 2.0934019861	-0.1174171461	-0.107978
C	 2.5038628801	 1.2639499247	-0.6413354051	 0.075472
C	 3.9000882785	 1.5598367796	-0.2964094621	-0.188923
O	 3.2171941422	 0.4487134761	 0.2872497069	-0.219882
H	-0.1664189243	-2.306462844	-0.343921987	 0.20383
H	-0.8556896622	 1.8397145413	-0.2568834692	 0.102864
H	 1.2746625411	 3.5205119493	 1.6156095831	 0.101006
H	 2.1768614749	 2.0068172937	 1.9567530042	 0.125818
H	 1.2065494103	 2.9450587611	-0.7854361005	 0.094498
H	 2.3097305889	 0.7746070239	-1.5966596949	 0.103435
H	 4.6962696678	 1.3071463815	-0.9946210931	 0.12085
H	 4.1256338876	 2.3792562449	 0.3857075689	 0.114602
53.9088	84.3514	114.9915	202.9072	228.4178	268.1295	385.4026	518.1443	532.6576	588.1697	626.856	677.6619	733.8173	812.5919	848.3373	894.344	920.179	971.8739	980.1553	1029.7484	1050.552	1081.7837	1098.6411	1126.3659	1163.0011	1167.233	1179.7958	1226.2902	1260.8915	1292.168	1342.9134	1358.5988	1384.3654	1429.832	1515.4661	1531.431	2234.7083	3007.7428	3031.2002	3071.2644	3082.0261	3087.961	3105.6193	3168.7245	3502.3692
C#CC1OCC1C1CO1	C#C[C@H]1OC[C@H]1[C@H]1CO1	
InChI=1S/C7H8O2/c1-2-6-5(3-8-6)7-4-9-7/h1,5-7H,3-4H2	InChI=1S/C7H8O2/c1-2-6-5(3-8-6)7-4-9-7/h1,5-7H,3-4H2/t5-,6-,7-/m1/s1
