18
gdb 91728	2.60502	1.67492	1.50202	2.4545	71.62	-0.2599	0.0235	0.2834	962.195	0.1509	-439.112333	-439.105279	-439.104335	-439.143618	28.984	
O	 0.1069129846	 1.3964052021	-0.125575565	-0.44251
C	 0.0499569808	-0.0048812169	-0.0086185478	 0.157357
C	 0.6630069105	-0.5912253918	 1.3109521638	-0.26675
C	-0.5377418689	-1.3437068731	 1.9549827741	-0.101053
C	-1.2310893355	-1.9277290146	 0.7004562625	-0.248994
C	-1.3961440045	-0.5452368164	 0.0674765222	 0.053151
O	-2.0421690595	 0.216494195	 1.1312613679	-0.282925
C	-1.5440463091	-0.2804541932	 2.3253227148	 0.430101
N	-1.8712132656	 0.1205243102	 3.4732556543	-0.558051
H	-0.5635352048	 1.7531438456	 0.4708336317	 0.289051
H	 0.559207461	-0.4026941156	-0.8911805098	 0.092328
H	 1.477859324	-1.2890508958	 1.1000931756	 0.107085
H	 1.0539800499	 0.2076083088	 1.9443113709	 0.125696
H	-0.2948404982	-2.0134263314	 2.7760408883	 0.097369
H	-0.5906730114	-2.5950621498	 0.118318831	 0.112219
H	-2.185523076	-2.4178298055	 0.9066721112	 0.120893
H	-1.9982286291	-0.4374104193	-0.83303904	 0.092505
H	-2.5657196583	 0.8679415018	 3.4131516643	 0.22253
113.7964	202.449	291.8667	404.3558	415.8267	437.2337	451.2407	509.2528	577.2888	715.4904	739.9359	790.8483	834.7751	847.6527	877.4908	898.9644	934.6038	950.091	957.7536	968.168	1009.3488	1030.3067	1070.9095	1099.1874	1141.1822	1160.7361	1199.0856	1223.7527	1254.1523	1278.3418	1294.5266	1310.1072	1331.4428	1335.1579	1369.0466	1442.9815	1483.1072	1499.4596	1796.571	3061.2759	3068.2785	3074.3778	3121.3526	3125.5171	3141.6035	3155.7362	3464.9408	3775.7563
OC1CC2CC1OC2=N	O[C@H]1C[C@@H]2C[C@H]1O[C]2[NH]	
InChI=1S/C6H9NO2/c7-6-3-1-4(8)5(2-3)9-6/h3-5,7-8H,1-2H2	InChI=1S/C6H9NO2/c7-6-3-1-4(8)5(2-3)9-6/h3-5,7-8H,1-2H2/t3-,4+,5-/m1/s1
