20
gdb 57291	3.65881	0.69201	0.68781	2.0892	86.78	-0.2336	0.0328	0.2664	1762.5403	0.16833	-403.09213	-403.081671	-403.080727	-403.128877	37.788	
C	-0.7527632918	 0.978255729	-0.4200305666	-0.4029
C	 0.1415928947	-0.1251034237	 0.178309302	 0.147881
C	 0.9694578328	 0.4160289559	 1.3601221344	-0.402976
O	-0.6692649168	-1.226020488	 0.6134152455	-0.453685
C	 1.0414802804	-0.6531729483	-0.8533611841	 0.174404
C	 1.7988946567	-1.0491896138	-1.7032565075	 0.021912
C	 2.6946220729	-1.5133349329	-2.7245466432	-0.161017
C	 2.3369001554	-2.718536045	-3.5324643907	-0.224907
N	 2.3202713591	-1.3928257793	-4.1569316494	-0.308192
H	-0.153116067	 1.8074010807	-0.8051714503	 0.126266
H	-1.3552711326	 0.5698384804	-1.234307261	 0.130763
H	-1.4255143951	 1.371574611	 0.3512235748	 0.103496
H	 0.2996700965	 0.8097925593	 2.1336747066	 0.103297
H	 1.5710155616	-0.3864323384	 1.792255228	 0.134632
H	 1.633897269	 1.2234501781	 1.040656971	 0.12607
H	-1.2624315639	-0.886001099	 1.2930578335	 0.276914
H	 3.7487720346	-1.3178347368	-2.5450038319	 0.115699
H	 3.1297457139	-3.3777267107	-3.8743764713	 0.124719
H	 1.3948801111	-3.2074732801	-3.3037098587	 0.128314
H	 1.3618305084	-1.0559323182	-4.2128498913	 0.239311
19.1446	82.2687	89.9125	185.9218	208.683	231.9341	256.4877	273.0135	343.7094	349.4721	397.1261	482.4987	507.5907	568.4044	583.3439	647.9768	803.3339	819.2646	879.6902	917.2372	953.7206	961.0409	986.9426	1017.3539	1048.935	1114.6809	1140.5131	1163.8444	1179.8697	1190.2141	1213.6758	1255.8279	1300.0441	1377.949	1390.168	1404.9006	1411.178	1476.3776	1479.1854	1492.7098	1505.5575	1508.6323	2359.5107	3029.4824	3034.9318	3102.947	3109.5124	3115.7379	3133.6914	3136.3184	3138.1871	3207.0539	3502.8176	3797.6244
CC(C)(O)C#CC1CN1	CC(C)(O)C#C[C@H]1CN1	
InChI=1S/C7H11NO/c1-7(2,9)4-3-6-5-8-6/h6,8-9H,5H2,1-2H3	InChI=1S/C7H11NO/c1-7(2,9)4-3-6-5-8-6/h6,8-9H,5H2,1-2H3/t6-/m0/s1
