21
gdb 66250	2.73791	1.25577	1.18043	1.5594	77.2	-0.2606	0.0606	0.3212	1178.1952	0.182676	-424.215347	-424.206427	-424.205483	-424.249566	33.993	
O	 0.0796461288	 1.4542468444	 0.0878814695	-0.487231
C	 0.0134876993	 0.0289820304	-0.0307702444	 0.384546
C	 0.8041856117	-0.472609423	-1.2564254779	-0.253999
C	 2.2330756264	-0.6603192226	-0.7279446655	-0.226603
C	 2.0083905856	-1.3151910291	 0.6478579511	-0.199512
C	 0.7008599004	-0.6781112193	 1.1829690492	-0.27431
C	-1.4762332453	-0.2566853602	-0.0684644558	 0.056884
C	-2.2391535739	-0.4829093239	-1.2986013478	-0.185479
O	-1.871307069	-1.5744683472	-0.444583596	-0.243786
H	 0.9983990123	 1.6999045712	 0.2350235534	 0.278282
H	 0.3980907348	-1.4420651663	-1.5674514488	 0.116933
H	 0.7239404915	 0.2264667381	-2.0924600751	 0.098289
H	 2.8641919328	-1.2575705848	-1.391366393	 0.098582
H	 2.728371948	 0.3142269023	-0.6152024236	 0.084872
H	 1.8706616851	-2.3936813209	 0.5167281189	 0.108838
H	 2.8539621025	-1.1823189923	 1.3282094662	 0.095597
H	 0.8887979817	 0.0709684605	 1.9584108044	 0.10084
H	 0.0409321085	-1.4310890887	 1.6217870807	 0.118392
H	-2.0104046456	 0.1474925239	 0.7927985836	 0.096193
H	-3.3023237908	-0.2496254703	-1.3213067569	 0.116642
H	-1.7367632246	-0.4588654419	-2.2630055523	 0.116029
39.2519	82.0767	198.643	205.8384	247.6755	263.0446	343.8322	397.1975	467.8044	513.1509	579.3217	589.2429	732.8156	808.6811	856.6204	867.8746	882.4195	906.2449	916.4719	948.1061	978.4687	1014.4772	1024.3475	1050.8574	1077.7125	1102.3581	1155.4339	1169.1208	1175.5269	1181.7598	1211.5839	1239.887	1267.2713	1291.1093	1304.2404	1318.0361	1336.4773	1346.3826	1392.1628	1451.075	1480.6155	1483.3905	1497.9877	1513.7356	1530.5124	3011.2368	3044.041	3046.5523	3054.7966	3086.0688	3091.2423	3092.9972	3102.0065	3104.773	3107.9444	3181.7964	3821.1712
OC1(CCCC1)C1CO1	OC1(CCCC1)[C@H]1CO1	
InChI=1S/C7H12O2/c8-7(6-5-9-6)3-1-2-4-7/h6,8H,1-5H2	InChI=1S/C7H12O2/c8-7(6-5-9-6)3-1-2-4-7/h6,8H,1-5H2/t6-/m1/s1
