20
gdb 112671	3.39273	1.07923	0.85895	4.702	76.65	-0.2442	0.0574	0.3017	1386.5782	0.171216	-440.349466	-440.340031	-440.339087	-440.384202	33.661	
C	-0.0590366226	 1.6040207415	-0.0279624728	-0.388239
C	 0.0374889973	 0.0768439221	-0.0578744401	-0.19298
C	-1.305015925	-0.6119321512	 0.133979573	 0.13235
C	-1.2575010532	-2.1533057529	 0.1175174192	-0.215083
N	-2.1935470057	-2.4747622849	 1.1705014833	-0.131562
C	-2.4505325599	-3.8255206363	 1.6104414736	-0.337215
C	-2.4069706562	-1.3973584464	 1.9989269785	 0.481932
O	-2.9880444737	-1.3814853663	 3.050892207	-0.405403
O	-1.8449912888	-0.2888547439	 1.4305923884	-0.260004
H	 0.9266773493	 2.0600999298	-0.155850524	 0.116588
H	-0.7063646612	 1.9754759064	-0.8298993965	 0.11652
H	-0.473747964	 1.9455278673	 0.9238894104	 0.145943
H	 0.4532793095	-0.259715176	-1.0167405455	 0.102358
H	 0.7200526408	-0.2763454571	 0.7246250509	 0.109716
H	-2.0231456375	-0.250411667	-0.6143261983	 0.092473
H	-1.5666726327	-2.5654323971	-0.8490226599	 0.117292
H	-0.2470549735	-2.5336492064	 0.3404913949	 0.102699
H	-1.5218947113	-4.3471502376	 1.8828940964	 0.119392
H	-3.0964334321	-3.7713917059	 2.4880153131	 0.168326
H	-2.9526259896	-4.4016539782	 0.8255454585	 0.124897
64.6552	103.58	139.8952	153.7475	187.7492	217.4136	246.0778	291.7422	377.9251	438.2887	549.2599	629.7789	677.7788	766.4662	783.8641	824.5407	876.3256	973.1522	1004.2617	1021.1718	1051.7937	1100.9373	1116.3775	1149.9021	1168.03	1179.155	1222.8758	1275.8491	1300.4754	1312.892	1336.3604	1380.332	1410.6896	1412.3052	1434.4376	1453.8759	1474.4418	1491.8109	1497.8391	1508.5709	1515.6707	1542.0449	1870.7511	2968.4746	3003.226	3012.7291	3024.099	3040.2308	3057.1268	3066.2069	3066.9826	3107.5019	3126.6852	3146.9881
CCC1CN(C)C(=O)O1	CC[C@H]1CN(C)C(=O)O1	
InChI=1S/C6H11NO2/c1-3-5-4-7(2)6(8)9-5/h5H,3-4H2,1-2H3	InChI=1S/C6H11NO2/c1-3-5-4-7(2)6(8)9-5/h5H,3-4H2,1-2H3/t5-/m0/s1
