16
gdb 30412	3.8126	1.17279	0.90188	3.3686	80.5	-0.2316	-0.0337	0.198	1248.2125	0.125577	-434.100899	-434.092622	-434.091678	-434.134552	30.183	
C	-0.2618122935	 1.452827242	 0.013442326	-0.327901
N	 0.1664269786	 0.0756001861	 0.0665654178	-0.318043
C	 0.7750440028	-0.4737128886	-0.9085615859	 0.399297
N	 1.1442018313	-1.8139517823	-0.7485497966	-0.391947
C	 1.8009859311	-2.62081578	-1.6412841516	 0.472411
N	 2.0844892762	-3.8261492917	-1.3870755895	-0.566583
O	 2.1361355119	-2.0272608178	-2.8470032533	-0.23073
C	 1.8110029589	-0.728475694	-3.0760095006	 0.078491
C	 1.1715770205	 0.0602276246	-2.2093045692	-0.248237
H	 0.1941016311	 2.0057817041	 0.843827519	 0.12989
H	-0.0314154712	 1.9943566102	-0.9147648924	 0.101056
H	-1.3469187021	 1.5004877334	 0.166521806	 0.12989
H	 0.8983686042	-2.2436379357	 0.1315420594	 0.274226
H	 2.5694063937	-4.2536730844	-2.1716792463	 0.230658
H	 2.1420256358	-0.4192703774	-4.0599669779	 0.143599
H	 0.9552498807	 1.0819670215	-2.4792478149	 0.123922
60.3621	78.6408	134.3891	241.7146	242.0789	372.009	400.1405	468.2184	561.974	602.1941	624.6037	701.9263	713.3984	751.4961	791.1925	803.516	873.0067	957.6094	976.1689	1036.5934	1076.852	1129.876	1131.4763	1156.8736	1273.5136	1308.185	1386.5733	1422.4055	1434.8893	1454.9462	1481.3534	1504.3951	1677.4403	1749.0134	1784.011	2995.6187	3056.8152	3064.6416	3214.7547	3258.9021	3541.9327	3626.4396
CN=C1NC(=N)OC=C1	CN=C1N[C@H]([NH])OC=C1	
InChI=1S/C5H7N3O/c1-7-4-2-3-9-5(6)8-4/h2-3H,1H3,(H2,6,7,8)	InChI=1S/C5H8N3O/c1-7-4-2-3-9-5(6)8-4/h2-3,5-6H,1H3,(H,7,8)/t5-/m0/s1
