23
gdb 104448	2.93825	1.18729	1.08747	1.7964	81.14	-0.2573	0.0766	0.3339	1261.3163	0.206175	-425.439857	-425.430568	-425.429624	-425.473323	36.248	
C	 0.0708696302	 1.5518424944	 0.0693955475	-0.398233
C	-0.0576774518	 0.0256667087	 0.0502134385	-0.195168
C	-1.4931043167	-0.5102270153	-0.0840891443	 0.36632
C	-2.1748077947	 0.0254261869	-1.3549200006	-0.435548
C	-1.4772758679	-2.0558549132	-0.053632892	-0.228144
C	-2.8528590735	-2.6246959721	 0.3027594654	-0.10373
O	-3.3399152018	-2.0259006067	 1.4953887097	-0.231379
C	-3.4174446184	-0.6334193578	 1.3460035144	 0.009726
O	-2.1736595056	-0.0369687302	 1.0989101528	-0.283343
H	 1.1026156806	 1.8440093967	 0.287179801	 0.109932
H	-0.1997477632	 2.0009079868	-0.8910360962	 0.112309
H	-0.5744460934	 1.980891778	 0.840095662	 0.135118
H	 0.5419855894	-0.3950177096	-0.7669001607	 0.089799
H	 0.3499769706	-0.3803752092	 0.9827734139	 0.103221
H	-1.5472298475	-0.1729922882	-2.2296354394	 0.11586
H	-3.1459868606	-0.4409028806	-1.5370974633	 0.114338
H	-2.3308176415	 1.1038386331	-1.2791394788	 0.127986
H	-1.140604193	-2.4516639415	-1.0185210293	 0.094586
H	-0.7624647598	-2.3826066262	 0.7090468814	 0.10674
H	-3.5738385709	-2.4656046137	-0.5162387737	 0.090057
H	-2.7972052017	-3.7001621082	 0.4909932451	 0.110896
H	-4.1378113682	-0.3872580062	 0.5440437387	 0.073867
H	-3.7720978006	-0.2283043558	 2.2964817879	 0.114788
101.6538	143.9651	189.7107	205.2123	235.8899	289.143	327.8031	346.8084	382.4098	413.6792	464.0158	500.0506	530.8134	678.8102	712.5682	777.5064	850.7913	883.6465	908.5574	948.7102	994.6459	999.2419	1011.0113	1055.921	1064.4388	1088.8246	1118.3179	1165.3854	1185.6017	1217.8918	1244.7774	1261.8921	1272.9525	1324.1742	1334.638	1372.4768	1375.99	1398.1108	1405.8719	1408.5544	1446.9451	1465.2429	1476.547	1488.2481	1493.7519	1503.1718	1509.2838	1517.4219	1518.5038	2932.3765	2971.8599	3026.123	3038.4675	3044.0912	3049.495	3066.9727	3084.7868	3091.7202	3103.678	3106.7116	3114.9486	3126.04	3131.4484
CCC1(C)CCOCO1	CC[C@@]1(C)CCOCO1	
InChI=1S/C7H14O2/c1-3-7(2)4-5-8-6-9-7/h3-6H2,1-2H3	InChI=1S/C7H14O2/c1-3-7(2)4-5-8-6-9-7/h3-6H2,1-2H3/t7-/m0/s1
