23
gdb 76677	2.86441	1.04723	0.93383	0.9215	86.46	-0.2273	0.0838	0.3111	1406.4334	0.203787	-388.253097	-388.242929	-388.241985	-388.288777	37.554	
C	-0.0199580553	 1.3914708819	-1.5574142729	-0.406871
C	-0.0500325762	 0.0343011865	-0.8897186495	-0.051284
C	 1.2285413178	-0.6886438523	-0.4770043753	-0.071277
C	 2.6051423693	-0.0933591617	-0.6873699266	-0.400578
C	 0.3026268075	-0.1454113463	 0.5732896328	 0.107893
O	 0.7747974273	 0.9402611997	 1.3232320319	-0.25188
C	-0.1689446095	 1.4685492336	 2.2074094925	 0.149421
C	 0.0471628314	 2.8780310912	 2.6485856089	-0.293094
C	-1.13198858	 2.5355603608	 1.7568720106	-0.288288
H	 0.6606341951	 2.0769711602	-1.0484959188	 0.126891
H	 0.297473356	 1.3139422002	-2.6032954006	 0.11197
H	-1.0159215238	 1.8479484208	-1.5496763231	 0.114684
H	-0.8440740649	-0.6153097375	-1.2511337922	 0.07731
H	 1.1999348894	-1.7693428986	-0.5940860558	 0.080797
H	 2.6361264065	 0.9650740766	-0.4248570692	 0.131998
H	 3.3413785037	-0.604390849	-0.0577710614	 0.116569
H	 2.927084599	-0.2006988534	-1.7290030998	 0.111292
H	-0.2846562233	-0.8505658511	 1.1616340776	 0.078697
H	-0.5249109883	 0.7480090806	 2.9447863544	 0.085348
H	-0.1305891328	 3.1315365573	 3.6875221227	 0.113352
H	 0.876392179	 3.403061337	 2.1882282027	 0.124097
H	-1.0755103198	 2.8514428672	 0.7225286991	 0.122616
H	-2.1296633081	 2.5445545264	 2.182787882	 0.110338
42.2868	93.9041	124.2123	140.8802	167.4609	190.997	228.3854	281.8882	386.7292	410.1635	468.5487	548.2355	598.5335	749.0817	756.0303	771.7853	817.526	832.7227	879.9011	949.3789	963.3449	981.58	990.9204	1042.8027	1050.4124	1057.3341	1071.5209	1112.3198	1127.0486	1135.7697	1157.3683	1181.9838	1182.0334	1192.8873	1203.6977	1244.7041	1263.0323	1359.8847	1368.3879	1404.1225	1410.9656	1419.233	1453.9016	1456.2962	1487.0508	1493.2118	1498.9227	1503.881	1513.1336	3030.6268	3036.4248	3083.3861	3089.5224	3089.7125	3094.9557	3115.0591	3127.1275	3132.0579	3138.2709	3142.3173	3145.0246	3223.3176	3237.9615
CC1C(C)C1OC1CC1	C[C@H]1[C@@H](C)[C@H]1OC1CC1	
InChI=1S/C8H14O/c1-5-6(2)8(5)9-7-3-4-7/h5-8H,3-4H2,1-2H3	InChI=1S/C8H14O/c1-5-6(2)8(5)9-7-3-4-7/h5-8H,3-4H2,1-2H3/t5-,6+,8-
