20
gdb 107038	3.89248	1.12161	0.99895	2.857	79.64	-0.2323	0.0044	0.2367	1253.4109	0.171641	-403.130995	-403.122403	-403.121458	-403.164131	33.451	
C	-0.40740075	 1.4648743789	-0.1817344327	-0.377361
C	 0.1272560249	 0.0467267825	 0.0622791718	-0.298345
C	 0.9294098922	-0.4985210645	-1.0952526885	 0.333685
N	 0.220420495	-0.9716314911	-2.3323382235	-0.38673
C	 0.9823261773	-1.9248920964	-1.4870600894	-0.150835
C	 2.3537366843	-2.2212506332	-2.1070532483	 0.096923
O	 2.2618539375	-2.6608418805	-3.4520716252	-0.438632
C	 3.0637917741	-0.8781686379	-1.9782947671	-0.118903
C	 2.2823309124	 0.0597457141	-1.4441706565	-0.115865
H	 0.4077339221	 2.1778721553	-0.3409726762	 0.123723
H	-1.05081642	 1.4966949491	-1.0667516751	 0.123421
H	-0.9912981348	 1.8141860515	 0.6748530902	 0.115998
H	 0.7539796739	 0.0387040023	 0.962966635	 0.109128
H	-0.7107436985	-0.6324405988	 0.2647834958	 0.094868
H	-0.7716196087	-1.0796693599	-2.1219338126	 0.225591
H	 0.4413066937	-2.6981689959	-0.952644473	 0.087719
H	 2.8767047318	-3.0189520493	-1.5673223377	 0.085465
H	 1.6284731174	-2.0550611202	-3.8632143742	 0.287484
H	 4.0622503806	-0.7301751879	-2.373519304	 0.102959
H	 2.5454040349	 1.1013084219	-1.2982329987	 0.099705
79.4957	121.6988	189.6104	203.3356	254.335	334.4638	371.98	421.152	500.046	521.4046	595.9936	634.0414	714.0804	765.8503	783.0307	829.3485	865.2779	888.6693	936.6036	949.8639	969.5783	999.2785	1004.4644	1051.8033	1079.0522	1091.2781	1113.2153	1125.2013	1157.1952	1254.0364	1269.1569	1293.1506	1307.637	1322.6785	1368.9877	1384.2271	1412.5765	1428.2554	1448.0799	1478.5578	1499.1356	1506.4415	1672.2284	3019.1689	3038.4115	3046.7638	3054.1275	3107.6263	3110.9465	3168.9976	3186.4906	3212.7149	3462.4251	3737.5092
CCC12NC1C(O)C=C2	CC[C@]12N[C@H]1[C@@H](O)C=C2	
InChI=1S/C7H11NO/c1-2-7-4-3-5(9)6(7)8-7/h3-6,8-9H,2H2,1H3	InChI=1S/C7H11NO/c1-2-7-4-3-5(9)6(7)8-7/h3-6,8-9H,2H2,1H3/t5-,6-,7+/m0/s1
