21
gdb 35543	2.39318	1.55111	1.39686	0.7251	85.98	-0.2544	0.048	0.3024	1071.2132	0.184256	-349.927522	-349.919387	-349.918443	-349.960017	32.685	
C	-0.0478270539	-1.1683996364	 0.4810579737	-0.502539
C	-0.0243248789	 0.0168863	 0.2748864843	 0.355507
C	-0.0129112403	 1.4497960766	-0.0096366495	-0.167247
C	-0.7441822651	 2.2999336622	 1.0726247624	-0.236644
C	 0.3201013334	 2.6611233545	 2.1190358692	 0.007167
C	 0.7265977231	 1.5529195858	 3.1360121062	-0.224748
C	 2.1054479208	 1.4021091405	 2.4321967217	-0.224754
C	 1.7125000746	 2.508882244	 1.408356659	 0.007159
C	 1.4194826107	 2.0634300282	-0.0317256739	-0.23663
H	-0.0676093521	-2.2135041868	 0.6671203584	 0.194356
H	-0.4948005613	 1.5905042461	-0.9839095518	 0.101041
H	-1.1145602608	 3.2135944157	 0.5937131425	 0.095583
H	-1.606808338	 1.7770790157	 1.4946937981	 0.107502
H	 0.1154538171	 3.6303487711	 2.5790072625	 0.060554
H	 0.783030604	 1.900435546	 4.1706015326	 0.09189
H	 0.0988940959	 0.6595621183	 3.1076153656	 0.108119
H	 2.9629319503	 1.6619636072	 3.0579143658	 0.091886
H	 2.2879300147	 0.4201491552	 1.9901981567	 0.108142
H	 2.3650869605	 3.3843689362	 1.4308478058	 0.060553
H	 2.1614602703	 1.3651877126	-0.4286776023	 0.107515
H	 1.404025445	 2.9383117172	-0.6917681771	 0.095586
102.5152	113.7098	172.1382	240.6265	337.5032	361.3936	433.5924	514.0645	604.8588	615.2507	621.7774	728.2814	732.5486	737.3343	780.9362	834.073	835.1255	895.3074	911.4608	944.2629	964.5041	965.1338	1015.8132	1070.1269	1080.0118	1081.2825	1153.8019	1162.0699	1176.3962	1207.7875	1239.5069	1245.8919	1265.9108	1268.6803	1282.3963	1318.5046	1331.3523	1342.965	1351.7696	1365.9838	1470.5421	1479.6027	1487.3407	1494.1608	2226.3163	3029.5402	3035.2561	3047.2942	3058.2622	3063.9547	3070.342	3084.6966	3094.5347	3096.4886	3106.7905	3123.724	3503.3588
C#CC1CC2CCC2C1	C#C[C@H]1C[C@H]2CC[C@H]2C1	
InChI=1S/C9H12/c1-2-7-5-8-3-4-9(8)6-7/h1,7-9H,3-6H2	InChI=1S/C9H12/c1-2-7-5-8-3-4-9(8)6-7/h1,7-9H,3-6H2/t7-,8+,9-
