20
gdb 44962	2.46717	1.7414	1.54572	3.7323	77.15	-0.2327	0.0336	0.2663	979.4683	0.175904	-403.21757	-403.210446	-403.209502	-403.248768	29.635	
O	-0.0043872105	-0.031741934	-0.0297921672	-0.392473
C	 0.0028056329	 1.1784543279	-0.0640927128	 0.401479
N	-1.1020347987	 2.0007430392	-0.106901442	-0.288675
C	-0.7483903164	 3.4134004684	 0.0637774052	-0.000914
C	 0.6414514278	 3.4157643378	-0.6039601483	-0.213243
C	 1.2165751235	 2.1237209357	-0.0035663	-0.123028
C	 1.5579759565	 2.3789935798	 1.4855549775	-0.20796
C	 0.3114703094	 2.8034122354	 2.2960540369	-0.201322
C	-0.5994226527	 3.8039782029	 1.5504351769	-0.203895
H	-2.0121543706	 1.6260441528	 0.1144366109	 0.244702
H	-1.4722040392	 4.0556385246	-0.445204259	 0.077264
H	 0.5452053844	 3.3467243168	-1.6912582788	 0.105534
H	 1.2243628903	 4.3069163284	-0.3567706534	 0.097487
H	 2.0692074499	 1.7043300077	-0.5388366647	 0.085823
H	 1.992704217	 1.4787253181	 1.9308952322	 0.115153
H	 2.3253096755	 3.1618084893	 1.5278155625	 0.096097
H	-0.2729941794	 1.906046245	 2.5269950909	 0.117835
H	 0.6156546016	 3.2208692634	 3.2610853779	 0.097046
H	-0.1861177182	 4.819262757	 1.5976649744	 0.099252
H	-1.5805931132	 3.8439613639	 2.0377536108	 0.093838
130.3278	229.2985	253.8192	364.2501	407.8427	462.1286	480.437	502.7633	565.6122	664.4382	737.0499	760.2794	803.0574	819.6562	851.5951	886.7033	894.9431	926.1461	992.6677	1016.546	1041.5665	1050.8185	1059.6972	1101.8393	1119.4476	1166.7318	1203.6763	1232.1369	1256.3618	1286.0935	1297.5623	1323.4392	1330.775	1344.845	1372.4724	1379.8003	1395.4004	1420.6991	1480.24	1483.4829	1492.9707	1504.2653	1832.7513	3024.7456	3027.4033	3041.8197	3053.7291	3063.4064	3071.7034	3077.5187	3087.5755	3104.706	3108.1734	3625.5899
O=C1NC2CC1CCC2	O=C1N[C@@H]2C[C@H]1CCC2	
InChI=1S/C7H11NO/c9-7-5-2-1-3-6(4-5)8-7/h5-6H,1-4H2,(H,8,9)	InChI=1S/C7H11NO/c9-7-5-2-1-3-6(4-5)8-7/h5-6H,1-4H2,(H,8,9)/t5-,6+/m1/s1
