19
gdb 103548	2.28426	1.47032	1.19043	1.671	72.36	-0.2417	0.0235	0.2652	1120.4372	0.15824	-460.158917	-460.149631	-460.148687	-460.192723	35.25	
O	-0.0297019565	 1.375620019	-0.1758280332	-0.444741
C	-0.0298216338	-0.0486278022	-0.3069116729	-0.126973
C	-1.4547410021	-0.4996611974	 0.037325036	 0.365361
O	-1.7737529929	-0.0147577127	 1.3380210603	-0.493961
C	-2.4626707754	-0.0608195928	-1.0091800362	-0.112132
C	-2.9234755389	-1.0807552418	-1.7290524523	-0.075394
C	-2.30141235	-2.3918080014	-1.3160426662	-0.303771
C	-1.6222371305	-2.0417630831	 0.0320721783	 0.061694
O	-0.374973434	-2.6833680125	 0.2465115122	-0.439079
H	 0.8815461456	 1.6751949808	-0.1227964799	 0.294095
H	 0.2399588468	-0.3545530752	-1.3262885384	 0.096046
H	 0.6677649374	-0.5141941494	 0.3975180687	 0.115224
H	-1.4010636762	 0.8760277972	 1.3774901436	 0.281784
H	-2.7315822027	 0.981992809	-1.1274346584	 0.100294
H	-3.6435047936	-1.0042663026	-2.5369610329	 0.09375
H	-3.0291745643	-3.2071028278	-1.2251202866	 0.097755
H	-1.5394951499	-2.7229725764	-2.0349490166	 0.110538
H	-2.3139878082	-2.2594717106	 0.856488907	 0.092495
H	-0.5397433208	-3.62035698	 0.3851132175	 0.287015
68.7056	120.3694	191.5033	227.3356	246.1352	263.2491	310.4214	331.7958	379.1839	460.315	473.0689	530.5523	555.9518	631.1282	708.8955	767.3666	791.3915	904.6029	961.5002	970.166	981.5897	1030.5374	1047.8794	1083.6272	1094.456	1112.7498	1142.1795	1150.1258	1184.6104	1230.6361	1266.3288	1277.8131	1301.0379	1328.0289	1372.173	1391.8871	1437.6736	1441.4146	1489.5127	1504.3444	1687.8018	3013.4174	3014.4658	3017.6262	3053.3752	3073.8104	3181.012	3213.9638	3763.0777	3833.0319	3845.6753
OCC1(O)C=CCC1O	OC[C@@]1(O)C=CC[C@H]1O	
InChI=1S/C6H10O3/c7-4-6(9)3-1-2-5(6)8/h1,3,5,7-9H,2,4H2	InChI=1S/C6H10O3/c7-4-6(9)3-1-2-5(6)8/h1,3,5,7-9H,2,4H2/t5-,6+/m1/s1
