23
gdb 41911	2.08804	2.03163	1.74591	0.065	86.58	-0.2513	0.0716	0.3229	985.5678	0.212051	-351.179281	-351.172191	-351.171247	-351.210396	30.381	
C	 0.0054434885	 1.5254715459	-0.2000482826	-0.220588
C	 1.3971580268	 2.175766012	-0.0010442732	-0.201727
C	 2.3379991958	 1.3875447615	 0.9305545393	-0.011622
C	 1.8499369335	 1.2796314793	 2.38808761	-0.201693
C	 0.5278146929	 0.4913745601	 2.5603856311	-0.22053
C	 0.2290782053	-0.5035973561	 1.4442487856	-0.03457
C	-0.0359475906	 0.0209531479	 0.0441333371	-0.034496
C	 1.2228853293	-0.7664669225	 0.3341952098	-0.046892
C	 2.5440025498	-0.0255374709	 0.3616050379	-0.218391
H	-0.7277996261	 2.0076346899	 0.4599510142	 0.097621
H	-0.3400910668	 1.7323316155	-1.2185107682	 0.093105
H	 1.896928166	 2.2557742313	-0.9741707596	 0.092799
H	 1.2768560074	 3.2018933536	 0.3645232029	 0.087221
H	 3.3038091141	 1.9072228198	 0.9423974311	 0.06205
H	 2.6416925745	 0.77913983	 2.9588649785	 0.092774
H	 1.7443326187	 2.2788040593	 2.8257490153	 0.087195
H	 0.5547361659	-0.0412118203	 3.5169802625	 0.093089
H	-0.3144053228	 1.1913922686	 2.6402009878	 0.09761
H	-0.3830050438	-1.3472014722	 1.7505879001	 0.07222
H	-0.811176471	-0.4998553171	-0.5107871076	 0.072213
H	 1.2648213608	-1.780529486	-0.0536457367	 0.071009
H	 2.9633422925	 0.0349572504	-0.6512638276	 0.085793
H	 3.2714410595	-0.57443281	 0.9739310524	 0.085811
112.036	217.9488	333.2885	343.8031	399.6621	450.3423	505.1282	557.5527	636.7582	736.9712	758.448	759.6953	806.3236	834.2664	841.1034	882.8591	885.8601	915.5722	984.8623	1002.568	1032.5482	1046.5789	1062.7098	1080.2791	1087.9727	1107.7846	1118.4277	1148.7353	1180.9807	1212.3369	1221.1557	1228.6069	1260.238	1290.3174	1317.7592	1340.1604	1351.4666	1355.8615	1359.9122	1377.403	1389.359	1396.9249	1403.1107	1452.5545	1481.2258	1489.5292	1498.5919	1501.6126	1519.7278	3006.6216	3011.6189	3013.6501	3015.9304	3021.6034	3035.4541	3041.1743	3051.1769	3053.9207	3066.2459	3069.5057	3131.9444	3132.1551	3149.5015
C1CC2CCC3C1C3C2	C1C[C@H]2CC[C@H]3[C@@H]1[C@H]3C2	
InChI=1S/C9H14/c1-3-7-8-4-2-6(1)5-9(7)8/h6-9H,1-5H2	InChI=1S/C9H14/c1-3-7-8-4-2-6(1)5-9(7)8/h6-9H,1-5H2/t6-,7+,8-,9+
