15
gdb 85115	2.06338	1.56052	1.31644	3.6022	68.75	-0.2456	-0.0435	0.202	1040.4611	0.10856	-457.719051	-457.7099	-457.708956	-457.752878	33.606	
O	 0.0741191318	 1.4168395023	 0.000542973	-0.440535
C	 0.0919379982	 0.0190681188	 0.0941027253	 0.066702
C	 0.2270528202	-0.4370309106	 1.5709218332	-0.348333
C	-1.3002221456	-0.5695018614	 1.6243045173	 0.349817
O	-2.1290799529	-0.561223699	 2.4772596979	-0.27423
C	-1.3921261751	-0.5447114986	 0.0477830951	 0.13563
O	-2.3337713493	 0.3606346347	-0.4811760345	-0.468154
C	-1.4882309374	-1.8777288735	-0.507247658	 0.249412
C	-1.5680340131	-2.9813762952	-0.9797949568	-0.450443
H	-0.7419428992	 1.6523385827	-0.4651335976	 0.295315
H	 0.7846939946	-0.4339052081	-0.622750095	 0.082394
H	 0.721082962	-1.4066909335	 1.686733661	 0.139575
H	 0.6711959752	 0.2901985547	 2.2518839251	 0.147942
H	-2.7026818566	-0.0134921391	-1.2886554061	 0.301505
H	-1.6435223927	-3.9595776743	-1.3880014598	 0.213405
76.4024	109.1254	143.6165	186.0168	240.3084	282.1269	351.9522	362.7574	457.6324	475.6644	504.0393	520.5583	583.2587	612.8082	686.1788	693.9426	757.5941	841.3288	909.0582	964.149	1030.3045	1037.9841	1075.6	1175.3178	1184.6153	1192.5443	1235.568	1344.6383	1370.7181	1392.0514	1423.2227	1912.5798	2224.3924	3049.9756	3070.9408	3141.8194	3496.8437	3720.2256	3814.3504
OC1CC(=O)C1(O)C#C	O[C@H]1CC(=O)[C@]1(O)C#C	
InChI=1S/C6H6O3/c1-2-6(9)4(7)3-5(6)8/h1,4,7,9H,3H2	InChI=1S/C6H6O3/c1-2-6(9)4(7)3-5(6)8/h1,4,7,9H,3H2/t4-,6-/m0/s1
