21
gdb 89283	2.12381	1.71831	1.13775	2.9259	82.65	-0.2343	-0.0189	0.2154	1158.0872	0.181043	-387.09624	-387.087203	-387.086259	-387.129943	34.816	
C	 0.34403855	 1.6714036761	-0.1256077173	-0.407058
C	 0.0432500019	 0.1835492714	-0.011344084	 0.041796
C	 0.7301964928	-0.8087107665	-0.9992535238	-0.308727
C	 1.2010314353	-1.703018246	 0.1876788427	 0.369147
C	 0.780935696	-3.1560197821	 0.1873374624	-0.495243
C	 2.6485219809	-1.3672217685	 0.6536770012	-0.412587
C	 2.0659713611	-0.2670918368	 1.5593925114	 0.427077
O	 2.5573335318	 0.5453166497	 2.2908219979	-0.311685
C	 0.6217497228	-0.6245449438	 1.1968952083	-0.228256
H	 1.4203912446	 1.8697297814	-0.1076785638	 0.124905
H	-0.0563872776	 2.0740383883	-1.0626010598	 0.113483
H	-0.1059321204	 2.231527706	 0.7007943116	 0.124281
H	-1.0404542731	 0.0318693698	-0.0325792504	 0.082231
H	 0.0428830768	-1.3020235166	-1.6913443216	 0.101257
H	 1.5469520766	-0.3760096636	-1.5858328754	 0.096877
H	 1.2968795834	-3.7135109046	-0.6038718017	 0.120812
H	 1.0154066892	-3.6412932229	 1.1415760102	 0.11574
H	-0.2959261725	-3.2605352095	 0.0145206094	 0.116715
H	 3.0959725816	-2.1637366632	 1.2609143261	 0.126823
H	 3.3793579977	-1.0566540125	-0.0992433015	 0.120515
H	-0.0505513388	-0.8350600661	 2.0316129481	 0.081897
52.8776	117.8927	215.032	223.0684	233.3346	290.9732	358.0463	364.76	388.2098	443.6329	560.4746	571.2451	590.4599	706.0378	815.0389	823.3559	866.6344	896.0392	924.0834	939.0632	949.4381	1001.8786	1020.3356	1060.7476	1102.5463	1115.4901	1140.8124	1146.2059	1171.1527	1209.7655	1230.1892	1236.4754	1262.8546	1304.1466	1328.229	1361.557	1414.9558	1415.2827	1434.5459	1486.8583	1491.8556	1493.2861	1494.6285	1496.1177	1877.7423	3019.2062	3030.615	3036.4553	3046.2968	3048.2123	3082.7754	3088.805	3090.2498	3094.5005	3097.4545	3099.8939	3106.7651
CC1CC2(C)CC(=O)C12	C[C@H]1C[C@@]2(C)CC(=O)[C@@H]12	
InChI=1S/C8H12O/c1-5-3-8(2)4-6(9)7(5)8/h5,7H,3-4H2,1-2H3	InChI=1S/C8H12O/c1-5-3-8(2)4-6(9)7(5)8/h5,7H,3-4H2,1-2H3/t5-,7+,8-/m0/s1
