18
gdb 31575	3.28241	1.15125	0.86547	1.3595	75.97	-0.188	0.0577	0.2457	1333.5734	0.147756	-435.303262	-435.293492	-435.292547	-435.338114	34.517	
C	-0.0044150697	 1.3619805681	-0.0415170772	-0.232468
O	-0.0243484844	-0.0631234288	 0.0408820082	-0.273746
C	-1.2501128185	-0.605519207	 0.0340543024	 0.475454
N	-2.3999688302	 0.0121925825	-0.0366923331	-0.424909
C	-3.3548581168	-1.0000178318	-0.0081970724	 0.248431
C	-4.8142166104	-0.6939652901	-0.0706070225	-0.490685
C	-2.7489044652	-2.2242006977	 0.0805669548	 0.155076
N	-3.1876493142	-3.5643376366	 0.1437631074	-0.61834
N	-1.376373866	-1.951635494	 0.1072146488	-0.353213
H	 1.0487060757	 1.6451195196	-0.0253925048	 0.126447
H	-0.4785616937	 1.7043380897	-0.9660980788	 0.137517
H	-0.5334498068	 1.8075911072	 0.806075639	 0.137562
H	-5.0704483524	-0.1581612943	-0.991655725	 0.128999
H	-5.405832228	-1.6137247555	-0.036382449	 0.101181
H	-5.1246230345	-0.0578771327	 0.7661165702	 0.129
H	-3.7665645136	-3.7433777585	 0.9567023111	 0.244524
H	-3.7152504606	-3.8372825025	-0.6779554567	 0.244516
H	-0.6406862107	-2.6344767276	 0.1688219175	 0.264654
82.9169	92.3896	135.4592	143.4462	193.8134	215.0905	239.2211	263.0687	374.5194	385.1401	488.442	537.3927	642.7993	664.2174	670.939	734.1955	761.5744	813.9213	989.7776	1029.6325	1063.5407	1092.9202	1164.6108	1183.0287	1208.9262	1216.4201	1230.8185	1296.4298	1398.1141	1428.5889	1460.7823	1476.0442	1477.4845	1491.5401	1499.8855	1514.0213	1616.0863	1640.2369	1670.1058	3026.8772	3040.6143	3078.6987	3106.1261	3110.4136	3149.0205	3508.4557	3573.8988	3675.7591
COC1=NC(C)=C(N)N1	COc1nc(C)c(N)[nH]1	
InChI=1S/C5H9N3O/c1-3-4(6)8-5(7-3)9-2/h6H2,1-2H3,(H,7,8)	InChI=1S/C5H9N3O/c1-3-4(6)8-5(7-3)9-2/h6H2,1-2H3,(H,7,8)
