22
gdb 104783	2.32367	1.43012	1.15428	1.6451	81.91	-0.2273	0.0809	0.3082	1199.2494	0.193198	-404.292947	-404.283482	-404.282538	-404.326864	36.012	
C	 0.5394638265	 1.1679724214	 0.326929044	-0.384936
C	 0.118711603	-0.2629923687	-0.0230259081	-0.249086
C	 0.5771109291	-0.7045805992	-1.4103523215	 0.4505
C	 2.1202893602	-0.8862243084	-1.6458791203	-0.277235
C	 1.8620644522	-2.351293219	-2.0042109262	-0.040512
N	 1.23937029	-2.9656329701	-0.8050808995	-0.338243
C	 0.4044936323	-2.2048045929	-1.7688561848	-0.13144
O	 0.1110098312	 0.1370258967	-2.4573475961	-0.298035
C	-1.2909925509	 0.2286302695	-2.5994221634	-0.253595
H	 1.6297249038	 1.2719531124	 0.3249803993	 0.117853
H	 0.1422035321	 1.8887028504	-0.3938097027	 0.122598
H	 0.1815585351	 1.4479767934	 1.3223164679	 0.108088
H	 0.5359589283	-0.9735739973	 0.6961387763	 0.124334
H	-0.9722613711	-0.360083495	 0.0503684873	 0.086574
H	 2.4329365148	-0.2775947195	-2.4950234471	 0.117187
H	 2.776968777	-0.7199505817	-0.7889034706	 0.099838
H	 2.3913366977	-2.9620601304	-2.7249202163	 0.09022
H	 1.0980928578	-3.9549046863	-1.0092227487	 0.227686
H	-0.4355163046	-2.672963229	-2.2671127758	 0.088265
H	-1.7719152288	-0.7575372044	-2.6689414982	 0.102797
H	-1.7633345663	 0.7829445152	-1.7768689492	 0.111485
H	-1.4757699392	 0.7694012432	-3.5311776964	 0.125656
105.077	118.1397	157.5366	190.2523	197.313	214.7253	276.9812	337.3916	385.2687	434.8678	496.7641	527.1032	639.7915	764.7041	785.9099	818.4337	841.6968	883.2489	931.088	951.8774	964.768	984.3417	1020.4182	1024.4247	1085.8945	1103.6609	1112.216	1117.8875	1145.7135	1180.338	1192.7915	1212.8615	1231.2971	1264.2015	1295.5462	1306.1002	1327.7533	1369.1222	1384.0007	1409.9849	1461.9819	1476.2532	1484.8085	1497.1773	1500.2251	1504.3263	1513.9932	2991.3996	3026.4783	3038.2301	3042.3039	3070.9314	3087.0471	3103.9352	3109.4046	3114.0644	3142.3764	3182.6656	3196.4764	3468.4716
CCC1(CC2NC12)OC	CC[C@]1(C[C@H]2N[C@@H]12)OC	
InChI=1S/C7H13NO/c1-3-7(9-2)4-5-6(7)8-5/h5-6,8H,3-4H2,1-2H3	InChI=1S/C7H13NO/c1-3-7(9-2)4-5-6(7)8-5/h5-6,8H,3-4H2,1-2H3/t5-,6-,7-/m1/s1
