16
gdb 126402	5.38878	0.89315	0.81658	4.0581	76.07	-0.2791	-0.0632	0.2159	1395.8647	0.124945	-434.094748	-434.086446	-434.085502	-434.128843	29.179	
C	 0.167669922	 1.3946990499	-0.3933714745	-0.376426
C	-0.0613507355	 0.0540003576	 0.3263980456	-0.294407
C	-1.4475237158	-0.4766109844	 0.1384480127	 0.311229
N	-2.3633009629	-0.4367166856	 1.0913613485	-0.278891
N	-3.4559411271	-0.982743263	 0.519391535	 0.069958
C	-4.6517675656	-1.1119513238	 1.2594076178	 0.2078
O	-5.6610248885	-1.5837665316	 0.8296003638	-0.245887
N	-3.3013852883	-1.3772597999	-0.7532577592	-0.188416
C	-2.0461680544	-1.0671745267	-1.0129139468	-0.099294
H	 1.1930086144	 1.7420825289	-0.2379719518	 0.123964
H	 0.002868147	 1.3015216612	-1.4713889261	 0.123741
H	-0.5147327301	 2.1610158938	-0.0146539197	 0.133596
H	 0.6587788253	-0.6858377602	-0.0422936545	 0.118946
H	 0.1182938626	 0.1697152619	 1.3988723992	 0.130396
H	-4.4942601015	-0.711817474	 2.2734460052	 0.126051
H	-1.6144911416	-1.270999224	-1.9813795252	 0.13764
34.6948	93.6473	173.9203	190.2733	242.1917	273.6246	353.186	397.9349	531.991	671.4846	677.1264	741.3959	793.6908	830.4147	904.1377	968.3308	981.2585	1031.4973	1033.8179	1075.5073	1099.219	1203.3713	1251.6672	1284.6798	1332.9962	1350.1018	1408.6274	1412.3913	1428.1826	1447.6805	1481.6616	1498.2635	1506.6386	1584.0972	1855.574	3028.8349	3040.8223	3042.7863	3092.0911	3115.9678	3121.2003	3257.4879
CCC1=NN(C=O)N=C1	CCc1nn(C=O)nc1	
InChI=1S/C5H7N3O/c1-2-5-3-6-8(4-9)7-5/h3-4H,2H2,1H3	InChI=1S/C5H7N3O/c1-2-5-3-6-8(4-9)7-5/h3-4H,2H2,1H3
