19
gdb 127246	5.30502	0.73846	0.68804	2.3704	79.61	-0.2293	0.024	0.2533	1647.6505	0.159931	-419.223779	-419.214257	-419.213313	-419.259608	33.167	
C	-0.0881186925	 1.443062858	 0.1367526216	-0.318787
N	 0.0046061957	 0.006526271	-0.0055062339	 0.064805
C	 0.0509840262	-0.7166614192	-1.1524068282	-0.13275
C	 0.0424179401	-2.0540921419	-0.8001594439	 0.170364
C	 0.1220690115	-3.2500134115	-1.7003462517	-0.308895
C	 1.5365299319	-3.8275603792	-1.791207061	-0.058923
O	 1.4893622252	-4.9528335219	-2.6541707162	-0.418472
C	-0.0160744383	-2.0194691297	 0.6124319903	-0.07641
N	-0.0427774028	-0.7771982565	 1.0888059318	-0.271374
H	 0.3240642643	 1.9216003581	-0.7539357308	 0.136583
H	-1.1272375573	 1.7636745157	 0.2676991506	 0.142832
H	 0.4872669591	 1.7482320285	 1.0121410356	 0.155655
H	 0.0826993067	-0.2368243592	-2.1187404119	 0.126544
H	-0.5458014956	-4.043368435	-1.3460543682	 0.114281
H	-0.208529806	-2.9928186937	-2.7123217388	 0.107636
H	 2.2233360928	-3.0544677353	-2.1710870591	 0.085329
H	 1.8847837174	-4.1050735295	-0.7837968877	 0.089363
H	 2.372329804	-5.3296381755	-2.7067398339	 0.285708
H	-0.038816662	-2.8548174432	 1.2984620854	 0.10651
43.8319	62.3995	92.4209	103.7777	195.9293	253.2261	267.4455	342.6099	370.283	416.4682	632.207	663.9715	698.9792	773.7982	794.2983	803.4727	881.6556	1004.1733	1008.064	1031.3397	1053.6466	1075.6196	1077.679	1148.8928	1187.2168	1207.4515	1239.5796	1240.7235	1309.2325	1327.0892	1348.3709	1401.072	1420.1526	1448.2533	1454.6616	1474.0523	1484.7293	1492.071	1521.6179	1526.2207	1609.3817	2969.1378	2998.0411	3040.5796	3041.8947	3083.8689	3114.6543	3150.0763	3233.9016	3250.2775	3830.9611
CN1C=C(CCO)C=N1	Cn1cc(CCO)cn1	
InChI=1S/C6H10N2O/c1-8-5-6(2-3-9)4-7-8/h4-5,9H,2-3H2,1H3	InChI=1S/C6H10N2O/c1-8-5-6(2-3-9)4-7-8/h4-5,9H,2-3H2,1H3
