17
gdb 57834	2.28575	1.38509	0.99013	3.9459	79.17	-0.2321	-0.0849	0.1472	1220.6203	0.133291	-417.973132	-417.963143	-417.962199	-418.008435	35.085	
C	-0.1095153544	 1.2628247559	-0.0382955513	-0.31957
N	-0.314730663	-0.1160973937	-0.4593106415	-0.099241
C	-0.8684720383	-0.9755424846	 0.5799263753	-0.346945
C	 0.595708249	-0.6202820533	-1.3627712371	 0.295857
N	 1.6032261871	 0.059676523	-1.7619861469	-0.517479
C	 0.3041722917	-1.9732199564	-2.0157561953	 0.159685
O	 1.2106921648	-2.648312804	-2.4543343133	-0.281237
C	-1.0788882523	-2.3596447855	-2.2152629591	 0.280846
C	-2.2145175718	-2.6935986247	-2.4359052029	-0.419976
H	 0.7360585863	 1.3632352482	 0.6571022554	 0.125025
H	 0.1015040567	 1.882078517	-0.9099798537	 0.153527
H	-1.0188177099	 1.6146428752	 0.4576438417	 0.116152
H	-0.9665553109	-2.002823948	 0.2309418504	 0.141868
H	-0.2345907258	-0.9773126578	 1.4797240366	 0.123279
H	-1.863802665	-0.6183406909	 0.862503174	 0.130934
H	 2.0990957296	-0.4663969163	-2.4820905369	 0.236678
H	-3.2170764636	-2.9894198344	-2.6306368455	 0.220599
47.5457	92.4196	126.688	177.7549	187.1871	202.9301	259.568	281.9858	354.6908	381.6993	423.5567	472.1169	589.4868	648.1606	660.4128	696.7747	720.4333	811.9635	868.8236	933.887	1074.8933	1082.5173	1125.5087	1145.604	1175.3323	1239.426	1309.3902	1428.8134	1448.6744	1469.6971	1479.8626	1486.8026	1502.5843	1526.8184	1670.9894	1751.7279	2207.8395	2991.2748	3007.5202	3075.7409	3085.0831	3152.1962	3153.0172	3486.3467	3492.4278
CN(C)C(=N)C(=O)C#C	CN(C)C(=N)C(=O)C#C	
InChI=1S/C6H8N2O/c1-4-5(9)6(7)8(2)3/h1,7H,2-3H3	InChI=1S/C6H8N2O/c1-4-5(9)6(7)8(2)3/h1,7H,2-3H3
