23
gdb 66147	3.77601	0.74614	0.69362	1.7787	86.15	-0.2585	0.0887	0.3473	1728.5449	0.204311	-388.264525	-388.254583	-388.253639	-388.300383	36.946	
C	 0.2804128549	 1.458790026	-0.64635646	-0.462188
C	-0.0290113009	 0.0702500025	-0.1271824276	 0.430458
C	-1.4682160718	-0.4056751629	-0.2287171423	-0.256146
C	-2.4408720165	 0.3806852932	 0.6654208375	-0.207941
C	-3.8483785738	-0.1760124422	 0.6290641977	 0.034549
C	-4.232143636	-1.336093627	 1.5145920037	-0.255867
C	-4.7893431782	 0.0408203446	 1.7857084722	-0.278663
C	 1.0520898347	-0.9256027116	-0.0632955792	-0.231835
O	 0.6103929246	-0.2566329786	 1.1205094759	-0.278707
H	 1.3397669057	 1.6905433276	-0.5121497529	 0.125286
H	 0.038059943	 1.5370566152	-1.7118295247	 0.118551
H	-0.3003757419	 2.2183093664	-0.1138819673	 0.12937
H	-1.7927509198	-0.3444654864	-1.2762879406	 0.093192
H	-1.5083604007	-1.4632303422	 0.0536014563	 0.103548
H	-2.0641240922	 0.356897857	 1.6954361552	 0.110071
H	-2.4600339274	 1.436188788	 0.3652207032	 0.095287
H	-4.3068188628	-0.1680815151	-0.3577143033	 0.076908
H	-4.89978563	-2.0947267713	 1.121127118	 0.108155
H	-3.4804734816	-1.718639886	 2.1978978034	 0.11317
H	-4.4115231915	 0.5768915224	 2.650436844	 0.110786
H	-5.8372519219	 0.2241312333	 1.5747824547	 0.108488
H	 0.8144574301	-1.9877121001	-0.1172865604	 0.107183
H	 2.053390234	-0.6611846229	-0.4029818136	 0.106344
44.433	59.1913	112.8024	128.5958	201.3452	233.2087	324.4107	353.181	373.5312	378.9924	452.0387	503.3724	725.9938	758.4817	778.0567	821.6049	832.3615	847.4612	904.0871	919.7039	936.6566	961.7977	991.2329	1040.5901	1055.4974	1064.1373	1079.2119	1093.7446	1135.6051	1137.8438	1146.6274	1177.4055	1199.0339	1224.7966	1233.5159	1280.2451	1286.9859	1330.7663	1369.357	1405.537	1416.1412	1423.417	1466.9142	1471.2224	1487.1039	1493.998	1500.427	1508.2349	1531.7693	3016.6344	3022.4836	3038.5649	3054.8725	3074.1069	3078.1074	3102.8089	3123.4605	3124.8431	3127.3278	3132.9097	3158.2061	3205.0097	3220.1815
CC1(CCC2CC2)CO1	C[C@@]1(CCC2CC2)CO1	
InChI=1S/C8H14O/c1-8(6-9-8)5-4-7-2-3-7/h7H,2-6H2,1H3	InChI=1S/C8H14O/c1-8(6-9-8)5-4-7-2-3-7/h7H,2-6H2,1H3/t8-/m1/s1
