18
gdb 66839	2.71823	1.93003	1.45702	1.0564	74.81	-0.2086	0.0692	0.2778	946.916	0.147906	-401.849598	-401.842202	-401.841257	-401.880932	29.952	
C	-0.1428440271	 1.528661087	-0.0411957354	-0.531054
C	-0.0267864814	 0.0424121258	 0.0418480816	 0.281166
C	 0.0422258356	-1.0403701097	-1.0126701748	-0.172604
N	 1.1784017982	-1.7907992962	-0.3987675452	-0.152821
C	 0.5187320273	-2.95673791	 0.3054832922	-0.185277
C	-0.2860283349	-1.9288266441	 1.1237554897	-0.14935
C	 0.8835597758	-0.9221660649	 0.8452106521	-0.067262
C	-1.046874219	-1.0785945571	 0.0707164946	 0.33675
O	-2.398523153	-0.9678899192	-0.1601892827	-0.465154
H	 0.7906635795	 1.9851083673	-0.3883248857	 0.126007
H	-0.9370261114	 1.8102710665	-0.7399858538	 0.132592
H	-0.3910476843	 1.9648289857	 0.9330040436	 0.124034
H	-0.1527636457	-0.9991240278	-2.0780343644	 0.087495
H	-0.0127548107	-3.6574475266	-0.3477089891	 0.091691
H	 1.2698778146	-3.4922487394	 0.8933104829	 0.106775
H	-0.7453426774	-2.1097838316	 2.0950258061	 0.072906
H	 1.6986208519	-0.6754403589	 1.5240304308	 0.077508
H	-2.680541738	-1.7015558967	-0.7186043824	 0.286598
174.7095	191.2261	228.6354	273.4803	311.546	354.7689	466.6214	568.0974	620.8335	640.676	733.4579	777.6843	821.947	830.3903	852.9031	886.8473	909.5331	921.3159	939.1928	979.3518	1009.2199	1049.9031	1089.3117	1114.3171	1138.2612	1151.4606	1168.7041	1192.1609	1199.9004	1205.184	1230.7751	1277.55	1296.7637	1363.7713	1414.3635	1484.159	1489.2765	1499.6204	1502.3968	3026.3195	3039.575	3086.9233	3100.8779	3101.4986	3118.8818	3128.2477	3181.8387	3778.9326
CC12C3N4CC(C14)C23O	C[C@@]12[C@H]3N4C[C@@H]([C@H]14)[C@@]23O	
InChI=1S/C7H9NO/c1-6-4-3-2-8(4)5(6)7(3,6)9/h3-5,9H,2H2,1H3	InChI=1S/C7H9NO/c1-6-4-3-2-8(4)5(6)7(3,6)9/h3-5,9H,2H2,1H3/t3-,4+,5+,6-,7-/m0/s1
