18
gdb 38786	2.90126	2.03469	1.69196	0.6741	73.53	-0.2117	0.0754	0.2871	866.9342	0.150448	-401.8707	-401.864389	-401.863445	-401.90096	27.116	
C	 0.0401227999	 1.5591611019	-0.1716269423	-0.344698
C	 1.3228272375	 0.766479597	-0.0471530194	 0.112545
O	 2.1363508771	 0.8077622768	 1.0925016204	-0.266254
C	 1.5870991229	 0.3063254316	 2.3004028926	 0.092981
C	 0.377932059	 1.0844200339	 2.9233212314	-0.288136
C	-0.5228824666	-0.1060764391	 2.5629093764	-0.049951
C	 0.6807192573	-0.9355284933	 2.1767597164	-0.079295
N	-0.363414626	-0.6363585117	 1.2211222118	-0.095229
C	-0.0007935044	 0.0529656274	 0.0025246496	-0.020307
H	-0.2830028453	 2.1971173791	 0.6374486892	 0.125141
H	-0.2102157601	 1.9362321163	-1.1578237503	 0.113998
H	 1.94390327	 0.6629611198	-0.9302016451	 0.102288
H	 2.434798825	 0.2011023882	 2.9778412974	 0.092181
H	 0.4999024505	 1.1430169443	 4.0093019549	 0.108022
H	 0.1450782536	 2.0816205923	 2.5507183515	 0.107481
H	-1.4078957456	-0.4148386693	 3.1083701737	 0.098886
H	 0.9425860496	-1.9666715831	 2.3876109647	 0.091592
H	-0.2976599444	-0.5243862822	-0.8685073328	 0.098756
200.4406	236.0341	368.5173	422.9493	461.6727	536.2735	595.1558	654.4694	734.585	760.7881	791.7551	838.4779	858.015	874.7031	879.1307	904.4372	962.2581	976.6112	997.9987	1023.36	1029.187	1058.6924	1072.2761	1102.0142	1128.2119	1132.3804	1154.7674	1174.7309	1197.5065	1238.1582	1246.0929	1274.5386	1296.6135	1357.2408	1373.39	1388.8819	1415.3525	1466.2048	1507.7627	3063.4713	3109.9549	3128.3925	3133.0269	3148.6387	3164.5864	3167.356	3177.2368	3254.7429
C1C2OC3CC4C3N4C12	C1[C@H]2O[C@H]3C[C@@H]4[C@H]3N4[C@@H]12	
InChI=1S/C7H9NO/c1-3-5(1)9-6-2-4-7(6)8(3)4/h3-7H,1-2H2	InChI=1S/C7H9NO/c1-3-5(1)9-6-2-4-7(6)8(3)4/h3-7H,1-2H2/t3-,4+,5+,6-,7+,8?/m0/s1
