15
gdb 42571	3.07698	2.20437	1.70316	3.8228	68.26	-0.2361	-0.0075	0.2287	802.7247	0.115391	-416.731181	-416.725485	-416.72454	-416.761109	23.988	
N	-0.0622840468	 1.2391070809	-0.0953013498	-0.503729
C	 0.0523181546	-0.0142672111	-0.0064484415	 0.417495
C	 1.2769427991	-0.9074496238	 0.0425552607	-0.038741
O	 1.3507364133	-1.5357564433	-1.2789046852	-0.297461
C	 0.5024101938	-2.5875691767	-0.7830812867	 0.100769
C	-0.9870769474	-2.1903847384	-0.587286723	-0.073306
C	-0.7844896633	-2.0289971598	 0.8860391812	-0.084929
C	 0.7480711152	-2.2194570907	 0.6941684278	-0.114636
N	-1.1125146527	-0.8588056337	 0.0688813992	-0.135776
H	 0.8617227611	 1.6766054121	-0.100068855	 0.225441
H	 2.2183535204	-0.4406564848	 0.3367422124	 0.091247
H	 0.6890335425	-3.5628602856	-1.2345162192	 0.096243
H	-1.8444812595	-2.5209788599	-1.161219962	 0.111542
H	-1.4038619827	-2.2843552813	 1.7358732281	 0.110874
H	 1.3639826024	-2.7971057738	 1.375629363	 0.094968
150.8119	340.9394	426.5326	495.2867	591.3234	689.2096	706.7246	758.2228	789.3157	797.3727	845.8452	858.7536	888.7808	902.5634	930.4031	939.58	950.7721	969.0488	1002.453	1019.8278	1036.1148	1068.1972	1132.0083	1186.2838	1197.4867	1203.6782	1236.3798	1260.9754	1280.3829	1313.0855	1335.4976	1346.5	1770.2586	3102.7045	3110.0715	3173.6694	3185.056	3204.6943	3454.2018
N=C1C2OC3C4C(C23)N14	[NH][C]1[C@@H]2O[C@@H]3[C@H]4[C@@H]([C@H]23)N14	
InChI=1S/C6H6N2O/c7-6-5-1-2-3(8(2)6)4(1)9-5/h1-5,7H	InChI=1S/C6H6N2O/c7-6-5-1-2-3(8(2)6)4(1)9-5/h1-5,7H/t1-,2+,3+,4-,5+,8?/m0/s1
