13
gdb 48018	3.85162	0.75191	0.6792	2.9566	73.54	-0.2734	-0.0768	0.1966	1568.7747	0.085947	-456.52023	-456.511566	-456.510622	-456.555457	28.815	
O	-0.4236751512	 0.3079937619	-0.4702236039	-0.222516
C	 0.095580775	 0.972393059	 0.3958464149	 0.025428
C	 1.2723818087	 1.7821938318	 0.2031892883	 0.028911
C	 2.2600070071	 2.4672340081	 0.0761812663	 0.149082
C	 3.4153166686	 3.3159000297	-0.0785781725	-0.187808
O	 3.9499800357	 3.3955640375	-1.4221714054	-0.266244
C	 3.7472690818	 4.8177526093	-1.5476854534	-0.183825
C	 3.1546369383	 4.8630808042	-0.1396602471	 0.34171
O	 2.7042018344	 5.676065864	 0.5956906319	-0.240035
H	-0.3081925322	 1.0067868507	 1.4276729844	 0.108426
H	 4.1945680611	 3.0544577729	 0.6512311688	 0.148064
H	 4.681619385	 5.3776533878	-1.6763128704	 0.145683
H	 3.0471128778	 5.079876153	-2.350515042	 0.153124
47.1281	66.4699	92.8935	127.8576	202.9989	255.828	398.3032	418.6032	434.8958	576.0237	643.4593	703.2248	767.1954	873.7624	965.4481	1003.6143	1010.9462	1018.5146	1048.702	1134.9368	1158.1605	1197.9808	1293.9873	1319.426	1419.9778	1477.8711	1768.2891	1942.7063	2314.4345	2927.0533	3013.5803	3027.0207	3074.9993
O=CC#CC1OCC1=O	O=CC#C[C@H]1OCC1=O	
InChI=1S/C6H4O3/c7-3-1-2-6-5(8)4-9-6/h3,6H,4H2	InChI=1S/C6H4O3/c7-3-1-2-6-5(8)4-9-6/h3,6H,4H2/t6-/m1/s1
