21
gdb 36405	4.20354	1.00081	0.94973	0.8346	87.64	-0.2567	0.0591	0.3159	1314.178	0.184197	-349.914482	-349.906421	-349.905477	-349.947188	32.499	
C	 0.0551244501	-1.2155166027	-0.0691032788	-0.448933
C	 0.0060059043	-0.0175552993	 0.0203996324	 0.304808
C	-0.018039898	 1.4370319342	 0.1280660162	-0.389586
C	 1.3798346406	 2.0705302973	-0.0049491179	 0.050032
C	 2.0607270621	 1.8993245284	-1.4067660716	-0.22261
C	 2.3275783537	 3.3812094609	-1.7397432592	-0.007529
C	 2.8507906533	 3.9291183423	-0.3791049618	-0.231328
C	 1.3958695301	 3.613946846	 0.0753014674	-0.028638
C	 0.9744875276	 4.0472372955	-1.3611781123	-0.224807
H	 0.0857432682	-2.2738091532	-0.1468147089	 0.192009
H	-0.6903895391	 1.8443597169	-0.6375655744	 0.127353
H	-0.4523975103	 1.7206633797	 1.0961595948	 0.125163
H	 2.0103045647	 1.6476869028	 0.784040461	 0.078072
H	 2.9782689644	 1.3070394117	-1.3568757282	 0.097923
H	 1.3960954973	 1.4204154449	-2.1324792365	 0.10126
H	 2.832080968	 3.5991704136	-2.6816151799	 0.057455
H	 3.6707518963	 3.3966709965	 0.1133797318	 0.086732
H	 3.0597814223	 5.0011409133	-0.4072992185	 0.094452
H	 0.9593903967	 4.0675166083	 0.9669024757	 0.055126
H	 0.9897419607	 5.1324724929	-1.4853866517	 0.09576
H	 0.056087547	 3.6382529901	-1.7924865297	 0.087285
72.1004	113.733	195.8425	282.5549	347.5045	396.0056	429.1089	505.2246	536.3772	616.0659	632.5724	650.041	818.1038	831.267	836.3906	853.2935	867.9703	897.5178	945.4445	954.1863	973.7618	979.3989	1027.7386	1032.1764	1051.822	1080.8199	1096.7742	1115.7572	1132.3784	1169.6919	1223.0498	1234.8511	1243.0623	1251.1375	1273.018	1294.165	1301.0908	1321.6527	1351.7165	1386.6389	1472.1939	1491.0548	1497.7715	1528.2627	2236.5601	3015.197	3038.4742	3046.412	3051.7016	3055.8998	3058.6624	3097.1041	3098.5949	3107.8649	3110.7443	3116.9326	3507.581
C#CCC1CC2CC1C2	C#CC[C@H]1C[C@@H]2C[C@H]1C2	
InChI=1S/C9H12/c1-2-3-8-4-7-5-9(8)6-7/h1,7-9H,3-6H2	InChI=1S/C9H12/c1-2-3-8-4-7-5-9(8)6-7/h1,7-9H,3-6H2/t7-,8-,9+/m0/s1
