18
gdb 48624	3.57015	1.40217	1.20452	2.8679	77.1	-0.2185	-0.0327	0.1858	1048.6071	0.148743	-401.922118	-401.914671	-401.913727	-401.954117	29.372	
O	-0.1748234044	 0.0446065288	-0.3288595866	-0.255488
C	-0.0009672135	 1.139520311	 0.1463170373	 0.052226
C	 1.2880931379	 1.8978506904	 0.074906222	 0.190866
C	 2.578151272	 1.2316084798	-0.4607405462	-0.210022
N	 2.9777101661	 2.5542586735	-1.0756974309	-0.124454
C	 1.5091750559	 2.8609011771	-1.1521286086	-0.204878
C	 3.5839270359	 3.3957236047	-0.0215442872	-0.219904
C	 2.7682339735	 3.4223832008	 1.2592233371	-0.090675
C	 1.6460328223	 2.7062593524	 1.3091732631	-0.112896
H	-0.8356093139	 1.6830653879	 0.6509592867	 0.071348
H	 3.276441651	 0.8286988419	 0.2759190161	 0.110008
H	 2.3847241107	 0.4976092548	-1.245682376	 0.126564
H	 1.0990574255	 2.4623019272	-2.0839379001	 0.121887
H	 1.2309423913	 3.9090654981	-1.0230413762	 0.112547
H	 4.5977991042	 3.0222111076	 0.1721326106	 0.119435
H	 3.7048919556	 4.4122649011	-0.4186552266	 0.11733
H	 3.1121002232	 4.0282804539	 2.0924578487	 0.09876
H	 0.9972890565	 2.6802081589	 2.1796450867	 0.097345
68.8824	177.2647	235.9927	311.1412	379.2944	395.4654	469.4786	486.2329	564.6518	679.088	705.2432	748.6069	795.5285	863.1564	894.6885	910.2839	921.4459	965.6585	975.9662	994.1948	1023.5001	1043.6819	1089.2969	1120.1478	1160.7917	1205.7692	1238.726	1257.9444	1269.197	1275.7184	1290.708	1350.4936	1388.1116	1424.7789	1472.5336	1487.1051	1513.8236	1691.7046	1819.7174	2842.9703	3017.5458	3047.3836	3053.4059	3067.9755	3122.6872	3130.7214	3159.3308	3182.6103
O=CC12CN(C1)CC=C2	O=C[C@@]12CN(C1)CC=C2	
InChI=1S/C7H9NO/c9-6-7-2-1-3-8(4-7)5-7/h1-2,6H,3-5H2	InChI=1S/C7H9NO/c9-6-7-2-1-3-8(4-7)5-7/h1-2,6H,3-5H2
