13
gdb 48342	2.30929	1.4798	1.05993	3.6852	66.11	-0.2784	-0.0663	0.2121	1094.0031	0.085709	-456.552076	-456.543736	-456.542791	-456.58568	29.712	
O	-0.9068337086	 0.8147046367	 0.3317752461	-0.22666
C	 0.114015508	 0.8737772681	-0.2944713508	 0.124436
C	 1.2541440366	 1.8520164626	 0.0334183237	 0.148184
C	 1.1834178508	 2.493902319	 1.4334409861	-0.468032
C	 2.3723100964	 1.5879548922	 1.7378321423	 0.451189
O	 3.0910737777	 1.3417261454	 2.6460321678	-0.295402
O	 2.4139747816	 1.0355417457	 0.4682540696	-0.272611
C	 1.5530272618	 2.6873820961	-1.1075442014	 0.27815
C	 1.7425168643	 3.3600094237	-2.0853048795	-0.416892
H	 0.3330952579	 0.2128825851	-1.1565589148	 0.120605
H	 1.4018172861	 3.5601006874	 1.4808495305	 0.1603
H	 0.2707595172	 2.2588900751	 1.9823139453	 0.176367
H	 1.9265565401	 3.9639518028	-2.940567665	 0.220366
67.8855	88.1054	161.429	182.3151	246.2965	330.3896	449.2033	485.1144	491.1898	530.5961	564.562	651.3388	684.4825	694.0626	796.6452	880.5762	901.5948	957.1418	1004.2616	1076.3937	1130.3808	1199.1315	1211.8669	1238.2082	1403.5813	1448.4292	1839.5505	1957.7549	2236.3877	2944.7853	3104.0974	3169.325	3494.9838
O=CC1(CC(=O)O1)C#C	O=C[C@]1(CC(=O)O1)C#C	
InChI=1S/C6H4O3/c1-2-6(4-7)3-5(8)9-6/h1,4H,3H2	InChI=1S/C6H4O3/c1-2-6(4-7)3-5(8)9-6/h1,4H,3H2/t6-/m1/s1
