15
gdb 23256	2.99209	1.50218	1.08721	1.8504	71.47	-0.2297	-0.075	0.1547	1062.148	0.112597	-453.887471	-453.879938	-453.878994	-453.919666	28.711	
O	-0.0536089971	 1.2928168397	 0.232120298	-0.343882
N	 0.0049726238	-0.0818735214	 0.1516331783	-0.227429
C	-1.1418803592	-0.6415736258	 0.0412230413	 0.316086
C	-1.2746804335	-2.1079774195	-0.1131160949	-0.110401
C	-2.1770147084	-2.8000348264	 0.856349612	-0.24746
N	-2.6831453583	-2.4431042486	-0.46687532	-0.103085
C	-3.4527644324	-1.1903546067	-0.4697770396	-0.276055
C	-2.5259446893	-0.0393587975	-0.0461903917	 0.30558
O	-2.8515703917	 1.1034219114	 0.1419022092	-0.290856
H	 0.8781012324	 1.5358163688	 0.2896102358	 0.317682
H	-0.4885837015	-2.6575745989	-0.618862613	 0.117827
H	-2.0490874709	-3.8646309058	 1.0283060367	 0.131815
H	-2.5263735841	-2.2363219799	 1.7203807075	 0.122482
H	-3.8100727144	-0.9866403536	-1.4865856366	 0.146112
H	-4.3301252554	-1.2513237059	 0.180720157	 0.141586
78.4562	167.2182	213.1517	290.206	363.1355	428.1491	453.1024	473.3717	505.9042	613.0026	673.659	679.6868	706.9817	782.9488	857.0735	962.8608	988.3049	1025.0812	1036.8946	1069.1754	1090.8937	1116.0554	1154.9944	1219.4001	1244.1553	1271.5682	1293.6426	1344.4158	1437.0201	1457.0896	1504.9848	1694.863	1833.4469	3040.1479	3094.0522	3096.4679	3173.6466	3191.3763	3797.7893
ON=C1C2CN2CC1=O	ON=C1[C@H]2CN2CC1=O	
InChI=1S/C5H6N2O2/c8-4-2-7-1-3(7)5(4)6-9/h3,9H,1-2H2	InChI=1S/C5H6N2O2/c8-4-2-7-1-3(7)5(4)6-9/h3,9H,1-2H2/t3-,7?/m1/s1
