18
gdb 99689	2.53075	0.96715	0.72347	6.1326	77.28	-0.2437	0.0269	0.2706	1556.0779	0.146435	-439.094793	-439.084628	-439.083684	-439.131657	35.172	
C	 0.0490869712	 1.4694522886	 0.1280253963	-0.50059
C	 0.022935352	 0.0152965252	 0.0741604159	 0.122854
C	 0.0306278191	-1.1862992954	 0.0170018189	 0.083795
C	-0.0181854191	-2.6399212063	-0.0483614498	-0.381473
C	-1.4876566477	-3.1310189244	-0.1395677537	-0.178961
N	-1.552740484	-4.5960585628	 0.011574328	-0.526508
H	-1.449660177	-4.862906362	 0.9860840532	 0.248293
H	-2.446163768	-4.9555174303	-0.3062626442	 0.252135
H	-0.1151153559	-4.8162443898	-0.9635628292	 0.314474
C	 0.8878459872	-3.2036041629	-1.1826888642	 0.438048
O	 1.7379041802	-2.5533695863	-1.7239926051	-0.322672
O	 0.6702437159	-4.4901525609	-1.4781429928	-0.385734
H	 0.7986050675	 1.8722750539	-0.5616861451	 0.158588
H	-0.921003057	 1.8969785795	-0.1484477855	 0.145583
H	 0.2952801578	 1.8276035381	 1.1336915358	 0.146963
H	 0.4006746477	-3.0537959714	 0.8836458846	 0.12556
H	-2.0815533924	-2.593607726	 0.6090745219	 0.120842
H	-1.8910660776	-2.8725374668	-1.1231295451	 0.138804
26.0374	64.3431	81.0872	112.7472	180.0848	267.8733	284.3066	303.3339	332.6928	394.4713	430.7083	446.5109	504.2833	602.1902	724.0289	794.7354	858.1345	892.3013	969.4762	989.0496	1040.2266	1051.8322	1054.9941	1065.8469	1153.1731	1188.1943	1218.0881	1283.5035	1311.4244	1348.8042	1409.1898	1414.4639	1477.3368	1478.4314	1501.5786	1511.2855	1649.1098	1865.7935	2380.7606	2975.2796	3028.4965	3031.2407	3088.2728	3092.6253	3094.2888	3213.2218	3504.4511	3587.2847
CC#CC(C[NH3+])C([O-])=O	CC#C[C@@H](CN)C(=O)O	
InChI=1S/C6H9NO2/c1-2-3-5(4-7)6(8)9/h5H,4,7H2,1H3,(H,8,9)	InChI=1S/C6H9NO2/c1-2-3-5(4-7)6(8)9/h5H,4,7H2,1H3,(H,8,9)/t5-/m0/s1
