16
gdb 28189	4.99481	1.22313	0.98853	1.2998	78.16	-0.1659	0.0136	0.1795	1137.0937	0.126231	-400.785119	-400.777628	-400.776684	-400.816732	29.467	
O	 0.0745718608	 1.3172871838	 0.2123287853	-0.439042
C	 0.0671089063	-0.0252197706	-0.0003936623	 0.40494
C	 0.0770943038	-0.7976099887	-1.1421419369	-0.513776
C	 0.0594864393	-2.1517832842	-0.6787507997	 0.32825
C	 0.0400122241	-2.1365708804	 0.6950098794	 0.274341
C	 0.0205277523	-3.5154374188	 1.2693852532	-0.417569
C	 0.0319985582	-4.3458395762	-0.0114954276	-0.090921
C	 0.0540469738	-3.5520579085	-1.1019771142	-0.198294
N	 0.0448204048	-0.8278008109	 1.116841858	-0.428612
H	 0.0946860286	 1.7558752209	-0.6432597394	 0.307116
H	 0.0944137149	-0.4274554408	-2.1557222675	 0.08708
H	 0.889941456	-3.7459121529	 1.9008537828	 0.12231
H	-0.8701845543	-3.7314885075	 1.8757689035	 0.122314
H	 0.0230068579	-5.427234557	-0.0011549349	 0.089669
H	 0.0659104929	-3.8948144763	-2.129259074	 0.089314
H	 0.0340688204	-0.4743178819	 2.0577550642	 0.262879
125.4066	194.4037	244.398	282.2558	308.412	407.9726	450.5338	505.2747	547.9247	648.0348	654.2922	716.4416	722.8588	737.3612	779.484	877.6566	917.8207	927.8968	944.2688	1020.614	1071.3659	1125.582	1150.5476	1159.0933	1181.0551	1213.5655	1282.2927	1321.636	1424.6137	1447.7378	1490.6264	1516.9708	1526.1273	1591.4746	1631.051	3013.8032	3038.7372	3203.79	3232.3149	3241.9857	3679.8361	3851.5477
OC1=CC2=C(CC=C2)N1	Oc1cc2c(CC=C2)[nH]1	
InChI=1S/C7H7NO/c9-7-4-5-2-1-3-6(5)8-7/h1-2,4,8-9H,3H2	InChI=1S/C7H7NO/c9-7-4-5-2-1-3-6(5)8-7/h1-2,4,8-9H,3H2
