15
gdb 12436	3.73128	2.05713	1.41364	4.3402	64.12	-0.2563	-0.0223	0.2339	849.4944	0.119956	-399.789745	-399.782719	-399.781774	-399.821539	25.913	
N	-0.0742643035	 1.3510032688	 0.141620936	-0.502964
C	-0.0087424798	 0.1077408378	-0.0681328411	 0.434238
O	 1.182697017	-0.560313545	-0.1108246203	-0.260649
C	 1.4563473298	-1.5869764257	-1.0798756712	-0.138314
C	 0.6978568047	-2.8701795341	-0.8684068018	-0.058053
C	-0.6316960111	-2.8839188445	-0.8675648432	-0.058236
C	-1.4149428679	-1.612769678	-1.066341735	-0.13359
O	-1.1579007397	-0.6042687752	-0.0789166692	-0.232159
H	 0.870123777	 1.7272278477	 0.2124672848	 0.226631
H	 1.2657594362	-1.1873312244	-2.0872284937	 0.121231
H	 2.5319138091	-1.7492322998	-0.9918903251	 0.129179
H	 1.2710603532	-3.7779902627	-0.7069203885	 0.109143
H	-1.1853387593	-3.8035524696	-0.7049304284	 0.109494
H	-1.2315851374	-1.194661744	-2.0673015287	 0.12202
H	-2.4872924484	-1.7957413714	-0.9821017947	 0.13203
51.5402	147.6044	227.1618	282.4563	387.9965	440.0934	516.5004	615.1432	686.1937	737.8291	785.6616	812.9064	875.2778	929.6521	933.5736	990.2973	1001.0982	1023.1104	1074.7525	1122.8261	1138.0927	1231.5063	1280.5244	1287.1977	1294.1957	1400.0011	1401.0693	1426.9586	1491.9141	1501.1189	1724.3473	1746.7941	2994.0214	2997.1012	3112.7649	3116.0368	3168.009	3190.3698	3510.6901
N=C1OCC=CCO1	[NH][C]1OCC=CCO1	
InChI=1S/C5H7NO2/c6-5-7-3-1-2-4-8-5/h1-2,6H,3-4H2	InChI=1S/C5H7NO2/c6-5-7-3-1-2-4-8-5/h1-2,6H,3-4H2
