21
gdb 87165	2.79352	1.18538	1.06041	3.2071	78.41	-0.239	0.0761	0.315	1265.6386	0.180423	-424.195066	-424.185379	-424.184435	-424.229965	35.217	
C	-0.3105121397	 1.538951041	 0.5062776026	-0.427762
C	-0.2384835026	 0.0384720268	 0.6300974866	 0.037323
O	 0.6883493815	-0.6551059465	-0.2240372673	-0.305552
C	 0.8961692301	-0.7177297872	 1.1927758189	 0.346887
C	 2.1620152811	-0.0657456138	 1.7062791046	-0.470711
C	 0.6429987571	-2.0902450642	 1.7886684671	 0.087836
C	 0.2712708113	-2.1657284816	 3.2899971169	-0.294732
C	-0.9903389798	-2.8926486953	 2.7866518868	-0.063653
O	-0.6181596683	-2.6802836932	 1.4079393219	-0.28131
H	 0.6772671488	 2.0024516356	 0.4766229903	 0.123073
H	-0.8377356722	 1.8114767587	-0.4141449659	 0.131852
H	-0.8707052749	 1.9634897326	 1.3468770998	 0.118104
H	-1.2047658178	-0.4622442188	 0.684138607	 0.101205
H	 2.3690578625	 0.8655512318	 1.1782850068	 0.133643
H	 2.095519132	 0.1478602948	 2.7784701972	 0.121323
H	 3.0178164306	-0.7326094327	 1.5508187706	 0.126421
H	 1.4759358149	-2.7503475995	 1.5041628013	 0.081842
H	 0.9434758885	-2.7428457694	 3.925808937	 0.112817
H	 0.0804781409	-1.1951318648	 3.7523148352	 0.110945
H	-1.0414127892	-3.9609171694	 3.0309683288	 0.105261
H	-1.9529312748	-2.4273836548	 3.0280376339	 0.105186
75.3737	81.0799	130.5095	152.9925	165.1802	203.3524	275.4658	296.129	382.471	459.7636	487.129	549.4961	662.3202	771.5352	778.0498	832.7134	884.2081	917.7849	962.2592	973.6829	996.0449	1034.9044	1044.4596	1066.1307	1084.3564	1133.0633	1136.1137	1169.7658	1187.2848	1217.2654	1251.2126	1255.1695	1278.2077	1333.5268	1357.8786	1382.5927	1405.5644	1414.9291	1458.0978	1476.7352	1485.7552	1489.2155	1500.7358	1519.6735	1532.2528	2991.5254	3019.0649	3035.6199	3038.903	3059.6858	3078.45	3093.3047	3097.0313	3114.2486	3134.6465	3135.6459	3146.0366
CC1OC1(C)C1CCO1	C[C@H]1O[C@]1(C)[C@H]1CCO1	
InChI=1S/C7H12O2/c1-5-7(2,9-5)6-3-4-8-6/h5-6H,3-4H2,1-2H3	InChI=1S/C7H12O2/c1-5-7(2,9-5)6-3-4-8-6/h5-6H,3-4H2,1-2H3/t5-,6-,7+/m1/s1
