15
gdb 44257	2.90021	1.5322	1.22004	1.9441	64.92	-0.2438	-0.0536	0.1902	1000.5619	0.111834	-457.77801	-457.770572	-457.769628	-457.810732	27.609	
O	-0.0056128411	-0.0231962368	-0.374766401	-0.27007
C	-0.0353735633	 1.143446502	-0.1283247319	 0.366328
C	-1.1646410909	 2.1474032905	 0.1884452023	-0.361788
C	-0.0646774998	 3.1443240252	 0.6760581935	-0.193817
C	 1.0618574243	 2.232167193	 0.1232349677	 0.005422
O	 2.0164656377	 1.9752119685	 1.1355844512	-0.251804
C	 1.4054785187	 2.1707034326	 2.4006527231	-0.196054
C	 0.1885223173	 3.082710459	 2.1830237866	 0.378902
O	-0.4461533207	 3.6247838566	 3.0467440201	-0.294753
H	-1.6810333759	 2.4893942836	-0.7136993053	 0.147255
H	-1.913552711	 1.8229559821	 0.9156320305	 0.149751
H	-0.1477754142	 4.1734606982	 0.3292347741	 0.115858
H	 1.5874832715	 2.543627489	-0.7829482154	 0.118201
H	 1.0634067474	 1.2210160369	 2.8422350368	 0.138529
H	 2.12590179	 2.6256768696	 3.0858529077	 0.14804
54.4669	97.5475	209.9273	234.5675	415.0709	435.136	521.9871	548.7533	601.1924	639.7291	725.8784	756.5315	790.6214	889.9942	897.5478	937.4923	989.1212	1012.4037	1054.8629	1084.6819	1110.2019	1149.1254	1173.9562	1213.4346	1223.9936	1233.764	1270.0684	1309.8826	1351.8586	1440.2872	1477.5851	1856.5594	1902.8831	2988.1135	3061.7894	3087.2413	3095.3642	3116.0916	3129.5804
O=C1CC2C1OCC2=O	O=C1C[C@@H]2[C@H]1OCC2=O	
InChI=1S/C6H6O3/c7-4-1-3-5(8)2-9-6(3)4/h3,6H,1-2H2	InChI=1S/C6H6O3/c7-4-1-3-5(8)2-9-6(3)4/h3,6H,1-2H2/t3-,6+/m0/s1
