13
gdb 23706	5.87684	1.52075	1.21719	0.3389	62.51	-0.252	-0.0484	0.2036	912.2326	0.095849	-402.802895	-402.796121	-402.795177	-402.835041	24.233	
C	-0.011961833	 1.4894751282	 0.0143741144	-0.459198
C	 0.0053088788	-0.0137625351	 0.011422877	 0.355388
N	 0.1141804222	-0.6195625534	-1.1809420439	-0.267711
C	 0.1300320405	-1.9491422777	-1.1899574648	-0.097691
C	 0.0374610483	-2.6754552003	-0.0115209039	 0.216748
F	 0.0537259824	-4.0074439339	-0.0250823572	-0.067546
C	-0.0721659519	-1.9738160784	 1.1769415006	-0.100181
N	-0.0884857422	-0.6407143541	 1.1909503775	-0.265991
H	 0.9049019118	 1.8805032783	-0.4377259118	 0.142329
H	-0.8467188474	 1.8606824949	-0.5883777986	 0.142327
H	-0.1038235563	 1.8651598108	 1.0333566245	 0.13881
H	 0.2177188752	-2.4570099012	-2.1476916527	 0.131342
H	-0.1474652086	-2.4980797882	 2.1266360986	 0.131374
26.8678	131.0765	314.9051	372.6947	422.7556	432.1335	499.7729	513.7514	646.5649	762.6997	773.3416	872.7638	951.6669	981.6042	1008.4605	1048.1739	1069.3407	1238.5504	1274.5562	1287.5937	1313.677	1407.0581	1409.892	1472.6811	1479.6605	1489.7102	1598.6471	1636.159	3048.6365	3105.3709	3157.3545	3161.2919	3163.4198
CC1=NC=C(F)C=N1	Cc1ncc(F)cn1	
InChI=1S/C5H5FN2/c1-4-7-2-5(6)3-8-4/h2-3H,1H3	InChI=1S/C5H5FN2/c1-4-7-2-5(6)3-8-4/h2-3H,1H3
