18
gdb 31827	4.99559	1.00728	0.84883	3.5459	85.4	-0.2093	-0.0266	0.1828	1368.4265	0.148664	-398.18582	-398.176898	-398.175953	-398.220453	32.092	
C	 0.0486901716	 1.4533197536	-0.0490484683	-0.326841
N	-0.0040745345	 0.0135023584	 0.1104890206	-0.37906
C	-1.2023380262	-0.6729037179	 0.0495252609	 0.2777
C	-2.4613516632	-0.069119112	 0.149003891	-0.06543
N	-3.5981052995	-0.7675278905	 0.1345060853	-0.276913
C	-3.511160138	-2.0928005587	 0.0108266682	 0.33644
C	-4.7857399273	-2.8912070688	-0.0031666619	-0.45997
N	-2.3577997745	-2.7726781128	-0.1066075074	-0.276383
C	-1.2363912181	-2.071409203	-0.0861193128	-0.058305
H	 1.0933865173	 1.7704106816	-0.0386179154	 0.130402
H	-0.4142449444	 1.8058596294	-0.9838662071	 0.12164
H	-0.4559513229	 1.9516082712	 0.7859868319	 0.140322
H	 0.7825629231	-0.4864880867	-0.2737541965	 0.241047
H	-2.5601506191	 1.0088624723	 0.2447689796	 0.101983
H	-4.8645004196	-3.475200376	-0.9259278799	 0.132688
H	-4.8013415916	-3.6056805266	 0.8266366074	 0.133228
H	-5.6466465264	-2.2269585331	 0.0787720814	 0.131439
H	-0.3033600565	-2.6289809403	-0.181431797	 0.096012
28.6773	87.4629	134.4405	191.3819	215.7133	329.7005	362.0374	410.4653	433.3162	453.0144	531.9529	579.0504	655.4859	764.771	776.4115	861.5755	925.7151	960.2804	1004.4524	1039.8655	1065.2494	1086.64	1152.4461	1170.3208	1243.8019	1303.0523	1318.145	1338.8284	1406.7123	1408.2234	1466.6093	1474.5307	1479.951	1484.9077	1486.1242	1515.9439	1533.9465	1590.2846	1635.0739	2983.9536	3042.4357	3063.1488	3096.6407	3112.6997	3125.6051	3150.0478	3161.6099	3613.0426
CNC1=CN=C(C)N=C1	CNc1cnc(C)nc1	
InChI=1S/C6H9N3/c1-5-8-3-6(7-2)4-9-5/h3-4,7H,1-2H3	InChI=1S/C6H9N3/c1-5-8-3-6(7-2)4-9-5/h3-4,7H,1-2H3
