17
gdb 105777	2.27033	1.5432	1.23392	2.7067	69.28	-0.2636	0.0334	0.2971	1081.2987	0.134116	-458.915034	-458.905869	-458.904925	-458.951042	32.722	
O	 0.0985817337	 1.3926954566	-0.1306918649	-0.413961
C	 0.0621920534	-0.0055999914	 0.0167609172	-0.108559
C	-1.3777168782	-0.5311209265	 0.0455141255	 0.172425
O	-1.9923324965	-0.1440077086	-1.1760693021	-0.274409
C	-2.982720336	-1.1274294319	-1.4665260279	-0.110796
C	-2.5643542731	-2.3525119551	-0.6112922805	-0.115713
O	-1.3567058303	-1.940410376	 0.0237192273	-0.258975
C	-2.1546993788	-0.0266532829	 1.1961436723	 0.384154
C	-2.7948297619	 0.358560933	 2.1370407064	-0.477402
H	-0.4139837872	 1.6022771177	-0.9201464263	 0.296098
H	 0.5700041898	-0.5355823903	-0.8016159039	 0.100246
H	 0.5592471122	-0.2511618292	 0.9583921377	 0.126997
H	-3.9804374016	-0.7668746944	-1.1904858211	 0.116634
H	-2.9578597867	-1.3219692892	-2.5416383201	 0.121571
H	-3.3301982075	-2.5996073359	 0.1333939595	 0.116809
H	-2.3425936692	-3.2419874905	-1.2054677658	 0.122926
H	-3.3510815222	 0.7100541447	 2.9711804765	 0.201956
9.3408	93.7306	112.6882	166.6794	191.6982	237.0623	396.0512	402.439	437.8923	526.5171	569.2289	659.364	662.4743	689.2214	742.0226	793.6334	845.7548	892.4343	949.7967	1020.141	1052.0776	1068.074	1098.8268	1135.56	1162.1129	1212.3523	1237.4187	1247.5362	1250.1296	1369.4135	1370.7426	1379.8213	1430.9947	1492.6239	1515.3701	1528.6323	2231.5975	3009.3202	3030.247	3041.0181	3089.7173	3109.1557	3110.0892	3498.5579	3800.5382
OCC1(OCCO1)C#C	OCC1(OCCO1)C#C	
InChI=1S/C6H8O3/c1-2-6(5-7)8-3-4-9-6/h1,7H,3-5H2	InChI=1S/C6H8O3/c1-2-6(5-7)8-3-4-9-6/h1,7H,3-5H2
