21
gdb 119346	3.78964	0.96318	0.91953	1.2184	82.43	-0.2361	0.08	0.3161	1364.1458	0.183405	-387.035271	-387.026766	-387.025822	-387.068911	32.653	
O	-0.1581434357	 1.5259747159	-0.0784326763	-0.418748
C	-0.0109583728	 0.118338101	-0.1886414968	-0.068151
C	-1.3550165037	-0.5184896744	 0.1571282233	-0.348811
C	-1.3331910504	-2.0109949587	 0.1059467115	 0.384482
C	-1.2965718019	-3.0105747182	-1.0314687438	-0.113454
C	-0.1110223151	-3.7538773341	-0.4231169898	-0.224832
C	-0.550197291	-3.132339951	 0.9304197032	-0.111286
C	-1.919638894	-3.800857822	 1.2265329838	-0.225613
C	-2.434012544	-3.0419323844	 0.0065769764	-0.132813
H	 0.6858892452	 1.9347301432	-0.2901899717	 0.284891
H	 0.2846731625	-0.1769064262	-1.2079042583	 0.087679
H	 0.7644074107	-0.2569332983	 0.4989236928	 0.085776
H	-1.6541842089	-0.1691556322	 1.154054308	 0.107847
H	-2.1097705398	-0.1386976412	-0.5429216083	 0.108546
H	-1.5108382774	-2.8283523917	-2.0775931077	 0.079459
H	-0.0792485346	-4.8485040261	-0.4853581313	 0.084503
H	 0.839850124	-3.3405230265	-0.7719899419	 0.093825
H	 0.1720893442	-2.963645547	 1.7273721021	 0.065524
H	-1.954980606	-4.8971319917	 1.229358992	 0.084161
H	-2.3677774741	-3.4181186885	 2.1479415041	 0.096522
H	-3.4603476572	-2.8738130379	-0.2966015613	 0.080493
79.515	89.1634	107.8874	256.6018	263.1328	318.2047	339.8179	437.9016	483.9724	664.0539	714.7902	739.0606	784.0864	818.3766	877.4464	907.7679	922.2959	933.8324	966.8224	987.5717	1012.1584	1014.7323	1024.7346	1045.7738	1078.933	1082.7708	1125.2345	1127.6628	1155.9746	1182.0723	1219.4979	1221.8106	1237.5284	1243.8735	1252.247	1294.9269	1312.3483	1315.9215	1338.2302	1453.0716	1463.1974	1480.0706	1493.5923	1510.9779	1527.0226	2964.8473	2992.0121	3019.2616	3022.1627	3029.0535	3060.4577	3087.0682	3090.6939	3127.0589	3182.1624	3192.5077	3831.6322
OCCC12C3CC1CC23	OCC[C@@]12[C@H]3C[C@@H]1C[C@@H]23	
InChI=1S/C8H12O/c9-2-1-8-5-3-6(8)7(8)4-5/h5-7,9H,1-4H2	InChI=1S/C8H12O/c9-2-1-8-5-3-6(8)7(8)4-5/h5-7,9H,1-4H2/t5-,6+,7-,8+
