27
gdb 122989	4.25557	0.55175	0.53256	0.1349	97.38	-0.2607	0.0854	0.3461	2260.3437	0.250817	-353.56193	-353.550664	-353.54972	-353.598981	41.698	
C	-0.0487188399	 1.6325549259	 0.0918212011	-0.378775
C	-0.0438986601	 0.1075902387	 0.2286871751	-0.164732
C	-1.401361673	-0.5317069435	-0.0829641505	-0.155788
C	-1.4044512058	-2.0582995607	 0.0510090473	-0.178284
C	-2.7680598904	-2.6884163278	-0.2664744829	-0.267671
C	-2.8291988431	-4.1983975689	-0.0800114061	 0.394767
C	-1.9438839077	-5.0135375849	-1.0053523636	-0.46083
C	-3.0480301183	-4.7219714849	 1.3209141281	-0.293284
C	-4.1620996629	-4.7972464945	 0.3020016437	-0.315443
H	 0.932991288	 2.0590863803	 0.320981956	 0.109476
H	-0.3143652726	 1.9377050097	-0.9266268982	 0.112314
H	-0.7767162919	 2.0890031824	 0.7719033763	 0.11227
H	 0.7174928996	-0.3177568715	-0.4387264129	 0.092813
H	 0.2600798579	-0.1683975476	 1.2472161899	 0.093011
H	-2.164075927	-0.1056949152	 0.5843202802	 0.088878
H	-1.7062624748	-0.2545134942	-1.1021508011	 0.089711
H	-0.6365736971	-2.4760625537	-0.6128317523	 0.0939
H	-1.1084278659	-2.337104988	 1.0714478866	 0.093783
H	-3.5291904884	-2.2220076296	 0.3728968771	 0.086801
H	-3.0489249608	-2.4409356246	-1.3005727901	 0.089301
H	-0.8820536319	-4.7900360703	-0.8555762772	 0.116844
H	-2.0797886381	-6.0861968845	-0.8346885519	 0.109713
H	-2.1809303736	-4.8121472959	-2.0572062685	 0.111094
H	-2.5556557121	-5.6449130883	 1.6093471821	 0.105063
H	-3.1459046271	-4.0040649894	 2.1291275182	 0.105121
H	-5.0104899016	-4.1314456379	 0.4238279007	 0.105176
H	-4.4203401615	-5.7714246408	-0.1006390271	 0.104771
58.092	60.2185	94.656	129.598	143.8847	211.6283	226.4958	249.2173	283.1322	339.4132	355.3932	398.0794	409.1904	506.2936	721.5364	733.8955	758.4882	788.3443	842.811	869.4055	897.4206	918.7583	952.738	954.3834	977.8778	1014.4201	1037.1788	1050.3092	1058.2532	1069.3042	1078.1037	1107.4628	1126.4217	1149.4832	1188.6104	1229.7552	1262.8277	1287.5579	1315.7517	1326.3624	1331.6159	1345.2478	1368.74	1394.5407	1400.3445	1414.3771	1420.6854	1469.5589	1477.9167	1483.8937	1490.5879	1495.7468	1500.425	1501.8787	1504.0498	1512.4092	1514.5651	2997.4202	3001.0174	3011.6871	3019.2062	3022.0139	3023.8498	3028.3789	3031.921	3047.026	3065.2537	3083.4536	3094.4559	3098.0903	3099.722	3122.5771	3127.5283	3199.1373	3213.7548
CCCCCC1(C)CC1	CCCCCC1(C)CC1	
InChI=1S/C9H18/c1-3-4-5-6-9(2)7-8-9/h3-8H2,1-2H3	InChI=1S/C9H18/c1-3-4-5-6-9(2)7-8-9/h3-8H2,1-2H3
