18
gdb 58066	1.82779	1.47122	1.27711	3.8799	76.35	-0.2933	-0.017	0.2763	1143.8904	0.145805	-398.146858	-398.136619	-398.135675	-398.181578	36.877	
C	 0.0309168384	 1.5490655079	-0.0430531736	-0.410393
C	 0.0134987404	 0.0192571869	 0.0502469024	 0.014987
C	 0.7840791877	-0.4830599309	 1.2759827818	-0.423202
C	-1.4569975227	-0.5320757621	 0.014264433	-0.063643
N	-2.1274350726	-0.0830494199	-1.2116107559	-0.511522
C	-1.4281217588	-2.0164857892	 0.1035137478	 0.2837
N	-1.4077992268	-3.1719415448	 0.0837953059	-0.333304
C	-2.2207370667	-0.0158748751	 1.1703548082	 0.338114
N	-2.8073990655	 0.3968268124	 2.0749228857	-0.329443
H	 1.0649146808	 1.8965040748	-0.1217365452	 0.122362
H	-0.5262144513	 1.9061121125	-0.9102998747	 0.141744
H	-0.4064723107	 1.9993652746	 0.8538171652	 0.142563
H	 0.4808301938	-0.398741772	-0.851504801	 0.096641
H	 0.336942829	-0.1064239319	 2.2017915196	 0.144274
H	 0.8113094976	-1.5747288521	 1.3264813893	 0.146958
H	 1.8153486339	-0.1222540193	 1.2333260141	 0.128175
H	-1.6410039121	-0.4715408873	-2.0151459767	 0.252405
H	-3.0814243845	-0.4310018144	-1.240568676	 0.259586
77.2425	130.691	143.9582	167.1928	210.9977	237.4205	252.9486	261.9436	292.5243	349.5878	394.363	436.0558	504.4022	530.3784	584.5655	623.4361	668.2433	855.7605	887.8456	940.8138	946.2589	965.0803	1030.3313	1098.2374	1155.6444	1157.5674	1203.9069	1295.1983	1343.5099	1371.9415	1404.7355	1428.2704	1487.2474	1490.7711	1502.6026	1514.6612	1653.7275	2347.4786	2368.382	3019.4347	3043.8917	3049.3705	3112.5707	3117.9872	3123.9392	3144.3621	3494.538	3578.9429
CC(C)C(N)(C#N)C#N	CC(C)C(N)(C#N)C#N	
InChI=1S/C6H9N3/c1-5(2)6(9,3-7)4-8/h5H,9H2,1-2H3	InChI=1S/C6H9N3/c1-5(2)6(9,3-7)4-8/h5H,9H2,1-2H3
