20
gdb 12563	3.37028	1.75155	1.27481	2.1355	71.22	-0.2519	0.082	0.3339	1003.858	0.178388	-386.146277	-386.13829	-386.137346	-386.178555	30.329	
C	 0.469870097	 1.631931113	 0.0666084299	-0.397646
C	-0.0131065612	 0.1879136493	-0.0002536374	 0.139561
C	 0.4939023776	-0.5410235349	-1.2565293683	-0.18616
C	-0.1511017432	-1.9192726107	-1.4672076177	-0.248375
C	 0.44057075	-3.0422626475	-0.6017958542	-0.060181
O	 0.8532451738	-2.6607906789	 0.7054912287	-0.235398
C	 0.0414484679	-1.7596508966	 1.4055019782	 0.016628
O	 0.4092744249	-0.4218689103	 1.2165691429	-0.243302
H	 1.5637438642	 1.668599786	 0.0698814115	 0.125069
H	 0.1046459362	 2.2036685326	-0.7915007491	 0.11078
H	 0.1107381333	 2.1080536936	 0.9825084883	 0.123061
H	-1.1181550201	 0.1787538853	-0.0295554174	 0.061151
H	 0.2599267747	 0.093196477	-2.1198238499	 0.095193
H	 1.5859095392	-0.625007357	-1.2051824226	 0.1103
H	-1.2304670968	-1.8325148824	-1.2909084104	 0.101514
H	-0.0466300337	-2.2288058175	-2.513748682	 0.101255
H	-0.2764711784	-3.8759550069	-0.542344388	 0.091249
H	 1.3502447519	-3.4319053389	-1.0708962909	 0.111193
H	-1.0252568734	-1.910153564	 1.1628710333	 0.072461
H	 0.2071055061	-1.9602669612	 2.4673815551	 0.111647
88.5263	127.4507	217.7268	262.0815	294.572	332.5632	362.9179	411.4435	474.8812	569.3721	628.8003	753.6592	842.1794	879.583	902.8692	909.5146	974.9184	1004.6156	1059.014	1078.2705	1108.7746	1126.7873	1145.642	1168.1502	1204.2043	1248.6519	1260.7364	1291.4033	1331.911	1335.7287	1385.6364	1388.6805	1394.7176	1410.4958	1418.3129	1444.7705	1470.9238	1484.8574	1489.3457	1499.7986	1502.5647	1515.1779	2931.98	2947.9674	2982.6475	3027.0407	3030.5267	3043.4099	3053.7967	3074.0406	3077.9805	3091.8577	3115.8954	3123.8661
CC1CCCOCO1	C[C@H]1CCCOCO1	
InChI=1S/C6H12O2/c1-6-3-2-4-7-5-8-6/h6H,2-5H2,1H3	InChI=1S/C6H12O2/c1-6-3-2-4-7-5-8-6/h6H,2-5H2,1H3/t6-/m0/s1
