18
gdb 23468	3.03457	1.31774	1.0204	1.8673	75.85	-0.243	-0.0004	0.2426	1166.3065	0.14893	-439.044239	-439.03637	-439.035426	-439.076692	30.687	
O	-0.0324225255	 1.3263703784	 0.1483813929	-0.391952
N	 0.0402510069	-0.0717845001	 0.1331764563	-0.217453
C	-1.1041197007	-0.6244936891	-0.0116524355	 0.397732
C	-2.445055006	 0.0493069843	-0.1397945712	-0.315316
C	-3.4412186533	-0.5917386774	 0.8457635674	-0.210993
C	-3.6421418892	-2.0970196023	 0.5979094923	-0.225891
C	-2.3531238679	-2.8359463372	 0.2762440113	 0.040071
O	-1.8817437129	-2.7110658522	-1.0674997288	-0.255794
C	-1.0997414592	-2.1078630938	-0.0211425521	-0.021468
H	 0.8900705201	 1.574095798	 0.2710470267	 0.308357
H	-2.3424662873	 1.1180893815	 0.0470045758	 0.134224
H	-2.8049026027	-0.0793174001	-1.1680621528	 0.129401
H	-3.0655053	-0.4396293423	 1.8649632603	 0.108999
H	-4.4041923408	-0.0742887383	 0.7880734632	 0.102454
H	-4.11151921	-2.5565322164	 1.4744560161	 0.103158
H	-4.3279420765	-2.2559613674	-0.2432294857	 0.119228
H	-2.2618310399	-3.8464585175	 0.6757771275	 0.095975
H	-0.1353386552	-2.5740459981	 0.1671915064	 0.099268
76.9099	179.5281	213.7595	278.6163	349.1624	361.1647	430.5542	433.0144	455.0091	568.291	628.5353	702.2572	766.1821	778.7182	848.2327	879.7344	897.4602	961.3653	976.9812	1003.4271	1034.2383	1079.5198	1096.6194	1146.1888	1179.9963	1217.9295	1269.3864	1284.0293	1292.8104	1350.1056	1357.6128	1370.6408	1381.7656	1419.082	1454.2456	1475.6308	1480.0206	1496.8688	1729.4525	3030.2044	3033.4749	3042.588	3071.1184	3083.6106	3104.3245	3136.2653	3145.5939	3820.3456
ON=C1CCCC2OC12	ON=C1CCC[C@H]2O[C@@H]12	
InChI=1S/C6H9NO2/c8-7-4-2-1-3-5-6(4)9-5/h5-6,8H,1-3H2	InChI=1S/C6H9NO2/c8-7-4-2-1-3-5-6(4)9-5/h5-6,8H,1-3H2/t5-,6+/m1/s1
