14
gdb 14660	16.72035	0.54271	0.52909	4.8589	91.64	-0.2566	-0.0796	0.177	1999.5772	0.104726	-345.369532	-345.360448	-345.359503	-345.405215	29.617	
C	-0.0450033476	 1.5693662341	 0.0547280039	-0.370729
C	 0.0102766	 0.0309719125	-0.0118922345	-0.348345
C	 0.6850729199	-0.4721697993	-1.1967701475	 0.322449
C	 1.2498463077	-0.8799195014	-2.1889331677	-0.219634
C	 1.8801973406	-1.3377984558	-3.2964298171	-0.153852
C	 2.4452152596	-1.7518522814	-4.2895984632	 0.232569
C	 3.1194967925	-2.2032039592	-5.475018686	-0.036095
O	 3.2914908324	-3.3659559708	-5.7666759796	-0.223959
H	 0.961696533	 1.9945888767	 0.0630531742	 0.137006
H	-0.5796178482	 1.9768987154	-0.8069208264	 0.137012
H	-0.562267638	 1.8854435999	 0.9646992301	 0.125558
H	 0.518570127	-0.3634149257	 0.8777864305	 0.148063
H	-1.0070317883	-0.380971397	 0.0165877695	 0.148052
H	 3.4837733894	-1.3828578777	-6.1263485062	 0.101904
20.6551	60.9433	86.6889	132.959	197.2722	255.6136	262.8699	395.7975	411.7877	522.9896	558.643	599.4004	713.0803	781.9801	902.3424	1008.6821	1017.3095	1080.5587	1098.3122	1274.7501	1281.8876	1354.2491	1412.3464	1419.8539	1461.552	1495.6511	1504.237	1752.3477	2251.0613	2353.8763	2919.2432	3021.1436	3050.2598	3050.7319	3126.6856	3131.4299
CCC#CC#CC=O	CCC#CC#CC=O	
InChI=1S/C7H6O/c1-2-3-4-5-6-7-8/h7H,2H2,1H3	InChI=1S/C7H6O/c1-2-3-4-5-6-7-8/h7H,2H2,1H3
