20
gdb 6952	2.52106	2.1515	1.59417	2.6382	74.06	-0.2323	-0.0123	0.22	924.1392	0.176693	-349.053015	-349.044582	-349.043638	-349.085509	32.213	
C	 0.0619060122	 1.5101410529	 0.0202888477	-0.420249
C	-0.0383532445	-0.0303889669	-0.0361120587	 0.193722
C	-1.5074887318	-0.4609556273	 0.0253294643	-0.432636
C	 0.7406342482	-0.6042036064	-1.240863988	-0.245833
C	 2.1993389921	-0.7570956068	-0.7542648042	-0.224689
C	 2.0558000192	-1.1994096576	 0.7095607993	-0.315524
C	 0.7384500334	-0.5792734305	 1.1820695218	 0.398229
O	 0.3563511742	-0.5182485856	 2.3233789558	-0.335679
H	 1.0987896256	 1.8586163772	-0.0290523459	 0.115012
H	-0.4807177702	 1.9528171866	-0.8217423319	 0.115566
H	-0.3734173752	 1.8849939969	 0.9508976457	 0.134632
H	-2.0774016331	-0.0249376935	-0.8021226899	 0.109718
H	-1.6061688397	-1.549963966	-0.0344610756	 0.110821
H	-1.9570539072	-0.1348070858	 0.9674414538	 0.134686
H	 0.3372094705	-1.5904621179	-1.5015439343	 0.09656
H	 0.6570227786	 0.0234126366	-2.1329763783	 0.097805
H	 2.769198435	-1.4641146981	-1.3618769051	 0.102803
H	 2.7214336918	 0.2044134298	-0.8083140741	 0.108052
H	 1.9398965736	-2.2894402295	 0.7820882379	 0.130642
H	 2.8814756574	-0.9250374884	 1.3703279998	 0.126362
68.2834	198.629	203.9744	222.1427	244.4339	290.3202	341.9159	369.5297	495.8971	526.3285	570.1801	639.228	675.0503	802.8054	830.7024	895.9598	925.4852	954.0528	961.0764	989.8372	1020.4159	1053.6918	1078.0648	1090.9005	1176.9934	1226.2583	1237.6503	1245.3846	1276.8877	1298.2742	1340.4678	1347.5725	1392.5885	1416.1254	1448.5407	1479.1707	1485.7122	1496.1215	1500.9338	1505.3162	1511.6903	1836.1416	3028.4962	3028.8725	3029.9221	3034.8406	3048.1569	3084.9928	3095.9737	3098.6854	3099.624	3107.9068	3113.6819	3117.5047
CC1(C)CCCC1=O	CC1(C)CCCC1=O	
InChI=1S/C7H12O/c1-7(2)5-3-4-6(7)8/h3-5H2,1-2H3	InChI=1S/C7H12O/c1-7(2)5-3-4-6(7)8/h3-5H2,1-2H3
