13
gdb 21019	6.78549	1.38614	1.15944	3.4406	69.86	-0.2417	-0.0163	0.2254	977.5849	0.096283	-357.63508	-357.627876	-357.626931	-357.66673	25.658	
C	 0.0466931565	 1.4031304521	 0.0841373845	-0.321552
N	-0.0107653214	-0.0408288089	-0.0033176314	 0.058775
C	-0.1964548768	-0.8299560015	-1.0835929859	-0.016189
N	-0.1841190781	-2.1005406693	-0.7400801973	-0.306802
C	 0.0200010608	-2.0402533082	 0.6131008488	 0.183047
N	 0.1307868008	-0.8026932205	 1.1000645878	-0.301359
C	 0.1082897168	-3.1899451375	 1.4396233605	 0.290733
C	 0.1821729701	-4.1697604207	 2.1320199126	-0.395107
H	 1.0156368882	 1.7163780448	 0.479873333	 0.161064
H	-0.0901791245	 1.8197739857	-0.9151380632	 0.146271
H	-0.7433537466	 1.7705321353	 0.7432767651	 0.16107
H	-0.3333109705	-0.4360378659	-2.0798340693	 0.144636
H	 0.2470918346	-5.0354030156	 2.7436339048	 0.195415
95.2287	138.1502	150.6799	240.6557	346.3383	467.9837	552.8405	576.4946	605.8147	649.0054	668.2626	733.7009	775.3224	854.329	1021.3692	1056.1466	1075.6184	1153.7934	1228.1694	1313.8376	1330.0995	1443.2367	1447.7661	1466.6583	1473.6634	1517.207	1534.0826	2249.729	3057.2711	3129.9633	3150.6782	3254.8315	3504.2215
CN1C=NC(=N1)C#C	Cn1cnc(n1)C#C	
InChI=1S/C5H5N3/c1-3-5-6-4-8(2)7-5/h1,4H,2H3	InChI=1S/C5H5N3/c1-3-5-6-4-8(2)7-5/h1,4H,2H3
