18
gdb 39516	2.96747	1.99076	1.57038	1.7943	81.5	-0.2142	0.0013	0.2155	897.4923	0.150859	-364.772708	-364.766292	-364.765347	-364.803025	27.298	
C	-0.0439462896	 1.4799833112	 0.0352778858	-0.193004
C	 1.394915522	 1.9403154703	-0.0446999448	-0.133452
C	 2.189025148	 0.9031288164	-0.3258988794	 0.180129
C	 3.5000760644	 0.6279615578	 0.3521960819	-0.345286
C	 3.0619174943	-0.0352916912	 1.6650197571	-0.047312
C	 1.8450684947	-0.5753490811	 1.8262585375	-0.084728
C	 0.9180711099	-0.8564721518	 0.6774413981	-0.032856
C	 1.3413234856	-0.3041179361	-0.6272351809	-0.125987
N	-0.0075196684	 0.0148097614	-0.1583227481	-0.138091
H	-0.4705478887	 1.733727217	 1.0143148387	 0.116312
H	-0.7149534737	 1.9044209228	-0.7246093416	 0.111631
H	 1.7305470113	 2.8928401384	 0.3523235332	 0.090692
H	 4.1759360881	-0.026563597	-0.2133838178	 0.116183
H	 4.052857016	 1.546633565	 0.576117582	 0.11435
H	 3.757434814	 0.0054974861	 2.4997796627	 0.095262
H	 1.562065392	-0.9772798868	 2.7955047212	 0.089415
H	 0.4880862044	-1.8549552706	 0.7160498802	 0.100232
H	 1.4874509655	-0.8982755718	-1.5270261056	 0.08651
194.5186	257.7398	331.3375	369.2611	490.4637	516.2806	576.7484	628.1471	706.0819	730.503	789.7613	805.5842	848.5568	857.545	881.8753	917.6273	927.4976	951.6253	986.8437	991.4396	1025.5681	1034.2231	1065.1479	1116.8376	1138.8883	1177.7498	1193.3449	1212.5716	1254.1307	1290.5109	1305.1821	1323.889	1351.4956	1378.9406	1390.6675	1474.6953	1480.2531	1664.0679	1684.0391	3004.9675	3023.2634	3043.0721	3070.0752	3119.2307	3130.4947	3149.4452	3172.8611	3184.5984
C1C=C2CC=CC3C2N13	C1[CH][C]2CC=C[C@@H]3[C@H]2N13	
InChI=1S/C8H9N/c1-2-6-4-5-9-7(3-1)8(6)9/h1,3-4,7-8H,2,5H2	InChI=1S/C8H9N/c1-2-6-4-5-9-7(3-1)8(6)9/h1,3-4,7-8H,2,5H2/t7-,8+,9?/m1/s1
