19
gdb 26496	3.54909	1.27948	1.02238	3.2791	82.18	-0.2069	0.0357	0.2427	1187.3613	0.161115	-382.104976	-382.096812	-382.095867	-382.137706	31.867	
C	 0.0666066627	 1.5147540112	-0.1048466313	-0.479637
C	 0.0163585765	 0.0022127762	-0.0276687143	 0.255387
C	 1.3206156435	-0.766106746	-0.1479355862	-0.294562
C	 0.6313858469	-0.6751050654	 1.1843913617	-0.294589
C	-1.1929094141	-0.6246555574	-0.6102956642	 0.271019
C	-2.2694223484	-0.0169420472	-1.2091808874	-0.217859
N	-3.1172971044	-1.0429677969	-1.5778933413	-0.240705
C	-2.5288279217	-2.2071991534	-1.1930516481	 0.011136
N	-1.3733764639	-1.9953146742	-0.6096523047	-0.323966
H	 0.9877212282	 1.8958180679	 0.34537009	 0.110936
H	 0.0355307114	 1.8627807618	-1.1441706392	 0.113508
H	-0.7769043849	 1.9698596428	 0.4277668119	 0.113516
H	 1.2813687713	-1.7173760012	-0.6651516301	 0.127813
H	 2.2271633815	-0.1901857715	-0.3035467154	 0.10104
H	 1.0618644743	-0.036402937	 1.9488943284	 0.10104
H	 0.1351605527	-1.5660141517	 1.5505207389	 0.127831
H	-2.5099159111	 1.0138426561	-1.4044679674	 0.125649
H	-4.0044585471	-0.9433101815	-2.0409214017	 0.264591
H	-2.9859416332	-3.1706494126	-1.3637805198	 0.127851
65.6624	171.8347	185.7973	236.3629	304.8692	322.5347	440.4362	450.919	500.5381	538.0674	658.7653	707.6468	754.2627	791.9692	816.7308	833.0947	846.3148	950.0068	951.5891	958.153	969.0477	1044.6886	1071.3118	1083.7703	1094.9805	1118.3931	1134.5301	1191.2105	1199.3926	1235.3092	1309.6506	1354.0329	1365.861	1412.4263	1454.4409	1463.1768	1487.9561	1489.0474	1506.2857	1532.6904	1598.6591	3020.3621	3077.9537	3103.2728	3129.417	3132.8121	3220.1748	3233.0974	3249.163	3281.8916	3670.6579
CC1(CC1)C1=CNC=N1	CC1(CC1)c1c[nH]cn1	
InChI=1S/C7H10N2/c1-7(2-3-7)6-4-8-5-9-6/h4-5H,2-3H2,1H3,(H,8,9)	InChI=1S/C7H10N2/c1-7(2-3-7)6-4-8-5-9-6/h4-5H,2-3H2,1H3,(H,8,9)
