18
gdb 107897	3.29722	1.30184	1.18142	4.2469	75.5	-0.2458	0.0047	0.2505	1114.4523	0.147485	-401.916617	-401.908678	-401.907734	-401.949287	30.44	
C	 0.1502707798	 1.4527550956	 0.2048638186	-0.383152
C	-0.166705219	-0.0011391451	-0.1662786947	-0.296863
C	 0.6035219046	-0.4689352585	-1.3642250417	 0.358949
C	 0.4448351305	-0.0209222055	-2.8284630864	-0.290709
C	 1.4210551349	-1.1831249478	-3.1758501619	-0.214069
C	 1.0728267234	-1.800916016	-1.7684231386	-0.117188
N	 2.0663663557	-0.8243450793	-1.1310350476	-0.241106
C	 2.6792894599	-0.7216066692	-2.4528583019	 0.442311
O	 3.8136616749	-0.4999755884	-2.7352440405	-0.317686
H	 1.2151080402	 1.56699719	 0.4262048583	 0.142791
H	-0.1015049977	 2.1373665504	-0.6119020394	 0.117793
H	-0.4190620246	 1.7618430532	 1.0858292651	 0.117428
H	 0.0632961491	-0.6614488459	 0.6764985745	 0.118083
H	-1.2377404443	-0.114116913	-0.3783444	 0.103686
H	-0.5714995305	-0.2187036942	-3.179369318	 0.11637
H	 0.7503694014	 0.9911045726	-3.1133519166	 0.116231
H	 1.4410152358	-1.6628157355	-4.1502133136	 0.101967
H	 0.9667941658	-2.8089121436	-1.3946982057	 0.125164
79.9126	120.5632	185.6253	212.5217	302.9578	352.7318	475.1527	489.2066	554.1071	664.9266	693.255	766.5606	785.6003	793.0378	844.5806	881.1046	917.9398	936.9313	973.7587	978.8033	1034.8563	1048.6978	1061.3411	1086.8753	1132.65	1151.3899	1166.5896	1207.8991	1233.3348	1263.7323	1320.8277	1342.8351	1409.5275	1434.9709	1473.5653	1499.001	1500.815	1509.4461	1920.0322	3028.4994	3040.7727	3048.2374	3075.4618	3108.465	3110.3772	3122.7478	3166.1639	3230.1073
CCC12CC3C1N2C3=O	CC[C@]12C[C@@H]3[C@H]1N2C3=O	
InChI=1S/C7H9NO/c1-2-7-3-4-5(7)8(7)6(4)9/h4-5H,2-3H2,1H3	InChI=1S/C7H9NO/c1-2-7-3-4-5(7)8(7)6(4)9/h4-5H,2-3H2,1H3/t4-,5-,7+,8?/m1/s1
