21
gdb 68992	2.98432	1.25567	1.06139	1.8019	83.	-0.2202	0.0834	0.3036	1225.7821	0.181842	-387.040199	-387.031406	-387.030462	-387.073856	33.954	
C	-0.1619393452	 1.4485196225	 0.1706024342	-0.485904
C	 0.0422464848	-0.0284679696	 0.0945603392	 0.422724
C	-0.7576696946	-1.0893594237	 0.7948069862	-0.39501
C	 0.7549496628	-1.0619957566	 0.9555590263	 0.233655
C	 1.3561632223	-1.5344243702	-0.3680884874	-0.133201
O	 0.5831006649	-0.5643676982	-1.1225454656	-0.326233
C	 1.5043966991	-0.9947311665	 2.2356505745	-0.121646
C	 0.8282545538	-0.8124377441	 3.5733351542	-0.274112
C	 1.4489961646	-2.1392800603	 3.2285459035	-0.25685
H	 0.7601186068	 1.9846987754	-0.0749484043	 0.126018
H	-0.9378916342	 1.7670012302	-0.5350608798	 0.131277
H	-0.4787601165	 1.7392583882	 1.1761560978	 0.124677
H	-1.3177947936	-0.7520901168	 1.6610570102	 0.111789
H	-1.238297594	-1.8729751826	 0.2137396456	 0.106801
H	 2.4293605717	-1.3254021197	-0.4575030373	 0.101145
H	 1.1556434245	-2.5663481043	-0.6823119377	 0.099485
H	 2.4766025231	-0.514739075	 2.1449337653	 0.082813
H	 1.3241951609	-0.1841428055	 4.3048141254	 0.11321
H	-0.2537897183	-0.7557696475	 3.6041907062	 0.112953
H	 0.7780842176	-2.9606747105	 3.0017024103	 0.115301
H	 2.3651596994	-2.4318808547	 3.7291406631	 0.111108
53.238	118.382	177.4078	212.4456	249.5077	270.9947	371.831	384.5659	456.6614	507.9356	591.8589	695.6816	762.9793	792.0471	821.0611	852.5663	900.4856	912.6693	935.6847	953.1816	973.1	987.1903	1044.8204	1057.5979	1068.0652	1076.6754	1083.4862	1108.6427	1138.6204	1153.8166	1180.6456	1199.7017	1211.2705	1222.6472	1286.2393	1341.4979	1381.6464	1417.0629	1438.0468	1465.4557	1472.5526	1489.6169	1501.4885	1509.5992	1523.5548	3012.3046	3031.937	3059.9525	3094.7702	3107.7434	3117.0685	3121.8036	3134.0854	3139.5451	3204.1919	3213.5209	3228.2721
CC12CC1(CO2)C1CC1	C[C@]12C[C@]1(CO2)C1CC1	
InChI=1S/C8H12O/c1-7-4-8(7,5-9-7)6-2-3-6/h6H,2-5H2,1H3	InChI=1S/C8H12O/c1-7-4-8(7,5-9-7)6-2-3-6/h6H,2-5H2,1H3/t7-,8-/m0/s1
