19
gdb 36459	3.40815	1.06417	0.89592	4.4127	80.8	-0.2245	0.0254	0.2499	1313.0573	0.15914	-382.038092	-382.029419	-382.028475	-382.071963	32.379	
N	 0.1003320758	-1.1846884503	-0.2517189595	-0.303021
C	 0.0340888205	-0.038365913	-0.1275378462	 0.279422
C	-0.0570923979	 1.4152331202	 0.0565288264	-0.303502
N	 1.257899649	 2.0156377772	 0.106881113	-0.113582
C	 2.0985787259	 1.7877749941	 1.3065376026	-0.16963
C	 2.5574652033	 3.2664232824	 1.2339803226	-0.317663
C	 1.3841303027	 3.4705817684	 0.2725491176	 0.383536
C	 1.1762717889	 4.5037729713	-0.7811370182	-0.320972
C	 0.2617905906	 4.460398119	 0.4348486478	-0.337488
H	-0.6127360162	 1.8298328559	-0.7932975308	 0.153853
H	-0.6643976879	 1.6045894608	 0.9623273425	 0.128412
H	 1.509403636	 1.5762231567	 2.2115261752	 0.097551
H	 2.8536965955	 1.0078973698	 1.1814742557	 0.121491
H	 2.5289355537	 3.8311564192	 2.1665178582	 0.112703
H	 3.5324022094	 3.3929106804	 0.7582618059	 0.119102
H	 1.8998819454	 5.308669101	-0.8604031733	 0.119146
H	 0.7601255233	 4.1837035424	-1.7313625726	 0.118058
H	-0.7606154463	 4.1322830308	 0.2769494117	 0.115297
H	 0.3637542683	 5.2322662636	 1.1912910513	 0.117286
57.8416	106.005	120.9134	214.901	248.9011	318.5486	367.4668	392.3535	476.0098	508.8917	557.1539	761.1186	764.6165	786.185	859.2052	895.6202	907.6366	935.4833	949.3346	973.6017	996.7043	1047.1777	1070.8002	1076.8377	1110.0669	1157.8693	1182.2039	1185.7894	1214.9454	1249.7831	1256.6613	1264.3504	1343.3098	1374.1434	1382.781	1456.8627	1473.0114	1486.9804	1498.6324	1524.4903	2367.2504	2921.8954	2990.4179	3054.2005	3075.8851	3091.8038	3122.4941	3125.702	3133.9967	3200.3819	3215.1169
N#CCN1CCC11CC1	N#CCN1CCC21CC2	
InChI=1S/C7H10N2/c8-4-6-9-5-3-7(9)1-2-7/h1-3,5-6H2	InChI=1S/C7H10N2/c8-4-6-9-5-3-7(9)1-2-7/h1-3,5-6H2
