22
gdb 62066	3.61145	0.67369	0.59756	2.5746	84.65	-0.2385	-0.019	0.2195	1874.8285	0.19178	-404.326829	-404.316361	-404.315417	-404.364197	36.722	
C	 0.1214423651	 1.5988904619	 0.2399925478	-0.410573
C	-0.0075574305	 0.084151056	 0.0014657859	-0.062254
C	 0.6250420668	-0.3786606201	-1.3294530847	-0.194574
C	-0.0632813968	 0.1830689401	-2.5762150918	-0.1525
N	 0.5722046167	-0.3383302566	-3.7807851858	-0.059689
C	 0.0374595778	-1.5918379898	-4.3041166372	-0.220053
C	-0.2259284507	-0.3021458984	-5.0001792389	-0.221441
C	 0.6768444416	-0.6568964356	 1.1340684069	 0.160222
O	 0.1562377279	-1.473864209	 1.848202251	-0.250148
H	 1.172814611	 1.9086252578	 0.2410878529	 0.123411
H	-0.3930698892	 2.1687996554	-0.5374953087	 0.130383
H	-0.3152971593	 1.8832986718	 1.2023008289	 0.128779
H	-1.062788577	-0.2106884863	 0.0262264448	 0.092814
H	 1.6861973522	-0.1018877137	-1.3579897483	 0.111462
H	 0.5869169322	-1.4738932747	-1.3786813838	 0.112232
H	-1.1439047208	-0.0533644911	-2.5417671758	 0.08024
H	 0.0248418029	 1.2747214884	-2.6060038461	 0.107094
H	 0.7679034937	-2.2937827424	-4.6955788351	 0.119051
H	-0.7990219553	-2.0499565028	-3.7774642679	 0.110414
H	-1.2376547799	 0.0965273309	-4.9371173789	 0.108955
H	 0.3092358565	-0.0430289845	-5.9092283333	 0.11826
H	 1.7532415451	-0.3859791474	 1.2633465178	 0.067916
36.909	45.386	73.807	116.9793	137.0201	204.0739	262.7496	278.7673	342.5665	360.3014	404.9545	454.5369	571.3176	769.0063	782.8628	844.2553	872.6123	903.4278	921.1194	957.8709	979.92	1018.2656	1033.3902	1064.2707	1112.3081	1117.3947	1123.2276	1149.8161	1158.9712	1176.7075	1192.6683	1247.919	1274.4021	1317.3625	1327.7045	1341.9696	1358.1237	1406.0239	1407.5574	1429.0321	1481.5843	1490.0043	1497.1484	1500.3806	1505.3794	1521.9235	1836.1004	2835.812	2920.0099	3025.8421	3035.2446	3048.238	3056.7185	3076.1385	3090.2931	3095.5054	3102.9929	3119.364	3175.672	3189.794
CC(CCN1CC1)C=O	C[C@@H](CCN1CC1)C=O	
InChI=1S/C7H13NO/c1-7(6-9)2-3-8-4-5-8/h6-7H,2-5H2,1H3	InChI=1S/C7H13NO/c1-7(6-9)2-3-8-4-5-8/h6-7H,2-5H2,1H3/t7-/m0/s1
