14
gdb 130988	7.21029	0.76513	0.69473	2.5605	65.72	-0.2425	-0.0472	0.1953	1495.0102	0.099129	-473.807774	-473.799575	-473.798631	-473.842525	27.826	
O	-0.1613366179	 0.1962020648	 0.5623841958	-0.226445
C	 0.0694987254	 1.1145078898	-0.1750241875	 0.140204
C	 1.3801341956	 1.8818030186	-0.1432970104	-0.170227
O	 1.2959677902	 2.8947442421	-1.1484467635	-0.275145
C	 2.3435483383	 3.6976218874	-1.3070991869	 0.55231
C	 2.5325925813	 4.7317583492	-2.1764564325	-0.403396
C	 3.8372507116	 5.1697125279	-1.8428576641	 0.061306
N	 4.3902229597	 4.4801858489	-0.8737545729	-0.158913
O	 3.4123947256	 3.5189111193	-0.525264279	-0.21943
H	-0.6531532115	 1.4769055743	-0.9375962331	 0.107214
H	 1.5308392999	 2.3225019134	 0.8491227408	 0.16321
H	 2.2163282607	 1.2004280797	-0.3391170315	 0.163278
H	 1.8515945243	 5.1051996025	-2.9199255728	 0.127411
H	 4.403782277	 5.9788724321	-2.2832768623	 0.138623
44.9132	53.6645	94.0324	119.0487	297.8076	299.6419	398.6977	571.2514	632.6796	705.6765	731.3151	738.3542	769.8862	891.1324	926.9679	927.7731	1006.719	1048.839	1053.4185	1082.4631	1105.7337	1228.5212	1235.063	1324.5972	1342.4291	1383.1464	1408.6769	1468.7326	1540.8545	1658.3348	1850.9894	2910.8294	3038.0914	3083.97	3240.1707	3298.0933
O=CCOC1=CC=NO1	O=CCOc1ccno1	
InChI=1S/C5H5NO3/c7-3-4-8-5-1-2-6-9-5/h1-3H,4H2	InChI=1S/C5H5NO3/c7-3-4-8-5-1-2-6-9-5/h1-3H,4H2
