18
gdb 51789	4.17256	1.04921	0.93075	3.7976	74.62	-0.2644	0.0246	0.289	1274.0444	0.148581	-439.075159	-439.067056	-439.066112	-439.108755	29.862	
N	-0.1267395781	 1.2852998761	 0.1231766966	-0.441062
C	-0.0749449226	 0.0306754643	 0.0106640892	 0.132113
O	-1.217428903	-0.6930195213	 0.0345368398	-0.184354
C	-1.0663323927	-2.0946878769	-0.0077824877	 0.209396
O	-0.5956891374	-2.533281722	 1.25479898	-0.273016
C	-1.1571550201	-3.8097945556	 1.5616526309	-0.093664
C	-2.4678720579	-3.878046829	 0.7988176367	-0.055818
C	-3.3626051153	-2.6749386583	 0.916433202	-0.278725
C	-2.3940189026	-2.7788517159	-0.23374804	-0.084407
H	 0.8119076429	 1.6757205864	 0.0689226423	 0.228986
H	 0.8278657177	-0.5801105917	-0.1182661014	 0.096208
H	-0.3385656084	-2.3511599894	-0.79600199	 0.07398
H	-0.483742283	-4.6188038298	 1.2407786973	 0.099499
H	-1.2659001141	-3.8632323462	 2.65000798	 0.118049
H	-2.8865289525	-4.8496098548	 0.5667263484	 0.09603
H	-4.4125787828	-2.80922606	 0.684655358	 0.117069
H	-3.1533733385	-1.9424816136	 1.6884772299	 0.140328
H	-2.7477828716	-2.8989396022	-1.2494311922	 0.099386
65.2508	95.2116	102.0415	193.7568	284.2614	360.5248	428.0753	451.7084	657.6197	691.91	738.1831	792.5934	825.6415	837.1725	915.9081	933.1375	963.9701	990.2618	1036.9018	1041.4316	1054.9556	1077.1561	1077.8179	1097.1397	1109.2587	1131.8369	1154.1867	1200.4508	1236.4931	1286.9272	1329.1664	1355.0665	1368.8806	1401.1349	1410.3723	1430.1242	1485.267	1522.3281	1751.4394	2958.282	2992.3938	3037.5927	3070.046	3140.8732	3187.4535	3200.4708	3231.0762	3515.6198
N=COC1OCC2CC12	[NH][CH]O[C@H]1OC[C@H]2C[C@@H]12	
InChI=1S/C6H9NO2/c7-3-9-6-5-1-4(5)2-8-6/h3-7H,1-2H2	InChI=1S/C6H9NO2/c7-3-9-6-5-1-4(5)2-8-6/h3-7H,1-2H2/t4-,5-,6-/m1/s1
