20
gdb 64385	2.194	1.53232	1.14343	3.0717	78.35	-0.2721	0.027	0.2991	1148.0356	0.171177	-403.174913	-403.165839	-403.164895	-403.209057	34.158	
C	-0.1268574563	 1.5811018602	-0.0966372817	-0.44517
C	-0.0153736237	 0.0565371164	-0.0115640445	 0.2744
C	-1.4084990738	-0.5920150601	-0.0344308563	-0.433287
C	 0.8525394465	-0.5243470452	-1.1542349574	-0.112453
O	 1.4046084597	-1.7274308181	-0.6475256818	-0.238578
C	 1.8690080747	-1.4051119183	 0.6452028438	-0.097375
C	 0.7722018408	-0.4765044854	 1.2567165701	-0.214116
C	 1.342206919	 0.5513717703	 2.1174956857	 0.279271
N	 1.8084592895	 1.3574035118	 2.8031083711	-0.339261
H	 0.8531058012	 2.0645275313	-0.0535616693	 0.134438
H	-0.6053011273	 1.8687552763	-1.038953343	 0.116258
H	-0.7326634076	 1.9843917839	 0.7202072717	 0.13144
H	-1.9669532207	-0.2747314154	-0.9213493245	 0.118786
H	-1.3277043289	-1.6833698646	-0.0560642581	 0.129867
H	-1.991909364	-0.3076894154	 0.8475839628	 0.121191
H	 0.2759018193	-0.7663197716	-2.0503353445	 0.114788
H	 1.6528941455	 0.1828596654	-1.4277915783	 0.092914
H	 2.0079945416	-2.3301919919	 1.2076495869	 0.126628
H	 2.8290026129	-0.8692807358	 0.5992098367	 0.112631
H	 0.0901107517	-1.0715957237	 1.8705887307	 0.127632
30.2748	153.6907	198.0759	230.3084	250.9947	292.2044	325.9751	338.5415	378.9774	412.3108	510.6917	554.619	584.2205	639.6218	758.5419	860.3993	937.9956	951.4805	964.6134	978.2108	1011.9822	1021.1851	1050.9135	1071.548	1116.5218	1184.2558	1209.4762	1241.984	1247.325	1275.8873	1309.3513	1336.0182	1367.5487	1396.2397	1405.3671	1431.2938	1484.489	1488.4485	1503.4697	1505.1103	1509.7015	1518.8386	2353.1765	2970.4641	2995.2367	3029.7037	3037.9729	3067.5495	3098.0158	3101.7092	3106.2156	3107.6343	3114.8244	3116.9636
CC1(C)COCC1C#N	CC1(C)COC[C@H]1C#N	
InChI=1S/C7H11NO/c1-7(2)5-9-4-6(7)3-8/h6H,4-5H2,1-2H3	InChI=1S/C7H11NO/c1-7(2)5-9-4-6(7)3-8/h6H,4-5H2,1-2H3/t6-/m1/s1
