14
gdb 5770	6.36739	1.45293	1.29183	2.7714	64.61	-0.2319	-0.0002	0.2316	916.8478	0.109751	-378.719243	-378.712821	-378.711877	-378.75042	23.536	
C	 0.4056678527	 1.5480706857	 0.223521041	-0.236111
N	 1.2556084327	 0.4267624981	-0.192395656	-0.306094
C	-0.1776465387	 0.1836793678	 0.0900191045	-0.156614
C	-0.51330618	-0.6556577748	 1.2441471308	 0.400272
C	-1.4133864614	-1.6489231417	 1.459196113	-0.206389
N	-1.3125727206	-2.0920293352	 2.7732321385	-0.257185
C	-0.3762019019	-1.3588203343	 3.2761360578	 0.072743
O	 0.1616879467	-0.4589487847	 2.4195534562	-0.174703
H	 0.6210972129	 1.9320168099	 1.215814716	 0.13502
H	 0.1131983541	 2.2976006748	-0.507332443	 0.117883
H	 1.403666911	 0.450152144	-1.1982245535	 0.237741
H	-0.8374263627	 0.0122735607	-0.7564988014	 0.100294
H	-2.1226994476	-2.0765491518	 0.7684737422	 0.123123
H	 0.0279783028	-1.3748714585	 4.2759582339	 0.150019
69.5127	164.566	176.3146	418.757	421.6368	654.4266	665.7442	709.4584	829.2125	835.7023	860.059	891.3592	905.8744	941.8547	970.1277	985.081	1092.7346	1124.276	1125.1972	1137.1079	1161.7537	1228.9167	1253.4559	1275.882	1289.0456	1366.333	1411.8087	1504.2424	1554.1084	1642.9278	3112.5849	3146.4706	3204.408	3263.22	3278.9354	3501.9998
C1NC1C1=CN=CO1	C1N[C@H]1c1cnco1	
InChI=1S/C5H6N2O/c1-4(7-1)5-2-6-3-8-5/h2-4,7H,1H2	InChI=1S/C5H6N2O/c1-4(7-1)5-2-6-3-8-5/h2-4,7H,1H2/t4-/m1/s1
