15
gdb 131370	3.35069	1.50165	1.05063	2.0538	67.44	-0.2254	0.0229	0.2483	1059.6586	0.115439	-453.949415	-453.94203	-453.941086	-453.98157	27.506	
O	 0.1078275168	 1.3509901845	 0.0149513896	-0.426541
C	 0.0799408243	 0.0032373536	 0.0628188893	 0.266197
N	 0.1134216905	-0.7336666203	-1.0428737233	-0.333939
N	 0.0694367605	-2.0271278495	-0.596633634	-0.345828
C	 0.0106086487	-2.0770005992	 0.7472036761	 0.32232
C	 0.0146936365	-0.7948146084	 1.2230541365	 0.117182
C	-0.0500909482	-0.8278503126	 2.7140650872	-0.192983
O	-0.0913477768	-2.2397326015	 3.0289875903	-0.282565
C	-0.056313454	-3.0681829504	 1.8621473801	-0.167212
H	 0.1528081961	 1.5990040267	-0.9174048687	 0.303748
H	 0.0841791374	-2.7713334189	-1.2705910921	 0.274479
H	 0.8255306011	-0.3824070278	 3.2056876016	 0.116411
H	-0.9465677835	-0.3477593324	 3.1295532846	 0.116453
H	-0.955763172	-3.7010832948	 1.8291085967	 0.116155
H	 0.8183218428	-3.734372409	 1.9058203761	 0.116123
77.9814	166.1424	212.3336	275.4231	339.8899	389.1924	434.4916	519.469	605.3471	641.84	650.282	714.8851	823.1031	855.6165	888.6434	1020.0945	1056.7698	1068.3046	1086.1305	1119.5581	1161.4038	1204.3218	1214.5692	1282.2832	1317.1731	1357.2564	1401.6581	1458.5043	1520.5249	1532.1339	1559.8123	1587.8144	1630.9482	2983.0281	3002.0586	3003.3261	3024.8561	3693.8839	3791.0092
OC1=NNC2=C1COC2	Oc1n[nH]c2c1COC2	
InChI=1S/C5H6N2O2/c8-5-3-1-9-2-4(3)6-7-5/h1-2H2,(H2,6,7,8)	InChI=1S/C5H6N2O2/c8-5-3-1-9-2-4(3)6-7-5/h1-2H2,(H2,6,7,8)
