18
gdb 54191	2.61845	1.55059	1.21196	2.8552	72.41	-0.2389	-0.0233	0.2156	1063.1919	0.146193	-439.055911	-439.04742	-439.046476	-439.088951	32.723	
C	 0.7931866313	 0.3473318814	 0.7748959668	-0.491041
C	-0.3193316638	 0.2707776833	-0.2348096972	 0.33184
O	-1.2809143921	 1.0161179624	-0.1984163513	-0.336573
C	-0.2735927204	-0.7693775663	-1.3614601395	 0.339332
O	-1.285714684	-0.4812544511	-2.282369752	-0.48301
C	 1.0797542855	-1.0926475616	-2.1026970834	-0.290911
C	 0.9076387909	-2.5652780941	-1.7112247316	-0.038644
N	 0.9213521151	-2.6110440314	-0.230706365	-0.335691
C	-0.3306279701	-2.2698211761	-0.9456417086	-0.118971
H	 1.09957451	-0.6540876054	 1.0867312255	 0.176202
H	 1.6705687094	 0.8076881728	 0.3039550898	 0.145637
H	 0.4807843345	 0.9658885077	 1.6175433428	 0.135353
H	-1.8195491102	 0.2066122702	-1.8463265273	 0.290326
H	 0.9357519304	-0.902772875	-3.1668029335	 0.1306
H	 1.994049019	-0.6122744603	-1.7470985231	 0.103872
H	 1.1740434949	-3.439675936	-2.2908102139	 0.100977
H	 0.8455814562	-3.5881704766	 0.0500335881	 0.236156
H	-1.2422884766	-2.8399281038	-0.8164506465	 0.104548
67.3649	153.2308	185.8914	195.4296	290.6697	359.421	404.857	415.9965	467.3844	492.4324	542.9921	616.8297	651.445	759.0389	818.739	840.4887	894.6953	925.932	942.3374	979.1465	996.477	1007.2353	1052.91	1070.1704	1082.3837	1118.6887	1154.5582	1192.6491	1231.7384	1265.3185	1283.6696	1318.3492	1374.526	1391.1308	1433.0962	1460.054	1464.4681	1472.0018	1773.7417	3038.195	3073.5208	3106.7169	3146.5188	3157.5883	3191.4169	3205.0162	3476.5754	3628.1083
CC(=O)C1(O)CC2NC12	CC(=O)[C@@]1(O)C[C@H]2N[C@@H]12	
InChI=1S/C6H9NO2/c1-3(8)6(9)2-4-5(6)7-4/h4-5,7,9H,2H2,1H3	InChI=1S/C6H9NO2/c1-3(8)6(9)2-4-5(6)7-4/h4-5,7,9H,2H2,1H3/t4-,5-,6+/m1/s1
