15
gdb 46433	3.80737	1.20263	1.10116	2.577	72.45	-0.2758	-0.0108	0.265	1092.7158	0.114513	-416.827935	-416.820559	-416.819615	-416.859947	27.901	
N	-0.0747556853	 1.2388052524	 0.2846776953	-0.539309
C	-0.0328077866	 0.0104770358	 0.0095399762	 0.434223
O	 1.1138436043	-0.7058597107	-0.2414308792	-0.24947
C	 0.8226693611	-1.9554984517	-0.8779252579	-0.152568
C	-0.6690532414	-2.203765655	-0.6525510638	 0.160973
C	-1.1266562597	-2.1362173113	 0.7858422069	-0.318738
C	-1.208073067	-0.8987844875	-0.0721073222	-0.163206
C	-1.3897224819	-2.9827605869	-1.614043577	 0.207232
N	-1.9575451563	-3.621974706	-2.3931040078	-0.33213
H	 0.8590894415	 1.6506284318	 0.2540555449	 0.232001
H	 1.0451710003	-1.8838431369	-1.9480868975	 0.138995
H	 1.4588828889	-2.7234212229	-0.4294440589	 0.137151
H	-2.0638178455	-2.6239577491	 1.0236716026	 0.1531
H	-0.3643595833	-2.1876618172	 1.5560756393	 0.146153
H	-2.1689921289	-0.4872592948	-0.3451371709	 0.145595
107.2686	155.0468	166.5355	275.5319	352.4206	419.5577	484.3753	555.6839	579.7102	636.3983	699.4196	747.2242	814.7518	880.517	900.0419	943.2072	966.7946	1005.9603	1030.0437	1056.2425	1079.13	1095.7969	1115.3511	1220.2097	1247.3816	1257.6719	1288.5308	1376.8372	1412.4459	1484.2549	1520.2801	1787.7402	2356.9948	3046.3714	3099.7382	3142.3676	3231.877	3242.6534	3482.9655
N=C1OCC2(CC12)C#N	[NH][C]1OC[C@]2(C[C@@H]12)C#N	
InChI=1S/C6H6N2O/c7-2-6-1-4(6)5(8)9-3-6/h4,8H,1,3H2	InChI=1S/C6H6N2O/c7-2-6-1-4(6)5(8)9-3-6/h4,8H,1,3H2/t4-,6-/m0/s1
