15
gdb 11280	5.12925	1.26231	1.06149	4.1095	70.16	-0.2678	-0.0462	0.2216	1057.5739	0.119785	-362.690273	-362.682758	-362.681814	-362.722317	27.406	
O	-0.0746818422	 1.4576698456	 0.0271627765	-0.42448
C	 0.042912666	 0.0424782451	-0.0163915029	 0.094242
C	-1.3701399145	-0.5774471598	-0.0556904112	-0.231969
C	-1.2835445221	-1.7858424913	-1.0159870504	-0.318352
C	-0.0311308177	-1.4805222275	-1.8214024796	 0.205262
C	 0.6857626215	-0.4891521101	-1.2788821865	-0.189082
C	 0.3203532621	-2.2128585995	-2.9890172822	 0.204976
N	 0.5784210571	-2.827139119	-3.9367140396	-0.33241
H	 0.7893910402	 1.8316990157	 0.2262429656	 0.287353
H	 0.6096513689	-0.3129635475	 0.8604945524	 0.084115
H	-1.7409877813	-0.8445898816	 0.9353610423	 0.111779
H	-2.035148042	 0.1863694846	-0.4688889211	 0.13317
H	-1.1620694475	-2.7329538878	-0.4763265622	 0.127984
H	-2.1676261061	-1.8978573668	-1.6502532223	 0.129481
H	 1.6290003075	-0.1187329902	-1.6636886886	 0.117932
99.1443	126.9392	157.5509	253.4821	317.8111	380.0451	474.1619	546.247	561.9635	582.0499	637.3875	837.7168	867.812	906.58	907.9947	979.0887	1017.0381	1054.446	1088.9936	1152.0416	1161.7961	1238.5853	1259.7225	1275.4222	1303.7526	1332.8849	1344.0481	1416.1462	1483.291	1499.7102	1678.7076	2338.3544	2955.6678	3036.8942	3068.9214	3085.588	3124.2486	3205.3348	3821.8143
OC1CCC(=C1)C#N	O[C@H]1CCC(=C1)C#N	
InChI=1S/C6H7NO/c7-4-5-1-2-6(8)3-5/h3,6,8H,1-2H2	InChI=1S/C6H7NO/c7-4-5-1-2-6(8)3-5/h3,6,8H,1-2H2/t6-/m0/s1
