16
gdb 46150	4.39109	1.01786	0.86739	3.15	69.84	-0.2542	-0.0409	0.2133	1260.5331	0.124551	-437.913391	-437.90534	-437.904395	-437.946459	29.584	
O	 0.044855248	-0.0545069675	 0.2019840218	-0.287327
C	-0.0153724586	 1.131990745	-0.0047797066	 0.384737
C	-1.3274596172	 1.9012945363	-0.0775290652	-0.335754
C	-1.2877253608	 3.0627790699	-1.0843851611	-0.217034
C	 0.0204917415	 3.8508413685	-0.9093044915	-0.022715
O	 1.1412484519	 3.0080738976	-1.1145934468	-0.248757
C	 1.2480428839	 1.9863263741	-0.1329734885	-0.181057
C	 0.1159510721	 4.9598986591	-1.8676845108	 0.284597
N	 0.1472164269	 5.8434471458	-2.6099785251	-0.307254
H	-2.1378473985	 1.199434984	-0.2864934504	 0.140127
H	-1.5020954637	 2.3018114715	 0.9323617536	 0.135345
H	-1.3172909892	 2.6834190406	-2.1104572206	 0.140704
H	-2.1484995132	 3.7247407885	-0.9502782418	 0.12965
H	 0.0551660778	 4.2855252122	 0.1055816199	 0.115501
H	 1.4671974968	 2.4219345803	 0.8590107335	 0.118506
H	 2.0864970722	 1.3513087241	-0.4218473404	 0.150731
63.3967	147.2653	165.3161	192.2782	318.5288	386.4591	418.3687	451.9823	459.6348	551.9178	567.1675	669.9716	754.022	797.6032	882.6872	927.0501	977.2372	1043.0125	1056.7117	1092.7643	1130.4465	1174.1703	1206.0957	1253.6106	1271.1809	1313.5604	1338.339	1359.7867	1375.4874	1391.4649	1457.2834	1466.0183	1485.3203	1832.0956	2372.5365	2949.5685	2952.6171	3012.4195	3057.2132	3104.2608	3112.7869	3131.9805
O=C1CCC(OC1)C#N	O=C1CC[C@@H](OC1)C#N	
InChI=1S/C6H7NO2/c7-3-6-2-1-5(8)4-9-6/h6H,1-2,4H2	InChI=1S/C6H7NO2/c7-3-6-2-1-5(8)4-9-6/h6H,1-2,4H2/t6-/m1/s1
