19
gdb 107929	3.72154	1.11464	1.04135	1.6007	74.83	-0.2477	0.0713	0.319	1199.9657	0.159395	-422.962392	-422.954177	-422.953233	-422.995105	32.212	
O	 0.1164352794	 1.2768533635	-0.2221394463	-0.414071
C	-0.04961931	-0.0874758516	 0.1418148268	-0.181605
C	-1.483200087	-0.5205273902	 0.1308002984	 0.321874
C	-2.5965099637	-0.0972502645	 1.0947159361	-0.285642
C	-3.4067901837	-1.2820613606	 0.5123793935	-0.109294
C	-2.0397776897	-1.9198737573	 0.0129556655	-0.168202
C	-2.1715455136	-0.9775885157	-1.1710612494	-0.168683
C	-3.6814373844	-0.8602280306	-0.9607378474	 0.162231
O	-4.4410217632	-1.7792130744	-1.7127900047	-0.445909
H	-0.3080362154	 1.3974647038	-1.0781870551	 0.281467
H	 0.5434307206	-0.7545132088	-0.5064877148	 0.084335
H	 0.3628060289	-0.1702046772	 1.1537487035	 0.111314
H	-2.2962193047	-0.2678968417	 2.1330569911	 0.099734
H	-3.0283675658	 0.9053838792	 0.9989608212	 0.095722
H	-4.188227124	-1.7835125712	 1.0799236356	 0.076194
H	-1.5648762527	-2.8840019204	 0.1260610227	 0.094322
H	-1.6346959486	-1.0113860967	-2.1125887502	 0.08651
H	-4.1618524396	 0.1121785215	-1.1132258176	 0.081318
H	-3.9894796629	-2.6310690373	-1.6720610589	 0.278385
86.6145	129.0817	213.9901	262.474	314.9967	334.5702	384.2902	401.2294	457.9623	494.8121	675.9699	748.923	793.9813	834.4477	841.9048	883.0422	915.8222	930.2032	952.8525	958.8823	1005.1984	1027.5981	1035.2501	1057.5741	1096.4043	1123.4833	1134.0007	1153.1856	1177.354	1208.1416	1239.3034	1245.9339	1277.4562	1296.0824	1308.2251	1363.839	1402.5094	1427.4428	1440.0434	1499.2531	1504.5098	2961.9626	3033.8722	3055.9966	3061.7338	3090.4522	3138.7168	3177.4228	3217.5549	3781.2575	3808.6582
OCC12CC3C1C2C3O	OC[C@]12C[C@@H]3[C@H]1[C@H]2[C@H]3O	
InChI=1S/C7H10O2/c8-2-7-1-3-4(7)5(7)6(3)9/h3-6,8-9H,1-2H2	InChI=1S/C7H10O2/c8-2-7-1-3-4(7)5(7)6(3)9/h3-6,8-9H,1-2H2/t3-,4+,5+,6+,7-/m1/s1
