23
gdb 96155	2.6185	1.39542	1.00152	1.2638	85.75	-0.2346	0.0839	0.3185	1262.2037	0.207567	-388.288693	-388.280179	-388.279235	-388.321322	34.351	
C	 0.0333172891	 1.5929892666	-0.0168747589	-0.401309
C	-0.0186653681	 0.0590888003	 0.0161488125	 0.042401
C	 0.6420507465	-0.5144977361	-1.2520613803	-0.178049
C	 0.6057516179	-2.0347901148	-1.4267293673	-0.087154
O	 1.3394531799	-2.7378830838	-0.4276862522	-0.249122
C	 0.5757814319	-3.0258227037	 0.7032173068	 0.121529
C	 1.2593134402	-2.9445292281	 2.0325283138	-0.336965
C	 0.2224497551	-1.9046505174	 1.6464483575	-0.046618
C	 0.6366967461	-0.4841722643	 1.3049908288	-0.21306
H	 1.0699786818	 1.9501965756	 0.0085213644	 0.113382
H	-0.4308787463	 1.9900517969	-0.9258617834	 0.107991
H	-0.4872309464	 2.0263891852	 0.8434187352	 0.109056
H	-1.076334077	-0.2438998512	 0.0201446194	 0.06561
H	 0.1641632645	-0.0722322254	-2.1372508276	 0.087482
H	 1.6932094234	-0.1954340157	-1.2772656565	 0.099459
H	-0.433393221	-2.3970728443	-1.4561660158	 0.085764
H	 1.0720130065	-2.2973535483	-2.3828995551	 0.101108
H	-0.1594307044	-3.8178286796	 0.5496754594	 0.07755
H	 1.0161712636	-3.6849284442	 2.786505993	 0.109564
H	 2.2971156969	-2.6293921329	 2.0213382231	 0.12164
H	-0.7475216784	-1.9882928797	 2.1308414008	 0.080714
H	 1.7261387185	-0.4257538298	 1.1961401249	 0.098842
H	 0.3803418396	 0.1688667548	 2.1482818175	 0.090184
124.3669	154.1959	229.2787	260.1959	289.1017	294.2718	357.6687	380.3869	433.9919	462.9192	533.4797	620.9476	768.626	804.864	815.6508	838.7606	879.9851	896.5077	934.5364	976.032	981.231	1023.9897	1038.8351	1053.0354	1068.8183	1094.5573	1119.886	1132.229	1161.256	1165.4934	1190.7687	1230.5504	1244.7632	1293.9598	1302.426	1313.1863	1345.3679	1370.5033	1380.4795	1397.6584	1410.3334	1413.5878	1424.9225	1467.3843	1478.9742	1490.3993	1497.6814	1498.892	1501.1032	2987.6398	2992.1891	3005.423	3021.0259	3026.5929	3046.5322	3061.5729	3064.7059	3079.3529	3089.5478	3097.9718	3131.8626	3135.7263	3223.2066
CC1CCOC2CC2C1	C[C@H]1CCO[C@H]2C[C@H]2C1	
InChI=1S/C8H14O/c1-6-2-3-9-8-5-7(8)4-6/h6-8H,2-5H2,1H3	InChI=1S/C8H14O/c1-6-2-3-9-8-5-7(8)4-6/h6-8H,2-5H2,1H3/t6-,7+,8-/m0/s1
