21
gdb 105346	2.06538	1.56549	1.13175	2.4264	82.28	-0.2449	-0.019	0.2259	1187.4324	0.181388	-387.072137	-387.06301	-387.062066	-387.106226	34.453	
C	 0.1996668993	 1.6311086841	 0.3212722298	-0.394129
C	-0.0495590697	 0.1393504143	 0.0598237033	-0.251593
C	 0.6553858127	-0.4472741813	-1.178998547	 0.226296
C	 2.2370665288	-0.4694521745	-1.1877854572	-0.304838
C	 2.1885538781	-1.9850477308	-1.4044154107	-0.024439
C	 1.4653093999	-2.6527377642	-0.2716712933	-0.307228
C	 0.6594946379	-1.9753210056	-1.343487006	-0.077403
C	 0.1786518562	 0.2381550185	-2.4404429474	 0.108485
O	-0.3823814799	-0.3072030164	-3.357625554	-0.255275
H	 1.2705958476	 1.8544720215	 0.3743229101	 0.121164
H	-0.2348125443	 2.2696853231	-0.4532699565	 0.12274
H	-0.2465028564	 1.9285294105	 1.2750409748	 0.119799
H	 0.2812712665	-0.4317101864	 0.9341604546	 0.105129
H	-1.1275823877	-0.0464030295	-0.0313058537	 0.109192
H	 2.6645199905	 0.0843344826	-2.0288403364	 0.110416
H	 2.7241966531	-0.1283173956	-0.2677150098	 0.099798
H	 2.8320191818	-2.5325905163	-2.0813399523	 0.090069
H	 1.4435597322	-3.7373281918	-0.3083650732	 0.115461
H	 1.5277663474	-2.2505965513	 0.7368665943	 0.104173
H	-0.0456902164	-2.5071544375	-1.9677114513	 0.104728
H	 0.4017736325	 1.3285360466	-2.4838542581	 0.077453
60.6625	93.065	170.3098	185.8186	223.0504	263.8267	327.738	347.9905	387.3349	480.0522	574.248	645.7789	755.4824	775.1079	791.4086	843.8852	907.5806	921.248	931.1181	949.6634	983.4448	1006.0253	1016.9031	1047.1777	1067.2513	1076.6041	1090.9527	1145.923	1152.6165	1159.5175	1217.2783	1236.0549	1250.2053	1294.1952	1319.4808	1363.7782	1371.2866	1413.5254	1428.8498	1481.3874	1483.9967	1500.3829	1503.0946	1509.3596	1817.8259	2870.222	3026.4311	3035.8294	3038.8831	3065.601	3089.4297	3103.5239	3110.0996	3112.0709	3187.3989	3196.63	3211.7342
CCC1(CC2CC12)C=O	CC[C@]1(C[C@H]2C[C@@H]12)C=O	
InChI=1S/C8H12O/c1-2-8(5-9)4-6-3-7(6)8/h5-7H,2-4H2,1H3	InChI=1S/C8H12O/c1-2-8(5-9)4-6-3-7(6)8/h5-7H,2-4H2,1H3/t6-,7-,8+/m1/s1
