17
gdb 53349	3.81634	0.85201	0.77602	2.1439	78.97	-0.2222	0.0295	0.2517	1512.4435	0.136024	-418.00736	-417.997963	-417.997019	-418.044389	32.728	
C	 0.1907992325	 1.574975953	-0.1336612247	-0.497163
C	 0.0423074636	 0.1283932413	-0.0802067943	 0.029888
C	-0.0876968405	-1.0679908323	-0.039200363	 0.116791
C	-0.2014497774	-2.5166096081	 0.0229196978	-0.089239
C	 0.5282067187	-3.1776727731	 1.246914568	-0.188935
N	-0.5376279756	-3.7597876081	 2.0556567625	-0.342198
C	-1.6183091467	-3.5760032521	 1.4075244526	 0.471415
N	-2.8653077566	-4.0285126725	 1.7454840794	-0.575289
O	-1.5879471998	-2.9147545801	 0.2161484314	-0.2506
H	 0.6370414454	 1.9663550358	 0.7869719332	 0.151307
H	 0.8303801567	 1.8770044912	-0.9701489065	 0.151673
H	-0.7804774272	 2.0638831875	-0.2667900525	 0.153583
H	 0.1197362057	-2.9587855684	-0.925361031	 0.114344
H	 1.2336245157	-3.9480392459	 0.9130667012	 0.107703
H	 1.0946253533	-2.4338622874	 1.8153148308	 0.116501
H	-2.9518622735	-4.2937298914	 2.7142227795	 0.267421
H	-3.6308296044	-3.4784646995	 1.3873312357	 0.262797
13.6737	27.3851	97.0201	148.4209	227.8225	295.2611	323.7192	366.4798	422.6773	451.3135	537.1407	557.4098	700.1942	723.0034	756.4115	781.7223	907.7805	964.8649	996.2532	1009.3158	1043.1823	1050.934	1056.6692	1176.2603	1181.6672	1208.7069	1289.4271	1314.0774	1358.4615	1413.6474	1430.381	1475.8676	1478.0989	1508.8192	1619.0764	1765.5362	2370.8447	3026.457	3029.2274	3054.0348	3075.5202	3091.1938	3091.6398	3588.4673	3701.7187
CC#CC1CN=C(N)O1	CC#C[C@H]1CN=C(N)O1	
InChI=1S/C6H8N2O/c1-2-3-5-4-8-6(7)9-5/h5H,4H2,1H3,(H2,7,8)	InChI=1S/C6H8N2O/c1-2-3-5-4-8-6(7)9-5/h5H,4H2,1H3,(H2,7,8)/t5-/m0/s1
