20
gdb 58701	1.97725	1.45215	1.20234	3.1129	78.41	-0.2683	0.0215	0.2897	1176.529	0.169892	-403.147198	-403.13759	-403.136646	-403.181651	35.005	
C	 0.1169753896	 1.478486021	 0.1730563703	-0.411173
C	-0.0410028001	-0.031272942	-0.0489744583	-0.039202
C	-1.5198497065	-0.4394115441	-0.0562297128	-0.411168
C	 0.6845140848	-0.4968649691	-1.3339518357	 0.11856
C	 2.2423952155	-0.4697340766	-1.2512806667	-0.117806
O	 2.3092337551	-1.9023876748	-1.1806468033	-0.263292
C	 0.9032641584	-2.0381802331	-1.4390314568	-0.117802
C	 0.1233525895	 0.1250440654	-2.5273357219	 0.26005
N	-0.3227372732	 0.6194369555	-3.4728925149	-0.353848
H	 1.1688647735	 1.779724811	 0.2059136949	 0.118671
H	-0.3708558605	 2.0446913781	-0.6272131021	 0.142813
H	-0.3419239198	 1.7740050161	 1.1210980804	 0.122734
H	 0.4625093784	-0.5591452257	 0.7719274668	 0.092035
H	-2.060756828	 0.0645868794	-0.8639434088	 0.142801
H	-1.6461608434	-1.5187040667	-0.188412583	 0.118673
H	-1.995610586	-0.1636424659	 0.8894487447	 0.122738
H	 2.7409581736	-0.0716989506	-2.1422526519	 0.122525
H	 2.6520373703	 0.0099546415	-0.355579475	 0.115086
H	 0.3954126403	-2.6330533733	-0.6719582923	 0.115084
H	 0.6994525186	-2.4627845661	-2.4284759636	 0.122521
76.8956	96.7339	143.1971	195.9342	209.5739	230.0398	251.3689	309.9198	334.0966	422.1525	446.4019	542.4393	575.9589	633.5839	810.3292	863.6876	922.271	935.5296	963.1671	982.7459	984.5278	1028.7596	1054.2604	1073.6907	1139.4831	1153.9437	1167.42	1169.4914	1206.9099	1269.4021	1314.8319	1351.0284	1363.7204	1377.7987	1405.3557	1426.2974	1487.0236	1493.0239	1506.4001	1509.8821	1512.1948	1536.3185	2348.7161	3018.3083	3023.708	3033.695	3035.8623	3039.6583	3079.008	3080.5986	3105.6873	3107.805	3109.1452	3114.0448
CC(C)C1(COC1)C#N	CC(C)C1(COC1)C#N	
InChI=1S/C7H11NO/c1-6(2)7(3-8)4-9-5-7/h6H,4-5H2,1-2H3	InChI=1S/C7H11NO/c1-6(2)7(3-8)4-9-5-7/h6H,4-5H2,1-2H3
