20
gdb 54094	2.7065	1.47422	1.35566	1.6284	79.1	-0.2369	-0.0152	0.2217	1069.2188	0.169506	-403.08295	-403.073953	-403.073009	-403.116902	33.737	
C	-0.1982079594	 1.7145785365	-0.6051087317	-0.48111
C	-0.0113921686	 0.2750416814	-0.1666668977	 0.290303
O	 0.1543538114	-0.041218828	 0.9896020933	-0.312258
C	 0.0321404419	-0.7856413263	-1.2740869755	 0.307293
C	 1.4722540488	-0.8320594974	-1.785227342	-0.498312
C	-0.801017681	-2.0799260294	-1.0540309018	-0.095706
C	-2.0255927513	-1.1509067359	-1.1993399186	-0.179772
N	-1.1064513163	-0.6409996314	-2.3328515049	-0.192861
C	-0.8866872595	-2.1450350973	-2.5947764325	-0.187095
H	 0.6853875105	 2.0480042089	-1.1619344587	 0.144301
H	-1.046649609	 1.8025956658	-1.2896409793	 0.157989
H	-0.3297788625	 2.3525133915	 0.2697714368	 0.13767
H	 2.1527090357	-0.9323724279	-0.9338438733	 0.143785
H	 1.6673382537	-1.6635751994	-2.4632672254	 0.128143
H	 1.7225838601	 0.0940436192	-2.3126959524	 0.133807
H	-0.6270999118	-2.88320337	-0.3324203333	 0.077896
H	-2.9544019739	-1.5871116268	-1.5738382262	 0.100937
H	-2.2296013005	-0.4207751167	-0.4136580639	 0.116275
H	-0.0009411807	-2.3809756558	-3.1826657872	 0.104097
H	-1.7680421276	-2.6276795209	-3.0242843255	 0.104618
54.4847	105.6786	145.5853	165.3723	211.9914	273.7157	330.9573	415.0713	473.2482	543.5105	599.3497	627.5561	657.9999	766.8224	786.0634	830.8912	874.7561	902.4634	920.7473	960.9283	1009.4974	1022.3671	1057.8563	1062.1512	1100.2112	1116.4477	1137.8592	1158.5389	1191.2864	1196.0269	1220.4684	1244.3823	1265.415	1301.2704	1382.7653	1405.6247	1460.8603	1467.8757	1488.5334	1494.977	1530.2651	1562.6241	1803.9756	3041.8354	3046.642	3060.0504	3067.145	3079.1773	3106.1537	3110.3903	3127.9725	3131.7243	3149.423	3155.4495
CC(=O)C1(C)C2CN1C2	CC(=O)[C@@]1(C)[C@H]2CN1C2	
InChI=1S/C7H11NO/c1-5(9)7(2)6-3-8(7)4-6/h6H,3-4H2,1-2H3	InChI=1S/C7H11NO/c1-5(9)7(2)6-3-8(7)4-6/h6H,3-4H2,1-2H3/t7-/m0/s1
