18
gdb 22179	2.52985	1.22497	1.00587	1.2221	72.36	-0.2493	-0.001	0.2483	1223.7967	0.143616	-476.162703	-476.152573	-476.151628	-476.197524	36.935	
C	-0.1288377628	 1.5284391465	 0.075003049	-0.426193
C	-0.0277761423	 0.0058784287	 0.0105303045	 0.277444
O	-1.2913596396	-0.6120525882	 0.1521030268	-0.47196
C	 0.7420871505	-0.5395049431	-1.2341751534	 0.095316
O	 0.8725104584	 0.3901798515	-2.2781755522	-0.427989
C	 1.9947648169	-0.8296615573	-0.3384385468	-0.379693
C	 1.1018810132	-0.579763202	 0.85439884	 0.376038
N	 1.0988031758	-0.837994813	 2.0921093481	-0.256636
O	 2.2922965162	-1.4619317765	 2.4956816516	-0.389599
H	 0.8403532204	 2.0066338414	-0.0888032938	 0.123655
H	-0.8205446946	 1.8806571833	-0.6936905634	 0.135661
H	-0.4998993628	 1.8306605772	 1.0597387818	 0.112991
H	-1.5443123836	-0.5415269175	 1.0795152055	 0.286555
H	 0.2613898365	-1.4685547223	-1.5622894675	 0.091733
H	 1.2844123946	-0.0484904637	-3.0285287292	 0.289929
H	 2.45753679	-1.8169376264	-0.4035788725	 0.127149
H	 2.7670669738	-0.0625467016	-0.4590324828	 0.129199
H	 2.1365322895	-1.614178267	 3.4341859646	 0.3064
67.3421	115.3819	152.6033	194.8252	213.5085	222.6076	242.4115	304.5102	335.4238	360.9042	410.6509	430.2574	474.2799	528.8997	611.7338	643.1649	774.3383	807.5578	895.7676	956.465	967.6683	995.1531	1071.5427	1094.1374	1108.6901	1136.9906	1167.0879	1207.199	1235.0422	1255.9102	1308.3978	1354.6038	1401.0719	1403.3133	1428.2431	1456.8654	1482.0986	1489.8498	1787.9247	3039.756	3042.6345	3053.5836	3113.9949	3116.449	3133.5732	3804.5741	3812.965	3828.154
CC1(O)C(O)CC1=NO	C[C@@]1(O)[C@@H](O)CC1=NO	
InChI=1S/C5H9NO3/c1-5(8)3(6-9)2-4(5)7/h4,7-9H,2H2,1H3	InChI=1S/C5H9NO3/c1-5(8)3(6-9)2-4(5)7/h4,7-9H,2H2,1H3/t4-,5-/m0/s1
