23
gdb 95410	2.9956	1.14994	0.89943	1.3942	88.63	-0.2305	0.0183	0.2488	1387.3963	0.205967	-388.306278	-388.296886	-388.295942	-388.340157	36.285	
C	-0.2065527291	 1.5286651206	 0.1145658261	-0.396007
C	-0.0041961849	 0.0202364953	 0.0112429444	 0.141972
C	 0.675523948	-0.3763923538	-1.3071278451	-0.179992
C	 0.7673555212	-1.890112995	-1.5696828251	-0.320807
C	 1.738076312	-2.6542672222	-0.6875047175	 0.338781
C	 2.7361628234	-3.5207966707	-1.4094085036	-0.477665
C	 1.7131944695	-2.5796239215	 0.6456562542	-0.158985
C	 0.7520094	-1.7437745038	 1.458647811	-0.131864
O	 0.7451916232	-0.3572204211	 1.156517376	-0.251305
H	 0.7571874609	 2.0457505694	 0.0683616664	 0.122404
H	-0.8361362617	 1.8955802294	-0.7015626456	 0.109069
H	-0.6823377094	 1.7806830561	 1.065790208	 0.119556
H	-0.9907412839	-0.4781580614	 0.0543046318	 0.055333
H	 0.105831804	 0.081123189	-2.1257768281	 0.089597
H	 1.679056078	 0.0651534948	-1.3270063404	 0.101704
H	-0.2370805923	-2.3281957643	-1.4649179493	 0.107625
H	 1.0458311968	-2.043129185	-2.6179123803	 0.095928
H	 3.3747929203	-2.9205997064	-2.0709968189	 0.123237
H	 3.3812420767	-4.0666603634	-0.7160550514	 0.118806
H	 2.2282475001	-4.2514438226	-2.0528640882	 0.122145
H	 2.4328825227	-3.1650960944	 1.2140751149	 0.076837
H	-0.2743637156	-2.1431032285	 1.3662412939	 0.08939
H	 1.02359979	-1.8079064506	 2.5167698368	 0.104245
61.0392	170.8423	202.8471	216.0078	221.7232	261.1862	311.4935	313.8334	369.9613	402.8015	455.2087	502.6403	581.7361	665.7485	737.0196	801.9103	832.4832	874.4106	918.8527	937.5002	964.0294	1028.0016	1044.0143	1051.0536	1061.0683	1094.5095	1131.5759	1136.5654	1155.0527	1201.0986	1228.7927	1270.838	1300.4952	1334.367	1349.7589	1376.76	1389.7632	1405.5087	1407.4113	1411.2555	1415.6782	1469.0296	1477.4188	1481.619	1484.9621	1488.1388	1490.7414	1501.6541	1735.8429	2925.0413	2938.7356	2994.9772	3010.9144	3021.3239	3041.8242	3055.6953	3061.4981	3069.2898	3072.3307	3111.6109	3113.6468	3122.4628	3143.5023
CC1CCC(C)=CCO1	C[C@H]1CCC(=CCO1)C	
InChI=1S/C8H14O/c1-7-3-4-8(2)9-6-5-7/h5,8H,3-4,6H2,1-2H3	InChI=1S/C8H14O/c1-7-3-4-8(2)9-6-5-7/h5,8H,3-4,6H2,1-2H3/t8-/m0/s1
