20
gdb 8003	3.05996	1.74507	1.28148	1.5606	78.16	-0.2253	0.0243	0.2496	1039.7917	0.175717	-349.028927	-349.020107	-349.019163	-349.062025	32.787	
C	 0.1604354685	 1.5348595454	-0.1423071901	-0.386648
C	-0.0116845034	 0.028366345	 0.0524878438	 0.099019
O	 0.5614943846	-0.671410747	-1.0577694915	-0.290703
C	 1.4491844868	-1.6963476284	-0.6092659464	 0.052022
C	 2.7838563198	-1.5749884535	-1.345206703	-0.393404
C	 1.52292675	-1.5191915625	 0.8932077759	 0.313287
C	 2.394119573	-2.3725289129	 1.7574756539	-0.497178
C	 0.6909299269	-0.5456258431	 1.2523036036	-0.220712
H	 1.2216897729	 1.799505958	-0.1605288876	 0.115616
H	-0.292692214	 1.8456702296	-1.0880789203	 0.123499
H	-0.3260088616	 2.08690623	 0.6690823884	 0.108005
H	-1.0929023945	-0.1943707694	 0.0937222816	 0.074261
H	 1.0110494221	-2.6830640685	-0.8485149849	 0.071247
H	 3.2790356657	-0.6334137491	-1.0890711887	 0.116342
H	 3.4495597055	-2.4061316312	-1.0900207533	 0.109412
H	 2.6139730378	-1.5940661519	-2.425235439	 0.126236
H	 3.4542756914	-2.2513318724	 1.5039724393	 0.131847
H	 2.2697883716	-2.1286122214	 2.8155820586	 0.126443
H	 2.161147362	-3.4367340328	 1.6238580499	 0.127876
H	 0.5089912649	-0.1967087638	 2.2621358295	 0.093534
71.3932	141.4081	183.3315	217.2327	228.5988	246.7346	308.6448	349.4281	408.6234	464.7134	563.0504	618.4433	713.0998	788.6254	844.8974	850.9119	899.7421	959.2086	1012.668	1031.1509	1044.5352	1084.0067	1104.8906	1108.6881	1122.1023	1139.8742	1217.2618	1285.766	1339.5852	1356.2242	1370.7891	1378.4686	1398.1415	1400.2363	1415.0843	1479.071	1484.2705	1487.2586	1491.8872	1494.2107	1496.761	1733.2861	2924.7818	2935.8978	3020.7165	3035.7082	3037.0008	3067.7825	3108.8103	3110.3354	3114.8028	3119.166	3120.146	3201.4901
CC1OC(C)C(C)=C1	C[C@H]1O[C@@H](C)C(=C1)C	
InChI=1S/C7H12O/c1-5-4-6(2)8-7(5)3/h4,6-7H,1-3H3	InChI=1S/C7H12O/c1-5-4-6(2)8-7(5)3/h4,6-7H,1-3H3/t6-,7+/m1/s1
