14
gdb 45930	2.91241	1.4923	1.02336	2.4232	64.85	-0.2761	-0.087	0.1891	1075.8503	0.100837	-473.879736	-473.872091	-473.871147	-473.912837	27.849	
N	-0.0038990084	 1.1534500701	 0.5428615086	-0.435328
C	-0.0648826699	 0.0430664702	-0.0462041275	 0.294934
O	 1.0301244717	-0.4655618774	-0.7303339487	-0.239679
C	 1.1935781416	-1.8001710337	-1.0606995973	 0.41552
O	 2.1944713257	-2.1245264317	-1.6219836514	-0.28642
C	 0.0614448022	-2.7170784437	-0.6593481432	-0.36232
C	-1.3004104199	-2.0465625224	-0.877911102	-0.326192
C	-1.3703030123	-0.7515909752	-0.0967172386	 0.339389
O	-2.3575716982	-0.3472506967	 0.4554007973	-0.258557
H	 0.9351674617	 1.5516854475	 0.4658290607	 0.247696
H	 0.1676704477	-3.641136649	-1.2285725127	 0.156506
H	 0.1915184804	-2.97022057	 0.4010252574	 0.154616
H	-1.4321299077	-1.8114230637	-1.9428201509	 0.151199
H	-2.1325272846	-2.6849429043	-0.5763189618	 0.148636
43.431	108.6662	165.3517	323.3821	389.0824	403.3902	425.6809	467.9822	544.9565	609.2592	651.0798	676.5151	777.2225	832.2433	898.3325	939.5294	982.2875	1037.9629	1074.5279	1130.0928	1150.0915	1175.6924	1271.3508	1310.4943	1326.6897	1355.168	1464.7242	1473.3892	1734.54	1838.8728	1884.3846	3029.3216	3042.2281	3124.1905	3132.043	3468.054
N=C1OC(=O)CCC1=O	[NH][C]1OC(=O)CCC1=O	
InChI=1S/C5H5NO3/c6-5-3(7)1-2-4(8)9-5/h6H,1-2H2	InChI=1S/C5H5NO3/c6-5-3(7)1-2-4(8)9-5/h6H,1-2H2
