17
gdb 8235	5.33328	1.13044	1.08399	5.4039	65.29	-0.2448	0.0205	0.2654	1116.759	0.142888	-401.010705	-401.00298	-401.002036	-401.043605	27.88	
O	-0.1691597777	-0.0768787973	-0.5215855746	-0.361596
C	 0.0087343339	 1.1862517363	-0.1025158411	 0.41499
O	 1.0885357377	 1.6713575884	 0.0930168356	-0.331289
C	-1.3126006171	 1.9527109704	 0.0639974454	-0.306254
N	-2.4418607057	 1.0471798646	 0.1626281901	-0.102113
H	-1.1428987496	-0.189224148	-0.5726470527	 0.298205
C	-3.8137063113	 1.5311756452	-0.1265377687	-0.160989
C	-4.3413768249	 0.6214927804	 1.0090984706	-0.227793
C	-2.8751801248	 0.5594870356	 1.4985067849	-0.165997
H	-1.2124618228	 2.6367030184	 0.9196043437	 0.124235
H	-1.4347746681	 2.571461951	-0.8333555605	 0.14199
H	-3.9433751716	 2.5986916317	 0.1026490087	 0.10168
H	-4.1562683821	 1.3425235306	-1.1482451269	 0.114146
H	-5.0739807035	 1.052889292	 1.6903517008	 0.116182
H	-4.7053680626	-0.3401820499	 0.6440637853	 0.121182
H	-2.4616480545	-0.4102747104	 1.7895047151	 0.118971
H	-2.6665435753	 1.2888995609	 2.2952560843	 0.10445
65.6468	99.4001	118.7242	200.9184	346.1046	362.297	426.4883	568.9021	624.049	705.3792	798.9387	831.8693	842.2855	876.1216	926.3089	941.8409	968.598	1003.3413	1092.9972	1131.0988	1145.2632	1201.0375	1212.9977	1220.9597	1230.6782	1264.2158	1272.1129	1298.9412	1333.6847	1362.9478	1415.3044	1462.153	1489.5433	1504.6428	1532.4688	1880.891	2994.5749	2999.7471	3005.0145	3065.8375	3076.3516	3080.7958	3093.49	3149.7158	3495.8801
[O-]C(=O)C[NH+]1CCC1	OC(=O)CN1CCC1	
InChI=1S/C5H9NO2/c7-5(8)4-6-2-1-3-6/h1-4H2,(H,7,8)	InChI=1S/C5H9NO2/c7-5(8)4-6-2-1-3-6/h1-4H2,(H,7,8)
