17
gdb 33431	2.1683	1.9541	1.16816	0.7652	85.52	-0.2508	0.0244	0.2752	1058.6579	0.134524	-347.427673	-347.419641	-347.418697	-347.459786	32.198	
C	-0.071243896	-1.1946118708	-0.0894528069	-0.429693
C	-0.0382864667	 0.0059869725	-0.0363215381	 0.223435
C	-0.0221777189	 1.4632891883	 0.0052764585	 0.074663
C	-1.0028965812	 1.9984257874	-0.9314938272	 0.223466
C	-1.8183525742	 2.4141421363	-1.7109545943	-0.429708
C	 0.0867176847	 2.1560330343	 1.4297874736	-0.068821
C	 1.5411456113	 1.6135907397	 1.5164824511	-0.252977
C	 1.3927194992	 2.1802267689	 0.0763388426	-0.068822
C	 0.6743889871	 3.4037106543	 0.7121105904	-0.252974
H	-0.1005990047	-2.2550609367	-0.1365489924	 0.190471
H	-2.5386424131	 2.7811472143	-2.3995198768	 0.190473
H	-0.6903612244	 2.1230636971	 2.193764337	 0.087152
H	 2.2123188082	 2.16935975	 2.174061774	 0.097046
H	 1.6685761953	 0.5363182758	 1.6201886059	 0.116048
H	 2.1288301143	 2.1752895125	-0.7278477254	 0.087152
H	 0.0025104042	 3.9772561369	 0.0740380248	 0.116053
H	 1.3019547749	 4.0495414792	 1.3292205734	 0.097038
140.7856	141.3464	180.3743	196.4572	409.1578	448.3726	507.847	522.5837	529.8866	578.0929	615.9864	618.3626	619.1677	638.4992	639.4075	786.3107	814.8304	889.8649	902.077	906.6465	1001.4656	1019.069	1023.4038	1064.9646	1100.309	1111.4065	1152.3378	1183.6418	1185.874	1201.2871	1234.3079	1236.2295	1259.5136	1498.8022	1537.5446	2230.6995	2232.7752	3077.1606	3078.2174	3112.6233	3117.9282	3149.9828	3150.1695	3501.3135	3502.0059
C#CC1(C#C)C2CC1C2	C#CC1(C#C)[C@H]2C[C@@H]1C2	
InChI=1S/C9H8/c1-3-9(4-2)7-5-8(9)6-7/h1-2,7-8H,5-6H2	InChI=1S/C9H8/c1-3-9(4-2)7-5-8(9)6-7/h1-2,7-8H,5-6H2/t7-,8+
