19
gdb 34050	2.99042	1.33343	1.14608	5.1798	79.8	-0.245	0.0227	0.2677	1129.7883	0.161732	-382.070041	-382.062139	-382.061194	-382.10238	30.87	
N	 0.0389050482	-1.1404586	 0.0923037978	-0.343537
C	 0.0234544421	 0.012862636	 0.0128896092	 0.263941
C	-0.0478014484	 1.4597661372	-0.0855051319	 0.153919
C	 0.48500471	 2.1019212828	-1.3283030277	-0.270431
N	 1.2747092149	 2.1203172915	-0.1098506234	-0.112891
C	 1.4535761934	 3.4089892347	 0.592638697	-0.149531
C	 0.3459837391	 3.7651665668	 1.5897871656	-0.19783
C	-1.0391075505	 3.552453288	 0.9746825237	-0.222553
C	-1.2369915107	 2.0641672745	 0.6627902599	-0.273057
H	 0.8701352751	 1.4858656997	-2.1364280186	 0.133529
H	-0.0048758615	 3.0212081617	-1.6473002007	 0.116661
H	 2.4182893381	 3.3627863768	 1.1083587926	 0.11842
H	 1.5357904394	 4.1997859436	-0.1634347816	 0.107523
H	 0.4394484651	 3.1394139572	 2.4865908161	 0.110953
H	 0.4832543498	 4.8021061584	 1.9131630006	 0.105359
H	-1.8260232044	 3.879036106	 1.6613768024	 0.108803
H	-1.1470627611	 4.1614349003	 0.0682940038	 0.103028
H	-2.1531798221	 1.8877457076	 0.0892917392	 0.121188
H	-1.3507883165	 1.5210380473	 1.607811686	 0.126506
100.1883	148.3318	175.2675	281.2075	332.8553	391.696	400.696	469.2632	547.4953	563.8748	578.6776	673.6318	752.005	826.9345	850.3009	885.6534	926.9793	935.463	963.2478	979.9818	1070.52	1085.9599	1113.418	1129.9289	1154.8742	1193.8848	1215.1651	1228.0013	1288.54	1298.9243	1345.9004	1365.9133	1383.4236	1389.4932	1399.9174	1485.228	1490.366	1496.8082	1499.3309	1517.2189	2354.6363	3024.0151	3025.3196	3031.5731	3039.6682	3067.5913	3075.8161	3080.9226	3085.28	3090.6499	3180.3156
N#CC12CN1CCCC2	N#C[C@]12CN1CCCC2	
InChI=1S/C7H10N2/c8-5-7-3-1-2-4-9(7)6-7/h1-4,6H2	InChI=1S/C7H10N2/c8-5-7-3-1-2-4-9(7)6-7/h1-4,6H2/t7-,9?/m1/s1
