16
gdb 49569	2.20221	1.74425	1.16415	1.7697	69.5	-0.2479	-0.0325	0.2155	1047.5617	0.123176	-437.811914	-437.804097	-437.803153	-437.844891	29.061	
O	 0.061306239	-0.0801916284	-0.0162995766	-0.264277
C	 0.079814493	 1.1133207699	-0.1958296738	 0.151876
C	 1.3188893541	 1.9596085782	-0.0658680768	-0.216731
C	 1.3736870757	 3.2660281421	-0.8934090898	 0.001482
O	 0.2617175534	 4.0695506189	-0.4904717792	-0.237081
C	 1.4504039191	 4.103750647	 0.3148172256	-0.058474
C	 1.3937016297	 2.874818836	 1.2047183791	 0.336524
C	 0.8031255454	 2.671899134	 2.5433751083	-0.301538
N	 2.2688150098	 2.6648677718	 2.3402403466	-0.367914
H	-0.8422379337	 1.6811915853	-0.4382113165	 0.100383
H	 2.2153037055	 1.3407421328	-0.1608495494	 0.103643
H	 1.7719723503	 3.4139687536	-1.8894697904	 0.120719
H	 1.9144332415	 5.064488098	 0.4991760144	 0.123931
H	 0.4215317973	 3.5168444363	 3.1090219644	 0.130494
H	 0.3012180162	 1.7264586724	 2.7330928247	 0.133232
H	 2.6295243238	 1.713835312	 2.3527005893	 0.243731
56.6351	116.9808	198.2189	214.643	289.0346	367.9452	452.6877	498.1989	534.8367	619.1197	798.4974	839.1191	861.619	869.1847	881.5459	939.5384	951.2114	986.5069	993.8632	1034.8132	1052.8812	1069.9197	1114.6568	1128.7987	1180.0496	1203.1866	1227.1229	1257.3694	1274.619	1287.4366	1369.6821	1419.5686	1423.5333	1514.344	1813.0217	2923.4915	3086.4438	3110.9745	3195.1395	3199.5041	3211.025	3501.1174
O=CC1C2OC2C11CN1	O=C[C@H]1[C@H]2O[C@H]2[C@]21CN2	
InChI=1S/C6H7NO2/c8-1-3-4-5(9-4)6(3)2-7-6/h1,3-5,7H,2H2	InChI=1S/C6H7NO2/c8-1-3-4-5(9-4)6(3)2-7-6/h1,3-5,7H,2H2/t3-,4+,5+,6+/m0/s1
