12
gdb 125471	3.20784	1.34998	0.95577	2.8863	72.14	-0.2346	-0.0892	0.1454	1124.2571	0.076825	-468.836539	-468.828896	-468.827952	-468.869076	26.951	
C	-0.0344978907	 1.4113055802	-0.0143771012	-0.486827
C	 0.0017781245	-0.0704180048	 0.0332743524	 0.409161
N	-0.1991023997	-0.8844683629	-0.9436551203	-0.350882
C	-0.0468063325	-2.1388681493	-0.3524135365	 0.219152
C	 0.2639793517	-2.0378948851	 1.0676660498	 0.382008
O	 0.4706310268	-2.8228833794	 1.9441314332	-0.344965
N	-0.2663675161	-4.2635321095	-1.5227741188	-0.193702
N	-0.1692498938	-3.2660187091	-0.9971402735	 0.123174
O	 0.2795137161	-0.6416899428	 1.2487585866	-0.235095
H	 0.9299754634	 1.8281293537	 0.2936488795	 0.158252
H	-0.2645177407	 1.7338162027	-1.029664247	 0.161481
H	-0.7925494889	 1.7981427063	 0.6744746758	 0.158243
120.8852	144.5119	150.5428	188.8099	294.9119	342.2426	444.6423	516.0238	548.9828	626.6189	659.3891	661.6061	739.2387	828.2394	912.978	1001.952	1063.129	1066.6852	1235.7811	1305.6376	1407.2787	1427.8945	1469.5905	1473.4779	1672.9502	1885.7622	2218.426	3047.041	3103.658	3163.568
CC1=NC2=C(ON=N2)O1	CC1=N[C](C(=O)O1)[N][N]	
InChI=1S/C4H3N3O2/c1-2-5-3-4(8-2)9-7-6-3/h1H3	InChI=1S/C4H3N3O2/c1-2-6-3(7-5)4(8)9-2/h1H3
