17
gdb 72615	2.17896	1.95514	1.6252	0.8108	66.85	-0.245	0.0658	0.3109	926.257	0.134394	-458.903546	-458.895651	-458.894707	-458.935475	30.846	
C	-0.0487189414	 1.5391123638	-0.0599501839	-0.486001
C	 0.0056217944	 0.0432379482	 0.049942707	 0.337987
O	 0.8267831023	-0.6004821502	-0.9517838814	-0.329432
C	 1.5843166498	-1.3375720603	 0.0331138434	-0.126966
C	 0.7213891753	-0.8166008082	 1.1876183516	 0.297907
O	 1.4213454325	-0.3466064338	 2.28626789	-0.468595
C	-0.5883471086	-1.5741640252	 1.3698618274	-0.078606
O	-1.5805980636	-0.5845883933	 1.7034620246	-0.257982
C	-1.2556482814	-0.7822440049	 0.3202148382	-0.021622
H	 0.9469947887	 1.9726047836	 0.071771514	 0.131441
H	-0.4222104147	 1.8351529062	-1.0463665582	 0.131223
H	-0.7161567807	 1.9490971314	 0.7034335212	 0.131896
H	 1.580739895	-2.4175112153	-0.1524944043	 0.105449
H	 2.6177667652	-0.9781252709	 0.0977672429	 0.117995
H	 0.7750179136	-0.0173773165	 2.9225168202	 0.293696
H	-0.7681678608	-2.5891171854	 1.7071448622	 0.109198
H	-2.0510835256	-1.0736921893	-0.3551933249	 0.112411
155.2	175.6582	201.2636	236.9133	284.4821	357.0251	393.1859	426.0622	508.7743	570.297	628.4929	705.0403	718.8489	854.8283	862.8543	880.693	891.331	924.1736	982.7077	1003.5839	1028.6617	1054.6285	1108.1115	1132.4679	1153.9808	1163.9578	1201.4138	1219.2242	1304.726	1319.6591	1347.6165	1367.4479	1398.8524	1407.6844	1482.4988	1487.0597	1515.5362	3027.2186	3036.7471	3077.4018	3105.901	3120.8948	3178.1126	3199.3352	3791.7468
CC12OCC1(O)C1OC21	C[C@@]12OC[C@]1(O)[C@H]1O[C@@H]21	
InChI=1S/C6H8O3/c1-5-3-4(9-3)6(5,7)2-8-5/h3-4,7H,2H2,1H3	InChI=1S/C6H8O3/c1-5-3-4(9-3)6(5,7)2-8-5/h3-4,7H,2H2,1H3/t3-,4+,5+,6+/m1/s1
