21
gdb 97798	3.43503	0.64575	0.57995	1.3284	90.48	-0.2284	0.0514	0.2799	1981.0535	0.180724	-387.050242	-387.039552	-387.038608	-387.08817	37.527	
C	-0.0058676274	 1.5903103256	-0.2908546068	-0.361633
C	-0.0091032014	 0.1317347872	 0.2031964978	-0.314961
C	-1.3369045376	-0.4746153905	 0.1935097144	 0.067442
C	-2.4446918988	-0.9517063087	 0.1703999093	 0.07337
C	-3.7709283988	-1.5030214325	 0.164023382	-0.205076
C	-4.346979401	-2.1349797004	-1.095522526	-0.278449
C	-4.0155791056	-3.0057651901	 0.0795925008	 0.018318
C	-2.8606250501	-3.9670251504	 0.0121960497	-0.103301
O	-3.3138119237	-5.1490334145	-0.6375337836	-0.422045
H	 1.0080660981	 2.0011062498	-0.2648272687	 0.1118
H	-0.378237698	 1.6531811314	-1.3169353935	 0.127186
H	-0.6468631027	 2.2139461007	 0.3381720667	 0.127087
H	 0.6675150878	-0.4658106099	-0.4216784176	 0.125429
H	 0.4072672305	 0.0897683389	 1.2183154232	 0.125477
H	-4.4827457505	-0.9620863125	 0.7815623314	 0.107477
H	-5.3877689667	-1.9390325338	-1.3268192733	 0.115542
H	-3.6918789252	-2.1884113727	-1.9576635827	 0.124753
H	-4.8555163898	-3.3677311004	 0.6653818994	 0.094541
H	-2.0256933496	-3.5012559926	-0.5312554485	 0.094594
H	-2.5030400594	-4.1875129147	 1.0307331534	 0.087894
H	-2.5949130998	-5.78777999	-0.6234495574	 0.284557
15.7566	64.8177	79.0012	112.0839	150.8716	213.6718	238.7325	252.5294	320.0492	345.9534	422.2544	477.0552	533.3006	587.0918	696.5114	784.7277	800.5541	852.412	903.681	927.1502	955.2651	1001.7207	1062.5387	1072.1033	1072.7352	1090.9471	1104.0088	1125.4503	1166.7525	1182.6606	1233.0433	1254.7966	1279.0558	1286.5614	1349.7695	1374.6331	1405.3708	1407.9334	1470.4731	1475.8879	1488.4836	1494.1296	1505.6874	1520.9879	2357.7295	2972.7632	3013.6256	3015.3569	3041.5339	3043.1233	3115.8704	3123.3183	3137.442	3139.2259	3154.2569	3229.11	3826.1428
CCC#CC1CC1CO	CCC#C[C@H]1C[C@H]1CO	
InChI=1S/C8H12O/c1-2-3-4-7-5-8(7)6-9/h7-9H,2,5-6H2,1H3	InChI=1S/C8H12O/c1-2-3-4-7-5-8(7)6-9/h7-9H,2,5-6H2,1H3/t7-,8-/m0/s1
