19
gdb 99788	1.95876	1.06476	0.97768	2.1757	86.49	-0.2517	0.0333	0.285	1410.8636	0.154717	-385.827448	-385.81626	-385.815316	-385.864796	39.309	
C	 0.0640384878	 1.4596505582	-0.0735899421	-0.49983
C	 0.062688402	 0.0035210047	-0.0373502301	 0.024557
C	 0.0471966411	-1.1998429535	 0.022400915	 0.1078
C	 0.0474695115	-2.6718701134	 0.0279289057	-0.172674
C	-1.4043391867	-3.2133975798	 0.0627265683	-0.410629
C	 0.7366031006	-3.1556965548	-1.2889497565	-0.055178
O	 2.0390950461	-2.6585285488	-1.4501925947	-0.416073
C	 0.7918488656	-3.1730152318	 1.1914437788	 0.378317
C	 1.3756285751	-3.6200742288	 2.1412546058	-0.489447
H	 0.9596683479	 1.8671943301	 0.4075435456	 0.154437
H	 0.0386100893	 1.8337338115	-1.1027888624	 0.150338
H	-0.8083795905	 1.8667405698	 0.4488637995	 0.154023
H	-1.9646263618	-2.8409405187	-0.7992305507	 0.12378
H	-1.3953586706	-4.3067000929	 0.0396920713	 0.127207
H	-1.9095431718	-2.8897952761	 0.9746047663	 0.137005
H	 0.8148881374	-4.2464405334	-1.2620412038	 0.116385
H	 0.079217211	-2.8727702777	-2.1262704622	 0.089267
H	 1.9851722421	-1.6972172366	-1.3788797476	 0.284237
H	 1.9061222939	-4.001771738	 2.9781837438	 0.196478
21.8998	81.9084	87.2585	121.4358	186.1599	198.6711	233.6693	246.695	296.0965	318.3857	396.5654	417.3339	451.5012	489.9598	532.2124	612.8521	631.3967	641.1812	661.4137	833.9829	906.4224	1001.1164	1039.3287	1051.6257	1054.325	1094.7473	1116.1451	1183.0798	1189.6792	1293.1373	1378.4155	1401.2881	1413.6274	1430.0219	1477.4947	1477.9115	1483.722	1494.4224	1498.09	2238.247	2362.9383	2978.6453	3030.1739	3046.5713	3089.9828	3092.1005	3093.2246	3123.845	3137.5228	3502.7476	3771.632
CC#CC(C)(CO)C#C	CC#C[C@@](C)(CO)C#C	
InChI=1S/C8H10O/c1-4-6-8(3,5-2)7-9/h2,9H,7H2,1,3H3	InChI=1S/C8H10O/c1-4-6-8(3,5-2)7-9/h2,9H,7H2,1,3H3/t8-/m0/s1
