17
gdb 107602	2.72764	1.59911	1.16091	4.4605	67.92	-0.266	0.0005	0.2665	1051.7153	0.13737	-458.993266	-458.985493	-458.984549	-459.025607	29.607	
O	 0.0394760183	 1.3634673307	 0.3630749012	-0.418446
C	 0.0552566813	 0.0164727859	-0.0561936323	-0.158893
C	-1.3353578845	-0.5807519427	-0.0528056718	 0.159354
C	-1.9742274069	-1.1612523152	 1.1957891907	-0.313686
C	-1.7331877564	-2.0380924074	 0.004773001	-0.13518
C	-2.9039762766	-2.1794428617	-0.9542672084	-0.103736
O	-3.2730091069	-0.8419646503	-1.348832019	-0.2269
C	-2.3267456552	 0.0576330032	-0.9731341495	 0.429044
O	-2.3248297539	 1.1956835167	-1.366068705	-0.367928
H	-0.596969322	 1.8143826247	-0.2101610681	 0.300501
H	 0.4950038772	-0.0893791563	-1.061364913	 0.095059
H	 0.6979313225	-0.5319441422	 0.6410504224	 0.105334
H	-1.3094461018	-1.2757147953	 2.0449028511	 0.133498
H	-2.9915128186	-0.8804624339	 1.450815063	 0.133701
H	-0.9975994454	-2.8320511801	 0.0475789293	 0.110864
H	-2.6275556552	-2.7370424891	-1.8554668773	 0.12739
H	-3.7850576457	-2.647084467	-0.5052623644	 0.130022
108.7678	143.7456	189.3312	245.8901	274.9644	359.3964	420.7597	493.6856	546.902	630.9968	703.5014	724.6981	785.8102	837.7367	879.6343	927.4511	963.3652	981.8507	1024.7661	1052.7039	1068.4693	1079.0995	1089.1263	1117.1528	1132.281	1212.4136	1239.1009	1272.1978	1337.9426	1381.9968	1386.5959	1414.7698	1457.224	1488.3088	1508.2482	1520.451	1842.7327	2971.2699	3046.8046	3066.1204	3093.951	3128.6608	3189.723	3219.3694	3738.6606
OCC12CC1COC2=O	OC[C@]12C[C@H]1COC2=O	
InChI=1S/C6H8O3/c7-3-6-1-4(6)2-9-5(6)8/h4,7H,1-3H2	InChI=1S/C6H8O3/c7-3-6-1-4(6)2-9-5(6)8/h4,7H,1-3H2/t4-,6+/m0/s1
