14
gdb 26880	2.99545	1.49104	1.0017	3.1961	71.77	-0.223	-0.0835	0.1395	1097.2601	0.099942	-473.877379	-473.869391	-473.868447	-473.910122	29.308	
C	 0.0826654622	 1.5056637689	 0.0505451161	-0.478162
C	-0.0526942062	 0.0242266259	 0.0229099585	 0.29892
C	-1.2027733879	-0.6872731374	-0.1108986021	 0.29463
O	-2.4024105152	-0.0621871227	-0.2388538639	-0.431144
N	-1.2147772632	-2.0501068865	-0.1238119386	-0.277303
C	-0.0951804112	-2.687441924	-0.0048703766	-0.129748
C	 1.202971901	-2.0324767844	 0.144886295	 0.38507
O	 2.2744867059	-2.5645452873	 0.2593761649	-0.337549
O	 1.1217895539	-0.6459545761	 0.147669878	-0.239846
H	 0.7322871448	 1.8487926121	-0.7624475856	 0.151724
H	-0.8969336482	 1.9723859897	-0.0538707242	 0.159856
H	 0.5382348887	 1.8338096104	 0.991543	 0.151722
H	-3.0631877023	-0.7616347477	-0.3181673198	 0.30269
H	-0.0940869522	-3.7733454409	-0.0139698818	 0.149139
97.2086	105.9356	176.0626	273.4735	350.5407	361.6312	375.9636	438.3489	474.4894	520.3219	592.1392	623.0173	704.6059	770.2444	815.203	870.3556	925.8332	1034.2023	1056.9875	1068.0345	1138.9941	1276.5034	1310.3987	1346.6892	1405.8926	1431.8488	1473.8587	1479.2974	1570.6976	1707.5153	1834.7432	3036.0286	3088.3248	3157.0562	3181.6284	3795.5011
CC1=C(O)N=CC(=O)O1	Cc1c(O)ncc(=O)o1	
InChI=1S/C5H5NO3/c1-3-5(8)6-2-4(7)9-3/h2,8H,1H3	InChI=1S/C5H5NO3/c1-3-5(8)6-2-4(7)9-3/h2,8H,1H3
