20
gdb 13364	5.98822	0.93597	0.85051	0.0959	84.18	-0.2364	0.0654	0.3019	1409.7052	0.177704	-311.868619	-311.859524	-311.85858	-311.905064	31.641	
C	 0.2612685832	 1.5682934108	-0.5226615501	-0.499338
C	 0.1600526408	 0.1562610999	-0.18089526	 0.113181
C	 0.080925801	-1.0131072617	 0.0981469943	 0.014726
C	-0.0314881529	-2.4217267016	 0.4488345281	-0.144995
C	 0.1377130771	-2.7305136058	 1.9558607666	-0.194328
C	-0.4000860846	-4.1694117307	 2.112444615	-0.212447
C	-1.4003947246	-4.3828700181	 0.9351096986	-0.212469
C	-1.4073937297	-3.0593416806	 0.1400389457	-0.194295
H	-0.6592493068	 1.9331048753	-0.9923093147	 0.144516
H	 0.4430610452	 2.1829364573	 0.3662546718	 0.144499
H	 1.0834757186	 1.7518871119	-1.2235411786	 0.144609
H	 0.7353152421	-2.9871465485	-0.1013123492	 0.093023
H	 1.1705433654	-2.6147645233	 2.2942569867	 0.099214
H	-0.4732607729	-2.022505766	 2.5265514075	 0.104635
H	 0.4193994075	-4.8922125803	 2.049397464	 0.099387
H	-0.8710799852	-4.3173592052	 3.0878972663	 0.098452
H	-1.0662949354	-5.2084304763	 0.2988540368	 0.099383
H	-2.4021738757	-4.6456357382	 1.2852842341	 0.098419
H	-2.191794811	-2.3886646777	 0.5077028361	 0.104624
H	-1.574369262	-3.1982330612	-0.9311669689	 0.099204
16.4221	29.6924	91.3548	95.7229	214.6777	287.3239	328.0333	438.4109	506.7225	508.1918	628.1457	750.5003	819.578	832.9816	889.0857	903.2499	956.721	972.3641	975.8178	1052.1494	1053.1792	1053.3797	1081.136	1177.5353	1185.7764	1198.9376	1230.9492	1255.7758	1294.1755	1310.1797	1324.1534	1328.8863	1337.8968	1380.2863	1415.3076	1479.5552	1479.7113	1486.3952	1495.0002	1497.3553	1518.4639	2369.1357	2990.7062	3023.1215	3043.588	3043.845	3048.5968	3057.3306	3077.8354	3082.1124	3082.4632	3094.0665	3099.8682	3109.3971
CC#CC1CCCC1	CC#CC1CCCC1	
InChI=1S/C8H12/c1-2-5-8-6-3-4-7-8/h8H,3-4,6-7H2,1H3	InChI=1S/C8H12/c1-2-5-8-6-3-4-7-8/h8H,3-4,6-7H2,1H3
