12
gdb 123498	4.25159	1.78493	1.25715	5.5834	70.09	-0.2606	-0.0978	0.1628	879.0886	0.080711	-427.812573	-427.806945	-427.806001	-427.842572	22.039	
C	-0.025376862	 1.3108190306	 0.0101234855	-0.179888
C	 1.2637176589	 1.8149481947	-0.0000806042	 0.444709
C	 1.9783204906	 3.0257588557	-0.0005223614	-0.264662
C	 3.3392562018	 2.9249032167	-0.0142519579	 0.049314
N	 4.0147937808	 1.7259289856	-0.0272620792	-0.17891
N	 3.3992475744	 0.6082466575	-0.0273076826	-0.049566
N	 2.0450465384	 0.6655643647	-0.013824568	 0.026996
N	 1.2883698834	-0.4463683301	-0.0126693092	-0.124064
N	 0.0416702403	-0.0397048798	 0.0008787188	-0.161246
H	-0.9665781683	 1.8352837321	 0.0223860879	 0.143797
H	 1.4684011415	 3.9813119357	 0.0097179433	 0.146082
H	 3.9860041401	 3.7929160766	-0.0157131131	 0.147437
210.8961	233.844	415.9747	432.6979	580.4937	625.849	637.9067	698.1028	774.7178	775.9631	825.9145	860.5249	885.1192	968.4573	990.5409	1038.0644	1140.6957	1173.6779	1186.201	1233.7831	1281.7688	1318.1943	1329.1961	1418.2518	1477.1967	1559.4547	1642.8698	3209.249	3226.1062	3276.1495
C1=C2C=CN=NN2N=N1	c1c2ccnnn2nn1	
InChI=1S/C4H3N5/c1-2-5-7-9-4(1)3-6-8-9/h1-3H	InChI=1S/C4H3N5/c1-2-5-7-9-4(1)3-6-8-9/h1-3H
