19
gdb 58390	2.13744	1.1876	0.79935	3.5756	79.08	-0.2843	-0.0011	0.2833	1434.4938	0.156693	-419.220412	-419.20998	-419.209036	-419.256813	36.172	
C	 0.0131567448	 1.5770071268	 0.0472964478	-0.407233
C	 0.0096008707	 0.0440353916	 0.0125514873	 0.010528
C	 0.8025423417	-0.5509962213	 1.18267524	-0.413372
C	-1.4412195394	-0.4792489205	 0.0091967031	-0.029546
O	-2.1043959888	 0.0628150788	-1.1302336421	-0.188673
C	-3.4607675326	-0.0012911062	-1.1424785184	 0.130581
N	-4.0894089581	 0.4808749057	-2.1195897851	-0.429896
C	-1.5001633549	-1.954575496	-0.0258170235	 0.28621
N	-1.5569984289	-3.1082519975	-0.0511250507	-0.318858
H	 1.0404462558	 1.9491938729	-0.0016802915	 0.123024
H	-0.5463988982	 1.996687992	-0.79045294	 0.148895
H	-0.4299091467	 1.9482376246	 0.9792637769	 0.113955
H	 0.4594853464	-0.2898839852	-0.9300442608	 0.111335
H	 0.3702911704	-0.2525379422	 2.1451186169	 0.119495
H	 0.8313058731	-1.6433230735	 1.1466386987	 0.146168
H	 1.8327019235	-0.1854488363	 1.1571696693	 0.128087
H	-1.9437826656	-0.1464032534	 0.9295901858	 0.126074
H	-3.8868208747	-0.4883780731	-0.2559800496	 0.104612
H	-5.0916451786	 0.363860633	-1.9862100442	 0.238615
51.3362	68.6345	82.1541	144.8884	160.621	215.9439	233.7091	268.1711	321.5598	343.748	415.5228	426.9419	521.2868	545.1863	691.8597	820.359	854.3455	901.4378	938.2191	966.0661	990.2076	1009.1027	1039.2459	1118.7782	1141.8004	1165.5794	1193.8734	1273.7736	1292.6667	1341.9489	1356.4799	1376.6529	1402.1824	1424.0438	1425.7458	1488.0857	1492.4122	1503.2506	1513.9558	1752.6762	2356.8842	3000.3064	3032.8348	3034.5203	3039.2972	3048.2356	3101.1306	3107.4001	3122.6807	3139.1101	3523.3392
CC(C)C(OC=N)C#N	CC(C)[C@@H](O[CH][NH])C#N	
InChI=1S/C6H10N2O/c1-5(2)6(3-7)9-4-8/h4-6,8H,1-2H3	InChI=1S/C6H10N2O/c1-5(2)6(3-7)9-4-8/h4-6,8H,1-2H3/t6-/m0/s1
