17
gdb 35667	4.51484	1.00702	0.94766	1.8043	79.95	-0.2594	0.0251	0.2845	1255.021	0.13436	-384.621218	-384.612478	-384.611534	-384.655213	32.752	
C	 0.2050060381	-1.2314871645	 0.1293503205	-0.482888
C	 0.0507770596	-0.0406504251	 0.0765997659	 0.353922
C	-0.1515025444	 1.4102900217	 0.0204244986	-0.053865
C	-0.7629705426	 1.9757184651	 1.3198122187	-0.242367
C	 0.4922801967	 2.2773360461	 2.144687851	-0.242387
C	 1.4609905634	 2.7909180575	 1.0584711718	-0.053843
O	 1.1064348569	 2.0858913102	-0.1426578105	-0.262822
C	 1.3595589543	 4.2385969512	 0.8505300648	 0.353916
C	 1.2747624728	 5.4271692191	 0.6931495892	-0.482888
H	 0.3456853644	-2.2835899259	 0.1656232146	 0.200951
H	-0.768854759	 1.6513188665	-0.8523292194	 0.11377
H	-1.3035476598	 2.8995321614	 1.0949134978	 0.120947
H	-1.4463704657	 1.2736714653	 1.7986002001	 0.120943
H	 0.3323689554	 3.0070540122	 2.9390942742	 0.120945
H	 0.8917992551	 1.3581487909	 2.5825393593	 0.120947
H	 2.5004374665	 2.5358679458	 1.2938625232	 0.113769
H	 1.2077630183	 6.4769057125	 0.5462076403	 0.20095
37.0449	97.4308	160.0618	199.4072	253.9132	275.2046	436.9083	462.1638	515.2867	588.0548	628.9548	629.3397	661.9896	662.3049	675.1047	748.7882	832.1213	840.4349	911.3004	916.7394	960.0189	990.6188	1052.6635	1063.1491	1091.8458	1170.1347	1201.3785	1277.5158	1300.9517	1319.7714	1349.901	1355.554	1377.1358	1478.4949	1490.4559	2233.4347	2234.0093	3041.1332	3042.24	3068.3112	3071.7152	3131.1149	3137.6082	3502.5138	3502.7848
C#CC1CCC(O1)C#C	C#C[C@H]1CC[C@@H](O1)C#C	
InChI=1S/C8H8O/c1-3-7-5-6-8(4-2)9-7/h1-2,7-8H,5-6H2	InChI=1S/C8H8O/c1-3-7-5-6-8(4-2)9-7/h1-2,7-8H,5-6H2/t7-,8-/m0/s1
