16
gdb 125579	3.28551	1.37436	0.97487	1.5088	78.75	-0.2078	-0.0333	0.1746	1163.0651	0.12624	-434.102368	-434.094538	-434.093594	-434.134555	30.243	
C	-0.2354672413	 1.4982501366	-0.0093173444	-0.471151
C	-0.0023887519	 0.0126650551	 0.0066898965	 0.35977
N	 0.0615305074	-0.5826389454	-1.1509978601	-0.28143
N	 0.2729482532	-1.9287282641	-1.1269077998	-0.318892
C	 0.427096875	-2.7357171829	-0.0299568587	 0.316869
N	 0.6282085499	-4.0097055151	 0.0319736598	-0.611615
C	 0.3472822247	-2.0200474469	 1.2441209673	 0.423855
O	 0.4944993745	-2.7859979213	 2.3212150133	-0.412957
C	 0.1377837346	-0.68040927	 1.2557908712	-0.309645
H	 0.586520393	 2.028602282	 0.4847318172	 0.133612
H	-0.3168422123	 1.8523065494	-1.0377872225	 0.141775
H	-1.154866229	 1.7558610246	 0.528611017	 0.133615
H	 0.3142523441	-2.3410456325	-2.0465478932	 0.264105
H	 0.677600768	-4.4712524348	-0.872808644	 0.210642
H	 0.6264531529	-3.6886280819	 1.9504304999	 0.310266
H	 0.0767137672	-0.139031603	 2.1923459807	 0.111181
121.3341	145.2694	206.9202	298.7146	334.8242	351.6834	423.937	467.3273	525.358	583.3207	594.0054	658.2871	717.3296	734.9765	755.8666	784.2732	820.0445	897.6305	973.0064	1004.4728	1061.9155	1103.8467	1187.0422	1213.0528	1261.757	1377.4876	1393.9986	1413.6961	1460.2634	1480.9598	1482.605	1513.1573	1604.1528	1677.6519	1714.6936	3033.6043	3085.8089	3145.9527	3202.3979	3459.3643	3517.3844	3623.4185
CC1=NNC(=N)C(O)=C1	CC1=NNC(=C(O)C1)[NH]	
InChI=1S/C5H7N3O/c1-3-2-4(9)5(6)8-7-3/h2H,1H3,(H2,6,8)(H,7,9)	InChI=1S/C5H8N3O/c1-3-2-4(9)5(6)8-7-3/h6,8-9H,2H2,1H3
