19
gdb 83144	2.04559	1.88536	1.47934	2.6033	77.29	-0.2374	0.0172	0.2545	1016.833	0.159566	-419.202071	-419.193478	-419.192534	-419.234861	32.612	
C	-0.232892934	 1.4969474584	 0.0695973428	-0.335955
N	 0.0547413695	 0.0666735014	 0.0954473075	-0.125418
C	 1.3371380217	-0.4708757635	-0.3136273008	-0.108459
C	 2.531818507	 0.4613042852	-0.3456225259	-0.125619
O	 2.6302791701	 1.0355115124	 0.9698907939	-0.245755
C	 1.8176991456	 0.3734225925	 1.8543996685	 0.36244
N	 1.8359177987	 0.5390447095	 3.1063247317	-0.543277
C	 0.9017502929	-0.5578467262	 1.1201630918	 0.241561
C	 0.3702183236	-1.7656662006	 1.8425816689	-0.471523
H	 0.6072854636	 2.1535237886	 0.3317509121	 0.126614
H	-0.5770803237	 1.7574406437	-0.936200584	 0.124557
H	-1.0515335751	 1.6946962797	 0.7670125634	 0.136281
H	 1.3211044713	-1.3181647991	-0.9936089838	 0.102644
H	 3.4527634664	-0.0896946777	-0.5691719483	 0.122057
H	 2.4349256188	 1.2835562697	-1.0624824885	 0.12278
H	 2.5625793707	 1.2060078244	 3.3720805346	 0.223389
H	-0.1818913094	-1.453956891	 2.7336196103	 0.145609
H	-0.3000682015	-2.3269099276	 1.1881107846	 0.124235
H	 1.1855043537	-2.4174677998	 2.1707497612	 0.123839
122.2932	164.9583	176.8002	219.0134	235.3985	252.4056	274.612	398.2549	465.8873	507.9914	589.6549	676.287	693.1778	768.3174	782.6224	839.7306	894.9516	930.6874	959.42	998.9413	1021.1807	1086.6912	1093.3234	1110.7796	1157.821	1168.3264	1184.8707	1214.8959	1230.8583	1301.2514	1331.1913	1381.5699	1409.5468	1432.5443	1464.6061	1480.7395	1493.2416	1495.9772	1503.761	1516.8126	1770.4911	3011.9019	3035.6383	3047.6997	3077.5778	3082.5458	3112.3833	3115.5176	3135.445	3147.6518	3472.9704
CN1C2COC(=N)C12C	CN1[C@H]2CO[C]([NH])[C@@]12C	
InChI=1S/C6H10N2O/c1-6-4(8(6)2)3-9-5(6)7/h4,7H,3H2,1-2H3	InChI=1S/C6H10N2O/c1-6-4(8(6)2)3-9-5(6)7/h4,7H,3H2,1-2H3/t4-,6-,8?/m0/s1
