21
gdb 115349	2.09477	1.59078	1.27828	1.838	73.82	-0.2377	0.0647	0.3023	1119.2865	0.183276	-461.364463	-461.355369	-461.354425	-461.398138	34.815	
C	-0.5312542966	 0.5070652554	 0.4395947586	-0.25016
O	 0.5633603235	-0.377594099	 0.2478997547	-0.273144
C	 0.961674972	-0.5324209903	-1.1198638105	 0.075057
C	 2.4316492777	-0.9681120231	-1.1384040065	-0.233016
C	 2.4100442469	-2.510227235	-0.9237393882	-0.241641
C	 0.9343012902	-2.9444304552	-1.0744058348	 0.096405
O	 0.2835013708	-3.1946599627	 0.1723251048	-0.455693
C	 0.2428764484	-1.7432433245	-1.7636959188	 0.114704
O	-1.1558479667	-1.7695276209	-1.6128976064	-0.446757
H	-0.2674512319	 1.5253018836	 0.1179621251	 0.110084
H	-1.418854025	 0.1786244136	-0.1096746682	 0.136596
H	-0.7436274903	 0.5227292514	 1.5116638381	 0.123939
H	 0.7835709379	 0.4063508506	-1.6583698302	 0.067156
H	 2.8694446871	-0.7193042122	-2.1099143159	 0.105373
H	 3.0005346487	-0.4335935883	-0.3752071463	 0.113138
H	 3.046827673	-3.0208738034	-1.6511705576	 0.104566
H	 2.7665661678	-2.7982629467	 0.0682939051	 0.11654
H	 0.8210813662	-3.8683840691	-1.6462809309	 0.085185
H	 0.3776498801	-2.37726879	 0.6864416065	 0.288046
H	 0.4762862496	-1.7456629379	-2.8374145206	 0.078003
H	-1.3073173295	-2.3310046863	-0.8373550181	 0.285618
77.878	128.1327	161.2745	177.6357	261.1688	287.5759	316.0979	374.1514	401.0419	470.1604	498.255	583.3451	676.2185	710.6845	761.8443	790.0898	831.9963	882.4838	901.6296	965.8249	978.0161	1018.3471	1063.1083	1107.1521	1130.5007	1135.0691	1175.4109	1183.4775	1201.4148	1216.2021	1243.8437	1261.3477	1289.9837	1320.8676	1332.6915	1333.7485	1365.9173	1389.2378	1438.7488	1465.0119	1473.8666	1482.3082	1484.4645	1493.7374	1521.6348	2996.935	3014.3796	3032.6585	3058.0319	3066.4723	3080.5665	3086.6596	3102.4604	3120.2334	3123.2221	3692.4459	3711.1754
COC1CCC(O)C1O	CO[C@H]1CC[C@@H](O)[C@H]1O	
InChI=1S/C6H12O3/c1-9-5-3-2-4(7)6(5)8/h4-8H,2-3H2,1H3	InChI=1S/C6H12O3/c1-9-5-3-2-4(7)6(5)8/h4-8H,2-3H2,1H3/t4-,5+,6-/m1/s1
