17
gdb 44524	4.39983	1.2695	1.13169	4.3009	80.35	-0.2335	-0.0403	0.1932	1076.5065	0.13756	-384.672087	-384.665239	-384.664295	-384.703313	27.801	
O	 0.0850561437	 0.0276653264	 0.0780303523	-0.32715
C	 0.0160497005	 1.2316355168	 0.0345397299	 0.389729
C	-1.3157213655	 2.0575512846	 0.0431707411	-0.382634
C	-0.8333472642	 3.4402029476	-0.3945081402	-0.037393
C	-0.9110909518	 4.8532053538	 0.2435623331	-0.094893
C	-0.2336678601	 4.9192950409	 1.5744784536	-0.264939
C	 0.6402364749	 4.8689713704	 0.3250840911	-0.177851
C	 0.6400150064	 3.4281374869	-0.0733087491	 0.338132
C	 1.1548810476	 2.2047247087	 0.0801192847	-0.369482
H	-2.0716862442	 1.588952189	-0.5897485974	 0.121564
H	-1.6904256798	 2.0548970507	 1.0737030645	 0.1304
H	-0.961559765	 3.5694070311	-1.4762806997	 0.10537
H	-1.5668165046	 5.6435732214	-0.1001642266	 0.097095
H	-0.2601618454	 5.8896208362	 2.0610612964	 0.123924
H	-0.2435760787	 4.0769678141	 2.25983405	 0.125314
H	 1.3544290672	 5.648818509	 0.0971760436	 0.109507
H	 2.1656458391	 1.8989787023	 0.315349093	 0.11331
104.1213	197.2597	248.3012	369.0588	477.3718	509.7884	554.1465	592.9336	671.8721	686.2326	736.4915	774.3464	835.6162	871.2148	880.2603	911.5857	922.6489	990.7539	995.1606	1021.5174	1057.5577	1086.9303	1089.6799	1101.5758	1125.1138	1151.1759	1176.588	1183.9887	1228.5882	1269.1443	1273.4873	1332.2801	1357.1891	1457.8619	1485.9411	1692.5219	1816.5461	3031.1929	3050.2931	3119.3352	3119.7201	3188.4934	3200.8863	3210.2338	3224.7207
O=C1CC2C3CC3C2=C1	O=C1C[C@H]2[C@H]3C[C@H]3[C]2[CH]1	
InChI=1S/C8H8O/c9-4-1-5-6(2-4)8-3-7(5)8/h1,6-8H,2-3H2	InChI=1S/C8H8O/c9-4-1-5-6(2-4)8-3-7(5)8/h1,6-8H,2-3H2/t6-,7+,8-/m1/s1
