18
gdb 67666	2.32145	2.16961	1.70953	1.2726	82.29	-0.1994	-0.0275	0.1719	906.0669	0.148094	-364.727959	-364.72067	-364.719725	-364.759081	29.702	
C	-0.0439244677	 1.617188496	-0.2482884064	-0.502725
C	 0.0151754538	 0.1242143008	-0.0799839203	 0.293232
C	 0.7129637192	-0.8729240784	-0.9078818665	-0.103607
C	 1.7446802266	-1.5245113142	-0.0031852825	-0.078305
C	 1.5685265774	-1.1765722357	 1.2843859671	-0.156701
C	 0.2018779006	-0.5525946646	 1.2891866555	-0.001705
C	-0.8686059042	-1.3231869836	 1.5419947877	-0.105474
C	-1.6398459939	-1.5067519165	 0.2388031268	-0.183754
N	-0.8557967507	-0.7899861841	-0.7948722779	-0.180975
H	 0.8899255789	 2.0850710063	 0.0814005384	 0.122649
H	-0.2090647508	 1.8694499602	-1.2993526761	 0.128323
H	-0.8616796961	 2.0462782633	 0.3414504699	 0.121802
H	 0.9806497141	-0.6835876026	-1.9416846487	 0.098312
H	 2.5540168772	-2.1313824695	-0.3918341736	 0.102844
H	 2.1468258629	-1.5036957567	 2.1384529659	 0.113027
H	-0.9142582573	-2.0668001337	 2.3313774945	 0.099805
H	-1.6950811558	-2.5830655594	 0.0266121446	 0.119954
H	-2.6710564544	-1.1255222376	 0.2029750516	 0.113297
185.3112	200.3229	220.1068	258.2405	327.0003	435.7732	507.9507	571.1268	618.2857	662.9191	721.329	736.4082	778.7974	814.1256	843.7658	860.5661	905.7013	912.333	935.8892	966.1601	1004.793	1028.1384	1042.5451	1092.5481	1112.7382	1146.5948	1192.0871	1211.5509	1278.481	1284.5203	1304.7275	1332.3932	1393.3046	1422.4003	1479.2033	1483.1262	1493.4392	1586.0995	1611.8485	2992.7774	3030.9032	3034.4016	3094.4949	3117.5857	3172.6642	3176.4154	3197.699	3226.0745
CC12C3C=CC1=CCN23	C[C@@]12[C@H]3C=C[C]1[CH]CN23	
InChI=1S/C8H9N/c1-8-6-2-3-7(8)9(8)5-4-6/h2-4,7H,5H2,1H3	InChI=1S/C8H9N/c1-8-6-2-3-7(8)9(8)5-4-6/h2-4,7H,5H2,1H3/t7-,8+,9?/m1/s1
