16
gdb 56081	7.45698	0.50179	0.47286	3.5918	88.12	-0.2404	-0.01	0.2304	2165.6136	0.121278	-400.735558	-400.725141	-400.724197	-400.773187	35.594	
N	-0.057302776	 1.3551981216	 0.0094021758	-0.532076
C	 0.0761966487	-0.0018088249	 0.0011001057	 0.420708
O	 1.1597313329	-0.5531038488	-0.0120972781	-0.349706
C	-1.2454857362	-0.7701562969	 0.0096851034	-0.309995
C	-1.0086641007	-2.2901324018	-0.0010405315	-0.39958
C	-2.2517985694	-3.0439508876	 0.0070341552	 0.30725
C	-3.296108554	-3.6561607207	 0.0137191341	-0.156179
C	-4.4691181122	-4.3459524864	 0.0214879623	 0.287363
C	-5.5110323085	-4.9567075833	 0.0284086939	-0.560735
H	 0.7766155698	 1.9188299854	 0.0045051221	 0.26319
H	-0.9523486424	 1.8111596648	 0.0203713317	 0.260282
H	-1.8267325391	-0.4838767538	 0.8938490699	 0.134944
H	-1.843861963	-0.4741386624	-0.85971937	 0.13492
H	-0.4101573634	-2.554486314	-0.8799808535	 0.155561
H	-0.3930007169	-2.5640957186	 0.8629766522	 0.155576
H	-6.4257311994	-5.4952688028	 0.0344444768	 0.18848
20.5597	61.3087	63.107	91.7406	153.9034	182.7116	238.458	356.8852	381.1744	481.9205	503.8809	537.7131	540.7414	591.9929	593.2421	597.4625	638.0692	743.0816	788.8963	859.3732	1031.8015	1040.7104	1093.6376	1175.2999	1178.9383	1247.5065	1306.4074	1341.1638	1403.0385	1456.8952	1470.9598	1617.985	1797.2844	2182.026	2364.7655	3039.415	3049.2618	3068.9594	3088.9214	3506.2939	3605.4809	3742.1034
NC(=O)CCC#CC#C	NC(=O)CCC#CC#C	
InChI=1S/C7H7NO/c1-2-3-4-5-6-7(8)9/h1H,5-6H2,(H2,8,9)	InChI=1S/C7H7NO/c1-2-3-4-5-6-7(8)9/h1H,5-6H2,(H2,8,9)
