19
gdb 76326	2.1845	1.50522	1.27278	1.8525	71.71	-0.2493	-0.0321	0.2172	1112.1711	0.156205	-460.173362	-460.163536	-460.162591	-460.207547	36.387	
C	-0.8935182641	 1.017183597	 0.1068415749	-0.409028
C	 0.100732047	-0.1233687799	-0.0366371808	-0.11896
C	 1.0047808724	-0.2253478545	-1.3230482318	 0.056005
O	 1.2172088303	 1.0262833612	-1.9149095926	-0.434914
C	 2.2331940224	-0.6402635316	-0.4214217537	 0.282458
C	 2.5043584488	-2.1363206984	-0.3655185079	-0.441679
O	 3.4163721664	 0.0802027492	-0.7058287715	-0.481793
C	 1.4160527681	-0.0433410866	 0.739515086	 0.311313
O	 1.7871682367	 0.5554303428	 1.7120945387	-0.318749
H	-0.4348949372	 1.9551914121	-0.211773518	 0.142733
H	-1.7820090111	 0.8438026898	-0.5072609635	 0.12098
H	-1.2102749909	 1.1189918277	 1.1487142469	 0.129661
H	-0.3729171116	-1.0964007821	 0.1430874464	 0.102844
H	 0.6893005652	-0.9717551158	-2.0614695374	 0.070185
H	 2.1775881846	 1.1599831389	-1.9075235604	 0.291132
H	 2.9634866456	-2.4571808482	-1.3055563258	 0.137276
H	 3.1907268942	-2.370542962	 0.4531993498	 0.133946
H	 1.5823085372	-2.7072411919	-0.2204141538	 0.123352
H	 3.6006280459	 0.6332918425	 0.0655976945	 0.303237
80.4571	144.0699	163.9834	209.4311	220.2485	227.8741	250.1237	269.7074	317.3381	357.9907	489.7196	506.3451	543.8081	566.8887	610.0389	725.7883	783.6187	797.6318	895.5157	940.0138	970.8546	998.6526	1044.0002	1084.7632	1140.2773	1151.1606	1173.606	1195.6336	1225.161	1275.0957	1329.6542	1356.9388	1362.9514	1402.4334	1405.1912	1410.4205	1482.5874	1487.9549	1492.6525	1500.9093	1866.1509	3029.518	3038.4025	3043.7515	3049.8702	3115.402	3115.5412	3118.7431	3140.3765	3699.5144	3757.3359
CC1C(O)C(C)(O)C1=O	C[C@H]1[C@@H](O)[C@@](C)(O)C1=O	
InChI=1S/C6H10O3/c1-3-4(7)6(2,9)5(3)8/h3-4,7,9H,1-2H3	InChI=1S/C6H10O3/c1-3-4(7)6(2,9)5(3)8/h3-4,7,9H,1-2H3/t3-,4+,6+/m0/s1
