20
gdb 120542	5.62919	0.62068	0.60269	5.1433	78.61	-0.2394	0.027	0.2664	1832.8285	0.170226	-440.287137	-440.277195	-440.276251	-440.324144	34.176	
O	-0.3033284658	 1.4592426988	 0.2952646631	-0.417274
C	-0.0670402894	 0.0697467042	 0.1434235496	-0.0736
C	-1.4150041748	-0.6095760596	-0.0692115895	-0.193004
C	-1.3054881843	-2.1193152357	-0.227136937	-0.005742
C	-1.0035998742	-2.9470384789	 1.0661248618	-0.197147
N	-2.2665545654	-3.654042131	 0.8519484515	-0.031636
C	-2.6501125626	-2.9027677711	-0.3412714449	-0.194717
C	-2.9299333157	-4.6130265436	 1.5301205356	 0.131192
O	-4.0148472914	-5.0569310919	 1.2111747304	-0.33285
H	 0.5415259314	 1.8975958208	 0.4318247567	 0.288148
H	 0.5897970596	-0.1343882736	-0.7184771521	 0.087064
H	 0.4290332959	-0.3502487177	 1.0344832167	 0.087308
H	-2.068452549	-0.3664418015	 0.7780348766	 0.112614
H	-1.884848111	-0.1771696445	-0.9608742534	 0.114399
H	-0.6162209124	-2.3688550277	-1.0384243367	 0.085091
H	-0.1147680802	-3.5862969552	 1.0272191724	 0.115576
H	-0.9743518862	-2.3537539066	 1.9886870966	 0.114335
H	-3.5531658054	-2.2972622744	-0.204308785	 0.122802
H	-2.7751608838	-3.5236647587	-1.2337658156	 0.122958
H	-2.3626971154	-4.9573745022	 2.4204521233	 0.064482
18.6574	70.8741	94.0771	107.0848	166.4641	196.971	265.7156	312.6188	319.9544	391.9208	460.4349	545.0662	773.4286	797.2007	836.1418	892.4502	945.5415	951.9532	986.5902	1034.4785	1050.8249	1088.589	1098.3491	1145.0482	1156.8501	1192.3327	1196.968	1233.9845	1247.8511	1274.6009	1290.3133	1312.2305	1318.6025	1338.1883	1385.4232	1406.8064	1454.6001	1465.7388	1490.1223	1507.7863	1525.5032	1526.8287	1791.8216	2912.8505	2955.4586	2980.0253	3016.7689	3029.1864	3037.9403	3057.2198	3066.0678	3077.832	3088.8012	3831.4153
OCCC1CN(C1)C=O	OCCC1CN(C1)C=O	
InChI=1S/C6H11NO2/c8-2-1-6-3-7(4-6)5-9/h5-6,8H,1-4H2	InChI=1S/C6H11NO2/c8-2-1-6-3-7(4-6)5-9/h5-6,8H,1-4H2
