19
gdb 56199	4.57055	0.73314	0.67836	2.2482	72.62	-0.2511	0.0124	0.2636	1661.8228	0.157481	-460.175744	-460.16594	-460.164995	-460.213147	32.93	
C	 0.1589281769	 1.4058670527	-0.1423723014	-0.478206
C	-0.0468546819	-0.0771610917	 0.0494057063	 0.429509
O	-0.235608074	-0.6333229634	 1.1006961742	-0.345782
O	 0.0078194585	-0.724365636	-1.1368301793	-0.24628
C	-0.1690653659	-2.1516339247	-1.0786593361	-0.078672
C	-0.0896897078	-2.6742379661	-2.4959393842	-0.053968
C	 1.314335851	-2.6801275924	-3.1396499388	-0.071592
O	 1.363140367	-4.1224325752	-3.1288855869	-0.269365
C	 0.0181661807	-4.2110659674	-2.6199010791	-0.090959
H	 1.1339124978	 1.5926576105	-0.6014727122	 0.150485
H	-0.6007520302	 1.8063567974	-0.8194959245	 0.149899
H	 0.1002833227	 1.9075632878	 0.822576623	 0.149933
H	 0.6125881755	-2.5872399696	-0.4461422606	 0.125867
H	-1.1343821469	-2.3793546311	-0.6139729886	 0.12311
H	-0.8691673627	-2.2161160903	-3.1082187591	 0.088936
H	 1.3658491833	-2.2756717122	-4.1579736179	 0.102624
H	 2.1153302556	-2.2332082546	-2.5380530574	 0.105823
H	-0.0313448971	-4.7739292017	-1.6784630388	 0.105183
H	-0.6677033123	-4.670650522	-3.3424276687	 0.103457
33.8728	47.86	61.1529	69.5341	126.8254	189.5871	265.8385	307.7541	416.4835	469.9612	606.8209	638.3789	786.6845	871.7322	887.2499	912.9844	919.6231	973.6746	991.5429	1039.3724	1059.5061	1064.9348	1077.1043	1118.7838	1153.094	1162.4291	1198.9838	1244.7397	1262.8741	1278.8552	1310.7606	1347.7626	1387.6451	1393.7976	1422.2856	1469.4389	1476.1164	1506.4842	1515.244	1539.3941	1827.3828	3005.0338	3017.6011	3039.6535	3048.2701	3056.5472	3057.0951	3078.3104	3097.7306	3121.714	3169.71
CC(=O)OCC1COC1	CC(=O)OCC1COC1	
InChI=1S/C6H10O3/c1-5(7)9-4-6-2-8-3-6/h6H,2-4H2,1H3	InChI=1S/C6H10O3/c1-5(7)9-4-6-2-8-3-6/h6H,2-4H2,1H3
