17
gdb 25744	2.67183	1.47571	0.962	2.4897	77.51	-0.229	-0.0354	0.1936	1189.9231	0.134782	-421.891281	-421.882453	-421.881509	-421.925319	31.795	
C	 0.0037264213	 1.543486307	-0.0252760738	-0.4884
C	 0.0034239156	 0.0249049288	 0.044987511	 0.296986
O	 0.0047474183	-0.5476592832	 1.1205283711	-0.324939
C	 0.0011321888	-0.69892357	-1.2400298039	 0.073855
C	 0.0000865332	-2.0661008526	-1.4055808845	 0.298621
C	 0.0022167465	-3.2098403309	-0.4601333844	-0.504158
O	-0.0027074318	-2.365156167	-2.725921961	-0.173072
C	-0.0034338158	-1.1889408668	-3.4233905598	-0.016278
C	-0.0011360416	-0.1402458071	-2.571633849	-0.297823
H	 0.8844395504	 1.9054973202	-0.5672102285	 0.138276
H	-0.8788131796	 1.9059904473	-0.5639060425	 0.138307
H	 0.005714651	 1.9479397842	 0.9871361441	 0.139747
H	-0.8736407715	-3.8486823005	-0.620577015	 0.13986
H	 0.8915038118	-3.8337253899	-0.6059380684	 0.140131
H	-0.0081856744	-2.826472032	 0.5589988521	 0.179566
H	-0.0058157267	-1.2840182541	-4.496144872	 0.141223
H	-0.0012314352	 0.9033748067	-2.8427053155	 0.118098
64.9993	87.6396	157.765	178.4487	201.159	259.5851	309.429	408.4292	477.5339	564.996	624.8728	633.879	694.912	702.9798	750.3525	834.0561	910.7006	938.4272	974.2238	1041.8905	1055.0901	1066.8578	1109.0079	1168.1285	1188.4934	1257.0858	1316.4857	1379.0795	1400.1618	1433.0495	1467.56	1472.8855	1477.1325	1490.3967	1557.7704	1612.1777	1763.37	3033.8739	3036.9007	3084.0796	3098.4444	3154.8819	3171.2283	3260.9264	3291.1019
CC(=O)C1=C(C)OC=C1	CC(=O)c1c(C)occ1	
InChI=1S/C7H8O2/c1-5(8)7-3-4-9-6(7)2/h3-4H,1-2H3	InChI=1S/C7H8O2/c1-5(8)7-3-4-9-6(7)2/h3-4H,1-2H3
