16
gdb 82289	2.5349	1.86568	1.23142	4.3195	70.99	-0.2503	-0.0632	0.1871	986.8508	0.125907	-437.885493	-437.878223	-437.877279	-437.917116	28.66	
O	-0.1626750207	 1.4500322768	-0.1065674204	-0.442103
C	-0.0905288436	 0.0521480894	-0.0576243282	 0.062229
C	-1.4610356627	-0.5803732483	-0.0337580475	-0.072946
N	-2.1144392321	-0.7653022907	-1.3266916489	-0.316951
C	-1.6059549776	-1.9589960886	-0.5878256092	-0.103922
C	-0.4206033004	-2.6128475324	-1.1917318852	-0.002908
C	 0.6813631792	-1.9209209157	-1.5126056546	-0.173849
C	 0.7724585121	-0.482959193	-1.2122477089	 0.347874
O	 1.5295225962	 0.2823940894	-1.779391976	-0.358178
H	 0.5281591731	 1.7108310877	-0.737675511	 0.293763
H	 0.4330108384	-0.2778055294	 0.8620813838	 0.0891
H	-2.0744690167	-0.3099716257	 0.8222988915	 0.102535
H	-3.1244551971	-0.7022184301	-1.2201442889	 0.241028
H	-2.3415838283	-2.6163270028	-0.1351049408	 0.097619
H	-0.4884802615	-3.6743978131	-1.4139179275	 0.116127
H	 1.5160977818	-2.3678963735	-2.0416466782	 0.120581
102.5155	184.6909	276.1957	317.4239	359.9552	446.7574	461.3688	495.3368	554.4181	611.2503	668.3034	749.2792	800.8956	829.2816	866.1693	873.901	933.0659	968.7157	1007.7901	1022.4744	1099.7496	1131.0974	1152.2212	1163.605	1195.2102	1225.7082	1253.0958	1272.8537	1339.6586	1393.3001	1415.6033	1446.9654	1457.5938	1673.5421	1771.6204	2907.0707	3138.2029	3156.6684	3170.6293	3198.858	3497.3954	3676.1578
OC1C2NC2C=CC1=O	O[C@H]1[C@H]2N[C@H]2C=CC1=O	
InChI=1S/C6H7NO2/c8-4-2-1-3-5(7-3)6(4)9/h1-3,5-7,9H	InChI=1S/C6H7NO2/c8-4-2-1-3-5(7-3)6(4)9/h1-3,5-7,9H/t3-,5-,6+/m0/s1
