19
gdb 38119	2.47118	2.25871	1.5927	1.4103	79.26	-0.2178	0.0099	0.2278	908.1438	0.162501	-385.872682	-385.866074	-385.86513	-385.90316	28.433	
C	-0.0565286001	 1.4573116063	-0.0323937038	-0.412779
C	 1.3497932217	 0.847854306	-0.0387759309	-0.101043
C	 2.2562100481	 0.455712181	-1.1559169194	-0.090947
C	 2.1511459296	-0.800837844	-1.6021449398	-0.068938
C	 0.9400981759	-1.6202729657	-1.1655029026	 0.041694
C	 0.9645378239	-2.1725746811	 0.3077023108	-0.232971
C	 0.1152989462	-1.1188191053	 1.1060085102	-0.293951
C	 0.1174577149	-0.0201204755	 0.0689676986	 0.42006
O	-0.1618322144	-0.699842372	-1.1392247667	-0.277285
H	-0.3219232688	 2.0360872524	 0.8459166862	 0.11682
H	-0.4936660501	 1.8062722145	-0.9613444855	 0.129606
H	 1.8712271501	 1.0101408351	 0.9037819378	 0.094802
H	 3.0266187709	 1.1340943017	-1.5120104266	 0.091039
H	 2.8283054098	-1.2133232073	-2.3437816568	 0.091665
H	 0.7155320063	-2.4013644891	-1.8952113346	 0.077132
H	 0.518991941	-3.1688851903	 0.3562699593	 0.104623
H	 1.98452448	-2.2406716365	 0.6920765661	 0.10815
H	-0.8918015582	-1.4959118538	 1.3083643002	 0.103421
H	 0.5821487432	-0.8317485465	 2.0509825476	 0.0989
175.6203	279.3243	330.2919	348.0828	481.0127	504.9307	526.0525	606.7981	680.0247	715.3584	748.9697	800.9535	808.8151	858.2143	876.1067	900.4869	926.042	946.4194	969.4887	976.1436	991.5863	1030.449	1065.291	1072.7758	1094.4927	1122.1811	1148.1816	1178.5766	1206.541	1223.5791	1270.38	1292.2208	1311.4523	1324.5818	1359.9529	1386.0421	1417.182	1478.5271	1482.5054	1503.1121	1668.4293	3052.3415	3069.4376	3087.1703	3103.7619	3108.5651	3123.7251	3133.5501	3155.3343	3183.0534	3225.7166
C1C2C=CC3CCC12O3	C1[C@@H]2C=C[C@H]3CC[C@@]12O3	
InChI=1S/C8H10O/c1-2-7-3-4-8(9-7)5-6(1)8/h1-2,6-7H,3-5H2	InChI=1S/C8H10O/c1-2-7-3-4-8(9-7)5-6(1)8/h1-2,6-7H,3-5H2/t6-,7-,8+/m0/s1
