20
gdb 64095	3.29207	1.23524	1.13427	4.8361	76.83	-0.2442	0.041	0.2852	1170.891	0.170909	-440.308124	-440.299118	-440.298174	-440.341711	34.064	
C	-0.1344551808	 1.5395188968	 0.0126031293	-0.435151
C	-0.0270057327	 0.0093818394	 0.0049943745	 0.197698
C	-1.4239491039	-0.6324910851	-0.004033756	-0.418026
C	 0.7925119379	-0.4452455808	-1.2040755293	-0.080436
O	 1.0654830994	-1.847787865	-1.1748341662	-0.242363
C	 1.4567866552	-2.4376163601	-0.0252698246	 0.455547
N	 2.0509743064	-3.5496814655	-0.0832153663	-0.542236
O	 1.097563316	-1.8540614785	 1.1524564594	-0.273946
C	 0.7838424983	-0.45696756	 1.2148944488	-0.084595
H	 0.8521910909	 2.0151352168	 0.0129501787	 0.119444
H	-0.6790960094	 1.8947492491	-0.8683629716	 0.125125
H	-0.6765669986	 1.8875363056	 0.8980666631	 0.124155
H	-1.9858054897	-0.3198464705	-0.890212686	 0.117566
H	-1.3675312242	-1.7232716474	-0.0093295544	 0.144093
H	-1.9937833765	-0.3266153895	 0.8795403512	 0.115771
H	 0.2582368191	-0.2789988747	-2.1432810896	 0.121337
H	 1.7427834229	 0.1058750017	-1.2495603111	 0.106686
H	 2.2241001888	-3.8873939888	 0.8614559958	 0.224295
H	 1.7204099158	 0.1137233717	 1.2877717637	 0.106317
H	 0.2322733153	-0.3273799053	 2.1502839805	 0.118719
66.9161	126.9813	196.4778	213.8777	227.79	271.2373	329.9592	361.9643	412.0233	449.6522	485.5757	568.1962	683.4104	726.0066	813.7585	819.8104	830.5608	915.4909	945.1157	948.7605	960.6152	999.2992	1047.5261	1052.9459	1115.7325	1152.5194	1207.2896	1242.4877	1246.4433	1280.4158	1311.8859	1336.9268	1405.9286	1408.0602	1427.9808	1439.8273	1485.9569	1487.5719	1504.2376	1505.9367	1511.9026	1518.2797	1758.588	3000.6977	3008.6586	3030.4291	3039.6115	3088.244	3092.9194	3099.9153	3101.0696	3104.5634	3128.5866	3523.7489
CC1(C)COC(=N)OC1	CC1(C)CO[C]([NH])OC1	
InChI=1S/C6H11NO2/c1-6(2)3-8-5(7)9-4-6/h7H,3-4H2,1-2H3	InChI=1S/C6H11NO2/c1-6(2)3-8-5(7)9-4-6/h7H,3-4H2,1-2H3
