21
gdb 83367	2.14564	1.94035	1.55545	1.4601	76.9	-0.2391	0.0765	0.3156	1001.8935	0.183483	-424.238309	-424.230095	-424.22915	-424.270357	32.885	
C	-0.1203755468	 1.5311562293	 0.002511095	-0.436523
C	 0.0339926788	 0.0146409125	-0.018804757	-0.019612
C	 1.0991167469	-0.5906029701	-0.9531203213	 0.06158
C	 2.3956049219	-0.0739948646	-0.317801699	-0.093345
O	 2.0886253458	-0.0940764946	 1.0899516868	-0.31577
C	 0.7444545146	-0.6163827695	 1.2052599193	 0.372691
C	 0.227798642	-0.3569323519	 2.5994526702	-0.48432
C	 0.807299135	-2.0865141957	 0.7533535672	-0.10733
O	 1.0144808318	-1.9939573143	-0.6709113554	-0.285549
H	 0.7964667519	 2.0260478992	 0.3320592474	 0.13611
H	-0.3812162037	 1.9145351503	-0.9895692257	 0.115376
H	-0.9212825262	 1.8281558603	 0.6871236273	 0.119991
H	-0.9287277976	-0.4691349356	-0.2107726115	 0.0786
H	 0.9962933944	-0.4390746141	-2.02768755	 0.078966
H	 3.2341818465	-0.7436657548	-0.5367767418	 0.108219
H	 2.6592313249	 0.9454575207	-0.627454534	 0.095882
H	 0.2322900649	 0.7142881358	 2.8174329425	 0.129898
H	-0.7939068042	-0.7327100133	 2.7088095883	 0.118296
H	 0.8595480816	-0.8535675453	 3.3421711116	 0.129562
H	 1.6474073038	-2.6066746923	 1.2274394811	 0.103759
H	-0.1196085562	-2.6386197519	 0.9567813389	 0.093521
177.6521	202.7167	208.1038	224.9593	253.0863	317.3739	335.9117	420.4897	429.8823	555.1929	611.6652	644.2269	747.3264	779.4733	846.5824	870.1476	897.0779	928.2526	968.1519	985.5018	1005.6459	1034.1909	1041.5693	1070.3611	1092.6913	1132.7021	1154.9522	1192.3335	1200.4809	1224.8989	1235.5478	1274.7091	1290.1109	1322.3213	1364.9419	1369.6263	1398.0772	1410.7894	1415.6621	1480.8861	1493.781	1498.8274	1506.2622	1512.4564	1521.7714	3010.7824	3017.7914	3039.1633	3044.2102	3060.6018	3065.5649	3069.7324	3097.3313	3113.1643	3122.3341	3124.0058	3125.6659
CC1C2COC1(C)CO2	C[C@H]1[C@H]2CO[C@]1(C)CO2	
InChI=1S/C7H12O2/c1-5-6-3-9-7(5,2)4-8-6/h5-6H,3-4H2,1-2H3	InChI=1S/C7H12O2/c1-5-6-3-9-7(5,2)4-8-6/h5-6H,3-4H2,1-2H3/t5-,6+,7+/m0/s1
