20
gdb 12539	3.27562	1.81796	1.25156	0.8483	77.04	-0.2314	0.0211	0.2525	1013.0386	0.17815	-349.014616	-349.006648	-349.005704	-349.046808	30.625	
C	 0.0207191005	 1.5596889697	 0.1086806928	-0.394315
C	 0.0238240115	 0.0369264545	 0.0073866979	 0.131998
C	 0.4616789899	-0.4338300057	-1.3885443069	-0.237044
C	 0.3923463644	-1.9175860591	-1.6605934644	-0.068298
C	 0.75877909	-2.9170017961	-0.8567383406	-0.052917
C	 1.3322830625	-2.8118052048	 0.5350229736	-0.251285
C	 0.6881085271	-1.7650238081	 1.4478728069	-0.067327
O	 0.8891415431	-0.4288147862	 1.034967722	-0.256178
H	 1.0251215522	 1.9550654972	-0.0737179485	 0.121934
H	-0.6631824959	 2.0000339967	-0.622856289	 0.110202
H	-0.2897137071	 1.8694728441	 1.1097379312	 0.119624
H	-0.9933798245	-0.3436767525	 0.2002321998	 0.064267
H	-0.1572293478	 0.0887855297	-2.1272462103	 0.097147
H	 1.49024039	-0.0775794641	-1.5508074044	 0.114578
H	 0.0320479403	-2.1855823803	-2.6519085024	 0.08324
H	 0.6721596758	-3.9283635384	-1.2490219514	 0.083454
H	 1.2481146316	-3.7843228024	 1.0355957741	 0.097677
H	 2.4092293776	-2.5961808895	 0.4745481047	 0.117977
H	-0.3892805091	-1.9739335193	 1.5485551537	 0.08646
H	 1.1377939379	-1.8376205251	 2.4446352813	 0.098807
90.6978	118.6516	213.7367	274.586	321.6509	347.1556	372.0626	443.6841	466.6276	548.0192	687.306	715.6682	787.5165	851.3125	877.5214	903.723	959.3644	991.3601	1001.5663	1046.5243	1072.9895	1078.9363	1122.3573	1143.8146	1157.3452	1238.7032	1243.8118	1270.4756	1316.0866	1328.2492	1371.2329	1384.2904	1386.9393	1405.8808	1419.8442	1435.2064	1461.7787	1464.7769	1485.4864	1489.9064	1500.7601	1727.5701	2958.7116	2975.1568	3001.1398	3004.8268	3041.7449	3052.0898	3057.2397	3060.9754	3114.0119	3123.5221	3129.654	3154.4834
CC1CC=CCCO1	C[C@H]1CC=CCCO1	
InChI=1S/C7H12O/c1-7-5-3-2-4-6-8-7/h2-3,7H,4-6H2,1H3	InChI=1S/C7H12O/c1-7-5-3-2-4-6-8-7/h2-3,7H,4-6H2,1H3/t7-/m0/s1
