20
gdb 39141	3.36883	1.33613	1.20361	2.322	77.6	-0.238	0.0732	0.3112	1098.1606	0.173564	-403.112171	-403.104551	-403.103607	-403.144734	29.927	
C	 0.0375059003	 1.5113481484	-0.0711813714	-0.126667
O	 1.4427808685	 1.558366304	 0.2551363553	-0.275269
C	 1.4916300412	 0.1323322496	 0.4450264796	-0.123977
C	 0.0217660841	-0.0324845992	-0.0225656815	 0.335661
C	-0.9834093746	-0.7327734862	 0.9154684587	-0.309409
C	-1.0956984491	-2.1905634452	 0.4068886992	-0.216053
C	-0.8005517822	-2.0771212238	-1.078346695	-0.028552
N	-1.5428046382	-0.9732552505	-1.7284101373	-0.350637
C	-0.1282602721	-0.7793093759	-1.3321242307	-0.113788
H	-0.5771702645	 2.0016102837	 0.6959618987	 0.094308
H	-0.1786943878	 1.9669923769	-1.0449898053	 0.101694
H	 2.2590409316	-0.3414534633	-0.1816400809	 0.093914
H	 1.6751163455	-0.1389256001	 1.4940114389	 0.092069
H	-0.6828712401	-0.6708197108	 1.9649337175	 0.096103
H	-1.9533218013	-0.2379652878	 0.8199699099	 0.123429
H	-0.3372118995	-2.8317453584	 0.8720805988	 0.099537
H	-2.0754403341	-2.630151464	 0.6173580365	 0.105154
H	-0.5698914419	-2.9638749317	-1.6600649242	 0.084829
H	-1.5820980787	-1.1455651925	-2.7299619433	 0.230857
H	 0.6218843227	-0.6539644731	-2.1074563937	 0.086797
58.512	114.6415	211.0953	309.4702	348.4208	372.9991	438.2336	509.8386	654.4574	730.5747	815.6236	828.0542	851.6216	866.7896	909.3196	915.5299	940.7478	966.0843	985.3856	988.6341	1009.9316	1039.5713	1065.8481	1113.0103	1120.2269	1152.8148	1155.8821	1159.0993	1172.7287	1209.6339	1251.6954	1255.5118	1280.56	1307.0371	1327.4457	1338.5723	1380.8182	1387.0906	1428.0794	1478.7291	1491.8873	1512.4341	1537.0772	2991.2984	3006.2923	3035.4399	3036.447	3052.3308	3062.9351	3083.0745	3108.5135	3151.1711	3164.7323	3501.9569
C1OCC11CCC2NC12	C1OCC21CC[C@H]1N[C@@H]21	
InChI=1S/C7H11NO/c1-2-7(3-9-4-7)6-5(1)8-6/h5-6,8H,1-4H2	InChI=1S/C7H11NO/c1-2-7(3-9-4-7)6-5(1)8-6/h5-6,8H,1-4H2/t5-,6-/m1/s1
