21
gdb 107144	3.68103	1.11075	1.00827	1.4319	83.97	-0.222	0.0784	0.3004	1292.9782	0.181198	-387.040098	-387.031284	-387.03034	-387.073485	34.398	
C	-0.0559668728	 1.4935886162	 0.0754049553	-0.375317
C	-0.042416619	-0.0290376154	-0.1204595489	-0.286399
C	-1.4115119661	-0.6234662418	-0.0185847843	 0.487183
C	-2.1330304953	-1.059326158	 1.2221315565	-0.340924
C	-1.9618093544	-2.0315108441	 0.0635912016	-0.298742
C	-2.8663182347	-1.5948770973	-1.0573153151	 0.478742
C	-3.1658324411	-2.2800420259	-2.346447519	-0.346193
C	-4.2878472933	-1.9089503886	-1.3795470098	-0.339646
O	-2.3700834588	-0.2451581965	-1.0304604513	-0.353171
H	 0.9490363809	 1.9111105809	-0.0356697991	 0.109808
H	-0.7068332306	 1.9688974797	-0.6639143505	 0.137252
H	-0.4274193107	 1.7589242981	 1.0703113391	 0.118091
H	 0.378989443	-0.2733410417	-1.103023249	 0.10698
H	 0.5998063365	-0.5029224103	 0.6311727394	 0.100359
H	-1.501974754	-1.2673513602	 2.0812311463	 0.109955
H	-3.11308637	-0.6519982886	 1.4535360919	 0.113999
H	-1.458172414	-2.9856820917	 0.1450726835	 0.099443
H	-3.0719979543	-1.6904815646	-3.2519720877	 0.124245
H	-2.8972405056	-3.3263587555	-2.4527478274	 0.113854
H	-4.7850385092	-2.7003840121	-0.8286085395	 0.115968
H	-4.9256486063	-1.0774396228	-1.659013642	 0.124514
81.1452	107.5599	164.3863	219.3877	263.6228	284.6671	353.1949	392.1498	460.7363	495.7819	575.4848	683.5625	756.5234	783.2546	828.7421	847.7559	872.9538	889.5344	929.8842	955.6006	965.9487	978.946	989.6469	1001.7296	1038.0735	1045.7113	1067.4123	1068.413	1087.8048	1123.2048	1175.1637	1185.5937	1218.5698	1254.6909	1308.4269	1347.0987	1401.5186	1407.5345	1414.892	1448.6276	1474.9508	1483.2502	1497.8122	1507.0825	1515.0662	3029.9115	3040.8133	3068.018	3110.3509	3114.7105	3119.6317	3127.406	3131.668	3195.7157	3207.7118	3211.7762	3225.9944
CCC12CC1C1(CC1)O2	CC[C@]12C[C@H]1C1(CC1)O2	
InChI=1S/C8H12O/c1-2-7-5-6(7)8(9-7)3-4-8/h6H,2-5H2,1H3	InChI=1S/C8H12O/c1-2-7-5-6(7)8(9-7)3-4-8/h6H,2-5H2,1H3/t6-,7+/m1/s1
