21
gdb 98072	3.20018	0.92575	0.80124	0.3679	79.73	-0.2348	-0.0794	0.1555	1540.5879	0.178328	-424.273238	-424.26208	-424.261136	-424.310694	38.68	
C	 0.2130604801	 1.5344479598	 0.221001878	-0.384417
C	 0.2383723901	 0.0147295118	 0.0872726163	-0.273153
C	 0.8597004363	-0.4618781619	-1.2069518536	 0.295091
O	 1.302712966	 0.2781351148	-2.0560321722	-0.290207
C	 0.8935576324	-2.0003469003	-1.424503841	 0.285411
O	 0.336005264	-2.7180510324	-0.6254615623	-0.295349
C	 1.6438822644	-2.503149262	-2.6458353988	-0.058604
C	 3.1619262721	-2.4201109126	-2.3637685847	-0.400875
C	 1.2079329186	-3.9207039996	-3.02032611	-0.392045
H	 1.2232294526	 1.9499090065	 0.1740168857	 0.130063
H	-0.3624769162	 1.9902304512	-0.5890949507	 0.130844
H	-0.2377647073	 1.8287527128	 1.1724205938	 0.115055
H	 0.7886303972	-0.4602652688	 0.9105561692	 0.136669
H	-0.7652803936	-0.4236319754	 0.15333997	 0.142295
H	 1.4294567517	-1.803364667	-3.4610969065	 0.109284
H	 3.4391200743	-3.0707315492	-1.5275233384	 0.125273
H	 3.718575486	-2.7488309215	-3.2461349078	 0.12559
H	 3.4700605774	-1.3981250239	-2.1309032054	 0.136355
H	 0.1402243426	-3.9611094108	-3.2542727148	 0.11985
H	 1.7639137649	-4.2696469335	-3.895539988	 0.111404
H	 1.3896701665	-4.6138855881	-2.1944726488	 0.131465
36.7354	52.9941	67.0702	144.0435	181.9113	197.9589	208.3642	237.6433	277.1885	293.7152	324.0465	392.6115	430.5181	514.763	661.6161	683.5963	741.1128	820.5027	847.1646	917.1186	937.0156	972.7116	1003.8129	1057.1168	1093.8985	1111.9196	1125.9758	1177.027	1207.8468	1259.8649	1315.7761	1362.5677	1376.7331	1395.4674	1416.2806	1417.5507	1435.4568	1486.8951	1488.0237	1493.7486	1497.9079	1501.0722	1511.7723	1795.3302	1798.7335	3035.4787	3038.5403	3044.1271	3051.073	3055.5704	3060.7672	3109.17	3113.7363	3122.0126	3123.6073	3123.814	3127.6489
CCC(=O)C(=O)C(C)C	CCC(=O)C(=O)C(C)C	
InChI=1S/C7H12O2/c1-4-6(8)7(9)5(2)3/h5H,4H2,1-3H3	InChI=1S/C7H12O2/c1-4-6(8)7(9)5(2)3/h5H,4H2,1-3H3
