18
gdb 90808	3.27815	1.80887	1.45879	0.9324	73.54	-0.2153	0.06	0.2753	933.1065	0.149235	-401.868123	-401.86127	-401.860326	-401.899324	28.058	
C	-0.4843608116	 1.5316144848	-0.0024925593	-0.394084
C	 0.1047795137	 0.1260052383	-0.0488169942	 0.124374
O	 0.8380878762	 0.0027981482	-1.265017112	-0.286848
C	 2.009941121	-0.7422218957	-1.1565652353	 0.126635
C	 3.0877578336	-0.4546870071	-0.154816618	-0.156112
C	 2.2968228437	-1.7619728452	-0.0958568572	-0.080007
N	 1.730557395	-1.4386638513	 1.2737396777	-0.173652
C	 2.4373768576	-0.1103785028	 1.1948420837	-0.056608
C	 0.9574880775	-0.1793510441	 1.1641001633	-0.056185
H	 0.3107498524	 2.2787744085	 0.0772656907	 0.124313
H	-1.0497000758	 1.7252209512	-0.9178949718	 0.12836
H	-1.1597738415	 1.641180741	 0.8519460741	 0.114152
H	-0.7187061997	-0.6087677051	-0.0650183705	 0.081554
H	 2.3697659499	-1.010852828	-2.1451152773	 0.110259
H	 4.1246765121	-0.2656148984	-0.3987249936	 0.094459
H	 2.5821698913	-2.7894925047	-0.2864686244	 0.101053
H	 2.9953547058	 0.2696599448	 2.0444027497	 0.099292
H	 0.4568006289	 0.0422688257	 2.1045955545	 0.099044
82.2995	222.1855	267.6324	372.1598	435.5903	493.5615	562.558	640.8031	678.9726	720.72	734.2296	764.7248	846.674	854.1284	879.4967	916.4189	946.1475	991.1699	1000.3135	1030.7383	1051.4202	1059.9435	1069.3218	1080.1322	1105.0562	1136.3001	1153.7352	1198.6461	1237.9686	1263.7541	1320.4681	1324.4095	1366.373	1377.2153	1403.9116	1430.295	1444.9458	1485.9708	1496.66	2948.3735	3040.5832	3114.9398	3123.7297	3129.7085	3159.3846	3162.9422	3179.166	3200.7076
CC1OC2C3C2N2C3C12	C[C@H]1O[C@H]2[C@@H]3[C@H]2N2[C@@H]3[C@@H]12	
InChI=1S/C7H9NO/c1-2-4-5-3-6(8(4)5)7(3)9-2/h2-7H,1H3	InChI=1S/C7H9NO/c1-2-4-5-3-6(8(4)5)7(3)9-2/h2-7H,1H3/t2-,3+,4-,5+,6-,7+,8?/m1/s1
