21
gdb 111492	2.41793	1.47061	1.05182	2.4463	76.9	-0.2518	0.0676	0.3195	1187.8396	0.183044	-424.211617	-424.20275	-424.201806	-424.245249	34.086	
C	-1.0185798937	 1.0507917188	-0.0382282349	-0.434355
C	 0.0235810172	-0.0667458327	-0.1137806639	 0.032243
C	 1.1868937318	 0.237444452	-1.1021522735	-0.254228
C	 2.3785493888	-0.5254888179	-0.5509411914	 0.038332
O	 2.9775336336	 0.1262881483	 0.5761121	-0.254132
C	 2.0825629676	-0.9741771527	 0.8169996619	 0.018537
C	 0.6848288032	-0.5273906638	 1.2341728873	-0.05796
C	 0.7637786958	 0.5089420526	 2.3711904967	-0.077282
O	-0.479717114	 0.7239885017	 3.0242177707	-0.427513
H	-0.5888697306	 1.982044786	 0.3502662381	 0.117475
H	-1.4103987304	 1.2764585594	-1.0358314841	 0.117769
H	-1.8704281859	 0.7659872277	 0.5879843255	 0.12223
H	-0.4853204396	-0.9558487973	-0.5063895817	 0.080653
H	 0.9349244076	-0.0747195414	-2.1205526777	 0.099937
H	 1.4241971917	 1.3070398372	-1.1384423778	 0.11139
H	 3.0743331935	-1.0422596066	-1.2075042556	 0.09451
H	 2.5457109997	-1.8467265924	 1.2724727486	 0.09412
H	 0.1308218591	-1.3826591003	 1.6368651961	 0.079747
H	 1.4417399403	 0.1271876032	 3.1424982736	 0.10915
H	 1.2005434475	 1.4459693313	 2.0050940926	 0.1067
H	-1.0002484732	 1.323666737	 2.4844105096	 0.28268
57.3121	129.625	180.849	233.8467	248.2799	319.9631	340.6122	361.5544	399.9965	441.9397	520.7363	646.7424	708.9967	755.144	801.1373	864.6464	896.0608	922.3139	950.3028	969.8906	993.4392	1016.689	1063.0634	1069.5211	1097.4037	1111.7319	1132.9094	1173.2655	1183.1978	1233.5653	1258.482	1280.0711	1305.6026	1319.3095	1340.0937	1362.8534	1371.5735	1395.5328	1404.7346	1415.7647	1434.9521	1483.0301	1497.0839	1510.7915	1513.9685	3014.0174	3021.9139	3028.231	3039.1415	3048.1073	3073.9195	3082.7618	3087.9585	3097.0845	3133.0216	3147.0142	3855.3704
CC1CC2OC2C1CO	C[C@H]1C[C@H]2O[C@H]2[C@H]1CO	
InChI=1S/C7H12O2/c1-4-2-6-7(9-6)5(4)3-8/h4-8H,2-3H2,1H3	InChI=1S/C7H12O2/c1-4-2-6-7(9-6)5(4)3-8/h4-8H,2-3H2,1H3/t4-,5-,6+,7-/m0/s1
