15
gdb 24318	2.89583	2.46004	1.54775	3.5414	70.42	-0.2019	-0.0331	0.1689	818.8627	0.115703	-416.73655	-416.730595	-416.729651	-416.766663	24.325	
C	-0.1712551404	 1.4881460075	-0.0235985864	-0.317956
C	 1.3897700804	 1.7407021493	 0.0801777143	-0.029627
C	 2.220628664	 1.7184725209	 1.4103137772	-0.10211
O	 3.0209130027	 0.4698825003	 1.3559079793	-0.257997
C	 2.1838330881	-0.3797514641	 0.6882051495	 0.16533
C	 1.2857042013	-1.3775563953	 1.0351757903	-0.144285
N	 0.0314362631	-1.0817480278	 0.4855194433	-0.246476
C	 0.2216523146	-0.0020801314	-0.2454717747	 0.136368
N	 1.567296869	 0.3321844009	-0.3127744574	 0.021042
H	-0.7384509617	 1.621736028	 0.8991589954	 0.142781
H	-0.6524810503	 2.027835912	-0.8403428747	 0.133549
H	 1.7863548503	 2.4632998488	-0.6360121479	 0.109233
H	 2.9267897489	 2.5453742036	 1.492599874	 0.135142
H	 1.5849771586	 1.6795178616	 2.3018293939	 0.129766
H	 1.4218822915	-2.2255749641	 1.6876140338	 0.125239
167.7725	306.35	332.9987	392.3286	564.3319	616.2496	647.891	687.5406	727.6512	743.6612	795.1698	828.2405	863.0087	891.2919	901.4836	989.4567	1019.567	1043.4231	1106.9165	1128.7668	1141.0268	1194.1188	1217.9012	1234.8723	1242.4816	1274.6168	1319.7863	1356.0979	1366.0256	1457.1251	1462.5403	1492.3523	1516.3266	3047.8115	3080.3534	3085.5351	3138.3762	3144.6686	3261.7746
C1C2COC3=CN=C1N23	C1[C@H]2CO[C]3[CH][N][C]1N23	
InChI=1S/C6H6N2O/c1-4-3-9-6-2-7-5(1)8(4)6/h2,4H,1,3H2	InChI=1S/C6H6N2O/c1-4-3-9-6-2-7-5(1)8(4)6/h2,4H,1,3H2/t4-/m0/s1
