15
gdb 24070	7.19516	0.7481	0.6833	4.4974	71.48	-0.2544	-0.0099	0.2444	1527.1305	0.113855	-416.85951	-416.851497	-416.850553	-416.893723	28.004	
N	 0.0042398511	-1.1680091616	-0.017176709	-0.301393
C	 0.0763729621	-0.0387003699	 0.2159626235	 0.258397
C	 0.1785898931	 1.3908382101	 0.4973104326	-0.332127
C	 1.1294216924	 2.1011886104	-0.483670192	-0.330007
C	 1.2177580806	 3.5577579692	-0.1759777545	 0.418573
N	 0.6199345795	 4.2200060987	 0.76289332	-0.309297
C	 1.0539247436	 5.5316472719	 0.5965147862	-0.116945
C	 1.9037224008	 5.5835154722	-0.4526170487	-0.039119
O	 2.0200926542	 4.3185614696	-0.9619591372	-0.180907
H	-0.8169353441	 1.8418126473	 0.4467807333	 0.172185
H	 0.5257789941	 1.533645946	 1.524959247	 0.172309
H	 2.1276110369	 1.651787066	-0.4343658959	 0.15266
H	 0.7829140103	 1.9614194081	-1.5137787009	 0.15263
H	 0.7206416929	 6.3275958793	 1.2425780682	 0.130928
H	 2.4718043524	 6.3551092327	-0.9421831928	 0.152115
40.771	60.4348	110.0231	216.3369	251.1663	387.4186	397.5877	528.0199	626.8539	685.5681	758.0442	767.0028	784.0222	866.1657	932.5411	942.4912	979.5057	1040.6954	1042.0114	1106.5512	1139.3079	1167.4393	1190.9442	1208.6193	1297.6311	1303.8579	1361.486	1417.9587	1461.4606	1483.6515	1559.0149	1620.3369	2365.7655	3046.0421	3070.3262	3076.2907	3110.3217	3268.7546	3304.3381
N#CCCC1=NC=CO1	N#CCCc1ncco1	
InChI=1S/C6H6N2O/c7-3-1-2-6-8-4-5-9-6/h4-5H,1-2H2	InChI=1S/C6H6N2O/c7-3-1-2-6-8-4-5-9-6/h4-5H,1-2H2
