17
gdb 31450	5.6019	0.85062	0.78011	1.0033	86.05	-0.2155	-0.004	0.2116	1470.3828	0.135076	-384.699254	-384.690516	-384.689572	-384.733067	32.389	
C	 0.0577853418	 1.5323216117	 0.2587221132	-0.373071
C	-0.0323356488	 0.0381188207	-0.0969980322	-0.296468
C	-1.4310865365	-0.4643950006	-0.1950545323	 0.400216
C	-2.1796301714	-0.971059447	-1.2077578796	-0.418245
C	-3.4820878369	-1.2689061482	-0.6587580971	 0.137721
C	-3.4083795376	-0.9101888485	 0.6580662174	-0.126245
O	-2.1802043687	-0.4242075459	 0.951925965	-0.179215
C	-4.5982352124	-1.8147986559	-1.3329327472	 0.235611
C	-5.5389379007	-2.2802555574	-1.9233927137	-0.439578
H	 1.1024692228	 1.8474615509	 0.3363671139	 0.115603
H	-0.4302268062	 2.1456997638	-0.5045861025	 0.124189
H	-0.4312386488	 1.7328527098	 1.2158342135	 0.133165
H	 0.4584216507	-0.1522680964	-1.0565729191	 0.117615
H	 0.5122785828	-0.5468667845	 0.6554769597	 0.120069
H	-1.8663010952	-1.1261656375	-2.2276757995	 0.117488
H	-4.1194217588	-0.9444104432	 1.4662281733	 0.144145
H	-6.371841606	-2.6901219519	-2.4382263026	 0.187
53.699	111.6667	140.3429	191.6105	215.7701	328.6443	374.4257	475.0695	532.9562	539.7358	558.5484	648.5007	650.5993	674.9529	710.7432	752.5743	786.3302	825.9175	937.5642	976.1205	996.7674	1068.3887	1088.9205	1157.3002	1183.4371	1221.7336	1283.4398	1298.2682	1355.3744	1371.8382	1408.2912	1474.0592	1496.5649	1506.6532	1570.6133	1643.67	2235.6435	3025.7736	3043.0264	3081.8762	3115.0367	3123.6374	3265.6316	3284.1754	3505.4807
CCC1=CC(=CO1)C#C	CCc1cc(co1)C#C	
InChI=1S/C8H8O/c1-3-7-5-8(4-2)9-6-7/h1,5-6H,4H2,2H3	InChI=1S/C8H8O/c1-3-7-5-8(4-2)9-6-7/h1,5-6H,4H2,2H3
