19
gdb 80771	2.62608	1.46301	1.25549	3.438	74.86	-0.2313	-0.0428	0.1885	1072.5681	0.159116	-422.99328	-422.984894	-422.98395	-423.026498	31.903	
O	-0.3419037855	 1.725545482	 0.2678376976	-0.448999
C	-0.1551795274	 0.345694473	 0.2241881175	 0.141902
C	-0.44600625	-0.6372242581	 1.3122193416	-0.107252
C	-1.7430887008	-0.2729613179	 2.0391018367	-0.286956
C	-2.5253917857	-0.3518735964	 0.6751040566	-0.00806
C	-3.357945332	 0.8437938316	 0.1036908493	-0.324179
C	-3.6369796528	 1.9553226422	 1.0856572302	 0.150824
O	-2.7681624261	 2.6040640887	 1.6267649407	-0.240823
C	-1.2126697605	-0.6913318344	-0.0400017742	-0.1297
H	-1.0318454071	 1.9782098608	 0.9008701889	 0.303665
H	 0.7701230835	 0.1341311029	-0.3058366511	 0.100224
H	 0.3042419983	-1.3159744772	 1.7013544837	 0.085299
H	-2.0798174224	-1.0497599631	 2.728401043	 0.105267
H	-1.7408491832	 0.6783449428	 2.5748888127	 0.12153
H	-3.1793789064	-1.2251630143	 0.7070232898	 0.089279
H	-2.7842318963	 1.3026993603	-0.7097152702	 0.16234
H	-4.3030604824	 0.4861233481	-0.3140875504	 0.105286
H	-4.7023089605	 2.1809948832	 1.303488111	 0.098821
H	-1.1310017631	-1.4029229743	-0.8550018933	 0.081531
85.6007	102.4833	141.9461	193.9745	258.5955	312.3825	415.9997	493.7791	558.1563	566.4169	634.6758	701.9065	739.4877	783.3304	810.005	880.7132	921.281	947.0533	969.6285	1010.2613	1011.8796	1024.5181	1057.7981	1067.7325	1091.804	1108.6598	1162.9958	1198.7645	1221.9026	1258.691	1267.5084	1299.2018	1314.3563	1333.6281	1363.2223	1374.6021	1426.9065	1464.9661	1478.7101	1505.7748	1794.4383	2909.2245	3045.6502	3070.0399	3077.9536	3102.0248	3120.8569	3145.8977	3159.7069	3177.0709	3679.6476
OC1C2CC(CC=O)C12	O[C@H]1[C@H]2C[C@@H](CC=O)[C@@H]12	
InChI=1S/C7H10O2/c8-2-1-4-3-5-6(4)7(5)9/h2,4-7,9H,1,3H2	InChI=1S/C7H10O2/c8-2-1-4-3-5-6(4)7(5)9/h2,4-7,9H,1,3H2/t4-,5+,6-,7+/m1/s1
