17
gdb 66476	3.53752	1.57359	1.47038	1.0449	70.47	-0.232	0.0761	0.3081	943.0792	0.13512	-421.742337	-421.735147	-421.734202	-421.773381	29.599	
C	 0.0503447635	 1.4447309114	-0.0390314916	-0.516835
C	 0.0370998447	-0.050695759	 0.0455883247	 0.455594
O	 1.0578729705	-0.7210536691	-0.7512699785	-0.333498
C	 0.8423478303	-1.8556615304	 0.1144300835	-0.016702
C	 0.3323613385	-0.9639782	 1.2908391168	-0.150677
C	-1.0855861572	-1.6059595837	 1.2282212866	-0.168866
C	-1.2657646276	-0.8863956369	-0.1024843594	-0.236355
C	-0.6469753188	-2.2880024285	-0.0372685884	 0.407037
O	-1.1823426603	-3.4135278702	-0.6144515269	-0.46694
H	 1.0378068929	 1.8380929448	 0.2181712204	 0.129549
H	-0.1970643254	 1.7721812475	-1.0548214125	 0.130434
H	-0.6887945242	 1.8704766766	 0.6464586403	 0.126697
H	 1.6509398521	-2.5850418147	 0.1303391549	 0.082916
H	 0.9130794873	-0.6799704564	 2.1651268385	 0.078973
H	-1.8054932393	-1.8835302489	 1.9834221593	 0.100173
H	-2.1758599716	-0.6817936575	-0.6516992532	 0.0885
H	-1.1532856555	-3.306766425	-1.5724997344	 0.289999
200.3638	206.2106	240.3261	309.8265	329.3643	377.4913	539.296	560.4344	602.8194	666.9277	750.2938	789.5448	806.1299	836.6455	843.3772	857.4326	876.871	894.1318	925.0787	949.3199	956.8845	999.4997	1096.6123	1107.4414	1125.8756	1138.6905	1159.6546	1166.806	1212.3165	1252.5066	1268.0502	1310.3748	1354.7858	1414.5581	1460.6265	1477.8101	1489.9383	3036.1956	3105.037	3118.1164	3134.0774	3148.8871	3199.6877	3231.3281	3783.0629
CC12OC3C1C1C2C31O	C[C@@]12O[C@H]3[C@@H]1[C@H]1[C@@H]2[C@@]31O	
InChI=1S/C7H8O2/c1-6-3-2-4(6)7(2,8)5(3)9-6/h2-5,8H,1H3	InChI=1S/C7H8O2/c1-6-3-2-4(6)7(2,8)5(3)9-6/h2-5,8H,1H3/t2-,3-,4-,5-,6+,7+/m0/s1
