21
gdb 123174	6.06294	0.584	0.55869	0.8068	77.39	-0.2455	0.0866	0.3321	2012.8611	0.179772	-461.308993	-461.298594	-461.29765	-461.346508	35.523	
C	-0.9517781066	 1.0742627494	-0.7892850282	-0.223329
O	-0.5449013562	-0.2338092608	-0.4743241905	-0.225726
C	-0.1570212791	-0.3769760787	 0.8722496263	-0.057679
C	 0.1894183164	-1.8264283019	 1.1412251473	-0.072913
O	-1.0098958421	-2.582415244	 1.1478952946	-0.245235
C	-0.8206947888	-3.9789815451	 1.1373313117	-0.092039
C	-0.3098961776	-4.5245498564	 2.4502452669	 0.072789
C	 0.469416436	-5.7667508579	 2.512285444	-0.177017
O	 1.1086599253	-4.4991731903	 2.6549428999	-0.230174
H	-1.2278199294	 1.0862385354	-1.846619371	 0.125709
H	-1.8226710585	 1.388010113	-0.1916362338	 0.103629
H	-0.144791469	 1.8073784204	-0.6255051431	 0.099535
H	 0.7230455531	 0.2514032641	 1.0945703836	 0.082892
H	-0.968868286	-0.0641257064	 1.5497523626	 0.094021
H	 0.869954844	-2.1910922701	 0.356863565	 0.100689
H	 0.7155722878	-1.9044183248	 2.1031298985	 0.106368
H	-1.8050876789	-4.4129096077	 0.9255308065	 0.110913
H	-0.1293000693	-4.2804424667	 0.3337016424	 0.094557
H	-0.8898077359	-4.2315500802	 3.3266769911	 0.099923
H	 0.4346280331	-6.3807001896	 3.4107889312	 0.117657
H	 0.6987022716	-6.3045001716	 1.5927419149	 0.115431
27.0894	59.1095	78.1978	89.8138	127.624	224.5477	255.1572	271.2496	303.8295	329.414	402.0211	495.2844	598.2001	789.4933	857.5023	865.8568	871.9758	948.3683	994.9702	1045.5822	1060.6957	1093.9271	1119.3881	1141.7425	1155.3095	1158.4962	1174.721	1181.726	1188.3974	1228.8628	1261.3383	1286.956	1306.4057	1308.9616	1373.5451	1404.9189	1437.9026	1449.8328	1471.8567	1478.6804	1485.2132	1497.8709	1506.5002	1521.7125	1528.3496	2950.7166	2966.4054	2978.2295	2984.3344	2998.2254	3006.8425	3033.6485	3062.5524	3082.5638	3107.8549	3111.9496	3169.0447
COCCOCC1CO1	COCCOC[C@H]1CO1	
InChI=1S/C6H12O3/c1-7-2-3-8-4-6-5-9-6/h6H,2-5H2,1H3	InChI=1S/C6H12O3/c1-7-2-3-8-4-6-5-9-6/h6H,2-5H2,1H3/t6-/m0/s1
