15
gdb 48898	3.79736	1.43679	1.37049	2.9244	65.92	-0.2564	-0.0372	0.2192	943.0557	0.112462	-457.708096	-457.701474	-457.70053	-457.739328	25.982	
O	-0.0014820667	-0.0217814562	-0.2352965379	-0.242315
C	 0.0614697077	 1.152415329	 0.022265421	 0.035709
C	 1.3036575641	 1.9678652019	 0.0206643384	 0.292672
C	 1.7003899882	 2.8337323883	 1.2391397108	-0.258048
C	 2.7007913941	 3.6600213766	 0.4112806177	 0.022874
O	 1.8079329864	 4.3445685568	-0.5194017196	-0.276448
C	 1.6409186713	 3.0823489411	-1.1318442689	 0.004358
C	 3.0190483435	 2.5677228866	-0.7187264847	 0.063266
O	 2.5494182617	 1.2970953048	-0.2839647746	-0.301188
H	-0.8444329261	 1.7523031515	 0.2713959221	 0.08162
H	 0.9074613525	 3.4675890096	 1.6395327269	 0.123417
H	 2.1433562335	 2.2108464096	 2.0179045161	 0.129173
H	 3.4281144148	 4.3111465112	 0.8899146676	 0.100456
H	 1.1478793461	 3.0573905122	-2.1010998374	 0.115526
H	 3.943991859	 2.576399457	-1.2908366375	 0.108929
96.2445	175.2526	262.7191	385.1415	444.9109	534.0888	557.827	679.7241	709.0572	761.4899	775.1529	850.6571	860.0125	882.8498	931.0242	965.5284	974.6067	1026.1795	1031.7375	1046.8678	1074.3073	1097.4325	1154.2939	1161.2408	1207.8528	1226.253	1262.3649	1284.1015	1326.2471	1336.4701	1425.982	1459.0014	1825.1319	2866.1891	3085.2299	3149.0314	3151.2592	3157.016	3164.7313
O=CC12CC3OC1C3O2	O=C[C@]12C[C@@H]3O[C@H]1[C@@H]3O2	
InChI=1S/C6H6O3/c7-2-6-1-3-4(9-6)5(6)8-3/h2-5H,1H2	InChI=1S/C6H6O3/c7-2-6-1-3-4(9-6)5(6)8-3/h2-5H,1H2/t3-,4+,5-,6+/m0/s1
