23
gdb 118038	3.30255	0.73899	0.64157	3.038	83.4	-0.2441	-0.015	0.229	1807.2975	0.202042	-425.444348	-425.432872	-425.431928	-425.481898	40.392	
C	 0.0690363936	 1.6047319884	 0.1661765074	-0.383168
C	 0.0350963446	 0.0803733059	 0.0330591787	-0.164911
C	-1.3893023101	-0.4861194673	 0.009748281	-0.190373
C	-1.4309196965	-2.0159962546	-0.0631241517	 0.11665
O	-0.7302442361	-2.6125282242	 1.0306117898	-0.429032
C	-2.8580503001	-2.5954624908	-0.1438288283	-0.096846
C	-3.565284373	-2.3051318431	-1.4800198928	-0.419781
C	-2.7796342412	-4.1017972426	 0.0484794357	 0.171269
O	-3.422703811	-4.7275356787	 0.8499629144	-0.25724
H	 1.0971897386	 1.9793311704	 0.1776116199	 0.114878
H	-0.4526630755	 2.0906717665	-0.6661795149	 0.112243
H	-0.4140718093	 1.9332185285	 1.0933689982	 0.113206
H	 0.554677967	-0.2206503487	-0.8862593391	 0.095046
H	 0.5858250615	-0.3833498146	 0.8578638865	 0.112635
H	-1.9320684291	-0.1634397608	 0.9112788243	 0.086855
H	-1.9370619979	-0.0638682776	-0.8417412153	 0.099136
H	-0.869944812	-2.3459700918	-0.9483231921	 0.088644
H	-1.2116332132	-2.404998353	 1.8402744181	 0.283576
H	-3.4602907351	-2.2006214569	 0.6847072113	 0.083894
H	-3.0069840347	-2.7313176049	-2.3213483058	 0.124282
H	-4.5694882893	-2.7384179254	-1.4878465309	 0.135541
H	-3.6638580158	-1.2306386881	-1.6531664384	 0.131165
H	-2.0811860651	-4.6116296069	-0.6558307961	 0.072331
43.367	75.8605	87.482	99.0677	137.4824	193.5688	234.0142	250.7641	281.818	304.448	324.7147	343.9746	381.9957	481.4241	511.0781	589.9791	748.9356	849.1047	881.0498	899.0865	910.6545	953.3375	988.9153	1042.7608	1069.5918	1076.7824	1104.692	1122.377	1153.2727	1166.3966	1243.4672	1245.901	1293.8546	1307.1597	1326.3073	1356.5323	1376.2247	1395.5516	1406.1911	1413.5223	1416.9695	1429.8219	1477.5014	1494.3191	1497.0713	1500.3424	1501.9622	1511.575	1837.3128	2858.646	2995.8158	3018.0803	3024.9275	3028.5794	3034.7608	3038.0604	3053.1236	3074.532	3097.8822	3103.0184	3106.4578	3121.1299	3791.4656
CCCC(O)C(C)C=O	CCC[C@@H](O)[C@@H](C)C=O	
InChI=1S/C7H14O2/c1-3-4-7(9)6(2)5-8/h5-7,9H,3-4H2,1-2H3	InChI=1S/C7H14O2/c1-3-4-7(9)6(2)5-8/h5-7,9H,3-4H2,1-2H3/t6-,7+/m0/s1
