19
gdb 76100	2.42522	1.24076	1.01398	1.042	82.61	-0.2382	0.0382	0.2764	1254.6808	0.157143	-385.821558	-385.812152	-385.811208	-385.85623	35.118	
O	-0.1391004953	 1.2680835529	-0.2411030426	-0.420186
C	-0.1699449498	-0.1018026741	-0.0044089547	 0.08952
C	-0.423027422	-0.5997711356	 1.4189804557	-0.278834
C	-0.5613705429	 0.3914294283	 2.4400016888	 0.305537
C	-0.629099618	 1.2744961132	 3.2570893446	-0.446622
C	-1.483139592	-0.7603642025	 0.3137393351	-0.072573
C	-2.7538979824	 0.0213885633	 0.3281114519	 0.033136
C	-3.8542409869	-0.327040184	-0.6449885456	-0.27447
C	-4.0300791861	-0.6108149369	 0.8260472412	-0.270892
H	 0.0970995649	 1.7117504223	 0.5840747061	 0.292396
H	 0.55830676	-0.6573393054	-0.5921001407	 0.099579
H	 0.0998055447	-1.5027408356	 1.7193331865	 0.114641
H	-0.718765107	 2.0230009371	 4.0050104995	 0.200112
H	-1.5871634849	-1.7862172768	-0.03186631	 0.089121
H	-2.6224038194	 1.0759261919	 0.538559195	 0.095789
H	-4.419201323	 0.4847793353	-1.0892326483	 0.113771
H	-3.6970711326	-1.1709196279	-1.3090057209	 0.108842
H	-3.990399156	-1.6455980868	 1.1503622019	 0.108605
H	-4.7181093713	 0.0047290013	 1.3947447665	 0.112529
49.0032	99.3481	117.6822	164.9537	206.7121	258.3471	312.1915	369.3909	390.4704	579.0502	584.5568	619.1325	646.5516	661.6672	745.9792	769.2675	794.0127	828.3313	849.565	935.9338	938.02	992.5667	1016.0479	1030.6332	1061.674	1077.4651	1118.5789	1126.6161	1134.6101	1196.9747	1203.4149	1224.3722	1251.1279	1307.0003	1352.6234	1364.3735	1401.8452	1456.8722	1470.9694	1508.6137	2222.9712	3118.8942	3129.3701	3132.9624	3136.1066	3152.817	3184.0983	3207.4619	3223.533	3502.5331	3750.6668
OC1C(C#C)C1C1CC1	O[C@H]1[C@@H](C#C)[C@H]1C1CC1	
InChI=1S/C8H10O/c1-2-6-7(8(6)9)5-3-4-5/h1,5-9H,3-4H2	InChI=1S/C8H10O/c1-2-6-7(8(6)9)5-3-4-5/h1,5-9H,3-4H2/t6-,7+,8-/m0/s1
