18
gdb 108808	3.22116	1.14294	0.89033	2.3391	73.5	-0.265	-0.0173	0.2476	1322.8956	0.146763	-439.156855	-439.147817	-439.146872	-439.191086	32.438	
C	-0.0842439081	 1.5039847284	-0.1247402389	-0.374104
C	 0.0561209617	-0.0102788267	 0.0255020462	-0.29318
C	 0.7620194599	-0.4190882517	 1.2739225255	 0.421674
N	 1.2432851236	 0.324276068	 2.1831104925	-0.299821
C	 1.8243877201	-0.5701520563	 3.1844518879	-0.125536
C	 1.2397659487	-0.3690397755	 4.5852473546	-0.387061
C	 1.5632492162	-1.9746453153	 2.6406164434	 0.414966
O	 1.8230718591	-3.0515291354	 3.0777066827	-0.322491
O	 0.8957815741	-1.7919931202	 1.4357937774	-0.238603
H	 0.8951376158	 1.9879747024	-0.1407793645	 0.136785
H	-0.6063246291	 1.7433630119	-1.0547303882	 0.116997
H	-0.6467183929	 1.9298228912	 0.7095761401	 0.136135
H	-0.9242951371	-0.503709605	 0.0204646551	 0.13673
H	 0.6012444291	-0.4449171287	-0.8222767551	 0.137146
H	 2.9100563571	-0.4136162404	 3.224312338	 0.13116
H	 0.1535055445	-0.4949993208	 4.5729363372	 0.129581
H	 1.6688543104	-1.100664331	 5.2744843478	 0.142796
H	 1.4658626268	 0.6383694351	 4.9410775983	 0.136824
63.7544	117.8903	147.9173	174.2457	210.6377	225.1003	242.257	371.1028	408.4249	534.5266	617.9407	652.1705	674.2516	738.328	804.1721	813.8723	908.8878	923.1756	1005.1263	1025.7508	1086.8255	1098.0229	1113.6949	1135.8008	1158.0899	1213.6887	1279.1488	1290.8441	1312.198	1395.5026	1403.6862	1418.4024	1466.6387	1487.4302	1492.6259	1496.79	1502.441	1736.5626	1913.4419	3032.4818	3033.599	3051.2527	3055.8025	3058.3301	3127.6881	3128.9315	3132.9472	3139.0988
CCC1=NC(C)C(=O)O1	CCC1=N[C@@H](C)C(=O)O1	
InChI=1S/C6H9NO2/c1-3-5-7-4(2)6(8)9-5/h4H,3H2,1-2H3	InChI=1S/C6H9NO2/c1-3-5-7-4(2)6(8)9-5/h4H,3H2,1-2H3/t4-/m0/s1
