22
gdb 100648	2.45457	1.08503	0.95831	5.1981	82.4	-0.2807	0.0445	0.3252	1377.1594	0.191248	-404.372261	-404.361146	-404.360202	-404.408045	40.584	
C	 0.0183707322	 1.6360970062	-0.0196042146	-0.380796
C	 0.0041395264	 0.1040032223	 0.0193799952	-0.224903
C	 0.7203548033	-0.511278213	-1.1903081875	 0.135032
O	 2.0742979764	-0.0913559269	-1.2583535531	-0.427827
C	 0.6179364248	-2.0737151779	-1.2856840136	 0.062536
C	 1.316731919	-2.7774175024	-0.1017158219	-0.427123
C	-0.8533696214	-2.5352387018	-1.3928356996	-0.418868
C	 1.3031056702	-2.4736238344	-2.5287416371	 0.283249
N	 1.8116030546	-2.8168714748	-3.5081332447	-0.346847
H	 1.0410440277	 2.0164505209	-0.0798129255	 0.130481
H	-0.5250390467	 2.0103189969	-0.8937425407	 0.121692
H	-0.4544500505	 2.0540723656	 0.8737058571	 0.114321
H	 0.4855322022	-0.2457228772	 0.9430463481	 0.094521
H	-1.0307495899	-0.2507252977	 0.059169348	 0.107506
H	 0.2633562507	-0.1129590733	-2.1045120392	 0.102958
H	 2.4818596822	-0.2384515373	-0.3979548657	 0.28341
H	 0.8078930164	-2.5434338568	 0.837289526	 0.124725
H	 1.2958959273	-3.8617170682	-0.2365704815	 0.140077
H	 2.3647548552	-2.4763340702	-0.0243175522	 0.128099
H	-1.3819161693	-1.9903870815	-2.1804875474	 0.134073
H	-0.9021374074	-3.6009704253	-1.6301264564	 0.138163
H	-1.3761283934	-2.375720903	-0.4465739035	 0.125523
63.0097	94.6098	132.5828	186.099	207.5959	232.5715	245.4465	253.2105	277.8262	304.5041	314.3134	345.6184	413.988	424.0226	505.1234	586.4503	615.8054	735.5497	787.2779	847.8885	932.0446	945.9588	960.9394	992.4887	1029.5193	1066.9555	1095.1797	1128.7396	1157.6847	1222.5139	1234.4318	1260.4101	1331.0137	1336.4428	1388.3389	1398.06	1406.7554	1419.5581	1424.5955	1483.273	1485.0786	1491.6595	1495.4613	1501.6636	1509.4425	1512.2197	2354.7056	3016.4542	3040.2811	3042.6338	3045.9303	3049.3501	3077.2172	3108.1652	3121.4312	3123.1879	3124.051	3126.0335	3128.5627	3806.0757
CCC(O)C(C)(C)C#N	CC[C@@H](O)C(C)(C)C#N	
InChI=1S/C7H13NO/c1-4-6(9)7(2,3)5-8/h6,9H,4H2,1-3H3	InChI=1S/C7H13NO/c1-4-6(9)7(2,3)5-8/h6,9H,4H2,1-3H3/t6-/m1/s1
