21
gdb 63630	2.82301	1.12648	1.0802	2.2733	78.26	-0.2607	0.0783	0.3391	1271.4307	0.178424	-424.198443	-424.188295	-424.187351	-424.233936	37.374	
C	-0.2507778267	 1.531389189	-0.0930585257	-0.458171
C	-0.1458222168	 0.0325446285	 0.0837333685	 0.409369
C	-1.321050185	-0.7651940393	-0.4397669441	-0.455018
O	 1.1400621058	-0.5340651246	-0.227618677	-0.290904
C	 0.710237675	-0.55300506	 1.1361588071	-0.084632
C	 1.5236562391	 0.2410040553	 2.1380385538	 0.3571
C	 2.9325786163	 0.6018874809	 1.7271810728	-0.451102
C	 0.8188411905	 1.0120200415	 3.1776238425	-0.212934
O	 1.3853137104	-0.264062583	 3.4751828089	-0.275888
H	 0.6220133657	 2.0489180405	 0.30852332	 0.128759
H	-0.3370788478	 1.7796862409	-1.1563842265	 0.127009
H	-1.1433435118	 1.916862442	 0.4115562529	 0.120428
H	-1.4646957426	-0.5769200258	-1.5094670071	 0.125122
H	-1.1559738043	-1.8361804751	-0.3007091084	 0.129998
H	-2.2449845606	-0.48339681	 0.0766158463	 0.120276
H	 0.445469022	-1.5427031753	 1.5130915627	 0.09942
H	 2.932088051	 1.2233459113	 0.8283441562	 0.133802
H	 3.4359536309	 1.135756805	 2.5368368698	 0.121054
H	 3.5038618142	-0.3029671318	 1.4973554803	 0.135138
H	 1.310253789	 1.8652591512	 3.645177507	 0.111411
H	-0.2700816044	 1.0508078288	 3.17692674	 0.109762
25.4617	135.258	151.6107	171.7257	179.0737	213.6144	289.5848	327.1485	360.4232	377.3801	390.5988	418.6057	490.5014	537.2743	716.2211	750.5256	810.7339	849.5872	923.3134	932.4792	947.0899	957.2611	1011.3762	1034.3389	1069.9603	1094.1263	1131.9821	1137.8422	1153.0165	1166.7291	1261.1457	1282.5873	1326.1427	1378.8074	1409.501	1413.8986	1420.5043	1449.5483	1472.767	1476.3979	1484.3959	1494.4969	1497.533	1514.6416	1529.1397	3033.4786	3039.7833	3047.1177	3074.0087	3093.1818	3094.9481	3100.0039	3115.7325	3125.2645	3132.4877	3137.292	3159.3375
CC1(C)OC1C1(C)CO1	CC1(C)O[C@H]1[C@@]1(C)CO1	
InChI=1S/C7H12O2/c1-6(2)5(9-6)7(3)4-8-7/h5H,4H2,1-3H3	InChI=1S/C7H12O2/c1-6(2)5(9-6)7(3)4-8-7/h5H,4H2,1-3H3/t5-,7-/m1/s1
