17
gdb 35190	3.63503	1.15713	1.06555	2.0966	79.53	-0.2271	0.0292	0.2563	1163.3876	0.135589	-380.751583	-380.743709	-380.742765	-380.784026	30.77	
C	-0.0750316714	-1.194515742	-0.0474823065	-0.4407
C	-0.0347378454	 0.0067897788	-0.0118214177	 0.38195
C	 0.0240712538	 1.4407624758	-0.0145906227	-0.347689
N	 0.5863917534	 2.1094790909	 1.1954972888	-0.372018
C	 1.325468717	 2.1744539768	-0.0483245442	 0.37112
C	 2.771661679	 1.6980085532	-0.1786937793	-0.244364
N	 3.1613679907	 2.9813488321	-0.8806906762	-0.123418
C	 2.3442460664	 3.0315396957	-2.1038853659	-0.237757
C	 1.7031992446	 3.4114427615	-0.8256258451	-0.13155
H	-0.1136033649	-2.2555631611	-0.0633871551	 0.199773
H	-0.810663038	 1.935049993	-0.5083334442	 0.112255
H	 0.0822655228	 2.9784934637	 1.3632513152	 0.237306
H	 3.2757530013	 1.623731041	 0.7863335432	 0.131061
H	 2.9570912287	 0.7953078717	-0.7686657847	 0.117018
H	 2.6368028446	 3.831741799	-2.7772272316	 0.12537
H	 2.0600409532	 2.101906606	-2.593164345	 0.120286
H	 1.4100530841	 4.4286011338	-0.5812926889	 0.101357
91.337	116.7628	185.4452	282.9874	342.3828	402.8943	476.5164	484.2317	546.5782	594.0332	623.9434	663.1925	745.9503	783.125	814.4038	845.1118	915.5294	932.265	962.7122	981.4207	1026.8792	1048.6302	1061.1491	1087.0408	1114.5656	1123.4498	1187.3908	1197.0478	1212.6761	1268.032	1273.5625	1321.5512	1366.0948	1465.4522	1486.0234	1503.441	2238.7167	3057.7091	3101.8465	3122.0502	3127.6746	3151.5975	3196.1533	3483.4809	3503.767
C#CC1NC11CN2CC12	C#C[C@H]1N[C@]21CN1C[C@@H]21	
InChI=1S/C7H8N2/c1-2-5-7(8-5)4-9-3-6(7)9/h1,5-6,8H,3-4H2	InChI=1S/C7H8N2/c1-2-5-7(8-5)4-9-3-6(7)9/h1,5-6,8H,3-4H2/t5-,6+,7+,9?/m1/s1
