17
gdb 38073	3.23728	1.85988	1.33714	1.16	82.73	-0.2123	-0.028	0.1843	947.014	0.137968	-384.678889	-384.672263	-384.671319	-384.709619	27.428	
C	 0.036473291	 1.5309534146	 0.0477488225	-0.345196
C	 1.3422293942	 0.7262360127	-0.0558045094	-0.205553
C	 1.9631649543	 0.4132334247	 1.2727118155	-0.064442
C	 1.1744294873	-0.3634422365	 2.0471216807	-0.223919
C	 0.0001619148	-0.7512485819	 1.2796570606	 0.299769
C	-0.9013959568	-1.7305350318	 1.1747212805	-0.288591
C	-1.5193368273	-1.6542285328	-0.2053488433	-0.129757
O	-0.7376458965	-0.6867652522	-0.9342290609	-0.312573
C	-0.0066291319	 0.0318824051	 0.014420126	 0.39926
H	-0.1731526848	 2.082396353	 0.9595937947	 0.110737
H	-0.2866256354	 2.0071985844	-0.872896215	 0.120337
H	 1.9487412601	 0.8311078849	-0.9473953236	 0.100053
H	 2.9320723615	 0.8001253481	 1.5687811698	 0.10384
H	 1.4029773619	-0.69900111	 3.0499721171	 0.104242
H	-1.1306136418	-2.5154661553	 1.8831283773	 0.106579
H	-1.4782437869	-2.6144809832	-0.7359079319	 0.11598
H	-2.5733421337	-1.3313374839	-0.1869802209	 0.109234
133.9533	244.1854	328.9324	348.8737	401.8551	491.0376	623.9264	633.346	696.9127	742.1805	781.3564	811.2603	818.477	847.4254	875.0475	915.7338	940.043	951.0955	978.877	1001.2941	1025.2968	1035.8204	1059.5979	1065.5478	1118.0166	1146.713	1190.619	1209.9092	1256.8907	1336.1452	1355.9469	1368.8065	1390.0613	1469.6799	1509.7858	1595.3201	1713.4482	2967.187	3030.2631	3114.5967	3182.5455	3193.5503	3211.5816	3222.3138	3225.4694
C1C2C=CC3=CCOC123	C1[C@H]2C=C[C]3[CH]CO[C@]123	
InChI=1S/C8H8O/c1-2-7-5-8(7)6(1)3-4-9-8/h1-3,7H,4-5H2	InChI=1S/C8H8O/c1-2-7-5-8(7)6(1)3-4-9-8/h1-3,7H,4-5H2/t7-,8+/m1/s1
