23
gdb 68484	2.61192	1.63323	1.25691	1.4731	84.36	-0.2364	0.0798	0.3161	1114.6035	0.208113	-388.305471	-388.297316	-388.296372	-388.337376	33.789	
C	-0.0422912876	 1.5749131463	 0.0030241514	-0.448762
C	 0.0817471461	 0.062543671	-0.0460686208	 0.417689
C	 0.7458296423	-0.5553640731	-1.3000633456	-0.319665
C	-0.5253127365	-1.42593014	-1.3651906459	 0.124436
C	-0.3983455815	-2.8550630926	-0.8254656658	-0.217429
C	-0.2314502755	-2.9236826369	 0.70361503	-0.175927
C	 0.8775739959	-2.0310235997	 1.286935301	-0.217165
C	 0.5649409706	-0.5223948296	 1.2871890851	-0.216554
O	-1.1938921621	-0.5529925552	-0.4189352631	-0.327899
H	 0.938107444	 2.0399282914	 0.1533336988	 0.113168
H	-0.4693639851	 1.9528166883	-0.9298666069	 0.116714
H	-0.6952867989	 1.8828593215	 0.8267389583	 0.120981
H	 0.8141743278	 0.1547284804	-2.126853108	 0.098399
H	 1.7058661102	-1.0598023498	-1.1784938682	 0.099207
H	-1.0423552584	-1.4236466319	-2.3312626895	 0.06971
H	-1.290063104	-3.4294577407	-1.1034510781	 0.097567
H	 0.4496895359	-3.3393159509	-1.3289650918	 0.092731
H	-1.18421426	-2.6498435945	 1.1693768051	 0.109442
H	-0.0341615511	-3.9659881453	 0.9799428132	 0.0858
H	 1.0627471579	-2.3320038484	 2.3247580895	 0.093204
H	 1.8189912351	-2.2201189436	 0.7545707144	 0.092597
H	 1.4543244796	 0.0288732607	 1.6192419836	 0.088871
H	-0.2228698847	-0.3180388972	 2.0241007633	 0.102886
176.3845	198.5357	235.7683	247.6848	324.5108	346.5345	379.4006	384.7126	417.2611	536.0896	566.9344	660.1591	773.1491	785.1291	830.2353	853.3573	872.5691	915.156	918.2348	928.7124	964.1287	990.7583	1001.0617	1047.7633	1071.2893	1086.9503	1123.0087	1135.433	1163.2149	1200.7192	1246.1156	1251.1646	1259.9446	1291.8323	1298.2607	1327.8804	1362.4951	1375.2563	1384.3181	1396.1678	1398.9195	1404.7921	1464.4197	1476.8974	1481.9082	1485.381	1488.1106	1495.2691	1510.7747	3013.0721	3013.8055	3019.3243	3032.4635	3033.1322	3036.1265	3051.4338	3057.5484	3061.5062	3072.9579	3081.4211	3101.1509	3115.2121	3126.9706
CC12CC(CCCC1)O2	C[C@@]12C[C@@H](CCCC1)O2	
InChI=1S/C8H14O/c1-8-5-3-2-4-7(6-8)9-8/h7H,2-6H2,1H3	InChI=1S/C8H14O/c1-8-5-3-2-4-7(6-8)9-8/h7H,2-6H2,1H3/t7-,8+/m1/s1
