19
gdb 126445	2.15213	1.46093	0.93594	1.4374	78.8	-0.2012	0.0133	0.2145	1288.7605	0.160664	-415.396618	-415.387125	-415.386181	-415.431688	33.791	
C	 0.037153673	 1.557559917	 0.120769196	-0.374683
C	-0.0919011688	 0.034907346	-0.0673188733	-0.307424
C	 0.6837339724	-0.4901323393	-1.233541209	 0.245659
N	 0.1276271756	-0.7553020301	-2.4164049546	-0.264131
N	 1.1383422332	-1.1752470552	-3.1583281163	-0.098142
N	 2.3388813816	-1.2125775358	-2.5668915486	-0.298049
C	 2.0707748635	-0.7809781498	-1.334081668	 0.306682
N	 3.0289121817	-0.7147929829	-0.3378976786	-0.386426
C	 4.4256670573	-0.8638142831	-0.7184503969	-0.31672
H	 1.0805590494	 1.8601046831	 0.2647137217	 0.107786
H	-0.339585907	 2.0883135006	-0.7583168747	 0.131575
H	-0.5304764875	 1.8929223789	 0.9943606222	 0.115482
H	 0.2427544814	-0.4756873976	 0.8447234241	 0.10703
H	-1.1447978571	-0.2274301273	-0.2071975365	 0.123954
H	 1.0111134692	-1.4797470584	-4.1078176747	 0.285274
H	 2.8626861047	 0.0297665513	 0.3223166982	 0.239691
H	 5.0445580883	-0.7953920695	 0.17928512	 0.117007
H	 4.5750889281	-1.8477353263	-1.169957036	 0.147835
H	 4.7621520011	-0.1109302016	-1.446292815	 0.117599
38.5207	97.2225	151.6733	171.1969	175.8507	227.6678	289.1796	321.5618	359.3336	451.5178	488.4097	551.0564	645.4462	700.8427	774.9482	783.2478	796.3375	969.0529	986.145	1063.1747	1080.1131	1085.2724	1137.8016	1161.372	1190.7061	1215.955	1266.8689	1283.3526	1356.9912	1390.2728	1407.2425	1451.3334	1463.8456	1466.228	1479.7092	1482.3004	1494.8829	1505.3391	1516.7086	1576.177	1600.1318	2997.6106	3027.9876	3031.4901	3080.8571	3087.6212	3101.6994	3116.1417	3129.5594	3605.6761	3689.7608
CCC1=NNN=C1NC	CCc1n[nH]nc1NC	
InChI=1S/C5H10N4/c1-3-4-5(6-2)8-9-7-4/h3H2,1-2H3,(H2,6,7,8,9)	InChI=1S/C5H10N4/c1-3-4-5(6-2)8-9-7-4/h3H2,1-2H3,(H2,6,7,8,9)
