17
gdb 80247	2.40322	1.65851	1.28876	4.2214	67.95	-0.2601	0.0103	0.2703	1023.3838	0.136328	-458.97487	-458.967082	-458.966137	-459.00687	30.248	
C	-0.0774113192	 1.6399669331	-0.0106285799	-0.442354
C	 0.0113532264	 0.1248646522	 0.0094880605	 0.020317
C	 1.1566602191	-0.6166810378	-0.7270596249	 0.022985
O	 2.362104121	-0.0501148671	-0.1410685656	-0.244479
C	 2.0519575359	-0.0422591791	 1.2056309972	 0.445479
O	 2.7855847029	 0.3551560022	 2.0576859951	-0.349677
C	 0.6555285993	-0.6406685901	 1.230458876	-0.227329
C	 0.9111767965	-1.8223290897	 0.2318177146	 0.121613
O	-0.2443650053	-2.5861945986	 0.0242939696	-0.43189
H	 0.8882631993	 2.1126187676	 0.1876427609	 0.1444
H	-0.4286090185	 1.9894175061	-0.9872698634	 0.12242
H	-0.7890903945	 1.9938047326	 0.7422044133	 0.127479
H	-0.9445913823	-0.33908669	-0.2349860963	 0.109552
H	 1.2693586749	-0.6846912162	-1.8078336472	 0.090946
H	 0.1830513105	-0.7678717051	 2.2003979556	 0.101645
H	 1.7945690786	-2.4431643891	 0.4265522973	 0.094841
H	-0.0524040344	-3.248749061	-0.6473288329	 0.294052
147.167	195.7984	213.8405	253.2438	285.6804	310.9364	347.5163	476.5215	515.8281	596.6269	671.1837	738.3673	748.7971	844.4616	853.4072	896.1163	931.6856	943.5	1016.0009	1058.1312	1061.9328	1097.5755	1112.6547	1139.5112	1161.7943	1184.2606	1210.7362	1251.0898	1256.8061	1313.2538	1320.2965	1388.6228	1419.0223	1434.7758	1493.9825	1500.2742	1913.7387	3032.8408	3039.4529	3101.7892	3109.1142	3126.7344	3139.659	3169.0945	3817.2288
CC1C2OC(=O)C1C2O	C[C@H]1[C@H]2OC(=O)[C@@H]1[C@H]2O	
InChI=1S/C6H8O3/c1-2-3-4(7)5(2)9-6(3)8/h2-5,7H,1H3	InChI=1S/C6H8O3/c1-2-3-4(7)5(2)9-6(3)8/h2-5,7H,1H3/t2-,3+,4-,5-/m1/s1
