18
gdb 102415	2.1662	1.1031	0.8306	3.7533	76.13	-0.2305	0.0177	0.2482	1408.445	0.146378	-435.271715	-435.261275	-435.260331	-435.308047	35.781	
C	 0.1727834698	 1.3797986177	-0.2731588718	-0.311836
N	-0.0643672552	-0.0132951718	 0.0394003607	-0.299187
C	-1.3082728334	-0.5458344326	 0.0685636921	 0.334864
C	-1.3276815794	-2.0587743538	 0.3079170449	-0.181681
O	-0.0423656362	-2.6127095894	 0.5454080316	-0.416885
N	-2.3381968003	 0.2084508323	-0.1028925216	-0.312335
C	-3.6633789578	-0.3837048698	-0.0320906304	-0.290217
C	-4.0695357065	-0.7636212226	 1.3342120765	 0.266594
N	-4.3493025711	-1.0690862523	 2.4139966066	-0.328057
H	 1.2327804945	 1.5997095374	-0.1305243224	 0.120649
H	-0.1102770185	 1.6229183014	-1.3049507886	 0.131083
H	-0.4215048907	 2.0159720041	 0.3878823123	 0.150969
H	 0.6921340224	-0.6774586691	 0.0138636648	 0.255293
H	-2.0215963952	-2.2888697915	 1.1241416197	 0.150661
H	-1.7160790257	-2.5469800547	-0.593696985	 0.14243
H	 0.1515276626	-2.5186091779	 1.483456796	 0.29938
H	-4.3873963643	 0.3543726118	-0.3941655915	 0.152897
H	-3.7930825749	-1.2724687992	-0.6709458538	 0.135379
54.9371	80.5634	95.4134	116.6608	163.8588	197.9018	229.4664	275.4103	293.1946	353.8836	373.1481	502.4861	555.8017	575.2377	597.4411	666.4013	804.1533	904.1479	981.9552	1006.1692	1041.4777	1089.4076	1115.1439	1158.1092	1204.9377	1218.0844	1248.6228	1328.3919	1345.42	1389.2097	1404.5945	1451.6248	1474.2262	1478.1268	1488.5758	1511.6941	1565.82	1693.365	2345.7842	2973.2357	3025.4288	3036.0001	3060.2008	3079.084	3093.0794	3135.0966	3643.7497	3825.7753
CNC(CO)=NCC#N	CNC(=NCC#N)CO	
InChI=1S/C5H9N3O/c1-7-5(4-9)8-3-2-6/h9H,3-4H2,1H3,(H,7,8)	InChI=1S/C5H9N3O/c1-7-5(4-9)8-3-2-6/h9H,3-4H2,1H3,(H,7,8)
