18
gdb 22482	2.56293	1.28741	1.02967	9.0007	85.35	-0.1509	-0.0707	0.0801	1180.7531	0.14639	-472.294853	-472.28559	-472.284646	-472.328766	34.457	
N	 0.7721685427	-0.1189788225	-1.4538634392	-0.448985
C	 0.3697735869	-0.6508752249	-0.2913046677	 0.119758
N	 1.1655957442	-0.7350815236	 0.7463216167	-0.207919
H	 2.0727466364	-0.2931011969	 0.6145218969	 0.279865
C	 1.4219478777	-2.0973730428	 1.4828393146	-0.26085
C	 2.5532950891	-2.6595346714	 0.7338869424	 0.188424
C	 2.4048356104	-3.0302344646	-0.7167054206	-0.169963
O	 2.9500668968	-1.9907313083	-1.5626791567	-0.446892
N	 3.7526657379	-2.291686821	 1.1957758378	-0.071625
O	 4.7282942193	-2.4029654916	 0.3706698939	-0.466759
H	 1.7399651408	-0.3687976326	-1.6988675805	 0.297017
H	 0.1149516328	-0.1079057681	-2.2180846189	 0.280414
H	-0.633640559	-1.0611096647	-0.2044974527	 0.159389
H	 1.6938267902	-1.8523992645	 2.5087718772	 0.145353
H	 0.4712281442	-2.6329812961	 1.4450432699	 0.114353
H	 2.933285899	-3.9682073691	-0.9284692061	 0.120713
H	 1.3563551508	-3.171466384	-1.0070002523	 0.069862
H	 3.8585240099	-1.9383440331	-1.1827262248	 0.297844
81.0606	129.9077	161.7868	184.1102	220.2118	283.9633	311.8468	365.2888	371.0462	397.7715	484.3881	588.6566	614.6682	659.2135	683.7481	755.8961	822.0538	868.3621	883.6881	935.4304	974.5229	987.1032	1027.2651	1119.6107	1173.8139	1179.4686	1277.0549	1300.8677	1338.1907	1340.1121	1369.8051	1372.1009	1413.8864	1455.533	1467.1101	1470.857	1479.4163	1641.8386	1695.0911	3015.6125	3054.3029	3080.4177	3160.0432	3172.2653	3312.9907	3405.6746	3513.8929	3655.9923
NC=[NH+]CC(CO)=N[O-]	[NH2]=CNC[C](CO)[N][O]	
InChI=1S/C4H9N3O2/c5-3-6-1-4(2-8)7-9/h3,8-9H,1-2H2,(H2,5,6)	InChI=1S/C4H9N3O2/c5-3-6-1-4(2-8)7-9/h3,6,8H,1-2,5H2
