13
gdb 42148	3.71658	0.72509	0.63202	2.7736	80.61	-0.276	-0.0876	0.1884	1665.1735	0.086088	-419.336627	-419.327757	-419.326812	-419.37215	30.194	
O	 0.0130805889	-0.0727565643	-0.2130137988	-0.264543
C	-0.0272025691	 1.1365001225	-0.0959406086	 0.150932
C	 1.166707656	 1.9534693757	-0.0101565087	 0.290249
C	 2.1619581025	 2.6264083027	 0.0594424856	-0.471554
C	-1.2662219681	 1.8752531597	-0.030568641	 0.122862
C	-2.3093337637	 2.4814552799	 0.0271127186	 0.03065
C	-3.5661685678	 3.1701687245	 0.0794595955	-0.125183
C	-3.9081720617	 4.044712562	 1.2237858772	-0.155613
O	-3.5417488532	 4.6012793488	-0.0277740081	-0.203308
H	 3.044922425	 3.2155527983	 0.1195501921	 0.222795
H	-4.3835320708	 2.6949346071	-0.4605729785	 0.134887
H	-4.9555595188	 4.146375114	 1.5035458952	 0.131933
H	-3.1843333792	 4.169083569	 2.0263401095	 0.135892
31.1204	61.2426	101.4077	167.8366	227.9583	242.796	301.4686	426.9886	543.2	556.3739	614.2884	655.173	694.9033	707.7608	772.544	833.3532	860.9061	950.568	1047.2923	1087.3678	1155.3861	1162.8821	1220.5665	1282.6682	1398.5274	1518.1651	1719.4488	2217.5962	2327.844	3091.8713	3127.158	3188.2079	3493.4696
O=C(C#C)C#CC1CO1	O=C(C#C)C#C[C@H]1CO1	
InChI=1S/C7H4O2/c1-2-6(8)3-4-7-5-9-7/h1,7H,5H2	InChI=1S/C7H4O2/c1-2-6(8)3-4-7-5-9-7/h1,7H,5H2/t7-/m0/s1
