19
gdb 23309	3.02646	1.2358	0.96104	1.7259	79.76	-0.23	0.0109	0.2408	1242.0737	0.160059	-419.158787	-419.150398	-419.149454	-419.191624	32.707	
C	 0.1044066527	 1.5816943465	 0.030680116	-0.402835
C	 0.0188012962	 0.0554014203	 0.0273472176	 0.026051
C	 0.6558117703	-0.6097230751	-1.2268459009	-0.335744
C	 1.2253485517	-1.9212544044	-0.7297682499	 0.471241
N	 1.433423159	-3.0105093163	-1.3549671863	-0.258112
O	 1.0923693631	-2.8962832314	-2.7153987285	-0.392791
C	 1.4550329331	-1.8174337146	 0.7319329764	-0.146384
N	 2.1972530983	-0.5662886835	 1.0787537029	-0.340922
C	 0.7308209742	-0.6067805164	 1.2046238813	-0.041437
H	 1.1513596509	 1.9001729641	 0.0457170594	 0.133789
H	-0.3708609065	 2.0068798081	-0.859255327	 0.114297
H	-0.3932693365	 2.0069995701	 0.9089605218	 0.107856
H	-1.0350914259	-0.2480203443	 0.0802302631	 0.077984
H	-0.0540337847	-0.7648826451	-2.0411472333	 0.127278
H	 1.4702605569	 0.00971636	-1.6190568878	 0.134789
H	 1.2634565332	-3.7862508168	-3.0410133369	 0.305296
H	 1.5984744014	-2.7096323495	 1.3285716585	 0.097902
H	 2.6162223681	-0.6945326632	 1.9970755587	 0.235208
H	 0.2842705946	-0.5647799786	 2.193565445	 0.086533
92.8301	155.7909	192.8682	242.7993	267.973	342.8677	363.8325	434.6022	449.1637	511.213	582.119	617.2063	685.1381	798.219	843.3381	856.4646	873.7164	911.3044	912.4108	938.9683	980.5281	1040.3675	1045.262	1105.5475	1115.9083	1134.7169	1156.0332	1215.8349	1229.088	1263.4421	1281.0776	1337.0468	1341.025	1367.2966	1400.3479	1411.8166	1429.9109	1469.4277	1496.5473	1502.9339	1758.9993	3019.6969	3031.7384	3053.0077	3096.8789	3110.6614	3119.0736	3155.2988	3197.2944	3498.0492	3820.0677
CC1CC(=NO)C2NC12	C[C@H]1CC(=NO)[C@H]2N[C@@H]12	
InChI=1S/C6H10N2O/c1-3-2-4(8-9)6-5(3)7-6/h3,5-7,9H,2H2,1H3	InChI=1S/C6H10N2O/c1-3-2-4(8-9)6-5(3)7-6/h3,5-7,9H,2H2,1H3/t3-,5-,6+/m0/s1
