19
gdb 73219	2.09503	1.89612	1.4161	1.9352	74.35	-0.2371	-0.0271	0.21	1015.3834	0.159055	-423.041305	-423.033017	-423.032073	-423.07435	31.572	
C	 0.0931603411	 1.5980881965	-0.1996061944	-0.477518
C	-0.0249604044	 0.1030756431	 0.0571810633	 0.185072
C	-1.4019485593	-0.4644917549	 0.5376677834	-0.272876
C	-0.6645537177	-1.3266927104	 1.6003354458	-0.257524
C	 0.6586577873	-0.5716670212	 1.2734103292	 0.081684
O	 1.7606516008	-1.3537007342	 0.8231451203	-0.264574
C	 1.5554224311	-1.708170983	-0.5304351967	-0.193875
C	 0.5423101212	-0.712400458	-1.1074886909	 0.337637
O	 0.2521986985	-0.5969863075	-2.2695483682	-0.316006
H	 1.1397258162	 1.9035840784	-0.3059911913	 0.124965
H	-0.4282823878	 1.8615496263	-1.1251822777	 0.141495
H	-0.3456009732	 2.1711857675	 0.6231460616	 0.115325
H	-2.0194375136	 0.3227458067	 0.977651788	 0.110301
H	-1.9983848808	-0.9902388483	-0.2114589699	 0.115601
H	-1.0228195058	-1.2401658909	 2.6278287564	 0.108655
H	-0.6039920047	-2.3877918998	 1.3460891785	 0.113321
H	 1.0259170911	 0.0807424694	 2.0681523461	 0.086273
H	 2.5050611462	-1.6607775237	-1.0729112997	 0.139117
H	 1.1572944039	-2.7299293958	-0.6412774438	 0.12293
56.8669	144.8391	196.3768	219.6477	253.3576	275.5664	398.2909	475.0303	536.0241	615.5658	619.2784	663.483	710.0183	806.3894	814.9227	901.999	919.9653	944.5615	966.7434	1005.9211	1017.3434	1074.0679	1090.9806	1129.4958	1164.5793	1190.2762	1206.8694	1215.4103	1232.9063	1248.9561	1261.5372	1317.7877	1322.1405	1371.5204	1403.5023	1474.3451	1484.2052	1490.716	1492.1286	1498.6774	1847.3563	2979.1085	3030.8365	3061.5753	3070.9425	3076.6369	3090.3388	3100.0982	3109.0536	3109.9868	3128.7892
CC12CCC1OCC2=O	C[C@]12CC[C@H]1OCC2=O	
InChI=1S/C7H10O2/c1-7-3-2-6(7)9-4-5(7)8/h6H,2-4H2,1H3	InChI=1S/C7H10O2/c1-7-3-2-6(7)9-4-5(7)8/h6H,2-4H2,1H3/t6-,7-/m1/s1
