16
gdb 48730	3.15129	1.62821	1.34568	3.3356	69.63	-0.2513	-0.0337	0.2176	952.1747	0.125369	-437.822811	-437.816058	-437.815114	-437.85403	26.924	
O	-0.1005858719	 0.0349852958	 0.0734177042	-0.261267
C	 0.0461744305	 1.2166252065	-0.117986506	 0.08443
C	 1.3317137381	 1.9264790744	-0.0231095642	 0.247277
N	 1.364360868	 3.381498718	 0.3012659408	-0.362373
C	 1.7455426329	 2.9524030459	-1.0393702947	-0.095702
C	 3.2254312446	 2.5132486597	-1.1912111846	 0.064505
C	 3.7273354435	 2.3167044417	 0.2567202148	-0.237703
C	 2.679788312	 1.1887184078	 0.1322240418	 0.004336
O	 3.0726609988	 1.0564869375	-1.2818870677	-0.299539
H	-0.8150773297	 1.8786166283	-0.3803170115	 0.060433
H	 0.4107781193	 3.7481220043	 0.285619936	 0.238951
H	 1.1389068382	 3.2060956103	-1.9015890029	 0.115322
H	 3.8126142072	 2.9517664725	-1.9966384238	 0.090023
H	 4.7352854634	 1.904591798	 0.2569544304	 0.11725
H	 3.5942985932	 3.1054299052	 0.993690932	 0.13084
H	 2.6869914618	 0.2545588042	 0.6880401357	 0.103217
110.7052	180.7629	247.8658	394.7488	442.211	485.3664	556.0922	608.6501	667.1813	729.4986	797.1403	841.1582	861.4741	871.9929	906.6446	931.5377	948.5772	971.0005	1018.7583	1031.2615	1059.577	1081.9919	1107.0866	1145.4861	1191.344	1232.7344	1241.0414	1250.4083	1292.3627	1310.1481	1352.1781	1390.2261	1432.3312	1479.4121	1811.0252	2832.5126	3107.9477	3137.2187	3164.114	3181.1098	3182.7319	3444.9579
O=CC12NC1C1CC2O1	O=C[C@]12N[C@H]1[C@H]1C[C@@H]2O1	
InChI=1S/C6H7NO2/c8-2-6-4-1-3(9-4)5(6)7-6/h2-5,7H,1H2	InChI=1S/C6H7NO2/c8-2-6-4-1-3(9-4)5(6)7-6/h2-5,7H,1H2/t3-,4+,5+,6-/m1/s1
