16
gdb 17781	6.92945	1.04703	1.01379	2.3331	74.24	-0.2356	0.0407	0.2763	1184.5715	0.129506	-346.50673	-346.499013	-346.498069	-346.540269	27.733	
C	 0.0628119948	 1.5654732053	-0.058104155	-0.500745
C	 0.0541329958	 0.1107599499	-0.0071808027	 0.098007
C	 0.0490731052	-1.0938211902	 0.0332121091	 0.031636
C	 0.0536039742	-2.5394121209	 0.0729432296	-0.16713
C	-0.1302516735	-3.3284082809	 1.4132678889	 0.05185
C	-1.6147589557	-2.9009468571	 1.4739306709	-0.234053
C	-1.2739102837	-3.3697604696	 0.0406854024	 0.051847
O	-0.5268382581	-4.5079748931	 0.6158839453	-0.309312
H	 0.8935931082	 1.9361681449	-0.6685454381	 0.151088
H	-0.8655849037	 1.9543369651	-0.4909711683	 0.149654
H	 0.1682126546	 1.9984245765	 0.9428673201	 0.149523
H	 0.8265769573	-2.9848068361	-0.5576615825	 0.105186
H	 0.5918638991	-3.4773440767	 2.2161783429	 0.099493
H	-2.2626459645	-3.5754009416	 2.0340949965	 0.109034
H	-1.8401774105	-1.8451043248	 1.6299051044	 0.114432
H	-1.9281790395	-3.5684708705	-0.8082809435	 0.099491
22.8396	103.5281	107.0591	282.8581	296.659	435.9822	469.9178	498.4078	576.3176	725.2701	818.0509	859.651	878.9245	884.7089	912.6257	939.6978	1005.4055	1051.2377	1052.9239	1061.6272	1087.167	1133.7794	1169.9286	1190.7201	1192.8183	1209.1037	1256.9813	1270.7012	1355.3368	1414.6507	1477.6108	1477.7711	1485.3741	2364.2129	3026.8434	3081.8316	3087.2954	3088.4248	3088.8888	3117.2332	3124.3551	3162.0318
CC#CC1C2CC1O2	CC#C[C@H]1[C@H]2C[C@@H]1O2	
InChI=1S/C7H8O/c1-2-3-5-6-4-7(5)8-6/h5-7H,4H2,1H3	InChI=1S/C7H8O/c1-2-3-5-6-4-7(5)8-6/h5-7H,4H2,1H3/t5-,6+,7-
