20
gdb 120604	4.29044	0.69646	0.66832	3.2932	78.86	-0.256	-0.0288	0.2272	1702.257	0.168463	-440.269182	-440.258851	-440.257907	-440.305203	36.422	
C	 0.0703754857	 1.579520088	-0.1844320035	-0.458114
C	 0.0012212526	 0.0884284713	 0.0367821762	 0.208917
N	 1.2736323524	-0.6757536838	 0.0399682895	-0.356403
C	 0.5020226729	-0.6072814663	 1.2758285561	-0.062008
C	 1.101979122	 0.1265537205	 2.4521166657	-0.193583
C	 2.0848047437	-0.751949083	 3.2217819096	-0.067403
O	 2.5580607857	 0.0035900717	 4.3243194397	-0.419871
C	-1.1498775458	-0.6118745015	-0.6021205907	 0.121617
O	-2.0366619079	-0.0727970294	-1.213415471	-0.258472
H	 0.9930111198	 1.9949869168	 0.2213107196	 0.130847
H	 0.0341283174	 1.798673323	-1.2552165234	 0.135927
H	-0.784360125	 2.0778574763	 0.2816636465	 0.133034
H	 1.1550013205	-1.5771226076	-0.4212096482	 0.233778
H	-0.0521260608	-1.5067235836	 1.5524215373	 0.087725
H	 1.6277394942	 1.0243252823	 2.1192243224	 0.120359
H	 0.3044999832	 0.4451938296	 3.13353448	 0.115217
H	 1.5796467589	-1.6738458224	 3.5562658582	 0.081236
H	 2.9054280708	-1.0502617376	 2.5515855003	 0.102211
H	 3.2161410815	-0.5205294293	 4.7898571144	 0.287628
H	-1.1200085716	-1.7235450747	-0.4780932187	 0.057359
60.3476	88.8489	102.0559	119.2667	147.7274	251.4613	252.6925	259.4909	309.6272	332.3833	411.9605	463.806	524.2435	594.4641	755.3201	801.2128	810.9591	894.3214	966.6949	997.6494	1013.397	1016.8748	1079.9398	1091.7302	1102.6919	1123.0899	1134.8378	1213.0341	1239.4226	1258.0719	1278.9639	1317.6549	1333.1475	1364.0839	1412.9032	1434.6914	1461.0913	1463.5064	1479.3375	1486.6154	1498.8952	1529.0688	1822.4176	2819.7267	2958.3981	3001.3047	3049.6736	3055.7541	3080.1363	3115.4545	3118.4941	3151.0158	3464.69	3832.1308
CC1(NC1CCO)C=O	C[C@]1(N[C@H]1CCO)C=O	
InChI=1S/C6H11NO2/c1-6(4-9)5(7-6)2-3-8/h4-5,7-8H,2-3H2,1H3	InChI=1S/C6H11NO2/c1-6(4-9)5(7-6)2-3-8/h4-5,7-8H,2-3H2,1H3/t5-,6-/m0/s1
