13
gdb 28409	3.20708	1.47092	1.00841	2.3655	68.17	-0.2059	-0.0473	0.1586	1066.2661	0.089413	-489.911729	-489.904191	-489.903247	-489.943792	28.537	
O	 0.034107191	 1.3455358557	-0.0502572188	-0.404645
C	-0.0762323113	 0.0136503288	 0.0524227298	 0.426813
C	-1.1944433857	-0.6990488876	-0.1644813227	-0.197296
N	-1.1830599759	-2.077334301	-0.0259913844	-0.334758
C	-0.0930351778	-2.6618151475	 0.3112686668	 0.367494
O	-0.0324547672	-3.9952579783	 0.4579753978	-0.385996
C	 1.1777805654	-1.9643457097	 0.5688535845	 0.321885
N	 2.2569682853	-2.5300233388	 0.9014660532	-0.498048
O	 1.0897669842	-0.5827023091	 0.4103557166	-0.267182
H	 0.9437277025	 1.5913360733	 0.1589957799	 0.311791
H	-2.1192458352	-0.2193063654	-0.4490351577	 0.127523
H	-0.9215037618	-4.3246862189	 0.262186812	 0.30337
H	 3.0076031065	-1.8501292616	 1.0272518331	 0.229049
95.8172	162.0797	246.5895	326.8945	346.3896	401.2644	419.7272	495.5748	513.7241	559.5142	589.2951	653.8158	719.1237	773.7228	791.8481	815.105	860.8087	980.8277	1045.6578	1136.2174	1203.1222	1243.7981	1280.4834	1309.8971	1414.6472	1451.821	1651.7676	1704.6808	1758.2466	3236.9324	3489.3008	3762.2428	3807.0328
OC1=CN=C(O)C(=N)O1	OC1=C[N]C(=C([NH])O1)O	
InChI=1S/C4H4N2O3/c5-3-4(8)6-1-2(7)9-3/h1,5,7H,(H,6,8)	InChI=1S/C4H4N2O3/c5-3-4(8)6-1-2(7)9-3/h1,5,7H,(H,6,8)
