14
gdb 98398	3.17158	1.05626	0.79777	4.9838	61.75	-0.265	-0.0531	0.2118	1316.4929	0.097247	-510.997273	-510.987709	-510.986765	-511.033128	31.617	
O	-0.0474486418	 1.44693487	 0.0645846895	-0.38816
C	 0.0167185486	 0.0497949595	 0.021692684	-0.212651
C	-1.4224347256	-0.4674298991	-0.0602653532	 0.449181
O	-2.3600129289	 0.2788372122	-0.1390193176	-0.290025
N	-1.6119364573	-1.8846172139	-0.0158106216	-0.232006
C	-2.9721168213	-2.3424216098	 0.0502287842	 0.169911
O	-3.3038115713	-3.4892158532	 0.0148202584	-0.246737
C	-0.5246039302	-2.7910827881	-0.030037901	 0.171622
O	-0.6039781887	-3.9729507409	 0.1339542444	-0.241636
H	 0.853269336	 1.7845044825	 0.0749116043	 0.300736
H	 0.5739264449	-0.3172397175	-0.8562461817	 0.129798
H	 0.4979919509	-0.3814772717	 0.9146248984	 0.129177
H	-3.653804304	-1.4862307734	 0.129572653	 0.153196
H	 0.4345278886	-2.2841957665	-0.2228767612	 0.107595
37.166	61.6577	114.7943	163.4791	207.0407	218.9775	249.584	272.0804	342.0534	388.366	481.4315	529.4677	571.6272	742.5502	894.8646	950.576	1011.3722	1032.8993	1047.4437	1137.28	1201.7187	1246.2969	1264.893	1278.657	1425.3321	1447.147	1473.1399	1506.4124	1804.066	1832.1294	1887.8286	2960.8508	2992.061	3004.9979	3070.07	3836.151
OCC(=O)N(C=O)C=O	OCC(=O)N(C=O)C=O	
InChI=1S/C4H5NO4/c6-1-4(9)5(2-7)3-8/h2-3,6H,1H2	InChI=1S/C4H5NO4/c6-1-4(9)5(2-7)3-8/h2-3,6H,1H2
