23
gdb 106807	2.35851	1.44635	1.07909	1.662	85.53	-0.246	0.0813	0.3272	1241.3755	0.205899	-388.296822	-388.287485	-388.286541	-388.33048	36.035	
C	 0.0365034747	 1.5086029341	-0.2995358881	-0.375988
C	-0.0293846896	 0.0542594334	 0.1882427929	-0.284275
C	-1.4226864211	-0.5305498722	 0.1391691922	 0.306296
C	-2.0056694561	-1.0789922106	-1.1454159204	-0.37429
C	-1.7369653123	-2.0125446719	 0.0126703205	 0.25319
C	-0.7076672889	-3.111295241	-0.0772124882	-0.48829
C	-2.9402878123	-2.2360636797	 0.917034285	-0.132965
O	-3.5186000282	-0.9550910259	 1.1339001349	-0.256043
C	-2.4699225928	 0.0061949494	 1.1068611561	-0.140203
H	 1.062893803	 1.8871302009	-0.2695638806	 0.111085
H	-0.3254142364	 1.5921698718	-1.3295100293	 0.120279
H	-0.5778902006	 2.1685228246	 0.3217863042	 0.119234
H	 0.6454139513	-0.5580982886	-0.4209482956	 0.096105
H	 0.352371142	-0.0020576534	 1.2170036972	 0.095012
H	-3.0351499509	-0.8407500534	-1.3966750776	 0.116451
H	-1.3363181842	-1.1504766852	-1.9975172874	 0.102371
H	 0.1548776433	-2.8091273182	-0.6781144707	 0.119454
H	-0.3408496508	-3.3990327134	 0.9152422278	 0.116159
H	-1.1303510642	-4.0082363611	-0.5452939373	 0.120381
H	-3.7166013785	-2.8750829158	 0.4808592973	 0.104157
H	-2.6118017639	-2.6937720839	 1.866665091	 0.083055
H	-2.0186626939	 0.1344359234	 2.1065983002	 0.083004
H	-2.9166894196	 0.9608410566	 0.8086758059	 0.105822
87.9089	147.3689	189.2249	199.9193	225.9639	250.0807	274.3866	345.0749	355.6797	419.6033	483.6246	545.1683	644.909	702.4003	756.7166	787.9427	894.5212	919.336	935.0049	954.7938	969.9586	990.1718	1025.7792	1046.6373	1057.8305	1073.8105	1084.4656	1118.8495	1142.0682	1195.0072	1226.0627	1245.2896	1257.481	1285.7535	1318.4329	1352.1591	1371.3238	1383.9932	1409.9582	1416.501	1426.318	1478.6415	1490.4588	1491.7615	1498.6472	1503.6668	1506.7823	1511.5246	1522.9695	2946.8184	2953.2009	3013.1062	3023.421	3034.3803	3055.7504	3056.1781	3061.7727	3078.1461	3103.4268	3105.3188	3106.3744	3116.743	3202.7216
CCC12CC1(C)COC2	CC[C@@]12C[C@]1(C)COC2	
InChI=1S/C8H14O/c1-3-8-4-7(8,2)5-9-6-8/h3-6H2,1-2H3	InChI=1S/C8H14O/c1-3-8-4-7(8,2)5-9-6-8/h3-6H2,1-2H3/t7-,8+/m1/s1
