16
gdb 16939	3.62512	2.17157	1.9851	4.4111	62.95	-0.2586	0.0172	0.2758	748.6959	0.13427	-383.798556	-383.79268	-383.791736	-383.828413	23.805	
O	-0.0270651344	 0.0029183714	-0.0181667435	-0.35053
C	 0.0167700688	 1.1973036133	-0.0158325273	 0.446593
O	-1.1053264579	 1.9874587908	 0.016366128	-0.242673
C	-0.6459279872	 3.3667954582	 0.0620950932	 0.104898
C	-0.082141787	 3.6015170796	 1.4754929811	-0.217478
C	 1.2307807754	 2.7569938481	 1.4370954018	-0.226567
C	 1.2066134045	 2.1524736802	-0.0012166461	-0.156821
C	 0.6125577351	 3.3181494324	-0.8159665058	-0.240379
H	-1.4714101068	 4.0047089212	-0.2485835791	 0.091776
H	 0.1145170092	 4.6630771886	 1.6488628583	 0.108054
H	-0.7886214348	 3.2582446243	 2.2336582599	 0.123108
H	 2.1174764021	 3.3851677255	 1.5566817696	 0.110751
H	 1.2648387783	 1.9835313305	 2.207016269	 0.126257
H	 2.1323610816	 1.6887408252	-0.3330235803	 0.094649
H	 0.3939270396	 3.0657624406	-1.856239955	 0.120041
H	 1.2076021735	 4.2339013301	-0.7720218037	 0.10832
158.537	243.8806	407.5823	435.2547	487.7327	581.0242	709.3034	751.4253	810.4599	825.516	854.5928	875.6237	894.4243	944.2285	954.7464	967.5413	983.0924	1040.0579	1051.5391	1091.7985	1158.7557	1176.5857	1198.6311	1216.9995	1253.3896	1286.1161	1307.7365	1328.4897	1342.0362	1361.8219	1483.0963	1491.5809	1511.6466	1894.7847	3062.7612	3067.0938	3072.9197	3109.1057	3123.6633	3127.871	3140.4646	3154.0098
O=C1OC2CCC1C2	O=C1O[C@H]2CC[C@@H]1C2	
InChI=1S/C6H8O2/c7-6-4-1-2-5(3-4)8-6/h4-5H,1-3H2	InChI=1S/C6H8O2/c7-6-4-1-2-5(3-4)8-6/h4-5H,1-3H2/t4-,5+/m1/s1
