17
gdb 41023	3.17354	1.91555	1.44394	1.3564	71.41	-0.2328	0.0646	0.2974	898.1778	0.137383	-421.705858	-421.699627	-421.698683	-421.736214	26.202	
C	 0.1066254009	 1.5453614108	 0.1395312586	-0.228614
O	 1.5191286376	 1.4113942664	-0.2322812863	-0.310588
C	 1.2091093179	 0.1231886523	-0.8612580306	 0.125506
C	 1.8976611992	-1.2391516723	-0.631415097	-0.314414
C	 0.736349901	-1.9199034993	 0.1245038205	-0.042989
C	 0.3023683348	-0.9345518243	 1.217584766	 0.035194
O	-1.0774654109	-1.4395352688	 1.2233455811	-0.316588
C	-0.7312128691	-1.3159588333	-0.1916227564	-0.097939
C	-0.0027876278	 0.0236293359	 0.012499519	 0.33136
H	-0.0225867521	 1.9873662682	 1.1307096266	 0.121155
H	-0.4446159811	 2.1246614346	-0.6118392277	 0.107916
H	 1.0013393614	 0.2965703307	-1.9262095077	 0.076277
H	 2.1909952227	-1.72936869	-1.5630753638	 0.10755
H	 2.7811175166	-1.1702794187	 0.0117730988	 0.124125
H	 0.7763840766	-2.9802221918	 0.3719059077	 0.089155
H	 0.7725600784	-0.7059783883	 2.1744087811	 0.097946
H	-1.4674702361	-1.6297103723	-0.93208123	 0.09495
174.5203	302.3371	309.4325	355.8264	490.7573	583.6354	628.9327	680.0215	708.2877	764.7227	788.481	853.2391	897.9277	912.7196	917.9946	942.4498	953.5135	982.6204	1037.4101	1054.7022	1061.5981	1090.1663	1125.4991	1133.6371	1162.6714	1176.3421	1188.9385	1214.2381	1238.0277	1259.9293	1274.324	1308.1535	1330.5166	1362.8835	1381.0386	1482.18	1513.2399	3003.4215	3024.5012	3055.7508	3101.1721	3105.5402	3114.955	3118.265	3137.7975
C1OC2CC3C4OC3C124	C1O[C@H]2C[C@H]3[C@@H]4O[C@H]3[C@]124	
InChI=1S/C7H8O2/c1-3-5-7(6(3)9-5)2-8-4(1)7/h3-6H,1-2H2	InChI=1S/C7H8O2/c1-3-5-7(6(3)9-5)2-8-4(1)7/h3-6H,1-2H2/t3-,4-,5-,6+,7+/m0/s1
