20
gdb 77592	2.61511	1.42508	1.20052	2.62	79.19	-0.235	0.072	0.307	1125.439	0.170136	-403.086819	-403.078048	-403.077104	-403.119664	34.432	
C	-0.1543859543	 1.5841521765	-0.0460196924	-0.421418
C	 0.0406296289	 0.0749553237	 0.0209539817	-0.141847
C	 1.0583204254	-0.6155613393	-0.9118985356	 0.393687
O	 0.7095228568	-1.1832713899	-2.1251986042	-0.464251
C	 2.4796854256	-0.2809331394	-0.5568893706	-0.352099
C	 1.7286744558	-1.3076760551	 0.2683871759	-0.199313
C	 0.7944642418	-0.5765877104	 1.2086617895	 0.382075
C	 1.048938654	-0.024361661	 2.5569791246	-0.311326
N	 0.1768337564	-1.2081213427	 2.3657815385	-0.379836
H	 0.7971545687	 2.118259086	 0.03873435	 0.11744
H	-0.6224549639	 1.8755223307	-0.9929471043	 0.115138
H	-0.8066290951	 1.9382426228	 0.7605046969	 0.113729
H	-0.9211694205	-0.4383502085	-0.1017883842	 0.086368
H	 0.9048932546	-0.5501655914	-2.8243329893	 0.285889
H	 3.2109880775	-0.7045092397	-1.2384590615	 0.113688
H	 2.7618009963	 0.676980383	-0.1259406707	 0.10611
H	 2.0605038571	-2.3320637061	 0.3774248466	 0.104575
H	 1.987243149	-0.2278324315	 3.0663532184	 0.1172
H	 0.5863910588	 0.9237574014	 2.8213027442	 0.107465
H	-0.8011640728	-0.9342570694	 2.4358850666	 0.226724
105.2259	200.0695	212.3125	224.4784	231.3606	262.4622	295.5327	389.5347	447.3793	477.7111	504.7853	573.8716	687.0678	727.0219	820.5386	854.4163	886.0879	911.6827	930.3607	944.2618	982.2157	986.3392	1024.5581	1040.6886	1074.7881	1079.3418	1111.9746	1121.8061	1132.0993	1189.3756	1215.6507	1235.8021	1262.4807	1302.6091	1307.1853	1358.0839	1399.7434	1409.8886	1428.7919	1491.1941	1496.0835	1497.9242	1518.064	3027.2261	3033.987	3087.3992	3100.9621	3102.5638	3106.6662	3185.5118	3197.2761	3205.8248	3482.8479	3797.931
CC1C2(O)CC2C11CN1	C[C@H]1[C@@]2(O)C[C@H]2[C@]21CN2	
InChI=1S/C7H11NO/c1-4-6(3-8-6)5-2-7(4,5)9/h4-5,8-9H,2-3H2,1H3	InChI=1S/C7H11NO/c1-4-6(3-8-6)5-2-7(4,5)9/h4-5,8-9H,2-3H2,1H3/t4-,5+,6-,7+/m1/s1
