15
gdb 129670	3.19034	1.30185	0.99093	3.8218	70.23	-0.2196	-0.0244	0.1952	1147.2063	0.113242	-450.076277	-450.068247	-450.067303	-450.110158	29.449	
N	 0.1244069831	 1.4029628432	 0.2733602412	-0.591728
C	-0.0126863475	 0.0542581441	 0.1105464802	 0.360245
C	-1.1003187944	-0.7348686432	-0.2045429395	 0.213579
N	-0.6138253581	-2.0111198229	-0.2888573674	-0.173781
N	 0.615145184	-2.0833013501	-0.0714364972	-0.039641
O	 1.0695329523	-0.6995679954	 0.2010233323	-0.22183
C	-2.5161727207	-0.3829754213	-0.3987043357	-0.117172
C	-3.424313936	-1.2734971768	-1.1679081084	-0.236012
N	-3.584450794	-1.1430813338	 0.2890012306	-0.3226
H	 0.9529723657	 1.6957990749	 0.7692811948	 0.276363
H	-0.7102913977	 1.8996703213	 0.5446719754	 0.274472
H	-2.7063265712	 0.6880623347	-0.4305680299	 0.079487
H	-4.2279182257	-0.8435815406	-1.7591777938	 0.120438
H	-2.994247935	-2.1885868568	-1.5639152739	 0.136487
H	-3.1626584747	-1.9512583374	 0.7433327114	 0.241694
19.9733	150.2518	167.8655	275.9192	289.4715	318.7565	432.3318	463.5753	528.483	598.4454	638.5924	673.5615	749.1236	767.1477	817.9445	885.076	965.8943	986.5606	1007.8267	1076.0084	1110.9143	1136.0721	1175.837	1198.076	1270.9792	1302.1266	1317.1371	1420.6551	1474.1119	1491.5677	1507.3274	1621.7175	1670.2895	3113.5302	3122.2969	3206.0608	3488.0411	3580.7112	3687.0589
NC1=C(N=NO1)C1CN1	Nc1c(nno1)[C@H]1CN1	
InChI=1S/C4H6N4O/c5-4-3(2-1-6-2)7-8-9-4/h2,6H,1,5H2	InChI=1S/C4H6N4O/c5-4-3(2-1-6-2)7-8-9-4/h2,6H,1,5H2/t2-/m1/s1
