22
gdb 112847	3.09409	1.17798	0.97336	1.8183	82.05	-0.2289	0.082	0.3109	1306.191	0.19461	-404.323683	-404.314648	-404.313704	-404.357397	34.494	
C	-0.1876360543	 1.3079278151	 0.0378732926	-0.235627
O	 0.1782358084	-0.0472138861	-0.0863008619	-0.246272
C	 0.7725741451	-0.5873049246	 1.0769618678	 0.137608
C	-0.2105242891	-0.8681120537	 2.2402073433	-0.290255
C	 0.3640054685	-2.1315662708	 2.9192291763	 0.062601
C	-0.6626868669	-3.0159422293	 3.616356735	-0.3922
N	 1.1338331922	-2.8777998823	 1.8910609152	-0.104983
C	 0.4130983271	-3.0783216021	 0.6250053388	-0.247301
C	 1.3684580379	-1.9522456197	 0.7704273157	-0.049238
H	 0.6748269019	 1.9392172151	 0.30559957	 0.102891
H	-0.5709548258	 1.6301012595	-0.9334599191	 0.127029
H	-0.972474243	 1.4614252971	 0.7935845863	 0.1057
H	 1.5763408081	 0.0871548213	 1.4176375022	 0.063921
H	-0.2993007054	-0.0337009251	 2.9398951907	 0.101187
H	-1.2069348302	-1.0524033143	 1.8241277324	 0.109626
H	 1.1128096119	-1.8196787877	 3.6587827388	 0.081153
H	-1.4289275966	-3.3604557582	 2.913568505	 0.11473
H	-0.1795728012	-3.8956078484	 4.0510308939	 0.126383
H	-1.1649295988	-2.4666183951	 4.4189247507	 0.113464
H	 0.7116701999	-3.966410114	 0.0765734974	 0.115054
H	-0.646730701	-2.848625472	 0.5642747319	 0.116344
H	 2.3421978813	-1.9894036045	 0.2915680969	 0.088184
86.2248	108.9522	168.2721	195.861	233.8866	242.9257	324.7431	377.3589	437.2271	469.0209	526.276	609.5264	649.7822	737.8491	840.931	870.595	883.4851	936.05	943.8228	995.8047	1016.1328	1025.6626	1072.9399	1100.0303	1120.8016	1133.2925	1144.9646	1151.8119	1172.5223	1184.1037	1206.2092	1227.3159	1260.2797	1278.6697	1339.4827	1351.0766	1375.6734	1385.1163	1396.4289	1408.7107	1479.6155	1485.2623	1489.3036	1492.0367	1497.774	1509.8238	1520.7007	2955.9116	2972.9709	3016.252	3020.6007	3035.6292	3052.4409	3101.1722	3105.9178	3112.5534	3115.1085	3117.9585	3152.9974	3200.0022
COC1CC(C)N2CC12	CO[C@H]1C[C@@H](C)N2C[C@@H]12	
InChI=1S/C7H13NO/c1-5-3-7(9-2)6-4-8(5)6/h5-7H,3-4H2,1-2H3	InChI=1S/C7H13NO/c1-5-3-7(9-2)6-4-8(5)6/h5-7H,3-4H2,1-2H3/t5-,6+,7+,8?/m1/s1
