18
gdb 15893	2.65332	1.99322	1.2636	2.9064	69.88	-0.2299	0.0258	0.2557	995.7073	0.153791	-381.110633	-381.102146	-381.101202	-381.143656	30.793	
C	-0.063397017	 1.4782205411	 0.3339090224	-0.325934
N	-0.0915885694	 0.1518971421	-0.2848350531	-0.28903
C	-1.3851753401	-0.4930107303	-0.181106207	-0.136317
C	-1.4483712957	-1.9914976602	-0.5956969191	 0.119022
C	-0.1844321733	-2.6824315224	-1.053469768	-0.408624
O	-1.7960118848	-2.3482629653	 0.7904842679	-0.265917
C	-1.7197699968	-1.0383282952	 1.1987954215	 0.466307
N	-1.8812881302	-0.5241793113	 2.3319974855	-0.550206
H	 0.9350625582	 1.9075620352	 0.2140002211	 0.116175
H	-0.7999823771	 2.181932036	-0.0920822255	 0.094188
H	-0.2755368127	 1.3787732099	 1.4008178142	 0.167134
H	 0.1533801494	 0.234132345	-1.2670019011	 0.219827
H	-2.2178544989	 0.1006078293	-0.5967576861	 0.080482
H	-2.2969291244	-2.2298788406	-1.2442344644	 0.091055
H	 0.6624607802	-2.3944811949	-0.428414251	 0.147861
H	-0.316527687	-3.7674736092	-1.0089682929	 0.131152
H	 0.0399609637	-2.4137803023	-2.0917878618	 0.116612
H	-2.088240164	-1.2361536369	 3.0353513574	 0.226212
84.0899	116.038	168.7707	206.0414	214.5334	262.0487	338.185	376.5473	456.612	519.193	663.3965	731.947	786.8705	852.43	870.8111	885.8261	911.5727	1011.9587	1031.5412	1064.6782	1075.2167	1129.8588	1151.9277	1180.6203	1201.6161	1244.4966	1273.2243	1338.7278	1368.4379	1383.6471	1411.898	1457.2359	1476.8874	1484.767	1491.8478	1496.4445	1521.428	1820.38	2945.8527	2953.3434	3041.2139	3064.1118	3081.5516	3107.0339	3133.8165	3145.8699	3467.6118	3504.4285
CNC1C(C)OC1=N	CN[C@H]1[C@@H](C)O[C]1[NH]	
InChI=1S/C5H10N2O/c1-3-4(7-2)5(6)8-3/h3-4,6-7H,1-2H3	InChI=1S/C5H10N2O/c1-3-4(7-2)5(6)8-3/h3-4,6-7H,1-2H3/t3-,4+/m1/s1
