15
gdb 128154	2.97897	1.2571	0.89018	3.0902	75.53	-0.2233	-0.0641	0.1592	1235.7587	0.113542	-450.132996	-450.124526	-450.123582	-450.166601	29.637	
C	-0.1060853291	 1.5088154345	 0.0620435586	-0.323863
N	-0.0176955796	 0.0677010557	-0.1234586339	-0.386847
C	-1.1319340087	-0.710669626	-0.0440729143	 0.327154
C	-1.2565188307	-2.1050390767	 0.003402434	 0.171749
N	-2.6164583511	-2.2794662467	 0.0247855003	-0.214885
N	-3.2683197502	-1.1344789368	-0.0053551436	-0.089593
N	-2.3823013193	-0.1641682743	-0.0439165273	-0.274626
C	-0.3427015133	-3.2167193987	 0.026105008	 0.064259
O	-0.6967196788	-4.3813960726	 0.0694007382	-0.312426
H	 0.8646133869	 1.9490931453	-0.1745482061	 0.127295
H	-0.8550866404	 1.918318731	-0.6179246328	 0.164949
H	-0.3885195621	 1.7901471441	 1.0852435005	 0.131084
H	 0.8486202485	-0.3656605922	 0.1498665837	 0.25184
H	-3.1047974719	-3.1619379374	 0.0600793967	 0.298403
H	 0.7334150599	-2.9411560792	-0.0001970217	 0.065506
86.6692	125.9942	142.3895	175.039	229.0054	239.1785	353.0891	372.8974	435.5575	595.6954	600.0238	709.1898	712.9951	761.0554	824.3089	1006.8401	1017.3649	1081.4203	1132.8166	1148.4879	1158.3523	1219.7932	1243.9014	1334.3833	1380.7874	1430.8148	1454.0236	1471.8632	1484.6246	1515.8641	1547.989	1647.4783	1751.9245	2893.5218	3017.221	3103.3779	3145.686	3643.0708	3644.6822
CNC1=C(NN=N1)C=O	CNc1c([nH]nn1)C=O	
InChI=1S/C4H6N4O/c1-5-4-3(2-9)6-8-7-4/h2H,1H3,(H2,5,6,7,8)	InChI=1S/C4H6N4O/c1-5-4-3(2-9)6-8-7-4/h2H,1H3,(H2,5,6,7,8)
