17
gdb 79795	3.74159	1.70885	1.5828	1.9624	69.47	-0.2377	0.0694	0.3072	871.7868	0.138486	-421.761034	-421.754899	-421.753955	-421.791291	26.041	
O	 0.0215132543	 1.4773971174	-0.0526503605	-0.44239
C	 0.0242459461	 0.0693957901	 0.0141832112	 0.134182
C	 0.134815526	-0.6232781729	 1.3982601731	-0.123725
C	-0.9649845724	 0.0251889662	 2.2650653985	 0.100568
O	-1.4842204916	-1.0497969149	 3.0959156768	-0.30004
C	-2.0251176375	-1.563066732	 1.8708065798	 0.084726
C	-2.1246818661	-0.1595402092	 1.2200717667	-0.080496
C	-1.3525245285	-0.5928706551	-0.0586402656	-0.0974
C	-0.8328862042	-1.7518083609	 0.865102872	-0.082714
H	 0.9286110179	 1.7906928928	 0.0202282658	 0.283302
H	 0.717398167	-0.3721283163	-0.7159483084	 0.070574
H	 1.0891037445	-0.8393330894	 1.8771739484	 0.067057
H	-0.7620762282	 0.9457967473	 2.8072574713	 0.084474
H	-2.8036557354	-2.3162801765	 1.9840903213	 0.080749
H	-2.9958505253	 0.4895690439	 1.2444102078	 0.079469
H	-1.8999427497	-0.7347901156	-0.9882736239	 0.069595
H	-0.4384465367	-2.7042339148	 0.5218415056	 0.072067
179.0711	256.4809	276.6686	494.0211	544.6704	571.3192	707.2152	741.8523	789.2144	804.4851	822.2729	842.2056	857.3773	873.6511	899.3614	932.8327	952.4858	972.8504	984.4747	993.8598	1047.0571	1088.8961	1107.0362	1123.8194	1134.6894	1154.302	1171.0668	1181.3035	1214.1103	1228.3085	1242.4325	1254.523	1282.1131	1305.9134	1321.4706	1339.1692	1426.3429	3003.6485	3122.023	3128.2015	3134.2435	3147.0379	3154.9744	3160.6807	3818.3925
OC1C2C3OC4C3C1C24	O[C@H]1[C@H]2[C@@H]3O[C@H]4[C@@H]3[C@@H]1[C@@H]24	
InChI=1S/C7H8O2/c8-5-1-2-3(5)7-4(1)6(2)9-7/h1-8H	InChI=1S/C7H8O2/c8-5-1-2-3(5)7-4(1)6(2)9-7/h1-8H/t1-,2-,3-,4-,5+,6+,7-/m0/s1
