19
gdb 116870	4.00424	0.55121	0.50837	3.1429	86.6	-0.267	0.0072	0.2742	2186.5714	0.157973	-382.050646	-382.03988	-382.038935	-382.088824	36.913	
C	-0.1649146884	 1.598952532	-0.1077469194	-0.382665
C	-0.2064098191	 0.0709763397	-0.165221706	-0.158052
C	 0.9861647287	-0.5145454685	-0.9499180145	-0.339019
C	 0.9710535973	-1.9706176454	-1.0178434872	 0.04308
C	 0.9317463817	-3.1724081419	-1.0595941627	 0.172092
C	 0.9056786457	-4.634176699	-1.1158234131	-0.295852
N	 0.8542760001	-5.1103389979	-2.504741133	-0.485823
C	 2.0494162114	-5.1950741115	-0.3473327173	 0.270887
N	 2.9392883203	-5.6798148928	 0.2088945067	-0.325233
H	 0.7506585172	 1.9536086902	 0.3784895074	 0.118879
H	-0.1976048851	 2.0360276622	-1.1119160675	 0.117938
H	-1.0152863999	 1.9946504899	 0.4551530469	 0.118423
H	-0.2014071601	-0.3456162472	 0.8480041825	 0.113251
H	-1.1376302185	-0.2653664789	-0.6340828901	 0.112593
H	 0.9889400203	-0.1055897553	-1.9690598778	 0.13316
H	 1.9256651192	-0.1829454143	-0.4883634205	 0.135037
H	-0.0068038757	-4.9922519469	-0.6194357968	 0.158711
H	 1.6805533213	-4.7867531692	-2.999742119	 0.247354
H	 0.8822736636	-6.1265411553	-2.5135992286	 0.245237
14.1259	63.2272	76.6015	108.0017	165.7794	216.1224	239.5531	258.7805	307.2479	321.3124	361.5445	479.9397	501.7529	570.9213	606.6097	743.3282	784.989	849.8769	872.2424	894.169	950.7751	1038.5324	1065.9448	1108.0942	1122.4118	1175.4783	1196.2003	1259.0489	1304.8749	1319.8033	1322.9967	1380.6253	1392.0977	1414.2681	1470.5883	1492.0728	1498.9222	1508.8705	1654.9482	2347.1748	2375.9122	3015.9545	3018.0057	3031.4966	3044.1883	3044.6173	3076.7467	3102.7659	3108.6474	3489.3211	3574.7245
CCCC#CC(N)C#N	CCCC#C[C@@H](N)C#N	
InChI=1S/C7H10N2/c1-2-3-4-5-7(9)6-8/h7H,2-3,9H2,1H3	InChI=1S/C7H10N2/c1-2-3-4-5-7(9)6-8/h7H,2-3,9H2,1H3/t7-/m1/s1
