19
gdb 92525	2.89214	1.466	1.10809	2.9209	74.52	-0.2486	-0.028	0.2205	1114.2688	0.160519	-423.043839	-423.03595	-423.035006	-423.076473	30.82	
O	 0.4203337109	 1.11880203	 0.6896244708	-0.443141
C	 0.0840071936	-0.1260832106	 0.1507991171	 0.071765
C	-1.4194500848	-0.4283154733	 0.0361377645	-0.271091
C	-1.494062798	-1.5839141728	-0.9962767652	-0.018302
C	-2.4656206386	-1.3777683329	-2.1915391759	-0.228665
C	-1.28460332	-0.8551635949	-3.0596239079	-0.227365
C	-0.2858438537	-1.3423084232	-1.9573951826	-0.120206
C	 0.5625278087	-0.2798476396	-1.2938671844	 0.353229
O	 1.4063643374	 0.4341846482	-1.7819591696	-0.338817
H	 1.0880128799	 1.4865902352	 0.0894257922	 0.290107
H	 0.5593190294	-0.9461995412	 0.7244999368	 0.08892
H	-1.873028271	-0.6831955262	 0.995966366	 0.113683
H	-1.9238742215	 0.4698473648	-0.3391627845	 0.112205
H	-1.5444774809	-2.5566005269	-0.5027201913	 0.074237
H	-2.8696179064	-2.3206229882	-2.568520706	 0.106077
H	-3.2985206719	-0.689646887	-2.0250670681	 0.104436
H	-1.1605260198	-1.3201163427	-4.0387800845	 0.113889
H	-1.271433927	 0.2287702126	-3.1954065013	 0.118778
H	 0.3060208139	-2.2107553812	-2.2540714562	 0.100262
72.4683	118.0073	206.4784	284.1687	319.5246	394.2176	419.4175	478.2413	547.12	600.4032	655.4022	731.4476	780.9674	796.269	856.3656	898.569	939.4797	950.7839	971.3324	987.6516	1028.3585	1055.7574	1104.3788	1123.2223	1156.9547	1171.0987	1214.1364	1218.8408	1241.8189	1257.2264	1264.2623	1278.1125	1290.9407	1296.5617	1338.5175	1374.389	1421.4585	1483.4638	1494.3562	1504.1615	1828.0935	2912.8427	3045.4863	3059.2509	3073.6816	3077.5821	3090.9896	3106.0172	3112.8557	3130.4233	3695.9853
OC1CC2CCC2C1=O	O[C@H]1C[C@H]2CC[C@H]2C1=O	
InChI=1S/C7H10O2/c8-6-3-4-1-2-5(4)7(6)9/h4-6,8H,1-3H2	InChI=1S/C7H10O2/c8-6-3-4-1-2-5(4)7(6)9/h4-6,8H,1-3H2/t4-,5-,6+/m1/s1
