19
gdb 26463	3.35354	1.358	1.23267	4.4183	81.78	-0.2116	0.0458	0.2574	1096.0841	0.160533	-382.08683	-382.078687	-382.077743	-382.119368	31.48	
C	-0.2933154468	 1.6241673163	-0.2739871552	-0.427484
C	-0.0482040288	 0.1329917621	-0.0834578769	 0.310862
C	-1.2971664369	-0.6176225204	 0.3600215492	-0.427465
C	 0.7819690521	-0.5661259256	-1.2410022045	-0.443874
C	 1.8674357657	-0.7568554505	-0.1957725298	 0.296036
C	 3.0594902633	-1.1301691241	 0.3736366335	-0.227229
N	 3.0436250072	-0.7481585141	 1.7010680455	-0.266227
C	 1.8810226212	-0.1611239032	 1.9328220477	-0.042447
N	 1.1428384094	-0.153779566	 0.7885280376	-0.017273
H	 0.6245532411	 2.1371516791	-0.5728966769	 0.133703
H	-1.0499041783	 1.7852193939	-1.048715469	 0.126252
H	-0.6572430267	 2.08090643	 0.6521764255	 0.126094
H	-2.0828631697	-0.5208307351	-0.3962054595	 0.126251
H	-1.0847643935	-1.6799292105	 0.5062176361	 0.133711
H	-1.6830780721	-0.2108769365	 1.3004808994	 0.126101
H	 0.325275462	-1.4793178498	-1.6317219092	 0.120945
H	 1.0299994429	 0.0939100658	-2.0764585143	 0.120939
H	 3.91237955	-1.6331391274	-0.0532956875	 0.104293
H	 1.5575313882	 0.2504841561	 2.8755935583	 0.126812
74.7686	165.8755	224.4819	236.7842	295.3341	320.1789	335.1175	428.916	514.3968	611.0382	662.7439	675.3214	707.0354	779.8814	824.3158	836.7711	912.7553	949.6851	956.0346	984.9251	1022.3351	1059.0548	1088.0179	1119.8835	1170.7791	1208.6391	1219.0114	1253.3567	1269.8317	1279.9197	1368.6996	1384.1164	1403.5042	1420.627	1463.1173	1478.409	1483.5224	1490.5315	1496.4762	1507.1165	1566.2915	3034.9433	3039.6117	3058.8569	3102.6876	3106.383	3109.6394	3119.9897	3121.7455	3259.1126	3263.4855
CC1(C)CC2=CN=CN12	CC1(C)Cc2cncn12	
InChI=1S/C7H10N2/c1-7(2)3-6-4-8-5-9(6)7/h4-5H,3H2,1-2H3	InChI=1S/C7H10N2/c1-7(2)3-6-4-8-5-9(6)7/h4-5H,3H2,1-2H3
