22
gdb 115625	2.5269	1.16156	0.96011	1.8335	83.01	-0.2388	0.0651	0.3038	1361.8193	0.193038	-404.312077	-404.302305	-404.30136	-404.346974	36.008	
C	 0.3267306569	 1.5508095434	 0.2567360052	-0.386368
C	 0.0471599427	 0.0541174105	 0.0946466153	-0.176495
C	 0.4702969951	-0.4642741096	-1.2683312512	 0.078441
O	 1.9068559913	-0.3540859328	-1.492490242	-0.299465
C	 2.0618559949	-1.7783081207	-1.6466316628	-0.149686
C	 0.5624533897	-1.9803264023	-1.460335228	 0.262617
N	-0.1273361123	-2.9673918595	-0.6409540188	-0.376106
C	-0.3480662263	-2.9474292843	-2.1055692678	-0.06921
C	-1.7329208196	-2.5791334863	-2.5782533392	-0.397089
H	 1.389755047	 1.7593008451	 0.1055322527	 0.134949
H	-0.2376937565	 2.1421401912	-0.4731936662	 0.110523
H	 0.048331306	 1.8990443971	 1.2557748895	 0.110241
H	 0.5724495294	-0.5189046284	 0.8672601642	 0.098368
H	-1.0210991988	-0.1585178506	 0.2252437325	 0.104213
H	-0.0750344463	 0.0612041448	-2.0663141113	 0.071389
H	 2.4707438056	-2.0481875497	-2.6293597378	 0.102703
H	 2.6994010581	-2.2135962555	-0.8635719528	 0.099384
H	 0.5055859306	-3.7194398097	-0.3776779106	 0.229093
H	 0.1387585278	-3.734578202	-2.6822290798	 0.082756
H	-2.1579452153	-1.7914792716	-1.9503570116	 0.128146
H	-1.7098702747	-2.2227897334	-3.6138779682	 0.118626
H	-2.4034703554	-3.4436553957	-2.5323315716	 0.122968
71.9504	89.5093	136.9625	159.44	192.7509	224.1693	225.7765	289.3357	413.9832	443.5949	457.7761	512.6124	592.903	759.2293	790.2337	856.4638	861.3272	903.7582	942.5066	962.3392	996.6583	1013.6525	1027.3534	1052.9866	1086.5959	1106.3028	1107.6351	1130.0176	1148.8674	1165.8441	1232.344	1261.1163	1275.2782	1284.4473	1316.8248	1340.7712	1372.7342	1403.2967	1408.2948	1414.5536	1470.1889	1479.0276	1492.1142	1497.8401	1509.8282	1512.8652	1520.0052	2988.832	2996.1615	3033.8195	3034.2091	3034.7823	3035.0092	3070.8355	3096.5882	3098.3122	3101.8467	3117.442	3122.0792	3489.8619
CCC1OCC11NC1C	CC[C@H]1OC[C@]21N[C@H]2C	
InChI=1S/C7H13NO/c1-3-6-7(4-9-6)5(2)8-7/h5-6,8H,3-4H2,1-2H3	InChI=1S/C7H13NO/c1-3-6-7(4-9-6)5(2)8-7/h5-6,8H,3-4H2,1-2H3/t5-,6+,7-/m0/s1
