19
gdb 102902	2.11155	0.9135	0.66729	1.9384	83.9	-0.2541	0.0451	0.2992	1652.0065	0.155403	-385.818214	-385.807516	-385.806572	-385.854511	38.259	
O	 0.0297904415	 1.5573165647	-0.1281068282	-0.418258
C	 0.0331809258	 0.1472003541	 0.0169768864	-0.096158
C	-1.4333429308	-0.3136704855	 0.0880165354	-0.15679
C	-2.1888543441	 0.0151806433	-1.2180939334	-0.177471
C	-3.7000338784	-0.2661765735	-1.1214882589	-0.364425
C	-4.4085982046	 0.0454115842	-2.3563872403	 0.293047
C	-4.9692345927	 0.3083201579	-3.386731837	-0.438358
C	-1.4935527793	-1.7363361641	 0.4151671303	 0.320178
C	-1.5258075253	-2.9123369924	 0.6641040346	-0.471912
H	 0.9361961724	 1.851794293	-0.2534685241	 0.292349
H	 0.5273866202	-0.3494805177	-0.8319044127	 0.098942
H	 0.5524305667	-0.162667098	 0.9351856606	 0.100918
H	-1.898341035	 0.2549398682	 0.9062202966	 0.114584
H	-2.0213809222	 1.0695347609	-1.4493600045	 0.132008
H	-1.7629738251	-0.5726173816	-2.0385312841	 0.111938
H	-3.8579836809	-1.3199811451	-0.861174406	 0.14221
H	-4.1284430562	 0.3200240121	-0.297391515	 0.127978
H	-5.4759796797	 0.5372632548	-4.2909646595	 0.191518
H	-1.5624289323	-3.9484662853	 0.8940037999	 0.197703
59.4947	92.3917	101.6006	131.3358	143.7824	211.5853	221.7313	271.1712	315.9918	351.3462	448.9955	491.2951	526.9436	567.2417	612.6094	631.4869	634.5232	649.9157	769.5214	855.8316	942.8326	953.7489	1023.9178	1053.2777	1070.2646	1089.2737	1123.7493	1189.0421	1225.9286	1255.9258	1294.4534	1305.4765	1334.2127	1357.8022	1378.6867	1450.5984	1475.2098	1496.8467	1521.389	2233.5597	2239.142	2983.2441	3005.6237	3017.9855	3024.9709	3052.7876	3057.3052	3117.6632	3503.3542	3507.9962	3839.1089
OCC(CCC#C)C#C	OC[C@@H](CCC#C)C#C	
InChI=1S/C8H10O/c1-3-5-6-8(4-2)7-9/h1-2,8-9H,5-7H2	InChI=1S/C8H10O/c1-3-5-6-8(4-2)7-9/h1-2,8-9H,5-7H2/t8-/m1/s1
