18
gdb 76097	2.47266	1.25342	1.02441	3.9541	77.84	-0.2442	0.0095	0.2537	1219.779	0.147604	-398.074132	-398.065167	-398.064223	-398.108348	32.403	
C	-0.1842862877	 1.5285659054	-0.0826270166	-0.325371
N	 0.040100897	 0.0926713336	 0.0680917796	-0.100829
C	 1.3483506853	-0.4820877484	-0.2712503535	-0.190388
C	 2.4416895172	 0.3680571868	-0.6746113284	 0.304323
N	 3.3040599682	 1.057070953	-1.0217243749	-0.343207
C	 0.8563268219	-0.417295797	 1.1565042156	-0.030847
C	 1.5154447991	 0.4472307801	 2.1848283285	 0.000057
C	 0.9235031573	 0.4998418644	 3.5487579998	-0.249141
N	 2.1991344093	-0.192937319	 3.3206599122	-0.313685
H	 0.703292753	 2.1549375734	 0.070613997	 0.134511
H	-0.5604382827	 1.7124262793	-1.0925867081	 0.139292
H	-0.9553377214	 1.8293333622	 0.6316446048	 0.135634
H	 1.3086674361	-1.424652563	-0.8115509335	 0.137079
H	 0.4784615318	-1.3555858925	 1.5680961295	 0.099898
H	 2.0392732035	 1.3212644653	 1.811016334	 0.122495
H	 0.9937557312	 1.411933173	 4.1339536028	 0.12923
H	 0.0305484749	-0.0921666068	 3.7352879268	 0.117084
H	 2.052805886	-1.2001474099	 3.2972504744	 0.233865
62.1806	106.8683	135.0991	166.6857	197.628	261.2569	325.3813	367.101	393.1561	528.3161	614.3102	622.9732	714.9116	809.3823	850.3095	875.3813	900.2204	952.8461	974.3236	1030.9278	1074.6123	1076.4335	1129.0918	1139.4141	1155.3173	1166.8189	1172.0773	1235.8256	1251.1435	1296.3119	1322.2936	1341.4721	1361.5322	1450.5533	1461.1077	1489.3058	1504.6451	1511.3141	2347.0232	3021.2069	3082.1516	3094.8183	3107.9657	3122.6236	3139.7637	3162.7048	3195.9627	3487.811
CN1C(C#N)C1C1CN1	CN1[C@@H](C#N)[C@H]1[C@H]1CN1	
InChI=1S/C6H9N3/c1-9-5(2-7)6(9)4-3-8-4/h4-6,8H,3H2,1H3	InChI=1S/C6H9N3/c1-9-5(2-7)6(9)4-3-8-4/h4-6,8H,3H2,1H3/t4-,5+,6-,9?/m1/s1
