17
gdb 58373	2.36031	1.12349	0.81003	7.2936	73.32	-0.301	0.0147	0.3157	1374.957	0.133862	-418.031545	-418.02147	-418.020526	-418.067206	34.984	
C	 0.0608259468	 1.5673291452	-0.0032566695	-0.419088
C	 0.0171578571	 0.0389832941	 0.0299730242	 0.114245
O	 0.5638480734	-0.4594870934	 1.2393356956	-0.422497
C	-1.4203005612	-0.5371276921	-0.0017110345	-0.147102
C	-2.2418695611	-0.0454816721	-1.2216794307	-0.368281
C	-3.6275284562	-0.5076382161	-1.1965464523	 0.276991
N	-4.7293469102	-0.8523571315	-1.1687030011	-0.289006
C	-1.3636633609	-2.0028959284	 0.0131360158	 0.305936
N	-1.3208449605	-3.1564818154	-0.0198954698	-0.315901
H	 1.0906876478	 1.9029464013	 0.1550166015	 0.123957
H	-0.2652999489	 1.9755958761	-0.9643404792	 0.126201
H	-0.5567648201	 1.9911647575	 0.7949195273	 0.136699
H	 0.5629140199	-0.3634536422	-0.8378446023	 0.093186
H	 1.5135008439	-0.3053930293	 1.235856468	 0.294793
H	-1.9189090042	-0.209345526	 0.9178458632	 0.154869
H	-2.2506943108	 1.0476586816	-1.2358185621	 0.165092
H	-1.7707884646	-0.3820708492	-2.1514861641	 0.169907
60.7297	66.0491	120.2955	151.2819	204.0687	213.9297	255.5174	268.4469	371.5241	386.2612	391.9787	461.331	495.0006	547.46	621.977	816.3567	881.2824	935.6349	949.3678	1031.287	1050.9547	1083.8493	1112.5949	1138.3242	1204.7167	1242.0431	1300.1774	1338.6458	1350.5679	1379.7686	1412.7958	1418.0619	1467.1055	1492.9529	1498.0975	2366.8474	2370.5822	2982.5764	3037.4055	3053.1793	3062.6993	3104.6872	3110.0944	3118.6846	3831.3013
CC(O)C(CC#N)C#N	C[C@@H](O)[C@@H](CC#N)C#N	
InChI=1S/C6H8N2O/c1-5(9)6(4-8)2-3-7/h5-6,9H,2H2,1H3	InChI=1S/C6H8N2O/c1-5(9)6(4-8)2-3-7/h5-6,9H,2H2,1H3/t5-,6+/m1/s1
