20
gdb 22995	2.18962	1.30296	0.99977	1.2473	78.9	-0.2494	0.0002	0.2496	1273.2218	0.169107	-440.235874	-440.226175	-440.225231	-440.270592	36.165	
C	 0.069846081	 1.5728647131	 0.0695025863	-0.413455
C	 0.022255878	 0.0433261427	 0.0509051892	 0.113001
O	 0.7883472344	-0.5168717863	 1.1110922979	-0.438256
C	-1.4129665039	-0.498923814	 0.0650147826	-0.073699
C	-1.6212771693	-2.0501951	 0.017609221	-0.251693
C	-2.6166327164	-1.9548887319	 1.2169348659	-0.315065
C	-2.1460774179	-0.5287894531	 1.3980174195	 0.400054
N	-2.1316245755	 0.3134500185	 2.3461489924	-0.250365
O	-2.8426403143	-0.1669153271	 3.4638291482	-0.390144
H	 1.108776591	 1.9136746863	 0.0772649974	 0.119959
H	-0.4278650581	 1.9941592008	-0.8105540924	 0.109506
H	-0.4340009461	 1.9599550594	 0.9611293074	 0.137087
H	 0.5070591407	-0.3222671675	-0.8634169849	 0.08833
H	 0.3951058671	-0.1997908095	 1.9337865276	 0.28431
H	-2.0077162452	 0.0077085819	-0.7046840523	 0.089348
H	-2.0148563042	-2.4592100609	-0.913957885	 0.101375
H	-0.7025284214	-2.5718999696	 0.291198537	 0.129202
H	-3.6689603526	-2.0179826877	 0.9215821461	 0.124568
H	-2.4571935394	-2.6199522658	 2.0687857189	 0.129989
H	-2.7571255379	 0.5616632909	 4.0880542472	 0.305949
58.2235	100.5102	121.0552	192.8678	238.0901	255.9929	297.9661	335.6158	376.119	421.8935	458.5081	489.0935	522.3441	648.765	682.1249	764.1712	783.358	890.6179	918.3743	932.9138	979.1208	1003.6911	1018.2602	1037.2575	1074.1083	1106.1542	1150.1587	1169.9983	1207.1893	1233.3941	1248.5559	1265.0091	1295.0811	1343.5069	1352.2414	1401.2904	1403.3788	1431.5341	1458.909	1485.2656	1491.7687	1503.5675	1770.3547	3028.6194	3033.4991	3038.9542	3056.5287	3080.5312	3106.647	3108.9536	3120.1534	3141.7848	3777.512	3817.7958
CC(O)C1CCC1=NO	C[C@@H](O)[C@H]1CCC1=NO	
InChI=1S/C6H11NO2/c1-4(8)5-2-3-6(5)7-9/h4-5,8-9H,2-3H2,1H3	InChI=1S/C6H11NO2/c1-4(8)5-2-3-6(5)7-9/h4-5,8-9H,2-3H2,1H3/t4-,5-/m1/s1
