19
gdb 52251	4.36422	0.86168	0.85667	3.1345	76.47	-0.2294	0.0341	0.2635	1401.4251	0.160496	-419.182908	-419.174248	-419.173303	-419.217517	31.767	
O	 0.3312709747	 1.4014937596	-1.2752221282	-0.330555
C	 0.1863386077	 1.5553758	-0.0791177676	 0.150663
N	 1.1134732287	 1.2412805373	 0.8595959171	-0.264336
C	 2.4190032404	 0.6893257778	 0.5153575793	-0.187934
C	 3.3988429838	 1.7435859272	 0.0074903365	 0.026621
C	 3.8813087212	 2.8723787396	 0.9952286488	-0.244717
C	 5.3176201383	 2.387106794	 0.7808645235	-0.033415
N	 5.3433329446	 0.9722767203	 1.2269761458	-0.336853
C	 4.8657179926	 1.3094019305	-0.1394728494	-0.073116
H	-0.7396523697	 1.9675165217	 0.370928733	 0.071017
H	 0.9064758926	 1.4460684971	 1.8233014084	 0.249284
H	 2.8318572378	 0.2026679905	 1.4014982066	 0.12537
H	 2.2673868666	-0.0703962332	-0.2582976845	 0.128409
H	 3.0167232735	 2.1787767723	-0.9180372432	 0.104033
H	 3.6935560662	 3.8741162231	 0.6042476184	 0.10723
H	 3.5235207178	 2.809689138	 2.0270620451	 0.093141
H	 6.2257627832	 2.9769563529	 0.7671300046	 0.093501
H	 6.303888822	 0.643985332	 1.1309030985	 0.228698
H	 5.346771248	 0.8844958294	-1.0120977927	 0.09296
37.1413	68.0805	138.3102	163.4323	250.8762	288.4298	391.3333	445.3771	508.7956	538.5241	681.7915	755.9054	800.9868	820.8899	852.8602	882.3841	937.7684	960.5839	972.7759	992.5584	1021.1754	1032.7552	1068.2219	1094.8523	1118.6714	1134.4925	1170.6412	1209.0082	1228.7791	1257.8694	1272.1616	1310.6314	1326.3	1349.0548	1384.5931	1398.6887	1428.37	1470.5709	1480.5588	1525.877	1800.2888	2927.1406	3056.555	3059.2044	3093.0244	3118.8209	3124.8319	3182.1648	3196.1775	3474.0613	3645.0629
O=CNCC1CC2NC12	O=CNC[C@H]1C[C@H]2N[C@@H]12	
InChI=1S/C6H10N2O/c9-3-7-2-4-1-5-6(4)8-5/h3-6,8H,1-2H2,(H,7,9)	InChI=1S/C6H10N2O/c9-3-7-2-4-1-5-6(4)8-5/h3-6,8H,1-2H2,(H,7,9)/t4-,5-,6+/m1/s1
