19
gdb 72728	2.66914	1.9685	1.55149	0.3135	75.23	-0.245	0.0316	0.2767	932.3781	0.158659	-422.892545	-422.885032	-422.884088	-422.923843	31.027	
C	-0.094728823	 1.5298434384	 0.0075651316	-0.437047
C	 0.0245233529	 0.017552474	-0.0443096494	 0.419129
O	 1.1628751756	-0.3076792468	-0.9911807159	-0.367493
C	 2.0269745606	-0.3834856182	 0.2173782135	-0.219375
C	 0.7241696365	-0.779771863	 0.9647920746	 0.312242
C	 0.3945194664	-2.2755810487	 0.7222581372	-0.228239
C	-1.1320226038	-2.1616588232	 0.4826623611	-0.220894
C	-1.2225321824	-0.6605629558	 0.6930847739	-0.031563
O	-0.3868991067	-0.4392910876	 1.9320327778	-0.38301
H	 0.8729006039	 2.0274531291	 0.1098976953	 0.119289
H	-0.5343231554	 1.8649016925	-0.9391463007	 0.126673
H	-0.7419876854	 1.854777767	 0.8237982096	 0.135816
H	 2.7997584308	-1.1485582631	 0.1147181505	 0.122222
H	 2.4644994743	 0.5894096451	 0.4528655752	 0.121965
H	 0.9338378712	-2.6975077711	-0.1258560688	 0.116809
H	 0.6409075448	-2.8432374296	 1.6231203248	 0.107207
H	-1.4435455593	-2.4614299496	-0.5216266093	 0.10934
H	-1.7300562252	-2.7074876103	 1.2150828966	 0.11018
H	-2.1897005557	-0.1600127892	 0.7579664523	 0.086748
165.3434	202.1641	238.9528	315.6802	362.3086	384.3422	437.8288	491.3987	513.3607	596.1548	672.6877	725.3594	773.8316	820.8015	827.9801	850.2465	883.6688	905.2141	955.8389	959.7601	992.4141	1020.1144	1059.5933	1071.0449	1122.226	1139.2807	1162.7527	1176.007	1212.584	1252.9705	1258.7474	1265.2555	1296.5137	1313.3243	1381.5379	1406.6934	1467.6809	1477.127	1493.5793	1498.0088	1510.3523	3040.6473	3061.9777	3065.5267	3074.888	3103.9258	3112.7269	3118.1736	3127.2578	3138.2815	3139.3087
CC12OCC11CCC2O1	C[C@@]12OC[C@@]31CC[C@H]2O3	
InChI=1S/C7H10O2/c1-6-5-2-3-7(6,9-5)4-8-6/h5H,2-4H2,1H3	InChI=1S/C7H10O2/c1-6-5-2-3-7(6,9-5)4-8-6/h5H,2-4H2,1H3/t5-,6+,7-/m1/s1
