18
gdb 80967	2.30956	1.45791	1.26661	3.8935	74.04	-0.2493	-0.0337	0.2156	1093.8243	0.145938	-439.009336	-439.000631	-438.999686	-439.04253	32.694	
C	-0.0552548399	 1.5627028116	-0.0919060013	-0.450005
C	 0.1020861917	 0.0579704064	-0.00248989	 0.05245
N	 1.3477354085	-0.605620124	-0.6693010414	-0.153926
C	 2.1319722706	-0.1450171193	 0.572773582	-0.246187
C	 0.8020329093	-0.6520651149	 1.1715886429	 0.309545
O	 0.3430022933	-0.6672235415	 2.4709690389	-0.453106
C	 1.0081564102	-1.8488743075	 0.1507844384	-0.116859
C	-0.1186308707	-2.7488255287	-0.2622434357	 0.135478
O	-0.9137608186	-2.5533011184	-1.1475606653	-0.243678
H	-0.1796407313	 1.8550513524	-1.1393905735	 0.138192
H	-0.9623869506	 1.8575580393	 0.4453690729	 0.132455
H	 0.775243782	 2.1355692968	 0.3246117875	 0.120019
H	-0.8081382592	-0.4194770218	-0.3612239934	 0.113125
H	 3.0364356842	-0.7318164393	 0.7548332936	 0.100916
H	 2.3473694723	 0.9215970821	 0.59101355	 0.113479
H	 1.0245445532	-1.0360639002	 3.0443085727	 0.286926
H	 1.8885212086	-2.4700289247	 0.356910616	 0.083717
H	-0.1671088236	-3.6774448381	 0.3537889657	 0.077461
100.0239	146.667	168.2677	201.5452	231.5753	272.9947	307.2911	399.4046	424.7155	496.1961	591.3083	616.2021	695.3024	767.5877	808.0861	837.107	864.1579	916.6686	986.6684	990.2146	1051.1944	1074.2504	1099.7072	1103.7815	1136.0046	1146.5401	1166.5812	1196.7399	1244.8268	1276.5651	1356.0867	1396.9334	1409.9201	1428.4203	1453.8992	1493.0622	1502.0583	1541.7168	1819.3527	2856.3585	3038.177	3046.2245	3069.4156	3107.9508	3120.2782	3141.6188	3158.7218	3801.0958
CC1N2CC1(O)C2C=O	C[C@H]1N2C[C@]1(O)[C@H]2C=O	
InChI=1S/C6H9NO2/c1-4-6(9)3-7(4)5(6)2-8/h2,4-5,9H,3H2,1H3	InChI=1S/C6H9NO2/c1-4-6(9)3-7(4)5(6)2-8/h2,4-5,9H,3H2,1H3/t4-,5-,6-/m1/s1
