21
gdb 95068	2.79326	1.56936	1.24123	0.3922	78.18	-0.2382	0.0774	0.3156	1088.9522	0.183994	-424.208385	-424.200526	-424.199582	-424.240198	32.158	
C	 0.2674741523	 1.5902830336	 0.019218606	-0.397482
C	-0.0367475858	 0.0957102152	-0.0051765919	 0.106773
C	 0.5670034988	-0.5593229867	-1.2564311844	-0.086461
O	 0.1536387495	-1.8884431749	-1.5239452845	-0.272741
C	 0.2947917863	-2.8400890311	-0.484456139	 0.124637
C	-0.6701761972	-2.6083344396	 0.715901857	-0.269698
C	 0.4750267071	-1.823264339	 1.4163695327	 0.125431
C	 1.472095295	-2.5943208403	 0.500681103	-0.272039
O	 0.4735255542	-0.4211982796	 1.2223760258	-0.281599
H	 1.3471968091	 1.7651729347	-0.0244827937	 0.122261
H	-0.205495759	 2.0982189332	-0.8261419195	 0.114684
H	-0.1092091632	 2.0291525812	 0.9460937846	 0.129153
H	-1.1273492715	-0.047699225	-0.0429689938	 0.077318
H	 0.2467425471	 0.0124535924	-2.1332957569	 0.107617
H	 1.6635366571	-0.4859814891	-1.1975167172	 0.095858
H	 0.2451627009	-3.8126002033	-0.9793486574	 0.079142
H	-1.6178328257	-2.1051080093	 0.5175682772	 0.107986
H	-0.8693319606	-3.5435493422	 1.2467937337	 0.101355
H	 0.5900914202	-1.9595032624	 2.4941515293	 0.078654
H	 1.7824702859	-3.5353465535	 0.9633854323	 0.102229
H	 2.3588341095	-2.0636125044	 0.1502785766	 0.106924
138.8939	211.4617	245.2323	301.9357	327.7913	351.6143	372.0419	438.2859	479.4649	499.3641	582.3361	752.2024	784.3174	814.9815	870.3207	893.8445	904.6617	914.542	936.516	979.5679	991.5822	1041.949	1063.8711	1097.1713	1135.6592	1143.9187	1146.3779	1160.3884	1211.9974	1227.1693	1247.1603	1265.9578	1284.9087	1297.1579	1335.0444	1380.6912	1387.0314	1396.7626	1407.2551	1418.4363	1454.4134	1479.9123	1485.7661	1496.5563	1502.2981	2984.6933	2998.2057	3043.7523	3064.2326	3064.4937	3078.6	3081.8467	3089.7389	3115.9386	3126.5683	3128.1871	3129.0631
CC1COC2CC(C2)O1	C[C@H]1CO[C@@H]2C[C@@H](C2)O1	
InChI=1S/C7H12O2/c1-5-4-8-6-2-7(3-6)9-5/h5-7H,2-4H2,1H3	InChI=1S/C7H12O2/c1-5-4-8-6-2-7(3-6)9-5/h5-7H,2-4H2,1H3/t5-,6-,7+/m0/s1
