17
gdb 72998	2.48584	1.61914	1.25541	2.0385	69.91	-0.2502	-0.0317	0.2184	1033.6212	0.133406	-458.925277	-458.916673	-458.915729	-458.95805	32.389	
C	 0.1006936816	 1.5748152837	 0.202391757	-0.516924
C	 0.0991887027	 0.0790243835	 0.0974996877	 0.198387
C	-1.1477986302	-0.8008146049	 0.0002150757	-0.146426
O	-0.5073091475	-1.8655876065	 0.7755318201	-0.306377
C	 0.6327991083	-1.0357857501	 0.9588916582	-0.001809
C	 1.2621215877	-0.801336964	-0.4128966123	 0.243195
O	 1.077679535	-1.7373348235	-1.4264147369	-0.480063
C	 2.6337446982	-0.2391175185	-0.3853866879	 0.100449
O	 3.0278791274	 0.5963322181	 0.3974716022	-0.281828
H	 1.0911819443	 1.9432731905	 0.4724808299	 0.168158
H	-0.1888035581	 2.0306523438	-0.7511873398	 0.126502
H	-0.6119238753	 1.9081952533	 0.9648879161	 0.121565
H	-1.999263357	-0.3975770151	 0.5561477528	 0.125701
H	-1.4581053781	-1.1403320363	-0.9921738354	 0.123792
H	 1.186993767	-1.0851928553	 1.8892098256	 0.129147
H	 0.605815633	-2.4828749157	-1.0291547929	 0.298648
H	 3.296182931	-0.6895247629	-1.1542425899	 0.097884
125.7413	188.6682	194.241	203.4722	252.3054	277.6794	287.3313	337.2754	437.3816	463.3454	545.0523	631.6744	675.6231	697.1166	760.8435	896.5842	929.3634	973.0634	976.913	996.2375	1046.9456	1060.7318	1117.5988	1131.9521	1171.301	1197.5786	1220.7384	1259.1775	1300.0474	1369.8738	1403.7	1417.3058	1445.2362	1492.5082	1500.5717	1504.8857	1795.2572	2918.999	3032.4945	3050.4566	3088.6619	3109.4927	3144.9483	3186.9599	3740.9827
CC12COC1C2(O)C=O	C[C@]12CO[C@H]1[C@]2(O)C=O	
InChI=1S/C6H8O3/c1-5-3-9-4(5)6(5,8)2-7/h2,4,8H,3H2,1H3	InChI=1S/C6H8O3/c1-5-3-9-4(5)6(5,8)2-7/h2,4,8H,3H2,1H3/t4-,5+,6-/m1/s1
