17
gdb 26198	3.59771	1.09109	0.88227	2.7538	71.32	-0.2039	0.0234	0.2272	1288.3475	0.136173	-455.187028	-455.178137	-455.177193	-455.221385	33.093	
C	 0.2347113566	 1.2909769076	-0.4854549804	-0.386354
C	-0.0489113547	 0.0425975876	 0.3587687667	 0.050735
O	 0.1816223091	 0.3303215147	 1.7201165485	-0.437868
C	-1.4582592062	-0.4632351972	 0.1888631465	 0.346839
N	-2.2850043103	-0.6398048625	 1.2050946785	-0.413307
C	-3.4455100092	-1.1187334815	 0.6622345221	 0.350542
O	-4.5182276838	-1.4102579473	 1.4284650644	-0.436996
C	-3.3404501534	-1.2421401376	-0.6969407101	-0.211846
N	-2.0471418163	-0.8117115871	-0.9780973154	-0.302154
H	 1.2552652887	 1.632173695	-0.2933546969	 0.132374
H	 0.1412311912	 1.082945352	-1.5573831852	 0.095367
H	-0.4582157845	 2.0937704345	-0.2193438543	 0.129594
H	 0.6458231654	-0.7535288401	 0.0369340992	 0.083655
H	-0.6183436745	 0.059315948	 2.1946764565	 0.294388
H	-4.265574806	-1.216272233	 2.3387834726	 0.301575
H	-4.0248112121	-1.5745458156	-1.4562208994	 0.135367
H	-1.6281995699	-0.7716098675	-1.8914725029	 0.268088
22.8539	140.1987	180.7535	243.5573	285.8266	332.2667	349.7469	359.2127	407.8071	465.3106	504.9782	519.3713	635.0482	650.0631	703.7716	732.794	758.8337	909.5473	998.7385	1031.9337	1062.8425	1098.7719	1100.3828	1156.3838	1181.6032	1275.2602	1297.5848	1325.1324	1367.7921	1399.6342	1414.8808	1450.4919	1482.0816	1492.4478	1501.619	1565.3724	1667.8091	2937.5186	3034.9919	3107.7006	3129.6249	3297.8354	3672.9407	3708.7061	3811.2179
CC(O)C1=NC(O)=CN1	C[C@@H](O)c1nc(O)c[nH]1	
InChI=1S/C5H8N2O2/c1-3(8)5-6-2-4(9)7-5/h2-3,8-9H,1H3,(H,6,7)	InChI=1S/C5H8N2O2/c1-3(8)5-6-2-4(9)7-5/h2-3,8-9H,1H3,(H,6,7)/t3-/m1/s1
