19
gdb 97309	3.23828	1.06361	0.82066	2.342	83.3	-0.2389	-0.0117	0.2272	1412.8875	0.160457	-419.265966	-419.257135	-419.256191	-419.299838	32.07	
C	 0.4811096335	 1.574598989	-0.5217687217	-0.310782
N	 0.844208448	 0.212409844	-0.8562658466	-0.241642
C	 0.1454673617	-0.7149788903	-0.3480693075	 0.098563
N	 0.4200893307	-2.0462865495	-0.6019957321	-0.115375
C	 1.5022622976	-2.488097145	-1.4768144068	-0.155653
C	 1.6043527319	-3.9973557795	-1.1746307308	-0.234692
C	 0.1985199536	-4.3795604839	-0.6852223652	-0.336924
C	-0.3696116025	-3.0836189624	-0.1145101685	 0.418821
O	-1.3304039142	-2.9464158217	 0.6069604608	-0.370774
H	 0.2569702254	 2.1309126941	-1.4394740573	 0.127129
H	-0.3861669044	 1.6520797421	 0.1526647529	 0.102944
H	 1.3332746231	 2.0766046992	-0.0487299911	 0.126896
H	-0.7128808281	-0.5847600272	 0.3193203254	 0.126395
H	 1.2453598621	-2.2872064954	-2.524261323	 0.120074
H	 2.4144438429	-1.9315760541	-1.2535500816	 0.137106
H	 1.9302925821	-4.5668878248	-2.0466811209	 0.114749
H	 2.334867419	-4.1640466836	-0.3774101904	 0.120829
H	-0.4533921176	-4.69437434	-1.5091792321	 0.136043
H	 0.174930955	-5.1699395208	 0.0666599163	 0.136292
86.8685	142.7512	147.246	152.0854	200.1916	223.0577	354.5599	377.1372	383.5234	554.6583	574.3625	650.0492	675.1313	806.749	871.83	896.3007	938.772	998.7767	1007.8487	1033.2546	1082.1326	1092.9492	1141.9276	1151.2622	1188.7548	1213.4877	1241.4935	1275.3695	1304.4066	1336.6885	1360.1361	1373.5496	1421.5819	1448.9267	1467.557	1479.9777	1500.1698	1502.7214	1529.2449	1745.5053	1821.1366	2977.1861	3031.743	3046.0702	3058.7727	3062.7382	3073.417	3079.8173	3107.2458	3116.4831	3125.005
CN=CN1CCCC1=O	CN=CN1CCCC1=O	
InChI=1S/C6H10N2O/c1-7-5-8-4-2-3-6(8)9/h5H,2-4H2,1H3	InChI=1S/C6H10N2O/c1-7-5-8-4-2-3-6(8)9/h5H,2-4H2,1H3
