17
gdb 86768	3.15332	1.00059	0.84424	0.8235	75.76	-0.2531	-0.0382	0.2149	1372.6444	0.132315	-421.792423	-421.782984	-421.782039	-421.827548	33.594	
C	 0.3395292054	 1.5068163765	-0.1812065425	-0.402976
C	 0.0187137667	 0.047850564	 0.0853300584	 0.035261
O	 0.7585619249	-0.8845155259	-0.7472465992	-0.30561
C	 1.2905045334	-1.6324542355	 0.3677325293	 0.015551
C	 2.8197682781	-1.7291527301	 0.3975211928	-0.368249
C	 3.3522184735	-2.605777108	-0.6366059504	 0.298459
C	 3.7703994387	-3.3381985089	-1.4920726291	-0.429715
C	 0.6379861947	-0.6202072832	 1.321996687	 0.319871
O	 0.6669725368	-0.4075891319	 2.4955085734	-0.281777
H	 1.410960701	 1.6995363457	-0.0798440823	 0.128028
H	 0.0323009268	 1.7808665497	-1.1944563639	 0.139206
H	-0.2003245578	 2.1403442973	 0.5291704559	 0.137593
H	-1.0633882347	-0.134892573	 0.0122370333	 0.109141
H	 0.8484975317	-2.6364152137	 0.4293212836	 0.117289
H	 3.2423293174	-0.7227283992	 0.2954335694	 0.138252
H	 3.1069310983	-2.0953040543	 1.3919136031	 0.149932
H	 4.1483144148	-3.9800296595	-2.2487682386	 0.199741
47.1997	78.9052	107.3595	187.1188	190.076	209.7706	331.113	365.4218	383.1885	444.0869	544.3735	613.9927	623.9348	646.4817	696.9031	840.5884	849.1392	882.1396	952.8655	1000.9863	1028.7785	1059.5669	1076.9259	1110.2427	1137.53	1217.977	1235.2614	1273.5338	1318.4143	1343.591	1381.448	1399.7492	1453.5402	1480.2561	1493.5479	1917.6296	2243.125	3002.7775	3017.8215	3027.3406	3044.1042	3067.8044	3121.4186	3124.4026	3507.3416
CC1OC(CC#C)C1=O	C[C@H]1O[C@@H](CC#C)C1=O	
InChI=1S/C7H8O2/c1-3-4-6-7(8)5(2)9-6/h1,5-6H,4H2,2H3	InChI=1S/C7H8O2/c1-3-4-6-7(8)5(2)9-6/h1,5-6H,4H2,2H3/t5-,6+/m1/s1
