16
gdb 115096	2.57094	1.45791	0.96215	1.5068	65.83	-0.2451	-0.043	0.2022	1158.964	0.123964	-475.036919	-475.028417	-475.027473	-475.071807	30.119	
O	 0.122883675	 1.3537788781	-0.1807978744	-0.419656
C	 0.098154344	-0.0552425565	-0.1829265744	-0.063448
C	-1.3164810941	-0.5888421151	 0.0414302886	-0.01836
O	-2.1351972843	-0.0460836333	-1.0163946231	-0.253438
C	-3.1899532528	-0.7714357075	-1.4603751468	 0.132923
N	-3.5021812863	-1.9700900564	-1.2242988027	-0.263028
C	-2.6265453722	-2.7797054245	-0.3947650449	-0.260945
C	-1.3730192633	-2.1100421663	 0.1415630517	 0.335726
O	-0.4759479883	-2.7255389313	 0.6660159619	-0.302248
H	-0.4801698708	 1.6476487918	-0.872780065	 0.293415
H	 0.4907438743	-0.4748475166	-1.1218715223	 0.101496
H	 0.7361880908	-0.4011321803	 0.6319979934	 0.141487
H	-1.7023558632	-0.1818593705	 0.9884255216	 0.132668
H	-3.8015056838	-0.1581688166	-2.1192769951	 0.134881
H	-3.1937886121	-3.1612772329	 0.4661714859	 0.153347
H	-2.3189343631	-3.672439522	-0.9525991644	 0.15518
27.9561	57.6101	110.5597	182.2473	316.2683	374.7608	414.3557	464.318	482.5091	502.4998	528.2002	583.1996	754.5463	850.9958	876.7311	956.4696	988.3605	1012.9374	1043.0889	1087.6761	1093.1418	1157.8653	1186.8398	1233.0646	1249.0589	1294.7374	1331.8426	1350.2712	1393.1766	1407.9161	1420.5757	1438.2185	1495.7528	1754.0041	1819.6686	2990.3959	3006.8001	3018.2734	3058.3591	3126.4608	3165.2642	3807.0009
OCC1OC=NCC1=O	OC[C@H]1OC=NCC1=O	
InChI=1S/C5H7NO3/c7-2-5-4(8)1-6-3-9-5/h3,5,7H,1-2H2	InChI=1S/C5H7NO3/c7-2-5-4(8)1-6-3-9-5/h3,5,7H,1-2H2/t5-/m1/s1
