19
gdb 78074	2.2605	1.30921	1.28602	4.6195	76.76	-0.2323	-0.0129	0.2194	1133.593	0.158074	-423.000352	-422.991393	-422.990449	-423.034009	33.49	
C	-0.2456097288	 1.6393034325	-0.0545109571	-0.417159
C	 0.0048243331	 0.1374931023	-0.0754317165	-0.022791
C	 0.5879639296	-0.5596255391	-1.3102679922	-0.096299
C	 2.0477149464	-0.245912848	-1.5992653778	-0.096402
C	 2.7614532331	 1.0593892753	-1.4693451095	 0.125712
O	 3.4445375141	 1.5021832541	-2.363579283	-0.275712
C	 1.6952533765	-1.2007220034	-0.4759519664	-0.097861
C	 1.1738446392	-0.5025596958	 0.7751450741	 0.076786
O	 2.1117677196	 0.3399831593	 1.4114468108	-0.415077
H	 0.6479566231	 2.2205389964	-0.289273668	 0.129129
H	-1.0181802205	 1.9079556737	-0.7828228157	 0.123382
H	-0.6007638849	 1.959484567	 0.9320764958	 0.10847
H	-0.9244026849	-0.3742280886	 0.199177131	 0.079818
H	-0.0060614767	-1.0175040009	-2.0925288038	 0.099011
H	 2.3862515918	-0.766796905	-2.4923574037	 0.108822
H	 2.6632283681	 1.5845352355	-0.5035094392	 0.103697
H	 2.0714043749	-2.2162491717	-0.4987545144	 0.098124
H	 0.7732475343	-1.2353060229	 1.4871130874	 0.080773
H	 1.7108714621	 0.6919241292	 2.2130236781	 0.287577
70.9037	148.5835	167.3258	195.6865	226.5947	275.6949	289.4943	305.0424	448.115	462.7059	556.9537	631.4748	689.7371	773.604	796.7366	818.2801	910.2627	929.2199	983.1449	1007.6937	1025.8323	1042.5649	1058.5924	1088.3963	1102.0859	1156.0552	1158.643	1202.2333	1214.5681	1252.5281	1280.1558	1327.5017	1332.3332	1368.9823	1382.3773	1412.0792	1431.7169	1449.3115	1494.6213	1496.6488	1800.0025	2984.7236	3013.3415	3032.7967	3043.5085	3091.4372	3133.3293	3142.645	3177.1642	3189.5064	3813.5637
CC1C2C(C=O)C2C1O	C[C@H]1[C@H]2[C@@H](C=O)[C@H]2[C@H]1O	
InChI=1S/C7H10O2/c1-3-5-4(2-8)6(5)7(3)9/h2-7,9H,1H3	InChI=1S/C7H10O2/c1-3-5-4(2-8)6(5)7(3)9/h2-7,9H,1H3/t3-,4+,5-,6+,7-/m0/s1
