23
gdb 115961	3.02131	1.18488	0.97768	1.234	84.46	-0.2604	0.0766	0.337	1292.4106	0.207926	-388.291522	-388.282766	-388.281821	-388.32513	34.105	
O	-0.1454146232	 1.5101950868	-0.129518055	-0.42419
C	 0.0086845143	 0.1054093394	 0.0405318132	-0.105387
C	-1.3613879822	-0.5363084395	-0.1129496677	 0.048431
C	-2.0175948156	-0.3595227251	-1.4966540827	-0.212698
C	-3.1836732005	-1.3664643058	-1.470198618	-0.226634
C	-2.6424018864	-2.5827404165	-0.6962284767	-0.000604
C	-1.6928866619	-3.5294789549	-1.4866418239	-0.219271
C	-0.4692524946	-2.9659011878	-0.7129050958	-0.230116
C	-1.4151217574	-2.0555556022	 0.1335199603	-0.030921
H	 0.7243663243	 1.9160955719	-0.0734274164	 0.284637
H	 0.7066359377	-0.303661385	-0.7066226635	 0.082392
H	 0.4201909502	-0.128918369	 1.0362317005	 0.080016
H	-2.0170982023	-0.0600145437	 0.6298798689	 0.077108
H	-2.3342872782	 0.668748212	-1.6822846274	 0.107568
H	-1.3004328363	-0.6211053148	-2.2863923644	 0.090812
H	-4.0301968938	-0.9299389551	-0.9264540309	 0.093553
H	-3.5467154256	-1.6319603566	-2.468812467	 0.089675
H	-3.4266398402	-3.0989425989	-0.1382205167	 0.058819
H	-1.8795910861	-4.5920127569	-1.3117528793	 0.095457
H	-1.6788235671	-3.3647720246	-2.5686014378	 0.092614
H	 0.0832733011	-3.7053057097	-0.1280609053	 0.095421
H	 0.2515987104	-2.4301957749	-1.3361464361	 0.095313
H	-1.4108369366	-2.298883589	 1.1987274417	 0.058005
79.2129	98.6371	150.9168	198.2574	262.5419	292.6755	348.15	387.8242	478.1704	578.6565	604.6826	742.8937	745.4916	807.8051	821.3475	868.9718	874.295	940.79	947.0611	959.1054	974.9966	993.7167	1029.3353	1057.7571	1073.7922	1084.8346	1110.6408	1157.3299	1177.6514	1186.6624	1216.3872	1234.5758	1247.3898	1259.3402	1264.0794	1273.3781	1283.9763	1309.2607	1317.2521	1334.7094	1339.4175	1347.6025	1389.1146	1459.6144	1476.5651	1486.6352	1491.4199	1504.9292	1519.9109	2961.23	2988.1132	3007.8781	3023.1974	3029.7907	3046.6597	3058.7157	3065.343	3074.2435	3079.9157	3092.2028	3108.4303	3113.3618	3830.2364
OCC1CCC2CCC12	OC[C@H]1CC[C@H]2CC[C@@H]12	
InChI=1S/C8H14O/c9-5-7-2-1-6-3-4-8(6)7/h6-9H,1-5H2	InChI=1S/C8H14O/c9-5-7-2-1-6-3-4-8(6)7/h6-9H,1-5H2/t6-,7+,8+/m0/s1
