18
gdb 121780	2.45504	0.82765	0.66431	18.1581	87.11	-0.139	-0.0395	0.0995	1675.784	0.148296	-398.069532	-398.059279	-398.058335	-398.106841	34.631	
C	-0.0073340047	 1.4956242164	-0.2540822177	-0.351853
N	-0.0607407348	 0.0518539504	 0.1201901979	-0.253037
H	 0.7151087945	-0.4546555662	-0.310849822	 0.316716
H	 0.0602216876	-0.0575038601	 1.1306516218	 0.316876
C	-1.372770331	-0.676455215	-0.2422638444	-0.176932
C	-1.4112296071	-2.0939142439	 0.325855587	-0.331887
C	-2.8213867711	-2.6056242627	 0.1862166805	-0.113736
C	-3.0994714588	-3.6176487372	-0.7343537186	 0.149016
N	-3.2728518202	-4.4647514957	-1.5200973106	-0.418447
C	-3.7871532663	-1.9182991298	 0.9233764779	 0.172834
N	-4.4891607618	-1.2456255852	 1.5754296371	-0.442879
H	 0.9466380469	 1.9251495552	 0.0563926145	 0.176321
H	-0.1232613699	 1.5758369479	-1.3350914615	 0.193238
H	-0.8319289155	 2.0070853986	 0.2426610488	 0.202939
H	-2.1705293727	-0.0723713046	 0.1969830123	 0.185909
H	-1.446331536	-0.6568577427	-1.3308316323	 0.165265
H	-0.7172739075	-2.7433279285	-0.2184266326	 0.11887
H	-1.0723156316	-2.0570045467	 1.379687852	 0.090788
24.2351	70.4604	79.8768	122.8952	138.6334	190.5526	218.3803	249.3709	351.3565	387.2698	529.7327	543.7859	584.5045	614.9822	746.2778	761.9272	781.123	821.4984	991.6302	999.6403	1019.0444	1086.4645	1154.1055	1194.6483	1264.4478	1289.6543	1318.5837	1349.3186	1362.0804	1369.04	1383.509	1456.9994	1463.2855	1480.923	1496.1954	1497.8927	1651.0833	2235.9381	2276.681	2893.7432	3069.3247	3074.2099	3083.4013	3156.6649	3166.4317	3179.2849	3426.4353	3486.721
C[NH2+]CC[C-](C#N)C#N	C[NH2]CC[C](C#N)C#N	
InChI=1S/C6H8N3/c1-9-3-2-6(4-7)5-8/h9H,2-3H2,1H3/q-1/p+1	InChI=1S/C6H9N3/c1-9-3-2-6(4-7)5-8/h2-3,9H2,1H3
