21
gdb 106766	1.85168	1.64143	1.15713	2.418	78.61	-0.2463	0.0705	0.3168	1183.8291	0.181044	-424.19475	-424.185068	-424.184124	-424.229022	36.741	
C	 0.2487214229	 1.8524862625	 0.0441056095	-0.41144
C	 0.1147812443	 0.3396944635	 0.1594131751	-0.013576
C	 0.916746043	-0.5743612971	-0.8374591277	-0.318568
C	 1.5460707314	-1.2796962609	 0.3676218372	 0.354073
O	 1.7027993468	-2.6544495998	 0.4811603431	-0.473862
C	 2.2975641573	-0.309041225	 1.2327840186	-0.417689
C	 0.7857063972	-0.389255404	 1.3413072349	 0.262431
C	 0.0855384805	-0.7804775854	 2.6101515383	-0.178769
O	-1.1208933065	-1.4928156325	 2.3626350922	-0.419337
H	 1.2951933782	 2.1749484941	 0.0703196974	 0.110977
H	-0.1833958704	 2.2119397702	-0.8962432328	 0.114573
H	-0.2750619451	 2.3582328255	 0.8626990818	 0.117379
H	-0.9420969561	 0.059563175	 0.1381852788	 0.089528
H	 0.2659481751	-1.234152704	-1.4156778042	 0.10568
H	 1.6097329564	-0.068715512	-1.5196491309	 0.087642
H	 2.5811455883	-2.8934603005	 0.1653224122	 0.285965
H	 2.822876653	-0.7697719914	 2.0644287712	 0.111449
H	 2.7932638596	 0.5644794402	 0.8157589508	 0.104175
H	 0.7696471852	-1.3632883359	 3.2460740457	 0.089679
H	-0.2102505378	 0.1069672625	 3.1824048907	 0.109943
H	-0.8779097333	-2.2935090051	 1.8844937883	 0.289745
61.5773	140.1153	151.3681	200.9093	222.2054	240.2568	261.9442	372.9679	388.4442	406.4482	449.5887	454.3589	563.1964	606.0586	716.6952	730.0442	802.0883	848.1256	900.8019	933.1938	963.6223	976.6888	1019.5142	1057.6445	1065.6121	1089.927	1106.6981	1156.2081	1170.6597	1215.9852	1233.0063	1236.7115	1252.1951	1297.1085	1340.8648	1364.8983	1384.5548	1406.1031	1414.2873	1430.749	1478.1458	1493.5859	1494.5399	1498.3784	1514.9852	2984.4708	3026.6315	3036.3974	3054.3467	3064.8243	3092.7575	3095.0253	3104.9816	3108.8703	3193.8667	3791.1581	3802.95
CC1CC2(O)CC12CO	C[C@H]1C[C@@]2(O)C[C@@]12CO	
InChI=1S/C7H12O2/c1-5-2-7(9)3-6(5,7)4-8/h5,8-9H,2-4H2,1H3	InChI=1S/C7H12O2/c1-5-2-7(9)3-6(5,7)4-8/h5,8-9H,2-4H2,1H3/t5-,6+,7+/m0/s1
