22
gdb 7824	2.96418	1.61131	1.12405	1.4645	78.04	-0.2575	0.0796	0.3372	1117.6243	0.201881	-350.235726	-350.22736	-350.226416	-350.267895	33.066	
C	-0.0182749123	 1.5544822659	 0.0294652039	-0.401727
C	 0.0231458477	 0.0236014083	 0.0045251996	 0.034765
C	 0.6999839542	-0.5090091752	-1.2703621058	-0.175254
C	 0.7703647587	-2.0422919003	-1.2871839755	-0.215624
C	 1.462575673	-2.5803175967	-0.0267298269	-0.212441
C	 0.7810786888	-2.0656292773	 1.2461547092	 0.125557
O	 1.4746451315	-2.4633661824	 2.4235536012	-0.442143
C	 0.721326885	-0.5393340046	 1.2539260453	-0.174909
H	 0.9948331098	 1.9738627536	 0.0298793469	 0.112366
H	-0.542409956	 1.9525850885	-0.8460289265	 0.107505
H	-0.5299519292	 1.9243317017	 0.9243192793	 0.110205
H	-1.0148663996	-0.3431796248	 0.0055623016	 0.067178
H	 0.1657648703	-0.1450162501	-2.1561581396	 0.08708
H	 1.718026258	-0.0974948628	-1.3305431006	 0.090249
H	-0.2476608912	-2.451556504	-1.3470123981	 0.093167
H	 1.2952578833	-2.3905741787	-2.1835150581	 0.092634
H	 1.4655574185	-3.6785735053	-0.030866322	 0.076555
H	 2.5120496852	-2.2584083902	-0.0052108242	 0.10001
H	-0.2528348694	-2.4547577755	 1.2698113096	 0.056762
H	 1.5529428933	-3.4227171256	 2.4102552983	 0.276076
H	 1.7501112206	-0.1569265252	 1.3078249133	 0.096362
H	 0.2135942499	-0.2037354594	 2.1651567392	 0.095624
149.2842	156.5614	234.7942	255.2947	283.7411	290.2116	368.1987	411.5364	420.1691	448.4241	487.7288	547.0689	780.8811	843.6014	864.4487	887.3352	906.6762	949.4104	981.892	989.4636	1041.0313	1060.9134	1078.5608	1089.6508	1126.943	1149.5214	1181.2993	1228.3593	1251.3263	1285.9411	1289.8857	1313.9776	1335.9969	1343.0259	1371.614	1376.7937	1390.2074	1399.7933	1412.027	1439.1895	1480.9726	1483.5062	1490.9324	1496.9874	1500.4334	1504.9949	2934.5028	2984.0184	3004.9041	3009.6418	3014.4648	3019.2308	3025.5084	3051.7433	3055.7386	3066.2115	3069.3907	3090.8428	3096.3544	3812.4626
CC1CCCC(O)C1	C[C@H]1CCC[C@@H](O)C1	
InChI=1S/C7H14O/c1-6-3-2-4-7(8)5-6/h6-8H,2-5H2,1H3	InChI=1S/C7H14O/c1-6-3-2-4-7(8)5-6/h6-8H,2-5H2,1H3/t6-,7+/m0/s1
