21
gdb 117284	4.5101	0.67636	0.59681	4.8109	82.33	-0.2429	-0.0096	0.2334	1901.6968	0.18074	-420.463624	-420.452692	-420.451748	-420.501571	37.708	
C	 0.1427912172	 1.5646726826	-0.0672346368	-0.387664
C	 0.2333409843	 0.0375369856	-0.0185321878	-0.152202
C	-1.1432697972	-0.6267146183	-0.0071645592	-0.276145
C	-1.1017470018	-2.1410625125	 0.0408659052	 0.379765
N	-0.0107271702	-2.7840923379	 0.0689389963	-0.501331
N	-2.4022885826	-2.7060180258	 0.0495011841	-0.37486
C	-2.7328828272	-4.0465452043	 0.0899125309	 0.419404
C	-4.2299564146	-4.31176151	 0.0882505469	-0.497955
O	-1.9071258899	-4.9376743512	 0.1239307964	-0.342953
H	 1.1389622246	 2.0170456105	-0.0745746392	 0.116302
H	-0.3830094603	 1.907413496	-0.9659719291	 0.109869
H	-0.3952460826	 1.963027638	 0.8008063558	 0.109871
H	 0.80153179	-0.3392002751	-0.8744906703	 0.118499
H	 0.7894540925	-0.2843593838	 0.8672207651	 0.118513
H	-1.7275119902	-0.2672606994	 0.8535433686	 0.10919
H	-1.7153700189	-0.322418203	-0.8968087421	 0.109185
H	-0.1873128419	-3.7887551449	 0.0992880247	 0.249919
H	-3.1702154986	-2.0525873599	 0.0235143	 0.248562
H	-4.6989829492	-3.9003931929	-0.8118204845	 0.142811
H	-4.3922186672	-5.3883720233	 0.1187879247	 0.158226
H	-4.7096874661	-3.8487861705	 0.9570864805	 0.142992
32.1692	51.732	70.0543	108.9477	118.9894	130.2664	242.6307	247.273	303.1635	374.5367	408.1252	533.4415	546.0402	548.1132	624.0281	712.6467	748.2855	883.276	883.3537	916.306	960.033	978.0727	1014.3205	1050.6047	1052.733	1089.9402	1129.4138	1130.5439	1250.746	1253.5351	1282.3127	1325.0764	1355.4891	1384.8405	1412.0698	1416.0838	1464.75	1471.2256	1482.1528	1487.3763	1500.7859	1508.3423	1509.928	1740.0091	1799.693	2993.2884	3019.2439	3026.3799	3042.1878	3060.8184	3077.6654	3104.1038	3105.0538	3106.2414	3166.6886	3483.555	3616.8367
CCCC(=N)NC(C)=O	CCCC(=N)NC(=O)C	
InChI=1S/C6H12N2O/c1-3-4-6(7)8-5(2)9/h3-4H2,1-2H3,(H2,7,8,9)	InChI=1S/C6H12N2O/c1-3-4-6(7)8-5(2)9/h3-4H2,1-2H3,(H2,7,8,9)
