17
gdb 35858	2.22312	1.69923	1.08428	1.9213	73.39	-0.2488	0.0412	0.2901	1103.8902	0.135103	-421.767215	-421.759046	-421.758101	-421.800365	30.94	
C	-0.1804543659	-1.239654976	-0.1382271439	-0.466916
C	-0.0805730962	-0.0434386273	-0.0691699452	 0.318489
C	 0.0315728713	 1.4000765815	 0.0339818499	-0.263019
C	-0.5441150627	 1.9930110084	 1.3467750007	-0.103053
O	 0.1386901944	 3.2220143659	 1.5199172619	-0.241402
C	 1.4983109126	 2.9676250148	 1.2021228896	-0.158975
C	 1.4702569488	 1.9661583854	 0.0484382306	 0.390382
C	 2.6489204439	 1.2790771194	-0.4752603596	-0.245453
O	 2.0289831517	 2.3509420996	-1.2021472911	-0.266945
H	-0.2754530574	-2.295289712	-0.2045120084	 0.200435
H	-0.4750654718	 1.8714848478	-0.8163823199	 0.131949
H	-1.6145251297	 2.1981031209	 1.2934112067	 0.126013
H	-0.3519016159	 1.3053193335	 2.1850578834	 0.103302
H	 1.9786192128	 3.9053754623	 0.9143551636	 0.130576
H	 2.0261804437	 2.5411049781	 2.070711046	 0.099014
H	 3.6326778578	 1.5037328882	-0.0633159073	 0.114424
H	 2.5378785823	 0.2892834494	-0.9131868569	 0.131179
49.562	137.3865	176.0455	265.5475	313.4737	344.8099	387.1182	460.9689	526.2849	545.0033	625.6799	639.3603	642.5523	754.6367	829.8119	889.4813	945.9325	964.8033	1009.0555	1039.0457	1052.2908	1080.8617	1111.5622	1129.8775	1166.7078	1205.2328	1223.5557	1252.3454	1289.601	1313.1292	1342.6719	1385.978	1428.0614	1497.7799	1514.773	1532.1506	2236.8726	2971.7583	2987.5983	3044.0107	3083.0721	3108.2544	3119.3945	3176.1654	3502.9697
C#CC1COCC11CO1	C#C[C@H]1COC[C@]21CO2	
InChI=1S/C7H8O2/c1-2-6-3-8-4-7(6)5-9-7/h1,6H,3-5H2	InChI=1S/C7H8O2/c1-2-6-3-8-4-7(6)5-9-7/h1,6H,3-5H2/t6-,7+/m0/s1
