12
gdb 132697	3.26857	1.31564	0.93806	2.7462	59.71	-0.2559	-0.0295	0.2263	1081.1559	0.07741	-521.934169	-521.927379	-521.926435	-521.965487	26.046	
O	 0.0863778584	 1.3641401606	-0.0594067747	-0.424357
C	 0.0608095784	 0.0178827382	-0.0558519136	 0.328549
C	 0.0354422552	-0.7019750055	-1.2421634071	-0.380555
C	 0.010118799	-2.0899941969	-1.1337197477	 0.363015
F	-0.0144157808	-2.7956618148	-2.2609286181	-0.07176
N	 0.0079164682	-2.7829609312	-0.0181603188	-0.32766
C	 0.032459268	-2.0841701252	 1.1255750183	-0.095254
C	 0.0587907609	-0.7082559881	 1.1423571883	 0.118942
F	 0.0834315614	-0.0074691906	 2.2921321395	-0.093961
H	 0.1011741255	 1.6677544756	 0.8578872406	 0.312328
H	 0.0354369439	-0.2045325616	-2.2027341975	 0.13476
H	 0.0311097819	-2.6384572506	 2.0594258209	 0.135954
155.0251	228.6687	289.1171	362.0332	397.3796	448.8944	467.5145	495.145	537.8478	608.1708	687.5871	749.7613	761.0224	798.8643	872.9851	940.4496	988.4594	1172.8245	1193.8555	1288.9205	1298.8505	1351.7336	1375.9487	1474.7289	1541.4579	1644.2448	1661.3685	3177.749	3226.2277	3782.035
OC1=CC(F)=NC=C1F	Oc1cc(F)ncc1F	
InChI=1S/C5H3F2NO/c6-3-2-8-5(7)1-4(3)9/h1-2H,(H,8,9)	InChI=1S/C5H3F2NO/c6-3-2-8-5(7)1-4(3)9/h1-2H,(H,8,9)
