13
gdb 80789	2.0603	1.87111	1.17682	1.4471	67.24	-0.2532	-0.039	0.2141	1012.2234	0.086246	-456.457376	-456.449564	-456.44862	-456.489702	29.478	
O	 0.1238589938	 1.3736821837	-0.1336058537	-0.43675
C	 0.1110712751	-0.0045757964	-0.0772630951	 0.166572
C	-0.0146368073	-0.6645820065	 1.3318283834	-0.146859
O	-1.4266061292	-0.1817881769	 1.3676986008	-0.352901
C	-1.304726012	-0.7081514047	-0.0469879521	 0.134692
C	-2.4004604215	-0.6082417997	-0.9413332184	 0.051438
C	-3.3059521604	-0.5430822288	-1.729935022	-0.3362
C	-0.5988925283	-1.9157676699	 0.6518489737	 0.462401
O	-0.6181839212	-3.097290094	 0.7047417085	-0.291635
H	-0.558031835	 1.678586539	 0.482801768	 0.299159
H	 0.8535520876	-0.40069383	-0.7727013063	 0.120614
H	 0.5840032549	-0.5300837949	 2.2283834085	 0.128625
H	-4.1100338865	-0.488631171	-2.4224406851	 0.200844
110.4591	148.1041	166.5366	273.9986	305.4543	366.5237	470.3868	536.1895	568.9009	576.0927	611.1101	629.2516	698.0476	733.4737	768.234	780.4207	851.7296	882.6674	930.7827	1027.011	1106.2666	1161.1816	1173.7157	1203.8983	1301.2397	1319.6912	1447.2211	1947.3274	2236.0064	3109.1761	3176.2311	3497.1087	3743.3599
OC1C2OC1(C#C)C2=O	O[C@H]1[C@H]2O[C@]1(C#C)C2=O	
InChI=1S/C6H4O3/c1-2-6-4(7)3(9-6)5(6)8/h1,3-4,7H	InChI=1S/C6H4O3/c1-2-6-4(7)3(9-6)5(6)8/h1,3-4,7H/t3-,4+,6+/m1/s1
