18
gdb 78580	5.15473	1.06984	1.02289	0.921	83.22	-0.2159	0.045	0.2609	1206.4522	0.146546	-364.673229	-364.665419	-364.664475	-364.705291	30.994	
C	-0.0542067589	 1.5483231036	-0.2544127637	-0.326572
N	-0.0107737829	 0.0992086976	-0.0857093733	-0.11881
C	-1.0946362	-0.4975412584	 0.7512796284	-0.032529
C	-0.1819758032	-1.6902933136	 1.1628667626	-0.053918
C	-0.5300215896	-1.5345264799	 2.6659773975	-0.222606
C	 0.4535360464	-1.9404195479	 3.6505925897	 0.301245
C	 1.2732348525	-2.2708632875	 4.4667613922	-0.443937
C	-0.4856546134	-0.0746900766	 2.1398096905	-0.07195
C	 0.6876096419	-0.3980436571	 1.1388374592	-0.009877
H	 0.9143553601	 1.8939186556	-0.6305002085	 0.120944
H	-0.8108181785	 1.7999568308	-1.0049667182	 0.119739
H	-0.2843592396	 2.1102897953	 0.6663975448	 0.095457
H	-2.1436893247	-0.5242572355	 0.4511400558	 0.082347
H	-0.0029220676	-2.5967395593	 0.5868282107	 0.090647
H	-1.5300272985	-1.888878715	 2.9400379491	 0.097356
H	 1.994465347	-2.5643799201	 5.1885574738	 0.19318
H	-0.6588107678	 0.8341964225	 2.7142587925	 0.087483
H	 1.7614934269	-0.3038812845	 1.3001677772	 0.0918
108.9864	142.75	222.2093	245.0587	288.3833	383.931	480.4283	512.282	593.2466	615.9454	638.6614	742.0189	764.8222	815.6871	823.0146	849.518	870.2228	914.289	927.531	979.3862	1016.3987	1038.0129	1088.3176	1096.4106	1130.062	1138.4243	1154.9914	1163.8784	1172.7048	1185.6607	1208.5308	1220.9902	1283.0608	1318.7537	1366.8942	1448.2722	1492.0055	1497.5294	2231.7041	2963.8777	3043.5296	3062.894	3098.6697	3099.3938	3116.4014	3127.958	3138.3409	3504.3506
CN1C2C3C(C#C)C2C13	CN1[C@H]2[C@@H]3[C@@H](C#C)[C@H]2[C@H]13	
InChI=1S/C8H9N/c1-3-4-5-7-6(4)8(5)9(7)2/h1,4-8H,2H3	InChI=1S/C8H9N/c1-3-4-5-7-6(4)8(5)9(7)2/h1,4-8H,2H3/t4-,5-,6+,7-,8+
