20
gdb 117202	3.38764	0.97686	0.82867	0.9318	77.65	-0.2402	0.0239	0.2642	1453.7848	0.168857	-440.278494	-440.268563	-440.267618	-440.314082	36.461	
C	 0.0594742562	 1.526434156	-0.2162948305	-0.39488
C	 0.0716243018	 0.0226425095	-0.0188663463	-0.030759
O	 0.6843519382	-0.5628463648	-1.180392637	-0.267258
C	 0.7799537807	-1.9100044918	-1.2122588551	 0.347262
N	 0.3605713447	-2.6185150919	-0.2464810353	-0.55212
C	 1.4815821433	-2.3263791541	-2.4764193773	 0.35198
O	 1.4285859943	-1.4049413333	-3.5234709166	-0.467888
C	 2.7530722349	-3.1520953331	-2.3242956027	-0.311013
C	 1.4996184395	-3.7607899367	-2.9047518386	-0.316925
H	 1.0756584101	 1.9163104459	-0.3260703015	 0.126326
H	-0.5138939278	 1.8003639217	-1.1066546313	 0.128988
H	-0.4011075467	 2.0092791906	 0.6506149193	 0.124768
H	 0.6410560991	-0.274184434	 0.8675877029	 0.123069
H	-0.9366164721	-0.3882411328	 0.0919606837	 0.125468
H	 0.4896765232	-3.6103875604	-0.4305056321	 0.221785
H	 1.4809418569	-0.5303427136	-3.120386856	 0.290712
H	 3.5566123308	-2.9074082466	-3.0091604002	 0.127266
H	 3.0572110637	-3.4440162678	-1.325260043	 0.12103
H	 0.9484409714	-4.4930131766	-2.3247102649	 0.117201
H	 1.4682545977	-3.917142346	-3.9767186976	 0.134987
33.1128	83.9734	117.1423	145.9507	246.1955	275.2968	298.7846	301.4287	345.2945	387.7973	419.8276	497.2492	545.8097	719.9799	770.1973	793.3791	806.3883	836.5071	879.1019	895.3425	930.3048	940.4965	1000.366	1038.7827	1052.0106	1079.3534	1105.4916	1135.6347	1184.0826	1193.8885	1222.1638	1280.2234	1289.0322	1346.233	1402.6755	1418.5517	1435.2152	1450.5151	1486.9696	1497.2631	1501.002	1521.4345	1717.8351	3045.0253	3053.85	3090.3297	3120.1778	3124.0088	3136.2845	3138.4187	3222.6613	3238.5485	3523.009	3799.0958
CCOC(=N)C1(O)CC1	CCO[C]([NH])C1(O)CC1	
InChI=1S/C6H11NO2/c1-2-9-5(7)6(8)3-4-6/h7-8H,2-4H2,1H3	InChI=1S/C6H11NO2/c1-2-9-5(7)6(8)3-4-6/h7-8H,2-4H2,1H3
