19
gdb 72183	3.06309	1.98438	1.58728	1.4922	77.03	-0.2248	0.0832	0.308	902.7648	0.161146	-385.848078	-385.841456	-385.840511	-385.878522	28.474	
C	 0.0233624837	 1.4971437075	 0.039949058	-0.494692
C	 0.009280819	-0.0114781508	-0.0283396409	 0.340941
C	 0.1900895046	-0.7521835304	-1.375783172	-0.290091
C	-0.709063523	-1.8790508355	-0.8051871324	 0.071462
O	 0.0785900601	-2.8263015608	-0.0977309114	-0.260486
C	 0.3991841194	-2.2171273673	 1.1261354587	 0.098263
C	-0.6771180237	-1.3185174123	 1.6320906582	-0.127474
C	 0.6782983184	-0.7294002251	 1.1776175269	-0.168196
C	-1.2659662563	-0.8648929414	 0.28650687	-0.118508
H	 1.0337826451	 1.8898131147	-0.1279833081	 0.116786
H	-0.6338997436	 1.9317815487	-0.7213747588	 0.111207
H	-0.3104185471	 1.8523335336	 1.0216109682	 0.117542
H	-0.3094598019	-0.2094859019	-2.1859567823	 0.091452
H	 1.1923284045	-1.0509741792	-1.6940726673	 0.097974
H	-1.3850670199	-2.414341341	-1.4736379316	 0.075441
H	 0.9533667072	-2.872741785	 1.7863627832	 0.104633
H	-1.1574843229	-1.3720999912	 2.6000300555	 0.087909
H	 1.4881024271	-0.3196886927	 1.7730633492	 0.078969
H	-2.2782701306	-0.4790889696	 0.1932550669	 0.066866
230.9224	234.7486	267.0804	345.8649	425.003	542.7935	569.6779	664.9019	712.3849	742.2538	754.9254	809.3637	817.6699	853.773	878.0392	907.5497	925.8629	931.8404	979.3109	987.442	1007.9423	1009.8701	1044.3784	1060.5764	1097.7135	1115.4525	1141.0506	1160.1463	1200.8478	1208.8748	1240.8921	1244.6229	1253.6036	1282.1516	1319.7897	1356.4608	1408.7285	1410.619	1472.7309	1489.3846	1493.4755	3017.8767	3040.505	3081.0672	3091.273	3098.7255	3104.5111	3145.6067	3156.4574	3193.4071	3204.7735
CC12CC3OC4C(C14)C23	C[C@@]12C[C@H]3O[C@@H]4[C@@H]([C@H]14)[C@@H]23	
InChI=1S/C8H10O/c1-8-2-3-5(8)4-6(8)7(4)9-3/h3-7H,2H2,1H3	InChI=1S/C8H10O/c1-8-2-3-5(8)4-6(8)7(4)9-3/h3-7H,2H2,1H3/t3-,4-,5+,6+,7-,8+/m1/s1
