20
gdb 114769	3.85772	1.05945	0.89593	1.1539	80.88	-0.2318	0.0179	0.2497	1312.1795	0.172926	-403.125259	-403.116904	-403.11596	-403.158359	32.365	
O	 0.0901862536	 1.3788949786	 0.1360865684	-0.423082
C	 0.044080818	-0.0399605194	 0.0828876058	-0.090596
C	-1.4194273633	-0.4678618894	-0.0362493496	-0.034634
C	-1.5141744901	-1.9870938307	-0.2925996206	-0.222942
C	-2.923474685	-2.5382106886	-0.1045631658	-0.055391
N	-3.1879574013	-3.2077229234	 1.1878825814	-0.338357
C	-3.8089254435	-1.8890307208	 0.8923766122	-0.065468
C	-3.2851852795	-0.7047537034	 1.6176180888	-0.072585
C	-2.2093875884	-0.0486380369	 1.1835282145	-0.036048
H	 0.9954926565	 1.6449675399	 0.319847835	 0.287465
H	 0.6091063374	-0.4226560789	-0.7824330607	 0.083768
H	 0.4825247903	-0.4879040232	 0.9891989237	 0.090467
H	-1.8229505612	 0.0706147402	-0.9073722694	 0.093084
H	-1.1520651428	-2.2129603767	-1.3017959327	 0.092936
H	-0.8545434514	-2.5073058577	 0.4110914285	 0.113488
H	-3.3936479934	-2.9645996176	-0.9870337896	 0.081621
H	-3.8841247644	-3.9388474542	 1.0549477581	 0.224403
H	-4.8803451486	-1.8901668626	 0.6998294471	 0.084351
H	-3.8183682948	-0.3728215363	 2.5047951327	 0.085671
H	-1.8558876183	 0.8399582112	 1.6980203624	 0.10185
70.8335	127.7904	209.4276	215.981	264.7491	341.4586	364.7122	437.7491	506.8239	531.0448	579.0107	737.9055	750.819	816.4503	822.5834	880.7049	919.9741	928.6951	961.1123	990.8334	1011.1585	1056.7418	1065.3474	1080.7982	1107.7869	1127.7266	1165.0654	1187.7472	1216.7939	1224.3251	1249.4442	1271.2391	1274.9932	1311.1151	1342.4565	1358.4003	1396.5442	1420.7575	1453.4263	1455.2544	1479.7503	1520.076	1712.175	2962.1686	2983.3403	3001.7287	3032.6153	3076.0395	3115.4512	3135.258	3153.9572	3182.8987	3479.7249	3834.5881
OCC1CC2NC2C=C1	OC[C@H]1C[C@H]2N[C@H]2C=C1	
InChI=1S/C7H11NO/c9-4-5-1-2-6-7(3-5)8-6/h1-2,5-9H,3-4H2	InChI=1S/C7H11NO/c9-4-5-1-2-6-7(3-5)8-6/h1-2,5-9H,3-4H2/t5-,6+,7-/m1/s1
