17
gdb 69060	3.34675	1.05803	0.93536	3.6361	70.38	-0.2407	0.0007	0.2414	1262.4522	0.133572	-458.944141	-458.935204	-458.93426	-458.978543	32.056	
O	-0.0837740715	 1.3748420552	 0.0692016441	-0.450104
C	-0.0931877753	-0.0012422788	 0.1028559724	 0.356265
C	-0.4718237922	-0.8998696471	-1.0432155379	-0.418594
C	-1.1899551883	-1.0575486997	 0.2862314677	 0.346124
C	-0.3312162313	-1.8182022303	 1.2893154246	-0.292751
C	 0.7935459377	-0.7407917706	 1.0984594382	-0.265179
O	-2.5732115537	-0.8987319728	 0.4119196501	-0.228619
C	-3.365374407	-1.7479930084	-0.2874563141	 0.148933
O	-4.5554851377	-1.711912777	-0.2203555112	-0.266845
H	-0.5004189075	 1.6807849645	-0.7421733627	 0.292959
H	-1.0830617924	-0.4086736413	-1.79801636	 0.11764
H	 0.1936572468	-1.6667222048	-1.4387711325	 0.114414
H	-0.7557266523	-1.7966726676	 2.2948193674	 0.125241
H	-0.0745142307	-2.8499156191	 1.0276376289	 0.101861
H	 1.7556129515	-1.0917657387	 0.7138703984	 0.104963
H	 0.9577673066	-0.1551746568	 2.0047358937	 0.12515
H	-2.7854836625	-2.4497930566	-0.9142489771	 0.088544
60.1235	98.4762	124.1322	138.8778	212.6444	257.7784	361.9189	396.1394	438.862	481.9477	592.012	644.1003	717.6036	794.0341	840.2717	884.7408	931.7832	952.7192	977.7468	1038.8534	1049.5966	1073.82	1105.146	1132.7518	1157.9728	1192.234	1218.2896	1231.592	1237.6845	1305.2374	1395.37	1402.9328	1417.2685	1476.978	1481.0039	1525.0481	1869.4881	2975.2974	3048.7878	3061.6845	3081.2755	3112.9145	3130.0937	3172.1964	3831.9553
OC12CC1(CC2)OC=O	O[C@]12C[C@]1(CC2)OC=O	
InChI=1S/C6H8O3/c7-4-9-6-2-1-5(6,8)3-6/h4,8H,1-3H2	InChI=1S/C6H8O3/c7-4-9-6-2-1-5(6,8)3-6/h4,8H,1-3H2/t5-,6+/m1/s1
