21
gdb 94080	4.19409	0.90728	0.79315	2.951	80.4	-0.2443	-0.0262	0.2181	1461.3392	0.182417	-424.25304	-424.243946	-424.243002	-424.287353	33.949	
C	-0.0437858579	 1.5237919652	 0.0721482119	-0.403594
C	 0.0228397988	 0.007059742	-0.0126936256	 0.148318
C	 0.7073690632	-0.5007738203	-1.2861135447	-0.205246
C	 0.8543604794	-2.0279336282	-1.2600338093	-0.238305
C	 1.5287758097	-2.4882922145	 0.0494860092	-0.073774
C	 0.7926999002	-1.84786254	 1.246913366	-0.090965
O	 0.7317075409	-0.4428871417	 1.1400062954	-0.255819
C	 1.495110951	-3.9946292298	 0.165185702	 0.148092
O	 2.4580264994	-4.703561449	 0.3066234582	-0.246614
H	 0.9633903875	 1.9512771025	 0.0481457429	 0.125339
H	-0.6149152964	 1.9310454884	-0.7674434508	 0.114722
H	-0.5242797234	 1.8325497864	 1.0042042255	 0.125072
H	-1.0020710654	-0.4067220685	 0.0227613897	 0.06075
H	 0.1316749039	-0.1905752804	-2.1653046298	 0.098819
H	 1.69638166	-0.0316235909	-1.3606684134	 0.105741
H	-0.1397521454	-2.4917401437	-1.3337724096	 0.10004
H	 1.4289873867	-2.3766081461	-2.1243074236	 0.11164
H	 2.5769008029	-2.1733603745	 0.0689344955	 0.099648
H	-0.2248558554	-2.271934175	 1.3222465673	 0.086201
H	 1.3178355818	-2.063163105	 2.1817258932	 0.121008
H	 0.4684239387	-4.4318181372	 0.10931067	 0.068927
49.5731	80.8401	212.0843	213.7655	251.5523	260.8664	319.8717	340.938	386.023	479.9928	483.8138	539.8918	611.1491	796.1114	843.7252	874.6468	896.756	940.8452	955.5009	1017.216	1024.6576	1048.5381	1104.1741	1112.6909	1144.9158	1149.4948	1180.4893	1215.617	1245.3302	1272.1104	1308.4717	1339.4367	1340.3019	1369.0591	1383.4503	1400.0534	1412.6615	1417.1773	1429.9495	1475.2918	1484.9083	1488.4016	1497.1047	1502.1076	1831.574	2835.4668	2929.4911	2946.1992	3009.7453	3028.5508	3043.4009	3064.7965	3073.3849	3079.0885	3088.8305	3116.6457	3123.0694
CC1CCC(CO1)C=O	C[C@H]1CC[C@@H](CO1)C=O	
InChI=1S/C7H12O2/c1-6-2-3-7(4-8)5-9-6/h4,6-7H,2-3,5H2,1H3	InChI=1S/C7H12O2/c1-6-2-3-7(4-8)5-9-6/h4,6-7H,2-3,5H2,1H3/t6-,7+/m0/s1
