20
gdb 98207	2.19818	1.00716	0.72297	3.8605	85.99	-0.2344	0.0363	0.2707	1610.9243	0.168248	-403.167686	-403.156305	-403.155361	-403.206287	38.318	
C	-1.0185643175	 1.3370618179	-0.546048104	-0.335784
N	-1.3092177396	-0.0590746651	-0.2940830948	-0.324602
C	-0.4789243233	-0.8616010817	 0.4151574648	 0.449318
O	 0.5754555874	-0.4940085992	 0.9044344926	-0.389909
C	-0.9325902078	-2.3355965504	 0.5759407263	-0.310445
C	-0.8558841043	-2.7297862462	 2.0669566881	-0.379542
C	-2.2342851817	-2.6463273683	-0.0103260465	 0.065913
C	-3.3143845114	-2.9080493279	-0.4785950281	 0.082624
C	-4.6149509295	-3.2469497639	-1.0409916659	-0.501061
H	-0.9528564431	 1.5422654701	-1.6204662487	 0.124737
H	-1.7859944519	 1.9886502782	-0.1130450617	 0.124772
H	-0.0577362647	 1.5603956204	-0.0806020971	 0.169629
H	-2.160914209	-0.4683307071	-0.6457938132	 0.250487
H	-0.1632870311	-2.9099489864	 0.0417071946	 0.132258
H	-1.005679634	-3.8055208743	 2.1846959721	 0.118939
H	 0.1237005907	-2.450238457	 2.4578949894	 0.146605
H	-1.6272229473	-2.2103546121	 2.6426197677	 0.122984
H	-4.8598805583	-4.2988607521	-0.8575385465	 0.154244
H	-5.4130121142	-2.6406427659	-0.598629522	 0.149513
H	-4.6369646794	-3.0873456792	-2.1246331371	 0.149321
30.849	37.4381	83.0957	84.1535	120.9261	155.1474	223.2199	235.3235	290.281	313.7765	325.6881	404.3315	455.6272	510.1676	555.1403	621.5371	746.2585	766.5766	866.1246	971.6273	1051.3645	1054.7528	1056.5376	1074.0563	1114.4328	1154.0944	1175.4993	1186.8529	1258.1282	1283.666	1322.9799	1396.4523	1415.2776	1437.8366	1478.5974	1478.7925	1492.2976	1494.664	1500.0199	1500.5345	1569.5602	1776.5936	2358.9662	3017.5063	3026.323	3028.047	3051.8813	3077.5486	3088.7447	3089.9025	3124.6431	3149.0171	3151.3469	3618.0481
CNC(=O)C(C)C#CC	CNC(=O)[C@@H](C)C#CC	
InChI=1S/C7H11NO/c1-4-5-6(2)7(9)8-3/h6H,1-3H3,(H,8,9)	InChI=1S/C7H11NO/c1-4-5-6(2)7(9)8-3/h6H,1-3H3,(H,8,9)/t6-/m0/s1
