15
gdb 30332	3.07655	1.6364	1.12461	1.3493	67.38	-0.206	-0.0077	0.1983	1016.3069	0.11554	-453.950126	-453.942985	-453.942041	-453.982427	27.013	
O	 0.1407431352	 1.4153539498	 0.2644059155	-0.420381
C	 0.104461326	 0.0174204331	 0.0258589548	-0.017494
C	-1.3734977703	-0.5526583948	-0.1353735098	-0.193924
N	-1.4037143154	-1.4937733604	-1.2982024811	-0.407033
C	-0.1955850965	-1.2600698855	-1.9483085289	 0.293487
C	 0.6545561103	-0.4690493143	-1.2634435876	 0.219348
O	 1.8586317597	-0.4777673266	-1.9229088725	-0.193248
C	 1.6040525359	-1.2555398983	-3.0059174079	 0.048864
N	 0.4052162736	-1.7614629606	-3.0828877236	-0.344263
H	-0.1016559072	 1.854086121	-0.5596091172	 0.273563
H	 0.5908396029	-0.4154274024	 0.9068990347	 0.110763
H	-1.7051514817	-1.065768759	 0.7699447187	 0.12498
H	-2.0331885092	 0.3075379565	-0.3005301751	 0.11171
H	-2.2338680698	-1.4220246236	-1.874127748	 0.242023
H	 2.4137011965	-1.3745942049	-3.7091014718	 0.151605
43.7501	160.7189	270.7283	314.3491	359.1425	443.9917	506.7243	586.2674	632.2256	663.4826	717.0267	759.5519	797.1973	826.9568	934.3353	947.8319	966.0243	1022.111	1066.6985	1109.4615	1138.181	1197.3511	1245.323	1269.9734	1297.0413	1325.5186	1326.6039	1377.4705	1432.6513	1467.5134	1502.8726	1525.869	1682.3585	3036.6486	3047.1647	3103.0669	3274.5612	3548.9562	3788.3567
OC1CNC2=C1OC=N2	O[C@H]1CNc2c1ocn2	
InChI=1S/C5H6N2O2/c8-3-1-6-5-4(3)9-2-7-5/h2-3,6,8H,1H2	InChI=1S/C5H6N2O2/c8-3-1-6-5-4(3)9-2-7-5/h2-3,6,8H,1H2/t3-/m0/s1
