23
gdb 36952	4.6743	0.83191	0.74472	0.9036	86.98	-0.2391	0.078	0.3171	1602.2565	0.206343	-388.265068	-388.256094	-388.25515	-388.299885	34.077	
C	-0.1354474978	 1.3901057723	 0.0133884098	-0.221238
C	 1.3839696736	 1.6248112674	 0.2413513995	-0.251613
C	 1.4883169331	 0.1651138433	 0.7244683009	 0.169123
C	 0.1453141198	-0.1378433022	-0.0023216625	-0.239742
O	 2.661135964	-0.5008990987	 0.3363611094	-0.25942
C	 2.8248661658	-1.7816958471	 0.8863961895	 0.169121
C	 2.1130137537	-3.0039731142	 0.2360685935	-0.239736
C	 3.4293174361	-3.8022900043	 0.4452009587	-0.221241
C	 4.180210366	-2.4481691594	 0.5800840654	-0.251609
H	-0.7300629651	 1.6881708477	 0.8813625253	 0.102847
H	-0.5838234425	 1.8290197358	-0.8797208747	 0.100866
H	 1.918436609	 1.7349682206	-0.7064698772	 0.1123
H	 1.6994178644	 2.4166947229	 0.9241498387	 0.09608
H	 1.3582203236	 0.0962867676	 1.8163850608	 0.06236
H	-0.5710131245	-0.8059624678	 0.481802864	 0.091881
H	 0.3437775653	-0.4952866381	-1.0166897151	 0.106834
H	 2.6294452327	-1.7553304054	 1.9703950236	 0.062365
H	 1.1955087206	-3.3790422608	 0.6958365522	 0.091884
H	 1.9312363429	-2.8076025126	-0.8243551344	 0.106837
H	 3.4237087348	-4.3621724097	 1.3845067373	 0.102848
H	 3.7435273312	-4.4741471774	-0.3555545476	 0.100867
H	 4.5493649811	-2.0972408614	-0.3877681197	 0.112303
H	 4.9773179922	-2.3578367184	 1.3212016628	 0.096082
46.1613	64.307	109.3334	152.1449	237.0652	301.3551	345.2359	462.1684	472.0335	634.9207	646.6488	759.4793	774.3789	785.0633	792.9083	902.736	903.1367	922.6681	924.162	940.1275	947.7751	970.2276	988.5496	1042.8074	1069.7183	1099.9391	1136.9238	1176.2668	1178.4734	1192.4948	1195.4027	1238.0013	1243.3814	1246.0145	1255.9742	1257.8559	1258.2501	1271.4175	1274.1267	1297.5746	1305.9712	1365.8147	1429.8485	1470.619	1473.1571	1486.7465	1487.9913	1508.0195	1512.8077	2968.8229	2975.6216	3055.6381	3058.8257	3061.9312	3062.0843	3066.1073	3066.7422	3106.0556	3107.5421	3114.8849	3116.4041	3127.0097	3128.0421
C1CC(C1)OC1CCC1	C1CC(C1)OC1CCC1	
InChI=1S/C8H14O/c1-3-7(4-1)9-8-5-2-6-8/h7-8H,1-6H2	InChI=1S/C8H14O/c1-3-7(4-1)9-8-5-2-6-8/h7-8H,1-6H2
