21
gdb 118447	2.11934	1.032	0.79053	4.9416	76.43	-0.2411	0.0232	0.2643	1526.9277	0.182578	-457.561783	-457.551409	-457.550465	-457.597833	36.604	
C	-0.0325897778	 1.4049364993	-0.0911479909	-0.316957
N	-0.0680063172	-0.051973353	-0.0013649539	-0.292865
C	 0.6008963799	-0.5772690492	 1.1839389839	-0.155864
C	 0.6872904168	-2.1125800666	 1.114932641	-0.134723
N	 1.3757991339	-2.5156025309	-0.1093056053	-0.308672
H	 1.1838688099	-1.8050181869	-0.8110904106	 0.237899
H	 2.8108952621	-2.7977329039	 1.1049574452	 0.303258
C	 0.9977988779	-3.8390712732	-0.6056375219	-0.327254
C	 1.4605234071	-2.6062393182	 2.352193473	 0.428786
O	 0.9847995853	-2.6536530277	 3.4546653258	-0.347331
O	 2.7320654778	-2.9304397943	 2.0781144053	-0.368548
H	 1.0048934462	 1.7368035211	-0.2055595211	 0.129755
H	-0.5874740584	 1.7296739161	-0.9758057249	 0.123522
H	-0.4529786968	 1.9188783426	 0.7895474411	 0.10585
H	-1.0349343041	-0.3639473774	-0.0030122477	 0.222437
H	 1.6182799496	-0.1655671872	 1.2006221545	 0.115691
H	 0.1217094233	-0.2982570564	 2.1349857754	 0.118978
H	-0.3311755449	-2.5268455291	 1.186040193	 0.087426
H	 1.2909490331	-4.6046859741	 0.1200991814	 0.138717
H	-0.0835927701	-3.9429393246	-0.787848162	 0.111655
H	 1.5286692164	-4.0422627566	-1.5394487013	 0.12824
67.3496	93.7351	112.3817	121.8757	146.0084	210.084	240.9018	255.9242	305.0465	343.1025	350.8007	502.9345	551.7516	663.1743	730.0007	799.1131	831.9235	863.3364	894.221	953.0202	996.1875	1038.5198	1054.1032	1129.6859	1131.758	1142.9598	1164.9284	1184.15	1218.0418	1243.5525	1290.2232	1297.9938	1355.9402	1386.9518	1418.1766	1458.8616	1463.2582	1479.8392	1485.8015	1490.8482	1500.9866	1511.3874	1517.045	1518.389	1870.9787	2965.5704	2977.9101	2981.902	2989.807	3049.9211	3065.2805	3073.0895	3110.038	3115.6183	3429.4831	3494.5515	3502.0362
CNCC([NH2+]C)C([O-])=O	CNC[C@@H](NC)C(=O)O	
InChI=1S/C5H12N2O2/c1-6-3-4(7-2)5(8)9/h4,6-7H,3H2,1-2H3,(H,8,9)	InChI=1S/C5H12N2O2/c1-6-3-4(7-2)5(8)9/h4,6-7H,3H2,1-2H3,(H,8,9)/t4-/m1/s1
