20
gdb 77482	2.01247	1.53554	1.41805	2.4523	76.21	-0.1967	0.0604	0.2571	1097.9336	0.167899	-440.227297	-440.217304	-440.21636	-440.261252	37.211	
C	-0.2641940707	 1.4640032396	 0.0550495258	-0.336203
N	 0.1278929013	 0.0630881706	 0.0112941014	-0.105596
C	 1.2145486668	-0.3702238557	-0.8992953286	-0.232305
C	 1.8742217579	-1.1148251169	 0.2660142002	 0.229832
O	 2.3492875305	-2.413277744	 0.2067549029	-0.455144
C	 2.2036330171	-0.1467407694	 1.3734572078	-0.036974
O	 2.6191721526	 1.1745183509	 1.162860348	-0.414291
C	 0.7621534042	-0.5653774173	 1.1698881512	 0.263961
C	-0.0785072705	-1.1884228497	 2.2454339267	-0.481288
H	 0.5730291756	 2.1573919268	 0.2129904801	 0.121302
H	-0.7699894905	 1.7230119246	-0.8819240483	 0.111262
H	-0.9876452365	 1.6055049348	 0.8650331681	 0.115808
H	 0.8556299703	-1.0325888379	-1.6942855408	 0.106498
H	 1.8084297887	 0.4434936963	-1.3371873643	 0.083795
H	 3.2946887722	-2.3901089962	 0.0225254745	 0.284313
H	 2.6644704241	-0.6410750209	 2.2319784659	 0.087748
H	 3.5085652807	 1.1588686128	 0.7921190335	 0.282399
H	-0.5531011096	-0.4217330452	 2.8692847132	 0.122072
H	-0.8680170715	-1.8024293356	 1.8023397365	 0.129302
H	 0.5292030474	-1.8200299276	 2.8996825961	 0.123511
153.0962	158.3655	165.254	184.2781	203.3085	214.7247	254.7715	274.9418	298.0066	312.8679	363.4826	435.1972	563.9626	578.2837	642.4351	690.6417	725.4703	834.8402	859.2779	969.5876	983.6532	1015.2317	1090.2447	1106.2919	1124.2544	1150.4765	1166.3344	1188.362	1231.4243	1245.8395	1262.9719	1293.1003	1309.6033	1334.6394	1357.5457	1410.4478	1443.7599	1475.3333	1478.9784	1483.5306	1498.9888	1510.367	1519.4912	3001.536	3008.1008	3030.1337	3064.7109	3068.755	3079.9664	3091.4109	3094.3921	3117.3065	3787.8117	3791.4669
CN1CC2(O)C(O)C12C	CN1C[C@@]2(O)[C@@H](O)[C@@]12C	
InChI=1S/C6H11NO2/c1-5-4(8)6(5,9)3-7(5)2/h4,8-9H,3H2,1-2H3	InChI=1S/C6H11NO2/c1-5-4(8)6(5,9)3-7(5)2/h4,8-9H,3H2,1-2H3/t4-,5+,6+/m0/s1
