23
gdb 53610	3.81521	0.72241	0.64554	0.1853	95.09	-0.2387	0.0643	0.3029	1835.4062	0.204322	-351.129916	-351.11927	-351.118326	-351.167388	38.033	
C	 0.0300499068	 1.4653262559	-0.1724812725	-0.497455
C	 0.0315138661	 0.0095374986	-0.212577047	 0.120059
C	 0.0438704467	-1.1943653628	-0.2475644701	 0.022157
C	 0.0257648974	-2.6538349826	-0.2782749908	-0.378665
C	-1.3199939977	-3.235294827	 0.1916997037	 0.009456
C	-2.4751393662	-3.0344895193	-0.8307433783	-0.216786
C	-2.2743357391	-4.4974826731	-1.3095484611	-0.227054
C	-1.4839946877	-4.7820233864	-0.0016382017	 0.039494
C	-0.2723069238	-5.7024567873	-0.0431694947	-0.412338
H	 0.8378924353	 1.8486017657	 0.4610862909	 0.144611
H	 0.1641435107	 1.8935002058	-1.1722766005	 0.14437
H	-0.9137334382	 1.8527790429	 0.2275641608	 0.144866
H	 0.2467397563	-2.9979868276	-1.2977239644	 0.120394
H	 0.8345532978	-3.0453916887	 0.3527239654	 0.121919
H	-1.5165399294	-2.8708262909	 1.2038906443	 0.069316
H	-3.4400442991	-2.8912325298	-0.3371390152	 0.097229
H	-2.3417582846	-2.2360347557	-1.5647859046	 0.102485
H	-3.1671411008	-5.0986242544	-1.4996583155	 0.092212
H	-1.630332979	-4.5568287184	-2.1931637546	 0.096185
H	-2.1804299577	-5.1452105121	 0.763042741	 0.070011
H	 0.451654624	-5.3916085297	-0.8037179823	 0.113397
H	 0.2472195902	-5.73051801	 0.9215551096	 0.113138
H	-0.5762009981	-6.7277470632	-0.2823827424	 0.110999
19.4413	55.6392	80.6255	119.7261	188.6531	217.5872	229.9814	264.442	336.9821	359.6635	389.8184	472.9383	494.9907	635.8924	752.2854	768.1992	833.4451	879.6846	891.8242	918.1648	947.617	959.1983	1010.303	1052.3457	1053.8603	1076.5002	1128.2207	1139.8192	1160.5367	1169.0045	1211.072	1231.7756	1258.3304	1262.9774	1274.0568	1304.5103	1325.3346	1372.9217	1378.8889	1409.7571	1415.6665	1471.8909	1479.6799	1479.8888	1483.5189	1495.5338	1499.447	1502.5511	2371.214	3008.5271	3023.63	3024.3535	3028.8705	3036.9261	3047.381	3056.7397	3066.895	3082.7826	3082.9761	3086.8039	3093.0806	3097.7016	3113.7238
CC#CCC1CCC1C	CC#CC[C@H]1CC[C@H]1C	
InChI=1S/C9H14/c1-3-4-5-9-7-6-8(9)2/h8-9H,5-7H2,1-2H3	InChI=1S/C9H14/c1-3-4-5-9-7-6-8(9)2/h8-9H,5-7H2,1-2H3/t8-,9+/m1/s1
