18
gdb 8391	4.63984	1.22511	1.12886	0.2651	68.24	-0.2341	0.0709	0.305	1082.9297	0.152216	-384.900287	-384.891808	-384.890864	-384.933469	31.506	
O	 0.4054589253	 1.2952800692	 0.4536912385	-0.428265
C	 0.1681595367	-0.0803527706	 0.3534042477	 0.083369
C	-0.7211644856	-0.8227759798	 1.3211936363	-0.392158
C	-1.1423721804	-0.6158073637	-0.1202554352	 0.310944
C	-2.3609865813	 0.2068115703	-0.567444629	-0.358643
C	-2.8759077311	-1.0756726729	-1.2880429314	 0.179869
O	-3.4849685837	-0.9702921638	-2.5467889151	-0.432002
C	-1.4562331034	-1.7012061913	-1.158602733	-0.351619
H	-0.4299145797	 1.7367559882	 0.6381822362	 0.285658
H	 1.0753793623	-0.5764238197	 0.0213257726	 0.105349
H	-0.4232670524	-1.8163581499	 1.643494859	 0.114039
H	-1.2363054248	-0.2419813226	 2.0821561242	 0.108392
H	-3.0099291957	 0.6465726461	 0.1952829407	 0.102106
H	-2.0850486951	 0.9859398911	-1.290154579	 0.097064
H	-3.5933151862	-1.6082903546	-0.6582513532	 0.099182
H	-2.8731581398	-0.5186218361	-3.1380731497	 0.27734
H	-0.876905014	-1.572277488	-2.0814807755	 0.094372
H	-1.3935681712	-2.7472600618	-0.8479765742	 0.105003
63.1898	97.2782	160.5465	206.9683	287.4356	321.0291	374.4526	427.5313	446.7664	468.8251	584.9704	715.3169	792.4937	826.6807	878.0534	895.9623	919.9828	995.8511	1010.3551	1017.1461	1058.884	1063.4151	1096.2395	1110.9478	1150.2247	1184.2737	1200.1935	1215.2786	1245.7721	1280.6575	1312.4304	1331.6987	1357.7404	1433.4707	1436.7153	1469.5762	1489.9324	1493.9464	3019.3848	3028.6508	3073.0968	3089.0855	3100.0015	3109.024	3155.9608	3196.2782	3803.0373	3818.4379	63.1904	97.285	160.5467	206.9684	287.4355	321.0288	374.4526	427.5313	446.7664	468.8252	584.9704	715.3169	792.4937	826.6808	878.0533	895.9623	919.9828	995.8511	1010.355	1017.1461	1058.884	1063.4151	1096.2395	1110.9478	1150.2247	1184.2737	1200.1935	1215.2785	1245.7721	1280.6576	1312.4304	1331.6987	1357.7404	1433.4708	1436.7154	1469.576	1489.9324	1493.9463	3019.3847	3028.6508	3073.0968	3089.0855	3100.0015	3109.024	3155.9608	3196.2782	3803.037	3818.4385
OC1CC11CC(O)C1	O[C@H]1C[C@]21C[C@@H](O)C2	
InChI=1S/C6H10O2/c7-4-1-6(2-4)3-5(6)8/h4-5,7-8H,1-3H2	InChI=1S/C6H10O2/c7-4-1-6(2-4)3-5(6)8/h4-5,7-8H,1-3H2/t4-,5-,6+/m0/s1
