13
gdb 23751	3.36772	2.23129	1.34209	0.6542	63.12	-0.2242	-0.0029	0.2213	829.708	0.096709	-406.633595	-406.627378	-406.626434	-406.663749	24.555	
O	 0.0816584867	 1.3721692655	-0.0643854318	-0.439601
C	 0.0559352066	 0.0140302478	-0.0511670909	 0.280756
C	 0.0224406968	-0.7040772182	-1.2430158738	-0.198624
C	-0.0036825188	-2.0968229012	-1.2137787667	-0.096167
C	 0.0032650707	-2.7847900739	-0.0026974497	-0.119472
C	 0.0367587251	-2.0742578791	 1.1976200923	-0.227343
C	 0.062371186	-0.6942746425	 1.1520854273	 0.17351
F	 0.0951687062	 0.0373299814	 2.2871926455	-0.103282
H	 0.1026386547	 1.6748310368	 0.8518664722	 0.303218
H	 0.0174100898	-0.1553269793	-2.1777598413	 0.11206
H	-0.0296819485	-2.6463698266	-2.1482894422	 0.100212
H	-0.0171523081	-3.8681315664	 0.0146297612	 0.101815
H	 0.0432486329	-2.5706255042	 2.161046888	 0.112918
195.198	297.1541	299.4451	437.3047	441.524	465.7729	559.8384	569.0908	582.259	714.9116	768.6119	780.883	858.4687	867.4111	922.4542	956.8328	1045.7022	1110.069	1174.5149	1191.3229	1260.3294	1293.2124	1327.0078	1398.9237	1502.6851	1539.5953	1647.4638	1653.637	3182.8273	3195.699	3203.6924	3211.1234	3795.3198
OC1=CC=CC=C1F	Oc1ccccc1F	
InChI=1S/C6H5FO/c7-5-3-1-2-4-6(5)8/h1-4,8H	InChI=1S/C6H5FO/c7-5-3-1-2-4-6(5)8/h1-4,8H
