13
gdb 129214	3.19692	1.53964	1.03918	1.3772	80.34	-0.2283	-0.0898	0.1384	1051.0393	0.090392	-411.752012	-411.744612	-411.743668	-411.784073	27.806	
N	-0.0562516442	 1.2536312434	 0.4133355004	-0.542941
C	-0.0095104404	 0.0297628086	 0.0507728138	 0.34395
N	 1.1204711442	-0.6802688173	-0.3542125267	-0.291549
N	 1.1722681573	-1.9684173951	-0.7364378622	-0.16745
C	 0.0381720535	-2.5984242634	-0.7187034996	 0.054782
N	-1.1784639609	-2.0783168815	-0.3532879633	-0.313303
C	-1.2161865056	-0.8302665502	 0.0147723635	 0.115511
C	-2.4561798817	-0.2511332415	 0.4014678418	 0.317921
C	-3.5119398692	 0.2257966515	 0.7260315262	-0.34063
H	 0.8618835616	 1.7004263645	 0.3806047957	 0.206251
H	 2.0120597197	-0.2059212852	-0.3742484902	 0.270369
H	 0.0555759976	-3.6374663261	-1.0227031771	 0.138286
H	-4.4407957519	 0.6537133824	 1.0139630077	 0.208803
84.0827	149.4992	183.3554	342.4118	371.1207	460.7396	485.4417	554.9168	582.8604	604.2395	650.5	662.1009	671.9012	724.538	802.0477	823.9353	902.9814	917.2912	1081.709	1123.2698	1197.8571	1224.6099	1353.8907	1397.4632	1449.7366	1544.6548	1612.1583	1706.4821	2230.619	3219.7614	3456.4773	3500.4771	3604.2518
N=C1NN=CN=C1C#C	[NH]c1[nH]ncnc1C#C	
InChI=1S/C5H4N4/c1-2-4-5(6)9-8-3-7-4/h1,3H,(H2,6,9)	InChI=1S/C5H9N4/c1-2-4-5(6)9-8-3-7-4/h1,4-9H,3H2
