17
gdb 126171	4.09428	0.92988	0.90776	3.0611	71.13	-0.2766	-0.0431	0.2335	1338.8701	0.134572	-455.124076	-455.115162	-455.114217	-455.158485	31.868	
C	 0.0587281294	 1.5499329888	 0.142670057	-0.389154
C	 0.022759468	 0.0250438176	 0.0300470626	-0.192779
C	 0.6826725095	-0.4815605584	-1.2653727791	-0.001012
O	 2.0348956251	-0.0631111284	-1.3861141551	-0.42052
C	 0.5780104646	-1.9747992315	-1.3864912134	 0.440542
C	-0.0957297324	-2.8150207935	-2.2177207727	-0.226926
N	 0.2105784816	-4.0978323746	-1.8275558879	-0.101823
N	 0.9989030909	-4.0987514998	-0.8551482978	-0.008223
O	 1.2701231161	-2.7133696695	-0.520194439	-0.240852
H	 1.0858598381	 1.9176855697	 0.0818105593	 0.13467
H	-0.5125270777	 2.0191124097	-0.6658766712	 0.118231
H	-0.3719999859	 1.880122138	 1.0919950682	 0.118725
H	 0.5372182329	-0.4365855448	 0.8826006352	 0.111195
H	-1.0111131769	-0.3397194679	 0.0602147156	 0.109506
H	 0.1687127735	-0.0417685424	-2.1270873939	 0.110258
H	 2.541779407	-0.5038933863	-0.6938161977	 0.294318
H	-0.7534880338	-2.6079909364	-3.0438819701	 0.143844
50.8389	97.1532	114.7243	187.0465	226.7927	280.9226	319.6851	356.5059	411.1478	494.5451	594.9974	696.1218	744.7302	760.2363	799.6602	826.9263	898.5154	983.367	988.6886	1044.7188	1063.1158	1109.213	1115.6913	1122.313	1242.0392	1251.1601	1278.8959	1334.3309	1371.9422	1389.1226	1409.4317	1423.0008	1469.8814	1484.1644	1495.7643	1508.7808	1602.0696	3027.2799	3041.1261	3055.3921	3071.8675	3108.1723	3128.9514	3293.002	3796.1586
CCC(O)C1=CN=NO1	CC[C@@H](O)c1cnno1	
InChI=1S/C5H8N2O2/c1-2-4(8)5-3-6-7-9-5/h3-4,8H,2H2,1H3	InChI=1S/C5H8N2O2/c1-2-4(8)5-3-6-7-9-5/h3-4,8H,2H2,1H3/t4-/m1/s1
