27
gdb 101163	2.23577	1.04875	0.85228	0.1323	96.19	-0.256	0.0761	0.3321	1564.5009	0.250292	-353.558764	-353.547169	-353.546225	-353.595369	42.829	
C	-0.1717165886	 1.6162961068	-0.031171583	-0.393065
C	-0.157376524	 0.0977300988	-0.2345718641	-0.16292
C	 0.9729612302	-0.4258527361	-1.1454752819	 0.02355
C	 2.3665929342	-0.1596743861	-0.5522103192	-0.395368
C	 0.7887366733	-1.9146269066	-1.3998534655	-0.008111
C	-0.1531119344	-2.4851822983	-2.4440976097	-0.038377
C	-0.9915171168	-1.6296362232	-3.3722729262	-0.407072
C	 1.3466600365	-2.6427252509	-2.6087823168	-0.042514
C	 2.1245690009	-1.9539716672	-3.7120505446	-0.406774
H	 0.7249626692	 1.9715866601	 0.4855818015	 0.117076
H	-0.2322318426	 2.143380279	-0.9904346721	 0.110657
H	-1.0357245564	 1.9215042786	 0.5677956507	 0.109924
H	-0.0842602422	-0.4025053659	 0.7413742402	 0.088823
H	-1.1180220657	-0.2144034399	-0.6608492847	 0.097412
H	 0.9052134138	 0.1174029971	-2.0964464512	 0.06297
H	 2.4766501112	-0.6608805152	 0.4172661673	 0.108421
H	 3.1524854747	-0.5397597676	-1.2113223777	 0.11549
H	 2.5489601594	 0.9078111992	-0.3978168147	 0.109515
H	 0.8307841376	-2.4867659047	-0.4733136136	 0.070526
H	-0.6712110209	-3.3911599167	-2.1369722497	 0.075644
H	-0.4912842947	-0.7047911251	-3.6686401789	 0.115333
H	-1.2334104456	-2.1768366599	-4.2907076369	 0.11334
H	-1.9397594198	-1.3502545638	-2.8994782128	 0.115589
H	 1.7214495029	-3.6425753238	-2.4006742028	 0.075464
H	 1.7898573767	-0.9301218918	-3.8939534423	 0.115819
H	 3.1920196265	-1.9092630844	-3.4690699251	 0.115594
H	 2.0273541745	-2.5012925127	-4.6567579463	 0.113053
66.2815	79.7514	118.99	160.4302	164.8737	179.7547	212.4789	231.972	252.1368	269.4412	296.5713	388.7137	411.806	465.9937	532.4345	567.2311	758.3602	767.7238	778.4117	824.4762	860.2669	947.7746	949.203	968.1523	978.8581	1011.8322	1038.599	1048.3411	1062.4928	1110.0195	1134.5952	1148.349	1162.9718	1178.5601	1191.8661	1202.8714	1272.0782	1283.7156	1306.8147	1351.7476	1373.3618	1379.3164	1403.9862	1406.6246	1413.4034	1419.3017	1424.462	1454.1438	1481.3201	1488.8086	1494.1429	1496.1819	1498.7601	1502.3508	1505.3117	1510.4938	1516.0365	3009.5895	3022.426	3028.7685	3029.821	3031.5295	3032.7964	3055.1326	3080.9223	3082.6069	3094.2335	3094.7774	3099.7529	3104.5477	3105.1493	3112.4427	3117.6675	3122.5208	3136.0281
CCC(C)C1C(C)C1C	CC[C@@H](C)[C@H]1[C@@H](C)[C@H]1C	
InChI=1S/C9H18/c1-5-6(2)9-7(3)8(9)4/h6-9H,5H2,1-4H3	InChI=1S/C9H18/c1-5-6(2)9-7(3)8(9)4/h6-9H,5H2,1-4H3/t6-,7-,8+,9-/m1/s1
