20
gdb 117961	3.51185	0.85479	0.72614	4.2606	73.36	-0.2543	0.0396	0.294	1570.7545	0.169555	-477.422719	-477.412386	-477.411442	-477.458611	36.898	
C	-0.5398657519	 1.0775880855	 0.2937877043	-0.228015
O	-0.2125137275	-0.2904440783	 0.5369317489	-0.244918
C	 1.0431266115	-0.5264208462	 0.973270604	 0.388096
N	 1.8898434204	 0.3948483023	 1.1535901849	-0.541031
C	 1.2463806394	-2.0180156979	 1.2021973948	 0.053408
O	 2.6201916363	-2.2284660082	 1.4444945935	-0.448107
C	 0.3570644113	-2.518288213	 2.3559989236	-0.214525
C	 0.4025339825	-4.0300576458	 2.5379578455	-0.099497
O	 1.7367677098	-4.3997385949	 2.9082405342	-0.417577
H	 0.1191629279	 1.5034633051	-0.4678496735	 0.138265
H	-1.5754686749	 1.0800469916	-0.0496704967	 0.121029
H	-0.43592293	 1.6703834007	 1.2069890615	 0.135532
H	 2.7583303285	-0.0320096766	 1.4770584095	 0.239965
H	 0.9273038371	-2.5317909274	 0.2780720239	 0.078656
H	 2.6923751676	-3.0570547607	 1.940411491	 0.295447
H	 0.6760676061	-2.0312835246	 3.2851429186	 0.119839
H	-0.6767135795	-2.2191118568	 2.1599067724	 0.123146
H	-0.3062512911	-4.3380139911	 3.3195645383	 0.102166
H	 0.1101026404	-4.5291300948	 1.601981984	 0.100488
H	 1.8245926061	-5.355450109	 2.8498108673	 0.297635
56.0704	72.7809	112.5697	168.2485	175.6475	216.6912	252.5179	298.0435	298.8581	366.1385	398.6127	456.4628	511.299	546.0779	633.254	737.0526	853.9162	884.4957	919.3388	936.3488	962.6335	1017.8336	1077.6783	1096.032	1129.8956	1141.2184	1181.6878	1202.7029	1219.4703	1245.451	1288.8897	1299.9221	1346.8491	1374.0331	1393.8559	1439.6564	1463.8363	1467.9288	1476.1461	1484.7631	1501.3247	1519.446	1744.4843	2945.5747	2987.9221	3022.6188	3044.0998	3049.9378	3105.0263	3115.9233	3145.8707	3493.0474	3709.2543	3836.5978
COC(=N)C(O)CCO	CO[C]([NH])[C@@H](O)CCO	
InChI=1S/C5H11NO3/c1-9-5(6)4(8)2-3-7/h4,6-8H,2-3H2,1H3	InChI=1S/C5H11NO3/c1-9-5(6)4(8)2-3-7/h4,6-8H,2-3H2,1H3/t4-/m0/s1
