13
gdb 23666	3.76667	1.79612	1.21619	0.8274	63.28	-0.2259	-0.0029	0.223	891.4583	0.096489	-406.634605	-406.628349	-406.627405	-406.664857	24.718	
O	 0.0979381936	 1.3617944189	-0.1042235807	-0.441046
C	 0.0669833952	 0.0028408062	-0.0337397589	 0.436248
C	 0.0165572104	-0.7046676165	-1.2375173302	-0.203326
C	-0.016357299	-2.0930737726	-1.2121562951	-0.071378
C	-0.0001176954	-2.7972760689	-0.0085175775	-0.273088
C	 0.0501133894	-2.0673881487	 1.1687695031	 0.336905
F	 0.0668815476	-2.7133296997	 2.3402159335	-0.084455
C	 0.0841251302	-0.6796208111	 1.1835010602	-0.418887
H	 0.1313893127	 1.7259350271	 0.7862948866	 0.299752
H	 0.0041590477	-0.1524274251	-2.1692248968	 0.106608
H	-0.0554937685	-2.6412546259	-2.1473318593	 0.106319
H	-0.0252899597	-3.8789142415	 0.0281466448	 0.108018
H	 0.1230810457	-0.1549517823	 2.1325902903	 0.09833
230.7804	243.9266	330.5795	376.558	465.6818	481.3156	518.8055	535.2531	627.6161	698.0821	753.886	787.4744	843.1726	876.6347	959.5816	980.054	1012.9148	1088.9548	1163.46	1189.4012	1208.9806	1312.0878	1350.61	1363.3722	1493.8836	1538.5073	1643.836	1657.803	3182.1918	3185.64	3209.6074	3217.134	3825.9852
OC1=CC=CC(F)=C1	Oc1cccc(F)c1	
InChI=1S/C6H5FO/c7-5-2-1-3-6(8)4-5/h1-4,8H	InChI=1S/C6H5FO/c7-5-2-1-3-6(8)4-5/h1-4,8H
