19
gdb 81767	2.13665	1.7374	1.31041	2.0799	70.96	-0.2329	0.0596	0.2925	1047.4815	0.156685	-460.127426	-460.118044	-460.1171	-460.160685	36.306	
C	-0.1012123855	 1.6128894656	-0.0106989508	-0.480667
C	 0.0416826442	 0.1025806316	 0.0127481944	 0.255845
O	-1.207741646	-0.5453254632	-0.2511174552	-0.48677
C	 1.1252210077	-0.5652898684	-0.9166659367	 0.084372
O	 2.0125466362	 0.2779284657	-1.6201891596	-0.428511
C	 1.7490615211	-1.2551974331	 0.2860518726	-0.161167
C	 2.1532580869	-0.2352034121	 1.3358827073	-0.339151
C	 0.7161757269	-0.5841688839	 1.2112294383	 0.396114
O	-0.0088277978	-1.0856500597	 2.2691928617	-0.465821
H	 0.869276146	 2.1041161387	 0.0824566608	 0.139142
H	-0.557851021	 1.9368981474	-0.9526268821	 0.114243
H	-0.7358833061	 1.9576514517	 0.8150133288	 0.116114
H	-1.8941129911	-0.0473385361	 0.2061298078	 0.280964
H	 0.6199340935	-1.2741409742	-1.5843887356	 0.080696
H	 1.5487997371	 0.6335102832	-2.3851795834	 0.284023
H	 2.1533036119	-2.2593048586	 0.2923351808	 0.088814
H	 2.6334325563	-0.6741534376	 2.2049464434	 0.121665
H	 2.5439075511	 0.7369458868	 1.0502694233	 0.118837
H	-0.7536958314	-1.5561251536	 1.871313654	 0.281259
118.3629	176.6733	187.4288	206.6418	246.3729	261.8845	294.2512	310.006	392.1824	412.927	462.8187	513.1768	540.6563	589.8048	633.6732	685.7995	791.1686	862.2406	908.7403	924.1796	952.7989	962.4282	1022.0715	1039.8147	1076.7899	1099.3417	1118.5842	1145.338	1173.5306	1196.5299	1233.8323	1284.5124	1302.3547	1344.9503	1379.4246	1402.6481	1424.6115	1434.3989	1486.9898	1490.9072	1510.6421	3025.5262	3029.2151	3087.5864	3120.9705	3132.1961	3193.8831	3207.5156	3758.9535	3804.3589	3814.9485
CC1(O)C(O)C2CC12O	C[C@@]1(O)[C@@H](O)[C@H]2C[C@@]12O	
InChI=1S/C6H10O3/c1-5(8)4(7)3-2-6(3,5)9/h3-4,7-9H,2H2,1H3	InChI=1S/C6H10O3/c1-5(8)4(7)3-2-6(3,5)9/h3-4,7-9H,2H2,1H3/t3-,4+,5-,6+/m1/s1
