19
gdb 10334	2.27891	1.84427	1.19482	3.3453	68.73	-0.2432	-0.0288	0.2144	1055.6281	0.163014	-402.179376	-402.169861	-402.168916	-402.214081	33.603	
C	-0.1383734791	 1.5582771279	 0.0802926871	-0.329466
N	 0.0239118865	 0.1240908572	-0.1550309845	-0.0925
C	 1.0206629678	-0.4242212247	 0.7631942133	-0.329776
C	-1.2436889211	-0.6131659992	-0.1040924199	-0.060446
C	-2.1708249251	-0.1374343917	-1.248044617	-0.083661
O	-1.4919359225	-0.1444394866	-2.4853241286	-0.428918
C	-1.0003466095	-2.1033558404	-0.3242364697	 0.154332
O	-1.5753659692	-2.9697632492	 0.2808582266	-0.251223
H	 0.8431527771	 2.0383445774	 0.0322425243	 0.126876
H	-0.7669252879	 2.0130189319	-0.6880927086	 0.136192
H	-0.5790037106	 1.78165333	 1.0683174387	 0.106244
H	 0.7242268481	-0.3252414474	 1.8224556049	 0.108593
H	 1.1932134668	-1.484490749	 0.5600825519	 0.13484
H	 1.9702036755	 0.1007194525	 0.6245274984	 0.126628
H	-1.7705246703	-0.5034240812	 0.8600801059	 0.07746
H	-3.0264006768	-0.8169660363	-1.3238355906	 0.125879
H	-2.5723264475	 0.8585964838	-1.006483268	 0.096369
H	-0.5761298951	 0.0916877891	-2.2793623992	 0.287196
H	-0.2800038471	-2.3361943141	-1.1379671248	 0.095383
44.9267	81.8018	115.2402	198.3994	223.7484	248.4832	288.1072	340.1358	360.3695	410.147	446.7159	491.7033	508.063	633.1471	845.9902	886.2301	954.9459	1022.1482	1059.8937	1065.1988	1088.47	1119.9538	1128.9708	1175.6778	1212.6193	1239.301	1286.7653	1298.1136	1330.0118	1370.0943	1414.1381	1438.0378	1446.4499	1481.8289	1483.3631	1495.5099	1501.0284	1512.1746	1530.8559	1835.8734	2900.5537	2950.5103	2953.4494	2959.3827	2985.3079	3070.2407	3073.8836	3081.1638	3115.4876	3125.9312	3724.529
CN(C)C(CO)C=O	CN(C)[C@@H](CO)C=O	
InChI=1S/C5H11NO2/c1-6(2)5(3-7)4-8/h3,5,8H,4H2,1-2H3	InChI=1S/C5H11NO2/c1-6(2)5(3-7)4-8/h3,5,8H,4H2,1-2H3/t5-/m1/s1
