12
gdb 129293	3.20203	1.49703	1.02011	4.1944	72.95	-0.266	-0.1174	0.1485	1044.9825	0.078271	-431.654793	-431.647639	-431.646695	-431.68684	26.082	
N	-0.0336666113	 1.2325442868	 0.4165923522	-0.507394
C	-0.0440126509	 0.040000275	 0.0016678485	 0.384587
O	 1.1132143955	-0.5597690025	-0.489407576	-0.281777
N	 1.1789874363	-1.8615127565	-0.9610406575	-0.043363
C	 0.0896029499	-2.547082096	-0.9363552686	 0.037224
C	-1.177232345	-2.0621206916	-0.4588321765	-0.20474
C	-1.2488076976	-0.7942185328	 0.0023654993	 0.093829
C	-2.4655639958	-0.2357440734	 0.4934564446	 0.278612
N	-3.4756060174	 0.1731421141	 0.8819658523	-0.313044
H	 0.8940556258	 1.6502199328	 0.3374103941	 0.24301
H	 0.1925013177	-3.5584008566	-1.3153508668	 0.157176
H	-2.0453707172	-2.7092736094	-0.4744480657	 0.15588
84.2696	155.4981	167.9355	321.639	376.3614	465.3831	486.9514	542.1607	584.4218	600.2919	727.1949	770.6894	867.774	876.3656	892.4477	934.6244	968.8585	998.1805	1067.4113	1171.0935	1270.6606	1351.1326	1392.7116	1605.975	1670.3797	1741.5221	2351.3732	3197.157	3220.0524	3496.5133
N=C1ON=CC=C1C#N	[NH]C1=C([CH]C=NO1)C#N	
InChI=1S/C5H3N3O/c6-3-4-1-2-8-9-5(4)7/h1-2,7H	InChI=1S/C5H3N3O/c6-3-4-1-2-8-9-5(4)7/h1-2,7H
