16
gdb 66010	2.64019	1.34218	1.28967	2.5638	65.04	-0.2523	0.0149	0.2672	1055.6979	0.123066	-475.005851	-474.997156	-474.996211	-475.039544	31.289	
O	 0.2999079218	 1.5265595079	 0.7982789719	-0.471518
C	 0.0271865701	 0.2015451845	 0.394979657	 0.21552
C	 0.4739486432	-0.1490191568	-1.0580243764	-0.205437
N	 1.4050137569	-1.1185619213	-0.4593421382	-0.327807
C	 1.1282425442	-0.8082765726	 0.8392699766	 0.372571
O	 1.5906973423	-1.1243374001	 1.904943278	-0.373903
C	-1.3866260503	-0.1748844169	 0.7770564094	 0.033224
C	-2.531718465	 0.1021051778	-0.0941811252	-0.181821
O	-2.0133287584	-1.2258050231	 0.0432992137	-0.227828
H	 0.7760500649	 1.4793117341	 1.6362715265	 0.300966
H	-0.289492176	-0.6064697764	-1.6898798832	 0.131488
H	 0.9621914278	 0.6896779226	-1.5603349274	 0.122735
H	 2.1107895189	-1.7135663946	-0.8673834244	 0.25796
H	-1.5524475309	-0.2109098146	 1.8544631904	 0.109396
H	-3.5138221882	 0.2665177438	 0.3449028046	 0.125764
H	-2.3706257814	 0.5690008757	-1.0646448333	 0.11869
75.646	106.6617	141.9842	211.4505	220.2958	254.8446	311.7317	374.4076	437.5546	527.4003	609.7702	653.6078	749.5445	794.6253	874.6034	892.1457	922.4399	945.7206	993.6032	1045.8677	1093.0702	1150.697	1160.2391	1168.4753	1190.2658	1207.4388	1236.5005	1281.6026	1304.6383	1353.8271	1396.838	1437.4148	1503.876	1528.5898	1890.562	3065.4264	3089.7391	3109.2594	3129.6704	3178.3745	3611.3418	3788.1008
OC1(CNC1=O)C1CO1	O[C@]1(CNC1=O)[C@H]1CO1	
InChI=1S/C5H7NO3/c7-4-5(8,2-6-4)3-1-9-3/h3,8H,1-2H2,(H,6,7)	InChI=1S/C5H7NO3/c7-4-5(8,2-6-4)3-1-9-3/h3,8H,1-2H2,(H,6,7)/t3-,5-/m1/s1
