17
gdb 105604	2.21945	1.49912	1.28145	4.1738	71.55	-0.2377	-0.0322	0.2055	1076.9792	0.134093	-455.122443	-455.113209	-455.112265	-455.156519	32.944	
C	-0.0685782337	 1.5153729194	-0.0005641494	-0.275321
O	 0.1122054531	 0.0959879904	 0.0726387858	-0.296448
C	 0.6409693346	-0.5088492952	-1.0563038499	 0.24488
C	 0.4358080701	-2.0623276049	-1.0413204051	-0.2214
N	-0.173629874	-1.9371344478	-2.3721234542	-0.32556
C	-0.2415832511	-0.5529814035	-2.3395849057	 0.319906
N	-0.7830140733	 0.3687016121	-3.0134546137	-0.543833
C	 2.085403339	-0.1491807235	-1.3772001909	 0.133077
O	 2.7574514411	 0.6212029399	-0.7457055569	-0.259903
H	 0.8936483684	 2.0333663215	-0.0216279741	 0.14083
H	-0.6600587367	 1.7883403788	-0.8796099088	 0.151142
H	-0.6106488125	 1.7890631136	 0.9068939564	 0.124066
H	 1.3318552032	-2.6889029943	-1.0114011579	 0.120329
H	-0.2517846382	-2.336893996	-0.2367022422	 0.136432
H	-0.8339294519	-2.5704296621	-2.8007941143	 0.246409
H	-1.3660288082	 0.0019787797	-3.7687404082	 0.214332
H	 2.4841098403	-0.685509038	-2.2688287009	 0.091062
92.5495	116.3933	124.856	167.5957	202.8229	256.5866	262.8115	322.4681	367.351	447.13	488.3031	575.9492	675.5639	759.6775	790.2712	835.4444	903.9656	917.4685	1010.2866	1041.0655	1065.0376	1079.9264	1134.4071	1175.3813	1179.7088	1227.235	1237.9634	1275.534	1328.801	1378.0831	1417.5543	1478.5323	1489.1915	1515.641	1519.1304	1788.4583	1838.2772	2871.5212	3042.3649	3049.8372	3107.4592	3123.3681	3135.4475	3450.6355	3592.
COC1(CNC1=N)C=O	CO[C@]1(CN[C]1[NH])C=O	
InChI=1S/C5H8N2O2/c1-9-5(3-8)2-7-4(5)6/h3H,2H2,1H3,(H2,6,7)	InChI=1S/C5H8N2O2/c1-9-5(3-8)2-7-4(5)6/h3H,2H2,1H3,(H2,6,7)/t5-/m1/s1
