23
gdb 104055	2.72127	1.30312	1.18772	1.5154	85.02	-0.2353	0.0796	0.3149	1213.2099	0.205268	-388.271119	-388.261905	-388.260961	-388.30491	35.873	
C	-0.0414426726	 1.4319040001	-0.4506695123	-0.38987
C	-0.0779342425	-0.043149288	-0.0311331022	-0.220413
C	-1.4899789824	-0.5938470006	 0.1602421355	 0.426902
C	-2.2648702306	 0.1244789329	 1.2623229413	-0.431703
O	-2.2555762528	-0.5315087305	-1.0907728446	-0.345768
C	-2.5788547157	-1.9311951347	-1.0247304741	 0.127401
C	-1.6270463289	-2.818487712	-1.8633938986	-0.232194
C	-0.7426657996	-3.0430679461	-0.5960298816	-0.2538
C	-1.6909163851	-2.1361808832	 0.2334275526	-0.130135
H	 0.9808108654	 1.7378749345	-0.6925231583	 0.108897
H	-0.6624710819	 1.588029595	-1.3374718368	 0.137324
H	-0.4049066404	 2.0953839233	 0.3395411548	 0.114961
H	 0.4274874679	-0.6342378741	-0.8008557272	 0.098998
H	 0.4860437887	-0.1896386516	 0.8995741478	 0.092017
H	-2.4187783517	 1.1765355196	 1.0083380975	 0.125666
H	-3.2486998147	-0.3341405793	 1.3983478023	 0.115526
H	-1.7259246159	 0.070996642	 2.2150987435	 0.109816
H	-3.6554817806	-2.1143970791	-1.0847849362	 0.069799
H	-2.0862569046	-3.7327233413	-2.249137156	 0.097949
H	-1.160820518	-2.2792090538	-2.690851127	 0.108404
H	-0.7623539762	-4.0783631231	-0.2472734917	 0.101947
H	 0.3029008071	-2.7344857577	-0.6613229356	 0.10219
H	-2.0468235052	-2.5220553521	 1.188793217	 0.066087
72.8031	90.4872	187.9885	229.2096	236.0289	281.2833	312.9704	344.4549	407.7091	445.1792	477.7354	623.0879	712.4001	755.4911	783.2361	819.4825	835.4914	890.5506	920.8636	928.3255	947.2334	976.8987	995.9995	1016.4475	1034.7378	1056.2157	1070.4675	1122.154	1165.5129	1174.2892	1189.7809	1218.0161	1234.4036	1243.9603	1268.5963	1282.0351	1307.7231	1319.9387	1343.9703	1378.3759	1404.0607	1407.7379	1464.4976	1473.2307	1486.0711	1493.2629	1496.382	1507.3929	1512.5275	3024.3	3034.5282	3042.8309	3055.1491	3063.6581	3069.0985	3075.9866	3102.2437	3104.2587	3107.4989	3109.8558	3118.2924	3122.1565	3125.575
CCC1(C)OC2CCC12	CC[C@@]1(C)O[C@H]2CC[C@@H]12	
InChI=1S/C8H14O/c1-3-8(2)6-4-5-7(6)9-8/h6-7H,3-5H2,1-2H3	InChI=1S/C8H14O/c1-3-8(2)6-4-5-7(6)9-8/h6-7H,3-5H2,1-2H3/t6-,7+,8-/m1/s1
