16
gdb 54090	2.02557	1.41352	0.87265	6.2252	70.37	-0.2429	-0.0202	0.2227	1266.3289	0.123462	-471.248464	-471.239141	-471.238197	-471.283554	32.834	
N	 0.0482996691	 1.2733373912	-0.0911554103	-0.567374
C	-0.0516609887	-0.0817163723	 0.1584168527	 0.46475
O	 0.8897972104	-0.7601782852	 0.5165949206	-0.371632
N	-1.3247720243	-0.6470507253	 0.0089699064	-0.131414
C	-1.3792812032	-2.1060485593	 0.0415893493	-0.256701
C	-0.9881062612	-2.6800467636	 1.3980907017	 0.180758
O	-0.6716288779	-3.8271277767	 1.5544319141	-0.243398
C	-2.4992398932	 0.0929318783	-0.0391215442	 0.083792
N	-3.6340313875	-0.4547979669	-0.2057739265	-0.461042
H	 1.0067958125	 1.5892260625	-0.0688807579	 0.272791
H	-0.5010870762	 1.6699935204	-0.8377232788	 0.262951
H	-2.4142041574	-2.3866228565	-0.1719157025	 0.178605
H	-0.7282445583	-2.5367727721	-0.7219502417	 0.150702
H	-1.063058518	-1.9611380909	 2.2438637532	 0.083963
H	-2.3311391985	 1.1615991027	 0.1102084947	 0.118076
H	-4.3735543778	 0.2432953239	-0.1881070108	 0.235173
45.0287	87.9924	107.3331	163.4218	209.712	250.3154	319.6456	386.5045	420.8104	443.2151	505.391	572.8505	584.587	655.1953	730.8492	783.0876	814.9227	859.7971	1036.196	1050.6809	1069.8022	1096.4466	1149.197	1171.2628	1290.2004	1330.2744	1374.2561	1412.6756	1418.4393	1428.4564	1454.9886	1623.6421	1712.7576	1797.5471	1845.7554	2889.3153	3075.8937	3102.2325	3132.0956	3522.0378	3578.7995	3689.9941
NC(=O)N(CC=O)C=N	NC(=O)N(CC=O)C=N	
InChI=1S/C4H7N3O2/c5-3-7(1-2-8)4(6)9/h2-3,5H,1H2,(H2,6,9)	InChI=1S/C4H7N3O2/c5-3-7(1-2-8)4(6)9/h2-3,5H,1H2,(H2,6,9)
