17
gdb 124388	3.1956	1.23759	0.95524	2.6061	79.66	-0.2345	0.0244	0.2589	1217.2356	0.136695	-380.861444	-380.852887	-380.851943	-380.895547	31.718	
C	-0.5336805833	 1.2718375201	 0.099061842	-0.379595
C	 0.0460926899	-0.1530120669	-0.0839646425	-0.300772
C	 0.9730443767	-0.1959586925	-1.2165467242	 0.314223
C	 1.7512061524	-0.2073783298	-2.1330770254	-0.449072
C	 0.6988938035	-0.6534485317	 1.1835014918	 0.408259
C	 0.1698043334	-0.9638053554	 2.4234634935	-0.314858
C	 1.2825007494	-1.3441134023	 3.2020004545	-0.005338
N	 2.4185531923	-1.2809621471	 2.5117490183	-0.235059
N	 2.034044968	-0.8562981061	 1.2938760784	-0.247928
H	 0.2649316244	 1.9812136781	 0.3294851231	 0.135144
H	-1.0385146639	 1.5976724237	-0.814055746	 0.127847
H	-1.2517890815	 1.2790793988	 0.9226433934	 0.127711
H	-0.7924362987	-0.824661181	-0.3120665755	 0.129905
H	 2.4186278245	-0.2262109934	-2.9593585184	 0.205252
H	-0.867004861	-0.9235486211	 2.7167521933	 0.099672
H	 1.3010231908	-1.6626431163	 4.2340998233	 0.110378
H	 2.713242653	-0.7460867372	 0.5579758103	 0.274229
26.8744	127.0237	157.5348	201.4588	238.5859	323.4103	371.2294	473.2364	532.7482	574.8366	632.5656	656.5188	673.5719	699.6846	723.7675	802.4217	866.4902	894.3311	939.6117	994.075	1040.0767	1063.5398	1075.6589	1113.5405	1138.1512	1237.1486	1282.9912	1307.1035	1314.6108	1369.5233	1405.5777	1439.7745	1489.8572	1496.2512	1500.4194	1592.4338	2234.1277	3015.7839	3049.283	3129.3902	3133.4294	3242.372	3265.1199	3500.6307	3655.2238
CC(C#C)C1=CC=NN1	C[C@@H](C#C)c1ccn[nH]1	
InChI=1S/C7H8N2/c1-3-6(2)7-4-5-8-9-7/h1,4-6H,2H3,(H,8,9)	InChI=1S/C7H8N2/c1-3-6(2)7-4-5-8-9-7/h1,4-6H,2H3,(H,8,9)/t6-/m0/s1
