21
gdb 114210	2.75976	1.23253	1.05917	2.4623	79.64	-0.2447	0.0749	0.3195	1247.3474	0.181363	-424.187644	-424.178315	-424.177371	-424.22177	35.259	
C	 0.1362914677	 1.2923069512	 0.0740971149	-0.236494
O	-0.2294307285	-0.0160196412	-0.3032951914	-0.261054
C	 0.5946700764	-0.5871476605	-1.2977395287	 0.082516
C	 1.9029582916	-1.2205111456	-0.7336703576	-0.348445
C	 1.1576679465	-2.5585676173	-0.640163827	 0.343935
C	 1.6739151058	-3.9566809107	-0.512993859	-0.347496
C	 0.8775389586	-3.3330750858	 0.6120156569	-0.308478
C	 0.0493559408	-2.0238357827	-1.5684390929	 0.063156
O	-1.2925529702	-2.2651756167	-1.2649567489	-0.431869
H	 1.1453459298	 1.3290476101	 0.5088516047	 0.111935
H	 0.1033389005	 1.9801942535	-0.7842796284	 0.110864
H	-0.582982308	 1.6263687615	 0.8255930969	 0.130122
H	 0.6911673509	 0.096358047	-2.1523540407	 0.06096
H	 2.7141351311	-1.2212030147	-1.4689678849	 0.102005
H	 2.2732223261	-0.7911159424	 0.201167527	 0.104766
H	 1.197819407	-4.7310612177	-1.1070357564	 0.114399
H	 2.7402056514	-4.0992243642	-0.3658414262	 0.107482
H	 1.402494589	-3.053736306	 1.5200576099	 0.106023
H	-0.1427350221	-3.6721558679	 0.759803833	 0.120164
H	 0.2125407285	-2.3259341783	-2.6087867905	 0.083268
H	-1.5080653533	-1.6641276218	-0.5391669908	 0.292242
64.7898	107.1843	177.7609	203.6003	205.9928	235.2926	317.712	335.4448	395.679	428.6282	493.4759	563.5392	662.5306	768.6198	786.781	812.1105	859.8064	893.8314	907.5283	968.1881	990.2021	1009.3593	1051.6459	1070.8379	1081.7691	1123.5386	1134.5999	1168.5911	1183.6522	1187.8184	1191.7246	1223.2416	1242.6643	1274.3741	1283.4607	1329.0251	1368.3805	1385.7321	1443.1547	1460.4473	1473.5103	1481.1525	1487.3984	1502.4241	1509.7539	2984.1799	3006.2014	3036.3114	3045.9006	3053.9094	3100.6231	3117.2625	3118.6645	3124.5099	3197.7879	3215.1088	3761.5333
COC1CC2(CC2)C1O	CO[C@H]1CC2(CC2)[C@H]1O	
InChI=1S/C7H12O2/c1-9-5-4-7(2-3-7)6(5)8/h5-6,8H,2-4H2,1H3	InChI=1S/C7H12O2/c1-9-5-4-7(2-3-7)6(5)8/h5-6,8H,2-4H2,1H3/t5-,6-/m0/s1
