19
gdb 73856	2.73931	1.37482	0.93489	3.6612	80.57	-0.2013	0.0211	0.2224	1249.5063	0.160069	-419.27806	-419.268655	-419.267711	-419.312459	34.296	
C	 0.1404682766	 1.525087592	 0.1772684718	-0.485542
C	 0.0040526031	 0.0375587109	 0.0318871678	 0.181506
C	-1.1443615517	-0.6428600277	-0.0981308056	 0.283352
C	-2.5361522419	-0.078492012	-0.1104216372	-0.500306
N	-1.1209311194	-2.037860447	-0.2570533822	-0.415701
C	-0.0105580909	-2.8388284931	-0.042975004	 0.441361
O	-0.0751569251	-4.0548029947	-0.0464891332	-0.413198
N	 1.1390909646	-2.1370487185	 0.1978987476	-0.356042
C	 1.3172206037	-0.7088754335	-0.0136910097	-0.233428
H	 0.7878753013	 1.9367109997	-0.6097968816	 0.122917
H	-0.8124061861	 2.0529076808	 0.1229105031	 0.123284
H	 0.6123708647	 1.7895889699	 1.1335224033	 0.123923
H	-3.0509115	-0.3521056517	-1.0397781629	 0.13551
H	-3.1263834975	-0.4878394227	 0.7189372424	 0.135688
H	-2.5468194616	 1.0068635856	-0.0274607219	 0.137537
H	-1.9872295969	-2.5485329965	-0.3032610676	 0.252433
H	 1.9563967565	-2.7219453715	 0.2660903211	 0.251792
H	 1.8280451984	-0.5054555686	-0.9738295478	 0.104675
H	 1.9862276522	-0.3199669916	 0.7677719867	 0.11024
66.807	107.9253	133.093	151.6216	182.7934	303.066	322.2501	334.2216	445.6254	465.1426	490.8756	525.9874	552.2573	592.5918	725.492	760.5792	762.5718	926.3082	959.646	990.8765	1030.5706	1064.6975	1082.9373	1132.8203	1164.5954	1212.6511	1252.7226	1261.0949	1327.2286	1408.3512	1418.6873	1427.1293	1470.2911	1475.926	1482.3132	1490.2918	1493.9161	1501.878	1534.7275	1767.1212	1816.0989	2913.6599	2994.6425	3005.8044	3025.3129	3040.7787	3070.8312	3130.8163	3161.9354	3644.9396	3657.6198
CC1=C(C)NC(=O)NC1	CC1=C(C)NC(=O)NC1	
InChI=1S/C6H10N2O/c1-4-3-7-6(9)8-5(4)2/h3H2,1-2H3,(H2,7,8,9)	InChI=1S/C6H10N2O/c1-4-3-7-6(9)8-5(4)2/h3H2,1-2H3,(H2,7,8,9)
