17
gdb 54208	3.09323	1.40873	1.1812	5.5125	67.52	-0.2463	0.0087	0.255	1057.8817	0.136879	-455.121937	-455.113932	-455.112988	-455.154652	30.759	
N	 0.1413050147	 1.0642724716	 0.0481496052	-0.594287
H	 0.1135479179	 0.0662700833	-0.1278154311	 0.243602
H	 1.119582353	 1.3247775641	 0.145944248	 0.247327
H	-0.6591748793	 2.6764699127	-0.6343698483	 0.305936
C	-0.6148099456	 1.4182733021	 1.2498832079	 0.103247
C	-1.8795420769	 0.5496879807	 1.5535565937	-0.191318
N	-1.4210889906	 0.2426534748	 2.9480789856	-0.110412
C	-0.1378826959	-0.4608836435	 2.8044118257	-0.259369
C	-0.1402126113	 1.0057936866	 2.6485391434	-0.045198
C	-0.9893448568	 2.9086208542	 1.1803022301	 0.412843
O	-0.9814921508	 3.405996395	-0.0646498271	-0.376495
O	-1.2918126953	 3.5588260511	 2.1440053292	-0.335898
H	-2.8080796325	 1.1202716479	 1.5779716375	 0.145602
H	-2.0086360699	-0.334050756	 0.9169211749	 0.103284
H	 0.2330807444	-0.8562758742	 3.7447181025	 0.133292
H	 0.0231927696	-1.1147330922	 1.9481583938	 0.097171
H	 0.2888819553	 1.6896841316	 3.3713527889	 0.120674
63.4158	148.4876	195.575	277.4022	311.9563	357.2675	389.4878	432.2798	500.2714	592.7613	704.1566	748.7135	753.4374	796.6535	826.1875	839.7063	873.308	931.1385	959.7259	983.3255	1022.9491	1063.6923	1091.2752	1109.6937	1125.7414	1179.8129	1202.4505	1224.0316	1250.2959	1292.3557	1309.2017	1365.2079	1415.4402	1484.7509	1503.523	1651.263	1867.8188	3031.9802	3092.5659	3132.1008	3185.9212	3197.5897	3491.2575	3526.3517	3580.3116
[NH3+]C1(CN2CC12)C([O-])=O	N[C@]1(CN2C[C@@H]12)C(=O)O	
InChI=1S/C5H8N2O2/c6-5(4(8)9)2-7-1-3(5)7/h3H,1-2,6H2,(H,8,9)	InChI=1S/C5H8N2O2/c6-5(4(8)9)2-7-1-3(5)7/h3H,1-2,6H2,(H,8,9)/t3-,5-,7?/m0/s1
