18
gdb 80512	2.27339	1.46688	1.27144	0.9983	80.49	-0.2348	0.0253	0.2601	1100.7529	0.145501	-401.859911	-401.850892	-401.849947	-401.893163	34.371	
C	-0.1650398869	 1.492501721	-0.0781910178	-0.329368
N	 0.1087102264	 0.063282246	 0.0532168447	-0.127226
C	 1.3866640886	-0.5391696269	-0.1959576845	-0.109306
C	 2.5714595376	 0.3163711575	 0.2835666819	-0.275453
C	 1.9921183282	 0.2673093549	 1.7212070707	 0.04651
O	 1.7933801807	 1.5247456507	 2.3221570177	-0.421374
C	 0.7608736134	-0.5337576775	 1.2045094914	 0.123115
C	 0.1036019491	-1.5482328658	 1.9620141184	 0.20994
C	-0.4163174214	-2.3845417449	 2.6541919079	-0.39778
H	 0.6293806753	 2.1560166437	 0.273968725	 0.134493
H	-0.3696302112	 1.6989121655	-1.133584578	 0.120101
H	-1.0718469817	 1.7165733831	 0.4911620677	 0.12695
H	 1.4442135124	-1.3709324973	-0.8897218368	 0.108383
H	 3.5354934622	-0.1879339303	 0.2008355466	 0.113417
H	 2.6514092006	 1.3124091305	-0.1573464985	 0.116351
H	 2.5978542997	-0.3888274152	 2.3603967697	 0.084678
H	 1.3469753945	 1.3894574846	 3.1649085251	 0.289281
H	-0.8874201975	-3.1299995597	 3.2454686488	 0.187289
116.357	137.2112	144.075	205.4088	247.404	280.0716	325.7863	371.899	427.9627	506.0832	542.1003	549.8974	595.3593	649.895	665.499	711.2844	783.3703	852.2258	928.9564	953.1589	994.655	1029.923	1055.7598	1095.4986	1139.1757	1160.9449	1182.2942	1201.6496	1224.2063	1252.9573	1274.1167	1304.8238	1406.7191	1417.3297	1455.9945	1479.5863	1494.1891	1509.3714	2231.2818	3012.6743	3036.4885	3075.5959	3107.6913	3113.3996	3129.4354	3175.0809	3502.5221	3810.2064
CN1C2CC(O)C12C#C	CN1[C@H]2C[C@@H](O)[C@@]12C#C	
InChI=1S/C7H9NO/c1-3-7-5(8(7)2)4-6(7)9/h1,5-6,9H,4H2,2H3	InChI=1S/C7H9NO/c1-3-7-5(8(7)2)4-6(7)9/h1,5-6,9H,4H2,2H3/t5-,6+,7-,8?/m0/s1
