14
gdb 128993	4.1431	1.64074	1.1753	2.16	75.93	-0.2376	-0.0386	0.1991	953.4611	0.106591	-395.797958	-395.792018	-395.791074	-395.828122	23.909	
N	 0.0228984204	 1.343936349	 0.0094145668	-0.344488
N	 1.2821628574	 1.8620045231	 0.0002514126	-0.194198
C	 2.098222331	 0.8290171352	-0.0133867841	-0.123745
C	 1.3778073001	-0.4040050118	-0.013398003	 0.157886
C	 0.0175894265	-0.0150457958	 0.0018434842	 0.398688
C	-0.9958024343	-0.9793574537	 0.0061516368	-0.265397
C	-0.569517501	-2.2951136732	-0.0053315049	 0.02018
N	 0.7224150582	-2.7001292885	-0.0200091478	-0.29086
C	 1.6697343323	-1.7753174568	-0.0239073982	-0.090352
H	-0.7591970532	 1.9754247502	 0.0205042142	 0.275455
H	 3.1664018154	 0.98800457	-0.0227462541	 0.127826
H	-2.0496035234	-0.7270902139	 0.0176825091	 0.10252
H	-1.3053351398	-3.0948700869	-0.0027622531	 0.111587
H	 2.6993362304	-2.1272972069	-0.0357683986	 0.114898
215.3387	250.0628	401.9989	420.8358	450.1897	554.7349	611.8944	638.0266	675.6846	798.6518	801.0847	830.2018	881.6266	909.9207	954.8703	957.3417	983.7074	1053.1027	1097.408	1209.7903	1218.4323	1271.4657	1303.3991	1340.6422	1354.1327	1422.5996	1457.5484	1483.9586	1533.5014	1611.1327	1651.1155	3148.0804	3164.0173	3200.2442	3249.6964	3681.5052
N1N=CC2=C1C=CN=C2	[nH]1ncc2c1ccnc2	
InChI=1S/C6H5N3/c1-2-7-3-5-4-8-9-6(1)5/h1-4H,(H,8,9)	InChI=1S/C6H5N3/c1-2-7-3-5-4-8-9-6(1)5/h1-4H,(H,8,9)
