14
gdb 128710	4.86288	1.0929	0.8974	4.8577	68.36	-0.2547	-0.0815	0.1732	1214.6148	0.100381	-473.823898	-473.816163	-473.815219	-473.856452	28.176	
C	-0.0564032632	 1.3869988519	-0.0546949504	-0.240021
O	 0.0069150336	-0.0424477513	 0.0058980601	-0.25628
C	 0.6378321172	-0.5749997033	 1.0617074673	 0.44917
N	 1.1509229973	 0.1974878575	 1.9600528227	-0.173983
O	 1.7924410543	-0.4248251097	 3.0308046415	-0.2678
C	 1.9064752418	-1.7963641664	 3.1793820915	 0.449866
O	 2.4833457363	-2.2155695684	 4.1470876733	-0.333816
C	 1.3012777781	-2.6058638607	 2.1232903268	-0.216565
C	 0.682581827	-2.0175477749	 1.0902160362	-0.138051
H	 0.9488259276	 1.816542803	-0.0841948436	 0.148901
H	-0.5997732838	 1.6148059811	-0.9714714794	 0.139008
H	-0.5829843494	 1.7868698432	 0.8163273703	 0.148905
H	 1.3875063147	-3.6795565733	 2.2345995598	 0.147512
H	 0.2166247986	-2.5659019887	 0.279493584	 0.143153
84.4822	141.5299	197.4649	219.687	307.8652	368.8006	399.4585	485.773	535.2073	574.3846	620.9087	761.7701	775.429	805.3611	870.4209	933.5961	1020.962	1036.1402	1065.6552	1117.5786	1178.0237	1208.5997	1236.6294	1324.3944	1434.8726	1477.9189	1493.5938	1499.8865	1603.8534	1690.7884	1836.4604	3046.8134	3120.2339	3161.0397	3201.3487	3225.1016
COC1=NOC(=O)C=C1	COc1noc(=O)cc1	
InChI=1S/C5H5NO3/c1-8-4-2-3-5(7)9-6-4/h2-3H,1H3	InChI=1S/C5H5NO3/c1-8-4-2-3-5(7)9-6-4/h2-3H,1H3
