21
gdb 100446	3.72157	0.62097	0.54714	3.5906	91.57	-0.2511	-0.0434	0.2077	2064.5296	0.178772	-387.095109	-387.083735	-387.08279	-387.134308	38.937	
C	-0.1563337406	 1.5204909559	-0.0603088116	-0.395347
C	-0.1093382974	-0.0057114587	 0.0497542567	-0.160764
C	 0.7256776636	-0.523892385	 1.2484633025	-0.157613
C	 0.1356424537	-0.124625148	 2.6171801333	-0.386386
C	 0.8972426026	-1.9720726482	 1.1623310423	 0.047823
C	 1.021449825	-3.170609972	 1.0721602523	 0.059611
C	 1.177621388	-4.6084146242	 0.9639502466	 0.24418
C	 1.4677453156	-5.3315121243	 2.26482878	-0.475949
O	 1.0808293281	-5.1847378517	-0.0992883536	-0.278487
H	 0.852305861	 1.9447050421	-0.1216114339	 0.11691
H	-0.6971829108	 1.8220495597	-0.9622004633	 0.120288
H	-0.6616342753	 1.9820126734	 0.79328926	 0.121626
H	-1.1251526332	-0.4107213484	 0.1311164346	 0.109253
H	 0.3158567791	-0.4257156619	-0.8676477423	 0.116808
H	 1.7288945713	-0.0780645359	 1.1704359158	 0.113159
H	-0.876800481	-0.5244842128	 2.7305875432	 0.127462
H	 0.7483336575	-0.516583113	 3.43291782	 0.126494
H	 0.0898746969	 0.9625690451	 2.7173801811	 0.122664
H	 2.3874612672	-4.9419250532	 2.714456935	 0.143819
H	 0.660606261	-5.1512860805	 2.98310643	 0.143728
H	 1.5677786477	-6.4012178183	 2.0749639612	 0.140723
9.7927	62.9246	68.6787	112.7745	126.9335	164.7445	212.3284	225.5313	269.177	306.2041	347.5504	438.2959	484.8888	536.655	602.8928	611.7411	684.1733	774.4275	824.7582	930.838	966.8476	978.1913	1011.2179	1042.7134	1046.5748	1111.9187	1131.6017	1182.7604	1246.252	1280.2766	1311.0849	1336.8572	1375.1557	1381.817	1406.3163	1414.4269	1460.9071	1469.5386	1483.3123	1492.7088	1498.6254	1504.6893	1509.5414	1766.1334	2324.7181	2993.8504	3033.9568	3039.0092	3039.0608	3046.2243	3075.5231	3103.0958	3103.201	3111.1975	3119.1405	3127.3898	3150.6965
CCC(C)C#CC(C)=O	CC[C@@H](C)C#CC(=O)C	
InChI=1S/C8H12O/c1-4-7(2)5-6-8(3)9/h7H,4H2,1-3H3	InChI=1S/C8H12O/c1-4-7(2)5-6-8(3)9/h7H,4H2,1-3H3/t7-/m1/s1
