19
gdb 116267	1.89112	1.5597	0.92135	2.0885	76.71	-0.2525	0.0468	0.2994	1258.286	0.158912	-422.985601	-422.976398	-422.975454	-423.020188	33.918	
O	-0.1286255714	 1.4489488176	-0.2235996036	-0.425957
C	 0.0235383436	 0.0362492222	-0.2766503501	-0.10504
C	-1.3314479381	-0.5600269018	 0.0790571831	-0.014541
C	-2.4417356396	-0.1242247573	-0.9147710985	-0.084116
O	-3.2246946322	-1.2788671426	-1.1917259695	-0.240067
C	-2.3245424298	-2.3627363337	-1.2116456232	-0.094546
C	-1.4047815173	-2.125761719	 0.0152455246	-0.207295
C	-0.1383545241	-2.8361003809	-0.0613701168	 0.3284
C	 0.8955683908	-3.4452641618	-0.1419609941	-0.474242
H	 0.706457794	 1.8518813541	-0.4778837899	 0.288629
H	 0.326978106	-0.2968113918	-1.2819709063	 0.092031
H	 0.7894161046	-0.3144531037	 0.4288782443	 0.101147
H	-1.5828717562	-0.2275026454	 1.0895419415	 0.093997
H	-3.1058086245	 0.6440840714	-0.5154191108	 0.118205
H	-1.9857525004	 0.2623113676	-1.8393834939	 0.097007
H	-2.8935514506	-3.2927367127	-1.1497501732	 0.118361
H	-1.7222130666	-2.3748020998	-2.1346508379	 0.095998
H	-1.9442709995	-2.4732444554	 0.9027504359	 0.115315
H	 1.8078031114	-3.9849182672	-0.2065995517	 0.196713
41.1441	123.1876	130.0774	176.0179	227.7463	276.9898	296.8264	362.7393	435.2885	494.1807	521.3685	615.9827	631.2865	640.7339	682.1948	808.6154	906.9813	942.1768	965.9087	1019.1127	1039.6123	1065.1214	1080.3935	1093.0727	1125.9943	1143.3414	1211.2376	1234.8754	1257.2722	1269.3684	1303.1885	1305.1498	1328.4703	1347.9233	1376.6633	1398.8176	1459.2006	1503.4685	1514.0589	1524.3464	2232.6576	2973.5979	2977.506	2988.4905	3022.6416	3044.3484	3074.9068	3108.7531	3114.7971	3503.6988	3832.7892
OCC1COCC1C#C	OC[C@H]1COC[C@H]1C#C	
InChI=1S/C7H10O2/c1-2-6-4-9-5-7(6)3-8/h1,6-8H,3-5H2	InChI=1S/C7H10O2/c1-2-6-4-9-5-7(6)3-8/h1,6-8H,3-5H2/t6-,7+/m1/s1
