15
gdb 23427	2.84735	1.27854	1.06606	0.8738	76.1	-0.2329	-0.0066	0.2263	1131.1817	0.110867	-416.672816	-416.664684	-416.66374	-416.705613	30.869	
O	-0.1119640811	 1.3233124363	 0.0450441805	-0.388275
N	 0.0427631126	-0.0725542987	 0.0298231301	-0.256921
C	-1.0815258109	-0.6461080843	-0.061318128	 0.448791
C	-2.5454075772	-0.2650758276	 0.0300991451	-0.265973
N	-2.9069944002	-1.7271807284	 0.2106723752	-0.146124
C	-2.4709542198	-2.4282240247	-1.0219659614	-0.208239
C	-2.5290829158	-1.8430420448	-2.3318788536	 0.351914
C	-2.6063142044	-1.3782655398	-3.4381619022	-0.439237
C	-1.4345246543	-2.0840894827	 0.0049899705	-0.149247
H	 0.7971753703	 1.6284717417	 0.1350402335	 0.310726
H	-2.7803053315	 0.2934577519	 0.9389141178	 0.142814
H	-3.0102724233	 0.2120197493	-0.8348493919	 0.142961
H	-2.783598925	-3.4697699242	-0.9869027295	 0.13089
H	-2.6619441723	-0.9667280809	-4.41579726	 0.206253
H	-0.9233922669	-2.8529390332	 0.573627274	 0.119665
71.0016	165.4212	187.1413	211.3278	313.6655	382.7151	388.8531	476.5885	519.1226	561.5484	607.9784	619.2669	672.0576	724.1025	755.598	783.1184	899.0474	924.8444	972.1843	1000.6026	1013.3552	1043.4648	1081.502	1155.162	1183.8866	1220.7371	1261.2647	1314.43	1383.9742	1419.9338	1471.1891	1797.4489	2236.3361	3076.3472	3133.0243	3134.5541	3181.9541	3501.7489	3818.3067
ON=C1CN2C(C#C)C12	ON=C1CN2[C@@H](C#C)[C@@H]12	
InChI=1S/C6H6N2O/c1-2-5-6-4(7-9)3-8(5)6/h1,5-6,9H,3H2	InChI=1S/C6H6N2O/c1-2-5-6-4(7-9)3-8(5)6/h1,5-6,9H,3H2/t5-,6+,8?/m0/s1
