27
gdb 109926	1.95009	1.30005	1.0246	0.0528	95.57	-0.2695	0.0745	0.3439	1405.8273	0.250565	-353.564469	-353.55349	-353.552546	-353.599573	42.247	
C	-0.1225105429	 1.8036420563	-0.4874209401	-0.386328
C	-0.223869788	 0.2753067896	-0.4077929041	-0.196735
C	 0.8203123847	-0.439708967	-1.2615314936	 0.007939
C	 2.3218359451	-0.5130198571	-0.8124637239	 0.011839
C	 2.6377179187	-0.3016896287	 0.6673460871	-0.408122
C	 2.3499695983	-1.9981691309	-1.2802946592	-0.275949
C	 0.7930474017	-2.0048115473	-1.4138076601	 0.32474
C	 0.1053365586	-2.7553300546	-0.2686904765	-0.445214
C	 0.2542746947	-2.5018505001	-2.7549170313	-0.446798
H	 0.8549115255	 2.1607189323	-0.1464432721	 0.118522
H	-0.2575096747	 2.1532903137	-1.5172091851	 0.112591
H	-0.8858350902	 2.286440772	 0.1311702696	 0.109031
H	-0.1472396997	-0.0418468756	 0.6384782992	 0.093091
H	-1.224021859	-0.0324968473	-0.7417175522	 0.09133
H	 0.782822647	-0.0033047392	-2.2679573457	 0.05706
H	 2.9738907045	 0.1426806081	-1.3979476245	 0.062492
H	 2.0371450029	-0.9433968142	 1.3198075611	 0.117206
H	 3.6901824299	-0.5358933411	 0.8637059523	 0.111391
H	 2.4676142104	 0.7351189748	 0.9766434827	 0.114201
H	 2.8559292124	-2.1369865646	-2.2400816226	 0.088702
H	 2.7708394	-2.7140625727	-0.5665968021	 0.086832
H	 0.4683088664	-2.443042916	 0.7142275148	 0.113314
H	-0.9801169719	-2.6059347789	-0.2852784518	 0.109765
H	 0.291704928	-3.8319221471	-0.3594446673	 0.107776
H	 0.4067746222	-3.5820014572	-2.8687325359	 0.107786
H	-0.8219531383	-2.3101469322	-2.8462363504	 0.108055
H	 0.7536517539	-2.0043528548	-3.5933462583	 0.105481
90.0441	111.097	161.0123	199.9211	220.7977	231.8745	241.8909	267.6754	275.9239	299.1483	333.761	351.3733	402.8512	485.6479	508.7322	629.887	732.1048	793.0584	819.6375	838.5944	893.3353	906.0694	947.7561	952.9603	977.0856	997.6622	1016.032	1033.0265	1052.0322	1078.8773	1123.0676	1147.3535	1196.9378	1209.0597	1224.3893	1235.463	1275.7237	1282.6057	1289.4059	1322.2946	1344.4246	1372.8903	1396.9836	1399.9497	1409.4825	1413.2901	1420.1272	1479.1773	1482.8566	1486.2904	1490.292	1495.1365	1499.1581	1501.4744	1504.7582	1507.8219	1510.6026	3008.9492	3013.9045	3016.265	3026.7481	3029.292	3030.5338	3037.9708	3047.5655	3059.8464	3076.4399	3086.1164	3086.9127	3090.4474	3092.7175	3097.5545	3099.0397	3102.6523	3111.2693
CCC1C(C)CC1(C)C	CC[C@H]1[C@@H](C)CC1(C)C	
InChI=1S/C9H18/c1-5-8-7(2)6-9(8,3)4/h7-8H,5-6H2,1-4H3	InChI=1S/C9H18/c1-5-8-7(2)6-9(8,3)4/h7-8H,5-6H2,1-4H3/t7-,8-/m0/s1
