19
gdb 124600	3.95179	1.00833	0.96017	1.1709	79.53	-0.208	0.0121	0.2202	1323.8689	0.160489	-415.404068	-415.394872	-415.393928	-415.438986	33.817	
C	-0.0310140537	 1.5491194205	 0.0216404765	-0.386578
C	-0.071978436	 0.0198842668	-0.0053726347	 0.067684
C	 0.7131383343	-0.610582525	 1.1501749764	-0.385196
N	-1.4575725398	-0.4550888174	-0.0000852562	 0.132208
N	-2.3312496657	-0.0982348837	 0.9222753884	-0.225786
C	-3.4277646946	-0.7999846141	 0.6227237145	-0.115771
C	-3.1552031965	-1.5840143327	-0.5136750713	 0.316586
N	-3.959966609	-2.5198229291	-1.1576770558	-0.593186
N	-1.8969461527	-1.3512974596	-0.8945304044	-0.307802
H	 1.0064386052	 1.8930881752	-0.0223751564	 0.116753
H	-0.5721483513	 1.9700654023	-0.8300933336	 0.124235
H	-0.4857278631	 1.9285237971	 0.9400524621	 0.143911
H	 0.3238208555	-0.3447939282	-0.9563078869	 0.112861
H	 0.2994534924	-0.2917171645	 2.1110245516	 0.138322
H	 0.6696752267	-1.7018204213	 1.0980789673	 0.129909
H	 1.7622352798	-0.3032217541	 1.103926246	 0.117264
H	-4.3280517015	-0.7131933252	 1.2097199614	 0.111758
H	-4.9311424576	-2.2455732417	-1.2130966052	 0.249167
H	-3.6043688426	-2.754831015	-2.0751089297	 0.253661
18.378	112.1965	196.2353	224.0454	236.6604	263.7216	301.3348	308.4678	392.6693	422.3867	512.2239	644.6358	677.1184	686.2607	735.9419	769.2196	831.2623	892.7302	936.7765	952.4569	1010.6671	1044.9489	1100.9189	1122.5449	1146.8815	1195.17	1220.7159	1288.5783	1351.1825	1353.1066	1397.4424	1399.7157	1416.4275	1435.4921	1482.2536	1489.3782	1492.6844	1497.0151	1512.8084	1584.8033	1649.9399	3042.7911	3048.3922	3088.4157	3117.0735	3121.4709	3125.933	3135.0642	3265.811	3549.5959	3644.7816
CC(C)N1N=CC(N)=N1	CC(C)n1ncc(N)n1	
InChI=1S/C5H10N4/c1-4(2)9-7-3-5(6)8-9/h3-4H,1-2H3,(H2,6,8)	InChI=1S/C5H10N4/c1-4(2)9-7-3-5(6)8-9/h3-4H,1-2H3,(H2,6,8)
