23
gdb 100948	2.33376	1.00574	0.74938	1.3894	78.66	-0.2484	0.0596	0.308	1572.8171	0.202734	-462.547268	-462.535791	-462.534847	-462.584565	40.661	
C	 0.6137426352	 1.0457938822	-0.5166427947	-0.396697
C	 0.1584381422	-0.3621035086	-0.1283110883	-0.171742
C	-1.3476660882	-0.4638629713	 0.1198981201	 0.107089
O	-2.0537065374	-0.176054281	-1.0897372532	-0.257606
C	-2.9461331249	 0.9141375064	-1.023471468	-0.238975
C	-1.7534751298	-1.8679257297	 0.5865404869	 0.107706
O	-1.0382371965	-2.1660645217	 1.7723902949	-0.445617
C	-3.2537234817	-2.0054561184	 0.8551105653	-0.107161
O	-3.5288827559	-3.2693370323	 1.4621177173	-0.425241
H	 1.690956784	 1.0712667682	-0.7071014789	 0.111608
H	 0.1051683951	 1.3835378077	-1.4244210613	 0.123969
H	 0.4023880177	 1.7681857512	 0.2802384275	 0.108932
H	 0.4173731201	-1.0693872475	-0.9265639499	 0.096657
H	 0.6729301003	-0.700003327	 0.7761629349	 0.12212
H	-1.6349900371	 0.252676509	 0.904509298	 0.070871
H	-3.3906414794	 1.0251450547	-2.0164927289	 0.124856
H	-3.7556744837	 0.7488299878	-0.2964224989	 0.103666
H	-2.4348011428	 1.8515618142	-0.7615503826	 0.110996
H	-1.4830666784	-2.5779265709	-0.2183341881	 0.056832
H	-1.5385726029	-2.8737836779	 2.2009141615	 0.287465
H	-3.5684464428	-1.2566661516	 1.5899630754	 0.112575
H	-3.8305137892	-1.8621334668	-0.0656381533	 0.10901
H	-3.4334759537	-3.9477333867	 0.7847094642	 0.288687
53.0284	66.2838	91.7328	128.175	145.1329	171.227	223.729	246.965	285.1613	324.2152	332.2183	352.2874	415.3608	471.5447	512.3541	539.6056	607.6775	766.4942	891.3762	895.8111	945.7033	1001.6827	1035.7913	1075.9607	1077.3289	1102.0276	1131.5838	1144.0154	1147.8278	1183.8557	1202.1517	1226.8375	1269.7386	1305.996	1314.5016	1347.9227	1363.7289	1381.7777	1393.755	1405.628	1410.8732	1450.544	1478.9794	1483.1624	1489.0046	1497.9133	1498.3296	1507.8633	1515.1122	2920.8475	2977.6464	2994.7091	3029.3188	3031.2989	3034.6892	3035.2181	3087.5448	3090.1084	3099.9975	3105.2985	3114.7617	3751.2825	3807.3356
CCC(OC)C(O)CO	CC[C@@H](OC)[C@@H](O)CO	
InChI=1S/C6H14O3/c1-3-6(9-2)5(8)4-7/h5-8H,3-4H2,1-2H3	InChI=1S/C6H14O3/c1-3-6(9-2)5(8)4-7/h5-8H,3-4H2,1-2H3/t5-,6+/m0/s1
