17
gdb 79551	2.59318	1.70878	1.22909	0.82	78.74	-0.2335	0.0251	0.2586	1029.1732	0.135398	-380.747654	-380.739692	-380.738748	-380.779844	31.151	
C	-0.1702701702	 1.4631812043	-0.1077183287	-0.319024
N	 0.1021826277	 0.0372760996	 0.0284910695	-0.074704
C	 1.4210779418	-0.528697701	-0.1654291686	-0.082606
C	 2.5558034761	 0.3127692323	 0.401908699	-0.127646
N	 3.192209001	-0.3296562568	 1.5482599313	-0.355976
C	 1.8839659571	 0.3186231199	 1.7634947086	 0.13393
C	 1.7607868389	 1.3558593999	 2.7343900376	 0.286382
C	 1.6113446142	 2.2212714719	 3.5560935793	-0.434536
C	 0.7444302119	-0.5331070382	 1.191938959	-0.158989
H	 0.6069393573	 2.1196932618	 0.3020665564	 0.125233
H	-0.2982008529	 1.6892890319	-1.1706768782	 0.123945
H	-1.1116872206	 1.685791261	 0.4030320259	 0.12927
H	 1.5372021963	-1.3483728466	-0.8670457101	 0.105104
H	 3.0873511901	 1.1267307956	-0.0755654788	 0.117243
H	 3.0926396035	-1.3435011843	 1.5145475726	 0.234645
H	 1.4930843163	 2.9864225215	 4.2827666389	 0.193418
H	 0.2525690115	-1.345909063	 1.7162560762	 0.10431
115.9953	150.9691	189.3063	234.072	277.0992	409.6065	455.0128	501.7314	558.0199	585.6203	610.1789	649.4169	658.29	754.5697	812.0635	826.3125	894.4904	909.8353	960.3051	965.9594	1028.6609	1046.8886	1078.8136	1105.257	1134.7544	1160.9015	1180.3121	1227.2666	1241.453	1272.9243	1294.0201	1353.5704	1386.6811	1453.11	1491.5647	1500.1979	2240.6169	3022.6768	3090.2218	3111.2759	3162.5872	3173.2387	3195.9989	3458.7748	3502.0631
CN1C2C3NC3(C#C)C12	CN1[C@H]2[C@@H]3N[C@]3(C#C)[C@@H]12	
InChI=1S/C7H8N2/c1-3-7-5(8-7)4-6(7)9(4)2/h1,4-6,8H,2H3	InChI=1S/C7H8N2/c1-3-7-5(8-7)4-6(7)9(4)2/h1,4-6,8H,2H3/t4-,5-,6-,7-,9?/m0/s1
