17
gdb 80991	2.75467	1.58229	1.25417	3.9374	68.41	-0.2588	0.0129	0.2718	1021.8392	0.135782	-458.983005	-458.975139	-458.974195	-459.014945	30.786	
C	-0.0770436982	 1.4985024244	 0.0079702177	-0.502664
C	 0.0951574831	 0.0103364729	 0.0102307292	 0.417805
C	 1.0007682113	-0.7997342072	-0.9525304242	-0.280201
C	 0.6815686551	-1.9370577537	 0.0733838629	-0.250432
C	 0.7195235164	-0.8027927818	 1.1775894731	 0.098968
O	 1.9875913187	-0.3178271261	 1.5228736459	-0.440178
C	-0.8252011506	-2.0091536487	-0.0919109668	 0.449661
O	-1.5932326597	-2.9202592139	-0.1594645145	-0.352016
O	-1.1905914136	-0.6821526842	-0.1297181868	-0.281967
H	 0.8864191952	 1.9781096601	 0.1991597132	 0.141681
H	-0.4579946546	 1.8440406254	-0.9573784773	 0.135599
H	-0.7812400448	 1.8055417613	 0.7867794028	 0.136487
H	 0.6525834013	-0.9217837797	-1.9800107562	 0.115871
H	 2.0427358633	-0.4864877099	-0.9122983212	 0.130072
H	 1.2207834949	-2.877990039	 0.1436742977	 0.094495
H	 0.0751704396	-0.949386156	 2.0536719211	 0.090993
H	 2.3870752529	-0.9238077038	 2.1548245934	 0.295825
165.5076	193.9118	216.0857	251.2464	272.3887	327.1009	363.0412	472.6213	509.7868	548.449	608.2169	673.677	746.653	794.97	873.7032	894.4183	905.4561	911.4089	959.6993	1006.0415	1053.6758	1087.6898	1116.6953	1133.4267	1182.4656	1203.0319	1206.8421	1228.3013	1269.9613	1298.3526	1344.4956	1418.3486	1432.4336	1482.6347	1488.3363	1490.2892	1910.0621	3030.4888	3046.9842	3085.8188	3118.9562	3129.3904	3161.4215	3164.3612	3822.7712
CC12CC(C1O)C(=O)O2	C[C@@]12C[C@@H]([C@H]1O)C(=O)O2	
InChI=1S/C6H8O3/c1-6-2-3(4(6)7)5(8)9-6/h3-4,7H,2H2,1H3	InChI=1S/C6H8O3/c1-6-2-3(4(6)7)5(8)9-6/h3-4,7H,2H2,1H3/t3-,4+,6+/m0/s1
