17
gdb 81753	3.36729	1.25051	1.07525	1.8385	76.42	-0.2491	0.0127	0.2618	1150.3654	0.133432	-421.753414	-421.744641	-421.743697	-421.786593	33.308	
C	-0.1151683017	 1.5948531659	-0.0471567534	-0.40799
C	-0.0129676221	 0.0777649177	-0.015976024	-0.057721
C	 0.7242303645	-0.6193221866	-1.1631998818	-0.063233
O	 2.0964080715	-0.2092755178	-1.1078866814	-0.298433
C	 1.6731121706	-1.2955830699	-0.2463536913	 0.277735
C	 2.3457562804	-2.5450193683	-0.3127379398	 0.139999
C	 2.8997428105	-3.6124320186	-0.3128621366	-0.371092
C	 1.0400004509	-0.5847053514	 0.9743355263	 0.04488
O	 1.8869259408	 0.2496399718	 1.7042912279	-0.426018
H	 0.8443378349	 2.0486674528	-0.3094727824	 0.12308
H	-0.8543906912	 1.9227613632	-0.7852145436	 0.117438
H	-0.4156692267	 1.9824094839	 0.9306268564	 0.130327
H	-0.9947213611	-0.3800688421	 0.1430899133	 0.083486
H	 0.3549707125	-0.958999049	-2.1242990937	 0.117719
H	 3.3925585524	-4.5531897737	-0.323343244	 0.192119
H	 0.5724106134	-1.275582338	 1.6783950117	 0.103209
H	 2.4236717105	 0.7273414201	 1.0590650663	 0.294496
95.7548	130.9216	170.2965	191.0744	235.351	278.3442	371.9091	451.7832	474.366	529.8517	559.6889	608.9619	623.741	667.3587	693.5161	710.392	806.18	862.238	893.7299	927.6543	1006.3734	1037.4575	1062.79	1126.1967	1137.5316	1160.6163	1191.2941	1238.2002	1266.3567	1308.9997	1357.4844	1397.1388	1415.6961	1447.5006	1489.6388	1503.305	2240.4361	3041.4764	3057.7543	3103.7321	3108.2975	3120.4185	3188.5166	3501.1274	3778.237
CC1C2OC2(C#C)C1O	C[C@H]1[C@H]2O[C@@]2(C#C)[C@H]1O	
InChI=1S/C7H8O2/c1-3-7-5(8)4(2)6(7)9-7/h1,4-6,8H,2H3	InChI=1S/C7H8O2/c1-3-7-5(8)4(2)6(7)9-7/h1,4-6,8H,2H3/t4-,5+,6-,7+/m1/s1
