23
gdb 52848	2.23245	1.13691	0.95334	0.2335	93.64	-0.2384	0.0636	0.302	1424.608	0.205337	-351.158076	-351.147645	-351.146701	-351.19545	37.63	
C	-0.2785705918	 1.327113298	 0.2437133817	-0.497163
C	-0.1450351396	-0.1175914818	 0.111823156	-0.022795
C	-0.0330122075	-1.3123339548	-0.000155416	 0.13768
C	 0.1067343769	-2.7666726149	-0.1426155615	 0.101011
C	 0.8394887691	-3.0956955895	-1.4543743525	-0.435696
C	 0.8129809137	-3.3606827139	 1.1072015454	-0.213771
C	-0.2668529579	-3.3806829536	 2.2095012503	-0.204211
C	-1.6327871906	-3.4385764048	 1.4610131362	-0.204215
C	-1.2850766329	-3.44968859	-0.0424706879	-0.213767
H	 0.2234701399	 1.6948046895	 1.1457365397	 0.14467
H	 0.1621870629	 1.8480335315	-0.6137512187	 0.145454
H	-1.3305129809	 1.6277766701	 0.3062029456	 0.14467
H	 1.8370846908	-2.6467084658	-1.4691315613	 0.118728
H	 0.9475596933	-4.1798471694	-1.567710613	 0.106842
H	 0.287942447	-2.7123898555	-2.3180169348	 0.118727
H	 1.1292690734	-4.3820961344	 0.8624551709	 0.089358
H	 1.7065321512	-2.7975515844	 1.3879262517	 0.09773
H	-0.1291056646	-4.2253418323	 2.8900450918	 0.093205
H	-0.206461223	-2.4725526376	 2.8151878718	 0.106628
H	-2.2244545244	-4.3141332078	 1.7418891126	 0.093205
H	-2.2340729494	-2.5584759622	 1.7040838656	 0.106626
H	-2.0369955223	-2.9563876316	-0.6634586951	 0.097729
H	-1.1820386932	-4.4801645146	-0.4040288184	 0.089359
13.3885	60.8102	81.8775	116.4557	184.0365	237.8819	272.153	290.6008	325.3846	350.0639	467.2608	531.4921	592.5927	632.346	648.0995	775.4395	806.4408	864.2708	892.9451	915.2325	955.9279	997.066	1039.471	1050.6637	1052.1295	1054.116	1061.7124	1112.2199	1129.7566	1164.1018	1224.7104	1228.4941	1264.6159	1290.1803	1307.5903	1342.1084	1343.4184	1354.0263	1407.091	1415.0114	1479.3816	1479.6056	1479.7564	1488.297	1489.4573	1489.6199	1501.2989	1514.1789	2361.5517	3023.5884	3026.7731	3028.6974	3035.2292	3053.0382	3064.0152	3081.7119	3082.8213	3083.1526	3093.9431	3098.9098	3102.7306	3109.8364	3111.7021
CC#CC1(C)CCCC1	CC#CC1(C)CCCC1	
InChI=1S/C9H14/c1-3-6-9(2)7-4-5-8-9/h4-5,7-8H2,1-2H3	InChI=1S/C9H14/c1-3-6-9(2)7-4-5-8-9/h4-5,7-8H2,1-2H3
