17
gdb 97746	5.17702	0.71576	0.67696	2.803	78.93	-0.2392	0.0248	0.264	1641.0547	0.134546	-421.709063	-421.700354	-421.69941	-421.744933	31.198	
O	 0.5846660758	 0.1322662052	-0.9549537346	-0.409455
C	-0.0714911081	 0.2929515681	 0.2974020529	-0.219629
C	-1.3477641591	-0.4098109225	 0.2719357614	 0.147198
C	-2.4056264268	-0.9862633264	 0.2654554166	 0.019065
C	-3.6735260416	-1.6804525474	 0.2497148646	-0.171425
C	-4.6238006117	-1.6286001572	-0.9942304282	 0.052387
C	-3.6371500311	-2.5079771367	-1.796521584	-0.237136
C	-3.8228045846	-3.1055419327	-0.3826987824	 0.052374
O	-5.2753951853	-2.8566687346	-0.4928816139	-0.308731
H	 1.4206097487	 0.6069861075	-0.9033932626	 0.290577
H	 0.5415885142	-0.1044410809	 1.122957353	 0.118433
H	-0.2513865615	 1.3575812539	 0.5199539865	 0.118437
H	-4.2219658242	-1.5886004023	 1.189882102	 0.108646
H	-5.2646791443	-0.8103730532	-1.3225364048	 0.101101
H	-4.0926642757	-3.0875064539	-2.5995463996	 0.11012
H	-2.664351887	-2.0875863659	-2.0554136437	 0.126941
H	-3.5002817776	-4.063747231	 0.0245199068	 0.101097
11.4004	68.1132	103.6525	208.4591	226.7493	293.8216	386.7814	435.5245	497.2759	576.2235	606.3101	725.1766	817.8106	851.0167	878.7209	885.2261	911.2966	937.7424	1004.3415	1027.609	1051.9453	1060.5956	1086.2386	1130.646	1169.5755	1179.1775	1187.796	1209.6877	1245.0043	1252.7785	1258.7564	1270.4699	1352.296	1459.655	1485.7674	1503.2019	2363.6536	2961.6842	2979.5622	3081.8055	3091.1619	3118.4611	3125.3255	3162.9077	3817.4468
OCC#CC1C2CC1O2	OCC#C[C@H]1[C@H]2C[C@@H]1O2	
InChI=1S/C7H8O2/c8-3-1-2-5-6-4-7(5)9-6/h5-8H,3-4H2	InChI=1S/C7H8O2/c8-3-1-2-5-6-4-7(5)9-6/h5-8H,3-4H2/t5-,6+,7-
