23
gdb 108668	2.12905	1.34902	0.91083	1.7638	89.25	-0.2283	0.022	0.2503	1365.3048	0.206632	-388.314509	-388.3048	-388.303855	-388.349271	36.63	
C	 0.1122940916	 1.5399264653	-0.4616315428	-0.484576
C	-0.0459778892	 0.0642620646	-0.1876611267	 0.204083
C	-1.2074904254	-0.5648169756	 0.0617365721	 0.164049
C	-2.5465672303	 0.1220685876	 0.1848410741	-0.155377
O	-3.1379061891	-0.0916169123	 1.4703825459	-0.415264
C	-1.2866819839	-2.0647681542	 0.2900976938	-0.252842
C	-0.0304825932	-2.8241948108	-0.1445459743	-0.207133
C	 1.220711174	-2.0959202882	 0.3472691482	-0.203415
C	 1.2735706079	-0.6845222465	-0.2438854123	-0.262259
H	 0.6078662063	 1.6929966327	-1.4294836864	 0.124382
H	-0.8240903373	 2.097318097	-0.4816215859	 0.122842
H	 0.7650441065	 2.0034791288	 0.2897713066	 0.120842
H	-2.490935959	 1.1931015347	-0.0397284633	 0.087271
H	-3.2592210696	-0.319176979	-0.5231632515	 0.107564
H	-2.5181170158	 0.252201828	 2.1225621875	 0.278087
H	-1.4946994051	-2.2536884786	 1.3517167032	 0.108739
H	-2.1661681017	-2.4541025619	-0.2399846602	 0.096717
H	-0.0613080321	-3.8521783915	 0.2324904479	 0.089672
H	-0.0007763576	-2.8906162477	-1.2403065911	 0.093595
H	 1.1951200959	-2.0331157795	 1.443223318	 0.093968
H	 2.1295404237	-2.6483127262	 0.0848997622	 0.089422
H	 1.6054391892	-0.7306743391	-1.2930407011	 0.103917
H	 2.0401185942	-0.0881911677	 0.2693166861	 0.095717
59.2586	103.2815	124.1244	144.0895	234.4053	292.0785	321.0215	350.2181	370.4107	429.9635	438.9127	461.4848	572.8394	633.3297	698.1515	830.6974	846.2969	879.0453	895.8547	931.0267	971.4035	1017.6658	1030.7679	1040.5042	1077.9769	1106.9728	1125.1554	1150.5684	1157.6595	1198.9416	1204.7202	1248.8622	1269.6767	1300.3446	1362.3045	1368.4853	1372.9129	1381.895	1387.8554	1408.9239	1419.35	1471.3706	1477.4866	1482.6505	1485.5989	1490.1616	1500.7222	1508.4143	1729.2102	2986.1885	3011.9608	3013.5216	3015.1521	3017.6395	3024.3719	3031.3403	3038.3112	3055.2707	3059.1854	3066.4457	3070.0577	3139.9402	3806.7015
CC1=C(CO)CCCC1	CC1=C(CO)CCCC1	
InChI=1S/C8H14O/c1-7-4-2-3-5-8(7)6-9/h9H,2-6H2,1H3	InChI=1S/C8H14O/c1-7-4-2-3-5-8(7)6-9/h9H,2-6H2,1H3
