19
gdb 76585	3.13823	0.80765	0.76398	1.6042	100.71	-0.2256	-0.0103	0.2153	1583.7813	0.156558	-348.699275	-348.68919	-348.688246	-348.734443	36.9	
C	-0.169793194	 1.5444226824	 0.0546922668	-0.411338
C	 0.0187948274	 0.0472173375	-0.0351123583	-0.016782
C	 0.683646224	-0.6328038633	-1.1993219197	-0.016801
C	 1.2294053416	 0.1132996854	-2.3954563634	-0.411338
C	 1.3972988789	-0.5997097841	 0.1594447282	-0.275197
C	 2.5603096709	 0.2022087672	 0.3551779393	 0.456007
C	 3.5575554272	 0.86905491	 0.5354838472	-0.294542
C	 4.6721162463	 1.6220148983	 0.7321521443	 0.302256
C	 5.6629889848	 2.2913414683	 0.906919882	-0.575097
H	 0.6969286881	 2.0923041709	-0.3202146625	 0.134614
H	-1.0472179564	 1.8591866875	-0.5205638349	 0.118514
H	-0.3236928295	 1.8503935118	 1.0945989978	 0.125025
H	-0.7845663162	-0.5217802096	 0.4260195662	 0.092355
H	 0.2828168013	-1.613493884	-1.4429831934	 0.09235
H	 1.7198383797	 1.0462229941	-2.1107361139	 0.13462
H	 1.970196066	-0.4963061749	-2.923013506	 0.12502
H	 0.4270480788	 0.3516011112	-3.1020731402	 0.118516
H	 1.4062080908	-1.5357788637	 0.7113347882	 0.11486
H	 6.5330845807	 2.8796609951	 1.0600837724	 0.186955
73.479	74.5619	157.8773	162.7156	182.2018	193.1341	247.7033	336.272	364.5247	470.1293	486.9174	503.4152	533.7883	560.8898	597.7974	624.3256	727.2578	728.1447	785.813	912.2267	927.6246	968.3674	1034.4384	1073.5097	1074.6225	1128.2272	1150.2228	1189.6398	1198.4864	1264.8384	1374.2406	1377.3923	1421.5698	1424.5193	1431.4175	1483.9536	1492.307	1499.1758	1511.2954	2177.2102	2346.2491	3037.2275	3040.5155	3096.1438	3097.592	3119.1275	3128.0172	3136.3382	3136.943	3150.9769	3505.7226
CC1C(C)C1C#CC#C	C[C@H]1[C@@H](C)[C@H]1C#CC#C	
InChI=1S/C9H10/c1-4-5-6-9-7(2)8(9)3/h1,7-9H,2-3H3	InChI=1S/C9H10/c1-4-5-6-9-7(2)8(9)3/h1,7-9H,2-3H3/t7-,8+,9-
