19
gdb 100167	1.99094	1.43626	1.10538	1.7686	72.47	-0.2498	-0.0518	0.198	1190.8095	0.154496	-460.186842	-460.176105	-460.17516	-460.222763	37.693	
C	 0.0167540986	 1.4370558967	 0.0944444495	-0.487961
C	-0.1100077649	-0.0714849652	 0.0712754621	 0.349731
O	-0.2993374117	-0.7182486201	 1.0753755683	-0.301021
C	 0.0036344055	-0.7722563184	-1.3085628722	 0.061415
C	 1.1861556235	-0.2188076897	-2.1246427731	-0.444016
C	 0.1052063907	-2.2849060139	-1.0962137661	-0.114792
O	 0.08764001	-2.8837043721	-2.3856172307	-0.430163
C	-1.3185157023	-0.4809337465	-2.0371238873	 0.152202
O	-1.5196810826	 0.490150541	-2.7182144047	-0.257592
H	 1.0670017685	 1.7208733029	-0.0349908117	 0.150567
H	-0.5421688711	 1.8935947661	-0.7270218354	 0.163273
H	-0.332894413	 1.8112074247	 1.0573069154	 0.144058
H	 2.1089308505	-0.2357710481	-1.536599452	 0.115678
H	 1.3311916198	-0.8424106665	-3.0088161436	 0.151586
H	 0.9889410354	 0.8021890337	-2.4534943091	 0.141453
H	 1.0260512016	-2.5218131882	-0.5456269855	 0.102581
H	-0.7381909127	-2.623352074	-0.4808909274	 0.111099
H	 0.0866853392	-3.8389473616	-2.2770786744	 0.294526
H	-2.1143734249	-1.2344556308	-1.8565449419	 0.097376
63.8178	67.1142	123.9013	173.2935	190.5679	214.3397	229.4821	260.3779	282.0184	294.5053	353.912	363.2834	427.2537	570.019	577.2327	634.9226	725.7416	845.0283	913.1298	952.3191	978.0804	993.8963	1062.1963	1076.5607	1124.1731	1174.3712	1180.7638	1237.313	1263.8626	1288.7951	1386.738	1397.1772	1421.5226	1449.0995	1464.2341	1473.7881	1492.003	1510.6481	1516.1232	1790.0416	1826.3372	2906.2815	3006.3843	3045.7521	3046.2644	3052.6995	3113.291	3128.2783	3152.5097	3157.4773	3837.1719
CC(=O)C(C)(CO)C=O	CC(=O)[C@@](C)(CO)C=O	
InChI=1S/C6H10O3/c1-5(9)6(2,3-7)4-8/h3,8H,4H2,1-2H3	InChI=1S/C6H10O3/c1-5(9)6(2,3-7)4-8/h3,8H,4H2,1-2H3/t6-/m1/s1
