19
gdb 62844	2.60082	1.80759	1.49259	1.7195	76.52	-0.2236	0.0573	0.2809	971.649	0.156946	-422.876422	-422.868191	-422.867247	-422.908418	33.223	
C	-0.1258693681	 1.4957561893	 0.0507096415	-0.489975
C	 0.0221068612	-0.0122793155	-0.0636105765	 0.401247
O	-1.1966896391	-0.6062550537	-0.4504811234	-0.478853
C	 1.3291654049	-0.5852342957	-0.6596261881	-0.064823
O	 2.0497422126	-0.0182491669	 0.5510857654	-0.379761
C	 0.8411123977	-0.7572600569	 1.0573210316	 0.339579
C	 0.2215100116	-1.6449567536	 2.1459135628	-0.339109
C	-0.0095285337	-2.6702163519	 0.9362023464	-0.270889
C	 1.1503038736	-1.9172495756	 0.1617480513	-0.039563
H	 0.8032830033	 1.9592984584	 0.3768615666	 0.152653
H	-0.4020275387	 1.9231572671	-0.9226098079	 0.106098
H	-0.9227159623	 1.7399533945	 0.7611104068	 0.122282
H	-1.6674692759	 0.0216190421	-1.0062578659	 0.28365
H	 1.8310168708	-0.3883446141	-1.612460386	 0.083256
H	 0.9569313209	-2.030380262	 2.8558350331	 0.123476
H	-0.6526455799	-1.2664102301	 2.6815790108	 0.11082
H	 0.2287478342	-3.7104700845	 1.1637769381	 0.104684
H	-1.0033918129	-2.5933466577	 0.5088779927	 0.148552
H	 2.1206153898	-2.3667508333	 0.3786170007	 0.086678
150.1418	188.0943	200.8781	238.5745	290.9512	350.4459	399.2925	415.4936	461.0903	563.864	589.0871	645.434	674.9173	722.153	757.7637	816.6819	820.9858	874.5665	887.5349	951.8183	986.7446	1022.808	1051.9378	1072.5162	1094.6228	1127.9299	1158.684	1170.0557	1192.7851	1204.7461	1209.1259	1229.323	1236.5964	1291.9648	1346.7744	1393.4565	1414.0318	1466.6762	1478.2715	1490.9098	1506.5954	3020.8579	3062.3269	3064.3175	3084.8725	3089.8681	3100.3367	3125.7625	3167.2699	3202.8882	3826.4896
CC1(O)C2OC11CCC21	C[C@@]1(O)[C@H]2O[C@]31CC[C@@H]23	
InChI=1S/C7H10O2/c1-6(8)5-4-2-3-7(4,6)9-5/h4-5,8H,2-3H2,1H3	InChI=1S/C7H10O2/c1-6(8)5-4-2-3-7(4,6)9-5/h4-5,8H,2-3H2,1H3/t4-,5-,6+,7+/m0/s1
