14
gdb 27666	3.07449	1.29693	0.91583	7.2778	73.53	-0.2011	0.0023	0.2034	1182.7695	0.103597	-429.102573	-429.094262	-429.093318	-429.135264	30.742	
N	 0.0469231578	 1.3722356388	-0.1824615793	-0.602838
C	-0.0239182275	-0.0110689056	-0.064071098	 0.377894
N	-1.0930363402	-0.7459863924	-0.1725485169	-0.36672
C	-0.6358929083	-2.0636156792	-0.1046376704	 0.132377
C	-1.4643951028	-3.2039195912	-0.1953703127	 0.191204
N	-2.0896545544	-4.1788967256	-0.2643562702	-0.366623
C	 0.7305497839	-2.0948504627	 0.0761265985	 0.254317
N	 1.6278564277	-3.1288739469	 0.3064646995	-0.615224
N	 1.1160794951	-0.7729653477	 0.0947188015	-0.324511
H	-0.885623276	 1.7483507116	-0.3041108019	 0.268338
H	 0.4984127194	 1.8279549605	 0.6027720626	 0.252078
H	 1.1536272038	-4.023927804	 0.3314498947	 0.273844
H	 2.3881062975	-3.1719008627	-0.3641205593	 0.256349
H	 2.0581709339	-0.4352679728	 0.202128782	 0.269513
130.8989	143.2534	208.0652	228.7293	253.5894	289.4748	363.3623	414.5581	469.3844	531.9161	543.1469	618.9569	662.2187	681.1341	716.1826	778.3581	797.4233	835.1407	1023.487	1092.6285	1144.2116	1205.0784	1273.3792	1310.4784	1463.9068	1483.6865	1612.0705	1621.9643	1664.0903	1668.6479	2328.1608	3510.0774	3521.4038	3604.9814	3618.9097	3660.983
NC1=NC(C#N)=C(N)N1	Nc1nc(C#N)c(N)[nH]1	
InChI=1S/C4H5N5/c5-1-2-3(6)9-4(7)8-2/h6H2,(H3,7,8,9)	InChI=1S/C4H5N5/c5-1-2-3(6)9-4(7)8-2/h6H2,(H3,7,8,9)
