16
gdb 128719	5.21744	0.87841	0.76465	1.2517	68.69	-0.2488	-0.0034	0.2454	1441.7425	0.123632	-475.003462	-474.99473	-474.993786	-475.037561	30.858	
C	 0.0095169857	 1.3492148399	 0.0416044927	-0.24269
O	-0.2150034318	-0.0430776734	-0.1987740578	-0.262123
C	 0.5349140828	-0.5942530213	-1.1547665382	 0.50046
N	 1.4267889931	 0.0788532392	-1.846887539	-0.25335
O	 1.9725667192	-0.8652027767	-2.7307920576	-0.233558
C	 1.3887807518	-2.0576075199	-2.5199638991	 0.415757
C	 1.8445604446	-3.2017939567	-3.373412672	-0.168388
O	 0.9038211166	-4.255418122	-3.3958742468	-0.400749
C	 0.4588504543	-1.9662178225	-1.5363774697	-0.466245
H	 1.0447737272	 1.5264780039	 0.3483352291	 0.143437
H	-0.1956143847	 1.9352211613	-0.8594308492	 0.142557
H	-0.6774233066	 1.6270598579	 0.8411943306	 0.133733
H	 2.0869411615	-2.8237808321	-4.3780469414	 0.122208
H	 2.7672576082	-3.6293860813	-2.9643715247	 0.14482
H	 0.0891723533	-3.9142673308	-3.7803898729	 0.290924
H	-0.1686498852	-2.7388462756	-1.1285587039	 0.133207
62.1965	98.5536	151.0571	172.8408	209.3372	250.9016	338.8571	391.7878	445.7505	476.5663	623.0198	685.3467	726.8632	751.9904	812.4267	948.1409	985.6281	1008.5625	1027.0871	1054.2737	1096.4346	1163.0141	1179.9623	1203.4717	1226.0345	1270.6293	1387.434	1415.1617	1449.5059	1479.7271	1490.254	1492.6799	1503.1415	1561.5968	1655.3475	2998.6218	3040.2587	3062.4181	3110.8695	3154.1412	3296.1915	3810.2669
COC1=NOC(CO)=C1	COc1noc(CO)c1	
InChI=1S/C5H7NO3/c1-8-5-2-4(3-7)9-6-5/h2,7H,3H2,1H3	InChI=1S/C5H7NO3/c1-8-5-2-4(3-7)9-6-5/h2,7H,3H2,1H3
