18
gdb 51370	3.82206	1.11378	1.04588	3.7176	76.83	-0.217	0.0274	0.2445	1188.4632	0.148321	-401.887494	-401.879671	-401.878727	-401.920559	30.28	
O	 0.608479088	 1.2590588914	 2.2862989914	-0.316679
C	 0.2728530705	 1.817036778	 1.2647323135	 0.143206
N	 1.0915930495	 2.0482476573	 0.1995886212	-0.296688
C	 2.4132875571	 1.4818217357	 0.1351241978	 0.05762
C	 3.387827586	 1.6473684494	-0.9827724213	-0.147416
C	 3.6421945155	 3.0968853574	-1.4911795943	-0.06684
C	 2.8938088511	 4.2044532214	-0.7843396211	-0.306846
C	 4.0437308874	 3.531382948	-0.0937570585	-0.045457
C	 3.7546836666	 2.1054579928	 0.4401816059	-0.079175
H	-0.7498187718	 2.208880219	 1.0910644832	 0.072877
H	 0.6721706828	 2.3790163535	-0.6550176631	 0.255282
H	 2.4066000827	 0.4621872995	 0.5178698419	 0.123606
H	 3.7642073314	 0.7941482843	-1.5345502223	 0.094832
H	 4.166553857	 3.2758771123	-2.4205146303	 0.094157
H	 3.1400355459	 5.1899572947	-1.1711692334	 0.114489
H	 1.8782580868	 4.1184411599	-0.4273546337	 0.111716
H	 4.9327022378	 4.0705274446	 0.2061000459	 0.09406
H	 4.4148253458	 1.6199045309	 1.1476584473	 0.097256
38.8553	130.5518	212.7684	227.7527	303.4281	391.8951	512.007	544.6387	635.7143	680.9986	700.3189	707.3852	749.2053	827.3684	864.7798	905.0782	909.8025	948.1893	989.9965	1012.2176	1029.3521	1030.9942	1042.4166	1057.4485	1076.089	1092.4157	1123.3913	1164.2202	1193.891	1256.2968	1265.7616	1293.8258	1331.0663	1367.8966	1429.6104	1441.3755	1489.2274	1501.2471	1808.6091	2928.2538	3120.5146	3135.492	3174.9714	3189.1769	3194.5828	3203.7152	3242.4696	3628.027
O=CNC1C2C3CC3C12	O=CN[C@H]1[C@H]2[C@H]3C[C@H]3[C@@H]12	
InChI=1S/C7H9NO/c9-2-8-7-5-3-1-4(3)6(5)7/h2-7H,1H2,(H,8,9)	InChI=1S/C7H9NO/c9-2-8-7-5-3-1-4(3)6(5)7/h2-7H,1H2,(H,8,9)/t3-,4+,5-,6+,7-
