15
gdb 62293	3.42107	1.57619	1.35523	5.5532	67.94	-0.25	0.0217	0.2717	934.4252	0.113867	-416.740505	-416.733618	-416.732674	-416.771629	27.638	
O	 0.0989191358	 1.3654297799	-0.0456853054	-0.47987
C	 0.0119546478	-0.0215151198	-0.0226845554	 0.330479
C	 0.8304265485	-0.5465978154	 1.07440216	 0.268457
N	 1.4711096751	-0.9836629119	 1.9302941788	-0.336507
C	-1.3631891271	-0.711505518	-0.0870427252	-0.138393
C	-1.7189073732	-0.7432942876	-1.5708293044	-0.057336
N	-0.6333230732	-0.003467322	-2.2679991393	-0.358361
C	 0.2968385863	-0.7729406074	-1.3735389186	-0.111977
C	-0.8287632711	-1.8079807175	-1.0009054973	-0.092797
H	-0.2165590819	 1.6039044636	-0.9342872366	 0.294252
H	-2.1050416314	-0.7833582673	 0.6962833489	 0.114254
H	-2.7414614254	-0.7735096614	-1.9220526031	 0.115341
H	-0.5464527872	-0.3746440624	-3.2121814501	 0.232692
H	 1.3116892023	-0.9518906349	-1.7177987078	 0.104328
H	-0.8749095452	-2.8843034879	-0.9284692546	 0.115438
146.6818	153.3975	263.5109	339.5534	490.7471	508.8118	538.0133	548.9431	600.8602	672.5682	770.6276	786.7155	798.8608	836.6492	854.1655	923.2887	933.7319	960.0753	1013.2328	1021.2189	1046.8317	1059.2095	1094.484	1105.1837	1165.0899	1174.1367	1195.039	1207.4548	1285.0972	1343.2651	1373.2363	1427.0403	2366.184	3165.5824	3211.4835	3218.2978	3234.7893	3484.1985	3663.4243
OC1(C#N)C2C3NC1C23	O[C@@]1(C#N)[C@H]2[C@H]3N[C@@H]1[C@@H]23	
InChI=1S/C6H6N2O/c7-1-6(9)3-2-4(3)8-5(2)6/h2-5,8-9H	InChI=1S/C6H6N2O/c7-1-6(9)3-2-4(3)8-5(2)6/h2-5,8-9H/t2-,3+,4-,5+,6-/m0/s1
