18
gdb 100245	2.06467	1.28798	0.99861	5.4884	72.55	-0.2701	-0.0432	0.2269	1258.0662	0.143744	-439.107709	-439.097301	-439.096356	-439.143625	36.359	
C	 0.6787346561	-0.63662548	 1.3676160492	-0.426201
C	 0.0997656468	 0.0001746344	 0.1001905991	-0.200838
C	 0.835235658	-0.3856929174	-1.2097308123	 0.255723
O	 2.2211065372	-0.1117651405	-1.1404190723	-0.457285
C	 0.5282107746	-1.8510759531	-1.6086975397	-0.407641
C	 1.377127604	-2.3360987867	-2.6940176691	 0.274873
N	 2.0492077538	-2.7340598857	-3.5449497472	-0.303707
C	 0.309069455	 0.5568485511	-2.2981422425	 0.165105
O	-0.7305388843	 0.3895710032	-2.8771970591	-0.256907
H	 0.6275129293	-1.7301783265	 1.3515451249	 0.126364
H	 1.722165464	-0.3425575337	 1.5205023773	 0.125987
H	 0.11896669	-0.2999942892	 2.2444447796	 0.136747
H	-0.9594334292	-0.2552793134	-0.0134909133	 0.122583
H	 0.1502463112	 1.0909809661	 0.1998074666	 0.116994
H	 2.6292371301	-0.6921781985	-0.4901610736	 0.294491
H	 0.6494443806	-2.5182179383	-0.7490612814	 0.145235
H	-0.5186480454	-1.901527475	-1.9252239096	 0.17802
H	 0.9653230681	 1.4347878833	-2.4735917867	 0.110458
51.1912	77.2133	108.3455	136.8019	207.8427	215.8225	254.3627	276.4844	323.5921	334.1988	387.158	396.8268	461.402	553.6244	631.3816	780.4307	792.1682	882.805	902.4438	960.2666	1000.005	1023.0576	1047.8167	1090.697	1145.9189	1194.3707	1231.3666	1313.9086	1332.249	1338.5293	1388.1477	1398.8234	1417.6122	1455.2247	1479.4768	1500.8298	1509.7215	1839.4777	2367.1884	2926.392	3035.3568	3039.7236	3056.0665	3077.6549	3101.0261	3108.8593	3114.0997	3828.1871
CCC(O)(CC#N)C=O	CC[C@@](O)(CC#N)C=O	
InChI=1S/C6H9NO2/c1-2-6(9,5-8)3-4-7/h5,9H,2-3H2,1H3	InChI=1S/C6H9NO2/c1-2-6(9,5-8)3-4-7/h5,9H,2-3H2,1H3/t6-/m1/s1
