16
gdb 34156	3.8904	1.57613	1.38996	1.3401	78.35	-0.2286	0.031	0.2596	934.9083	0.124959	-363.488465	-363.481886	-363.480942	-363.519164	27.389	
C	 0.037152835	-1.167239099	-0.0033662436	-0.361037
C	 0.0207010475	 0.0359559973	 0.0210798436	 0.062417
C	-0.0016083582	 1.4665034453	 0.0536671617	 0.266668
C	-0.491513311	 2.303834647	 1.2716418777	-0.286361
C	 0.3280508869	 3.4265247263	 0.6245077452	-0.016232
C	 1.2940051904	 2.4038927216	-0.0439836527	-0.135967
C	 0.8281728238	 2.9215961411	-1.424540975	-0.044194
C	-0.4769929981	 2.2659547829	-1.1909906277	-0.112597
N	-0.2719021823	 3.6842507738	-0.7545766094	-0.154202
H	 0.0512403473	-2.2286691044	-0.0238760492	 0.1818
H	-1.5673711424	 2.4443088695	 1.4021783412	 0.112487
H	-0.0321907074	 1.9527115474	 2.1999728277	 0.115585
H	 0.6220714405	 4.3379856112	 1.1410083088	 0.082696
H	 2.2782560744	 2.0979121796	 0.298153561	 0.086913
H	 1.3303751369	 3.2580887627	-2.3227376603	 0.09986
H	-1.2981719334	 2.0406353577	-1.858909299	 0.102164
144.9817	156.6583	394.3036	446.1434	503.5966	518.3499	564.116	618.2734	634.6943	745.7954	751.9868	785.9447	794.8143	842.701	874.0345	896.1833	913.9247	939.7106	956.4119	999.393	1010.0985	1042.743	1063.3372	1092.301	1138.805	1151.8561	1193.9049	1202.3717	1241.2369	1250.9488	1257.3564	1296.1397	1334.7209	1479.6794	2231.7349	3059.801	3123.6656	3137.6694	3162.9268	3189.6306	3204.8308	3502.7975
C#CC12CC3C1C1C2N31	C#C[C@@]12C[C@H]3[C@@H]1[C@H]1[C@@H]2N31	
InChI=1S/C8H7N/c1-2-8-3-4-5(8)6-7(8)9(4)6/h1,4-7H,3H2	InChI=1S/C8H7N/c1-2-8-3-4-5(8)6-7(8)9(4)6/h1,4-7H,3H2/t4-,5+,6-,7-,8+,9?/m0/s1
