20
gdb 105411	2.13417	1.45565	1.04121	4.7919	75.57	-0.2407	0.0181	0.2588	1218.4214	0.170403	-440.28852	-440.279088	-440.278144	-440.322881	34.415	
C	 0.1401530066	 1.4839011219	 0.1763291743	-0.396628
C	-0.055700538	-0.0028017475	-0.1427485182	-0.252794
C	 0.7229982873	-0.5138934496	-1.3594738779	 0.316329
C	 2.2506655778	-0.6373827045	-1.0959535391	-0.115959
O	 2.1089513388	-2.0486838505	-0.8397418121	-0.27385
C	 0.784169332	-2.0653285983	-1.4062862399	-0.120729
N	 0.2765117438	 0.1882542384	-2.5486676201	-0.34621
C	 0.7427330684	-0.0025593362	-3.8127552729	 0.149513
O	 1.6187029054	-0.7769557633	-4.1360446032	-0.324354
H	 1.1947825935	 1.7193017209	 0.3503300506	 0.130497
H	-0.2112594951	 2.1366137474	-0.6300704413	 0.110865
H	-0.414333856	 1.7569488243	 1.0786126013	 0.126403
H	 0.2622785869	-0.6050081675	 0.7145083446	 0.127878
H	-1.1223572563	-0.2186193387	-0.2939641793	 0.100653
H	 2.8676029349	-0.4404112975	-1.9770005989	 0.130226
H	 2.6464040396	-0.0990877503	-0.2268082609	 0.094315
H	 0.0670205609	-2.6022840258	-0.7734272958	 0.093504
H	 0.7777767562	-2.4751685187	-2.4205143943	 0.126826
H	-0.4706986442	 0.8561244322	-2.4412889233	 0.243168
H	 0.2183833075	 0.6504449434	-4.5398804634	 0.080346
82.1249	111.3663	126.6215	185.5194	216.7919	230.8724	246.5677	340.4304	371.4525	409.012	469.2831	547.0095	618.8171	789.6244	818.7819	846.4521	899.3923	969.9852	979.1637	990.016	1024.5298	1029.6957	1034.7665	1046.2573	1140.5801	1162.4194	1171.7836	1187.4002	1247.6565	1264.4623	1313.2139	1323.2036	1371.7584	1388.3082	1419.352	1436.778	1481.0915	1497.4725	1501.2779	1504.312	1524.024	1529.394	1802.1409	2925.6957	3017.6531	3023.8259	3033.3461	3038.1728	3075.6843	3091.8261	3097.0588	3103.7842	3113.4817	3626.4544
CCC1(COC1)NC=O	CCC1(COC1)NC=O	
InChI=1S/C6H11NO2/c1-2-6(7-5-8)3-9-4-6/h5H,2-4H2,1H3,(H,7,8)	InChI=1S/C6H11NO2/c1-2-6(7-5-8)3-9-4-6/h5H,2-4H2,1H3,(H,7,8)
