16
gdb 18236	4.69898	1.71223	1.39042	3.499	67.99	-0.244	0.032	0.276	906.1675	0.131548	-379.903874	-379.896616	-379.895672	-379.935726	26.415	
C	-0.1741940029	 1.4009914297	 0.1000711953	-0.328892
N	-0.1395751078	-0.0506730346	 0.1288284478	-0.321508
C	 0.65771114	-0.6340751668	 0.899862596	 0.459832
O	 1.52973334	-0.0132992616	 1.775483884	-0.256165
C	 2.4462280742	-0.9670363209	 2.3147330335	-0.114184
C	 1.8481026749	-2.3133048809	 1.9502805796	-0.036514
C	 0.4421266501	-2.5539298043	 2.3363731357	-0.248887
N	 0.7729437332	-2.0548615481	 0.9747202575	-0.152074
H	 0.6983945815	 1.8804439427	 0.5589785794	 0.119823
H	-0.256949113	 1.7311935948	-0.9404201195	 0.124234
H	-1.0731934864	 1.7568903653	 0.618548147	 0.124398
H	 3.4315273388	-0.8352322437	 1.8515772129	 0.121917
H	 2.53589112	-0.792635358	 3.3914896007	 0.12473
H	 2.5175175108	-3.1379990989	 1.7306468308	 0.113074
H	 0.0462928398	-3.5635875487	 2.3507151035	 0.13457
H	-0.0302341932	-1.857548536	 3.0244087857	 0.135644
82.9671	112.0268	193.2705	241.2262	305.8897	388.1166	491.7067	668.767	715.7478	754.2651	767.335	849.1098	861.6345	940.335	984.4223	1044.7378	1068.4597	1072.8085	1110.261	1117.8267	1130.2162	1134.6015	1161.3602	1190.376	1223.5309	1288.6365	1378.7823	1395.8503	1440.8876	1492.6836	1499.8557	1502.6685	1522.7768	1816.5599	3013.8759	3031.9951	3071.8852	3081.4822	3090.1928	3118.2171	3171.8042	3213.9424
CN=C1OCC2CN12	CN=C1OC[C@H]2CN12	
InChI=1S/C5H8N2O/c1-6-5-7-2-4(7)3-8-5/h4H,2-3H2,1H3	InChI=1S/C5H8N2O/c1-6-5-7-2-4(7)3-8-5/h4H,2-3H2,1H3/t4-,7?/m1/s1
