16
gdb 19744	5.02122	2.09	2.0895	1.2304	68.06	-0.2222	0.0111	0.2334	712.5337	0.133523	-346.570484	-346.56511	-346.564166	-346.599531	23.113	
C	 0.0026613742	 1.4958578881	-0.0205323231	-0.101004
O	 1.4223188708	 1.7827102687	-0.0373047042	-0.275793
C	 1.9747691138	 0.4905067118	 0.0087196276	 0.138778
C	 1.1519145704	-0.4222435894	-0.986191839	-0.094856
C	 1.5560966375	-1.8211727841	-0.5727237655	-0.107144
C	 1.561770053	-1.7711047573	 0.7648893506	-0.107143
C	 1.1606760942	-0.3450486095	 1.076031541	-0.094856
C	 0.0183558794	-0.0235877143	 0.0362773961	-0.059566
H	-0.4585051112	 1.9652818028	 0.8563368449	 0.10638
H	-0.4660818558	 1.898560147	-0.9260948711	 0.10638
H	 3.0646599778	 0.5262827515	 0.0027494498	 0.085383
H	 1.0742984056	-0.1627519555	-2.0423954126	 0.063611
H	 1.8151395026	-2.6327096849	-1.2374312376	 0.101757
H	 1.8266933156	-2.5307619167	 1.4861853707	 0.101757
H	 1.091943228	-0.0072971828	 2.1105004811	 0.063611
H	-0.9333953859	-0.5562062553	 0.0602586513	 0.072706
318.3726	340.7244	391.445	524.9852	609.1516	641.3075	715.1438	731.7253	804.2759	898.5855	903.5489	911.0078	938.4525	945.9385	952.1793	964.804	978.2223	1022.7864	1023.4899	1057.0619	1088.8273	1144.865	1161.4168	1187.2014	1189.7903	1219.6856	1235.2203	1245.8184	1267.9238	1310.9738	1337.1669	1375.1038	1515.1071	1623.8223	3026.6016	3066.9744	3109.9556	3113.7496	3116.7153	3129.1924	3222.3024	3248.4091
C1OC2C3C=CC2C13	C1O[C@@H]2[C@H]3C=C[C@@H]2[C@@H]13	
InChI=1S/C7H8O/c1-2-5-6-3-8-7(5)4(1)6/h1-2,4-7H,3H2	InChI=1S/C7H8O/c1-2-5-6-3-8-7(5)4(1)6/h1-2,4-7H,3H2/t4-,5+,6-,7+
