18
gdb 44067	3.23679	1.55894	1.44781	2.7864	77.55	-0.2081	-0.0135	0.1946	966.216	0.14877	-401.868995	-401.862202	-401.861258	-401.8999	28.564	
O	 0.0015291477	 0.0112588182	 0.1968119813	-0.33139
C	 0.0234582161	 1.2100670746	 0.1157712259	 0.450816
C	-1.1355116946	 2.2184766954	 0.0783936802	-0.382591
C	-0.2694101859	 3.51404353	-0.1132613459	 0.291943
C	-0.8450605716	 4.455928802	-1.2149672758	-0.315105
C	-0.1081358146	 3.4510896892	-2.2029364328	-0.200432
N	 0.7924624143	 3.1677207953	-1.0396123069	-0.078066
C	 1.2203171644	 2.1504868125	-0.0138740136	-0.148631
C	 0.7964822046	 3.3086264035	 1.0193556467	-0.308176
H	-1.8220350097	 2.011565856	-0.7462709909	 0.122293
H	-1.714666539	 2.2035905538	 1.0062705948	 0.122003
H	-1.930615645	 4.5404573931	-1.2956474144	 0.104811
H	-0.3776022022	 5.4410538727	-1.2382266966	 0.121783
H	-0.7656870728	 2.6419213037	-2.545683081	 0.110901
H	 0.4219350411	 3.8733691889	-3.0588487661	 0.115877
H	 2.2215667864	 1.725956957	-0.0586814952	 0.093598
H	 1.5592239028	 4.0859396183	 1.0483235263	 0.12457
H	 0.4744632181	 3.0036946057	 2.0193871041	 0.1058
114.7291	286.73	313.3341	372.5493	456.1822	477.3891	527.1684	564.9717	633.0062	656.8502	733.4168	764.0342	791.3884	814.2868	879.8224	887.5683	916.9868	956.3285	975.507	1025.5481	1057.1768	1078.1979	1099.0998	1123.3511	1149.1913	1155.3377	1167.933	1194.6729	1208.4064	1224.4729	1229.2804	1240.7152	1255.6695	1289.7919	1454.0183	1473.8496	1477.182	1516.163	1863.535	3018.7387	3062.8906	3067.0187	3079.4153	3106.6753	3111.1772	3145.6187	3147.2369	3157.96
O=C1CC23CCN2C1C3	O=C1C[C@]23CCN2[C@H]1C3	
InChI=1S/C7H9NO/c9-6-4-7-1-2-8(7)5(6)3-7/h5H,1-4H2	InChI=1S/C7H9NO/c9-6-4-7-1-2-8(7)5(6)3-7/h5H,1-4H2/t5-,7+/m0/s1
