18
gdb 8958	4.36316	1.06506	0.89774	0.0012	60.47	-0.2583	0.0546	0.3129	1246.9468	0.152196	-459.195407	-459.186015	-459.18507	-459.229536	34.069	
O	 0.1090735448	 1.3359997464	-0.3936520994	-0.426423
C	 0.0739824814	-0.048245974	-0.0406048566	-0.103462
C	-1.3750319709	-0.5382917909	 0.0006488697	 0.109611
O	-2.037853683	-0.168254621	-1.1950353839	-0.452058
C	-1.4715651744	-2.0542837637	 0.1421864506	 0.109581
O	-0.8084498887	-2.4243743238	 1.3376952408	-0.452042
C	-2.9205609641	-2.5443158034	 0.183755079	-0.103429
O	-2.9556066353	-3.9283119291	 0.5377709568	-0.426402
H	-0.1701408425	 1.8441481093	 0.3755359609	 0.289349
H	 0.6142294514	-0.5686208966	-0.8384613487	 0.115291
H	 0.5796245777	-0.2466054642	 0.9102660363	 0.120715
H	-1.8719429281	-0.0835895607	 0.8781703025	 0.057822
H	-1.6691221918	 0.6933675721	-1.4332645829	 0.289148
H	-0.9748439655	-2.5090023614	-0.7354331835	 0.057822
H	-1.176990637	-3.2860817734	 1.5759081534	 0.289132
H	-3.4607771766	-2.0234370177	 0.981302757	 0.115289
H	-3.4262307558	-2.3465548408	-0.7672253676	 0.120709
H	-2.6763336015	-4.4369777671	-0.2310506944	 0.289347
77.1603	102.3403	136.8195	144.2426	272.2051	285.8383	332.6518	341.3914	356.557	418.9792	432.7839	542.2609	542.4994	566.9998	618.7901	887.3864	904.1074	968.9032	1034.0139	1065.123	1073.2925	1074.5311	1114.7001	1155.6222	1157.62	1222.5367	1272.0038	1305.2668	1331.9306	1359.4414	1370.1348	1382.8162	1394.1272	1408.2277	1421.3136	1481.3892	1494.8567	1495.3212	2921.1855	2935.0101	3044.2743	3044.3287	3097.7079	3098.7549	3749.4227	3749.8186	3809.7857	3810.0441
OCC(O)C(O)CO	OC[C@@H](O)[C@@H](O)CO	
InChI=1S/C4H10O4/c5-1-3(7)4(8)2-6/h3-8H,1-2H2	InChI=1S/C4H10O4/c5-1-3(7)4(8)2-6/h3-8H,1-2H2/t3-,4+
