18
gdb 70048	3.69062	1.11592	0.95216	2.2778	81.96	-0.2419	-0.0642	0.1777	1245.161	0.147776	-401.956098	-401.947918	-401.946973	-401.988805	31.197	
C	 0.0485336618	 1.5140560064	-0.0359868743	-0.465943
C	-0.0544804034	 0.0151474467	 0.081452632	 0.322575
C	-1.4000041085	-0.6701645366	-0.1838922649	-0.390066
C	-1.3568328253	-1.910916296	 0.6840871654	 0.208796
C	-2.3983775389	-2.9351434528	 0.6883796654	 0.075215
O	-3.3822368029	-2.9103059942	-0.0202978735	-0.276296
C	-0.2459775779	-1.9383797905	 1.4464478149	-0.163994
C	 0.6521161226	-0.7999846254	 1.1360604463	-0.102866
N	 1.1493577569	-0.7438007326	-0.2650213935	-0.356828
H	 1.0573111616	 1.8498319031	 0.2156433604	 0.13196
H	-0.1660308157	 1.8368475647	-1.061085107	 0.126091
H	-0.6657575051	 2.0100716546	 0.6295007414	 0.119552
H	-2.2406939389	-0.0262299969	 0.1015224798	 0.127741
H	-1.5472375468	-0.909466124	-1.2435085106	 0.131591
H	-2.2308565007	-3.7624074336	 1.4141609037	 0.067179
H	-0.0118973541	-2.7064965343	 2.1763621954	 0.118219
H	 1.3254171451	-0.3895137246	 1.8809086695	 0.098744
H	 0.9166416601	-1.611279104	-0.7461952603	 0.228331
98.2238	164.1913	178.7551	198.6008	286.3917	344.5308	398.2682	416.7364	458.8087	549.7946	598.2568	721.8638	732.7911	810.3906	873.7159	892.0175	910.7456	949.4089	965.3504	1010.2013	1031.2443	1072.0425	1092.0649	1118.0131	1170.4244	1183.4092	1211.4419	1249.7488	1290.4235	1316.335	1364.076	1400.2245	1419.0731	1430.1248	1469.6261	1486.3894	1494.9625	1655.6582	1777.045	2878.3382	3032.9527	3039.108	3070.085	3095.265	3125.129	3169.0318	3192.9979	3471.8287
CC12CC(C=O)=CC1N2	C[C@]12CC(=C[C@H]1N2)C=O	
InChI=1S/C7H9NO/c1-7-3-5(4-9)2-6(7)8-7/h2,4,6,8H,3H2,1H3	InChI=1S/C7H9NO/c1-7-3-5(4-9)2-6(7)8-7/h2,4,6,8H,3H2,1H3/t6-,7+/m1/s1
