20
gdb 76261	2.33736	1.52828	1.00873	5.7949	83.9	-0.214	-0.0077	0.2063	1206.5476	0.171182	-403.205672	-403.196319	-403.195375	-403.239492	35.72	
C	 0.1131397464	 1.6323281486	 0.2088449307	-0.393163
C	 0.0637962745	 0.1017595524	 0.0438029652	-0.107322
C	 0.8444516648	-0.4599059904	-1.1772085361	-0.108394
C	 1.2106152134	 0.4902388002	-2.3159181425	-0.404768
C	 2.0863371313	-1.1474476701	-0.5601296187	 0.398616
O	 3.0381934115	-1.5389934917	-1.2072099725	-0.378085
C	 1.8667659786	-1.2451298833	 0.8730892099	-0.341804
C	 0.727320167	-0.5957342552	 1.2212258656	 0.396543
N	 0.1513357657	-0.5246950288	 2.4494905038	-0.578632
H	 1.1437736326	 1.9881727665	 0.2976626931	 0.131781
H	-0.3489200436	 2.1312937468	-0.6468715718	 0.128824
H	-0.4277450515	 1.9547100857	 1.1053269872	 0.100084
H	-0.9923396503	-0.1948534553	-0.0013273983	 0.083183
H	 0.2497658855	-1.2793153177	-1.6028902099	 0.100649
H	 1.7763627366	 1.3573505241	-1.9629016706	 0.115516
H	 1.8473359452	-0.0475110333	-3.0229735302	 0.141393
H	 0.3257487084	 0.8530503825	-2.8484373712	 0.103423
H	 2.5381196934	-1.7671138648	 1.5429461823	 0.08818
H	 0.6686016625	-0.8291750761	 3.2576827485	 0.263774
H	-0.5622921321	 0.16291763	 2.6208789556	 0.260202
53.3969	163.6771	216.5833	242.2737	255.9453	257.4315	285.9907	313.7164	343.8812	437.031	481.7996	520.8499	588.7236	618.949	668.654	710.6754	761.8421	819.5356	855.95	867.0134	1002.6384	1027.6851	1053.0072	1070.839	1077.3511	1135.863	1164.3717	1204.4287	1242.1328	1282.1555	1314.9939	1345.1657	1347.7816	1393.2511	1402.9981	1419.5724	1487.1599	1493.772	1502.4165	1509.7739	1634.1593	1679.0126	1790.5172	3007.8891	3024.3607	3036.0179	3041.1095	3099.0954	3107.3754	3123.4874	3124.0733	3212.0365	3603.2726	3716.4452
CC1C(C)C(=O)C=C1N	C[C@H]1[C@@H](C)C(=O)C=C1N	
InChI=1S/C7H11NO/c1-4-5(2)7(9)3-6(4)8/h3-5H,8H2,1-2H3	InChI=1S/C7H11NO/c1-4-5(2)7(9)3-6(4)8/h3-5H,8H2,1-2H3/t4-,5+/m0/s1
