17
gdb 11114	6.12849	1.06518	0.9839	4.4542	69.41	-0.2769	0.0033	0.2802	1194.6071	0.141745	-363.862563	-363.854283	-363.853338	-363.896054	29.314	
C	-0.3365652549	 1.4807169992	 0.0676101376	-0.384076
C	-0.105447454	-0.0332661971	 0.0522395581	-0.193306
C	 0.9008715199	-0.4554989076	-0.9999422287	 0.171073
C	 1.0305428352	-1.9583511068	-1.3346892138	-0.324509
C	 0.6359769103	-1.5272911856	-2.7703824593	 0.005718
O	 0.4405370872	-0.1660277014	-2.3564608302	-0.292001
C	 1.6871516155	-1.6658709012	-3.7860945107	 0.271916
N	 2.5174440586	-1.7900519257	-4.5802881922	-0.3168
H	 0.586695918	 2.0198491811	 0.305656732	 0.118957
H	-0.6840994232	 1.8248845767	-0.9104736902	 0.141067
H	-1.0873137374	 1.7562726099	 0.8134579545	 0.117534
H	 0.2619633692	-0.375178969	 1.029157127	 0.103484
H	-1.0507949014	-0.5581311525	-0.1338419434	 0.100402
H	 1.8667211128	 0.0373287586	-0.8257640988	 0.091361
H	 2.0205093885	-2.3995659211	-1.2276915756	 0.136413
H	 0.2865900118	-2.5944174791	-0.8527705803	 0.123987
H	-0.2866696863	-1.9691389983	-3.1637741659	 0.12878
44.5403	105.4095	136.6107	210.827	239.497	248.3474	386.8458	436.2546	531.6503	576.3996	737.706	777.7459	795.612	895.2302	931.6814	974.3669	992.517	1003.7042	1040.2971	1093.3222	1109.406	1132.62	1201.6177	1252.6411	1257.5465	1283.0213	1315.5106	1341.7719	1363.8957	1408.5471	1415.2846	1473.4657	1488.9658	1498.0928	1508.2528	2355.1776	3014.9166	3019.842	3039.8099	3043.2983	3060.018	3091.2145	3108.0575	3121.7357	3155.7191
CCC1CC(O1)C#N	CC[C@H]1C[C@@H](O1)C#N	
InChI=1S/C6H9NO/c1-2-5-3-6(4-7)8-5/h5-6H,2-3H2,1H3	InChI=1S/C6H9NO/c1-2-5-3-6(4-7)8-5/h5-6H,2-3H2,1H3/t5-,6+/m0/s1
