19
gdb 57508	3.03966	1.03259	0.93184	1.9663	80.03	-0.271	-0.0373	0.2337	1348.1952	0.154604	-423.033017	-423.022666	-423.021722	-423.06799	37.982	
C	-0.0843812393	 1.5683065903	 0.0759711854	-0.418971
C	 0.038128653	 0.0421010207	 0.0583490883	 0.368206
C	 0.6927356324	-0.5047238925	 1.3299920849	-0.418971
C	-1.3233770595	-0.6121522223	-0.1795232452	-0.404774
O	 0.8081441283	-0.3856438571	-1.1257567802	-0.283501
C	 2.0813133442	-0.01326999	-1.29881868	 0.284134
O	 2.743477901	 0.6795005711	-0.5634346308	-0.36673
C	 2.5972514744	-0.5685122422	-2.5367015481	 0.241285
C	 3.0786395782	-1.000565861	-3.5493090279	-0.35923
H	 0.8833324932	 2.0415323085	 0.2413108102	 0.15289
H	-0.4994598585	 1.9281735285	-0.8702576324	 0.120642
H	-0.7642817302	 1.8669759245	 0.8798191197	 0.116362
H	 0.0465810386	-0.2949203247	 2.1879579914	 0.116344
H	 0.8186460395	-1.5891833632	 1.2576481613	 0.120629
H	 1.6658461518	-0.0456599027	 1.5034213654	 0.152921
H	-1.7659952613	-0.2546437987	-1.1131836213	 0.124704
H	-1.2243805626	-1.6993732462	-0.2394657663	 0.124709
H	-2.0032794649	-0.3700774649	 0.6422279326	 0.118693
H	 3.5055776517	-1.3824458679	-4.4444647172	 0.210658
64.9027	113.019	129.5486	198.7641	229.4267	251.3059	258.7177	270.1036	317.4795	353.3449	368.8417	420.7286	463.6903	537.085	615.3168	650.8389	698.1266	762.2594	778.7071	852.9928	925.859	926.5858	943.6018	968.2676	1052.765	1060.8367	1194.842	1266.8374	1273.4398	1284.6254	1397.3968	1401.5061	1427.7371	1467.9679	1488.2422	1489.5494	1494.9548	1502.2954	1525.5474	1778.3603	2234.0484	3043.8304	3045.1294	3051.8323	3110.2965	3112.2345	3123.2106	3125.1116	3154.6358	3157.8399	3498.6803
CC(C)(C)OC(=O)C#C	CC(C)(C)OC(=O)C#C	
InChI=1S/C7H10O2/c1-5-6(8)9-7(2,3)4/h1H,2-4H3	InChI=1S/C7H10O2/c1-5-6(8)9-7(2,3)4/h1H,2-4H3
