20
gdb 122404	5.5498	0.60865	0.5777	4.0026	78.	-0.2485	0.0355	0.284	1913.2766	0.169667	-440.297348	-440.287495	-440.28655	-440.333404	34.619	
C	-0.1065578691	 1.3908038563	-0.004011299	-0.230074
O	 0.0815852148	-0.0023743068	 0.0625611462	-0.227405
C	 0.6125580742	-0.5435192762	-1.1244229258	-0.051527
C	 0.7588589991	-2.0496255349	-0.9452830822	-0.211484
C	 1.360953705	-2.7387936327	-2.1625858593	 0.056161
C	 1.3404537731	-4.2969284201	-2.1779274705	-0.411341
C	 0.488283721	-4.1669591555	-3.4644007822	 0.431274
O	 0.00591832	-4.9184407367	-4.2669549441	-0.35588
N	 0.5009713006	-2.7951211404	-3.35884586	-0.327085
H	 0.8414082435	 1.9239572865	-0.1802569205	 0.103875
H	-0.8101409269	 1.6709877632	-0.8042064944	 0.104463
H	-0.5184019416	 1.7116627274	 0.955725586	 0.129989
H	-0.0521257578	-0.3206569803	-1.9783624794	 0.08076
H	 1.5923643054	-0.0863227275	-1.3531695836	 0.083134
H	 1.3996122743	-2.2373988902	-0.0755924394	 0.114303
H	-0.2242581853	-2.4812935003	-0.7265945557	 0.112874
H	 2.3539143286	-2.3263972842	-2.3838714257	 0.084466
H	 2.3052492203	-4.7833070241	-2.3299811909	 0.132439
H	 0.8211703522	-4.7609320809	-1.3371092651	 0.13242
H	 0.1978597285	-2.0837666526	-4.0078377546	 0.248639
48.9517	69.2916	98.1593	113.6177	151.1243	234.316	281.4546	302.8325	377.6333	434.9798	498.7557	515.5232	564.9419	727.7166	808.454	833.9884	928.7395	945.5446	983.3157	1017.6922	1063.7517	1076.752	1094.7912	1154.5578	1169.0589	1180.5515	1189.472	1202.0246	1223.6558	1242.8884	1268.5775	1311.3766	1323.3468	1384.0408	1402.3134	1430.7999	1460.5879	1481.5161	1482.1645	1486.0283	1503.9077	1532.0119	1897.7663	2934.3013	2959.4364	2969.5288	3012.078	3019.0201	3038.811	3086.3416	3087.1769	3116.2511	3145.4766	3607.83
COCCC1CC(=O)N1	COCC[C@H]1CC(=O)N1	
InChI=1S/C6H11NO2/c1-9-3-2-5-4-6(8)7-5/h5H,2-4H2,1H3,(H,7,8)	InChI=1S/C6H11NO2/c1-9-3-2-5-4-6(8)7-5/h5H,2-4H2,1H3,(H,7,8)/t5-/m0/s1
