21
gdb 74706	3.00663	1.49207	1.18673	0.3392	90.31	-0.2032	-0.0226	0.1806	1128.4835	0.185424	-349.960943	-349.95321	-349.952266	-349.992677	31.779	
C	 0.0343140415	 1.5294970775	 0.0834826774	-0.482117
C	-0.0361216828	 0.0226118282	-0.0117551116	 0.303893
C	-1.2227701646	-0.5990073391	-0.1396793287	-0.176339
C	-1.4589723099	-2.0810638581	-0.2461461308	-0.054745
C	-0.7090110893	-2.9205596651	 0.8360202823	-0.222678
C	 0.48662774	-3.0710049816	-0.1562068202	-0.061399
C	-0.5459562683	-2.7935705584	-1.2935294034	-0.222678
C	 1.5112379783	-1.9804544282	-0.0127263053	-0.087224
C	 1.2636609119	-0.6626745105	 0.0468980009	-0.114378
H	 0.6414983054	 1.9492666902	-0.7285098537	 0.12253
H	-0.9577283396	 1.9849161594	 0.0347897075	 0.11708
H	 0.5076731926	 1.8448954569	 1.0219190167	 0.122528
H	-2.1137647665	 0.0239749257	-0.1707424578	 0.076025
H	-2.5286841386	-2.2788247284	-0.3398451468	 0.059192
H	-0.5106625295	-2.4456695521	 1.7984158439	 0.102423
H	-1.2049577778	-3.881822283	 0.9913538465	 0.09709
H	 0.9728950092	-4.0483069471	-0.1772521766	 0.059687
H	-1.0038816571	-3.7252208732	-1.6347763896	 0.09709
H	-0.2082041113	-2.210114196	-2.1517661076	 0.102423
H	 2.5486467879	-2.3001374232	 0.0476407999	 0.08546
H	 2.1215411084	-0.0013453138	 0.152017047	 0.076136
128.4688	181.6879	245.7497	322.6446	332.9325	344.7193	380.2148	473.9977	557.8726	633.5085	666.5736	762.3922	797.8463	817.4611	826.8005	830.0987	855.9256	914.6991	923.0638	995.6796	1001.3394	1014.1389	1035.4835	1069.6415	1070.1423	1084.6995	1116.7265	1152.0805	1168.4045	1202.9597	1250.0441	1250.3145	1259.7158	1269.8874	1356.2833	1371.4336	1380.9865	1413.6152	1444.4008	1470.9837	1480.3855	1491.0624	1499.1671	1664.8038	1709.1085	3017.0718	3060.3308	3060.6437	3063.7581	3077.3593	3082.4457	3115.4204	3124.9327	3126.1196	3135.6157	3146.0013	3161.8542
CC1=CC2CC(C2)C=C1	CC1=C[C@@H]2C[C@@H](C2)C=C1	
InChI=1S/C9H12/c1-7-2-3-8-5-9(4-7)6-8/h2-4,8-9H,5-6H2,1H3	InChI=1S/C9H12/c1-7-2-3-8-5-9(4-7)6-8/h2-4,8-9H,5-6H2,1H3/t8-,9+
