21
gdb 61655	4.04804	0.77994	0.69301	1.4398	84.43	-0.2456	0.0504	0.2961	1627.7818	0.180774	-387.034834	-387.024928	-387.023984	-387.070411	35.969	
C	-0.0525954432	 1.5756496157	 0.1384861347	-0.385701
C	 0.0259023023	 0.0369787958	 0.0655533323	-0.166632
C	 0.6609050057	-0.4792407371	-1.2496147078	-0.208545
C	-0.0988781517	-0.0930761081	-2.5137379361	-0.023945
C	 0.1584652594	 1.2797675723	-3.1835387959	-0.080485
O	 0.4803446397	 0.6584912476	-4.4424535219	-0.272782
C	 0.4267460391	-0.6562928327	-3.8546855093	-0.096354
C	 0.7493460908	-0.4964543765	 1.2192077371	 0.316251
C	 1.3656636301	-0.9262279918	 2.157856195	-0.457836
H	 0.9452096819	 2.0184000578	 0.0632293276	 0.12716
H	-0.6717915621	 1.9735052898	-0.6704574121	 0.121798
H	-0.4908560256	 1.8928634704	 1.0880471275	 0.127876
H	-1.0019403172	-0.3524125046	 0.1064963609	 0.105424
H	 1.6970472859	-0.1230860596	-1.3129956039	 0.108966
H	 0.7158247689	-1.5729342091	-1.1912183713	 0.111771
H	-1.168210692	-0.2896182694	-2.385281849	 0.079911
H	-0.6963320755	 1.961354453	-3.2688153655	 0.102089
H	 1.0135151388	 1.8331126889	-2.7709510541	 0.097664
H	 1.422685313	-1.117771957	-3.7904915162	 0.096747
H	-0.2406230601	-1.3290452244	-4.4059206007	 0.102663
H	 1.8992111119	-1.3099922311	 2.9918204087	 0.19396
51.4777	87.3933	95.0986	131.2283	189.7682	232.3227	282.0661	290.7005	356.5022	422.3251	528.7782	539.5412	628.756	637.0655	749.9792	811.3763	864.2665	884.8815	895.5085	934.1863	989.1131	996.8265	1032.9334	1042.1477	1106.6952	1117.3948	1133.2118	1157.6956	1165.4053	1182.3884	1251.2503	1263.4995	1308.5849	1313.3542	1340.5286	1351.6192	1379.8079	1402.0077	1410.3708	1481.8087	1494.8029	1501.0915	1511.042	1536.6892	2234.443	2993.1916	2996.728	3005.0046	3026.158	3040.1756	3043.9018	3050.178	3060.0457	3072.9701	3117.636	3122.1952	3504.6784
CC(CC1COC1)C#C	C[C@@H](CC1COC1)C#C	
InChI=1S/C8H12O/c1-3-7(2)4-8-5-9-6-8/h1,7-8H,4-6H2,2H3	InChI=1S/C8H12O/c1-3-7(2)4-8-5-9-6-8/h1,7-8H,4-6H2,2H3/t7-/m1/s1
