21
gdb 70927	3.3082	1.49347	1.26785	1.3405	83.09	-0.2437	0.093	0.3367	1079.9478	0.184026	-387.03124	-387.023455	-387.02251	-387.063194	31.563	
C	 0.0366776995	 1.5030781003	 0.0409090682	-0.514594
C	 0.0080683698	-0.0012494098	-0.0007774456	 0.279639
C	 0.6195696462	-0.9371937481	-1.1264601999	-0.357182
C	-0.0341314263	-1.894375312	-0.0899528042	 0.319163
C	 0.6013687265	-0.9981477194	 1.026156946	-0.293882
C	-0.610391962	-3.2613050508	 0.1832646051	-0.391067
C	-1.8094914334	-2.8339032938	 1.1132256082	-0.069564
O	-2.0344444263	-1.4044138307	 0.9830940197	-0.295116
C	-1.2342500527	-0.9605535298	-0.090263436	 0.104086
H	 1.0655067158	 1.8800515098	 0.0471589345	 0.117168
H	-0.4736322661	 1.9325220092	-0.8282412286	 0.117773
H	-0.4630288288	 1.8752069431	 0.9416349034	 0.126359
H	 0.1569245758	-0.887169885	-2.1169531365	 0.092573
H	 1.7100352664	-0.9403552805	-1.1929209198	 0.095703
H	 1.692173833	-1.028365416	 1.1017284287	 0.080243
H	 0.1257801198	-1.0217957826	 2.0070564383	 0.10548
H	-0.9779725366	-3.7374747694	-0.7313016548	 0.108895
H	 0.0591749207	-3.9605495482	 0.690561594	 0.106956
H	-2.729634024	-3.3670932073	 0.8472640547	 0.104173
H	-1.5898456801	-3.0383505991	 2.1664984662	 0.108869
H	-1.8216607975	-0.87525591	-1.0154411217	 0.054325
105.1961	197.1144	206.9266	221.9914	340.1245	358.8235	465.6518	506.7167	559.7532	622.3118	693.4499	731.5331	770.9385	832.9529	842.7541	900.7378	912.1704	930.4027	947.4495	983.3554	1008.1204	1021.5909	1057.3052	1081.3831	1090.9629	1120.7941	1138.8336	1159.986	1174.1365	1181.1168	1202.7279	1223.8988	1246.5143	1279.1128	1304.8202	1333.5518	1375.8481	1396.1243	1410.3143	1487.2715	1488.6234	1490.3386	1491.232	1519.2569	1534.075	2998.9255	3026.1206	3029.6688	3048.765	3052.2423	3058.0102	3068.7404	3092.3344	3097.2064	3105.201	3117.2539	3135.3139
CC12CC3(C1)CCOC23	C[C@@]12C[C@]3(C1)CCO[C@@H]23	
InChI=1S/C8H12O/c1-7-4-8(5-7)2-3-9-6(7)8/h6H,2-5H2,1H3	InChI=1S/C8H12O/c1-7-4-8(5-7)2-3-9-6(7)8/h6H,2-5H2,1H3/t6-,7-,8+/m0/s1
