23
gdb 114209	3.14476	1.07989	0.91273	0.9826	86.97	-0.2414	0.0797	0.3211	1389.48	0.204313	-388.259275	-388.249432	-388.248488	-388.294088	36.938	
C	 0.0362895274	 1.2899711076	-0.2976073105	-0.237774
O	-0.0140042472	-0.0014854277	 0.2628533344	-0.240737
C	-1.2890445003	-0.5812402652	 0.2066168679	 0.164578
C	-1.811944818	-1.1145679007	-1.1623842265	-0.35089
C	-2.242278259	-2.3870124277	-0.4207451147	 0.392108
C	-3.6432058746	-2.923044389	-0.3598522459	-0.325396
C	-2.5359195329	-3.7434679905	-0.9847962578	-0.330273
C	-1.3706448045	-2.0187336161	 0.797320597	-0.132603
C	-0.0330800899	-2.7515378937	 0.8797290655	-0.380975
H	 1.0591153418	 1.6569107974	-0.1819690502	 0.125131
H	-0.2188272576	 1.2861130177	-1.3681299216	 0.107912
H	-0.6503210421	 1.9821042912	 0.2157810233	 0.102468
H	-2.0299642847	 0.0859759405	 0.6738002982	 0.062594
H	-2.5898926434	-0.537818279	-1.669907301	 0.094041
H	-0.9836985055	-1.2906568124	-1.856812539	 0.104406
H	-4.0293461034	-3.2398487113	 0.6043514751	 0.108836
H	-4.3898648077	-2.4873441815	-1.0169033582	 0.107612
H	-2.5318285109	-3.8607821039	-2.0640827592	 0.108819
H	-2.1786954329	-4.6144056389	-0.4441278379	 0.110761
H	-1.8826403459	-2.0741613599	 1.7637987671	 0.065252
H	 0.5029230933	-2.7218083206	-0.0730470974	 0.118006
H	 0.613197056	-2.2981671237	 1.6363971345	 0.121433
H	-0.189726728	-3.8020010424	 1.1466665569	 0.104689
56.1059	92.2322	163.7634	195.9474	201.0294	221.898	252.88	298.8476	337.8381	409.7461	451.245	494.9832	611.6658	725.8715	774.8546	813.7573	859.7285	890.0228	916.9467	933.0883	971.7065	996.5018	1030.5225	1045.7269	1056.6237	1074.7465	1095.2335	1140.638	1152.2973	1170.2782	1185.1919	1187.5149	1217.1648	1240.0386	1250.2029	1257.7087	1299.6744	1348.5546	1377.3061	1393.6129	1410.368	1463.0423	1477.0638	1483.3117	1488.6183	1491.5134	1495.6232	1503.9717	1509.2876	2968.9639	2978.0318	3018.9565	3037.7004	3041.6236	3044.8297	3097.9305	3105.4614	3112.385	3116.574	3118.0791	3122.4169	3194.1754	3209.5257
COC1CC2(CC2)C1C	CO[C@H]1CC2(CC2)[C@H]1C	
InChI=1S/C8H14O/c1-6-7(9-2)5-8(6)3-4-8/h6-7H,3-5H2,1-2H3	InChI=1S/C8H14O/c1-6-7(9-2)5-8(6)3-4-8/h6-7H,3-5H2,1-2H3/t6-,7-/m0/s1
