19
gdb 26288	3.58247	1.26969	0.94999	1.7615	89.36	-0.194	-0.007	0.187	1242.2861	0.161195	-382.128968	-382.120266	-382.119321	-382.16283	31.844	
C	 0.0201765475	 1.4237904862	 0.0007282264	-0.332357
N	 0.00072715	-0.0200034379	-0.1024197459	-0.126347
C	 1.2557664698	-0.7159784564	 0.1286617118	-0.338062
C	-1.1956235998	-0.7021523515	-0.0391496059	 0.451494
N	-1.1338292557	-2.044365309	-0.0105995996	-0.352222
C	-2.2723694803	-2.7356374284	 0.0086749102	 0.00739
C	-3.5372889306	-2.1628511749	 0.0099601353	-0.154619
C	-3.6019737868	-0.7698127038	 0.0001720408	-0.065999
C	-2.4369948323	-0.0235304731	-0.0198074315	-0.235182
H	 1.0399853524	 1.7742475777	-0.1701108949	 0.126129
H	-0.6198234121	 1.8853229962	-0.7589981709	 0.132585
H	-0.3034809859	 1.7903333422	 0.9877510137	 0.117907
H	 1.5622094437	-0.6820208023	 1.1856571679	 0.111065
H	 1.1434274519	-1.7585198081	-0.1605017197	 0.165581
H	 2.0452136546	-0.252480029	-0.4716675947	 0.114501
H	-2.1608921154	-3.8183721276	 0.0280829599	 0.099723
H	-4.4283073253	-2.7781458961	 0.0299766814	 0.090248
H	-4.5617509753	-0.2623922929	 0.0137779565	 0.097946
H	-2.4859640602	 1.0565008588	-0.0134676007	 0.090217
62.9203	93.2219	134.0056	165.9969	238.7607	278.7222	394.3964	425.207	496.1248	531.9474	550.8852	635.4448	758.0883	770.5874	793.0236	858.878	977.194	978.6299	988.9415	993.1443	1073.4355	1087.6782	1120.2995	1133.31	1166.3825	1185.8853	1209.2177	1255.9086	1324.7347	1351.711	1406.6197	1435.6328	1458.86	1480.8285	1489.9564	1494.7703	1507.2539	1520.6256	1548.0087	1600.5833	1644.5318	2978.25	2987.136	3059.821	3069.7384	3122.0645	3140.0531	3173.7002	3174.1383	3207.6421	3221.7162
CN(C)C1=NC=CC=C1	CN(C)c1ncccc1	
InChI=1S/C7H10N2/c1-9(2)7-5-3-4-6-8-7/h3-6H,1-2H3	InChI=1S/C7H10N2/c1-9(2)7-5-3-4-6-8-7/h3-6H,1-2H3
