16
gdb 14463	3.99016	2.15888	2.12808	1.9677	62.02	-0.2363	0.0943	0.3305	731.0124	0.132393	-383.730979	-383.724959	-383.724015	-383.760772	24.569	
C	-0.023607358	 1.498666458	 0.0292280607	-0.501434
C	 0.0198002056	-0.0008032979	-0.0464141983	 0.227719
C	 0.2595073343	-0.7937305168	-1.3280664114	-0.285898
C	 0.1661987511	-2.1688567278	-0.6347269491	 0.149118
O	 1.1261978701	-2.0716097988	 0.4127133669	-0.250926
C	 0.6170983955	-0.9038947391	 1.0320515225	 0.001625
C	-0.8716923384	-0.9338920155	 0.7721298502	 0.001619
O	-1.0948384307	-2.1163908011	 0.0249886031	-0.250927
H	 0.9239419501	 1.9414147067	-0.2977640258	 0.124498
H	-0.8208997078	 1.9062681406	-0.6024241358	 0.124497
H	-0.2093290179	 1.8391795557	 1.0536033387	 0.118939
H	-0.5240830201	-0.6557425809	-2.0767322414	 0.110545
H	 1.2443059718	-0.6200940464	-1.7680390611	 0.110543
H	 0.2829231098	-3.0909517421	-1.1968662683	 0.099657
H	 1.1249498617	-0.5953411274	 1.9340508265	 0.110213
H	-1.666691427	-0.6515859273	 1.4466673425	 0.110213
207.7711	237.352	276.6671	442.0176	560.544	561.4531	613.5588	710.1267	740.6001	827.029	851.8766	885.0521	887.0293	914.9923	960.6977	983.6397	1022.7196	1029.0503	1043.4245	1048.4861	1076.7761	1104.3311	1179.2894	1190.8532	1227.8021	1244.4921	1291.4616	1301.4875	1345.869	1414.2163	1421.239	1479.3578	1491.645	1499.3199	3024.2712	3070.5513	3086.8208	3091.4153	3128.6764	3179.6266	3225.656	3234.3542
CC12CC3OC1C2O3	C[C@@]12C[C@H]3O[C@@H]1[C@@H]2O3	
InChI=1S/C6H8O2/c1-6-2-3-7-4(6)5(6)8-3/h3-5H,2H2,1H3	InChI=1S/C6H8O2/c1-6-2-3-7-4(6)5(6)8-3/h3-5H,2H2,1H3/t3-,4+,5-,6+
