16
gdb 79516	3.0472	1.70816	1.31522	3.9663	68.92	-0.2353	-0.0385	0.1968	954.7073	0.125796	-437.820868	-437.813978	-437.813034	-437.852297	27.228	
O	 0.0741584792	 1.4061226448	 0.0730346963	-0.429503
C	 0.0471258179	-0.0052047841	 0.0497533433	 0.010548
C	-1.3392818948	-0.5848903304	-0.1653045962	-0.020731
C	-1.3024922332	-2.0087382618	-0.7828139539	-0.087714
C	-2.5395979084	-1.5837216764	-1.5838269334	-0.168638
N	-1.6750960427	-0.3194594697	-1.6633528163	-0.180022
C	-0.4670790412	-1.282695599	-1.882761479	-0.114736
C	 0.7092049869	-0.6084068463	-1.2197102424	 0.394707
O	 1.8506869191	-0.5361274816	-1.5837131967	-0.311343
H	-0.4203096861	 1.7131982259	-0.6977378647	 0.297535
H	 0.536004066	-0.3507623844	 0.9651664524	 0.112138
H	-2.1317996062	-0.3060411838	 0.5302372128	 0.093257
H	-1.0773336757	-2.9620642897	-0.2939578452	 0.083365
H	-2.7143251547	-2.0532189413	-2.5552422644	 0.112787
H	-3.4780586205	-1.432469486	-1.0421331054	 0.109822
H	-0.3542778457	-1.6930967464	-2.8849377472	 0.098528
88.6311	187.2212	258.0061	371.1634	398.3938	472.0702	518.2395	580.7711	672.3866	716.6045	770.1074	795.8064	857.9814	889.5597	906.4118	925.4391	949.9057	1002.3053	1056.3622	1087.5489	1096.7714	1106.805	1129.9099	1162.1573	1184.7256	1218.5341	1239.0551	1245.035	1255.5976	1273.8102	1280.7671	1343.4978	1429.5927	1530.9383	1874.159	3047.2191	3058.6767	3080.4417	3116.8173	3118.1579	3142.6575	3777.8287
OC1C2C3CN2C3C1=O	O[C@H]1[C@@H]2[C@H]3CN2[C@H]3C1=O	
InChI=1S/C6H7NO2/c8-5-3-2-1-7(3)4(2)6(5)9/h2-5,8H,1H2	InChI=1S/C6H7NO2/c8-5-3-2-1-7(3)4(2)6(5)9/h2-5,8H,1H2/t2-,3+,4-,5+/m1/s1
