13
gdb 21660	3.54956	1.87059	1.22674	2.8839	63.5	-0.2243	-0.0378	0.1866	899.5038	0.097697	-394.814647	-394.80765	-394.806706	-394.845823	25.75	
N	-0.0175169096	 1.3516633498	 0.1450391425	-0.584984
C	 0.0490375068	-0.0268185682	 0.0377252768	 0.304421
N	-1.0580325252	-0.7602249987	 0.0308536656	-0.305725
N	-0.6020376421	-2.046306017	-0.0048667059	-0.182545
C	 0.7295549845	-2.1435731737	-0.0343659215	-0.080116
C	 1.2251555544	-0.842718861	-0.0040674812	 0.074048
C	 2.6216951288	-0.4533776945	 0.0061853313	 0.053925
O	 3.5596539068	-1.2240374493	-0.0403539946	-0.294892
H	 0.692551989	 1.8534780123	-0.3675129669	 0.255934
H	-0.9431555701	 1.7110449281	-0.0456321906	 0.258652
H	-1.2766927021	-2.792262304	-0.0125251377	 0.282982
H	 1.2520240514	-3.0860627491	-0.0681521612	 0.166182
H	 2.7981437274	 0.6451389654	 0.0665644235	 0.05212
151.1087	171.5878	215.6277	285.2521	351.8555	357.7269	518.9393	542.7946	633.5619	657.9284	679.5133	756.3435	838.1812	842.6836	941.5479	1037.4392	1050.3239	1108.3854	1188.7133	1231.0679	1351.6091	1423.8711	1445.0256	1509.8495	1532.0374	1600.3973	1651.0556	1775.1035	2859.5994	3273.611	3561.1502	3662.0614	3678.083
NC1=NNC=C1C=O	Nc1n[nH]cc1C=O	
InChI=1S/C4H5N3O/c5-4-3(2-8)1-6-7-4/h1-2H,(H3,5,6,7)	InChI=1S/C4H5N3O/c5-4-3(2-8)1-6-7-4/h1-2H,(H3,5,6,7)
