17
gdb 43730	4.67738	1.07392	1.0259	3.41	75.36	-0.2296	-0.0207	0.2089	1177.9271	0.13473	-421.836456	-421.828677	-421.827733	-421.869307	29.829	
O	-0.2144054355	-0.034346253	-0.3218974928	-0.293132
C	-0.0892922925	 1.1239540076	-0.0480482218	 0.40945
C	-1.0783068747	 2.2640695783	 0.2264391344	-0.405454
C	 0.1170322928	 3.0968166649	 0.8103839562	 0.397241
C	 1.1176016788	 2.0179055522	 0.2643910807	-0.405455
O	 0.2715285117	 4.386124674	 0.2338399515	-0.314144
C	 0.3659156354	 5.3845818272	 1.2487687063	-0.138562
C	 0.2590542218	 4.6309659088	 2.5436416743	-0.104163
C	 0.1182082297	 3.3354576585	 2.2904424124	-0.140341
H	-1.4451678159	 2.7177257816	-0.7001830883	 0.144491
H	-1.9265472637	 2.0412030232	 0.8784160956	 0.127417
H	 1.8726922232	 1.6152937941	 0.94409565	 0.127418
H	 1.6072076771	 2.3755478956	-0.6474178467	 0.14449
H	 1.3196973761	 5.9257620533	 1.1522494011	 0.111568
H	-0.4405520749	 6.1230851663	 1.1218273875	 0.111567
H	 0.2956912645	 5.1075042051	 3.5146727238	 0.112693
H	 0.0159350561	 2.5342648721	 3.0114971658	 0.114916
54.3828	89.0628	229.3937	311.0741	337.7261	397.9779	444.6295	451.4072	546.3114	650.5598	713.4583	743.5708	779.9287	819.5387	857.376	921.1526	952.2314	957.4823	957.7264	983.3179	1019.3005	1044.8109	1117.5369	1119.5832	1123.7318	1146.8724	1182.1548	1201.0381	1236.5411	1269.4102	1369.5739	1382.5285	1412.2671	1432.7103	1519.4794	1689.7137	1895.6946	2982.069	3000.663	3055.0785	3060.3143	3119.3318	3120.0103	3208.1645	3232.8429
O=C1CC2(C1)OCC=C2	O=C1CC2(C1)OCC=C2	
InChI=1S/C7H8O2/c8-6-4-7(5-6)2-1-3-9-7/h1-2H,3-5H2	InChI=1S/C7H8O2/c8-6-4-7(5-6)2-1-3-9-7/h1-2H,3-5H2
