14
gdb 44914	2.97466	1.86065	1.63773	4.0415	60.29	-0.2703	-0.0176	0.2527	838.1414	0.104331	-473.874618	-473.86855	-473.867606	-473.90507	24.1	
O	-0.0330011434	 0.0187472942	-0.0227326206	-0.313832
C	 0.0207162321	 1.2049155075	-0.0097296767	 0.457177
O	-1.1150585195	 2.0044743661	-0.001550208	-0.230834
C	-0.7108340986	 3.3671502275	-0.0116960487	 0.209516
C	 0.6407467204	 3.3605616808	-0.731699047	-0.287275
C	 1.2227188394	 2.1661072024	 0.0290372189	-0.132691
N	 1.4377056967	 2.5371360286	 1.4384717213	-0.256664
C	 0.5673871567	 3.3128416789	 1.9380207706	 0.126226
O	-0.5429190439	 3.8186846924	 1.3324296397	-0.222927
H	-1.5133496555	 3.9657708488	-0.4363656818	 0.121899
H	 0.5084450805	 3.1578285466	-1.7971044515	 0.132886
H	 1.2015672003	 4.2857080871	-0.5927409632	 0.134188
H	 2.1205938215	 1.7093942927	-0.3803935153	 0.115636
H	 0.6416154733	 3.6655187864	 2.9630497224	 0.146694
146.0389	237.8812	401.4001	406.4642	492.3976	496.5524	593.1671	696.9532	730.302	766.1928	839.8725	862.5377	882.969	914.4072	963.8245	972.2589	989.5716	1050.4571	1086.8425	1109.6019	1155.3368	1187.5595	1241.0589	1295.5452	1324.6499	1357.399	1375.611	1400.0776	1484.8948	1702.472	1920.6799	3078.4354	3140.8198	3148.0632	3157.0666	3186.4654
O=C1OC2CC1N=CO2	O=C1O[C@@H]2C[C@H]1N=CO2	
InChI=1S/C5H5NO3/c7-5-3-1-4(9-5)8-2-6-3/h2-4H,1H2	InChI=1S/C5H5NO3/c7-5-3-1-4(9-5)8-2-6-3/h2-4H,1H2/t3-,4-/m1/s1
