20
gdb 34662	3.05636	1.13974	0.8968	4.7903	87.59	-0.2563	-0.0397	0.2166	1316.4312	0.173509	-366.053801	-366.045367	-366.044422	-366.087055	32.246	
N	-0.0139649333	-1.1724392116	-0.2869243464	-0.343168
C	-0.0329129713	-0.0200527796	-0.1638250495	 0.215128
C	-0.0135883279	 1.4025878856	-0.0087187172	 0.160687
C	-1.1811418648	 2.0662876049	-0.0130713786	-0.114279
C	-1.3401054189	 3.5560834286	 0.1311650775	-0.256505
C	-0.7279818568	 4.1593457825	 1.4123163865	-0.183482
C	 0.8042523586	 4.231168339	 1.4253018119	-0.183277
C	 1.5387961801	 2.8836960785	 1.4194755306	-0.184103
C	 1.3564202072	 2.0472632534	 0.1397698805	-0.301052
H	-2.0904173264	 1.4844021181	-0.1352909653	 0.114554
H	-0.8923643776	 4.0557461189	-0.7413138516	 0.118413
H	-2.4068750467	 3.7960239261	 0.0995206139	 0.109965
H	-1.1221037057	 5.176079296	 1.5252640809	 0.100313
H	-1.0821741099	 3.5912527957	 2.2815136642	 0.103711
H	 1.1397888244	 4.8223009989	 0.5609768204	 0.094112
H	 1.1172958322	 4.7925199872	 2.3136324212	 0.0994
H	 2.6108779579	 3.0770749962	 1.5416633169	 0.101371
H	 1.2311339088	 2.2863507494	 2.2867812267	 0.105618
H	 2.1147986012	 1.2608020632	 0.1144441047	 0.124357
H	 1.5469118089	 2.6831014089	-0.7365033074	 0.118235
63.9747	143.7081	174.5861	215.9024	304.456	320.8768	342.4125	432.1536	470.5535	551.2839	588.1617	612.1825	721.0933	788.8549	829.4065	864.5362	884.4048	909.8094	963.7918	979.7955	1022.1547	1073.6106	1089.8916	1104.7385	1133.8132	1181.0664	1240.6657	1248.7888	1290.6027	1304.4959	1349.8869	1360.5476	1373.1461	1391.4189	1396.4647	1398.4839	1476.2511	1478.1177	1482.0398	1488.0164	1494.4987	1691.4572	2328.9347	2997.4657	3005.8536	3011.2971	3024.6165	3026.296	3056.599	3065.1678	3070.2548	3079.0949	3094.1344	3169.9444
N#CC1=CCCCCC1	N#CC1=CCCCCC1	
InChI=1S/C8H11N/c9-7-8-5-3-1-2-4-6-8/h5H,1-4,6H2	InChI=1S/C8H11N/c9-7-8-5-3-1-2-4-6-8/h5H,1-4,6H2
