17
gdb 46253	3.15757	1.49602	1.24121	3.5588	73.02	-0.2253	0.0151	0.2404	1028.3708	0.137024	-417.945333	-417.937916	-417.936972	-417.97736	28.965	
N	 0.0381670957	 1.2142389325	-0.3083050254	-0.545161
C	 0.0109592367	-0.0052323254	-0.0274685032	 0.417148
O	 1.0113256884	-0.8525195026	 0.4217361591	-0.262944
C	 0.0900917183	-1.9804303103	 0.5006713266	-0.148628
C	-1.0468003755	-1.0989985922	-0.061736791	 0.198857
N	-2.3410334457	-0.9540537244	 0.6632716875	-0.372821
C	-3.0530231598	-1.4900307211	-0.5255971975	-0.008729
C	-2.8743783336	-0.51426338	-1.6418905256	-0.268957
C	-1.7737347893	-1.5100167185	-1.3436045184	-0.155634
H	 0.9668639	 1.6147547287	-0.1635861444	 0.228746
H	 0.4234604958	-2.8108682585	-0.127670594	 0.121851
H	-0.0385545899	-2.3116122245	 1.5361457281	 0.116242
H	-2.3753273893	-1.6017711257	 1.4448446822	 0.221108
H	-3.868352607	-2.1973960535	-0.4418020611	 0.098431
H	-3.428734498	-0.7296335269	-2.5499485466	 0.114133
H	-2.733001282	 0.5375870143	-1.4144763885	 0.148891
H	-1.3886832548	-2.2072776017	-2.0768338979	 0.097468
107.2341	118.2068	185.4362	305.6568	336.9823	436.4563	460.4419	589.8668	660.1047	737.6922	763.1897	796.6393	814.8749	862.391	874.2672	920.4669	960.9505	967.4197	978.6408	984.624	1012.766	1021.4196	1041.6773	1086.7628	1129.9039	1140.6668	1158.636	1175.9002	1219.7313	1243.6975	1291.174	1322.2182	1366.7465	1397.9404	1479.0693	1507.2299	1827.3591	3042.9726	3104.7989	3125.8351	3183.5303	3196.0938	3220.4085	3473.3692	3514.9819
N=C1OCC11NC2CC12	[NH][C]1OC[C@]21N[C@H]1C[C@@H]21	
InChI=1S/C6H8N2O/c7-5-6(2-9-5)3-1-4(3)8-6/h3-4,7-8H,1-2H2	InChI=1S/C6H8N2O/c7-5-6(2-9-5)3-1-4(3)8-6/h3-4,7-8H,1-2H2/t3-,4+,6+/m1/s1
