18
gdb 10884	2.76797	1.96801	1.6818	1.5392	68.34	-0.2344	0.0678	0.3022	889.821	0.151796	-384.879902	-384.871709	-384.870765	-384.911788	31.317	
C	-0.0820608972	 1.5772368634	 0.0031100537	-0.436295
C	-0.0375133809	 0.0614804998	-0.0224321811	-0.003894
C	 1.2202543609	-0.6463023111	-0.5856769757	-0.019794
O	 1.9926258471	-0.2200827707	 0.5986747039	-0.345408
C	 0.6872123054	-0.6916392456	 1.1432577185	 0.375409
C	 0.4588591359	-0.6251323304	 2.6195453719	-0.523615
C	 0.8536420196	-1.9269375047	 0.2252357055	 0.08444
O	-0.3003296108	-2.6727165217	-0.0459331516	-0.431076
H	 0.8830695522	 1.9873258123	 0.3089030227	 0.133729
H	-0.3311106796	 1.9764311366	-0.9861817447	 0.112665
H	-0.8489985697	 1.9347148448	 0.6992887911	 0.113007
H	-0.9843874494	-0.391800158	-0.3248479254	 0.086268
H	 1.7045583693	-0.5439232632	-1.5580543201	 0.082729
H	 0.4455959612	 0.4123470913	 2.9671193183	 0.132335
H	-0.502446883	-1.0865768982	 2.8665203329	 0.135749
H	 1.2484633657	-1.1610202545	 3.1552115815	 0.132365
H	 1.7256132629	-2.5404021826	 0.4779711363	 0.080609
H	-0.0805101296	-3.3497790376	-0.6930310378	 0.290774
179.0624	191.343	206.3837	215.2268	229.635	265.78	346.508	354.6579	442.7586	598.8304	637.6968	657.1968	733.7519	787.449	820.8287	881.6794	904.4536	954.9996	1024.9083	1064.5803	1078.4268	1117.075	1133.11	1140.6615	1181.3035	1203.3592	1225.4661	1240.8179	1288.8976	1318.529	1387.8266	1403.0729	1406.149	1447.9443	1478.2125	1486.9407	1495.8562	1505.746	3033.6082	3038.9466	3053.4778	3088.5681	3089.1416	3107.5527	3113.1682	3114.67	3129.1088	3825.5049
CC1C2OC1(C)C2O	C[C@H]1[C@H]2O[C@]1(C)[C@H]2O	
InChI=1S/C6H10O2/c1-3-4-5(7)6(3,2)8-4/h3-5,7H,1-2H3	InChI=1S/C6H10O2/c1-3-4-5(7)6(3,2)8-4/h3-5,7H,1-2H3/t3-,4+,5-,6-/m0/s1
