18
gdb 74012	2.12323	1.84431	1.07145	3.3631	80.74	-0.2192	-0.0161	0.2031	1128.11	0.147736	-401.932628	-401.924454	-401.92351	-401.965477	30.946	
C	-0.0635122957	 1.4554818519	-0.0941016381	-0.49133
C	 0.0061215135	-0.0212496062	 0.1235650069	 0.171818
C	-0.9942397097	-0.8865227346	 0.3082244274	 0.148484
C	-2.4105820447	-1.1978755359	-0.1261069125	-0.250154
N	-1.8594447176	-2.4874544361	-0.6898682229	-0.328841
C	-0.6252453721	-2.3235607732	 0.142854215	-0.118117
C	 0.7969457911	-2.222506841	-0.4550595023	 0.381989
O	 1.3862213656	-3.0119111463	-1.135695511	-0.28932
C	 1.3019981383	-0.8096199253	-0.0243569972	-0.408964
H	 0.4651009018	 2.002789403	 0.6967995963	 0.132112
H	 0.4167384646	 1.7349463221	-1.0403827868	 0.131284
H	-1.0976324312	 1.8103465916	-0.1124285718	 0.12637
H	-3.1166143259	-1.3543637456	 0.7012606741	 0.104641
H	-2.8699912813	-0.535985296	-0.8672727865	 0.118578
H	-2.408540362	-3.3038424824	-0.4379394417	 0.222008
H	-0.6024205839	-2.9535709793	 1.0450299404	 0.089558
H	 1.977191245	-0.3919775705	-0.7793694547	 0.129368
H	 1.8853648841	-0.9036958762	 0.9023947453	 0.130516
86.2596	144.4998	173.1192	208.7482	256.8293	310.0251	412.1294	455.0265	555.589	579.0171	624.0961	677.1229	743.2953	785.1536	870.5402	907.5618	934.0373	957.1651	981.3666	1020.5624	1048.0342	1072.4424	1101.7501	1127.9562	1157.6715	1163.613	1196.9888	1222.4282	1274.5052	1296.2426	1328.6615	1370.9663	1411.8073	1453.6008	1475.5615	1487.6782	1503.7599	1757.2414	1866.8321	2984.2196	3003.7282	3013.4849	3017.9503	3064.104	3070.5732	3073.4045	3110.381	3510.8139
CC1=C2CNC2C(=O)C1	C[C]1[C]2CN[C@H]2C(=O)C1	
InChI=1S/C7H9NO/c1-4-2-6(9)7-5(4)3-8-7/h7-8H,2-3H2,1H3	InChI=1S/C7H9NO/c1-4-2-6(9)7-5(4)3-8-7/h7-8H,2-3H2,1H3/t7-/m1/s1
