21
gdb 119358	5.15459	0.83723	0.82544	0.9948	80.92	-0.2303	0.0759	0.3063	1509.2658	0.179893	-424.156692	-424.147066	-424.146122	-424.191748	35.301	
C	-0.0679673003	 1.3950642696	-0.6727076272	-0.217778
O	-0.2137820096	 0.0113667199	-0.8884506576	-0.238252
C	 0.8931766049	-0.7331577081	-0.4326078841	-0.213948
C	 0.6191560923	-2.1804516971	-0.7170408008	 0.41636
C	-0.4537668008	-3.1185260966	-0.1162160529	-0.284405
C	 0.5602891528	-3.9639673463	-0.9332618854	 0.400085
C	 0.7353157779	-5.4478669013	-1.0049786962	-0.509037
C	 0.4904375993	-2.9124583922	-2.0734466366	-0.2844
O	 1.6592558647	-3.1561761497	-0.3180147801	-0.384212
H	 0.0375177811	 1.6325859728	 0.3976632349	 0.105964
H	 0.8092360779	 1.8005492807	-1.2012362926	 0.105962
H	-0.9680472398	 1.8815917774	-1.0560377778	 0.128062
H	 1.8204465354	-0.4258086035	-0.9447475723	 0.097659
H	 1.0509255426	-0.5935113448	 0.6500771688	 0.097653
H	-0.3978999326	-3.2500029875	 0.9658624294	 0.09814
H	-1.4773477471	-3.0359518085	-0.4889582351	 0.096809
H	-0.1396694662	-5.9087754338	-1.4741683605	 0.12613
H	 1.6199717613	-5.7026852752	-1.5963878963	 0.13211
H	 0.853357087	-5.8700193639	-0.0023968956	 0.132144
H	-0.4459737757	-2.810811548	-2.6268674619	 0.096815
H	 1.3755416249	-2.8629136338	-2.7101843799	 0.098138
47.7094	79.9183	104.5634	188.4566	211.6609	246.8535	271.9231	337.5042	362.3629	415.6956	524.2991	595.9859	630.6272	686.241	738.2485	765.1856	912.909	919.6243	960.0337	982.4411	998.2142	1003.6638	1066.9118	1102.0044	1129.2412	1134.0171	1158.4703	1165.3072	1173.1492	1183.3053	1206.1058	1229.3749	1270.5809	1285.4196	1361.3422	1409.5609	1428.2488	1466.2305	1476.5737	1479.6648	1484.0581	1488.6367	1502.4769	1522.5649	1528.896	2955.6654	2973.0153	2989.4813	3015.593	3038.8056	3059.2939	3068.3399	3113.0103	3114.4922	3115.5392	3139.338	3145.224
COCC12CC(C)(C1)O2	COC[C@@]12C[C@@](C)(C1)O2	
InChI=1S/C7H12O2/c1-6-3-7(4-6,9-6)5-8-2/h3-5H2,1-2H3	InChI=1S/C7H12O2/c1-6-3-7(4-6,9-6)5-8-2/h3-5H2,1-2H3/t6-,7+
