21
gdb 106345	4.77361	0.89688	0.86839	3.0442	84.93	-0.2434	-0.0249	0.2185	1414.3846	0.181532	-387.060432	-387.05132	-387.050376	-387.094756	34.057	
C	 0.0077586158	 1.531338867	 0.0110679271	-0.382205
C	-0.0659936858	 0.0001782228	 0.0051111584	-0.307089
C	-1.4756417502	-0.536066557	 0.0124260907	 0.35185
C	-2.5944859229	-0.288668268	-1.0534153345	-0.300257
C	-3.2297140783	-1.2310437226	 0.0212520723	 0.252422
C	-1.9080817183	-2.0377273442	 0.0091545971	-0.30861
C	-2.5799940753	-0.2975954857	 1.0952463528	-0.30013
C	-4.6239075332	-1.7495640444	 0.0291422979	 0.03186
O	-4.9201976603	-2.9190159528	 0.0289581403	-0.248594
H	 1.0462611413	 1.8751272544	 0.005452575	 0.116079
H	-0.4887054564	 1.9555173927	-0.8679746639	 0.1191
H	-0.476677081	 1.9480558333	 0.9003292694	 0.119101
H	 0.4553413394	-0.3928131327	-0.8776583985	 0.1013
H	 0.4673221438	-0.4002275062	 0.8773274394	 0.101303
H	-3.0014665091	 0.7238731917	-1.1201557413	 0.096046
H	-2.4395400384	-0.7284319034	-2.042636477	 0.099931
H	-1.694951599	-2.6083039509	-0.8983184994	 0.09772
H	-1.6828633822	-2.6157194224	 0.9089701677	 0.097777
H	-2.4119230464	-0.7456688969	 2.0785689682	 0.099981
H	-2.9860466813	 0.7143041316	 1.1758703653	 0.096054
H	-5.4095943723	-0.957270826	 0.0340927026	 0.066361
59.7801	87.815	117.1143	184.8993	207.0574	249.8729	356.0911	397.9992	446.8867	538.1233	548.5941	616.2802	713.5483	741.3306	800.654	841.7581	921.0015	935.4918	959.2492	971.1976	996.9739	1028.0037	1040.7176	1081.2116	1088.0287	1104.3215	1135.5277	1140.5887	1162.3583	1168.023	1185.6454	1195.0268	1295.9226	1305.7094	1326.6588	1382.7024	1408.8077	1421.6666	1479.1137	1494.6078	1497.6347	1498.8106	1506.2482	1556.3713	1816.6143	2850.7305	3016.3179	3035.0137	3045.2455	3048.1046	3049.7154	3059.7131	3102.9107	3108.0388	3113.4139	3118.6688	3123.472
CCC12CC(C1)(C2)C=O	CC[C@@]12C[C@@](C1)(C2)C=O	
InChI=1S/C8H12O/c1-2-7-3-8(4-7,5-7)6-9/h6H,2-5H2,1H3	InChI=1S/C8H12O/c1-2-7-3-8(4-7,5-7)6-9/h6H,2-5H2,1H3/t7-,8-
