23
gdb 58250	2.58079	1.06828	0.85516	1.4421	81.93	-0.2456	0.0728	0.3184	1439.4613	0.203012	-425.408344	-425.397492	-425.396547	-425.444315	40.357	
C	 0.0022115395	 1.5473537125	 0.1761730047	-0.41091
C	-0.074424769	 0.0192013535	 0.1228003626	 0.136151
O	 0.5078350349	-0.5417586053	 1.298676618	-0.430335
C	-1.4998478194	-0.5211474629	-0.128661127	-0.005409
C	-2.0806282167	-0.0235888671	-1.4639295281	-0.411159
C	-1.5163935005	-2.0413562207	-0.0913815132	 0.019869
C	-1.745970876	-2.8072543965	 1.193273172	-0.327256
C	-2.7998396149	-2.7953444941	 0.1149240764	 0.068229
O	-3.9588210446	-2.0266256124	 0.2926907042	-0.418547
H	 1.0185075818	 1.8507959434	 0.4415842764	 0.121656
H	-0.2556446557	 2.009874685	-0.7800892444	 0.119426
H	-0.6823060536	 1.9450958614	 0.9366475162	 0.103413
H	 0.5735626201	-0.3382906332	-0.6890732249	 0.081823
H	-0.0271748583	-0.26191563	 2.0495364508	 0.271787
H	-2.1485224073	-0.1523265271	 0.6779543266	 0.066498
H	-3.0785361539	-0.4419242928	-1.6129570116	 0.138706
H	-2.1648332387	 1.0659633197	-1.4960630856	 0.109652
H	-1.4508020141	-0.3358270858	-2.3060623001	 0.106729
H	-0.8235110097	-2.5002503373	-0.7939263211	 0.081913
H	-1.181578194	-3.7144584358	 1.3790466186	 0.109708
H	-1.9621872618	-2.2204002514	 2.0803558507	 0.098551
H	-2.9490247737	-3.7068064018	-0.4641265123	 0.081924
H	-4.5142912042	-2.4724816813	 0.940198491	 0.287582
44.5203	76.244	136.5077	196.3607	207.1438	219.8103	246.9731	285.0789	303.697	338.3166	368.3094	380.1866	440.3191	484.0977	507.7775	602.6484	766.6774	827.1719	833.2009	858.2967	930.8385	958.9911	982.467	1006.54	1029.1233	1053.9036	1077.9618	1085.041	1115.5818	1132.4121	1168.9549	1176.5812	1199.0219	1239.8073	1251.1622	1294.8521	1312.4468	1334.7455	1371.7046	1399.1608	1402.7213	1408.4828	1422.8056	1428.6793	1486.7698	1493.5324	1495.1263	1499.7971	1512.6115	3008.6087	3020.999	3029.3196	3033.4792	3093.6998	3098.4347	3102.4155	3122.5598	3125.6278	3128.6732	3129.5238	3214.687	3800.3586	3808.3787
CC(O)C(C)C1CC1O	C[C@@H](O)[C@@H](C)[C@H]1C[C@H]1O	
InChI=1S/C7H14O2/c1-4(5(2)8)6-3-7(6)9/h4-9H,3H2,1-2H3	InChI=1S/C7H14O2/c1-4(5(2)8)6-3-7(6)9/h4-9H,3H2,1-2H3/t4-,5-,6-,7-/m1/s1
