19
gdb 69273	2.58243	1.53571	1.15407	2.7976	76.13	-0.2219	-0.0255	0.1964	1106.2798	0.161274	-419.200473	-419.192305	-419.191361	-419.233027	31.803	
C	 0.059936374	 1.5185429477	-0.0552541593	-0.454261
C	-0.0095783596	 0.008810547	 0.0274502329	 0.306872
C	-1.2673067691	-0.6398294272	-0.5826928589	-0.254963
N	-1.8940469194	-1.7164319435	 0.1830996808	-0.27941
C	-0.9271033597	-2.6639919637	 0.7409592664	-0.294225
C	 0.0540421286	-1.9711708099	 1.6904279365	 0.387763
O	 0.2869440911	-2.3876098658	 2.8045763529	-0.321201
C	 0.6440229082	-0.6930043705	 1.1893615971	-0.154477
N	 1.2748800631	-0.6642646274	-0.1578746516	-0.359575
H	 1.0124176921	 1.8807405625	 0.3384708273	 0.135397
H	-0.0214199502	 1.8494313133	-1.0970211032	 0.125871
H	-0.7561198481	 1.9803255632	 0.5109473345	 0.118892
H	-2.0245192395	 0.1323181704	-0.7475734237	 0.115275
H	-1.0043830045	-1.0313993573	-1.5764461413	 0.11552
H	-2.4298137024	-1.3151942925	 0.946829392	 0.226904
H	-1.4436457206	-3.4445407354	 1.3044475804	 0.133559
H	-0.3968450622	-3.1551778318	-0.0870064866	 0.119586
H	 1.1753304472	-0.1224487598	 1.9461584758	 0.104143
H	 1.1528688509	-1.5625684493	-0.6220803121	 0.22833
91.4597	153.4751	217.6867	233.1956	315.9571	363.0197	387.4146	429.0004	476.5943	503.4762	557.0865	652.7714	733.7701	774.9707	823.6055	862.4355	904.7579	929.2864	957.2779	1026.6989	1029.1724	1046.8961	1111.5942	1117.374	1149.0496	1178.8235	1200.717	1253.5663	1285.9042	1321.3269	1328.341	1339.4821	1369.7049	1411.4536	1424.2634	1465.5241	1481.764	1487.3127	1494.4884	1500.1304	1796.1885	3001.0358	3013.9763	3031.0676	3083.2386	3093.7238	3108.3631	3126.392	3153.4074	3481.5093	3511.2003
CC12CNCC(=O)C1N2	C[C@]12CNCC(=O)[C@H]1N2	
InChI=1S/C6H10N2O/c1-6-3-7-2-4(9)5(6)8-6/h5,7-8H,2-3H2,1H3	InChI=1S/C6H10N2O/c1-6-3-7-2-4(9)5(6)8-6/h5,7-8H,2-3H2,1H3/t5-,6+/m1/s1
