14
gdb 42540	4.6294	1.21944	1.13001	4.0459	73.69	-0.2312	-0.0132	0.218	1050.1115	0.100215	-399.450989	-399.443853	-399.442909	-399.482502	28.054	
O	 0.0737535567	 0.0741683451	 0.0467412745	-0.330434
C	 0.0169364542	 1.2653769319	-0.0315463718	 0.510015
C	-1.0889850627	 2.2779886587	 0.0127117158	-0.263962
C	-0.1264120602	 3.2185149279	 0.786940359	-0.161752
C	 1.0457479277	 2.4131665353	 0.0948041576	-0.20473
N	 0.8260447875	 3.134744291	-1.2097905689	-0.369016
C	-0.4889822615	 3.5448633529	-0.6319294047	 0.278827
C	-1.3002362767	 4.5824856556	-1.1657113922	 0.124189
C	-1.9633309091	 5.4757250986	-1.6222557835	-0.367789
H	-2.1552854797	 2.1563137753	 0.1385229733	 0.127374
H	-0.2803680959	 3.6937427	 1.7454168903	 0.129039
H	 2.0623826667	 2.2580700476	 0.442454464	 0.105229
H	 1.4105966696	 3.9713609971	-1.2017848765	 0.227922
H	-2.5547956666	 6.258424583	-2.029508477	 0.195088
114.8893	142.2212	208.3334	384.7344	467.8547	489.4854	513.0395	542.6691	601.605	648.4229	686.8206	727.4333	753.3534	795.6596	815.0479	864.406	896.5774	936.1022	957.3792	991.6511	1048.8458	1070.7905	1106.3471	1137.1119	1180.458	1196.3918	1253.4375	1333.0427	1401.6056	1898.3079	2241.2154	3179.3697	3218.8662	3234.1692	3451.4862	3500.196
O=C1C2C3C1NC23C#C	O=C1[C@H]2[C@H]3[C@@H]1N[C@@]23C#C	
InChI=1S/C7H5NO/c1-2-7-3-4(7)6(9)5(3)8-7/h1,3-5,8H	InChI=1S/C7H5NO/c1-2-7-3-4(7)6(9)5(3)8-7/h1,3-5,8H/t3-,4+,5-,7+/m0/s1
