15
gdb 14316	5.47341	1.6481	1.33686	4.8871	70.	-0.2245	-0.0188	0.2058	878.8061	0.121288	-362.664288	-362.657995	-362.657051	-362.694675	24.726	
O	 0.0904262827	-0.006024708	 0.1037897436	-0.343202
C	 0.0297349391	 1.1964844161	-0.0056530656	 0.392867
C	-1.3139981596	 2.013161138	 0.030072216	-0.371296
C	-0.8800980426	 3.3996997291	-0.4438080218	-0.065154
C	-0.7881565932	 4.7727485905	 0.3134700388	-0.206376
N	 0.6895901993	 4.7330969418	 0.0251569052	-0.372397
C	 0.601468886	 3.3783938636	-0.2227383238	 0.388428
C	 1.1522749103	 2.1635018757	-0.0475328561	-0.38398
H	-2.0847046807	 1.5348224796	-0.5775131725	 0.122189
H	-1.66001791	 2.0122723345	 1.0695807008	 0.128689
H	-1.1449018592	 3.5778842172	-1.489125886	 0.112873
H	-1.3065597104	 5.6299473592	-0.1215442617	 0.121733
H	-1.0065367141	 4.6959569069	 1.383799149	 0.121679
H	 1.3820571832	 5.1191803384	 0.6549588075	 0.248053
H	 2.1691848893	 1.8934012875	 0.1966395066	 0.105892
119.4749	213.3701	326.8729	384.8283	502.6749	543.5201	593.4613	626.3617	692.6387	760.7649	794.2951	834.1106	854.4755	897.7293	945.0087	963.861	1038.6528	1100.5183	1120.5693	1136.1773	1176.4786	1192.179	1210.2654	1224.9577	1253.9137	1334.2303	1351.8162	1354.3002	1462.6797	1505.2969	1696.1395	1811.6412	3045.4143	3056.8742	3075.5349	3114.619	3119.9507	3240.3387	3563.3651
O=C1CC2CNC2=C1	O=C1C[C@H]2CN[C]2[CH]1	
InChI=1S/C6H7NO/c8-5-1-4-3-7-6(4)2-5/h2,4,7H,1,3H2	InChI=1S/C6H7NO/c8-5-1-4-3-7-6(4)2-5/h2,4,7H,1,3H2/t4-/m0/s1
