16
gdb 36321	4.17108	1.09528	0.95322	3.7945	73.04	-0.2633	-0.0192	0.2441	1192.2689	0.125181	-400.747705	-400.740144	-400.7392	-400.780331	28.428	
N	-0.0811123804	-1.1541034535	-0.1248067827	-0.312466
C	-0.0625898609	-0.0029729298	-0.0229646553	 0.260796
C	-0.0064227797	 1.4506364897	 0.1050439024	-0.339036
C	 1.4373229434	 2.0036629591	 0.0111373001	-0.078887
C	 2.1154957344	 1.7098095916	-1.3177100603	-0.085219
C	 2.5195370021	 2.8202343284	-1.9381454774	-0.085792
C	 2.133519177	 4.0250536271	-1.1427199885	-0.000267
O	 0.6990891171	 4.1576895936	-0.9713912399	-0.256195
C	 1.4565708817	 3.5334669694	 0.0668141503	 0.008794
H	-0.6100125871	 1.909412512	-0.6842235468	 0.173099
H	-0.4545509493	 1.7325155267	 1.0643974106	 0.152586
H	 2.0212107726	 1.5906111001	 0.8435217654	 0.107617
H	 2.2017102645	 0.6994095203	-1.7004926407	 0.131278
H	 3.0254861386	 2.8701684822	-2.8939224928	 0.113192
H	 2.6754408539	 4.9637792381	-1.1944294066	 0.106721
H	 1.4654996119	 4.053070935	 1.0212755223	 0.103779
67.4924	117.6449	169.7834	251.4385	395.563	399.6345	468.1658	494.2685	603.9808	717.9106	756.501	797.5966	831.5077	857.7025	870.1749	936.0644	947.9276	964.9838	984.7487	1026.4233	1055.7564	1078.0493	1110.1423	1137.9844	1203.7989	1252.4603	1269.1033	1299.3851	1322.6993	1344.1782	1376.7147	1415.2941	1469.5667	1664.4305	2360.6281	3031.2091	3050.4088	3099.8065	3148.5361	3173.6509	3199.3064	3225.4095
N#CCC1C=CC2OC12	N#CC[C@H]1C=C[C@H]2O[C@@H]12	
InChI=1S/C7H7NO/c8-4-3-5-1-2-6-7(5)9-6/h1-2,5-7H,3H2	InChI=1S/C7H7NO/c8-4-3-5-1-2-6-7(5)9-6/h1-2,5-7H,3H2/t5-,6-,7+/m1/s1
