18
gdb 43007	2.53067	1.97618	1.28246	3.763	75.29	-0.2389	0.0017	0.2406	988.8982	0.150097	-401.943627	-401.936515	-401.93557	-401.975083	28.633	
O	-0.0107617335	 0.1278230589	 0.7941922743	-0.341992
C	-0.0426000332	 1.2282985555	 0.2950507054	 0.333158
C	-1.3031309366	 1.9872933712	-0.0597026206	-0.113114
C	-2.1969438859	 2.4842603558	 1.0458340072	-0.291176
C	-1.2985752306	 3.4529802092	 0.3117387863	-0.01676
C	-0.0034188242	 3.9262000907	 0.9782827451	-0.275791
C	 1.1958762346	 3.359578159	 0.2284257153	-0.006693
C	 2.1272004746	 2.3662245906	 0.8674262669	-0.252534
N	 1.1056871831	 1.9402100768	-0.0701605769	-0.070263
H	-1.7717995899	 1.6740434907	-0.9869238057	 0.115711
H	-3.2627349164	 2.5173669452	 0.8494187103	 0.118758
H	-1.9406701708	 2.2224513988	 2.0675860994	 0.125093
H	-1.7670724367	 4.1494880503	-0.3759563158	 0.089901
H	 0.0432787602	 5.0177071868	 1.0157288571	 0.113356
H	 0.0261113509	 3.5751279413	 2.0165925302	 0.113628
H	 1.5829269006	 3.9654346998	-0.5894021153	 0.099248
H	 3.1541677589	 2.2809385802	 0.5233755349	 0.127506
H	 1.9707648346	 2.1189122293	 1.914809812	 0.131962
100.4461	199.4807	236.9602	351.8063	392.1374	444.1239	485.3734	536.2362	600.5344	714.4746	749.0106	809.6842	822.49	848.6662	906.7578	926.284	958.0274	977.153	1007.0407	1022.9715	1068.3056	1084.9291	1112.9999	1116.7854	1130.5021	1147.3226	1162.3191	1180.9621	1204.6496	1252.8948	1312.7325	1339.8456	1371.9429	1388.0776	1411.0828	1476.8362	1492.2987	1510.7614	1803.4499	3037.3359	3092.8119	3107.9712	3120.1747	3131.5052	3156.4343	3165.3755	3196.8818	3218.1144
O=C1C2CC2CC2CN12	O=C1[C@H]2C[C@H]2C[C@H]2CN12	
InChI=1S/C7H9NO/c9-7-6-2-4(6)1-5-3-8(5)7/h4-6H,1-3H2	InChI=1S/C7H9NO/c9-7-6-2-4(6)1-5-3-8(5)7/h4-6H,1-3H2/t4-,5+,6+,8?/m1/s1
