21
gdb 38744	2.42821	2.18643	1.78052	0.2908	85.06	-0.2284	0.0253	0.2537	907.729	0.187991	-349.973159	-349.966818	-349.965874	-350.003282	28.313	
C	-0.0383551855	 1.5537135465	-0.0167236599	-0.224119
C	 1.510019201	 1.5261219641	 0.0085218271	-0.004356
C	 2.1667401765	 1.4729795734	 1.4143704679	-0.221591
C	 2.1729550397	-0.0328290479	 1.8181910767	-0.057125
C	 2.4451931129	-0.7225742381	 0.457455914	-0.224893
C	 1.4657916857	 0.0265745982	-0.4354557311	-0.011244
C	-0.0431105947	-0.0127914136	 0.0265557994	-0.066988
C	-0.2065914563	-0.5330812211	 1.4274488363	-0.061777
C	 0.8122598879	-0.501373879	 2.2888075667	-0.073166
H	-0.5528927602	 2.0677754345	 0.7999979487	 0.091261
H	-0.4168939607	 1.9337798809	-0.9705017451	 0.091166
H	 2.0130170849	 2.243684532	-0.6435900404	 0.057837
H	 3.2008662684	 1.8301301571	 1.3470460916	 0.090986
H	 1.6516390362	 2.0999382247	 2.147988496	 0.094124
H	 2.9390011605	-0.243995879	 2.5681942072	 0.056898
H	 3.4741866391	-0.5395770353	 0.1237430291	 0.087736
H	 2.2802626232	-1.803126011	 0.495844626	 0.094142
H	 1.5772042262	-0.1565704996	-1.5055525839	 0.058514
H	-0.7422301757	-0.4957544186	-0.6612077766	 0.060502
H	-1.1900953345	-0.8814705483	 1.7322848428	 0.08122
H	 0.6917248453	-0.8281091399	 3.3176624875	 0.080873
230.7202	286.947	386.6832	393.1855	464.286	508.455	609.5843	651.1727	730.9139	762.1913	801.8963	812.5917	818.0841	850.7845	887.2037	907.3173	915.0221	943.1323	974.9861	986.816	1006.6429	1033.9051	1048.5673	1065.2224	1079.7595	1126.7382	1146.2817	1154.9329	1170.8866	1204.2866	1224.5036	1233.687	1256.5664	1276.0065	1288.9418	1314.6489	1332.9295	1341.6916	1352.7718	1366.1494	1407.4971	1475.356	1484.2139	1492.4057	1698.9801	3027.7575	3033.3166	3043.0299	3063.1057	3071.7585	3076.5966	3086.6529	3089.9838	3096.0683	3100.6733	3149.198	3174.7142
C1C2CC3CC2C1C=C3	C1[C@H]2C[C@@H]3C[C@H]2[C@H]1C=C3	
InChI=1S/C9H12/c1-2-7-5-8-3-6(1)4-9(7)8/h1-2,6-9H,3-5H2	InChI=1S/C9H12/c1-2-7-5-8-3-6(1)4-9(7)8/h1-2,6-9H,3-5H2/t6-,7+,8-,9+/m1/s1
