12
gdb 129809	3.61814	1.64257	1.13375	3.0199	65.32	-0.2104	-0.0664	0.144	955.7052	0.078125	-468.757609	-468.750603	-468.749658	-468.789394	25.992	
N	 0.2067294872	 1.386270094	 0.1357367912	-0.600212
C	-0.0000989257	 0.0180067241	 0.0335040154	 0.20701
C	-1.0706081364	-0.8220782933	-0.0341629611	 0.260909
O	-2.4063343194	-0.8484268944	-0.1234982055	-0.296316
N	-2.7207155569	-2.333963281	-0.1381193839	-0.008577
N	-1.6727127356	-2.9856304809	-0.0683207756	-0.191379
C	-0.5733166832	-2.149144154	 0.0046625874	 0.200876
C	 0.7884956667	-2.0924320299	 0.0780939151	-0.106709
O	 1.1258687815	-0.7765105837	 0.114432933	-0.153134
H	 0.6395679523	 1.7976763901	-0.6848316989	 0.25934
H	-0.6505640757	 1.8775552614	 0.3504508615	 0.264113
H	 1.5956009351	-2.8022381224	 0.0895842713	 0.164079
65.9087	187.0179	278.0865	287.7156	383.6214	423.0309	579.6421	593.5391	623.9304	630.7417	678.7248	694.2076	738.5206	749.8706	844.5365	960.2164	1012.3245	1150.6445	1161.3882	1240.9167	1298.3346	1336.1417	1421.1224	1533.5399	1619.1963	1642.603	1716.8168	3305.0362	3510.6833	3624.7466
NC1=C2ON=NC2=CO1	Nc1c2onnc2co1	
InChI=1S/C4H3N3O2/c5-4-3-2(1-8-4)6-7-9-3/h1H,5H2	InChI=1S/C4H3N3O2/c5-4-3-2(1-8-4)6-7-9-3/h1H,5H2
