15
gdb 42305	3.43956	1.24498	0.92458	1.2092	77.13	-0.2463	-0.0492	0.1971	1192.5162	0.112984	-416.810436	-416.802197	-416.801253	-416.84399	29.294	
O	-0.0054120947	-0.0565453381	 0.0037512028	-0.351094
C	-0.0198543341	 1.1600475064	 0.0073291385	 0.298945
C	 1.1955725317	 1.9571714433	 0.0008879198	 0.204845
C	 2.2334229367	 2.5643480042	-0.0048032614	-0.392079
N	-1.1920692502	 1.8760536801	 0.0178811277	-0.133213
C	-2.5115703039	 1.2297713274	 0.0255257777	-0.191445
C	-3.4543004915	 2.4675972999	 0.0355423922	-0.179819
N	-2.5915010714	 3.664051986	 0.0329125387	-0.255219
C	-1.3875719569	 3.2598837685	 0.0232186018	 0.089878
H	 3.1566369851	 3.0916312475	-0.0097641851	 0.216926
H	-2.6242480102	 0.596516737	-0.8581470091	 0.140069
H	-2.6117102654	 0.5918441673	 0.9073529683	 0.140056
H	-4.1109044383	 2.495024469	-0.8395579293	 0.128233
H	-4.0987372924	 2.4900605803	 0.9197746943	 0.128233
H	-0.5191761545	 3.907674701	 0.0189177829	 0.155685
76.563	99.7761	134.0708	141.8711	251.0025	293.8785	454.5488	503.2877	517.1407	663.2079	672.5949	686.6232	752.2413	779.7078	820.7367	897.8195	951.9722	956.206	967.6635	1031.3568	1110.1312	1215.2474	1238.2882	1245.4644	1310.41	1329.6018	1367.977	1413.1048	1495.3557	1522.199	1697.1498	1744.126	2225.9031	3052.5145	3067.1758	3081.0518	3109.588	3223.2924	3493.2163
O=C(C#C)N1CCN=C1	O=C(C#C)N1CCN=C1	
InChI=1S/C6H6N2O/c1-2-6(9)8-4-3-7-5-8/h1,5H,3-4H2	InChI=1S/C6H6N2O/c1-2-6(9)8-4-3-7-5-8/h1,5H,3-4H2
