20
gdb 5800	3.27751	1.43538	1.29622	1.8529	71.84	-0.2588	0.0199	0.2787	1077.2402	0.173001	-386.197685	-386.187637	-386.186693	-386.232446	36.077	
C	-0.221311888	 1.4901952598	 0.0119683143	-0.468937
C	 0.1163810575	 0.0147764422	 0.000860098	 0.434801
O	 1.2388537328	-0.4290747768	-0.012449643	-0.363588
O	-1.0142906575	-0.7141949492	 0.0079453332	-0.290438
C	-0.9833109617	-2.1833377344	-0.0002752359	 0.370624
C	-0.2869517138	-2.702801142	 1.2617843159	-0.417138
C	-2.4685090939	-2.5507624412	 0.0122384496	-0.398243
C	-0.3117685899	-2.689097101	-1.2812085314	-0.41714
H	 0.6995528298	 2.0722223827	 0.0066243499	 0.144507
H	-0.8289234749	 1.7428948173	-0.8615676682	 0.146176
H	-0.8127767783	 1.7333961957	 0.8991672942	 0.146162
H	-0.7609235893	-2.2865237157	 2.1561425746	 0.114236
H	-0.3791637152	-3.7925786149	 1.306906477	 0.11322
H	 0.7705365117	-2.439617767	 1.2665205032	 0.151351
H	-2.9739667339	-2.1423470173	-0.8672264871	 0.119682
H	-2.5875900743	-3.6379665227	 0.0075002819	 0.116236
H	-2.9566543282	-2.1519713483	 0.9057872526	 0.119681
H	 0.7454417097	-2.4257203198	-1.3037645811	 0.151349
H	-0.4049044103	-3.7783408386	-1.3362352534	 0.113223
H	-0.8030927523	-2.2633025488	-2.1616132544	 0.114235
50.9972	93.2909	119.8468	192.2229	196.5476	245.6452	264.2631	311.0142	331.3603	346.6673	424.8949	454.2558	460.3583	611.8923	634.5214	758.4957	846.0662	923.6156	924.3324	953.175	965.8471	1034.5205	1051.6886	1060.3068	1062.7367	1200.8556	1266.3496	1278.5535	1288.3018	1391.5766	1394.9779	1399.8633	1425.3411	1467.9916	1468.9373	1476.1577	1488.2632	1488.6474	1494.5136	1503.6025	1526.0862	1808.8514	3041.8642	3042.4716	3049.7683	3056.3058	3105.9797	3108.4114	3121.0475	3121.5315	3123.2234	3155.4301	3158.286	3166.895
CC(=O)OC(C)(C)C	CC(=O)OC(C)(C)C	
InChI=1S/C6H12O2/c1-5(7)8-6(2,3)4/h1-4H3	InChI=1S/C6H12O2/c1-5(7)8-6(2,3)4/h1-4H3
