19
gdb 122600	4.54098	0.70269	0.63592	3.8976	73.18	-0.269	0.0084	0.2774	1750.0794	0.157899	-460.180948	-460.171392	-460.170448	-460.216921	32.95	
C	 0.9006659724	 1.1315160578	 0.6969274013	-0.385421
C	-0.0007911424	 0.1670702591	-0.0537963312	-0.032843
O	 0.7393329303	-0.4068461639	-1.1170747462	-0.249441
C	-0.0059015964	-1.3216244684	-1.8854596006	-0.070549
C	 0.9042732509	-1.8599089907	-2.9746749405	-0.209674
C	 1.980263619	-2.884532097	-2.5772467639	-0.082401
O	 1.3371860611	-3.8992715947	-3.4202865373	-0.238868
C	 0.3459984689	-3.0290826338	-3.7957294879	 0.441973
O	-0.5812578417	-3.2406385549	-4.5082053757	-0.322913
H	 1.772367517	 0.60831646	 1.1000500224	 0.127356
H	 1.2537458265	 1.9242504659	 0.031455055	 0.129175
H	 0.3569731018	 1.5913890579	 1.5273134095	 0.119503
H	-0.3699148251	-0.6249035225	 0.6191175418	 0.090568
H	-0.8860537654	 0.6907861602	-0.4509984789	 0.092527
H	-0.3800708691	-2.1481459811	-1.2564930424	 0.096204
H	-0.8845187453	-0.838779849	-2.3427852133	 0.111168
H	 1.2715947002	-1.0395378417	-3.5958996646	 0.123844
H	 2.9971879032	-2.6866591383	-2.9191697821	 0.129858
H	 1.9773491942	-3.193244205	-1.5299922653	 0.129934
43.94	74.8755	93.2985	125.7705	158.2917	207.8692	246.5692	309.8125	398.6104	444.4947	555.7882	691.7079	743.0743	820.5953	869.5222	895.2659	925.9437	956.3795	966.3583	1043.9249	1104.8622	1123.9859	1144.1942	1149.6705	1158.4732	1168.8156	1192.3301	1212.3463	1260.4042	1297.5439	1327.4269	1360.833	1389.0034	1408.2735	1451.8454	1483.6109	1499.2051	1510.131	1518.6042	1535.9211	1936.3731	2951.8417	2964.0998	2987.3621	2994.7204	3046.3808	3078.4839	3094.9939	3121.656	3122.9054	3141.2504
CCOCC1COC1=O	CCOC[C@H]1COC1=O	
InChI=1S/C6H10O3/c1-2-8-3-5-4-9-6(5)7/h5H,2-4H2,1H3	InChI=1S/C6H10O3/c1-2-8-3-5-4-9-6(5)7/h5H,2-4H2,1H3/t5-/m0/s1
