18
gdb 105440	2.36729	1.42102	1.16618	3.212	76.55	-0.2591	0.0075	0.2666	1121.1026	0.1483	-401.972748	-401.964187	-401.963243	-402.005994	32.213	
O	 0.1211967754	 1.2098144868	-0.4034542783	-0.416857
C	-0.0943208584	-0.1623873833	-0.1725616414	-0.098021
C	-1.5816197195	-0.5121532298	 0.1165982617	 0.111029
C	-2.4701408912	-0.107774505	-1.1054641061	-0.297329
C	-2.6368986445	-1.4093013297	-1.8472993976	-0.060981
C	-2.2440657146	-2.4588239827	-1.1296967098	-0.063711
C	-1.7344296645	-2.0637919651	 0.2345207925	-0.30798
C	-1.9719980657	 0.1914834771	 1.3379275681	 0.235141
N	-2.2348516624	 0.7784098268	 2.2996227426	-0.354877
H	-0.0513775821	 1.683536974	 0.418825006	 0.299137
H	 0.1996556262	-0.6831813076	-1.0890701349	 0.125594
H	 0.5265513924	-0.5416442138	 0.6518480224	 0.107107
H	-3.4399671275	 0.292410894	-0.7853662942	 0.127227
H	-1.9801154288	 0.6814438966	-1.6836034057	 0.138366
H	-3.0608764561	-1.453148874	-2.8438925773	 0.104225
H	-2.2977124227	-3.4944666389	-1.4447389581	 0.103804
H	-0.7794861007	-2.5356004776	 0.4960259555	 0.116617
H	-2.4426823651	-2.3420832279	 1.0242380749	 0.131509
90.1165	111.0288	169.6569	188.9311	250.4518	347.1991	380.5751	403.3888	444.4755	507.5606	566.7799	634.118	704.3773	768.0882	791.6822	895.012	922.2803	962.1421	962.6519	979.4657	981.9187	1068.8651	1091.3493	1104.5469	1120.6365	1135.8521	1178.8718	1232.4985	1279.5394	1298.1424	1342.0819	1360.3469	1388.4141	1417.1	1486.7082	1495.2435	1500.2144	1692.1604	2344.9986	3000.9877	3028.9954	3034.443	3058.5164	3083.9604	3090.2801	3190.871	3215.2321	3793.4656
OCC1(CC=CC1)C#N	OC[C@]1(CC=CC1)C#N	
InChI=1S/C7H9NO/c8-5-7(6-9)3-1-2-4-7/h1-2,9H,3-4,6H2	InChI=1S/C7H9NO/c8-5-7(6-9)3-1-2-4-7/h1-2,9H,3-4,6H2
