22
gdb 76699	3.22528	0.77762	0.73477	1.0435	89.02	-0.2166	0.0538	0.2704	1652.1113	0.191399	-367.148422	-367.137759	-367.136815	-367.184567	38.756	
C	-0.0361427608	 1.5282505065	 0.7192649547	-0.414637
C	 0.0304359675	 0.0758940996	 0.2935778299	-0.01769
C	 0.3106748542	-0.3591953479	-1.1116152527	-0.007812
C	 0.5445991717	 0.6093756906	-2.2532918496	-0.211946
C	 1.3337786041	-0.0463733932	-3.4100833908	-0.353752
C	 1.5210729835	 0.8483453339	-4.5451309905	 0.291388
C	 1.660526442	 1.6095865229	-5.4650237159	-0.435605
N	 1.2783121202	-0.6175956435	-0.0370895531	-0.103481
C	 2.5493537028	 0.087684802	 0.0169994533	-0.317022
H	 0.5779655035	 2.1923373753	 0.1090396444	 0.120962
H	-1.0698331489	 1.8850055513	 0.6570445183	 0.123661
H	 0.285309019	 1.6387551101	 1.760927357	 0.123289
H	-0.6485580357	-0.5546381554	 0.8692258835	 0.085471
H	-0.1820240268	-1.2745141422	-1.446463387	 0.082107
H	-0.4259922551	 0.9449750875	-2.6375750063	 0.114333
H	 1.0733527059	 1.5087567745	-1.9313558989	 0.111479
H	 2.3108559039	-0.3829719911	-3.0418599621	 0.136784
H	 0.8078607643	-0.9521757571	-3.7389490925	 0.13192
H	 1.7903320025	 2.2707855192	-6.2854242418	 0.193254
H	 2.5457760601	 1.1267244722	-0.3422702774	 0.101166
H	 2.89843627	 0.0974816242	 1.0548089304	 0.123451
H	 3.285873302	-0.4679884495	-0.5731638928	 0.122682
60.2174	74.2547	93.324	150.9228	173.0605	197.8865	238.3007	284.2019	293.66	350.679	450.0553	474.9687	526.3876	563.6617	617.2225	637.8661	718.2436	757.2637	785.8934	854.8894	955.9811	986.1757	1029.478	1035.5394	1053.7082	1088.7383	1137.4945	1146.4994	1166.9379	1171.5926	1194.3538	1220.4699	1277.1737	1311.3534	1351.6226	1362.5294	1396.1818	1415.9129	1436.6322	1461.4564	1471.1671	1482.3191	1487.6299	1499.3921	1508.442	1511.4924	2238.5919	2993.288	3022.0839	3037.4303	3041.8254	3056.2193	3063.4452	3070.2358	3087.4948	3091.3096	3094.5109	3110.8533	3136.3477	3507.6358
CC1C(CCC#C)N1C	C[C@H]1[C@@H](CCC#C)N1C	
InChI=1S/C8H13N/c1-4-5-6-8-7(2)9(8)3/h1,7-8H,5-6H2,2-3H3	InChI=1S/C8H13N/c1-4-5-6-8-7(2)9(8)3/h1,7-8H,5-6H2,2-3H3/t7-,8+,9?/m0/s1
