20
gdb 79462	2.46022	1.87596	1.46978	1.4787	77.41	-0.2263	0.0649	0.2913	982.8176	0.172636	-403.091414	-403.08374	-403.082796	-403.123022	31.317	
C	-0.008431116	 1.5314465652	-0.0099845661	-0.512243
C	 0.0416440418	 0.0240899195	 0.0186014824	 0.264757
C	-1.2448588102	-0.8002195975	-0.159652394	-0.216961
N	-0.7532837735	-2.1165881789	 0.3644081729	-0.163197
C	-0.4645627631	-1.6958706627	 1.7934682744	-0.185243
C	 0.6552737962	-0.831100881	 1.2254517581	-0.089635
C	 0.776629961	-1.9035334994	 0.1056233722	-0.071961
C	 0.9910249058	-0.7975894713	-0.9168159453	 0.147074
O	 0.7351103479	-0.9549656672	-2.2876604951	-0.45007
H	 0.982690183	 1.9705364393	 0.1463452871	 0.116579
H	-0.3761805668	 1.8853936689	-0.9800061851	 0.127534
H	-0.6758271871	 1.926997199	 0.7641170163	 0.114823
H	-2.0969617928	-0.4513288805	 0.429219816	 0.099651
H	-1.564636337	-0.8710886588	-1.2039762171	 0.085051
H	-1.3122641859	-1.2466993077	 2.3211978216	 0.097583
H	-0.08710365	-2.5482199822	 2.3656402942	 0.107495
H	 1.4944293233	-0.4145396532	 1.7830394998	 0.06905
H	 1.3482253321	-2.8278306607	 0.1687454896	 0.078925
H	 2.0168884822	-0.4226880817	-0.8307589781	 0.087476
H	 0.0055815692	-1.5725858293	-2.3959741736	 0.293311
168.476	184.6657	221.7228	273.3513	290.0121	309.7159	498.6049	524.4418	556.2356	611.8196	683.8387	732.4521	780.3143	829.5555	843.2767	849.136	901.1245	935.3693	961.6913	989.7597	1006.8615	1014.6112	1035.5248	1093.8573	1130.7094	1135.0092	1162.0823	1167.4268	1193.1344	1212.5129	1243.2386	1246.3396	1255.0868	1271.7877	1293.5489	1302.6186	1368.3314	1410.5276	1436.9226	1491.0757	1493.2628	1508.8042	1535.9564	3023.236	3041.0198	3051.0853	3059.3831	3087.7114	3091.5416	3093.7231	3100.6052	3110.6652	3135.2579	3829.3743
CC12CN3CC1C3C2O	C[C@]12CN3C[C@H]1[C@@H]3[C@H]2O	
InChI=1S/C7H11NO/c1-7-3-8-2-4(7)5(8)6(7)9/h4-6,9H,2-3H2,1H3	InChI=1S/C7H11NO/c1-7-3-8-2-4(7)5(8)6(7)9/h4-6,9H,2-3H2,1H3/t4-,5+,6+,7-/m0/s1
