24
gdb 100024	2.29998	1.37015	1.15915	2.6579	85.03	-0.2308	0.0744	0.3052	1241.9927	0.214774	-405.520981	-405.510085	-405.509141	-405.556549	40.934	
C	 0.1322385054	 1.3447023388	 0.236160204	-0.245525
O	 0.1257399295	-0.0463088359	 0.0105830811	-0.288248
C	 0.6551854426	-0.5505707657	-1.2282326239	 0.287394
C	-0.2697159302	-0.1437916379	-2.3879422017	-0.427688
C	 2.0868636275	-0.0446551853	-1.4597746523	-0.427616
C	 0.6542124062	-2.0872141441	-1.0475528949	 0.340626
C	 0.9892497633	-2.9209536784	-2.2704276237	-0.46976
C	 0.9951806859	-2.6346588947	 0.2905684253	-0.279686
N	-0.3967953658	-2.6848507124	-0.2064775654	-0.373149
H	 1.1476948728	 1.7555103749	 0.3130992909	 0.111515
H	-0.4125467415	 1.9048205948	-0.5356668877	 0.109566
H	-0.3743909062	 1.5013154484	 1.1921060975	 0.129294
H	-0.3381107343	 0.9441557515	-2.4748384436	 0.111959
H	 0.107567339	-0.5179636884	-3.3426309078	 0.122377
H	-1.2757678834	-0.5434434945	-2.2325461936	 0.127784
H	 2.7165764283	-0.2682317155	-0.5941459365	 0.124354
H	 2.5265630891	-0.5255555953	-2.3366975006	 0.123106
H	 2.1083558198	 1.0343388384	-1.6394030463	 0.11226
H	 1.9843868496	-2.694520999	-2.6672436497	 0.110935
H	 0.9666311994	-3.9786636581	-1.9984148358	 0.128469
H	 0.259570936	-2.776493727	-3.0728499795	 0.119951
H	 1.4938334887	-3.5980180004	 0.3625626959	 0.102399
H	 1.2193532267	-1.9346216373	 1.0879857283	 0.113299
H	-0.9049949382	-1.9268261668	 0.24431639	 0.236382
56.5591	61.9425	179.9024	192.2599	207.3241	221.8235	258.0956	302.3379	320.7971	347.2851	370.5462	380.1013	401.4889	450.6646	496.305	527.9581	651.3627	787.2062	846.6539	881.0175	917.8753	933.8833	947.9858	993.4291	1009.6995	1031.81	1082.7276	1110.255	1121.0119	1136.5801	1180.6078	1190.1414	1199.6136	1209.2207	1249.7456	1294.5028	1342.2637	1368.7911	1393.2858	1409.776	1420.6526	1475.971	1478.7426	1480.7022	1488.1043	1495.3168	1499.1231	1502.3073	1511.9071	1514.3641	1516.5411	3000.7716	3039.7241	3042.9344	3050.3935	3055.1409	3102.3091	3108.3607	3110.7739	3113.2162	3118.3791	3122.5191	3126.1238	3130.3023	3206.4196	3498.9721
COC(C)(C)C1(C)CN1	COC(C)(C)[C@@]1(C)CN1	
InChI=1S/C7H15NO/c1-6(2,9-4)7(3)5-8-7/h8H,5H2,1-4H3	InChI=1S/C7H15NO/c1-6(2,9-4)7(3)5-8-7/h8H,5H2,1-4H3/t7-/m1/s1
