19
gdb 85986	3.49714	1.13455	1.0507	1.5916	71.1	-0.2536	0.0642	0.3178	1192.9166	0.157867	-460.119723	-460.111045	-460.1101	-460.152967	33.631	
O	-0.0060010342	 1.3821169398	-0.0252539537	-0.436963
C	-0.1057285789	-0.0433883986	-0.0669226851	 0.086062
C	 0.1639977118	-0.6842916922	 1.3194156497	-0.310219
C	-1.3574938323	-0.4933902585	 1.6344143307	 0.413875
O	-1.6343155989	 0.7145427274	 2.3143177475	-0.50121
C	-1.5956897814	-0.4104002941	 0.0956896905	-0.284059
C	-2.0357296285	-1.5881507414	 2.4159013224	 0.037206
C	-3.3312127843	-2.1503649026	 2.0256058083	-0.180361
O	-2.1128606491	-2.8638173799	 1.7797282567	-0.243224
H	 0.9210519974	 1.609771787	 0.1051302171	 0.287334
H	 0.431850306	-0.4447519637	-0.933460049	 0.071572
H	 0.4267602544	-1.7421489282	 1.2338633492	 0.119768
H	 0.869088282	-0.1744475277	 1.9820636006	 0.093682
H	-1.2090809816	 1.4155638041	 1.8017894747	 0.282461
H	-2.3192697314	 0.3286188082	-0.2546903673	 0.108626
H	-1.8117277688	-1.3951651059	-0.3240146002	 0.121459
H	-1.7559563559	-1.6191360065	 3.4699043165	 0.097759
H	-3.9811061226	-2.586312175	 2.7821354143	 0.118693
H	-3.8355917138	-1.7720668123	 1.1384000173	 0.11754
78.4522	127.8537	166.0519	211.8109	304.0012	365.6006	369.6083	423.203	425.9335	479.3145	513.6776	538.0284	636.4561	810.2208	858.4021	863.5516	874.2187	896.9799	923.2925	952.7624	978.9052	991.127	1063.7597	1070.981	1097.9051	1144.7167	1166.959	1168.0903	1173.441	1185.734	1232.5143	1245.5014	1268.1791	1292.3134	1322.6742	1402.7795	1405.3497	1443.8166	1463.4502	1480.9436	1527.9321	3034.1594	3054.4976	3072.5641	3090.983	3104.4871	3118.6416	3138.6376	3179.2382	3750.0602	3805.7715
OC1CC(O)(C1)C1CO1	O[C@H]1C[C@@](O)(C1)[C@H]1CO1	
InChI=1S/C6H10O3/c7-4-1-6(8,2-4)5-3-9-5/h4-5,7-8H,1-3H2	InChI=1S/C6H10O3/c7-4-1-6(8,2-4)5-3-9-5/h4-5,7-8H,1-3H2/t4-,5-,6+/m1/s1
