20
gdb 104352	2.49259	1.48237	1.19579	4.8467	74.75	-0.2482	0.0242	0.2724	1115.7764	0.172295	-440.339588	-440.330651	-440.329707	-440.372869	34.053	
C	 0.2334029281	 1.3830370339	-0.0412358203	-0.423727
C	-0.1124076578	-0.1177003684	-0.0475004146	 0.127436
C	-1.640712172	-0.3214814492	 0.0071536101	-0.088205
O	-2.2274211708	 0.2988280822	 1.1262856878	-0.42933
C	 0.560918364	-0.8730488924	-1.2129977633	-0.267049
C	 1.9105108275	-1.3632425587	-0.6399683893	-0.174388
N	 1.6262657035	-1.4570997701	 0.7834269431	-0.310509
C	 0.5230147124	-0.7757343951	 1.1892439875	 0.427325
O	 0.1100363465	-0.6998427127	 2.3365826815	-0.419536
H	 1.3155082679	 1.550497873	-0.0305932488	 0.110551
H	-0.1760162913	 1.8625786034	-0.9368239244	 0.115931
H	-0.2035182845	 1.8663705718	 0.8342684793	 0.147378
H	-2.1007573283	 0.1190621764	-0.886299204	 0.098652
H	-1.8542474155	-1.4045037021	-0.016535676	 0.079906
H	-1.7072267606	 0.004216986	 1.8920095262	 0.297392
H	-0.0472706152	-1.7391657208	-1.4960731361	 0.111545
H	 0.6937320457	-0.2526691227	-2.102004222	 0.110552
H	 2.209688934	-2.333106021	-1.0487138035	 0.118159
H	 2.7221862993	-0.6510543491	-0.841208766	 0.113626
H	 2.2430462473	-1.8879932047	 1.454172463	 0.254291
93.4196	167.1038	178.4207	201.3012	218.2186	274.0101	305.9048	354.3274	406.2417	510.223	524.9875	611.7047	653.505	696.5779	720.9543	765.4211	835.4572	920.3484	945.6223	961.2142	972.7383	1036.2332	1068.7981	1091.1899	1150.572	1178.7715	1199.0718	1220.6719	1243.2898	1271.993	1310.4811	1335.3934	1371.8478	1381.9199	1407.2877	1450.1302	1474.9676	1487.0493	1492.2326	1500.9397	1509.4223	1535.7415	1786.9179	2948.2233	3009.5778	3034.135	3043.0914	3046.2276	3074.0656	3097.4525	3108.9866	3138.8979	3637.3606	3668.315
CC1(CO)CCNC1=O	C[C@@]1(CO)CCNC1=O	
InChI=1S/C6H11NO2/c1-6(4-8)2-3-7-5(6)9/h8H,2-4H2,1H3,(H,7,9)	InChI=1S/C6H11NO2/c1-6(4-8)2-3-7-5(6)9/h8H,2-4H2,1H3,(H,7,9)/t6-/m0/s1
