19
gdb 97134	4.16968	1.10163	0.97655	3.4306	79.64	-0.2222	0.0213	0.2436	1271.6495	0.158777	-419.206232	-419.197231	-419.196287	-419.239694	33.479	
C	-0.2484188515	 1.3850928322	 0.1028200611	-0.337078
N	-0.1899740529	-0.0662326104	 0.089414744	-0.332923
C	 0.6289513691	-0.6212319586	 0.8897152063	 0.457539
N	 1.5069671814	-0.0485729482	 1.7976134351	-0.36684
C	 2.3409088848	-1.0057488519	 2.5144018255	-0.223392
C	 1.886849569	-2.3593371851	 1.9711577734	 0.423074
C	 2.8201978037	-3.5364258907	 1.9757821331	-0.490596
O	 0.5155770314	-2.6077789806	 2.2946930303	-0.290976
C	 0.8304473521	-2.0991496858	 0.9796195251	-0.157658
H	 0.749753556	 1.8527713152	 0.0853932967	 0.101407
H	-0.80253639	 1.7368495468	-0.771397433	 0.122512
H	-0.7736978026	 1.7655648875	 0.9932076439	 0.109889
H	 1.320219864	 0.8598323584	 2.1867437351	 0.249755
H	 3.4076176531	-0.8418781326	 2.30981858	 0.108548
H	 2.1900284246	-0.9554256821	 3.600146033	 0.118597
H	 3.1230877151	-3.7869645606	 2.9985616363	 0.131072
H	 2.3276675592	-4.4108038422	 1.5445087349	 0.13927
H	 3.7248982727	-3.3204546522	 1.3986602666	 0.128358
H	 0.584500961	-2.7395901494	 0.1402389526	 0.109442
95.2404	126.9949	184.5558	194.7841	212.414	263.3279	307.0291	363.5913	382.6571	445.5013	479.6605	598.1057	683.8031	714.8996	777.5139	849.6925	892.7844	929.2662	980.3937	1010.0832	1025.6076	1073.5067	1091.526	1109.0949	1125.1459	1173.5734	1223.3698	1230.4009	1259.9252	1302.0005	1358.171	1407.5647	1432.3968	1438.528	1460.2812	1486.429	1494.5019	1495.7904	1503.9421	1511.6532	1764.0417	2961.6065	3006.8476	3007.3172	3037.5924	3044.8506	3095.2811	3100.2495	3130.0348	3190.7995	3660.9184
CN=C1NCC2(C)OC12	CN=C1NC[C@@]2(C)O[C@@H]12	
InChI=1S/C6H10N2O/c1-6-3-8-5(7-2)4(6)9-6/h4H,3H2,1-2H3,(H,7,8)	InChI=1S/C6H10N2O/c1-6-3-8-5(7-2)4(6)9-6/h4H,3H2,1-2H3,(H,7,8)/t4-,6+/m0/s1
