20
gdb 16906	3.66538	1.8205	1.39611	1.3101	74.63	-0.2359	0.0857	0.3216	954.6323	0.178637	-349.003872	-348.996398	-348.995453	-349.035231	29.771	
C	 0.0139416296	 1.5299802676	 0.083043804	-0.398924
C	 0.0256444509	 0.0131786169	-0.0309533408	 0.156679
C	 0.6529901719	-0.4938191102	-1.3319269028	-0.207431
C	 0.5650295064	-2.0268231582	-1.4085211283	-0.237559
C	 0.8910734908	-2.6938559933	-0.082698349	-0.036292
C	 2.19407561	-2.4595780735	 0.6526824182	-0.307853
C	 0.9125954079	-1.8584681529	 1.1722720535	 0.104521
O	 0.7711163713	-0.4687086954	 1.0891273332	-0.271555
H	 1.0314897411	 1.9262948379	 0.0085497454	 0.120757
H	-0.5909269906	 1.9705061994	-0.7152724233	 0.110709
H	-0.4018671291	 1.8368691406	 1.0464387123	 0.122131
H	-1.0096599918	-0.3655060369	 0.0329040366	 0.060288
H	 0.1448487988	-0.0484005975	-2.194365106	 0.094064
H	 1.6957383114	-0.1542869842	-1.3629390588	 0.101642
H	-0.4632640736	-2.2994383575	-1.6794281419	 0.09878
H	 1.2081701508	-2.4132011731	-2.208145488	 0.09837
H	 0.4741100013	-3.69089633	 0.0282189293	 0.084703
H	 2.6414716323	-3.2927146921	 1.1839517442	 0.10633
H	 2.9041871863	-1.7573188693	 0.2293113695	 0.115189
H	 0.4761583443	-2.2659987384	 2.0819058527	 0.085451
117.1094	189.3744	223.9261	291.5667	319.5371	396.0509	467.1576	468.8283	510.1615	658.5576	742.4095	787.9803	819.8874	857.7615	914.6372	915.7284	936.9576	991.0113	1008.9894	1039.217	1045.362	1102.1597	1114.9065	1122.2913	1153.582	1166.361	1188.929	1230.5875	1250.2879	1257.8268	1332.9132	1352.6536	1366.4066	1391.0854	1399.6472	1410.2712	1412.343	1478.8139	1480.9613	1486.4465	1498.8618	1500.8569	2946.5104	3016.8785	3029.5644	3041.6888	3052.8199	3076.4357	3114.6139	3117.5673	3120.955	3132.1326	3142.0799	3221.0978
CC1CCC2CC2O1	C[C@H]1CC[C@H]2C[C@H]2O1	
InChI=1S/C7H12O/c1-5-2-3-6-4-7(6)8-5/h5-7H,2-4H2,1H3	InChI=1S/C7H12O/c1-5-2-3-6-4-7(6)8-5/h5-7H,2-4H2,1H3/t5-,6-,7+/m0/s1
