17
gdb 47612	2.38526	1.90824	1.1721	3.5881	67.42	-0.2568	0.0023	0.2591	1020.996	0.137926	-458.982915	-458.975568	-458.974624	-459.01534	27.757	
O	-0.1795526338	 0.2947299646	 0.8540625921	-0.332701
C	-0.1147359875	 1.2657801519	 0.1507085937	 0.414836
O	-1.2349415555	 1.7448926889	-0.441251123	-0.224796
C	-1.1669986043	 2.9430913956	-1.2367782173	-0.076396
C	-0.3400156199	 4.0200918309	-0.542955927	-0.253664
C	 1.0937531328	 3.5109210233	-0.4371297909	 0.133616
O	 1.7675367374	 3.8465969513	 0.7919475426	-0.290908
C	 1.9639504095	 2.4540727727	 1.1315602319	-0.077862
C	 1.1838732444	 2.0004200258	-0.1214902757	-0.23224
H	-0.7531978403	 2.6998684885	-2.2249710683	 0.115681
H	-2.2059564503	 3.248181306	-1.3746831368	 0.132961
H	-0.4033953837	 4.9632747699	-1.0936994583	 0.114733
H	-0.7381859071	 4.1887739147	 0.4629775372	 0.131146
H	 1.6851432608	 3.8189363454	-1.3090248222	 0.082822
H	 3.0248217605	 2.1812159474	 1.1414873232	 0.111643
H	 1.5107889966	 2.1864821327	 2.0910993289	 0.129364
H	 1.7633021403	 1.4055668703	-0.83087929	 0.121764
67.0119	107.7658	237.1424	261.913	382.4586	434.5575	479.839	504.7222	625.9208	674.3436	765.854	790.0902	878.9883	915.2959	954.7674	978.4147	993.0876	1028.3658	1077.5988	1087.4515	1103.0053	1138.299	1151.7058	1174.6475	1212.7655	1230.5082	1260.9161	1292.7741	1329.8643	1337.1007	1363.5664	1388.5868	1417.0745	1483.4036	1514.9404	1531.0736	1844.4425	3014.605	3019.0826	3036.6197	3054.1463	3084.396	3095.2669	3104.8419	3113.2729
O=C1OCCC2OCC12	O=C1OCC[C@H]2OC[C@@H]12	
InChI=1S/C6H8O3/c7-6-4-3-9-5(4)1-2-8-6/h4-5H,1-3H2	InChI=1S/C6H8O3/c7-6-4-3-9-5(4)1-2-8-6/h4-5H,1-3H2/t4-,5-/m1/s1
