21
gdb 98829	3.12113	0.99559	0.92354	3.0771	79.23	-0.2605	-0.0268	0.2337	1374.8085	0.181203	-424.23569	-424.225996	-424.225052	-424.271035	35.516	
C	-0.7327711555	 1.3166889122	 0.2769113763	-0.401685
C	-0.2447676159	-0.1227211838	 0.1546109935	 0.00973
C	 0.7952079826	-0.3532650835	-0.9802555615	-0.223403
C	 1.9287904581	-0.3906006001	 0.0761748277	-0.23453
C	 0.8699638932	-0.573454181	 1.1932667515	-0.093001
C	 1.0088922587	 0.2517712091	 2.4413503365	 0.351353
O	 1.6181544039	 1.3041825388	 2.4782653458	-0.338825
C	 0.3220060627	-0.2391645443	 3.7084125912	-0.134081
O	 0.4481802876	 0.6787105138	 4.7507272473	-0.421199
H	 0.1006594171	 2.0219625412	 0.3455139346	 0.139207
H	-1.331104846	 1.5810478814	-0.6015436278	 0.115964
H	-1.361322872	 1.459939009	 1.1626265332	 0.117779
H	-1.1022625972	-0.8009423409	 0.1351529794	 0.077184
H	 0.6566239949	-1.3143474458	-1.4824058098	 0.101981
H	 0.8544743819	 0.4287101146	-1.7417332925	 0.102061
H	 2.6775210775	-1.1798720985	-0.0164918584	 0.103148
H	 2.43737443	 0.5690199887	 0.187704223	 0.129348
H	 0.7175672453	-1.6235237224	 1.4607005407	 0.078274
H	-0.737381817	-0.4399733169	 3.4750949556	 0.114617
H	 0.7651295859	-1.2164305638	 3.9702625306	 0.113104
H	 1.0044936442	 1.3876323421	 4.387844073	 0.292971
40.3019	80.5206	101.4942	176.6169	202.5096	262.5342	317.1116	343.8439	351.0798	395.0869	447.2892	554.0161	653.993	713.1019	772.8656	797.9803	882.6177	894.675	934.658	946.9804	970.8049	1004.8455	1025.9071	1084.7558	1100.1296	1138.8995	1154.2822	1160.8354	1222.9607	1239.3096	1245.6609	1262.4956	1276.2739	1284.141	1307.7405	1357.2031	1384.2458	1416.0388	1452.2102	1480.725	1490.2512	1493.0836	1497.8936	1500.5327	1778.4638	2957.3488	2978.9218	3031.8348	3052.0055	3056.7383	3067.5454	3075.4506	3094.6276	3104.581	3114.8593	3133.8921	3672.227
CC1CCC1C(=O)CO	C[C@H]1CC[C@H]1C(=O)CO	
InChI=1S/C7H12O2/c1-5-2-3-6(5)7(9)4-8/h5-6,8H,2-4H2,1H3	InChI=1S/C7H12O2/c1-5-2-3-6(5)7(9)4-8/h5-6,8H,2-4H2,1H3/t5-,6+/m0/s1
