19
gdb 63757	3.09246	1.41117	1.26344	2.4232	77.73	-0.2281	0.0062	0.2344	1069.009	0.158373	-422.997601	-422.989223	-422.988278	-423.030042	32.759	
C	-0.0324954558	 1.5337530822	 0.016336263	-0.441374
C	-0.0134820078	 0.014287012	-0.0112356245	 0.348111
O	-1.2846338744	-0.5371811719	-0.2741442979	-0.474879
C	 1.1972388806	-0.6026603144	-0.8515676169	-0.381574
C	 1.8998029579	-0.7099913537	 0.479339965	 0.233905
C	 2.9021558184	-0.2208475094	 1.1991619196	-0.24538
C	 2.3591883904	 0.0821850003	 2.5892524051	-0.106922
O	 0.9221097303	 0.0350802465	 2.4622987972	-0.278367
C	 0.6321299349	-0.6508178995	 1.2632155767	 0.068461
H	 0.9523312544	 1.9378134373	 0.2628702922	 0.127685
H	-0.3255273562	 1.9326504867	-0.9626508941	 0.102274
H	-0.7462407543	 1.8855663625	 0.7658934552	 0.136372
H	-1.6507210694	-0.0990319004	-1.0501952875	 0.277109
H	 0.890643137	-1.5632420167	-1.2748220952	 0.118593
H	 1.6643657304	 0.01338408	-1.6231482534	 0.108587
H	 3.8950316862	 0.0677050915	 0.8779282168	 0.103202
H	 2.6862035844	-0.634308272	 3.359783017	 0.105515
H	 2.6508924449	 1.0849841646	 2.9276079682	 0.110796
H	 0.1169287383	-1.6024356858	 1.4571116435	 0.087885
114.9876	190.9162	215.0056	235.26	264.0613	288.2164	342.2543	380.1008	413.3838	524.2251	629.2278	662.5594	761.2592	768.5158	793.4083	848.5437	902.2684	918.6418	948.7383	967.5735	976.338	1026.6148	1049.2267	1078.9552	1116.8238	1139.5211	1165.2627	1187.1373	1194.6628	1197.9599	1255.6237	1296.781	1341.0418	1365.4273	1381.6405	1409.0304	1471.6803	1488.6118	1491.5248	1516.742	1732.1274	2974.409	3005.9471	3029.2618	3031.5201	3058.8903	3102.531	3118.4941	3130.389	3212.9755	3801.2829
CC1(O)CC2=CCOC12	C[C@@]1(O)C[C]2[CH]CO[C@@H]12	
InChI=1S/C7H10O2/c1-7(8)4-5-2-3-9-6(5)7/h2,6,8H,3-4H2,1H3	InChI=1S/C7H10O2/c1-7(8)4-5-2-3-9-6(5)7/h2,6,8H,3-4H2,1H3/t6-,7-/m1/s1
