21
gdb 74555	3.53076	1.117	1.09161	1.3133	85.13	-0.2094	0.0249	0.2342	1237.9152	0.18143	-387.097176	-387.088077	-387.087133	-387.130209	35.721	
C	 0.0292261772	 1.5023327536	 0.0397781871	-0.489609
C	 0.0446290452	 0.0083524364	-0.0321986345	 0.317092
C	-0.0006720994	-0.7553487961	-1.1319471561	-0.189088
C	-0.0256739192	-2.2093461517	-0.8216104245	-0.153652
C	 0.0144235242	-2.2845741005	 0.708813279	-0.09115
C	 0.0905158184	-0.8488345727	 1.2239973536	-0.332811
C	-1.206423956	-2.7633424924	-0.0213753324	 0.399413
C	-2.5578193194	-2.0946383846	 0.0500589249	-0.459431
O	-1.2767958663	-4.1702405207	 0.0024676317	-0.466377
H	 0.902591757	 1.8821658427	 0.5861596783	 0.122887
H	 0.0288261295	 1.9537970037	-0.9562212294	 0.122193
H	-0.8542802061	 1.8712033935	 0.5772603149	 0.123396
H	-0.0396545479	-0.3693599425	-2.1454710617	 0.08334
H	 0.5134825328	-2.9204299645	-1.4391044904	 0.082567
H	 0.5910988201	-3.0581702466	 1.2012172138	 0.093795
H	 1.0167668225	-0.674645913	 1.7891299808	 0.104517
H	-0.731299348	-0.6015368847	 1.9106183747	 0.105481
H	-2.4823613936	-1.0079890815	-0.0123011178	 0.126011
H	-3.1918220147	-2.429480731	-0.7809248288	 0.102268
H	-3.0634324333	-2.3621715237	 0.9837780833	 0.12225
H	-1.737257743	-4.4523595737	-0.7960862166	 0.276908
121.5887	171.5565	193.4297	195.7967	252.9575	298.7376	305.0267	366.4093	396.8049	417.6043	455.3164	504.2074	628.2552	685.5413	729.661	843.7134	846.0944	859.0447	891.1017	944.0119	963.1363	992.2144	997.5541	1034.4682	1043.7747	1064.9895	1087.3153	1098.1048	1167.6258	1190.4081	1201.7708	1272.2857	1279.7286	1304.7366	1315.8841	1351.4372	1411.816	1414.6165	1433.4689	1476.5681	1477.9478	1489.634	1491.818	1499.3103	1701.7537	3004.0865	3012.9628	3023.9407	3027.6161	3055.1635	3084.629	3107.2804	3136.5364	3159.9433	3182.3492	3186.7789	3788.0114
CC1=CC2C(C1)C2(C)O	CC1=C[C@H]2[C@@H](C1)[C@]2(C)O	
InChI=1S/C8H12O/c1-5-3-6-7(4-5)8(6,2)9/h3,6-7,9H,4H2,1-2H3	InChI=1S/C8H12O/c1-5-3-6-7(4-5)8(6,2)9/h3,6-7,9H,4H2,1-2H3/t6-,7+,8+/m0/s1
