18
gdb 62238	3.57714	0.66037	0.57824	2.7601	74.62	-0.2622	-0.034	0.2283	1846.8295	0.144094	-439.097486	-439.087101	-439.086157	-439.134806	34.756	
C	-0.682039961	 1.7170070459	 0.1147072304	-0.399813
C	 0.1190884196	 0.424273604	-0.029938292	 0.001758
O	 1.0326779672	 0.3561515094	 1.0424788031	-0.240559
C	 1.9868028475	-0.6913001281	 0.9417832695	-0.081606
C	 2.9182464201	-0.5846310429	 2.1466934485	-0.281351
C	 3.8424018508	-1.7787832723	 2.2537130923	 0.150994
O	 5.0417681219	-1.7125102525	 2.3162885506	-0.228143
C	-0.7744055728	-0.7594669744	-0.0443063238	 0.263718
N	-1.4577936886	-1.6912939618	-0.0470015356	-0.32135
H	 0.0057698267	 2.5649961276	 0.0927355018	 0.139431
H	-1.4014714121	 1.8148787697	-0.7015029476	 0.141575
H	-1.2201096489	 1.7207887706	 1.06506579	 0.150519
H	 0.6599671479	 0.4279515459	-0.9903673884	 0.118402
H	 1.481410761	-1.6689763327	 0.9293458882	 0.121931
H	 2.5536805304	-0.5968603981	 0.0023574515	 0.110034
H	 3.512470213	 0.3311072823	 2.1114462615	 0.133321
H	 2.2932732146	-0.5618811242	 3.0501360818	 0.138992
H	 3.3203938927	-2.7638316785	 2.2795415182	 0.082145
45.2447	50.7992	66.0717	126.787	138.2506	192.9675	211.7163	273.5029	283.876	344.7022	445.4309	523.4441	574.5882	618.5222	789.2435	803.3404	872.6531	909.572	1004.3153	1045.1532	1094.663	1100.2743	1136.9178	1148.1129	1166.0482	1229.8209	1279.5734	1309.4357	1336.6748	1360.0557	1407.0729	1430.7743	1437.6543	1467.8607	1481.3871	1495.2072	1524.3549	1840.0137	2353.0379	2861.3769	2975.567	2980.3394	3015.6736	3031.1094	3059.4302	3119.5603	3142.5155	3145.2142
CC(OCCC=O)C#N	C[C@@H](OCCC=O)C#N	
InChI=1S/C6H9NO2/c1-6(5-7)9-4-2-3-8/h3,6H,2,4H2,1H3	InChI=1S/C6H9NO2/c1-6(5-7)9-4-2-3-8/h3,6H,2,4H2,1H3/t6-/m1/s1
