21
gdb 86116	2.64671	1.29909	0.92972	2.8044	85.14	-0.2329	-0.0096	0.2233	1308.9833	0.181956	-387.141877	-387.132598	-387.131654	-387.17585	35.032	
C	 0.0081081972	 1.5601968111	-0.0143083882	-0.397599
C	 0.1261511848	 0.0384218722	 0.0159846349	-0.091868
C	 0.8549395196	-0.5351133148	-1.2197373512	-0.298535
C	 1.1092208682	-2.0234095106	-1.1352295674	 0.305205
C	 1.3548981413	-2.7316302271	-2.4395258053	-0.477684
C	 1.1271396733	-2.6584647698	 0.0388193315	-0.141845
C	 0.9423288231	-1.9849578096	 1.3733715961	-0.359881
C	 0.807127816	-0.4699086876	 1.2808103421	 0.384888
O	 1.2071025199	 0.2636078501	 2.155035293	-0.315561
H	 0.9976337249	 2.0263212854	 0.0034548794	 0.126803
H	-0.5125743144	 1.8893149207	-0.9190685343	 0.105585
H	-0.539346301	 1.9293143084	 0.8560410279	 0.126999
H	-0.8786985902	-0.4120927375	 0.0211622464	 0.095286
H	 0.2641484734	-0.3091023179	-2.1166562863	 0.105447
H	 1.8095852319	-0.0053738882	-1.3606685058	 0.116952
H	 2.20146036	-2.2843597299	-2.9766366588	 0.12534
H	 1.5707981231	-3.7927731444	-2.2905873196	 0.122037
H	 0.4870693029	-2.6482752798	-3.1064486781	 0.123231
H	 1.3116892738	-3.7304214505	 0.0646561457	 0.08288
H	 0.0374261807	-2.367214738	 1.8727784939	 0.130812
H	 1.7687980614	-2.2080612122	 2.057843604	 0.131507
67.4454	113.0594	186.0595	198.4548	249.3161	259.2032	277.3644	355.9367	412.9781	419.2946	477.6866	551.1189	577.7588	711.672	733.1567	798.407	863.2596	903.2378	934.9311	938.7104	987.2614	1043.9838	1057.5199	1075.4757	1093.8693	1144.5573	1152.9056	1175.6348	1204.9536	1222.6039	1301.0856	1317.0525	1334.6081	1372.8907	1394.0124	1413.357	1414.6998	1449.0698	1477.5541	1482.4479	1490.6402	1492.3827	1494.9077	1744.674	1814.0956	2985.5714	2989.6458	2998.8208	3015.161	3037.8065	3044.1863	3060.1696	3060.5105	3112.4092	3112.9354	3125.7243	3145.2047
CC1CC(C)=CCC1=O	C[C@H]1CC(=CCC1=O)C	
InChI=1S/C8H12O/c1-6-3-4-8(9)7(2)5-6/h3,7H,4-5H2,1-2H3	InChI=1S/C8H12O/c1-6-3-4-8(9)7(2)5-6/h3,7H,4-5H2,1-2H3/t7-/m0/s1
