19
gdb 57709	3.50665	0.81369	0.7751	1.8912	78.99	-0.2778	0.0067	0.2845	1522.777	0.156781	-419.223972	-419.213422	-419.212478	-419.261679	36.412	
C	-0.0257753713	 1.5521799221	 0.0132946974	-0.408785
C	-0.0239244416	 0.0074487931	 0.0360686341	 0.055103
C	 0.7444601846	-0.5218931243	 1.267341235	-0.40885
C	-1.4706895664	-0.5340416246	 0.0289803332	-0.079124
O	-2.1107310198	-0.058569523	 1.2080505341	-0.19608
C	-3.3939155457	-0.4372209843	 1.3915456852	 0.129645
N	-4.0192945234	-0.0476932089	 2.4141368877	-0.433466
C	 0.6171943444	-0.4956221029	-1.1897291754	 0.258445
N	 1.1127104164	-0.8949937962	-2.1544891427	-0.33438
H	 0.9974017822	 1.9352583508	 0.0090202233	 0.135333
H	-0.5373484087	 1.9320521357	-0.8753737415	 0.131556
H	-0.5414640752	 1.9251928383	 0.9002470127	 0.152504
H	 0.2426857462	-0.1864803073	 2.176999954	 0.152434
H	 0.7799581617	-1.6148205735	 1.2691522923	 0.131488
H	 1.7704136586	-0.1462951991	 1.267701709	 0.135375
H	-1.999429762	-0.1781730608	-0.8642995825	 0.125184
H	-1.4598716304	-1.6312314376	 0.0142696073	 0.125045
H	-3.7812109269	-1.0796665505	 0.5890842806	 0.093736
H	-4.9675727427	-0.4174252268	 2.404915976	 0.234838
9.27	70.8352	106.5297	146.973	190.1001	194.0982	224.9004	252.8681	302.0744	355.9538	365.7151	428.9715	560.0729	579.2976	650.9351	738.1232	823.7301	896.7452	933.2075	971.1722	986.8232	1027.2056	1043.9124	1051.7373	1142.5283	1185.2866	1231.2093	1237.4648	1293.2042	1301.5744	1397.2945	1397.9765	1419.6495	1434.9481	1483.1061	1487.9067	1496.8318	1507.7092	1515.8493	1750.8252	2355.5995	3009.6275	3030.3137	3050.8408	3053.9702	3061.8529	3124.7687	3127.1728	3142.5223	3145.6398	3522.0178
CC(C)(COC=N)C#N	CC(C)(CO[CH][NH])C#N	
InChI=1S/C6H10N2O/c1-6(2,3-7)4-9-5-8/h5,8H,4H2,1-2H3	InChI=1S/C6H10N2O/c1-6(2,3-7)4-9-5-8/h5,8H,4H2,1-2H3
