19
gdb 86886	2.89109	1.20335	0.9955	2.8579	75.66	-0.246	0.0284	0.2745	1225.9515	0.160099	-419.22132	-419.212157	-419.211213	-419.255976	33.774	
C	-0.2296425545	 1.5380919439	-0.0104278376	-0.402031
C	 0.1003237503	 0.0547744143	 0.080040146	 0.033232
N	 0.9576008624	-0.3867105973	-1.0321103394	-0.290605
C	 1.434932498	-1.7202332834	-0.6813974248	-0.124462
C	 1.7740064012	-1.5722448851	 0.8256398803	-0.253338
C	 0.9153792515	-0.3732310491	 1.3227934618	 0.133137
O	 1.7174715891	 0.7140888634	 1.7566059409	-0.425727
C	 0.4253884946	-2.7812031786	-0.91151245	 0.253741
N	-0.3838253574	-3.5810755478	-1.1199651796	-0.332236
H	 0.6840509025	 2.1334753823	-0.0189224833	 0.144343
H	-0.7981857633	 1.7466607369	-0.9227943491	 0.107922
H	-0.8402449798	 1.8487674496	 0.8423098849	 0.118781
H	-0.8407230527	-0.5226746553	 0.1059626197	 0.078546
H	 0.4751822667	-0.3699428208	-1.9242923252	 0.23059
H	 2.3196082419	-1.9804994885	-1.2710824484	 0.124495
H	 1.5916083738	-2.4954191874	 1.3779220676	 0.12278
H	 2.8276608247	-1.3046006841	 0.9281180018	 0.121
H	 0.2326757404	-0.6795662794	 2.1255207008	 0.073489
H	 2.1532027905	 0.4559290863	 2.5742719235	 0.286343
29.5928	98.1923	174.0116	217.4181	243.811	261.8915	277.8326	359.5829	393.8715	466.9379	521.6499	592.7184	662.0292	742.9995	783.9305	816.5124	833.0256	897.9826	946.3356	989.5071	1012.7744	1024.9262	1075.4848	1131.6158	1142.4239	1162.0715	1218.6561	1235.2479	1243.4534	1304.4831	1327.2265	1350.0162	1365.7832	1389.8158	1410.4789	1421.7332	1449.5707	1475.7548	1491.5127	1498.0039	2338.9585	2938.1753	3017.4684	3044.9147	3058.7482	3079.5272	3107.9196	3133.6603	3149.582	3537.9205	3827.4421
CC1NC(CC1O)C#N	C[C@H]1N[C@@H](C[C@H]1O)C#N	
InChI=1S/C6H10N2O/c1-4-6(9)2-5(3-7)8-4/h4-6,8-9H,2H2,1H3	InChI=1S/C6H10N2O/c1-4-6(9)2-5(3-7)8-4/h4-6,8-9H,2H2,1H3/t4-,5+,6-/m1/s1
