24
gdb 14995	3.80739	1.28075	1.03729	0.0331	85.13	-0.2852	0.0864	0.3717	1239.6055	0.225971	-314.307207	-314.298651	-314.297707	-314.339993	33.54	
C	 0.1053688222	 1.5710871182	 0.0534713943	-0.391083
C	 0.0056235118	 0.0425774478	 0.0038992033	-0.179946
C	-1.4282294645	-0.5135289438	-0.018879118	 0.063594
C	-2.2016580491	-0.1202130203	-1.2905483912	-0.18332
C	-3.6214068368	-0.7067730654	-1.312402761	-0.196271
C	-3.6061027571	-2.2315279757	-1.1420936185	-0.175535
C	-2.8446582244	-2.6370321961	 0.1267810297	-0.199144
C	-1.4282532594	-2.0444385809	 0.1442265114	-0.190152
H	 1.1488198812	 1.892771387	 0.1309754693	 0.109657
H	-0.3144579954	 2.0398838406	-0.8417461267	 0.117869
H	-0.4305965614	 1.973892632	 0.9206100705	 0.111384
H	 0.5472688263	-0.3317997059	-0.8761390778	 0.089692
H	 0.5257564039	-0.3747075553	 0.876178018	 0.087782
H	-1.966252353	-0.0875853074	 0.8436012169	 0.060763
H	-2.2523647734	 0.9696922735	-1.3862399963	 0.088787
H	-1.6453594378	-0.483126743	-2.1678631931	 0.086251
H	-4.2083164946	-0.259016118	-0.4980042675	 0.089948
H	-4.1278843786	-0.4320543812	-2.2449123173	 0.08644
H	-4.6294372955	-2.6231108804	-1.1145570497	 0.0862
H	-3.1208913436	-2.6880851006	-2.0162813588	 0.089353
H	-3.3960093064	-2.2802929334	 1.0081445409	 0.089541
H	-2.7978871051	-3.7288691024	 0.2121960495	 0.086625
H	-0.8403180264	-2.4877961283	-0.6732602831	 0.087089
H	-0.9153292229	-2.3180694709	 1.0744942851	 0.084477
83.8344	128.7887	216.1971	223.271	242.1485	324.633	359.7083	422.8255	442.4304	453.9405	532.7162	757.2856	791.9013	800.143	846.3186	882.4167	897.0611	921.0178	925.7346	1000.7966	1021.3964	1041.9321	1044.8597	1073.811	1096.3039	1110.8981	1126.6778	1188.5997	1212.0434	1261.6982	1285.7855	1288.5271	1307.0596	1318.507	1343.3654	1367.3293	1372.6981	1379.5693	1380.7931	1387.4665	1400.1974	1412.9014	1478.1914	1483.8447	1485.5636	1488.6678	1491.2925	1501.0453	1505.3537	1509.8446	2970.1522	2996.4492	3000.6195	3006.3969	3008.915	3009.9847	3013.2667	3031.9215	3038.9033	3049.227	3056.1119	3057.4218	3061.6425	3065.9496	3095.885	3107.552
CCC1CCCCC1	CCC1CCCCC1	
InChI=1S/C8H16/c1-2-8-6-4-3-5-7-8/h8H,2-7H2,1H3	InChI=1S/C8H16/c1-2-8-6-4-3-5-7-8/h8H,2-7H2,1H3
