18
gdb 10833	4.57281	1.51168	1.20233	3.0901	69.94	-0.2291	0.0205	0.2496	1009.8008	0.155917	-381.130061	-381.122355	-381.121411	-381.162063	29.134	
C	-0.125086215	 1.5314124499	 0.0159387518	-0.411197
C	 0.0131289931	 0.0118590238	 0.0087111184	 0.032175
C	 0.7441962647	-0.4756001563	-1.2414360701	-0.071824
O	 0.9946093942	-1.8903148017	-1.240047635	-0.253549
C	 1.3557621083	-2.508374744	-0.0761445998	 0.371219
N	 2.0152184952	-3.5883284183	-0.0723104507	-0.504871
C	 0.82849792	-1.9070853616	 1.2135937128	-0.245539
N	 0.6917337043	-0.4517162704	 1.2211348045	-0.295099
H	 0.8588567242	 2.0154547053	-0.0006819232	 0.115724
H	-0.6850802241	 1.883382275	-0.8556861372	 0.121548
H	-0.6453023116	 1.8548865852	 0.9205404591	 0.135693
H	-0.9884495836	-0.4412728692	 0.0187602945	 0.091086
H	 0.1684371853	-0.284502665	-2.1520540036	 0.116384
H	 1.7076696171	 0.0495879141	-1.3310377606	 0.097548
H	 2.2406110304	-3.8637881581	-1.0314842379	 0.216203
H	-0.1658732642	-2.3404990817	 1.3916475925	 0.131832
H	 1.4701080089	-2.2348306568	 2.0326171693	 0.137154
H	 1.6137417128	-0.0233825202	 1.2699439354	 0.215511
78.9094	169.8424	212.873	233.0501	292.0869	400.0618	428.2166	463.4739	499.8184	550.5565	717.9541	771.0381	830.4547	869.579	914.0685	922.0132	954.1465	998.7853	1025.9002	1090.2432	1137.7119	1145.0756	1156.4106	1180.6436	1253.4746	1298.7512	1309.3101	1349.7045	1350.4404	1385.3278	1410.4718	1430.2061	1464.2994	1478.1071	1494.3042	1499.9793	1507.3928	1749.4073	2986.9358	3011.5398	3016.2421	3034.0365	3081.9685	3101.2145	3125.5143	3127.801	3449.9132	3480.3891
CC1COC(=N)CN1	C[C@H]1CO[C]([NH])CN1	
InChI=1S/C5H10N2O/c1-4-3-8-5(6)2-7-4/h4,6-7H,2-3H2,1H3	InChI=1S/C5H10N2O/c1-4-3-8-5(6)2-7-4/h4,6-7H,2-3H2,1H3/t4-/m0/s1
