23
gdb 89455	2.10264	1.5692	1.41226	1.1948	85.23	-0.242	0.0774	0.3194	1121.5601	0.204393	-388.275544	-388.265945	-388.265	-388.309403	37.542	
C	-0.4928676089	 1.4154290751	 0.2216418231	-0.496969
C	-0.0016834062	-0.0007997131	 0.019164893	 0.342156
C	 1.1781113364	-0.2537426256	-0.9491051618	-0.275445
C	 1.7866314292	-1.2714072472	 0.0581763139	-0.286121
C	 0.7340399695	-0.8623635545	 1.1356844824	 0.316885
C	 1.2637934644	-0.3130451708	 2.4409404955	-0.493815
C	-0.4631920027	-1.8412711956	 1.172464584	 0.079739
O	-1.2042879736	-1.6618088528	 2.3673666624	-0.442405
C	-1.0889179158	-1.1176747369	-0.0575639297	-0.324516
H	 0.3340402246	 2.1006296981	 0.440525098	 0.110186
H	-0.999165567	 1.7874348743	-0.6785122947	 0.111634
H	-1.2062630135	 1.4736524317	 1.0510199124	 0.119221
H	 0.9244667347	-0.6253237095	-1.9470505081	 0.088847
H	 1.808089233	 0.6332128603	-1.0673087345	 0.09443
H	 1.7243635981	-2.3193090141	-0.2523930669	 0.093248
H	 2.8210441966	-1.0684651553	 0.3462324649	 0.098212
H	 1.9613881993	 0.5133332521	 2.2625363672	 0.103997
H	 0.4540299396	 0.0471462414	 3.0796776764	 0.132025
H	 1.8065244466	-1.0872002796	 2.9974168289	 0.112891
H	-0.2061929322	-2.9023974421	 1.0316170411	 0.052173
H	-2.0476295835	-2.1138502995	 2.2616313799	 0.280259
H	-2.1047053879	-0.7650643427	 0.1436085287	 0.092346
H	-1.094404911	-1.6920028637	-0.9889930062	 0.091023
51.3589	189.1108	202.2103	212.5947	228.1817	272.4571	289.3125	328.9069	344.2976	405.8772	423.693	463.8119	575.7927	654.9124	690.0225	751.0843	822.6307	849.4257	877.1965	908.8958	936.9399	958.3276	964.0393	982.0699	1038.0565	1055.4961	1113.5936	1127.8806	1164.6922	1197.4171	1208.5796	1224.4645	1245.672	1246.0852	1251.0146	1268.2957	1286.6137	1323.2133	1341.6099	1401.442	1408.2498	1417.5103	1463.6622	1475.9178	1484.9983	1491.8431	1494.3753	1495.7045	1500.7625	2972.5856	3014.6652	3022.8777	3038.188	3043.7184	3048.7125	3075.8174	3079.1584	3082.3758	3091.48	3099.7536	3105.0766	3121.6942	3811.7919
CC12CCC1(C)C(O)C2	C[C@@]12CC[C@]1(C)[C@@H](O)C2	
InChI=1S/C8H14O/c1-7-3-4-8(7,2)6(9)5-7/h6,9H,3-5H2,1-2H3	InChI=1S/C8H14O/c1-7-3-4-8(7,2)6(9)5-7/h6,9H,3-5H2,1-2H3/t6-,7-,8+/m0/s1
