21
gdb 95861	2.82409	1.15076	0.8632	4.2312	84.16	-0.2276	0.0404	0.268	1356.9396	0.184821	-383.297146	-383.288414	-383.287469	-383.33037	33.426	
C	-0.0049133844	 1.4590554989	-0.0040291113	-0.32319
N	-0.0077434835	 0.0055287742	 0.0247648188	-0.065313
C	-1.3551539548	-0.5436844677	-0.1019148241	-0.131435
C	-1.3134021338	-2.0678171156	-0.2317299348	-0.22396
C	-0.5692299525	-2.7015025382	 0.9476517414	-0.197692
C	 0.8204155429	-2.0446487687	 1.0986848833	-0.156294
C	 0.6801076481	-0.5102590018	 1.1979888907	-0.140883
C	 1.5427587636	-2.5733843336	 2.255487867	 0.26149
N	 2.1066487606	-2.9870944658	 3.1758402957	-0.325015
H	 1.0244473856	 1.8295080014	 0.0279228768	 0.121599
H	-0.4638910073	 1.8093176041	-0.9337034489	 0.121309
H	-0.5570792898	 1.9133563086	 0.8405205398	 0.096873
H	-1.9879795317	-0.2630830058	 0.7656692849	 0.076967
H	-1.8219024678	-0.1038993232	-0.9896490794	 0.102239
H	-2.3333891065	-2.4617375724	-0.2871276742	 0.102904
H	-0.8102890462	-2.3303128022	-1.169888685	 0.108595
H	-1.1333216072	-2.5470356576	 1.8756040915	 0.115601
H	-0.4621892142	-3.7818744508	 0.8141535443	 0.116416
H	 1.4139896398	-2.2653226072	 0.2027341218	 0.129885
H	 1.6728136922	-0.0533378984	 1.2550699535	 0.117837
H	 0.1524437866	-0.2608425782	 2.1405073083	 0.092065
112.9866	136.8969	157.1051	234.146	260.5152	309.7277	366.0014	376.5517	412.1601	432.1379	531.5897	544.621	562.242	794.1477	852.1859	872.2159	914.366	957.7785	971.9912	1020.7599	1050.6511	1080.9066	1101.3825	1114.0407	1159.549	1168.2331	1192.0899	1225.7241	1273.0935	1293.4547	1313.5816	1323.2243	1340.4207	1359.5522	1381.7049	1399.7748	1414.8834	1462.047	1480.907	1485.0597	1490.4103	1493.7875	1509.0373	1513.4427	2357.0569	2889.2059	2905.9977	2932.3944	3033.1384	3036.2311	3043.0631	3060.8177	3064.3629	3074.8817	3083.6053	3092.9404	3106.0796
CN1CCCC(C1)C#N	CN1CCC[C@@H](C1)C#N	
InChI=1S/C7H12N2/c1-9-4-2-3-7(5-8)6-9/h7H,2-4,6H2,1H3	InChI=1S/C7H12N2/c1-9-4-2-3-7(5-8)6-9/h7H,2-4,6H2,1H3/t7-/m1/s1
