15
gdb 132988	2.44837	1.80176	1.04466	4.7089	72.24	-0.2137	-0.0352	0.1785	1063.2008	0.113125	-461.976537	-461.968821	-461.967877	-462.008999	28.725	
C	-0.0136479044	 1.4506419221	 0.0080017779	-0.334621
N	 0.0060046544	-0.0097948703	-0.0283409317	-0.139259
C	-0.1000299598	-0.6905246846	-1.2090953544	 0.035532
C	-0.0826699592	-2.0487869371	-1.2518319432	-0.192823
C	 0.0493440425	-2.7690294928	-0.0335858031	-0.193444
C	 0.1543186081	-2.0902174425	 1.1361083224	 0.132978
F	 0.279208509	-2.7275305793	 2.2956626737	-0.056087
C	 0.1401760123	-0.6389067732	 1.2262729027	 0.338833
O	 0.231233608	 0.0171443709	 2.2516135404	-0.407309
H	 0.9102356083	 1.8253364849	 0.4545109647	 0.159821
H	-0.1200792085	 1.831622636	-1.0078265894	 0.128607
H	-0.8436567631	 1.7974343638	 0.6277999329	 0.15981
H	-0.1975566677	-0.077560313	-2.0960907525	 0.130607
H	-0.1681553031	-2.5638093368	-2.1983531108	 0.113811
H	 0.0678038731	-3.853265898	-0.0211909996	 0.123545
89.0315	125.087	212.295	289.0573	305.7184	340.9276	476.7669	487.9021	516.3911	570.1979	588.6478	709.287	750.6752	778.0513	873.9694	908.2394	931.7607	993.8385	1052.6882	1112.0486	1153.7377	1187.6887	1235.3501	1291.1784	1341.3532	1397.431	1447.27	1466.6619	1485.1278	1515.638	1600.5634	1679.1376	1760.6396	3059.7387	3127.1138	3156.7172	3194.7155	3208.9944	3234.4206
CN1C=CC=C(F)C1=O	Cn1cccc(F)c1=O	
InChI=1S/C6H6FNO/c1-8-4-2-3-5(7)6(8)9/h2-4H,1H3	InChI=1S/C6H6FNO/c1-8-4-2-3-5(7)6(8)9/h2-4H,1H3
