20
gdb 71941	2.71751	1.96452	1.46938	0.7557	77.2	-0.2137	0.0654	0.279	962.374	0.172872	-403.118526	-403.111173	-403.110229	-403.150044	30.006	
C	 0.024717078	 1.541111003	 0.2952841925	-0.461592
C	-0.0221897303	 0.0806917024	-0.099688675	 0.442981
C	 0.6633542646	-0.2867101123	-1.4291182673	-0.280878
C	-0.2540307338	-1.3755263131	-2.0675888118	-0.17675
N	-1.235668548	-1.7965051228	-1.0578111566	-0.101998
C	-0.714947432	-2.6984734893	 0.024905403	-0.194999
C	-0.7502149334	-1.5345027501	 1.0318570903	 0.10095
O	 0.4661906431	-0.7660812719	 0.9987394871	-0.346216
C	-1.375501842	-0.6789796664	-0.0858753367	-0.127863
H	 1.0604399628	 1.8612170393	 0.4499427387	 0.128476
H	-0.4143930539	 2.1683815397	-0.4878389437	 0.115157
H	-0.5230816825	 1.7090628174	 1.2270319691	 0.121291
H	 0.763405315	 0.5840978242	-2.0841279827	 0.097202
H	 1.6689802935	-0.6577430814	-1.2150267938	 0.116561
H	-0.7921929907	-0.9539945228	-2.9247477023	 0.10321
H	 0.2976993739	-2.2461562071	-2.4329710292	 0.107773
H	-1.4206724914	-3.5105654753	 0.2322311684	 0.103585
H	 0.2831176582	-3.1171887852	-0.1445766158	 0.104149
H	-1.1261487741	-1.6869017841	 2.0449478359	 0.078831
H	-2.3213119469	-0.135723954	-0.07401259	 0.070129
95.562	220.9479	243.628	302.594	361.9721	381.0516	441.5455	562.4339	629.2938	673.2149	746.4197	789.9596	831.8549	865.3291	876.0382	895.0502	916.0614	952.4079	960.837	977.7907	1005.101	1039.5651	1055.9721	1089.8566	1155.514	1165.6367	1193.797	1211.3535	1215.083	1231.5281	1244.1983	1258.9111	1283.7691	1310.3506	1319.436	1335.1121	1359.9982	1406.7515	1477.1402	1481.1763	1486.4657	1493.1275	1504.8427	3025.1695	3031.9796	3032.9718	3057.4816	3078.4883	3086.6785	3091.3639	3103.0905	3104.4285	3109.0344	3112.6069
CC12CCN3CC(O1)C23	C[C@@]12CCN3C[C@@H](O1)[C@@H]23	
InChI=1S/C7H11NO/c1-7-2-3-8-4-5(9-7)6(7)8/h5-6H,2-4H2,1H3	InChI=1S/C7H11NO/c1-7-2-3-8-4-5(9-7)6(7)8/h5-6H,2-4H2,1H3/t5-,6+,7+/m1/s1
