25
gdb 103590	2.66224	1.09355	0.94008	1.4271	88.75	-0.256	0.066	0.322	1409.489	0.226571	-389.49121	-389.480445	-389.479501	-389.526629	41.261	
C	 0.6596493966	 1.3420231508	-0.5196477779	-0.44483
C	 0.2349973568	-0.0825485263	-0.8780208327	 0.380636
C	-1.1607746468	-0.0843097411	-1.5004173926	-0.442663
C	 1.3028517313	-0.8700062174	-1.7087248265	-0.337021
C	 1.5314865584	-1.8502415911	-0.5155896797	 0.359878
C	 1.2346099242	-3.3169725994	-0.8234316492	-0.47382
C	 2.9249628516	-1.689815768	 0.1006512199	-0.120765
O	 3.062680772	-2.3103798192	 1.3699533026	-0.424602
C	 0.4184328034	-1.1091913104	 0.2879126577	-0.323
H	 1.6578057723	 1.36540648	-0.0701292874	 0.112375
H	 0.6802092922	 1.982543638	-1.4094925139	 0.108738
H	-0.0367426296	 1.7901155992	 0.1989952662	 0.111053
H	-1.1863166362	 0.5226292969	-2.4134086176	 0.109132
H	-1.4800254372	-1.0979016399	-1.7659210081	 0.106476
H	-1.902829056	 0.3265262272	-0.8054667917	 0.110525
H	 0.9027758235	-1.3494992489	-2.6069806894	 0.088259
H	 2.1833674131	-0.287537544	-2.0008058468	 0.08851
H	 1.975589839	-3.7377885344	-1.5147827125	 0.109777
H	 1.2330418773	-3.9258088681	 0.0892362086	 0.106045
H	 0.2485861276	-3.4333921234	-1.2841045107	 0.116755
H	 3.6842518613	-2.0580559112	-0.6102686504	 0.081265
H	 3.1351453998	-0.6289084431	 0.2736023944	 0.104961
H	 3.0170592903	-3.2624802846	 1.2421494399	 0.283771
H	 0.754822388	-0.6868507659	 1.2385359137	 0.102839
H	-0.4686446629	-1.7187670655	 0.4844792541	 0.085707
38.8209	106.4785	173.7048	233.5151	236.9722	257.5322	274.9788	285.0193	303.6868	309.4752	356.1895	378.5505	403.923	442.9325	491.8893	614.0792	728.5877	850.3772	866.0115	879.9608	885.6471	904.4926	945.3897	958.9674	968.1147	991.9633	1002.4385	1030.144	1076.5624	1110.4152	1134.3695	1161.9918	1205.6703	1223.8919	1243.8576	1282.3431	1294.7815	1305.0823	1329.5506	1376.4065	1399.6759	1407.6383	1417.8352	1421.0925	1477.1892	1482.105	1486.2763	1490.7269	1492.2644	1498.353	1503.8882	1505.9283	1509.0522	2960.4935	3012.6955	3014.9197	3019.8374	3037.9421	3049.2752	3067.9214	3074.0585	3079.7026	3085.4867	3085.9273	3089.9498	3093.2434	3094.4481	3101.8851	3828.4503
CC1(C)CC(C)(CO)C1	CC1(C)CC(C)(CO)C1	
InChI=1S/C8H16O/c1-7(2)4-8(3,5-7)6-9/h9H,4-6H2,1-3H3	InChI=1S/C8H16O/c1-7(2)4-8(3,5-7)6-9/h9H,4-6H2,1-3H3
