17
gdb 46849	2.59541	1.80986	1.16328	4.3077	74.28	-0.2427	-0.0646	0.1781	1030.8596	0.13801	-418.011064	-418.00363	-418.002686	-418.043079	28.935	
N	 0.0158924631	 0.9409004147	-0.9419853138	-0.476298
C	 0.056886689	-0.0933149128	-0.2033452332	 0.222101
N	-1.0962342779	-0.7613006529	 0.2136596583	-0.0851
C	-1.9398890499	-1.497094299	-0.7212075758	-0.250742
C	-1.0893871836	-2.2208461604	 0.2734279575	-0.00644
C	 0.2241846032	-2.886433962	-0.0865085198	-0.26118
C	 1.3414595475	-2.1608853697	 0.6897525849	-0.309164
C	 1.3797398313	-0.6911225821	 0.2934269607	 0.351564
O	 2.3904524714	-0.0309589751	 0.2756684931	-0.304293
H	 0.971318896	 1.2945913242	-1.0432797204	 0.240178
H	-3.0098258192	-1.4056204435	-0.560344277	 0.13141
H	-1.6281774231	-1.5027693517	-1.7625740451	 0.133857
H	-1.5773680741	-2.6151372834	 1.1638689794	 0.104532
H	 0.2040129266	-3.9514793985	 0.1598713886	 0.11909
H	 0.4143088193	-2.8102727522	-1.1635113457	 0.119527
H	 1.1413268495	-2.2199023545	 1.7684267988	 0.138301
H	 2.3333541608	-2.5877611912	 0.5214623994	 0.132659
76.24	165.1184	241.9293	318.3786	367.6041	437.008	452.5156	476.2934	523.2442	601.9525	670.1498	748.2392	796.3507	894.2722	906.2255	913.5769	940.7068	950.4156	1001.1051	1063.4784	1083.1241	1126.8868	1135.2499	1144.5985	1168.8707	1212.4292	1240.2964	1297.3393	1327.766	1344.7894	1408.9482	1427.2024	1457.6776	1490.8688	1509.3536	1694.2795	1815.2309	3026.8124	3043.0546	3092.7582	3105.4197	3113.9773	3117.5483	3204.2732	3445.9088
N=C1N2CC2CCC1=O	[NH][C]1N2C[C@H]2CCC1=O	
InChI=1S/C6H8N2O/c7-6-5(9)2-1-4-3-8(4)6/h4,7H,1-3H2	InChI=1S/C6H8N2O/c7-6-5(9)2-1-4-3-8(4)6/h4,7H,1-3H2/t4-,8?/m1/s1
