18
gdb 28206	4.63807	1.19498	0.96876	0.5737	80.75	-0.164	0.0603	0.2243	1218.5435	0.149652	-401.981405	-401.973246	-401.972302	-402.014178	30.609	
C	 0.0402015397	 1.4897340709	 0.1034097806	-0.500449
C	 0.0230314212	 0.0067266008	-0.0520871008	 0.324307
C	-0.0542773188	-0.785989556	-1.1787683125	-0.419506
C	-0.0682723257	-2.1475096644	-0.7462478855	 0.204229
C	 0.0110849205	-2.1159179472	 0.608852575	 0.420419
N	 0.0700383537	-0.8391348823	 1.0656480724	-0.445028
O	 0.0705964783	-3.287397379	 1.2840511048	-0.294243
C	-0.1717063489	-4.2864446879	 0.240633037	-0.089632
C	-0.0334579505	-3.5939949034	-1.1599434381	-0.37366
H	 0.9412300667	 1.8487159961	 0.6188818813	 0.119765
H	 0.0193287172	 1.9600262554	-0.8827528312	 0.135173
H	-0.8253815531	 1.8675915354	 0.6646352467	 0.119878
H	-0.1033413917	-0.4083540662	-2.1894322687	 0.087719
H	 0.1092876227	-0.5449856874	 2.025606805	 0.2603
H	 0.5417376689	-5.0969807611	 0.4008848988	 0.117829
H	-1.1863897857	-4.670032633	 0.3902588236	 0.1157
H	-0.8506270136	-3.9071125339	-1.8189621931	 0.108864
H	 0.9041684491	-3.8771616268	-1.6568186554	 0.108333
97.2763	125.685	149.029	232.5695	266.04	290.1872	390.956	471.192	535.7361	622.7331	678.3229	700.9673	734.3763	787.2519	817.5335	846.331	930.9813	972.733	981.1499	1009.3766	1061.0915	1074.6886	1129.587	1166.3083	1201.7845	1230.9256	1245.7828	1286.4268	1366.0273	1371.9525	1409.1026	1432.0261	1476.6195	1495.9093	1499.2231	1513.5967	1560.3296	1570.271	1660.1854	3001.651	3006.4674	3039.7482	3040.8336	3056.5116	3114.9718	3116.3733	3237.4493	3683.458
CC1=CC2=C(N1)OCC2	Cc1cc2c([nH]1)OCC2	
InChI=1S/C7H9NO/c1-5-4-6-2-3-9-7(6)8-5/h4,8H,2-3H2,1H3	InChI=1S/C7H9NO/c1-5-4-6-2-3-9-7(6)8-5/h4,8H,2-3H2,1H3
