18
gdb 32409	3.11396	1.16296	0.85966	0.9996	75.42	-0.2038	0.0323	0.2361	1316.6503	0.146564	-439.107937	-439.098088	-439.097144	-439.143544	34.642	
C	 0.0629560778	 1.5852387418	 0.0757110587	-0.515037
C	 0.0005849496	 0.0913492521	 0.0415617716	 0.133191
C	-0.0702028994	-0.6907783394	-1.0713591271	 0.198067
N	-0.1032285415	-0.3447899757	-2.4263944549	-0.592624
O	-0.1123508601	-2.0188632368	-0.7186471607	-0.176779
C	-0.0669863423	-2.0662941533	 0.6406026076	-0.109975
C	 0.0024403228	-0.815590682	 1.1631312293	 0.177244
C	 0.0676794226	-0.4530695577	 2.6106019728	-0.192608
O	 0.0456115407	-1.6452574716	 3.3796206113	-0.41836
H	 0.9769038325	 1.943280561	 0.565506741	 0.1206
H	 0.0439359606	 1.983717323	-0.9412716515	 0.141347
H	-0.7825665696	 2.0153233334	 0.6266330052	 0.120599
H	-0.9520740328	-0.6693677347	-2.8804201949	 0.244045
H	 0.6821718124	-0.7371175865	-2.9375196709	 0.244044
H	-0.091308827	-3.0436122188	 1.0901647085	 0.143983
H	 0.9828314724	 0.1314601643	 2.8090364191	 0.096323
H	-0.7806645622	 0.2037082015	 2.8704264902	 0.096321
H	 0.0878130236	-1.4021332106	 4.3084069746	 0.289619
44.1157	57.0691	145.0579	160.4488	187.3336	233.4264	252.5973	283.9955	326.7671	358.0821	504.3356	611.4347	623.4131	666.5207	743.2787	759.009	759.5845	802.2143	940.598	1042.6008	1061.977	1071.6573	1092.9817	1147.7461	1163.5749	1215.278	1218.7666	1244.5557	1271.5121	1293.9124	1401.1671	1422.1006	1477.3412	1490.1537	1492.2385	1515.942	1611.2127	1653.3295	1707.9382	2944.4986	2956.8551	3019.9077	3063.7911	3123.4457	3292.5796	3486.898	3549.6133	3841.5039
CC1=C(N)OC=C1CO	Cc1c(N)occ1CO	
InChI=1S/C6H9NO2/c1-4-5(2-8)3-9-6(4)7/h3,8H,2,7H2,1H3	InChI=1S/C6H9NO2/c1-4-5(2-8)3-9-6(4)7/h3,8H,2,7H2,1H3
