18
gdb 31999	3.68715	1.2954	0.97932	1.0592	81.46	-0.1748	0.0598	0.2346	1204.4424	0.149013	-401.936405	-401.928246	-401.927302	-401.969613	30.234	
C	-0.3925683746	 0.6893093569	-0.7588804209	-0.242529
O	 0.3851691772	 1.1059900094	 0.3490541049	-0.259198
C	 1.0270976267	 0.1085225477	 0.9963547251	 0.363861
C	 1.1057824702	-1.2631850954	 0.8061013145	-0.297829
C	 1.9501920735	-1.8197478777	 1.8349614724	-0.312382
C	 2.3784586716	-0.7499100058	 2.573121349	 0.307309
C	 2.8865608578	-0.0345691892	 3.8157514052	-0.366504
C	 2.1537701165	 1.2310918214	 3.2266657467	-0.172095
N	 1.8433802495	 0.403724423	 2.0467434805	-0.079213
H	-1.1672805383	-0.0252387618	-0.4517956218	 0.124468
H	-0.8621242452	 1.5864886369	-1.1648684511	 0.132231
H	 0.2350575106	 0.2218682968	-1.5287472381	 0.124408
H	 0.6502320105	-1.8124476782	-0.0026912024	 0.092156
H	 2.1796696631	-2.8650175599	 1.9705376408	 0.091935
H	 2.4824541151	-0.3817473714	 4.7702067923	 0.122076
H	 3.9711309818	 0.0715253778	 3.9091266756	 0.119099
H	 1.267370228	 1.5400531882	 3.7875890647	 0.128395
H	 2.7743892561	 2.1035252512	 3.0066642026	 0.123813
68.0668	100.1221	185.2624	199.5873	223.7163	334.2016	363.6022	562.5105	620.9817	637.9666	651.2684	724.0951	753.6356	775.9299	805.486	829.2739	904.2034	1023.2372	1031.2745	1050.9754	1092.1198	1138.0154	1170.5538	1183.4184	1185.7359	1211.3133	1223.9888	1250.4376	1268.0501	1307.0475	1390.491	1463.7976	1464.2686	1483.2254	1490.8816	1510.5138	1520.127	1577.5496	1600.1093	3005.17	3054.2476	3058.7202	3062.4282	3096.6899	3113.5218	3137.3566	3245.2572	3258.8232
COC1=CC=C2CCN12	COc1ccc2CCn12	
InChI=1S/C7H9NO/c1-9-7-3-2-6-4-5-8(6)7/h2-3H,4-5H2,1H3	InChI=1S/C7H9NO/c1-9-7-3-2-6-4-5-8(6)7/h2-3H,4-5H2,1H3
