19
gdb 59749	2.44811	1.4685	1.19527	0.7061	70.92	-0.2413	-0.0298	0.2115	1119.2066	0.158257	-460.185244	-460.176202	-460.175258	-460.2192	33.62	
C	 0.0920966391	 1.1099360153	 0.9875920427	-0.43022
C	-0.4113711778	 0.5122963268	-0.3239591275	 0.11778
O	 0.5402126875	-0.3831369866	-0.9030013952	-0.443384
C	-1.7868718229	-0.178341178	-0.1736269784	 0.001717
O	-2.451254276	-0.332493178	-1.4173464161	-0.273292
C	-2.2323466134	-1.6601203534	-1.9135250628	-0.089391
C	-2.1915371054	-2.5490257684	-0.6689077155	-0.332337
C	-1.6265733888	-1.6019295601	 0.3830630629	 0.372497
O	-1.1079140058	-1.895320592	 1.4306788003	-0.319648
H	 1.0787230937	 1.5564152199	 0.8362481088	 0.126165
H	-0.586541388	 1.8878356998	 1.3515866998	 0.120795
H	 0.1641513401	 0.3377152418	 1.7603959553	 0.14394
H	-0.5488302546	 1.2994038515	-1.0731103135	 0.103301
H	 0.8864670546	-0.9344102485	-0.1916175507	 0.289112
H	-2.4279845061	 0.4212893153	 0.4845461933	 0.105051
H	-3.0535435127	-1.8915960783	-2.5952972915	 0.112892
H	-1.2841908408	-1.7126322255	-2.4621580494	 0.121379
H	-3.201907686	-2.838560245	-0.3549731242	 0.13981
H	-1.5871968367	-3.4535979265	-0.7556904883	 0.133833
71.742	85.9301	167.1815	179.8473	246.7515	259.8417	339.322	386.234	448.5019	469.8604	495.041	585.42	660.7905	665.9741	799.4589	853.3216	864.5293	917.9413	945.5472	989.639	1003.5763	1069.1198	1076.7425	1111.7912	1143.4011	1154.1344	1204.9398	1239.9818	1251.6351	1284.3162	1300.3756	1337.0009	1352.8653	1395.6187	1403.4282	1428.3611	1444.8331	1492.0036	1504.9544	1516.5169	1840.7649	3032.9186	3035.4883	3040.7171	3046.2088	3059.0041	3105.9218	3112.1153	3121.7284	3126.5636	3796.8348
CC(O)C1OCCC1=O	C[C@@H](O)[C@H]1OCCC1=O	
InChI=1S/C6H10O3/c1-4(7)6-5(8)2-3-9-6/h4,6-7H,2-3H2,1H3	InChI=1S/C6H10O3/c1-4(7)6-5(8)2-3-9-6/h4,6-7H,2-3H2,1H3/t4-,6-/m1/s1
