15
gdb 51987	5.1735	0.75008	0.66803	7.8268	67.41	-0.26	-0.0354	0.2246	1576.241	0.110999	-491.116923	-491.107595	-491.106651	-491.152726	31.271	
N	-0.0823745924	 1.2876534597	 0.4788252112	-0.385919
C	-0.1408327869	 0.1158459103	 0.0089748524	 0.085529
N	-1.3351383606	-0.5759038819	-0.2218883551	-0.330787
C	-2.6396168536	-0.1356191511	-0.0557120998	 0.424522
O	-2.9726357601	 0.97578285	 0.2635805097	-0.293473
C	-3.6782787164	-1.2531685963	-0.2703089823	-0.225286
O	-4.9170202571	-0.7202965688	-0.6850577686	-0.163688
C	-5.6627236584	-0.0858981363	 0.2584503711	 0.192043
O	-6.6889954172	 0.4537256541	-0.0124152693	-0.268886
H	 0.8901985522	 1.5806656664	 0.5584453767	 0.236932
H	 0.7170073019	-0.5081515043	-0.27197796	 0.102555
H	-1.2210819575	-1.5168513289	-0.565319068	 0.258206
H	-3.3716036645	-1.9578886236	-1.0479045582	 0.135452
H	-3.7747551418	-1.8123841632	 0.6720145071	 0.14203
H	-5.2310433276	-0.1613315661	 1.271438353	 0.090768
39.912	69.3703	73.9861	174.4036	187.3391	194.816	300.8145	309.2221	374.9618	510.9731	541.9428	598.4657	686.8241	790.1045	825.6986	937.9793	985.908	1023.5921	1043.1593	1065.6115	1076.7117	1154.07	1207.1609	1254.5405	1298.3508	1392.5766	1428.7981	1431.4479	1479.2214	1540.8955	1741.1934	1839.5423	1878.8544	2990.3425	3009.2697	3035.9279	3097.3393	3501.5372	3630.2705
N=CNC(=O)COC=O	N=CNC(=O)COC=O	
InChI=1S/C4H6N2O3/c5-2-6-4(8)1-9-3-7/h2-3H,1H2,(H2,5,6,8)	InChI=1S/C4H6N2O3/c5-2-6-4(8)1-9-3-7/h2-3H,1H2,(H2,5,6,8)
