19
gdb 103129	2.27443	1.1009	1.03358	3.6927	73.95	-0.2421	-0.0223	0.2197	1292.841	0.155537	-460.14997	-460.139776	-460.138832	-460.185161	36.963	
C	 0.2309079279	 1.593278128	 0.1772159838	-0.406865
C	-0.1105792612	 0.1133645729	-0.0416675359	-0.232027
C	 0.624776425	-0.4784903584	-1.229689572	 0.35284
O	 0.376916495	 0.1540605578	-2.4576213835	-0.462083
C	 1.9719345381	-1.0949353979	-1.0707269303	 0.003812
O	 2.5199619636	-1.1212686015	 0.2104044125	-0.414882
C	 0.7640388579	-1.9934378823	-1.4153972543	-0.212425
C	 0.2362032097	-2.9636270319	-0.4321471062	 0.151541
O	-0.2554621834	-4.0249467093	-0.7384947432	-0.274546
H	 1.3017205357	 1.726916528	 0.3625953365	 0.130999
H	-0.0521353469	 2.2034185548	-0.6871591991	 0.113759
H	-0.3099728595	 1.989024174	 1.0412307016	 0.123124
H	 0.1435839323	-0.448402597	 0.8599254036	 0.120447
H	-1.1875216719	-0.0010183963	-0.209351431	 0.113032
H	 0.801975789	 1.0189385728	-2.4371041569	 0.287898
H	 2.677006552	-0.9453091096	-1.8878286556	 0.10491
H	 3.0729306062	-1.9060535124	 0.2919454305	 0.299316
H	 0.7003873365	-2.3252404469	-2.4457458746	 0.120287
H	 0.3327127839	-2.6703431847	 0.6341269341	 0.080861
66.5803	84.6467	135.0504	189.341	209.215	245.3297	268.2214	278.1125	317.4734	358.4986	406.3379	431.4975	499.1768	515.1484	600.9684	700.2239	791.7188	827.854	924.6795	942.4376	1006.6208	1035.9444	1048.2398	1066.7171	1091.621	1140.4295	1156.832	1218.9166	1250.5165	1297.8143	1304.7947	1320.9454	1339.3641	1379.6655	1405.2939	1442.1411	1472.7711	1475.4475	1503.4776	1510.4164	1802.7446	2907.1784	3035.5746	3047.0089	3094.5888	3109.7813	3113.5516	3117.4174	3186.0517	3798.646	3799.985
CCC1(O)C(O)C1C=O	CC[C@@]1(O)[C@@H](O)[C@H]1C=O	
InChI=1S/C6H10O3/c1-2-6(9)4(3-7)5(6)8/h3-5,8-9H,2H2,1H3	InChI=1S/C6H10O3/c1-2-6(9)4(3-7)5(6)8/h3-5,8-9H,2H2,1H3/t4-,5+,6+/m1/s1
