21
gdb 100777	3.74572	0.86699	0.81164	1.4493	74.68	-0.2615	0.0759	0.3374	1473.0036	0.180528	-461.331585	-461.321377	-461.320433	-461.366878	37.236	
C	 0.0142182686	 1.5813572988	-0.0465570883	-0.408757
C	-0.0046620129	 0.0494193352	 0.0358623348	 0.024012
C	 0.7584974388	-0.4497755743	 1.2643379913	-0.090769
O	 2.1122368176	-0.0313610554	 1.1499917757	-0.426113
C	-1.4309961358	-0.5407892423	 0.0370812631	 0.083998
O	-2.1946507513	-0.1101846281	 1.1520088315	-0.444763
C	-2.1789546882	-0.2347267474	-1.2543672678	 0.050733
C	-3.6397636837	-0.3226779244	-1.330108807	-0.187454
O	-2.9843144545	 0.9520752924	-1.2161307967	-0.245956
H	 1.0446958232	 1.9396137503	-0.0132864439	 0.134288
H	-0.4545744794	 1.9458558751	-0.9646971757	 0.122897
H	-0.5209396756	 2.0204404721	 0.8024666571	 0.111914
H	 0.5110101074	-0.358138402	-0.8459469807	 0.077105
H	 0.2856990249	-0.0471796282	 2.1714947262	 0.102677
H	 0.6922083837	-1.549242362	 1.3178995724	 0.077928
H	 2.5540633659	-0.2155747952	 1.9834427218	 0.286462
H	-1.3486700212	-1.6332014593	 0.1268709591	 0.088046
H	-2.592248811	 0.7311709646	 0.8863252274	 0.294233
H	-1.6046055076	-0.3564301544	-2.1729561446	 0.099014
H	-4.1212219122	-0.5061019605	-2.288454485	 0.120605
H	-4.1956455369	-0.630379865	-0.4478700006	 0.129898
70.1394	94.1819	108.2519	166.8706	232.677	242.4618	254.1989	273.6453	308.0278	324.9435	355.2318	479.2522	512.526	628.9979	703.5844	787.1943	830.0118	881.3047	923.2779	930.7699	979.8445	999.4612	1037.1072	1077.2499	1094.9507	1121.5635	1137.1795	1162.2579	1172.1421	1179.2803	1232.2689	1269.6154	1271.3688	1296.1742	1318.5218	1344.3389	1382.7916	1406.1229	1420.9894	1445.4979	1456.3179	1494.3529	1514.1572	1518.2848	1524.6071	2960.7248	3001.2394	3012.512	3025.2019	3044.0847	3099.7807	3109.0279	3114.8694	3137.0327	3195.2991	3742.4476	3836.5218
CC(CO)C(O)C1CO1	C[C@@H](CO)[C@@H](O)[C@H]1CO1	
InChI=1S/C6H12O3/c1-4(2-7)6(8)5-3-9-5/h4-8H,2-3H2,1H3	InChI=1S/C6H12O3/c1-4(2-7)6(8)5-3-9-5/h4-8H,2-3H2,1H3/t4-,5+,6+/m0/s1
