17
gdb 45168	2.9736	1.82109	1.59585	4.9202	70.72	-0.254	0.0175	0.2715	890.7424	0.140103	-421.883824	-421.877657	-421.876713	-421.914196	25.928	
O	 0.009477285	 0.0421128582	 0.421347571	-0.353691
C	 0.0075289779	 1.1877972629	 0.0604301937	 0.4334
O	-1.1695552245	 1.8254838505	-0.1996233744	-0.244171
C	-1.0558696238	 3.1990584625	-0.6271487033	 0.084145
C	-0.1590907881	 3.2613521334	-1.8759300254	-0.241812
C	 1.2153138073	 3.0609450075	-1.2601668413	-0.065115
C	 1.1437789898	 3.5130979204	 0.173498095	-0.065136
C	-0.2744663701	 3.9905269634	 0.4361286218	-0.241819
C	 1.224801177	 2.0227346478	-0.1423311338	-0.182518
H	-2.078535218	 3.5388894345	-0.7853725739	 0.096534
H	-0.4383974529	 2.4972676142	-2.6066680558	 0.12209
H	-0.2352018532	 4.2445510501	-2.3530168473	 0.110776
H	 2.1122449069	 3.1688877423	-1.8570383065	 0.10006
H	 1.9856871731	 3.9688091086	 0.6793738902	 0.100048
H	-0.3653647248	 5.0671465787	 0.2552602448	 0.110777
H	-0.6405166896	 3.7746694115	 1.4437136692	 0.122083
H	 2.150568308	 1.5035295333	 0.0675598659	 0.11435
139.7655	349.3425	364.3076	450.9383	452.5387	492.6825	601.4568	630.4992	770.9035	791.4861	815.1953	825.8349	873.5934	891.5589	893.0925	945.527	959.7588	996.6715	1025.9233	1035.4766	1062.1447	1094.3303	1100.0583	1113.1849	1172.5999	1220.4633	1224.8374	1245.4819	1305.6994	1308.4316	1341.7624	1357.1387	1394.3641	1405.5185	1478.3365	1493.8951	1850.0765	3047.4703	3051.6819	3100.6859	3102.3077	3126.5383	3188.9756	3195.3637	3210.2752
O=C1OC2CC3C(C2)C13	O=C1O[C@@H]2C[C@H]3[C@@H](C2)[C@@H]13	
InChI=1S/C7H8O2/c8-7-6-4-1-3(9-7)2-5(4)6/h3-6H,1-2H2	InChI=1S/C7H8O2/c8-7-6-4-1-3(9-7)2-5(4)6/h3-6H,1-2H2/t3-,4+,5-,6+
