16
gdb 56733	2.41566	1.36335	1.08795	2.3432	69.54	-0.2775	-0.0574	0.2201	1133.5856	0.121677	-437.886518	-437.877403	-437.876459	-437.920836	32.22	
C	-0.3071878638	 1.5716289159	-0.4209284467	-0.404863
C	 0.0730332252	 0.1013012747	-0.1393572193	-0.230711
C	-1.089810548	-0.6607732171	 0.3179240917	 0.284542
N	-2.0094951176	-1.2617554995	 0.6765127487	-0.330779
C	 0.729172457	-0.5372353543	-1.36292697	 0.288457
C	 0.3249267611	-1.8437337728	-1.9310206164	-0.222005
O	-0.046740127	-0.6252896303	-2.5613719874	-0.256241
C	 2.1518158977	-0.1259869264	-1.6153397467	 0.130962
O	 2.844216662	 0.4408022383	-0.8099278729	-0.257044
H	 0.5913251694	 2.1396610065	-0.671105939	 0.146442
H	-1.0109144234	 1.6269537181	-1.2542548379	 0.15352
H	-0.7688673981	 2.0218091215	 0.4601930411	 0.142721
H	 0.824856444	 0.0807171239	 0.658218275	 0.154416
H	 1.0539591358	-2.4461775719	-2.4712789429	 0.129621
H	-0.4783118906	-2.3867224719	-1.4391308854	 0.165014
H	 2.5100101064	-0.3964091648	-2.6317428818	 0.105948
48.385	130.4855	153.0139	182.1667	216.3998	227.934	272.5931	360.8464	369.0976	468.839	503.0175	579.1148	628.0083	718.0492	860.2608	877.8048	893.7512	957.0589	1027.1095	1034.0961	1093.536	1127.2843	1141.8732	1174.2956	1222.8423	1309.9393	1341.2146	1354.9342	1406.2482	1421.2507	1497.2485	1500.1298	1518.8635	1823.8979	2359.5648	2914.9625	3056.5875	3061.1651	3093.6457	3141.8816	3145.9467	3194.7709
CC(C#N)C1(CO1)C=O	C[C@@H](C#N)[C@]1(CO1)C=O	
InChI=1S/C6H7NO2/c1-5(2-7)6(3-8)4-9-6/h3,5H,4H2,1H3	InChI=1S/C6H7NO2/c1-5(2-7)6(3-8)4-9-6/h3,5H,4H2,1H3/t5-,6+/m0/s1
