16
gdb 22339	3.33473	1.13922	0.87248	1.9791	70.72	-0.2354	-0.0692	0.1662	1254.6747	0.123157	-474.999376	-474.990892	-474.989948	-475.032664	31.695	
O	-0.0267137588	 1.2926650178	 0.0486346487	-0.345336
N	 0.0170624296	-0.0847718386	 0.0206151182	-0.20826
C	-1.1328585174	-0.6442302973	-0.0307488024	 0.285592
C	-1.2660694153	-2.1469472542	-0.0679156247	-0.297743
C	-2.6359401302	-2.3835278064	-0.7269471526	 0.108188
O	-3.1143021562	-3.6576340864	-0.3429269373	-0.428832
C	-3.4916413841	-1.1983953644	-0.2428860366	-0.360085
C	-2.512155081	-0.0287007885	-0.1146760273	 0.334581
O	-2.7958425807	 1.1416867226	-0.0983936453	-0.298944
H	 0.9087538287	 1.5270086966	 0.0700512427	 0.315794
H	-0.4405215027	-2.6393875034	-0.5837709922	 0.12944
H	-1.3141848738	-2.5541844846	 0.9509531892	 0.133425
H	-2.5235573619	-2.324865354	-1.8207861255	 0.083083
H	-3.9384739189	-3.825674483	-0.8106720461	 0.286703
H	-4.3418033806	-0.9397318721	-0.8782048212	 0.122815
H	-3.8753333671	-1.432684824	 0.7598341924	 0.13958
72.0793	113.7196	211.4421	281.3902	290.504	315.3789	325.5773	408.9909	475.2611	481.7642	504.6669	540.4321	648.6603	706.2812	722.4925	870.5331	896.985	984.597	1014.9331	1055.3364	1097.7246	1107.1802	1135.7235	1198.8291	1222.8739	1236.271	1279.8886	1297.2374	1365.9463	1422.2835	1430.4649	1452.8358	1482.5186	1695.7002	1829.0509	2979.2794	3026.9322	3031.3938	3110.0164	3120.7308	3795.8899	3819.9178
ON=C1CC(O)CC1=O	ON=C1C[C@@H](O)CC1=O	
InChI=1S/C5H7NO3/c7-3-1-4(6-9)5(8)2-3/h3,7,9H,1-2H2	InChI=1S/C5H7NO3/c7-3-1-4(6-9)5(8)2-3/h3,7,9H,1-2H2/t3-/m1/s1
