20
gdb 94371	2.96302	1.41353	1.21426	2.9893	77.96	-0.229	0.0702	0.2992	1109.098	0.170978	-403.082748	-403.074531	-403.073587	-403.115769	31.725	
C	-0.3735773294	 1.4212013621	 0.0130358089	-0.411956
C	 0.0125895786	-0.0482019055	-0.0811398792	-0.114205
C	 1.3419651774	-0.3785934892	-0.790424501	-0.090351
O	 1.8850571063	-0.9694348228	 0.4093180057	-0.320284
C	 0.6802645931	-0.7071710538	 1.1525093699	 0.449214
C	 0.9156933705	-0.0768698124	 2.5481633814	-0.242346
N	 0.4186675933	-1.3110034222	 3.2588958005	-0.125313
C	-0.9733163463	-1.4747964676	 2.8128988017	-0.244802
C	 0.1046126025	-1.9049486092	 1.8966242779	-0.109412
H	 0.4543046276	 2.0253644158	 0.3997938387	 0.123501
H	-0.6424055083	 1.8158592733	-0.9726760724	 0.120393
H	-1.2342738214	 1.5690759892	 0.6738333154	 0.119867
H	-0.8305585258	-0.6398342911	-0.4500660486	 0.08071
H	 1.2888098187	-1.1002590717	-1.6141346133	 0.102249
H	 1.9266078063	 0.4915973075	-1.1158004022	 0.09932
H	 1.9835121518	 0.05886358	 2.7306596113	 0.127186
H	 0.3720435306	 0.8369753116	 2.8115913224	 0.099324
H	-1.5096169325	-2.2476460598	 3.3552161401	 0.124429
H	-1.5656122498	-0.5902616045	 2.5834229235	 0.109338
H	 0.3111645469	-2.9424731197	 1.6543875189	 0.103139
59.5608	128.4696	175.4292	238.0108	278.2334	342.9557	427.1521	445.672	477.9031	521.4655	742.3871	764.8075	790.7989	838.313	885.6267	900.9	917.4058	938.9086	972.7676	1011.4279	1027.0055	1050.9916	1086.6801	1105.1813	1110.2063	1137.5722	1149.2996	1160.2299	1183.1761	1196.4925	1212.7959	1241.3363	1273.4503	1287.5218	1338.1943	1362.6269	1382.9784	1411.7976	1476.4141	1494.2212	1496.5998	1503.667	1530.1689	3012.3917	3028.8193	3042.0111	3050.226	3065.6459	3095.143	3097.4455	3101.2812	3121.607	3167.1898	3192.0836
CC1COC11CN2CC12	C[C@H]1CO[C@]21CN1C[C@@H]21	
InChI=1S/C7H11NO/c1-5-3-9-7(5)4-8-2-6(7)8/h5-6H,2-4H2,1H3	InChI=1S/C7H11NO/c1-5-3-9-7(5)4-8-2-6(7)8/h5-6H,2-4H2,1H3/t5-,6-,7-,8?/m0/s1
