14
gdb 9245	6.87262	0.78047	0.72064	2.0428	76.32	-0.2532	-0.0341	0.2191	1471.368	0.104586	-382.473146	-382.464367	-382.463423	-382.506721	31.353	
O	 0.1045260314	 1.4195141592	-0.0842716631	-0.413046
C	 0.1046379575	 0.0212031886	 0.0596976017	-0.055849
C	-1.3445299141	-0.5081089335	 0.0604317462	-0.115722
O	-2.022623617	-0.0164462037	-1.1026419575	-0.424821
C	-1.3966065073	-1.9602846694	 0.164066991	 0.377303
C	-1.3989214349	-3.1700142676	 0.2174870225	-0.236448
C	-1.4106728337	-4.5286755431	 0.2819339142	 0.286459
C	-1.4195077373	-5.7346929236	 0.3380084759	-0.54199
H	-0.5204484183	 1.6081171701	-0.7968538347	 0.28894
H	 0.6623526697	-0.4823945182	-0.7481267673	 0.088011
H	 0.5943507185	-0.2212431911	 1.0075880059	 0.122994
H	-1.8720722384	-0.049972446	 0.9054660276	 0.133887
H	-1.775722755	-0.5812021803	-1.8447370595	 0.292198
H	-1.4298589612	-6.7953334513	 0.3892777571	 0.198084
74.7076	82.6985	161.3567	213.5933	257.1372	316.3648	321.7644	412.0628	485.8986	510.3502	514.2935	540.7782	572.0558	597.7003	619.9935	784.6098	873.0912	1042.1007	1062.4908	1095.7147	1172.603	1202.4773	1269.8402	1293.0679	1374.5945	1414.8134	1434.0345	1502.3386	2181.3117	2357.8492	2963.6114	3048.9236	3089.0612	3503.4622	3766.4437	3794.9592
OCC(O)C#CC#C	OC[C@@H](O)C#CC#C	
InChI=1S/C6H6O2/c1-2-3-4-6(8)5-7/h1,6-8H,5H2	InChI=1S/C6H6O2/c1-2-3-4-6(8)5-7/h1,6-8H,5H2/t6-/m0/s1
