17
gdb 18886	3.40459	2.78757	2.55839	0.7878	66.1	-0.2082	0.0972	0.3054	667.7615	0.146644	-363.837832	-363.832595	-363.831651	-363.866757	22.899	
C	 0.0107917219	 1.5171853578	 0.0722781867	-0.185278
C	 1.5357109901	 1.4430899579	-0.0547248711	 0.100403
O	 2.1152200912	 1.1024633078	 1.216278954	-0.286152
C	 1.8539441434	-0.3023136398	 1.392126431	 0.083054
C	 2.2457436009	-0.8881626261	 0.0258939856	-0.235383
C	 1.3110333824	 0.0514189436	-0.714487935	-0.019765
N	-0.049755174	 0.011588643	 0.0068445799	-0.141427
C	 0.329531675	-0.5109170428	 1.3558577485	-0.178312
H	-0.394575047	 1.9638209489	 0.9844629042	 0.104951
H	-0.4829685899	 1.9490292762	-0.804810027	 0.101582
H	 2.121442183	 2.246168233	-0.5103907015	 0.071681
H	 2.3861762077	-0.6492092286	 2.2779234031	 0.077857
H	 3.2975473595	-0.7222227897	-0.2178829529	 0.110062
H	 1.9920160262	-1.9441808026	-0.0930732468	 0.109311
H	 1.2233135976	-0.010521538	-1.7974432082	 0.080803
H	 0.0702121462	-1.57279651	 1.43772346	 0.09979
H	-0.2018332742	 0.0344916592	 2.1394160693	 0.106822
340.4561	382.4072	457.8811	503.5944	599.4813	644.904	788.2302	793.8903	815.3794	856.1368	876.2898	899.1723	914.657	945.8614	957.522	970.6635	999.2914	1009.6945	1041.656	1068.6764	1082.7686	1142.2062	1189.2849	1214.6658	1225.4492	1235.3368	1243.0262	1280.8348	1292.3554	1304.1075	1313.2643	1336.4807	1366.5132	1472.1368	1486.879	1508.1923	3034.3707	3039.051	3069.3983	3072.1173	3098.856	3104.9915	3122.943	3129.7138	3138.4122
C1C2OC3CC2N1C3	C1[C@H]2O[C@@H]3C[C@H]2N1C3	
InChI=1S/C6H9NO/c1-4-2-7-3-6(8-4)5(1)7/h4-6H,1-3H2	InChI=1S/C6H9NO/c1-4-2-7-3-6(8-4)5(1)7/h4-6H,1-3H2/t4-,5-,6-/m1/s1
