18
gdb 70636	2.39897	1.62513	1.2022	4.8621	75.67	-0.2783	0.0163	0.2946	1074.6473	0.14817	-401.956776	-401.948562	-401.947618	-401.989465	31.177	
C	-0.1957072305	 1.3742303541	-0.1249158702	-0.495123
C	 0.0129414088	-0.1069906889	 0.0588412752	 0.327801
C	-0.7246961361	-0.9001931358	 1.1082246456	-0.330312
C	 0.7724313111	-0.7416062389	 1.2029686404	-0.110653
C	 1.5926263897	-1.8643728296	 0.6015247214	-0.099293
O	 0.9885227845	-2.1433853542	-0.6661887368	-0.26399
C	 0.4303347245	-0.9344125949	-1.1616601082	-0.074947
C	-0.6824260179	-1.2621434782	-2.0652165648	 0.286827
N	-1.5680407657	-1.4675454857	-2.7775143291	-0.323242
H	 0.6876806862	 1.8527496582	-0.5634606479	 0.122034
H	-1.0478648755	 1.573625725	-0.7840180453	 0.142011
H	-0.3983788749	 1.8598673009	 0.8337175952	 0.126764
H	-1.3320110085	-0.3340128802	 1.8053930007	 0.118962
H	-1.1241147331	-1.8741334003	 0.8431300132	 0.136799
H	 1.2095799603	-0.1359265438	 1.9883297781	 0.098548
H	 2.6407248878	-1.5525354101	 0.4749689213	 0.102723
H	 1.5731863065	-2.7991461629	 1.1699558295	 0.122306
H	 1.1747542928	-0.3631314448	-1.7421247482	 0.112785
98.4043	132.6742	204.6721	233.2927	261.5839	304.8597	372.8708	407.731	508.0581	533.3281	602.48	686.4568	748.3556	837.6645	879.6193	906.4575	965.8695	972.7073	977.994	1010.4909	1052.5872	1068.0266	1092.9146	1100.159	1123.2231	1136.9503	1234.0333	1251.8918	1294.0907	1311.2318	1362.501	1374.4822	1407.8248	1425.0409	1486.7389	1489.1394	1502.1486	1517.9086	2365.4958	2960.9717	2990.8027	3028.3293	3081.0851	3089.2344	3110.4301	3132.2783	3182.2816	3221.7841
CC12CC1COC2C#N	C[C@]12C[C@H]1CO[C@H]2C#N	
InChI=1S/C7H9NO/c1-7-2-5(7)4-9-6(7)3-8/h5-6H,2,4H2,1H3	InChI=1S/C7H9NO/c1-7-2-5(7)4-9-6(7)3-8/h5-6H,2,4H2,1H3/t5-,6-,7-/m0/s1
