20
gdb 106005	3.32983	1.61621	1.42129	1.4415	80.88	-0.2141	0.0813	0.2954	1001.4497	0.172346	-365.924346	-365.91704	-365.916096	-365.955971	29.999	
C	 0.1092377937	 1.5276648346	 0.0006533969	-0.390799
C	 0.0134669306	-0.0019164929	 0.0344444534	-0.328404
C	-1.379634808	-0.5503603214	-0.0470473784	 0.404945
C	-1.7940832723	-2.0379423404	 0.0785074243	-0.188723
C	-3.0274883087	-1.6732593298	-0.7291143897	-0.085438
C	-2.9936840791	-1.5027142991	 0.7959009629	-0.015796
N	-2.4611750093	-0.1202202104	 0.9882165238	-0.192184
C	-3.1462698942	 0.6801660898	-0.0952073934	-0.18938
C	-2.5047793407	-0.2715222508	-1.1194296967	-0.12551
H	 1.1519200003	 1.8492387947	 0.0786814354	 0.112488
H	-0.2951378378	 1.9360738714	-0.9314132873	 0.117002
H	-0.4432079848	 1.9685288398	 0.8352975218	 0.138743
H	 0.5980619583	-0.4334266708	-0.7895552164	 0.101681
H	 0.4668095167	-0.3761004927	 0.9620230182	 0.10979
H	-1.2359167898	-2.9581726937	 0.1874010607	 0.090086
H	-3.7236207656	-2.3189610211	-1.2465522485	 0.087561
H	-3.6788282287	-1.9768771403	 1.4865383834	 0.089169
H	-4.2376408098	 0.7124284465	-0.0213499186	 0.096305
H	-2.7422523774	 1.6949491044	-0.1174042631	 0.104429
H	-2.3301039233	-0.0366941579	-2.1696646688	 0.064034
82.275	181.4724	224.8914	311.8724	348.8674	451.6262	560.4129	597.944	726.186	758.574	770.3183	795.4012	816.1242	819.1696	866.8864	876.2197	912.0188	919.1368	958.3345	971.0378	985.3555	1002.3479	1030.5624	1039.6309	1054.6252	1078.2922	1126.7287	1129.2243	1154.6592	1179.5056	1215.8936	1222.8367	1245.2176	1279.0981	1301.726	1320.1654	1340.8304	1396.2852	1406.0523	1472.599	1495.9871	1500.9198	1515.0681	3012.3846	3037.8767	3045.3809	3053.7177	3104.6644	3110.6143	3116.5286	3119.8984	3192.4014	3199.9945	3215.3465
CCC12C3C4C3N1CC24	CC[C@@]12[C@@H]3[C@H]4[C@@H]3N1C[C@@H]24	
InChI=1S/C8H11N/c1-2-8-4-3-9(8)7-5(4)6(7)8/h4-7H,2-3H2,1H3	InChI=1S/C8H11N/c1-2-8-4-3-9(8)7-5(4)6(7)8/h4-7H,2-3H2,1H3/t4-,5+,6-,7+,8-/m1/s1
