18
gdb 5960	3.37398	1.15151	1.05631	4.0537	68.54	-0.2644	0.0326	0.297	1173.1375	0.152469	-381.124815	-381.11512	-381.114175	-381.159286	34.483	
C	 0.0936488912	 1.5724355138	 0.0161954499	-0.398315
C	 0.0122979151	 0.0345391725	 0.0332150583	 0.065111
N	 0.7351162861	-0.4584051508	 1.2151940291	-0.510511
C	-1.4451170048	-0.4828446711	 0.0763379861	-0.168746
C	-2.2441836884	-0.0407677414	 1.299800503	-0.096057
O	-3.4940436708	-0.7120109499	 1.2235545643	-0.42136
C	 0.6299182839	-0.4755643134	-1.2197606028	 0.254132
N	 1.1422246954	-0.8938586836	-2.1686104643	-0.341356
H	 1.129909613	 1.8994303098	-0.1102037887	 0.130088
H	-0.4937057789	 1.9844596826	-0.8079170732	 0.136891
H	-0.2789549682	 1.9710898827	 0.9617128897	 0.137697
H	 0.7606890693	-1.4746502882	 1.2070184575	 0.24167
H	 1.7016904038	-0.145799553	 1.1862652763	 0.23971
H	-1.96607662	-0.1645943804	-0.8320742055	 0.1246
H	-1.4324633563	-1.5786252563	 0.0593283428	 0.11991
H	-1.6958163429	-0.3007939881	 2.2146826655	 0.110274
H	-2.3843539096	 1.0506508357	 1.2940570535	 0.088052
H	-4.012048438	-0.4674251009	 1.9957617785	 0.28821
60.2488	103.9021	126.7463	191.6343	239.7971	249.6791	257.4616	304.7943	340.5773	371.1503	403.7409	440.5736	589.2582	600.4748	750.5917	799.6134	888.1007	892.3989	990.9266	1020.5877	1044.1745	1059.9173	1078.988	1162.1218	1198.3495	1248.7594	1258.4838	1311.6098	1342.2445	1355.777	1410.8048	1457.7672	1483.5826	1489.8201	1499.8462	1533.8486	1661.242	2340.1861	2985.5125	3034.6487	3046.9282	3051.5349	3094.9654	3122.4754	3142.812	3487.3865	3567.0634	3833.0713
CC(N)(CCO)C#N	C[C@@](N)(CCO)C#N	
InChI=1S/C5H10N2O/c1-5(7,4-6)2-3-8/h8H,2-3,7H2,1H3	InChI=1S/C5H10N2O/c1-5(7,4-6)2-3-8/h8H,2-3,7H2,1H3/t5-/m1/s1
