17
gdb 23302	3.14131	1.28191	0.96837	1.345	82.7	-0.2075	-0.0285	0.179	1203.3241	0.135927	-417.959035	-417.950881	-417.949937	-417.991571	31.204	
C	-0.0126781302	 1.4690296423	 0.0933064774	-0.484823
C	-0.0124612857	-0.0116990514	-0.0618850493	 0.321146
C	 0.029761943	-0.7574195355	-1.1841606158	-0.292283
C	 0.0644597307	-2.1676125386	-0.8108399596	 0.416463
N	 0.0196726002	-3.2406103765	-1.5087615436	-0.269889
O	-0.0450861459	-2.9431659172	-2.8828843917	-0.394191
C	 0.0928923317	-2.1939062328	 0.6830687719	-0.113811
C	 1.2131015784	-1.500188723	 1.3884289112	-0.248631
N	-0.066496247	-0.7968684988	 1.1395916236	-0.151277
H	 0.8377052336	 1.7933167794	 0.7056375431	 0.137453
H	 0.0412741499	 1.970641756	-0.8749812277	 0.132707
H	-0.91816103	 1.7975140725	 0.6153434576	 0.147628
H	 0.04774894	-0.3935366437	-2.1998457897	 0.121397
H	-0.0916653574	-3.8205116487	-3.2764149016	 0.305695
H	-0.471714711	-2.954115225	 1.2106297534	 0.116617
H	 1.4113720502	-1.7466264823	 2.4271703418	 0.127732
H	 2.0727558696	-1.1884850866	 0.8020763392	 0.128068
130.5467	169.5203	183.6529	192.7006	274.6755	342.9584	370.6573	416.412	481.174	581.0469	599.2541	703.712	715.9155	773.3586	833.5656	855.7394	891.0654	948.6347	979.6712	1014.4843	1027.603	1053.922	1071.7644	1102.4098	1151.9186	1174.8277	1212.82	1254.6092	1329.2377	1338.2602	1407.0493	1420.0703	1470.3859	1479.036	1491.2812	1661.2096	1725.4174	3030.3583	3082.9461	3114.5283	3132.8292	3181.5701	3211.6724	3257.1955	3823.3739
CC1=CC(=NO)C2CN12	CC1=CC(=NO)[C@H]2CN12	
InChI=1S/C6H8N2O/c1-4-2-5(7-9)6-3-8(4)6/h2,6,9H,3H2,1H3	InChI=1S/C6H8N2O/c1-4-2-5(7-9)6-3-8(4)6/h2,6,9H,3H2,1H3/t6-,8?/m1/s1
