21
gdb 70795	2.697	1.75317	1.4459	1.3436	81.84	-0.2329	0.0968	0.3297	1022.1327	0.182966	-387.071961	-387.064058	-387.063114	-387.103607	32.622	
C	 0.0910685139	 1.4535601592	-0.0827781463	-0.504423
C	 0.0217399296	-0.0391343679	 0.057663348	 0.419293
C	-1.3087421383	-0.8024967895	-0.1381174879	-0.240957
C	-0.7476822947	-2.1286188445	 0.4081576364	-0.123585
C	-0.4472543408	-1.750293736	 1.8829227864	-0.256245
C	 0.6384295375	-0.8529087022	 1.2708771074	-0.163367
C	 0.8080748948	-1.8348869963	 0.0869074376	 0.485873
C	 1.7992777934	-2.9462398838	-0.0753559415	-0.513037
O	 0.876886613	-0.7784051107	-0.8785872846	-0.364111
H	 1.1165054449	 1.8116942651	 0.045425066	 0.125407
H	-0.2583336695	 1.7619978611	-1.0739658412	 0.128033
H	-0.5425788505	 1.9362399761	 0.6682772578	 0.120006
H	-2.1475838067	-0.4226646611	 0.4530174189	 0.089709
H	-1.5799942256	-0.8207766443	-1.195870721	 0.100877
H	-1.2377964053	-3.0633069965	 0.1383332114	 0.062154
H	-1.2572896138	-1.2973843955	 2.462384594	 0.09115
H	-0.0028892696	-2.5695390324	 2.4555605706	 0.098535
H	 1.4707270659	-0.4061390795	 1.8145394427	 0.066078
H	 1.710113828	-3.6674074153	 0.7430159399	 0.122362
H	 1.6239577832	-3.4790176755	-1.016358664	 0.129369
H	 2.8220424305	-2.5576702406	-0.0881295407	 0.126878
197.0049	202.368	213.9237	246.3521	259.72	325.8917	467.1537	474.388	540.7266	595.9162	602.3959	691.6653	722.1651	792.6433	838.0087	859.6002	880.591	891.3979	930.1303	958.4554	966.9933	1001.8806	1006.4498	1057.4011	1061.1798	1123.106	1124.8254	1149.6628	1168.5729	1176.027	1219.5505	1227.6333	1249.3426	1269.1834	1281.0258	1322.5092	1378.759	1410.5068	1425.6283	1476.2377	1479.5588	1482.5307	1492.6062	1495.032	1508.48	3034.6258	3035.6371	3048.5293	3057.527	3100.2225	3102.5072	3104.76	3112.3564	3113.4346	3115.6142	3118.374	3124.1223
CC12CC3CC1C3(C)O2	C[C@]12C[C@@H]3C[C@H]1[C@]3(C)O2	
InChI=1S/C8H12O/c1-7-4-5-3-6(7)8(5,2)9-7/h5-6H,3-4H2,1-2H3	InChI=1S/C8H12O/c1-7-4-5-3-6(7)8(5,2)9-7/h5-6H,3-4H2,1-2H3/t5-,6+,7-,8+/m0/s1
