17
gdb 72576	2.50281	1.89837	1.46484	1.8018	66.88	-0.2567	-0.0306	0.2261	927.8099	0.13711	-458.989599	-458.982402	-458.981458	-459.020894	29.114	
O	 0.0990491501	 1.3663690156	-0.0307432079	-0.497083
C	 0.0098695786	-0.0148896509	-0.0468042244	 0.294782
C	 0.6183214192	-0.7008356322	-1.3032635987	-0.127663
O	 0.1007324241	-2.0364468479	-1.271717911	-0.27464
C	-0.72599913	-2.1184092613	-0.0973860369	 0.089052
C	 0.1974687923	-2.1410367074	 1.1413795128	-0.340884
C	 0.6738725047	-0.6873813154	 1.1527873855	 0.372578
O	 1.3791704127	-0.107095008	 1.9401171702	-0.348509
C	-1.370496733	-0.7236886075	-0.0196518861	-0.296838
H	 0.6688466668	 1.5853373526	 0.7236132583	 0.292577
H	 0.2819157577	-0.1748258524	-2.2051475107	 0.11748
H	 1.7143791327	-0.7143282283	-1.2923683166	 0.112742
H	-1.3871918493	-2.9771436199	-0.2023259993	 0.091353
H	-0.3426210521	-2.365084605	 2.0681391675	 0.136139
H	 1.0260602091	-2.8472859251	 1.048083578	 0.143934
H	-1.9323946691	-0.5411359656	 0.8999718079	 0.112796
H	-1.9868209145	-0.4871346016	-0.8891213486	 0.122182
124.7263	229.2542	285.731	347.0062	378.0553	423.4717	428.9134	510.03	540.8001	617.5192	646.5932	711.7294	758.3622	855.5042	904.7944	918.2102	927.2749	962.1053	980.295	1028.1786	1073.2018	1083.3467	1119.5797	1158.0909	1167.3211	1189.6853	1218.5134	1264.8681	1291.7727	1299.1019	1346.5871	1386.159	1418.7186	1431.7822	1493.3046	1528.3644	1846.736	3021.4211	3054.5896	3065.4112	3071.5396	3114.9629	3131.7126	3133.4763	3695.3605
OC12COC(CC1=O)C2	O[C@@]12CO[C@@H](CC1=O)C2	
InChI=1S/C6H8O3/c7-5-1-4-2-6(5,8)3-9-4/h4,8H,1-3H2	InChI=1S/C6H8O3/c7-5-1-4-2-6(5,8)3-9-4/h4,8H,1-3H2/t4-,6-/m0/s1
