19
gdb 113366	2.20838	1.08961	0.82983	2.7223	73.16	-0.2529	-0.0284	0.2245	1400.7785	0.156875	-460.145739	-460.13565	-460.134706	-460.181258	35.822	
O	-0.1879917501	 1.4099616878	-0.3429438368	-0.410006
C	-0.0741549272	 0.0963143559	 0.1793359716	-0.090383
C	-1.3806373664	-0.6582787923	 0.0568640395	-0.064645
C	-1.7034239972	-1.4792493447	-1.1495586785	-0.337726
C	-1.4831868774	-2.1794147513	 0.1901945929	 0.177273
C	-0.2762211156	-3.073543119	 0.387672131	-0.16001
O	-0.5249097499	-4.3924433474	-0.0779994516	-0.414168
C	-2.7247139551	-2.6583311448	 0.87313014	 0.10472
O	-3.8123405737	-2.1484513553	 0.7429899566	-0.272455
H	-0.4730589414	 1.3349383483	-1.2599711452	 0.285072
H	 0.7443200665	-0.4553532061	-0.3071414935	 0.087144
H	 0.1983662076	 0.2232408537	 1.2322734476	 0.121119
H	-2.2263174464	-0.1372013522	 0.4975037481	 0.123612
H	-2.7210525051	-1.4663767858	-1.5232220451	 0.14395
H	-0.9270660494	-1.616068605	-1.8983247462	 0.111751
H	 0.6146847652	-2.6410990355	-0.0876390688	 0.095162
H	-0.0517333675	-3.1834575622	 1.4547980146	 0.120633
H	-0.761823335	-4.33297645	-1.0099529445	 0.28555
H	-2.5776018919	-3.537252384	 1.535426708	 0.093408
78.235	84.0144	113.7717	136.0023	178.0291	211.5936	281.7142	305.3536	318.9233	356.0611	377.0816	437.8338	578.0961	637.803	737.0706	830.7552	896.5797	901.5727	937.3544	964.5229	1032.1888	1045.332	1063.9185	1070.2707	1091.6227	1110.447	1170.8585	1194.6268	1237.3309	1280.897	1304.4233	1363.5759	1374.6762	1411.2891	1420.7174	1431.9634	1438.6558	1472.6516	1502.2801	1511.9425	1807.1793	2913.4633	2987.9615	3014.1797	3065.3243	3074.2273	3117.238	3156.7035	3218.5694	3805.0678	3808.1756
OCC1CC1(CO)C=O	OC[C@H]1C[C@]1(CO)C=O	
InChI=1S/C6H10O3/c7-2-5-1-6(5,3-8)4-9/h3,5,7,9H,1-2,4H2	InChI=1S/C6H10O3/c7-2-5-1-6(5,3-8)4-9/h3,5,7,9H,1-2,4H2/t5-,6-/m1/s1
