14
gdb 132652	3.19848	1.34848	0.94939	2.2793	69.37	-0.2025	-0.0147	0.1878	1128.4808	0.101793	-478.031174	-478.023621	-478.022677	-478.062897	29.463	
N	-0.0075161203	 1.3959487274	-0.0926980697	-0.568663
C	 0.022339733	 0.0084246011	-0.041310465	 0.385522
N	-1.1589767024	-0.6137577365	-0.021954149	-0.333552
C	-1.1823125341	-1.949351862	-0.0372155269	-0.068479
C	-0.0431110625	-2.7424109893	-0.0603732942	 0.20559
O	-0.1260944243	-4.1027188221	-0.0666697646	-0.445907
C	 1.1773844761	-2.0659274228	-0.0719792617	 0.214417
F	 2.2966877849	-2.8077802361	-0.091875274	-0.090688
C	 1.2419034393	-0.6912760455	-0.0669253377	-0.331527
H	 0.7718517404	 1.872732222	 0.3347377317	 0.248115
H	-0.9041021558	 1.7730067957	 0.1796357195	 0.254217
H	-2.1571440357	-2.4296101525	-0.0242850194	 0.120831
H	 0.7712264438	-4.455305108	-0.0843347583	 0.302361
H	 2.2008746076	-0.1879751113	-0.0908709906	 0.107763
146.0438	230.093	285.1434	325.0089	352.211	355.3124	385.4121	452.4113	462.7425	531.8337	590.7445	598.0898	680.448	754.0743	777.5686	806.6814	850.9874	941.6567	972.0499	1086.7605	1173.1537	1211.7274	1261.3976	1323.5016	1332.5108	1409.5561	1477.2909	1544.8708	1629.6464	1634.2	1676.7937	3166.1772	3202.4847	3568.2667	3678.3973	3806.6258
NC1=NC=C(O)C(F)=C1	Nc1ncc(O)c(F)c1	
InChI=1S/C5H5FN2O/c6-3-1-5(7)8-2-4(3)9/h1-2,9H,(H2,7,8)	InChI=1S/C5H5FN2O/c6-3-1-5(7)8-2-4(3)9/h1-2,9H,(H2,7,8)
