20
gdb 67606	2.66622	2.19822	1.67477	1.6319	80.88	-0.2294	0.1025	0.332	903.3485	0.174519	-365.997622	-365.991019	-365.990074	-366.028082	28.426	
C	-0.0836503385	 1.4508844987	 0.0734119706	-0.499652
C	 0.0887017621	-0.0404509774	 0.0312083778	 0.35449
C	 0.1093145331	-0.8710977026	-1.2069131602	-0.088971
C	 0.9773303026	-2.0911868375	-0.9865268791	-0.259616
C	 0.6807020673	-2.244973073	 0.4947216415	-0.037854
C	-0.8502173998	-2.017721905	 0.6858831719	 0.003997
C	-0.5262003481	-1.2675945096	 1.9978179199	-0.230012
C	 0.7293561945	-0.8353583733	 1.1828725018	-0.116411
N	-1.0814735533	-0.9102815184	-0.3015202398	-0.171601
H	 0.8803553944	 1.9624116949	-0.0281198175	 0.114097
H	-0.7364562015	 1.7850749182	-0.7376001905	 0.127977
H	-0.535541697	 1.7704286101	 1.0193511446	 0.119255
H	-0.0597465737	-0.446241893	-2.1907872098	 0.084801
H	 0.6558539838	-2.9564356926	-1.5769935517	 0.102892
H	 2.0336228308	-1.8948098401	-1.2011063454	 0.102023
H	 1.1305278098	-3.0673903595	 1.0474363163	 0.070586
H	-1.592909434	-2.8119748732	 0.6140680438	 0.066718
H	-1.2254374246	-0.4944060555	 2.3267862071	 0.100342
H	-0.2866704193	-1.9422464862	 2.8237154765	 0.095432
H	 1.6295291014	-0.4323840848	 1.6473995823	 0.061507
191.3284	232.4474	287.1696	369.8625	438.1081	526.3876	575.1089	677.3062	719.4359	727.8972	804.4375	821.3367	845.3323	859.2069	886.4485	912.9623	929.5192	971.8488	983.0593	1006.1631	1021.0081	1031.3675	1045.3788	1056.1118	1091.8269	1113.2689	1117.9551	1160.592	1192.8889	1217.1244	1222.0548	1241.9595	1252.7335	1281.5913	1287.9817	1306.0792	1330.2123	1407.4185	1430.2421	1484.3337	1487.0105	1493.8064	1497.4882	3027.2907	3039.7554	3058.9401	3083.1457	3086.7218	3111.9748	3113.3934	3116.196	3118.6939	3142.0171	3170.8391
CC12C3CC4C(CC14)N23	C[C@@]12[C@H]3C[C@@H]4[C@@H](C[C@H]14)N23	
InChI=1S/C8H11N/c1-8-5-3-6-4(5)2-7(8)9(6)8/h4-7H,2-3H2,1H3	InChI=1S/C8H11N/c1-8-5-3-6-4(5)2-7(8)9(6)8/h4-7H,2-3H2,1H3/t4-,5-,6+,7+,8-,9?/m0/s1
