16
gdb 45182	2.89087	1.9002	1.62554	3.0149	66.97	-0.2313	-0.0254	0.2059	861.0864	0.126981	-437.856012	-437.84977	-437.848826	-437.886595	25.735	
O	 0.0115056106	-0.0018271246	-0.1014840271	-0.321245
C	-0.0020268759	 1.1975975156	 0.0080370313	 0.43143
C	-1.2830869967	 2.0446451909	 0.1070913436	-0.344751
C	-0.8859381098	 3.3620348567	 0.7635390167	 0.069372
O	-0.1055908171	 3.0204807499	 1.9524882418	-0.298914
C	 1.0829471699	 3.1666089684	 1.1774500464	 0.120934
C	 0.3996543692	 3.9943795009	 0.08415793	-0.051931
N	 1.0469664444	 3.1949394897	-0.9583428798	-0.313582
C	 1.2386028656	 2.0825860121	 0.0242826489	-0.158141
H	-1.7211036624	 2.1914223404	-0.8880149559	 0.125192
H	-2.0162337147	 1.5038413198	 0.7109663373	 0.144277
H	-1.7211531232	 4.0225614591	 1.0038228556	 0.088986
H	 1.9706529515	 3.4237766409	 1.7534089297	 0.102825
H	 0.423082449	 5.0798114026	-0.0184745206	 0.09053
H	 0.4953928678	 2.9670422599	-1.7832403287	 0.222647
H	 2.164390822	 1.5146126676	-0.0736460893	 0.092372
106.8016	327.5214	374.4641	404.3066	453.1014	533.0148	609.331	649.9843	711.9902	756.8646	781.3884	809.0575	854.0578	886.6397	942.8397	958.1964	996.8709	1006.0489	1033.117	1053.8975	1083.2588	1101.2159	1143.5908	1189.5722	1206.4546	1232.4934	1251.7006	1276.9152	1279.5068	1328.4207	1336.2215	1344.4988	1363.3505	1443.3012	1836.4038	3042.5252	3092.4987	3106.4616	3109.6064	3110.8287	3132.6716	3477.1181
O=C1CC2OC3C2NC13	O=C1C[C@H]2O[C@@H]3[C@H]2N[C@H]13	
InChI=1S/C6H7NO2/c8-2-1-3-5-6(9-3)4(2)7-5/h3-7H,1H2	InChI=1S/C6H7NO2/c8-2-1-3-5-6(9-3)4(2)7-5/h3-7H,1H2/t3-,4-,5+,6+/m1/s1
