18
gdb 17733	5.93576	1.6732	1.59271	0.0983	76.99	-0.2555	0.1057	0.3613	865.3214	0.154941	-310.570728	-310.564491	-310.563547	-310.600711	26.054	
C	 0.0168986226	 1.562405188	 0.0064126536	-0.355523
C	 1.3421840959	 0.8053470629	-0.009943291	-0.355515
C	 0.0437183904	 0.0707402463	 0.0024092593	 0.435516
C	-0.5385794121	-0.9692335368	 0.9543825808	-0.143747
C	-1.778350671	-1.215794121	 0.0189447592	-0.024807
C	-1.5628199964	-2.7420169346	 0.0126951937	-0.277412
C	-0.1387704272	-2.152325106	-0.0012913241	-0.024803
C	-0.5592140052	-0.9643832827	-0.9419764134	-0.143716
H	-0.2592430385	 2.0777740664	 0.9213672199	 0.108898
H	-0.2791804129	 2.0822932201	-0.8997077603	 0.108898
H	 1.9234373358	 0.8240668383	-0.9268916496	 0.108897
H	 1.9433055543	 0.8195864136	 0.8941866384	 0.108897
H	-0.5380429657	-0.9918755407	 2.0456996929	 0.067133
H	-2.7085731816	-0.6457353857	 0.0305272542	 0.069778
H	-1.8626663318	-3.2864348756	 0.914128659	 0.090298
H	-1.8822391999	-3.2818321332	-0.8847745359	 0.090298
H	 0.8247981452	-2.6640003701	-0.0130822722	 0.069778
H	-0.5824218018	-0.9814339091	-2.0331488446	 0.067132
163.3153	238.1099	258.1117	431.4426	498.2218	572.1857	726.5886	770.1429	810.7516	831.9298	841.5764	867.9253	872.2855	910.7556	911.259	960.3859	961.7678	985.3911	1008.4385	1026.2448	1047.4455	1064.1158	1072.9016	1104.6003	1136.2891	1150.9232	1162.7488	1172.9309	1176.5502	1182.124	1221.5028	1238.722	1247.9026	1310.3395	1425.7073	1461.5443	1506.9933	1518.8545	3034.0447	3090.2948	3091.9373	3095.6678	3099.6439	3111.6892	3117.1352	3121.1082	3193.0835	3207.6194
C1CC11C2C3CC2C13	C1CC21[C@H]1[C@@H]3C[C@H]1[C@H]23	
InChI=1S/C8H10/c1-2-8(1)6-4-3-5(6)7(4)8/h4-7H,1-3H2	InChI=1S/C8H10/c1-2-8(1)6-4-3-5(6)7(4)8/h4-7H,1-3H2/t4-,5+,6-,7+
