23
gdb 92449	2.21167	1.69398	1.39277	1.6971	83.83	-0.2328	0.0797	0.3125	1096.8632	0.208459	-388.309816	-388.301549	-388.300605	-388.342054	33.617	
C	-0.1570389663	 1.6051531551	-0.0223872932	-0.425292
C	 0.0356603979	 0.0879666093	-0.0330849012	 0.052907
C	 0.7704527078	-0.4690074107	-1.3004972559	-0.238787
C	 1.8852222304	-1.3321213455	-0.6800650885	 0.104002
O	 2.8743093245	-0.4404534831	-0.1379801546	-0.285599
C	 2.304063955	 0.0989181016	 1.0717822686	-0.084718
C	 0.8943551864	-0.5076005583	 1.1201516626	-0.063805
C	 1.2334532599	-1.9253383499	 0.5846639973	 0.0283
C	 0.0920761154	-2.9219933103	 0.3979063807	-0.436914
H	 0.7850598498	 2.1424685166	-0.169447644	 0.123738
H	-0.8315940133	 1.9101695632	-0.8294863465	 0.113929
H	-0.5964953974	 1.9471865224	 0.9214848409	 0.108864
H	-0.959853796	-0.3632791795	 0.0325639082	 0.069933
H	 0.1041148535	-1.0480246555	-1.9477616855	 0.091721
H	 1.2140145772	 0.3271835896	-1.9045289586	 0.103364
H	 2.3885746396	-2.0219513825	-1.3597241367	 0.066288
H	 2.9087386418	-0.2121299806	 1.9350618517	 0.090567
H	 2.3179978086	 1.1928876409	 1.0278174878	 0.096332
H	 0.4250390128	-0.4549332478	 2.1051026704	 0.057249
H	 2.0090286806	-2.3901300793	 1.2040361412	 0.073572
H	-0.7092632815	-2.5435140277	-0.2417084404	 0.120607
H	 0.4627393408	-3.8480188455	-0.0546461876	 0.116984
H	-0.3528208973	-3.1856856623	 1.3634510735	 0.116755
124.9789	199.0654	231.8235	238.1296	265.0929	306.0774	356.318	418.4165	479.7606	543.8344	576.2512	710.06	758.5008	789.0784	840.4245	866.5777	909.6453	946.3578	952.059	956.6033	971.952	1018.2811	1031.0071	1046.2236	1078.4881	1086.559	1113.2224	1124.4749	1146.955	1188.1651	1210.9109	1216.6776	1260.1679	1265.6465	1296.4493	1316.6127	1336.7016	1347.0849	1370.2205	1380.2337	1403.1859	1412.8046	1417.9682	1487.9092	1497.1767	1500.6462	1503.5007	1504.7776	1537.3027	3003.1195	3029.411	3034.497	3037.6353	3042.595	3051.3842	3062.1491	3090.2866	3091.7617	3093.6593	3098.7653	3104.646	3105.8225	3116.7939
CC1CC2OCC1C2C	C[C@H]1C[C@H]2OC[C@@H]1[C@H]2C	
InChI=1S/C8H14O/c1-5-3-8-6(2)7(5)4-9-8/h5-8H,3-4H2,1-2H3	InChI=1S/C8H14O/c1-5-3-8-6(2)7(5)4-9-8/h5-8H,3-4H2,1-2H3/t5-,6+,7-,8+/m0/s1
