16
gdb 75090	3.34293	1.41731	1.07745	3.8279	73.16	-0.2211	-0.0187	0.2024	1095.5555	0.125366	-437.916273	-437.908585	-437.907641	-437.94842	29.328	
C	-0.0994535112	 1.510071174	 0.0824340317	-0.493423
C	-0.0005967655	 0.0143240867	-0.0007351408	 0.269476
C	 0.0641117268	-0.653866319	-1.1615463484	-0.064782
N	 0.1126566871	-2.0435846677	-1.2451337279	-0.371643
C	 0.0021925522	-2.9154792957	-0.1803637309	 0.453831
O	-0.1634362777	-4.1091729849	-0.3315758551	-0.365467
C	 0.0788096801	-2.2591619456	 1.1682097206	-0.113034
O	 1.2776215769	-1.5386505823	 1.4527789398	-0.245037
C	 0.073248378	-0.7750464497	 1.2501681408	-0.055854
H	 0.7676735191	 1.9442169358	 0.5957199605	 0.136315
H	-0.1621340952	 1.9608670836	-0.9116979392	 0.12487
H	-0.9884268472	 1.8214263203	 0.6459516955	 0.128225
H	 0.0691892819	-0.1483731612	-2.1203485534	 0.122451
H	 0.0644639692	-2.483375354	-2.1522768915	 0.258879
H	-0.303071552	-2.875000226	 1.9790841495	 0.117287
H	-0.3066550625	-0.3145992944	 2.1611597289	 0.097906
98.1216	176.3362	202.2698	277.6449	301.1251	358.9611	436.024	480.5266	530.1821	591.5633	621.8444	745.2906	752.6023	789.6847	856.3758	887.7854	895.468	961.4841	1016.9562	1049.5519	1068.9844	1124.6704	1176.2007	1215.9034	1259.6641	1293.9483	1368.7078	1390.7636	1418.2269	1421.7066	1476.1768	1479.9261	1497.9513	1727.8073	1797.7956	3015.7422	3061.4748	3110.3454	3122.8678	3150.3302	3198.3632	3622.1673
CC1=CNC(=O)C2OC12	CC1=CNC(=O)[C@H]2O[C@@H]12	
InChI=1S/C6H7NO2/c1-3-2-7-6(8)5-4(3)9-5/h2,4-5H,1H3,(H,7,8)	InChI=1S/C6H7NO2/c1-3-2-7-6(8)5-4(3)9-5/h2,4-5H,1H3,(H,7,8)/t4-,5-/m0/s1
