21
gdb 91696	3.44462	1.28315	1.22141	1.6386	82.96	-0.224	0.0262	0.2502	1130.906	0.184633	-387.106965	-387.098917	-387.097973	-387.139052	32.657	
C	-0.0203920772	 1.4886521481	 0.0438120572	-0.511451
C	-0.0614043685	-0.0015702788	-0.0180313785	 0.352878
C	-0.0589210627	-0.8099458036	-1.0849868171	-0.209238
C	 0.0245694934	-2.2451695214	-0.589792426	-0.050722
C	-0.7761841893	-2.1318726557	 0.7292488198	-0.214139
C	 0.0247247674	-0.9036676957	 1.2154618049	-0.102902
C	 1.4747034314	-1.4879493229	 1.2130202973	-0.249538
C	 1.4656089047	-2.4389168026	-0.0292425662	 0.148345
O	 1.6148066327	-3.8115717347	 0.3173709848	-0.447764
H	 0.8910741752	 1.8406574814	 0.5457240628	 0.124083
H	-0.0491261033	 1.9350947862	-0.9543421528	 0.122861
H	-0.8634472035	 1.8885483833	 0.6217791037	 0.124805
H	-0.0140429775	-0.511450932	-2.1257852036	 0.085119
H	-0.2618136257	-3.0269199294	-1.2930309231	 0.063313
H	-1.8336153009	-1.9129193361	 0.5633431425	 0.089663
H	-0.6668417803	-3.0100635009	 1.3714453394	 0.101543
H	-0.2753589425	-0.4467243271	 2.1603430172	 0.052561
H	 2.2375388977	-0.7071906285	 1.151056923	 0.092572
H	 1.6617425249	-2.0785861129	 2.115723583	 0.090962
H	 2.221817371	-2.1527848217	-0.7716581047	 0.058112
H	 2.4742653831	-3.921536615	 0.7357326465	 0.278935
126.9262	178.7266	191.8044	282.39	288.6059	356.17	408.2205	434.8834	485.6483	573.1793	628.3217	710.683	790.137	817.1373	853.9608	860.5365	877.5081	922.4881	933.4085	942.5478	988.8135	1001.6324	1016.1477	1034.3591	1066.9232	1095.5381	1133.1322	1148.7733	1180.021	1191.2361	1221.8632	1243.2292	1263.695	1283.5426	1297.6565	1315.1849	1345.6952	1349.1776	1410.5098	1412.9407	1478.0192	1480.8664	1487.3447	1500.7194	1697.9877	3009.4365	3010.9137	3046.5522	3055.3114	3062.2462	3094.7582	3096.9477	3104.7718	3118.8779	3120.5442	3197.158	3818.6867
CC1=CC2CC1CC2O	CC1=C[C@@H]2C[C@H]1C[C@H]2O	
InChI=1S/C8H12O/c1-5-2-7-3-6(5)4-8(7)9/h2,6-9H,3-4H2,1H3	InChI=1S/C8H12O/c1-5-2-7-3-6(5)4-8(7)9/h2,6-9H,3-4H2,1H3/t6-,7+,8+/m0/s1
