18
gdb 110153	2.54379	1.16681	0.88287	2.2891	80.68	-0.2672	0.0087	0.2759	1339.6978	0.145907	-401.917509	-401.908249	-401.907304	-401.951941	33.872	
C	 0.0250365536	 1.5409282279	 0.0221962086	-0.388256
C	 0.2042432072	 0.0199108788	-0.0205558741	-0.202231
C	 0.685435121	-0.4707856848	-1.384082782	-0.140654
C	 0.7335255979	-2.0085397228	-1.6376429421	-0.080202
O	-0.2140236958	-1.8438611312	-2.7544395012	-0.260673
C	-0.3175754278	-0.4871885447	-2.5211339315	 0.444764
N	-1.0361898561	 0.3779885997	-3.0748535587	-0.543049
C	 1.9910960228	-2.6004791929	-2.0372868808	 0.321849
C	 3.046935976	-3.0809862298	-2.3504584313	-0.428636
H	 0.9760235171	 2.0537850313	-0.1584559551	 0.116139
H	-0.6828991714	 1.8679386428	-0.743812921	 0.157404
H	-0.34711649	 1.8604410671	 0.999974599	 0.113555
H	 0.9281575403	-0.2980471388	 0.7400801602	 0.105995
H	-0.7446451089	-0.473561	 0.2238945781	 0.105968
H	 1.6203576309	 0.0195340273	-1.6688242019	 0.118616
H	 0.2546142078	-2.5942466941	-0.8463855259	 0.119798
H	-1.6160810628	-0.0300911746	-3.81020286	 0.230252
H	 3.9767402182	-3.5109968011	-2.6319379202	 0.209362
71.1384	91.7573	146.0658	151.1285	205.6389	258.7893	299.0322	354.0035	416.285	491.5721	562.5772	628.884	656.0884	682.6673	726.2318	770.7641	863.4308	868.9774	922.6489	936.1909	984.5941	1020.5704	1058.2575	1082.334	1109.5559	1142.9972	1202.4605	1231.8978	1267.9928	1298.7941	1350.6924	1363.2284	1381.4741	1415.3777	1487.9193	1498.2969	1511.6206	1823.208	2241.341	3022.8865	3038.2949	3056.4785	3058.4568	3084.3534	3105.3523	3127.5792	3474.8805	3501.0983
CCC1C(OC1=N)C#C	CC[C@H]1[C@@H](O[C]1[NH])C#C	
InChI=1S/C7H9NO/c1-3-5-6(4-2)9-7(5)8/h2,5-6,8H,3H2,1H3	InChI=1S/C7H9NO/c1-3-5-6(4-2)9-7(5)8/h2,5-6,8H,3H2,1H3/t5-,6-/m0/s1
