16
gdb 71447	4.13513	1.41898	1.28638	5.4277	68.	-0.2347	0.0027	0.2374	991.2556	0.125544	-437.868951	-437.861964	-437.86102	-437.900137	27.776	
C	-0.0669653693	 1.4792711597	-0.0062963929	-0.511983
C	-0.0037039279	-0.0135358986	 0.035403802	 0.312403
N	-1.2039105805	-0.8517618895	-0.1735634393	-0.357614
C	-0.4932282087	-1.9717499253	 0.573132505	-0.201747
C	 0.6507940326	-1.0206209487	 0.9905920959	-0.1998
C	 1.1946466398	-0.8424644517	-0.3945461959	 0.06488
O	 1.0022418986	-1.9943620658	-1.1970858044	-0.227526
C	 0.0830121625	-2.8039456578	-0.5739581642	 0.499632
O	-0.1934747467	-3.8985553903	-0.957520842	-0.341085
H	 0.9219254772	 1.9178074563	 0.1571730613	 0.13163
H	-0.4322893114	 1.8150419467	-0.9829174218	 0.146378
H	-0.7400826308	 1.872444228	 0.7640398767	 0.124907
H	-1.9402536218	-0.5049745649	 0.4378396064	 0.228528
H	-1.0853762805	-2.5271494479	 1.2937975133	 0.105155
H	 1.1991080645	-0.9581813232	 1.9224821567	 0.105957
H	 2.1420792423	-0.3560959072	-0.5839743266	 0.120287
142.8293	206.0087	228.0586	301.6104	366.6027	453.4424	503.6448	596.9656	667.8536	733.2554	751.1638	777.8163	814.782	843.9606	881.0135	895.4989	933.2857	967.3916	988.7491	1027.8228	1068.1404	1094.6745	1104.2421	1138.6702	1178.6067	1229.4574	1232.4121	1267.2031	1309.3658	1357.6771	1412.32	1459.2353	1481.2422	1499.3448	1903.7547	3029.5204	3093.0213	3111.1799	3172.4567	3185.0164	3215.1982	3483.1293
CC12NC3C1C2OC3=O	C[C@]12N[C@@H]3[C@H]1[C@H]2OC3=O	
InChI=1S/C6H7NO2/c1-6-2-3(7-6)5(8)9-4(2)6/h2-4,7H,1H3	InChI=1S/C6H7NO2/c1-6-2-3(7-6)5(8)9-4(2)6/h2-4,7H,1H3/t2-,3+,4+,6-/m0/s1
