20
gdb 15832	5.35318	0.94212	0.88625	1.4846	71.71	-0.2634	0.0852	0.3486	1368.8064	0.175716	-386.122788	-386.113667	-386.112723	-386.156963	33.058	
C	-0.0967511658	 1.5756700344	-0.0918223825	-0.383008
C	-0.0248693872	 0.0476344126	-0.0397078087	-0.16674
C	 0.7542763436	-0.5562837796	-1.2113922591	-0.179501
C	 0.7822823484	-2.0923391231	-1.190287202	 0.085849
O	-0.5223625162	-2.6474810048	-1.2106214484	-0.435131
C	 1.5975597246	-2.6401000603	-2.3534499138	 0.06489
C	 1.3706142372	-3.985118468	-2.8875859403	-0.187688
O	 0.8447096448	-2.8281097102	-3.5609450965	-0.251419
H	 0.9031440906	 2.0240148575	-0.0708573635	 0.110504
H	-0.5910261349	 1.9179983032	-1.0079688688	 0.113918
H	-0.6582668352	 1.9767890071	 0.7577389653	 0.112038
H	 0.4430089565	-0.2668962279	 0.9030631053	 0.090811
H	-1.0335259718	-0.3783001665	-0.0353810457	 0.114582
H	 0.3135761607	-0.2290564406	-2.1636906267	 0.099683
H	 1.7881540576	-0.1834777824	-1.2053687573	 0.088321
H	 1.2413257431	-2.4299838564	-0.2509032264	 0.09023
H	-0.8057611873	-2.6025496473	-2.1349874561	 0.288575
H	 2.575041431	-2.18064904	-2.5039737907	 0.095443
H	 2.1714329062	-4.4982821656	-3.4163142098	 0.118982
H	 0.623203624	-4.6187967521	-2.4172846145	 0.12966
72.7193	83.2893	113.2596	157.0932	247.8588	277.4449	285.3996	323.1394	396.2149	490.6628	541.1848	661.2269	749.1682	787.6193	850.5603	878.1489	907.3196	931.4255	986.2117	1024.5139	1049.8736	1089.9704	1106.5741	1132.9558	1150.3121	1164.4915	1172.5173	1246.5723	1265.8431	1280.7467	1305.6141	1339.1599	1359.9078	1393.7748	1410.7939	1420.0188	1442.2477	1479.1352	1494.2951	1499.3903	1510.9826	1516.9746	3003.8772	3018.2373	3019.3306	3027.474	3045.407	3072.7616	3097.3045	3099.3079	3101.0149	3110.7677	3195.9743	3742.4037
CCCC(O)C1CO1	CCC[C@@H](O)[C@H]1CO1	
InChI=1S/C6H12O2/c1-2-3-5(7)6-4-8-6/h5-7H,2-4H2,1H3	InChI=1S/C6H12O2/c1-2-3-5(7)6-4-8-6/h5-7H,2-4H2,1H3/t5-,6-/m1/s1
