16
gdb 54042	2.17949	1.24614	0.91741	4.8285	75.63	-0.2627	-0.0373	0.2254	1278.8863	0.120587	-400.748888	-400.73894	-400.737996	-400.784724	34.445	
C	-0.1722424524	 1.5216002228	-0.0192709056	-0.482815
C	 0.0090164829	 0.027372796	 0.1022190577	 0.402214
O	 0.1064007287	-0.5511220624	 1.1536723397	-0.285931
C	 0.066338164	-0.7610738547	-1.240703287	-0.277298
C	 0.6653920264	-2.173057862	-1.0223827085	-0.339349
C	 2.0997605411	-2.1184386187	-0.7516123223	 0.262733
N	 3.2378861514	-2.054997414	-0.5636208277	-0.30582
C	-1.2808082844	-0.837981071	-1.7947349754	 0.301742
C	-2.4035854316	-0.9085554452	-2.2178595777	-0.4276
H	 0.7517108317	 1.9631572433	-0.4122978077	 0.155647
H	-0.972208726	 1.7591946128	-0.7264457546	 0.154727
H	-0.3862030326	 1.951882709	 0.9592644452	 0.152878
H	 0.7035672214	-0.199715244	-1.9357316439	 0.137381
H	 0.1583458629	-2.642174477	-0.1753751949	 0.18016
H	 0.493624497	-2.7869264498	-1.9105541301	 0.160504
H	-3.3910674506	-0.9689359952	-2.6051751872	 0.210828
50.448	63.9674	114.9778	126.3801	135.7807	229.9532	257.4259	361.7319	385.3348	399.1328	495.6139	534.5412	575.3603	612.3747	634.6827	667.5744	750.3537	918.8217	940.5249	974.6507	1004.6464	1041.6629	1080.8378	1173.3254	1224.8782	1263.6478	1317.3572	1353.9437	1384.3733	1451.5821	1462.4289	1474.0631	1830.4418	2234.2684	2365.551	3032.9071	3040.7622	3073.7508	3107.656	3122.7941	3160.3706	3500.7576
CC(=O)C(CC#N)C#C	CC(=O)[C@@H](CC#N)C#C	
InChI=1S/C7H7NO/c1-3-7(4-5-8)6(2)9/h1,7H,4H2,2H3	InChI=1S/C7H7NO/c1-3-7(4-5-8)6(2)9/h1,7H,4H2,2H3/t7-/m1/s1
