17
gdb 66477	3.41555	1.5804	1.45368	1.7467	70.8	-0.2304	0.0715	0.3019	934.7535	0.135755	-421.742423	-421.735361	-421.734417	-421.773231	29.762	
O	-0.0380879093	 1.2979392554	 0.0602728191	-0.467715
C	 0.068824869	-0.0737870632	 0.0358868899	 0.413125
C	-1.0538533602	-1.0685244496	 0.1267726613	-0.153198
C	-0.2701029395	-0.949947431	-1.1752928189	-0.194564
C	 0.6356857162	-2.1643938605	-0.88911504	 0.405208
O	 0.5252117625	-3.2097004719	-1.7923034751	-0.483005
C	 1.9886885001	-1.6206266209	-0.3539795537	-0.317684
C	 1.1115540601	-0.9770924389	 0.7470795377	-0.135756
C	 0.019244144	-2.1037141357	 0.5751922605	-0.131794
H	 0.5936097093	 1.6672272873	-0.567442848	 0.284578
H	-2.1087985896	-0.9454303553	 0.3286351081	 0.094599
H	-0.5821366912	-0.5426009411	-2.1281850116	 0.088377
H	 1.0775931996	-3.9359578264	-1.4838568559	 0.27921
H	 2.6137789699	-2.4272329207	 0.0477747369	 0.087569
H	 2.5894967847	-0.974055632	-1.0027037803	 0.088365
H	 1.5029582205	-0.6679551179	 1.7144835845	 0.073401
H	-0.102459626	-2.9483905976	 1.2489875455	 0.069282
215.0437	258.0901	293.304	325.7135	365.6987	395.8365	447.2846	538.814	579.5806	646.7942	740.3855	749.5618	805.2708	840.6876	858.9767	889.3034	907.2866	912.8273	929.6442	948.5653	994.3902	1009.3531	1049.872	1077.9225	1101.3873	1117.9618	1158.5298	1175.4457	1195.2269	1204.6939	1223.8514	1265.46	1310.4264	1317.3568	1395.3739	1455.2394	1488.1227	3027.8023	3084.0228	3134.422	3147.2481	3201.5765	3214.4353	3784.8152	3805.8894
OC12C3C1C1(O)CC2C31	O[C@@]12[C@H]3[C@@H]1[C@@]1(O)C[C@@H]2[C@@H]31	
InChI=1S/C7H8O2/c8-6-1-2-3(6)4-5(6)7(2,4)9/h2-5,8-9H,1H2	InChI=1S/C7H8O2/c8-6-1-2-3(6)4-5(6)7(2,4)9/h2-5,8-9H,1H2/t2-,3+,4-,5-,6-,7+/m1/s1
