16
gdb 79173	2.94267	1.80298	1.34071	1.5744	66.81	-0.2487	-0.0349	0.2139	934.1361	0.125841	-437.849723	-437.842795	-437.841851	-437.881062	27.482	
O	-0.0075990752	 1.4450407252	 0.0582328199	-0.442032
C	 0.0147940229	 0.0377548774	 0.0655260205	 0.024443
C	-1.385900387	-0.5409224194	-0.0507627578	-0.043651
C	-1.5794751291	-1.2603530266	-1.3331817583	-0.057319
C	-0.1246314956	-1.7034909751	-1.6637746685	-0.18088
C	-0.2994981928	-2.6679920524	-0.4561168885	-0.170699
N	-1.5896803585	-2.0180564934	-0.0347966293	-0.153398
C	 0.6845102177	-0.5034933688	-1.2190807556	 0.389765
O	 1.5928303276	 0.0549026791	-1.77817026	-0.334777
H	 0.7545151457	 1.7199484375	-0.471301861	 0.295181
H	 0.5439765778	-0.3394021815	 0.9560857954	 0.098464
H	-2.2008571687	 0.0013003124	 0.4128363586	 0.119762
H	-2.4270718855	-1.2004919013	-2.0043414953	 0.108946
H	 0.1390900884	-2.1099092534	-2.6367327466	 0.100425
H	-0.524121914	-3.6854287757	-0.7802524948	 0.129782
H	 0.4865738764	-2.700324504	 0.3054487112	 0.115989
93.6262	220.7463	265.7985	352.075	385.4285	438.7595	466.6309	593.6541	672.6659	716.7378	773.4738	784.655	816.5262	850.8519	915.6257	933.8222	948.5773	1009.6938	1017.187	1046.1251	1067.5035	1138.97	1148.2627	1181.3909	1194.8723	1202.6663	1219.872	1257.7413	1272.392	1317.1118	1353.3783	1389.3781	1410.3296	1511.5615	1846.945	2965.5063	3052.1784	3118.9239	3155.392	3190.4953	3201.143	3739.0333
OC1C2C3C(CN23)C1=O	O[C@H]1[C@H]2[C@H]3[C@H](CN23)C1=O	
InChI=1S/C6H7NO2/c8-5-2-1-7-3(2)4(7)6(5)9/h2-4,6,9H,1H2	InChI=1S/C6H7NO2/c8-5-2-1-7-3(2)4(7)6(5)9/h2-4,6,9H,1H2/t2-,3+,4+,6-,7?/m0/s1
