17
gdb 54418	2.53408	1.4884	1.1923	1.9432	71.21	-0.2316	-0.0201	0.2115	1084.9397	0.132693	-458.93542	-458.92632	-458.925375	-458.96955	33.058	
C	-0.0659991203	 1.3966133306	 0.3027939733	-0.482415
C	-0.012372476	-0.0481389924	-0.1427043427	 0.30138
O	 1.0115880848	-0.6023188824	-0.4969262479	-0.338207
C	-1.2800320845	-0.7975954304	-0.0915655583	 0.260801
C	-1.5289471661	-2.1102131184	-0.8170564078	-0.405925
C	-1.6201273123	-2.11099842	 0.6673228384	 0.314347
O	-0.9154425514	-2.892680702	 1.5418635802	-0.439635
C	-2.849765845	-1.3480582907	 1.1346862369	-0.132746
O	-2.5147491132	-0.2001436923	 0.3071685101	-0.322643
H	 0.9336855112	 1.8293506201	 0.2561818826	 0.137025
H	-0.7531997645	 1.9630063143	-0.3353299965	 0.14887
H	-0.4642097867	 1.4658569498	 1.3203043302	 0.145685
H	-2.4122745576	-2.2005873308	-1.4452632214	 0.123314
H	-0.6117889008	-2.5331930743	-1.217813728	 0.144976
H	-0.3294090528	-3.4743074769	 1.0468639519	 0.304139
H	-3.8314645844	-1.7685815239	 0.8902096761	 0.114835
H	-2.8008066205	-1.0899283801	 2.1976775028	 0.126199
72.6151	97.3714	116.9667	172.6842	197.961	276.3734	362.2268	389.8868	432.3939	458.1983	507.3668	615.5995	625.5054	695.7855	763.5605	806.6928	926.3976	941.8637	957.4127	984.9648	1043.8184	1051.6224	1064.7256	1105.3441	1139.9589	1150.81	1176.2955	1303.2671	1354.1264	1380.8514	1397.7595	1420.8239	1455.9708	1467.8433	1475.2008	1514.3661	1768.8569	3035.742	3043.1761	3092.4914	3103.9111	3104.0795	3157.5496	3206.6164	3828.575
CC(=O)C12CC1(O)CO2	CC(=O)[C@@]12C[C@]1(O)CO2	
InChI=1S/C6H8O3/c1-4(7)6-2-5(6,8)3-9-6/h8H,2-3H2,1H3	InChI=1S/C6H8O3/c1-4(7)6-2-5(6,8)3-9-6/h8H,2-3H2,1H3/t5-,6-/m0/s1
