15
gdb 14694	5.30403	0.69996	0.62555	2.5411	69.89	-0.2698	0.0173	0.2872	1673.6619	0.117177	-362.640763	-362.631478	-362.630534	-362.677499	30.646	
O	-0.0070755815	 1.3324192274	 0.2855959123	-0.414346
C	-0.3337428606	-0.0240495402	 0.527409385	-0.064292
C	-0.8994728067	-0.5798146571	-0.7855049217	-0.325916
C	-1.2803211134	-1.9813340374	-0.6772503296	 0.061952
C	-1.5857864164	-3.1382453516	-0.5588760073	 0.090207
C	-1.9614037987	-4.544105926	-0.4293868457	-0.472621
C	-1.7085634865	-5.0836364979	 0.9139424104	 0.279234
N	-1.5139284531	-5.5176108798	 1.9659883726	-0.301757
H	 0.3512963512	 1.7065823306	 1.0955289579	 0.291986
H	 0.547543021	-0.6119297498	 0.823253275	 0.104211
H	-1.0859856326	-0.1294670989	 1.3229046041	 0.104203
H	-1.7635397105	 0.0291982225	-1.0767916094	 0.142652
H	-0.1462460745	-0.4484849435	-1.5714803518	 0.142653
H	-3.0262277773	-4.6834474654	-0.6571283239	 0.180916
H	-1.4116684806	-5.1604494829	-1.1526046679	 0.180917
10.6702	54.5464	87.923	153.2341	211.2734	240.8008	320.2275	367.6819	368.5241	392.9249	457.8782	600.383	794.4788	811.7047	928.0643	937.3859	1000.4588	1083.8252	1088.5412	1162.8821	1221.2389	1234.4513	1239.5454	1303.9135	1331.2351	1338.9208	1449.6786	1455.9631	1477.79	1528.5171	2370.2845	2384.0069	2987.0875	3018.7718	3023.6483	3034.6718	3053.0993	3073.1816	3835.4716
OCCC#CCC#N	OCCC#CCC#N	
InChI=1S/C6H7NO/c7-5-3-1-2-4-6-8/h8H,3-4,6H2	InChI=1S/C6H7NO/c7-5-3-1-2-4-6-8/h8H,3-4,6H2
