14
gdb 19773	3.27194	2.98857	2.50242	0.575	54.89	-0.229	0.0662	0.2952	630.4394	0.109699	-419.64088	-419.635552	-419.634608	-419.67018	21.549	
C	-0.0048915617	 1.5243269582	-0.0834402524	-0.06086
O	 1.2628394985	 2.0842599382	 0.2724040345	-0.27542
C	 2.2195558085	 1.1359260541	 0.64835422	 0.055445
C	 2.2473501856	-0.2164655698	-0.0346598731	-0.004523
O	 1.0794832949	-0.4948053019	-0.7788079745	-0.252852
C	 0.0394557332	 0.0060478293	 0.0493285695	 0.12214
O	 0.3976377402	-0.3256201095	 1.3835074704	-0.252852
C	 1.7923385784	-0.1035389189	 1.4082637027	-0.004525
H	-0.7764037872	 1.9344962096	 0.5804868842	 0.110603
H	-0.2407095643	 1.8015755005	-1.1187120701	 0.110607
H	 3.1580078472	 1.6137605987	 0.9069020732	 0.115019
H	 3.1314844524	-0.7157718923	-0.4084764558	 0.115482
H	-0.9031269411	-0.4793625036	-0.2099164458	 0.106254
H	 2.2819176054	-0.5048914326	 2.285742077	 0.115483
163.5165	389.3304	397.4134	576.3159	626.9987	713.6384	737.469	739.8855	765.5379	864.9202	875.2734	887.4376	963.9193	1002.1344	1034.6584	1053.4685	1082.8094	1086.7289	1107.0156	1112.3476	1141.2776	1217.1175	1234.0321	1257.4957	1307.2427	1355.0089	1364.0903	1390.6327	1434.7303	1505.2839	3013.5572	3055.4799	3111.4099	3175.9069	3199.664	3208.3432
C1OC2C3OC1OC23	C1O[C@@H]2[C@@H]3O[C@H]1O[C@H]23	
InChI=1S/C5H6O3/c1-2-7-4-3(6-1)5(4)8-2/h2-5H,1H2	InChI=1S/C5H6O3/c1-2-7-4-3(6-1)5(4)8-2/h2-5H,1H2/t2-,3+,4-,5+
