23
gdb 64479	2.54709	1.36195	1.14598	2.1412	81.43	-0.2511	0.0757	0.3268	1207.7968	0.205956	-425.438092	-425.428902	-425.427958	-425.47135	36.286	
C	 0.0028598619	 1.4947830016	 0.1114420949	-0.402175
C	-0.0120748187	-0.0309469421	-0.031905279	 0.356507
C	-1.4573227474	-0.5496824824	-0.0289435575	-0.408766
C	 0.7055964928	-0.4681569498	-1.3326545631	-0.23826
C	 2.2409194427	-0.4760069476	-1.2796227721	-0.213627
C	 2.8184940442	-1.7127870516	-0.5847455903	-0.068781
O	 2.5812349448	-1.7734928169	 0.8102143278	-0.227312
C	 1.2293304035	-1.7669979223	 1.1835294141	 0.011617
O	 0.6544178195	-0.4920607589	 1.1622399592	-0.276185
H	 1.0231875719	 1.8840880071	 0.0583619264	 0.12034
H	-0.5920341182	 1.9662092982	-0.6767411607	 0.107898
H	-0.4140666605	 1.7791958376	 1.0812110682	 0.123586
H	-2.0018794211	-0.1964925923	-0.9110434378	 0.111606
H	-1.4824555217	-1.6441751394	-0.0383989869	 0.111252
H	-1.9829089278	-0.2028052431	 0.8651494624	 0.119365
H	 0.3613924861	-1.4684513124	-1.6254710018	 0.091475
H	 0.3652264609	 0.2031966058	-2.1290884876	 0.099872
H	 2.6301892505	-0.4679655715	-2.3054187528	 0.09512
H	 2.622812646	 0.4250749259	-0.7880424471	 0.114381
H	 2.4194970688	-2.6198058475	-1.0723280632	 0.082942
H	 3.907180723	-1.7322531571	-0.693754013	 0.106254
H	 0.6566088984	-2.4819457736	 0.5682166177	 0.072148
H	 1.2139088303	-2.0914922778	 2.2274947622	 0.110744
87.7687	167.2439	220.7672	250.0419	268.941	300.7871	313.5405	325.0457	393.4242	402.7929	450.2683	483.6783	531.9541	621.1428	702.8158	810.8349	858.9914	890.6074	916.9238	930.6089	967.2133	985.8508	1010.494	1059.3389	1073.3001	1080.6906	1126.2847	1167.575	1185.0768	1198.0953	1237.5917	1271.8182	1301.3879	1306.3479	1345.5689	1370.5543	1386.8973	1397.7662	1409.776	1419.1975	1442.4516	1468.8835	1475.6719	1483.7485	1490.0704	1493.5955	1496.8871	1506.1648	1509.7916	2949.874	2956.7516	3020.6116	3030.3416	3033.9936	3044.4362	3063.0946	3077.6673	3083.0465	3090.9552	3101.2484	3114.5205	3118.7284	3122.6028
CC1(C)CCCOCO1	CC1(C)CCCOCO1	
InChI=1S/C7H14O2/c1-7(2)4-3-5-8-6-9-7/h3-6H2,1-2H3	InChI=1S/C7H14O2/c1-7(2)4-3-5-8-6-9-7/h3-6H2,1-2H3
