18
gdb 30708	3.08714	1.17355	0.87207	2.8451	76.75	-0.1789	0.0413	0.2203	1297.0261	0.146696	-439.113231	-439.103413	-439.102469	-439.148121	35.224	
C	-0.0562488383	 1.5291302632	 0.1251342031	-0.538045
C	 0.0239373877	 0.0359120477	 0.0249956719	 0.049644
C	 0.0777627232	-0.7460473974	-1.1161074304	 0.261455
C	 0.1097846517	-0.3910582232	-2.5642559958	-0.200854
O	-0.5512117672	-1.4298643385	-3.2881814965	-0.424756
N	 0.1771256925	-2.0540922655	-0.73343166	-0.294984
C	 0.1555485899	-2.1530955718	 0.6410294559	-0.18315
C	 0.0779910513	-0.8701228657	 1.1276164001	 0.250752
O	 0.0516724788	-0.5485962559	 2.4568200724	-0.450741
H	 0.8968528967	 1.9884593916	 0.4208353571	 0.124163
H	-0.3443743409	 1.9803778006	-0.8289283783	 0.126157
H	-0.8081008283	 1.845683749	 0.8607194393	 0.117653
H	-0.3793898278	 0.5826880853	-2.7168319959	 0.101618
H	 1.1478334128	-0.2880818383	-2.924186509	 0.09921
H	-0.3492979266	-1.3153044555	-4.2215581295	 0.289925
H	 0.0932243893	-2.8142080611	-1.3854378937	 0.263987
H	 0.1876691759	-3.1003515055	 1.1511546705	 0.115567
H	 0.0238077593	 0.409289481	 2.534784549	 0.292399
63.1701	91.8592	138.7051	164.813	207.0126	243.4116	260.8664	294.6545	325.4117	371.1094	503.4117	527.1235	593.7967	635.1841	661.5869	710.3634	745.1207	756.4938	938.0729	1012.9457	1039.29	1059.1495	1096.1962	1127.9045	1167.1735	1215.301	1231.1152	1253.3433	1309.7354	1355.5625	1416.8529	1437.8316	1467.9334	1485.3071	1499.2443	1507.4859	1516.9641	1575.3172	1664.9099	2946.7546	2996.9417	3002.9438	3042.9263	3096.4101	3280.1008	3687.4528	3827.5596	3839.1574
CC1=C(CO)NC=C1O	Cc1c(CO)[nH]cc1O	
InChI=1S/C6H9NO2/c1-4-5(3-8)7-2-6(4)9/h2,7-9H,3H2,1H3	InChI=1S/C6H9NO2/c1-4-5(3-8)7-2-6(4)9/h2,7-9H,3H2,1H3
