19
gdb 109184	4.33594	0.91036	0.76605	2.2969	80.57	-0.225	-0.0002	0.2247	1488.7833	0.159782	-415.407204	-415.397339	-415.396395	-415.442822	34.442	
C	-0.0149203477	 1.4037358785	 0.0559596225	-0.338677
N	 0.0180863148	-0.0482196044	-0.0174396632	-0.325596
C	-1.090454616	-0.6602523649	-0.0214096192	 0.405683
C	-1.3116638649	-2.1676074697	-0.0912825026	-0.262261
N	-2.765546988	-2.3756753962	-0.0678690034	-0.308739
C	-3.2974616538	-1.2152857806	 0.0026788984	 0.364521
C	-4.782655015	-0.9487185582	 0.0504522947	-0.273259
N	-5.6349023592	-2.125886177	 0.0116983932	-0.48228
N	-2.392959236	-0.1537909465	 0.0351822597	-0.395439
H	 1.0058252985	 1.7934668485	 0.052357266	 0.128491
H	-0.5430361011	 1.8548964982	-0.7994222459	 0.105697
H	-0.5030326743	 1.7662461531	 0.9749054017	 0.105666
H	-0.8754166453	-2.5896980643	-1.0032257528	 0.141295
H	-0.834727641	-2.6769701863	 0.753243318	 0.141293
H	-5.003291716	-0.3738187834	 0.9604982005	 0.126875
H	-5.0438764686	-0.2869866495	-0.7869742217	 0.126836
H	-5.4074478928	-2.6598876777	-0.8232517757	 0.239254
H	-5.3706814424	-2.7392634858	 0.778501451	 0.239236
H	-2.6346974512	 0.820458626	 0.0872998889	 0.261404
53.4287	68.3954	107.0939	151.9151	176.8202	210.223	233.1286	267.8369	346.7032	418.6905	486.9169	562.7009	647.3728	685.4471	710.6617	893.4574	915.7794	938.6357	975.7546	979.4875	1035.9229	1050.9602	1107.1921	1132.5301	1157.1612	1175.7561	1187.8658	1196.0673	1242.1561	1303.4195	1367.5837	1396.9019	1435.2867	1438.1175	1457.9888	1470.3365	1493.548	1506.1984	1679.5995	1707.4268	1782.0339	2962.6487	3008.0795	3013.6249	3043.6811	3048.0582	3078.4205	3102.3882	3491.8619	3555.8614	3676.9186
CN=C1CN=C(CN)N1	CN=C1CN=C(CN)N1	
InChI=1S/C5H10N4/c1-7-5-3-8-4(2-6)9-5/h2-3,6H2,1H3,(H,7,8,9)	InChI=1S/C5H10N4/c1-7-5-3-8-4(2-6)9-5/h2-3,6H2,1H3,(H,7,8,9)
