21
gdb 101586	3.93356	0.7116	0.67137	4.2392	76.42	-0.2616	-0.0237	0.2379	1744.9108	0.179086	-461.381441	-461.370538	-461.369594	-461.418511	38.563	
C	 0.5263490443	 1.5812264283	 0.099181917	-0.382717
C	 0.0370458492	 0.1514633668	-0.1456463643	-0.199721
C	 0.7587908166	-0.537899579	-1.307898309	 0.148017
O	 2.1690137811	-0.5880602378	-1.1052709589	-0.431013
C	 0.1954330443	-1.9498595593	-1.5863263535	-0.321309
C	 0.820687579	-2.5377342347	-2.8357517779	 0.37348
O	 0.4913312216	-2.1826196202	-3.948856784	-0.333901
C	 1.924321606	-3.566414983	-2.6765029488	-0.135977
O	 2.4073896711	-4.0015021813	-3.9101478472	-0.42076
H	 1.6042131106	 1.5991031844	 0.2799664876	 0.127358
H	 0.3268374162	 2.2170322826	-0.76990442	 0.122476
H	 0.0240059713	 2.0261886976	 0.9628747542	 0.114978
H	 0.174065467	-0.4556834377	 0.7620369959	 0.088251
H	-1.0402819816	 0.1510594552	-0.3503444377	 0.105434
H	 0.6317957068	 0.0578667147	-2.2194146811	 0.114447
H	 2.3293077626	-0.970153016	-0.2344354553	 0.279974
H	 0.3761613124	-2.5936950587	-0.7165280113	 0.097221
H	-0.8849571449	-1.8826895081	-1.7483882119	 0.130778
H	 2.7115965026	-3.0900664033	-2.0670078298	 0.121054
H	 1.532348949	-4.4083634442	-2.0807982877	 0.109085
H	 1.9176209448	-3.4795761964	-4.5664694766	 0.292844
37.167	62.4562	90.6274	117.845	163.6944	211.079	249.0978	271.0299	318.3395	327.3646	398.291	419.1191	458.8883	469.1286	562.3118	683.1111	780.5218	812.5915	849.4993	929.4508	978.636	998.5932	1013.2767	1055.7171	1099.2762	1108.8992	1134.5848	1145.9155	1224.7213	1248.9492	1262.3831	1281.4968	1314.2621	1338.1727	1363.7159	1380.7655	1409.0486	1424.3653	1447.2814	1467.78	1483.9571	1491.5227	1495.1325	1507.6882	1793.2123	2965.525	2984.6545	2998.3194	3031.242	3041.5948	3050.3477	3060.6736	3096.7224	3107.9695	3123.1555	3679.1049	3789.1912
CCC(O)CC(=O)CO	CC[C@@H](O)CC(=O)CO	
InChI=1S/C6H12O3/c1-2-5(8)3-6(9)4-7/h5,7-8H,2-4H2,1H3	InChI=1S/C6H12O3/c1-2-5(8)3-6(9)4-7/h5,7-8H,2-4H2,1H3/t5-/m1/s1
