12
gdb 15496	3.60544	2.00272	1.29786	1.2221	57.5	-0.2744	-0.0531	0.2213	848.6012	0.084724	-414.72421	-414.717643	-414.716699	-414.75526	23.271	
O	-0.0819125333	-0.0635787373	-0.0016372901	-0.288024
C	-0.0482854	 1.1393935647	 0.0073836462	 0.170101
N	 1.138866838	 1.869816346	 0.0001559501	-0.15554
C	 2.4446572779	 1.3457837606	-0.0180486147	 0.085819
N	 3.3829926239	 2.2053530549	-0.0215429669	-0.241253
C	 2.7491276929	 3.5250035797	-0.0043684203	-0.294462
C	 1.2384599379	 3.2852191241	 0.0101273743	 0.41135
O	 0.3152909126	 4.0525002965	 0.0261294589	-0.333984
H	-0.927462233	 1.8021972185	 0.0220624429	 0.136374
H	 2.5701459638	 0.2703218209	-0.0278060389	 0.177398
H	 3.0578168443	 4.0972371187	 0.8770859563	 0.166111
H	 3.0387381148	 4.1109734026	-0.8832694977	 0.166109
124.9213	181.9438	197.3032	261.0541	384.9	475.5852	589.627	604.4317	666.7498	780.1025	904.9986	936.1714	982.475	1003.1861	1049.5242	1070.3912	1187.1477	1195.2518	1276.7421	1302.274	1373.8247	1418.2182	1436.0938	1688.5447	1815.5895	1866.7012	3031.5958	3057.8544	3093.5457	3232.87
O=CN1C=NCC1=O	O=CN1C=NCC1=O	
InChI=1S/C4H4N2O2/c7-3-6-2-5-1-4(6)8/h2-3H,1H2	InChI=1S/C4H4N2O2/c7-3-6-2-5-1-4(6)8/h2-3H,1H2
