25
gdb 72481	2.36776	1.67321	1.3891	0.0864	90.63	-0.2835	0.0745	0.358	1110.1236	0.233185	-352.401105	-352.393051	-352.392106	-352.432782	34.404	
C	-0.0603888529	 1.5173750846	 0.0166606505	-0.461315
C	 0.0121112538	-0.0089988642	-0.0153909397	 0.333254
C	 0.8559532511	-0.5478172785	-1.2065928091	-0.23574
C	 1.492188398	-1.8825162291	-0.7131758836	-0.220436
C	 0.9708668551	-2.0706129321	 0.7355393265	 0.006042
C	 0.7612496438	-0.6163233533	 1.1913552523	-0.228314
C	-0.3815906522	-2.8082929137	 0.7710102581	-0.197393
C	-1.4081795773	-2.1477648965	-0.1666153253	-0.207736
C	-1.4130496128	-0.613746435	-0.0407828382	-0.21648
H	 0.9403170693	 1.9586321019	 0.086533038	 0.10497
H	-0.5368266508	 1.9129865763	-0.8879721557	 0.107494
H	-0.6421657612	 1.8705621831	 0.8759035457	 0.106878
H	 0.2460678273	-0.6797868112	-2.1062160475	 0.091299
H	 1.6365515045	 0.1762191537	-1.462534882	 0.088348
H	 1.2382885129	-2.7329988554	-1.353793608	 0.091882
H	 2.5839299099	-1.8064212831	-0.711987648	 0.092074
H	 1.6946404845	-2.6051151742	 1.3588091511	 0.053371
H	 1.7242396169	-0.1100667095	 1.3352772917	 0.079455
H	 0.1981747918	-0.532928758	 2.1278071762	 0.08172
H	-0.2498536617	-3.8608188228	 0.4925999661	 0.086123
H	-0.7581834631	-2.8028267242	 1.802522724	 0.087447
H	-1.1715178028	-2.4202918687	-1.2023874781	 0.09825
H	-2.4110356329	-2.5455986577	 0.0246834245	 0.088134
H	-1.9289243383	-0.3175210453	 0.882896201	 0.086266
H	-1.9875988429	-0.178026927	-0.8682486805	 0.084407
171.8808	233.4176	256.9016	273.58	300.7641	371.8713	389.6948	424.6296	435.536	520.341	585.1626	718.6237	755.225	781.4708	814.6049	867.3486	874.0966	882.4377	897.5327	926.7893	954.269	980.0027	999.2572	1014.1728	1031.0734	1062.894	1075.5077	1095.4533	1133.4366	1152.1926	1174.0711	1211.4541	1234.7472	1253.481	1278.4498	1287.2056	1296.9059	1303.1213	1333.3721	1347.5911	1350.2518	1373.1585	1382.4139	1390.3284	1413.3301	1479.0222	1482.9095	1491.0194	1494.7316	1495.7724	1496.2297	1500.9825	1518.7623	3006.2038	3014.1163	3016.8398	3021.106	3025.5186	3035.439	3044.6023	3046.1157	3051.8053	3059.5326	3064.9532	3067.3436	3070.488	3084.4291	3087.0834	3091.4099
CC12CCC(C1)CCC2	C[C@@]12CC[C@@H](C1)CCC2	
InChI=1S/C9H16/c1-9-5-2-3-8(7-9)4-6-9/h8H,2-7H2,1H3	InChI=1S/C9H16/c1-9-5-2-3-8(7-9)4-6-9/h8H,2-7H2,1H3/t8-,9+/m0/s1
