18
gdb 93291	2.09118	1.87953	1.27391	5.4712	71.42	-0.254	0.0026	0.2565	1044.4205	0.148652	-439.102817	-439.094651	-439.093707	-439.135635	30.836	
C	 0.0763826887	 1.6367056214	-0.052919033	-0.396468
C	-0.0007322535	 0.1066106064	 0.0330417037	-0.12195
C	 0.8028128114	-0.5719231961	-1.0989018097	-0.091294
O	 2.1259982799	-0.7937775752	-0.5783213824	-0.233211
C	 2.1116345775	-0.8059780106	 0.7838085896	 0.448414
O	 3.0783497303	-1.047610752	 1.4437074134	-0.345691
C	 0.7179381453	-0.4551947849	 1.2497674918	 0.16239
C	 0.4681813581	-0.099832905	 2.6637477854	-0.286091
N	 0.123334587	-1.4444092976	 2.1800985746	-0.344253
H	 1.1172842316	 1.9769001477	-0.0540078389	 0.137895
H	-0.396251567	 1.9970535838	-0.9722426822	 0.12074
H	-0.4292610653	 2.1085445786	 0.7941742074	 0.122954
H	-1.0477226706	-0.2122144069	 0.0018981814	 0.083781
H	 0.3744573936	-1.5384523566	-1.3869283997	 0.120589
H	 0.8994001764	 0.0526705389	-1.9897509069	 0.123728
H	 1.3142468141	-0.0695622196	 3.3436315338	 0.147864
H	-0.3323706219	 0.6040580398	 2.8759949177	 0.116994
H	-0.8781557157	-1.4956812722	 2.0012788941	 0.233609
71.7099	169.4473	201.628	245.1292	252.3544	265.1077	333.0305	467.217	504.7097	570.3713	705.9107	712.3872	744.5145	842.9343	879.7275	889.6029	946.057	963.4805	981.5761	1009.3627	1046.8279	1063.5873	1098.3416	1142.7973	1146.5145	1164.9549	1241.5718	1264.358	1275.2704	1325.1491	1348.2989	1381.567	1406.9017	1426.214	1492.5518	1498.2502	1503.0162	1519.4558	1889.2806	3036.7488	3039.7295	3054.9564	3106.3886	3107.8919	3112.0198	3115.8013	3206.3343	3479.7953
CC1COC(=O)C11CN1	C[C@H]1COC(=O)[C@]21CN2	
InChI=1S/C6H9NO2/c1-4-2-9-5(8)6(4)3-7-6/h4,7H,2-3H2,1H3	InChI=1S/C6H9NO2/c1-4-2-9-5(8)6(4)3-7-6/h4,7H,2-3H2,1H3/t4-,6+/m0/s1
