19
gdb 58030	1.87293	1.55824	1.02355	3.4534	78.86	-0.2305	0.013	0.2434	1230.4811	0.156506	-419.185959	-419.17556	-419.174615	-419.221133	37.962	
C	 1.090309701	-0.5461357334	-0.6257537846	-0.323906
N	-0.0795102194	 0.0276666856	 0.0344524654	-0.090581
C	 0.0003854267	 1.4870828353	 0.0412747652	-0.326366
C	-1.3633740032	-0.4110982972	-0.5375292045	-0.218648
C	-1.4178289418	-1.8527113438	-0.7728529678	 0.308013
C	-1.5123876961	-3.0350193958	-0.9656512384	-0.425024
C	-2.5491141697	-0.0517322341	 0.4110737838	 0.370647
N	-2.2415161932	-0.2068702591	 1.7220884343	-0.497578
O	-3.6295342207	 0.2881640095	-0.0190232582	-0.3575
H	 1.9895477116	-0.2129487628	-0.0991357848	 0.118866
H	 1.0473227969	-1.635040812	-0.587231517	 0.141306
H	 1.1811580841	-0.2381870682	-1.6828926482	 0.099963
H	 0.0146298436	 1.9152334346	-0.9772023801	 0.106486
H	-0.8513393316	 1.9126622661	 0.5776880293	 0.135614
H	 0.9155461883	 1.7970554035	 0.5535687642	 0.121883
H	-1.590174055	 0.1051690595	-1.4868549502	 0.108606
H	-1.5961994324	-4.0792451359	-1.1407612958	 0.200388
H	-1.2847742798	-0.3911424359	 1.978800852	 0.265508
H	-2.9340152193	 0.0092652543	 2.4189348054	 0.262324
59.5614	94.676	144.3798	173.6421	194.0907	243.29	255.9338	314.1005	354.2891	363.7029	392.034	422.9482	457.5731	554.2619	575.1654	619.0972	644.2329	663.4133	751.9804	876.8706	899.4469	992.9807	1057.0393	1066.0071	1097.5843	1122.9069	1182.222	1224.2688	1284.7324	1291.6851	1335.9829	1344.6488	1442.2744	1473.7763	1484.4435	1495.7709	1501.0882	1512.5317	1589.0669	1821.7872	2235.3383	2945.7453	2948.7531	2955.0839	3076.2415	3078.928	3122.5609	3142.0903	3502.5561	3585.3792	3730.1538
CN(C)C(C#C)C(N)=O	CN(C)[C@@H](C#C)C(=O)N	
InChI=1S/C6H10N2O/c1-4-5(6(7)9)8(2)3/h1,5H,2-3H3,(H2,7,9)	InChI=1S/C6H10N2O/c1-4-5(6(7)9)8(2)3/h1,5H,2-3H3,(H2,7,9)/t5-/m0/s1
