22
gdb 101116	3.34224	1.00743	0.94054	2.7921	81.69	-0.2286	0.0741	0.3027	1357.4968	0.193645	-404.299831	-404.290221	-404.289277	-404.334503	36.004	
C	 0.0972021513	 1.6010440493	-0.0298624656	-0.407826
C	 0.081663466	 0.0672278392	-0.0059575098	-0.078465
C	 0.6120046667	-0.5297544725	-1.3132350667	-0.076642
O	-0.207989327	-0.0696208373	-2.3773263545	-0.422128
C	 0.8360952462	-0.5095568517	 1.1682149354	 0.36501
C	 0.4045072342	-1.733513442	 1.8779274596	-0.292314
N	 0.295982604	-0.4442979886	 2.5914352667	-0.174601
C	 1.6948376609	-0.14669121	 3.0626455817	-0.148458
C	 2.2548270619	-0.1324837172	 1.6173386035	-0.31906
H	 1.1128400119	 1.9902266355	-0.1661496495	 0.105638
H	-0.5109321705	 1.9706969088	-0.8577527005	 0.133187
H	-0.2996409106	 2.000916529	 0.9075222336	 0.124626
H	-0.9617054451	-0.2596364749	 0.0941919434	 0.088893
H	 1.6614608904	-0.2231394032	-1.4599848619	 0.084327
H	 0.5970052531	-1.6291231186	-1.2469778036	 0.086146
H	 0.1547792688	-0.4018043291	-3.2032658827	 0.286414
H	-0.5619338305	-2.1535990429	 1.6152973478	 0.117339
H	 1.1374140943	-2.4630549776	 2.2200799419	 0.102974
H	 1.7233594624	 0.8266036441	 3.5563169569	 0.111083
H	 2.0938980572	-0.9035414231	 3.7466842743	 0.102004
H	 3.04916458	-0.8413445831	 1.3648231165	 0.098504
H	 2.5637729645	 0.8644694461	 1.2992563134	 0.113347
51.87	102.2953	131.031	220.2729	227.5464	241.2399	271.6165	289.362	344.2739	459.5257	481.8072	490.2887	690.0693	751.9332	777.8977	812.3153	851.9234	898.1557	928.4744	932.5996	970.6978	1001.3812	1020.2021	1074.7643	1079.4235	1102.73	1109.7175	1126.361	1166.6299	1194.1653	1219.2772	1229.7917	1247.1722	1268.1734	1277.609	1300.0707	1333.8373	1354.9371	1399.3008	1407.8407	1457.3267	1484.9371	1493.5799	1497.3961	1504.3542	1518.0918	1521.663	2956.6945	2989.1028	3026.9706	3036.7297	3042.3048	3055.055	3091.2504	3101.6501	3105.2041	3122.9023	3134.955	3188.3892	3833.1184
CC(CO)C12CN1CC2	C[C@@H](CO)[C@]12CN1CC2	
InChI=1S/C7H13NO/c1-6(4-9)7-2-3-8(7)5-7/h6,9H,2-5H2,1H3	InChI=1S/C7H13NO/c1-6(4-9)7-2-3-8(7)5-7/h6,9H,2-5H2,1H3/t6-,7-,8?/m0/s1
