16
gdb 34181	4.37199	1.45815	1.30529	4.6123	76.	-0.249	0.0272	0.2762	959.3015	0.126797	-363.585733	-363.579374	-363.57843	-363.616318	26.317	
N	 0.1291130659	-1.0688197319	-0.0009781906	-0.347187
C	 0.0568586237	 0.0863870768	-0.0112070595	 0.172598
C	-0.0378267849	 1.5132153047	-0.0281208498	 0.202888
C	-1.1115293102	 2.2325247519	-0.8315154711	-0.297008
C	-0.7351833257	 3.6573217661	-0.4836542547	-0.083813
C	-0.1678682304	 3.7439813056	 0.920131087	-0.09214
C	 0.7615546407	 3.7915804669	-0.2793470917	-0.092081
C	 1.2427397089	 2.3575302563	 0.0455562726	-0.114535
C	 0.322439437	 2.3105392022	 1.2338825951	-0.114497
H	-1.0290518479	 2.0216889422	-1.9023894853	 0.120859
H	-2.1186916398	 1.9660743939	-0.4958768836	 0.12086
H	-1.2887122839	 4.5002239745	-0.8791761764	 0.098331
H	-0.4155169052	 4.5098639583	 1.6410436021	 0.100185
H	 1.367549229	 4.6011798465	-0.6600564516	 0.100191
H	 2.2298362036	 1.939173901	-0.089377902	 0.112673
H	 0.4556320494	 1.848588155	 2.2015831297	 0.112677
152.7063	159.3798	384.4964	489.4275	506.3439	536.7444	571.1111	706.848	724.9766	746.7257	765.1812	808.9511	832.0248	863.1943	905.9841	941.5632	947.4248	982.1992	983.0279	1019.4913	1020.4787	1041.6188	1075.9025	1088.4559	1140.3596	1185.9104	1209.7901	1211.9755	1263.6209	1280.4959	1308.2777	1341.6346	1392.4663	1493.4542	2349.0648	3052.6237	3098.5996	3194.4933	3209.5951	3219.8758	3220.9808	3229.9442
N#CC12CC3C4C3C1C24	N#C[C@]12C[C@H]3[C@@H]4[C@H]3[C@H]1[C@H]24	
InChI=1S/C8H7N/c9-2-8-1-3-4-5(3)7(8)6(4)8/h3-7H,1H2	InChI=1S/C8H7N/c9-2-8-1-3-4-5(3)7(8)6(4)8/h3-7H,1H2/t3-,4+,5-,6+,7-,8-
