17
gdb 17064	3.91481	1.54944	1.3201	2.8414	65.66	-0.2366	0.0677	0.3043	967.6731	0.141888	-400.90112	-400.893439	-400.892495	-400.933243	28.612	
C	 0.0366483314	 1.3149305964	-0.2122405366	-0.242364
O	-0.0460685933	 0.0354742008	 0.3743266079	-0.244191
C	-1.2832625488	-0.5669242782	 0.1960998782	 0.217386
C	-1.5807041192	-1.4023141747	-1.0959655748	-0.140909
N	-0.550630179	-2.3956977591	-0.5986800996	-0.312862
C	-1.3850127224	-2.0478271877	 0.6246949498	-0.10942
C	-2.6573597939	-2.1623689484	-0.2507136865	 0.116206
O	-3.8244442694	-1.5365278589	 0.2149166468	-0.430297
H	 1.0148137958	 1.7266898425	 0.0462021153	 0.128791
H	-0.0502363947	 1.2713889429	-1.3082194065	 0.106511
H	-0.7461861471	 1.9896360314	 0.1694075372	 0.102739
H	-2.1050687351	 0.0788298317	 0.5221254995	 0.084737
H	-1.6215327726	-1.084845631	-2.139290513	 0.075876
H	-0.8074446079	-3.3365641099	-0.9208885773	 0.202724
H	-1.1885621554	-2.4822775555	 1.6051001263	 0.086539
H	-2.8466079036	-3.1834524073	-0.6103043233	 0.070474
H	-4.482388085	-1.5600579849	-0.4871776133	 0.288059
77.0705	172.0486	180.1741	258.0952	281.2025	350.8069	367.3592	448.1324	589.859	633.2909	781.5916	843.2023	873.6825	890.0306	907.8684	951.5824	1038.8311	1058.2802	1102.0817	1119.5309	1135.9915	1156.7587	1163.0398	1182.6432	1193.9326	1221.1558	1234.5576	1244.2283	1281.6539	1307.26	1321.0181	1410.4351	1439.1916	1484.6076	1490.5968	1509.4172	2973.2974	3009.5649	3022.0132	3062.2001	3101.445	3118.4382	3119.6459	3355.5855	3818.2757
COC1C2NC1C2O	CO[C@H]1[C@H]2N[C@@H]1[C@H]2O	
InChI=1S/C5H9NO2/c1-8-5-2-4(7)3(5)6-2/h2-7H,1H3	InChI=1S/C5H9NO2/c1-8-5-2-4(7)3(5)6-2/h2-7H,1H3/t2-,3+,4-,5-
