21
gdb 54380	3.77978	1.06681	0.9716	2.902	84.41	-0.2351	-0.0133	0.2217	1309.7812	0.180887	-387.073179	-387.063826	-387.062882	-387.108245	34.956	
C	-0.0751688059	 1.4648200827	 0.0111189528	-0.493157
C	-0.0026957853	-0.052070612	 0.002849178	 0.242997
O	 1.05232157	-0.6473313671	-0.0121653186	-0.295886
C	-1.3097055969	-0.7901020555	 0.0111487793	 0.27151
C	-2.4547044758	-0.7133002696	-1.052965152	-0.297416
C	-2.9457645082	-1.7353232973	 0.020677608	 0.324181
C	-4.2449221552	-2.494985632	 0.028357997	-0.507474
C	-1.4997857488	-2.3273753771	 0.0070532578	-0.292142
C	-2.4376744076	-0.7209180257	 1.0936474814	-0.297595
H	 0.9324312974	 1.8820845305	 0.0020775126	 0.140377
H	-0.6328150329	 1.8250459039	-0.8605873114	 0.139863
H	-0.6133471791	 1.8161563102	 0.8985312198	 0.139849
H	-3.0048522079	 0.2300600118	-1.1194584477	 0.089435
H	-2.2178834744	-1.1133054643	-2.0430013638	 0.097432
H	-4.3317172718	-3.1323653013	-0.8583967715	 0.121091
H	-4.3174391268	-3.1388102268	 0.9117348408	 0.121094
H	-5.1023750621	-1.8131066706	 0.0377671294	 0.118006
H	-1.1914733069	-2.8524655654	-0.9005504326	 0.095586
H	-1.1772097751	-2.8589224316	 0.9059051134	 0.095493
H	-2.1853560803	-1.1279321494	 2.0769874545	 0.09734
H	-2.9866518064	 0.2219025765	 1.1755520429	 0.089415
22.3391	114.9288	135.4251	144.1893	208.7454	291.2628	319.8496	349.9352	461.0991	526.4816	555.2607	596.4967	607.153	631.871	773.0611	792.2553	908.3928	933.9003	937.7921	958.687	987.324	993.8938	1031.1928	1043.7807	1078.3246	1084.539	1136.0352	1139.4083	1161.2786	1161.727	1191.9516	1203.2541	1209.1599	1307.1595	1355.4155	1384.0527	1412.8265	1462.6787	1473.4573	1489.2351	1490.3404	1495.0009	1495.6233	1556.5346	1797.4225	3026.5443	3037.3549	3040.9623	3045.097	3057.5639	3094.7435	3095.5327	3097.9881	3108.383	3112.5297	3121.4634	3151.4021
CC(=O)C12CC(C)(C1)C2	CC(=O)[C@@]12C[C@@](C)(C1)C2	
InChI=1S/C8H12O/c1-6(9)8-3-7(2,4-8)5-8/h3-5H2,1-2H3	InChI=1S/C8H12O/c1-6(9)8-3-7(2,4-8)5-8/h3-5H2,1-2H3/t7-,8-
