14
gdb 124004	3.78332	1.6502	1.16906	4.8226	72.54	-0.2006	-0.0566	0.1439	965.857	0.103552	-432.845401	-432.838884	-432.83794	-432.876292	25.453	
C	 0.11088694	 1.4504788329	 0.3046419793	-0.227781
N	 1.0865229565	 2.1490147914	-0.5483047648	-0.405243
C	 2.1781005333	 1.3867609356	-0.9073790532	 0.276546
C	 2.1288245138	 0.0244368845	-1.0018114844	 0.351186
O	 3.3071109767	-0.3994666484	-1.4644709862	-0.224906
N	 4.1035758425	 0.7685048296	-1.6546106266	-0.036462
N	 3.4101453369	 1.7856807686	-1.3234937858	-0.221301
C	 0.9336959631	-0.7101233918	-0.6890643819	-0.176184
C	-0.0523337773	-0.0032753735	-0.1098805964	-0.06773
H	 0.3920893959	 1.4829961852	 1.376444429	 0.110703
H	-0.8486365932	 1.9705997417	 0.2199158483	 0.126224
H	 1.2944497817	 3.0978233032	-0.2732624112	 0.254333
H	 0.8339094719	-1.7594396394	-0.9377090196	 0.124362
H	-0.9919149818	-0.4781578395	 0.1501891935	 0.116253
134.629	185.3722	341.5241	390.6681	422.7338	492.4421	560.5275	606.0779	652.2809	686.9843	710.0721	768.0256	785.3553	867.3842	907.9469	979.1028	1015.2617	1036.058	1069.4067	1181.0471	1230.8299	1271.1634	1293.2786	1324.5539	1357.3677	1380.3365	1468.431	1506.2799	1546.8778	1638.3748	1677.0344	2889.0592	3060.6997	3191.8919	3216.1535	3608.9772
C1NC2=C(ON=N2)C=C1	C1Nc2c(onn2)C=C1	
InChI=1S/C5H5N3O/c1-2-4-5(6-3-1)7-8-9-4/h1-2,6H,3H2	InChI=1S/C5H5N3O/c1-2-4-5(6-3-1)7-8-9-4/h1-2,6H,3H2
