20
gdb 103674	3.79087	0.98158	0.93299	3.7124	79.69	-0.2607	0.0302	0.291	1325.9378	0.169526	-403.150264	-403.140722	-403.139777	-403.184629	35.245	
C	-0.2182402121	 1.560019836	 0.2646925052	-0.255939
O	-0.049935553	 0.1601011545	 0.350253934	-0.284077
C	-1.143646368	-0.6198225002	-0.0865942195	 0.43893
C	-2.4056212615	-0.3973019086	 0.7445175315	-0.463443
C	-1.3978417392	-0.6179504069	-1.6312594902	-0.290018
C	-1.3243976816	-2.1820367198	-1.6225694145	-0.162313
C	-0.7197963676	-2.1072268479	-0.180955404	-0.284945
C	-2.6178444663	-2.8422579613	-1.7017422685	 0.280426
N	-3.6515446985	-3.3590380534	-1.7550147131	-0.336584
H	 0.7518305304	 2.0074333858	 0.4937451711	 0.131183
H	-0.5200815626	 1.8775998797	-0.7445509026	 0.107617
H	-0.9558906792	 1.9413948191	 0.9833947429	 0.114421
H	-2.8062749891	 0.6119076746	 0.6097808399	 0.12026
H	-3.1889454571	-1.102618517	 0.4524188796	 0.144819
H	-2.1846105367	-0.5465385889	 1.806153361	 0.126771
H	-2.3249455836	-0.1749178774	-1.997861398	 0.120905
H	-0.5472736642	-0.1972398324	-2.1709892067	 0.118075
H	-0.6660046037	-2.6173410146	-2.3770045831	 0.126779
H	 0.3674135657	-2.1924943879	-0.2084732039	 0.124338
H	-1.1271936319	-2.7933151935	 0.5627588086	 0.122794
67.823	105.4323	135.6642	189.69	221.9381	258.1118	281.1833	340.4908	361.2144	400.3229	466.5593	519.2596	569.2662	653.8458	782.5822	818.2607	840.2316	913.3095	917.0825	945.9049	967.2747	1015.4106	1089.6452	1105.0872	1147.2533	1162.2848	1181.3928	1186.5006	1210.6856	1234.7552	1254.7875	1281.7024	1306.0109	1348.2229	1411.1927	1461.6669	1475.4269	1481.2332	1487.2487	1491.5853	1508.1358	1511.6632	2349.3291	2989.4048	3037.6211	3045.312	3075.4257	3082.8592	3091.1189	3111.3932	3116.1296	3118.7277	3140.5435	3148.0285
COC1(C)CC(C1)C#N	CO[C@@]1(C)C[C@@H](C1)C#N	
InChI=1S/C7H11NO/c1-7(9-2)3-6(4-7)5-8/h6H,3-4H2,1-2H3	InChI=1S/C7H11NO/c1-7(9-2)3-6(4-7)5-8/h6H,3-4H2,1-2H3/t6-,7-
