22
gdb 7578	2.97572	1.58284	1.48974	1.5543	77.37	-0.2386	0.0762	0.3147	1026.6282	0.198642	-350.202514	-350.193115	-350.192171	-350.236271	35.076	
C	-1.6190906326	-0.2865245413	 0.1475856078	-0.404893
C	-0.1299787099	 0.0651925265	 0.022606757	 0.009092
C	 0.0863483844	 1.5777535982	-0.1213915619	-0.406639
C	 0.7164699156	-0.5321966153	 1.1629651637	 0.452468
C	 0.3577916631	-0.0279678012	 2.5554362041	-0.445554
C	 0.9419213003	-2.0667246111	 1.0624614958	-0.335473
C	 2.4135927302	-1.7008999804	 0.801078091	-0.070476
O	 2.1355246094	-0.2915674152	 0.896241794	-0.327066
H	-2.0832984303	 0.2249185877	 0.9974327057	 0.117068
H	-2.1607639457	 0.0203656299	-0.7527491366	 0.114164
H	-1.7757109292	-1.3628661113	 0.2776435289	 0.111505
H	 0.2504648183	-0.4058158812	-0.8942586553	 0.068912
H	-0.3562424493	 2.1325076743	 0.7130290564	 0.110338
H	 1.1534260144	 1.8102882431	-0.1620194276	 0.135479
H	-0.3813662529	 1.9447083179	-1.0407358356	 0.106619
H	-0.6718954293	-0.2886995305	 2.8200975369	 0.116062
H	 1.024555394	-0.475894177	 3.2976639043	 0.115592
H	 0.4669423597	 1.0581981445	 2.6206534458	 0.125815
H	 0.7514605629	-2.6261617568	 1.9802232188	 0.104089
H	 0.4265839884	-2.5544375735	 0.2327380753	 0.104918
H	 3.1282648474	-2.0299485065	 1.5658834665	 0.098639
H	 2.807255391	-1.9769308308	-0.1850339248	 0.099342
65.792	88.7461	190.773	218.8107	243.5303	245.9737	277.4923	308.8746	342.8539	426.5881	463.0811	473.643	652.548	786.9722	827.3087	876.19	891.5858	929.5733	934.1275	965.2901	971.7439	995.5128	1028.5879	1074.9517	1103.3971	1154.5959	1164.6026	1183.5427	1213.1349	1217.3932	1264.7348	1294.7622	1344.1084	1352.6723	1377.1397	1394.414	1408.4776	1416.6276	1480.9744	1487.3626	1488.4599	1492.5483	1503.2988	1507.6243	1513.4312	1531.4982	3005.7555	3011.496	3029.7001	3035.4476	3041.9968	3047.142	3073.1937	3094.3286	3096.6625	3101.3505	3112.2687	3118.4968	3123.3905	3127.0949
CC(C)C1(C)CCO1	CC(C)[C@@]1(C)CCO1	
InChI=1S/C7H14O/c1-6(2)7(3)4-5-8-7/h6H,4-5H2,1-3H3	InChI=1S/C7H14O/c1-6(2)7(3)4-5-8-7/h6H,4-5H2,1-3H3/t7-/m1/s1
