16
gdb 125045	2.28211	1.88334	1.03987	6.2703	76.35	-0.214	-0.0293	0.1847	1088.571	0.125775	-434.10325	-434.094832	-434.093888	-434.136045	31.532	
C	-0.0129745471	 1.5464773985	 0.0213978218	-0.528427
C	-0.0078394285	 0.0436820737	 0.0238687986	 0.088136
C	-1.1609793133	-0.6976246016	 0.0437561227	 0.347973
N	-2.4394095632	-0.1630623271	 0.1317956308	-0.585838
N	-1.107034853	-2.0647052098	 0.02797911	-0.288219
N	 0.0248797307	-2.7937915922	 0.0033220347	-0.188171
C	 1.1342054759	-2.1274693793	-0.0196268684	-0.075194
C	 1.2624370511	-0.6589807104	-0.0042885413	 0.30067
O	 2.3636611487	-0.110992122	-0.027658293	-0.406622
H	 1.0188770483	 1.8853406435	-0.0905759118	 0.16742
H	-0.602893969	 1.962435299	-0.8064194994	 0.11306
H	-0.4087380835	 1.9661354582	 0.954810582	 0.127702
H	-2.4696956952	 0.8318285387	-0.0363012273	 0.267901
H	-3.148804735	-0.6464405587	-0.4032173889	 0.255007
H	-1.9460488082	-2.6101304332	 0.1430038786	 0.27068
H	 2.0469415713	-2.7145917376	-0.0457178891	 0.133923
110.6511	127.6805	193.4111	236.4299	283.1196	299.5782	345.9903	436.1837	481.2933	521.8338	562.8207	574.2365	608.3658	674.3412	707.0051	774.461	852.3196	938.4401	944.7949	1055.8837	1067.0047	1129.1691	1173.4227	1236.7401	1309.2771	1353.2007	1383.9152	1403.7609	1485.4414	1501.7867	1534.8164	1633.9039	1639.7372	1671.846	1714.0756	3008.1323	3055.8138	3132.2208	3188.7586	3556.27	3640.9364	3659.6347
CC1=C(N)NN=CC1=O	Cc1c(N)[nH]ncc1=O	
InChI=1S/C5H7N3O/c1-3-4(9)2-7-8-5(3)6/h2H,1H3,(H3,6,8,9)	InChI=1S/C5H7N3O/c1-3-4(9)2-7-8-5(3)6/h2H,1H3,(H3,6,8,9)
