19
gdb 39561	2.69816	2.07794	1.63555	0.2292	82.65	-0.2197	0.02	0.2398	900.7476	0.163381	-348.760712	-348.754294	-348.75335	-348.791049	27.796	
C	 0.0039398438	 1.5355891773	-0.1064078214	-0.289431
C	 1.3928026832	 2.1197589267	-0.0037787979	-0.04376
C	 2.3348690772	 1.5652924429	 0.7579313878	-0.063917
C	 2.0335934361	 0.3114731461	 1.5649838974	-0.123591
C	 1.1524105956	 0.6690712135	 2.7589927415	-0.070492
C	-0.0728807698	 0.1488199007	 2.6527434701	-0.091274
C	-0.2153194912	-0.6809327788	 1.424605656	-0.100485
C	-0.0132533284	 0.015005012	 0.0738967324	-0.030173
C	 1.1441602614	-0.6550483562	 0.7590657095	-0.072181
H	-0.6377649419	 2.0085945548	 0.6506893214	 0.11662
H	-0.4360803559	 1.7927042516	-1.0755805681	 0.098929
H	 1.5996988155	 3.0265229456	-0.5655884918	 0.084609
H	 3.3208878557	 2.012188329	 0.8448973564	 0.083278
H	 2.9680318332	-0.1657787688	 1.8788911591	 0.072515
H	 1.4842408771	 1.3588748334	 3.5267966153	 0.093306
H	-0.885814518	 0.3152718125	 3.3508292282	 0.090853
H	-0.8342933649	-1.5714032863	 1.4404245367	 0.080075
H	-0.428209227	-0.5328826191	-0.7671655745	 0.0845
H	 1.5970985184	-1.5365951469	 0.322109762	 0.080619
169.9654	238.9695	356.5991	451.9422	482.1369	565.4056	584.8307	667.8576	706.0418	727.9487	774.7945	779.423	805.387	857.7925	891.7581	929.945	937.0712	949.2234	966.0664	982.4112	1001.5934	1014.5786	1044.9517	1055.4912	1059.0774	1105.3804	1136.1669	1182.67	1185.6353	1232.9593	1269.052	1290.008	1302.1083	1331.7513	1350.6365	1374.026	1396.5717	1408.512	1469.52	1658.5041	1704.247	3004.4426	3041.4429	3060.5782	3142.6742	3153.6694	3163.5157	3177.6726	3180.4982	3183.7306	3208.8677
C1C=CC2C=CC3C1C23	C1C=C[C@H]2C=C[C@H]3[C@@H]1[C@@H]23	
InChI=1S/C9H10/c1-2-6-4-5-8-7(3-1)9(6)8/h1-2,4-9H,3H2	InChI=1S/C9H10/c1-2-6-4-5-8-7(3-1)9(6)8/h1-2,4-9H,3H2/t6-,7+,8-,9+/m0/s1
