16
gdb 10934	4.37708	1.45957	1.3229	4.841	69.56	-0.2494	0.0199	0.2693	960.2237	0.130932	-342.756613	-342.749182	-342.748238	-342.788212	28.08	
C	-0.0547110077	 1.5420033886	 0.0067291454	-0.476571
C	 0.0411884764	 0.0477206214	 0.0438852981	 0.375391
C	-0.8516180127	-0.8576336586	 0.8487030391	-0.338072
C	 0.6431832468	-0.9190279668	 1.0569350244	-0.123837
C	 1.2625633171	-1.679822833	-0.1243261694	-0.137955
N	 0.6903066361	-0.672985238	-1.0674555392	-0.354541
C	 2.7271507016	-1.7037759447	-0.1525959776	 0.306795
N	 3.8820964583	-1.7366887702	-0.146900693	-0.323324
H	 0.9107716644	 1.9853704898	-0.2529511063	 0.138766
H	-0.7885916503	 1.8672362647	-0.7403142641	 0.124595
H	-0.3738437675	 1.9347702406	 0.9767165371	 0.122885
H	-1.3986539232	-0.3813174049	 1.6567642639	 0.121504
H	-1.3766159326	-1.688163992	 0.3799506733	 0.105108
H	 1.1304839406	-0.7291519125	 2.0033100387	 0.118458
H	 0.8979940023	-2.7070700927	-0.2512445865	 0.119106
H	 0.0490535203	-1.0702160619	-1.750578414	 0.221691
98.5302	164.7337	203.7052	278.6642	322.271	389.2237	427.7422	488.8489	555.7417	645.5968	750.1757	806.7592	841.9405	905.6976	913.26	966.6606	983.539	986.9086	1035.55	1061.2235	1071.5226	1098.6727	1122.4933	1207.9699	1255.0831	1271.9739	1332.5678	1380.2008	1392.819	1426.809	1478.2532	1487.668	1500.0457	2360.5609	3025.8927	3031.5562	3094.983	3097.9924	3119.1499	3194.5325	3215.0213	3479.859
CC12CC1C(N2)C#N	C[C@]12C[C@H]1[C@@H](N2)C#N	
InChI=1S/C6H8N2/c1-6-2-4(6)5(3-7)8-6/h4-5,8H,2H2,1H3	InChI=1S/C6H8N2/c1-6-2-4(6)5(3-7)8-6/h4-5,8H,2H2,1H3/t4-,5-,6-/m0/s1
