16
gdb 46413	4.01246	0.86177	0.74953	5.1616	71.01	-0.2493	-0.0456	0.2037	1456.5699	0.122405	-437.884225	-437.875373	-437.874429	-437.919102	30.859	
O	 0.3120907647	 0.055603962	 0.0261573164	-0.290617
C	 0.1264770587	 1.2380443558	 0.0449683595	 0.373805
C	-1.0782500561	 2.1450637168	 0.3404088288	-0.342351
C	-0.0554122511	 3.2753929734	 0.6743718843	-0.271699
C	 1.0793117086	 2.4610374902	 0.0004384911	 0.050536
O	 2.280397535	 2.3953414322	 0.7222057871	-0.24897
C	 3.2381632255	 1.5456209825	 0.1151354211	-0.204347
C	 4.4730205459	 1.5902946465	 0.9012812875	 0.267679
N	 5.4601322448	 1.6061332789	 1.4995027289	-0.291656
H	-1.6692292713	 2.3427363561	-0.5594585164	 0.140576
H	-1.7492445409	 1.8057650716	 1.1317991204	 0.143837
H	-0.2515895394	 4.262753644	 0.2580596137	 0.121811
H	 0.1290623961	 3.3584144434	 1.7468840368	 0.140367
H	 1.2532073224	 2.7782329203	-1.0423350176	 0.095182
H	 2.8762867639	 0.5107319842	 0.0645595802	 0.17587
H	 3.4634972133	 1.8732799619	-0.9127571319	 0.139977
44.4135	86.7576	102.1147	145.4681	202.9334	279.8987	370.5342	385.4598	427.0103	546.4458	577.0576	685.668	750.8739	766.2413	915.0343	931.6418	958.8559	1011.7919	1033.5313	1047.3958	1079.7344	1110.1961	1175.1551	1191.8042	1227.8633	1250.2524	1258.9146	1264.3259	1352.3639	1423.9345	1444.9949	1486.2914	1500.3133	1885.336	2375.0449	2959.1073	2983.1627	3052.1525	3065.9095	3092.375	3126.0728	3155.2572
O=C1CCC1OCC#N	O=C1CC[C@H]1OCC#N	
InChI=1S/C6H7NO2/c7-3-4-9-6-2-1-5(6)8/h6H,1-2,4H2	InChI=1S/C6H7NO2/c7-3-4-9-6-2-1-5(6)8/h6H,1-2,4H2/t6-/m1/s1
