19
gdb 9278	6.61381	0.78605	0.73637	4.5461	71.15	-0.2601	0.0229	0.2829	1516.5343	0.163227	-402.190339	-402.180343	-402.179399	-402.226455	33.841	
C	-0.0743802577	 1.5421974143	-0.0135307642	-0.392998
C	-0.015661897	 0.0114411555	 0.0231891415	 0.017014
C	 0.7377998568	-0.499672624	 1.2526717002	-0.079544
O	 2.0691971344	-0.0162218798	 1.1818051161	-0.42009
C	-1.4075053003	-0.6133441319	-0.0229053214	-0.082208
O	-2.0247105968	-0.2456792689	-1.2581887084	-0.184277
C	-3.3498323932	-0.4551664945	-1.3577799224	 0.130928
N	-3.9449446343	-0.2415914381	-2.450362439	-0.439264
H	 0.9341160864	 1.9589038644	 0.0133297499	 0.135524
H	-0.5788300857	 1.8884210529	-0.9181349769	 0.136284
H	-0.6245548567	 1.9305196537	 0.8530920186	 0.102049
H	 0.5310250851	-0.3429691525	-0.8598681102	 0.10366
H	 0.2345973212	-0.1467144061	 2.1690804457	 0.083805
H	 0.7188358065	-1.6018372488	 1.271080239	 0.084303
H	 2.5315881587	-0.2846536516	 1.9806872075	 0.288876
H	-1.3447959224	-1.7086730386	 0.0406123811	 0.105134
H	-2.018303854	-0.25746962	 0.8200749412	 0.10168
H	-3.810990806	-0.8036009199	-0.4223238382	 0.08119
H	-4.939256745	-0.4321305961	-2.3453788602	 0.227933
34.4067	67.4681	96.3503	117.8994	163.89	222.0258	243.6038	271.4581	320.1647	344.223	420.6884	543.5312	640.8856	822.2986	845.2552	927.7381	933.8424	962.0342	1002.0198	1045.0638	1079.0937	1115.5085	1142.2498	1173.3677	1176.6734	1239.1496	1267.4464	1288.8748	1301.7465	1321.0717	1385.3036	1398.0442	1410.8897	1433.5857	1464.575	1497.981	1499.5085	1510.8988	1523.9922	1748.4627	2952.0907	2980.0672	2986.0119	3014.6858	3025.3772	3029.9385	3048.019	3110.9572	3143.6664	3518.0286	3836.3168
CC(CO)COC=N	C[C@@H](CO)CO[CH][NH]	
InChI=1S/C5H11NO2/c1-5(2-7)3-8-4-6/h4-7H,2-3H2,1H3	InChI=1S/C5H11NO2/c1-5(2-7)3-8-4-6/h4-7H,2-3H2,1H3/t5-/m0/s1
