16
gdb 104558	2.44343	1.33989	1.05199	1.2571	73.19	-0.2708	0.0081	0.2788	1162.9189	0.122166	-437.841585	-437.832767	-437.831823	-437.875281	32.837	
O	 0.1243808642	 1.4677249086	-0.0173890871	-0.408437
C	 0.1245538292	 0.0949541471	-0.3187806209	-0.093114
C	-1.2506095268	-0.5362812934	-0.0848037987	 0.147091
C	-1.2585942903	-2.078210115	 0.1108943688	-0.415567
C	-1.5586942567	-1.7470542563	 1.5550307921	 0.443002
N	-1.7322177524	-2.420222545	 2.5952738011	-0.534658
O	-1.5840809705	-0.3769040416	 1.3574594389	-0.28766
C	-2.2895973119	 0.0159641111	-0.9318159282	 0.338426
C	-3.1416991085	 0.4463349544	-1.6607807334	-0.444528
H	-0.1842243367	 1.5551892425	 0.8925348652	 0.296989
H	 0.4000369438	-0.0069849108	-1.3729976994	 0.126819
H	 0.8594512794	-0.4606500523	 0.2852786166	 0.095425
H	-2.0574963537	-2.6046647057	-0.4104060874	 0.152581
H	-0.3041414633	-2.5774766191	-0.0655682462	 0.142506
H	-1.9229916958	-1.8246059239	 3.4026438415	 0.232241
H	-3.8942599599	 0.8399972494	-2.299185853	 0.208883
73.7304	102.0061	158.0919	179.1642	238.4682	362.1832	404.7409	428.9029	436.4934	489.0436	512.9358	574.6716	636.3122	678.2787	680.6824	787.4502	860.4541	869.9524	914.6991	944.5111	991.0933	1044.2435	1077.0811	1092.9002	1150.2114	1206.017	1231.7367	1270.3538	1290.7286	1392.4154	1425.7355	1460.9684	1491.8163	1833.6653	2241.8714	2981.5058	3088.5008	3092.593	3155.2906	3480.4919	3499.4806	3793.1359
OCC1(CC(=N)O1)C#C	OC[C@]1(C[C]([NH])O1)C#C	
InChI=1S/C6H7NO2/c1-2-6(4-8)3-5(7)9-6/h1,7-8H,3-4H2	InChI=1S/C6H7NO2/c1-2-6(4-8)3-5(7)9-6/h1,7-8H,3-4H2/t6-/m1/s1
