16
gdb 11776	4.52403	1.74639	1.59902	2.7034	69.56	-0.2392	-0.0253	0.2139	832.4872	0.131186	-346.576151	-346.56958	-346.568636	-346.606993	25.757	
O	-0.0243775294	-0.094806596	-0.084436543	-0.249734
C	 0.0553452523	 1.0770850831	 0.1905520389	 0.03351
C	 1.3036167303	 1.8862565624	 0.090694345	 0.225785
C	 2.6889194913	 1.2833928677	-0.3132331731	-0.241837
C	 2.9992669398	 2.7943260143	-0.5991286373	-0.080313
C	 1.5233742372	 2.8876425316	-1.1180846426	-0.248523
C	 2.8298662116	 3.3856438054	 0.8074558638	-0.086674
C	 1.7133557046	 2.8086514784	 1.2574988729	-0.136413
H	-0.842539332	 1.6473396263	 0.5281709503	 0.070068
H	 3.2623321124	 0.7907936228	 0.473910914	 0.102542
H	 2.6377839871	 0.6627527259	-1.2114623554	 0.110654
H	 3.8446503937	 3.1129342326	-1.2072488849	 0.069238
H	 1.3684826396	 2.4157500241	-2.0928594353	 0.109577
H	 1.024623034	 3.8569086631	-1.0581931134	 0.10321
H	 3.4856700778	 4.0954087212	 1.2911350356	 0.107896
H	 1.1976041998	 2.908546257	 2.2017643344	 0.111014
77.7738	188.0545	263.0267	429.2526	468.9781	534.2804	535.8618	695.4595	709.8262	727.6229	833.0489	845.0155	869.845	895.6434	905.6111	946.819	984.557	1015.4435	1050.0767	1060.0256	1080.7018	1107.539	1165.882	1170.9886	1219.158	1225.3329	1259.9736	1286.2304	1331.2388	1425.3403	1478.4617	1514.9425	1621.7986	1820.8566	2849.8243	3054.7059	3068.7995	3128.0823	3130.0272	3137.4443	3221.9232	3248.6848
O=CC12CC(C1)C=C2	O=C[C@@]12C[C@@H](C1)C=C2	
InChI=1S/C7H8O/c8-5-7-2-1-6(3-7)4-7/h1-2,5-6H,3-4H2	InChI=1S/C7H8O/c8-5-7-2-1-6(3-7)4-7/h1-2,5-6H,3-4H2/t6-,7-
