18
gdb 68509	2.55306	1.85807	1.45727	3.3885	75.45	-0.2315	-0.0075	0.224	960.9582	0.148295	-401.908806	-401.901337	-401.900393	-401.940381	29.946	
C	 0.0176389398	 1.5517977479	 0.0096062334	-0.504572
C	 0.0379978499	 0.0457317501	-0.0426079385	 0.190878
C	 0.4210153542	-0.7867421046	-1.3098195093	-0.317935
C	-0.2936911094	-1.9627804261	-0.5739482558	-0.115769
N	 0.3895542663	-2.1861318069	 0.7333603414	-0.118319
C	 1.7811459768	-1.7181907789	 0.8265519754	-0.253641
C	 0.6930740063	-0.7477158588	 1.0966657173	-0.064362
C	-1.2643109612	-0.8261995164	-0.1318972327	 0.42955
O	-2.4364143779	-0.6399713838	-0.0514910611	-0.314515
H	 1.0249540159	 1.96979247	-0.0886206539	 0.124247
H	-0.6032305542	 1.9624106739	-0.7922954402	 0.129031
H	-0.3973219676	 1.9004915514	 0.9612443232	 0.131874
H	-0.1352659743	-0.4643655902	-2.1926735824	 0.122096
H	 1.4755183015	-0.8858358339	-1.5631718076	 0.113414
H	-0.6112800581	-2.8769817109	-1.0680841467	 0.095673
H	 2.2921521774	-2.1383975891	 1.6880002262	 0.12707
H	 2.4074153838	-1.6423208995	-0.054785438	 0.118926
H	 0.4690446008	-0.4420523843	 2.1150267294	 0.106354
138.5327	178.3121	202.5852	290.8467	294.2602	467.8127	499.2292	509.5009	574.9776	660.3184	700.8411	728.1932	769.1319	803.4848	838.1223	848.1191	904.3154	972.1081	988.7283	1004.1691	1017.2253	1053.1898	1079.023	1113.8609	1132.6737	1143.6456	1180.4602	1193.5417	1214.3079	1235.5768	1254.3288	1280.7153	1386.0891	1416.8792	1480.0336	1489.7787	1491.47	1530.4353	1910.2069	3034.4488	3084.3233	3099.5938	3108.0926	3127.4606	3143.5358	3147.8994	3162.1031	3209.5773
CC12CC(N3CC13)C2=O	C[C@@]12C[C@@H](N3C[C@@H]13)C2=O	
InChI=1S/C7H9NO/c1-7-2-4(6(7)9)8-3-5(7)8/h4-5H,2-3H2,1H3	InChI=1S/C7H9NO/c1-7-2-4(6(7)9)8-3-5(7)8/h4-5H,2-3H2,1H3/t4-,5+,7-,8?/m1/s1
