16
gdb 7050	5.99159	0.8368	0.75935	5.7398	74.77	-0.251	0.026	0.277	1455.3821	0.129244	-342.769817	-342.760188	-342.759244	-342.806143	32.221	
C	 0.0233183552	 1.4851901007	-0.0091396199	-0.498871
C	 0.03556087	 0.0293840048	-0.0167192416	 0.088873
C	 0.0504945733	-1.1756112677	-0.0109833662	 0.058682
C	 0.0197446229	-2.643858942	-0.0207778536	-0.182333
N	-1.3120503038	-3.2308433974	 0.1717228942	-0.483355
C	 0.6181418181	-3.1715026519	-1.3513614637	-0.322365
C	 0.7867867158	-4.6226423277	-1.357900783	 0.27442
N	 0.9522252043	-5.7658404589	-1.3692163425	-0.308432
H	 0.6947408493	 1.8829877027	 0.7594704258	 0.154292
H	 0.3460158806	 1.8902473307	-0.9743528501	 0.152758
H	-0.9809710539	 1.8726099445	 0.1942639738	 0.152341
H	 0.6513571137	-3.020151117	 0.7928044348	 0.130254
H	-1.6421525264	-3.0150778909	 1.1075970857	 0.240169
H	-1.9690936645	-2.7866431174	-0.4651698121	 0.232142
H	-0.0355908466	-2.8805480579	-2.1811798759	 0.15196
H	 1.5887919821	-2.6987855346	-1.5294726856	 0.159467
16.0207	63.4143	82.093	147.1441	174.6914	250.4746	295.6094	321.6984	366.6942	397.1304	474.3014	536.9405	550.1417	774.6222	869.795	922.4432	943.5746	981.143	1052.2648	1053.1672	1124.1606	1157.7338	1161.4685	1277.2675	1298.1997	1358.007	1397.3453	1414.7224	1461.097	1477.0941	1477.4222	1665.1353	2361.783	2367.4244	3029.267	3037.5714	3054.6676	3090.9762	3092.1088	3098.2733	3487.7286	3568.5225
CC#CC(N)CC#N	CC#C[C@@H](N)CC#N	
InChI=1S/C6H8N2/c1-2-3-6(8)4-5-7/h6H,4,8H2,1H3	InChI=1S/C6H8N2/c1-2-3-6(8)4-5-7/h6H,4,8H2,1H3/t6-/m1/s1
