25
gdb 118677	2.70078	0.8569	0.80837	1.3737	89.61	-0.2512	0.0781	0.3293	1612.8325	0.226332	-389.482258	-389.470675	-389.469731	-389.518885	42.056	
C	-0.2961923695	 0.989940603	-1.7355611448	-0.415348
C	-0.0904161036	-0.1539929632	-0.7642046902	-0.045339
C	 1.2796650305	-0.6295238148	-0.3157625385	-0.069681
C	 2.5726847706	-0.0119920776	-0.8070951207	-0.4161
C	 0.3433286487	 0.034178218	 0.6824004013	 0.316515
C	 0.6622451313	 1.4217332325	 1.2149411402	-0.465381
C	-0.3036084301	-0.8896015488	 1.7071003989	-0.241669
C	-1.6878841318	-0.4438581668	 2.1714819495	-0.075295
O	-2.197178316	-1.4554557808	 3.0305898052	-0.420513
H	 0.430603069	 1.7951225312	-1.6070017739	 0.113855
H	-0.2153653219	 0.640608024	-2.7713065189	 0.115657
H	-1.2928236255	 1.4299948204	-1.6153334056	 0.114029
H	-0.8153251837	-0.95337958	-0.9078762735	 0.075662
H	 1.3608603753	-1.7076735587	-0.1916649619	 0.076391
H	 2.4965363744	 1.0637727383	-0.9797303946	 0.113969
H	 3.3834545982	-0.1715495505	-0.0870836433	 0.116098
H	 2.8805058387	-0.4696749501	-1.7541052932	 0.116028
H	 1.220643505	 2.0331601776	 0.5042394021	 0.113048
H	-0.2485858868	 1.9752759355	 1.4689553501	 0.114963
H	 1.2667533729	 1.3510732843	 2.1272733295	 0.114102
H	-0.4092136265	-1.8949362529	 1.2833203342	 0.100526
H	 0.3432947644	-0.9899905064	 2.5886830161	 0.096735
H	-1.6262746337	 0.5214968261	 2.6968274403	 0.084047
H	-2.340907912	-0.2980163684	 1.2954993278	 0.084167
H	-3.0572494179	-1.1704638216	 3.3522321139	 0.283534
73.4122	88.4954	119.5473	147.8788	155.0346	163.4705	213.6685	246.0036	267.0474	287.8837	299.9183	333.4437	368.3048	476.3872	525.7986	538.7662	707.2928	774.9267	793.7676	806.3695	929.3378	971.0223	1002.0361	1010.876	1029.6027	1042.1589	1061.9781	1071.2076	1107.1216	1122.1457	1146.5978	1177.9875	1184.0588	1227.3173	1244.3559	1261.3178	1302.8157	1341.6942	1357.0786	1377.5997	1412.5513	1413.1315	1426.9254	1456.2769	1459.0914	1480.9869	1488.4847	1493.7805	1494.3691	1501.8901	1506.2278	1523.233	1528.7919	2965.6107	2995.1596	3021.0327	3027.9783	3028.6902	3033.2406	3068.716	3080.0212	3081.9811	3083.5756	3102.0463	3111.0483	3119.6839	3123.3549	3134.4052	3830.1492
CC1C(C)C1(C)CCO	C[C@H]1[C@@H](C)[C@]1(C)CCO	
InChI=1S/C8H16O/c1-6-7(2)8(6,3)4-5-9/h6-7,9H,4-5H2,1-3H3	InChI=1S/C8H16O/c1-6-7(2)8(6,3)4-5-9/h6-7,9H,4-5H2,1-3H3/t6-,7+,8+
