21
gdb 39125	3.29506	1.37921	1.23615	1.6866	81.41	-0.234	0.0777	0.3117	1107.265	0.184867	-387.077548	-387.069843	-387.068899	-387.109924	30.913	
C	 0.1763453703	 1.6840511077	 0.3946714898	-0.299591
C	 1.1855286005	 0.698026649	-0.130098627	-0.027599
C	 2.1852868238	 0.1230823071	 0.8683328184	-0.221133
C	 1.3246867388	-0.2921388051	 2.0787254238	-0.307574
C	-0.0633138151	-0.638942482	 1.5037723362	 0.486967
C	-0.4186918336	-2.1402250596	 1.3226697693	-0.349137
C	-1.5022992656	-1.8738882031	 2.3819416146	-0.070894
O	-1.1276459695	-0.486999191	 2.4841187211	-0.327818
C	-0.1984481449	 0.2261299974	 0.2686990861	-0.085006
H	 0.3046051906	 2.1156195647	 1.3817763769	 0.117616
H	-0.2737729723	 2.3601200173	-0.3238550759	 0.109511
H	 1.4733996784	 0.7627536976	-1.1736282362	 0.079795
H	 2.6729129175	-0.7542928246	 0.4268687253	 0.09888
H	 2.9783032514	 0.8284189666	 1.1400833274	 0.098282
H	 1.7551107559	-1.1195171902	 2.6486592053	 0.094448
H	 1.1964082396	 0.5391146245	 2.7792515573	 0.118024
H	-0.7896497593	-2.4076494143	 0.3312557175	 0.106536
H	 0.366779994	-2.8413632057	 1.6110389245	 0.105379
H	-2.5393058489	-1.9955622776	 2.0452152253	 0.099214
H	-1.3790955604	-2.403679686	 3.334876154	 0.098215
H	-0.9433891012	-0.0525380227	-0.4687121238	 0.075886
76.226	108.7976	211.4912	312.1101	366.233	378.2309	431.7395	500.9797	629.1331	707.4325	784.8655	807.5871	822.4116	835.3063	860.5797	916.4992	934.2233	956.6801	966.3146	980.688	1004.592	1027.2294	1037.683	1060.7414	1071.1358	1105.8743	1109.1999	1141.1685	1163.0796	1204.2804	1208.8128	1214.9182	1230.637	1260.4225	1265.6695	1305.534	1329.1112	1353.2302	1369.5731	1394.7359	1481.004	1489.944	1494.0553	1509.1782	1534.6958	3012.0581	3030.9279	3048.2659	3054.7402	3068.9381	3071.8828	3099.9471	3125.7967	3133.3873	3161.3356	3170.6534	3215.348
C1C2CCC3(CCO3)C12	C1[C@H]2CC[C@]3(CCO3)[C@@H]12	
InChI=1S/C8H12O/c1-2-8(3-4-9-8)7-5-6(1)7/h6-7H,1-5H2	InChI=1S/C8H12O/c1-2-8(3-4-9-8)7-5-6(1)7/h6-7H,1-5H2/t6-,7+,8+/m1/s1
