18
gdb 75958	2.17994	1.58343	1.21198	3.4054	72.24	-0.2411	-0.0375	0.2035	1089.8233	0.147594	-439.120089	-439.111445	-439.110501	-439.153765	32.043	
C	 1.0943151922	 1.3916496111	 0.021089047	-0.416254
C	 0.1273621666	 0.1765261247	 0.0048266745	-0.178003
C	 0.3491791779	-0.6401177796	-1.266909934	 0.387108
O	-0.2941477748	-0.4513362414	-2.2701150548	-0.309437
C	 1.4246661705	-1.72490538	-1.1988562475	-0.273833
N	 2.2122586258	-1.6036580507	 0.0206345704	-0.307814
C	 1.3977627854	-1.7349632513	 1.2212556301	-0.273803
C	 0.3202644993	-0.6512948029	 1.2740025668	 0.387033
O	-0.3462058851	-0.4718102368	 2.2637219727	-0.309434
H	 2.1355042894	 1.0630349581	 0.0314541828	 0.147375
H	 0.9226654178	 2.0062878967	-0.8664303263	 0.140306
H	 0.902535607	 1.9985921536	 0.9097840024	 0.140283
H	-0.9001613599	 0.5483518477	-0.0052211867	 0.118957
H	 0.8973306674	-2.6939829918	-1.2999621792	 0.116334
H	 2.0690905138	-1.6215138407	-2.0764693341	 0.140164
H	 2.9680306192	-2.2774332023	 0.0262313084	 0.234494
H	 0.8689759423	-2.7050615347	 1.3029745644	 0.116353
H	 2.0224355455	-1.6381696198	 2.1137896429	 0.140171
67.3171	74.9239	208.038	218.6995	239.9079	292.1419	378.5745	432.147	437.7536	516.6066	562.8612	586.003	642.5313	706.1423	802.6522	865.9052	944.1416	946.6986	976.207	1021.9001	1034.0177	1085.1451	1145.6006	1170.8973	1225.1214	1249.146	1266.3947	1281.4465	1297.954	1301.1842	1387.1117	1393.0665	1453.6976	1473.4111	1480.2986	1494.5504	1508.9967	1812.0014	1832.982	2915.9887	2917.6449	3049.5024	3088.6727	3089.2438	3090.4178	3126.1447	3143.253	3551.1964
CC1C(=O)CNCC1=O	CC1C(=O)CNCC1=O	
InChI=1S/C6H9NO2/c1-4-5(8)2-7-3-6(4)9/h4,7H,2-3H2,1H3	InChI=1S/C6H9NO2/c1-4-5(8)2-7-3-6(4)9/h4,7H,2-3H2,1H3
