25
gdb 60379	3.14262	0.84393	0.74541	0.9244	89.92	-0.2441	0.0834	0.3275	1682.1667	0.22602	-389.483602	-389.472593	-389.471649	-389.520021	40.981	
C	 0.003734886	 1.4409293028	-0.4216665999	-0.381091
C	-0.0501470524	-0.024445504	 0.0261488603	 0.024731
C	 0.6473964205	-0.2290588331	 1.3764336111	-0.392552
C	-1.4900953978	-0.5345304652	 0.0947524099	-0.060872
O	-2.0636727074	-0.4622671094	-1.2015716654	-0.293968
C	-3.4435745431	-0.70722	-1.2621436549	 0.456795
C	-3.8542549286	-2.1439870791	-1.0192326358	-0.456223
C	-4.3530210699	 0.4230506827	-0.8403081018	-0.318017
C	-4.1475716086	 0.1008415379	-2.3090884525	-0.313503
H	 1.0385491193	 1.7792760518	-0.5371331595	 0.106518
H	-0.5118865665	 1.5741005406	-1.3753026148	 0.127501
H	-0.4776944591	 2.092075881	 0.318842511	 0.104289
H	 0.4652869981	-0.6338007854	-0.7283745968	 0.081989
H	 0.1501913967	 0.3443956707	 2.1681410649	 0.112231
H	 0.647323445	-1.2823794547	 1.6767583864	 0.110488
H	 1.6882871006	 0.106150378	 1.332197559	 0.113638
H	-1.4993102541	-1.5710307979	 0.4655768027	 0.083849
H	-2.0757521648	 0.0736602065	 0.803697827	 0.082581
H	-3.6318198793	-2.4645182954	 0.004108627	 0.118121
H	-4.9293165711	-2.2688961247	-1.1766808547	 0.115872
H	-3.3265102691	-2.8118648681	-1.708298799	 0.123327
H	-5.3072516827	 0.184116467	-0.3828421221	 0.108965
H	-3.8826332428	 1.3241683214	-0.4632700603	 0.11594
H	-3.5354954858	 0.7847573687	-2.8854024092	 0.121047
H	-4.9593292133	-0.3617665921	-2.8599671427	 0.108345
41.4993	66.1048	123.5228	158.8502	218.3179	225.4098	242.2085	252.9569	299.6544	337.1194	362.1792	412.5037	421.1152	454.2512	527.4226	722.5882	778.2258	834.697	859.0068	911.7685	925.992	932.2596	940.5251	963.4236	967.2984	978.6165	1034.3833	1058.2967	1075.6761	1100.7003	1128.0897	1157.6055	1189.2367	1193.002	1200.291	1273.2786	1288.7276	1329.7132	1339.9628	1375.6957	1397.3564	1408.4928	1414.1781	1431.4768	1453.0412	1484.6213	1488.8917	1490.1404	1492.1486	1502.6567	1506.804	1513.4632	1520.4255	2965.3044	2997.8365	3021.0185	3024.4151	3029.6096	3033.6081	3087.6247	3092.9718	3096.4934	3102.2096	3112.2928	3125.6552	3132.0026	3137.2823	3216.1409	3231.0362
CC(C)COC1(C)CC1	CC(C)COC1(C)CC1	
InChI=1S/C8H16O/c1-7(2)6-9-8(3)4-5-8/h7H,4-6H2,1-3H3	InChI=1S/C8H16O/c1-7(2)6-9-8(3)4-5-8/h7H,4-6H2,1-3H3
