13
gdb 28131	5.4084	1.33103	1.06941	3.1558	68.6	-0.186	0.0002	0.1862	1025.1975	0.091788	-452.766163	-452.759413	-452.758469	-452.797251	25.847	
N	 0.1021448208	 1.3298465811	 0.1737014009	-0.589365
C	-0.0755014005	-0.0356942117	 0.0570160711	 0.402621
C	-1.2059896278	-0.8221087464	 0.0123580125	-0.472413
C	-0.6659970465	-2.1428171835	 0.0053960775	 0.313813
C	 0.685114263	-2.0572140868	 0.035085178	 0.300081
O	 1.0942771351	-0.7570113554	 0.0701593915	-0.220681
N	 1.2894138746	-3.2756085332	-0.0007652638	-0.349145
C	 0.2608603095	-4.0766293499	-0.0455432469	 0.023754
O	-0.9783497842	-3.4647703195	-0.0475024484	-0.204377
H	 0.9598694832	 1.655247711	-0.2536212588	 0.264071
H	-0.6936686981	 1.8657177406	-0.1422574335	 0.261657
H	-2.2252592837	-0.4763852002	-0.0060800985	 0.119435
H	 0.2559251847	-5.1529513062	-0.0767356416	 0.15055
144.1436	173.5337	265.2136	322.8785	362.7236	531.2779	571.4914	634.1756	640.2851	692.5769	720.9941	732.2687	755.0259	771.0565	844.9325	932.4593	967.1409	1051.4803	1089.0546	1147.2625	1197.1784	1286.4535	1369.384	1430.1891	1492.3974	1516.5988	1592.3135	1622.1591	1654.5313	3276.3939	3297.0708	3550.7117	3655.0898
NC1=CC2=C(O1)N=CO2	Nc1cc2c(o1)nco2	
InChI=1S/C5H4N2O2/c6-4-1-3-5(9-4)7-2-8-3/h1-2H,6H2	InChI=1S/C5H4N2O2/c6-4-1-3-5(9-4)7-2-8-3/h1-2H,6H2
