20
gdb 73040	3.25015	1.11175	0.9789	1.4143	85.7	-0.2367	0.0497	0.2863	1288.9007	0.169138	-365.932388	-365.923259	-365.922315	-365.966464	34.877	
C	-0.2335318096	 1.5519731521	 0.1232697553	-0.484111
C	-0.0919088509	 0.0593276293	 0.0664220099	 0.32964
C	-1.2633925308	-0.9485043388	 0.1289488809	-0.291902
C	-0.3493258954	-1.9377321565	 0.9162208262	-0.242162
C	 0.7913681181	-0.9086267751	 0.8330038964	-0.08152
N	 1.1017857334	-0.5177980953	-0.5265187982	-0.114584
C	 1.0658462533	-1.4623306246	-1.6456900962	-0.31567
C	 2.2423492648	-2.3262460768	-1.6431201682	 0.330243
C	 3.2012843325	-3.0498247444	-1.6301127043	-0.454235
H	 0.7440370022	 2.0215290585	 0.2583824991	 0.132705
H	-0.6692773488	 1.9416674459	-0.8049903095	 0.11902
H	-0.887886811	 1.8540444199	 0.9482063294	 0.115533
H	-2.0860850109	-0.5731904803	 0.7421029516	 0.106067
H	-1.6784419999	-1.2843798777	-0.8269345198	 0.09767
H	-0.6945686121	-2.0947817496	 1.9401059235	 0.105371
H	-0.151822709	-2.9147100217	 0.4648678586	 0.10825
H	 1.5389424485	-0.7224958075	 1.597318508	 0.090457
H	 0.1656052124	-2.0948656504	-1.6660158693	 0.119269
H	 1.0463839762	-0.8698575733	-2.5687522989	 0.133533
H	 4.0521064669	-3.6848947336	-1.6251405642	 0.196427
39.2255	120.8943	188.4637	218.5651	258.822	271.849	316.323	338.4436	410.646	491.4516	565.9903	610.5706	631.2891	654.2329	742.7377	784.8106	813.2722	912.6291	923.6475	942.9005	954.6832	975.0837	1002.7514	1010.8006	1028.8539	1114.2412	1141.9298	1151.1483	1210.355	1218.6087	1224.7743	1260.2774	1273.5811	1281.381	1365.2051	1402.198	1440.3033	1474.4973	1484.5927	1488.8869	1493.1245	1507.6349	2242.5664	2993.4082	3025.6459	3041.9668	3048.4018	3058.5136	3083.7932	3098.423	3117.0885	3121.4324	3163.7237	3506.4868
CC12CCC1N2CC#C	C[C@]12CC[C@H]1N2CC#C	
InChI=1S/C8H11N/c1-3-6-9-7-4-5-8(7,9)2/h1,7H,4-6H2,2H3	InChI=1S/C8H11N/c1-3-6-9-7-4-5-8(7,9)2/h1,7H,4-6H2,2H3/t7-,8+,9?/m1/s1
