19
gdb 19756	3.54835	2.23268	2.15307	1.5629	72.96	-0.2339	0.0918	0.3257	771.3355	0.169258	-327.93096	-327.924719	-327.923775	-327.960849	26.246	
C	-0.1251482494	 1.5500305108	 0.0458654145	-0.41476
C	 0.0447209701	 0.038150488	-0.0112537679	 0.084922
C	 0.9629700995	-0.5505910119	-1.1110607977	-0.062596
C	 2.3562042062	-0.1104394885	-0.6110448348	-0.237985
C	 2.170611172	-0.5898825701	 0.8240554894	-0.03201
C	 1.2977964024	-1.7974645788	 0.7742816207	-0.029236
C	 0.9446788885	-2.0378366737	-0.691290853	-0.238497
N	 0.7336833084	-0.4918840086	 1.1991767383	-0.127756
H	 0.8314900664	 2.0706074344	 0.1410545842	 0.118944
H	-0.6259162933	 1.9161311134	-0.8565459436	 0.110003
H	-0.7354633862	 1.8242655452	 0.9111490648	 0.126671
H	-0.9477425891	-0.4265103133	-0.0604589165	 0.071024
H	 0.7118507423	-0.3256262393	-2.1465982193	 0.06389
H	 3.1687635953	-0.6376238028	-1.1216184377	 0.098279
H	 2.5392504333	 0.9635837002	-0.6948476334	 0.101124
H	 2.8958358366	-0.4077858584	 1.6075391698	 0.086298
H	 1.3254813219	-2.5899475298	 1.512378257	 0.08669
H	-0.0347935322	-2.5078096715	-0.8254798637	 0.098582
H	 1.6960180773	-2.6423432454	-1.2097539808	 0.096413
189.1673	241.2179	294.5894	429.7466	454.5184	530.2367	668.895	695.6856	769.261	792.7323	852.2437	856.2068	898.7181	918.7767	924.84	938.0688	941.0684	999.1126	1015.3233	1045.6702	1052.6906	1088.2244	1113.6954	1133.4857	1146.3755	1161.0247	1211.124	1224.2392	1255.2865	1276.0563	1285.8758	1295.9769	1333.1234	1380.7908	1387.651	1411.2072	1482.8486	1490.7354	1498.0544	1512.4629	3028.6199	3041.1885	3046.7447	3055.5896	3091.0206	3100.1375	3109.7397	3120.6199	3130.5057	3181.8083	3192.8639
CC1C2CC3C(C2)N13	C[C@H]1[C@H]2C[C@@H]3[C@H](C2)N13	
InChI=1S/C7H11N/c1-4-5-2-6-7(3-5)8(4)6/h4-7H,2-3H2,1H3	InChI=1S/C7H11N/c1-4-5-2-6-7(3-5)8(4)6/h4-7H,2-3H2,1H3/t4-,5-,6+,7-,8?/m0/s1
