19
gdb 65312	3.12121	1.14929	1.04332	2.6468	78.71	-0.2402	-0.0303	0.2099	1221.1914	0.15756	-423.012275	-423.003396	-423.002452	-423.046187	33.382	
O	-0.0904251518	 1.3730004596	-0.0457076981	-0.472873
C	-0.0140648747	-0.0114440043	-0.0136859897	 0.300316
C	-0.4349385736	-0.7336439872	 1.263218537	-0.415721
C	-1.322752993	-0.7845340592	 0.0655062008	 0.284715
C	-2.7027645452	-0.1287955413	-0.0587726756	-0.276004
C	-3.2531553886	-1.4932550025	-0.5738572922	-0.208957
C	-1.7957213454	-2.0294049225	-0.7049174479	-0.304554
C	 1.1035487805	-0.5657990968	-0.7936742083	 0.09451
O	 1.8574544636	 0.1478615513	-1.4219133088	-0.298341
H	 0.6395614685	 1.6441060909	-0.6255824971	 0.295641
H	 0.1144730345	-1.6262084941	 1.5505107025	 0.119509
H	-0.7115212772	-0.0763612548	 2.081298892	 0.137245
H	-3.1402119081	 0.2634086585	 0.8622545954	 0.107139
H	-2.717327741	 0.6624521326	-0.8126889279	 0.1194
H	-3.8282174498	-2.0277277304	 0.1854310269	 0.108898
H	-3.8396379953	-1.4612448527	-1.4939674523	 0.105748
H	-1.444035936	-2.0640551918	-1.7399995203	 0.109468
H	-1.5870945558	-2.9941905066	-0.2346797406	 0.104268
H	 1.2169440487	-1.6682539083	-0.7772360358	 0.089592
60.2967	96.1168	142.3255	193.6526	268.255	299.3829	393.0606	399.1729	412.0795	454.8526	530.6144	653.744	718.8695	786.5306	832.098	840.6943	875.9504	901.0195	917.0497	940.8519	953.4768	1024.7778	1053.4918	1061.2244	1081.1685	1135.1454	1183.0522	1219.9257	1224.6873	1250.0249	1270.9771	1277.8369	1318.4888	1352.401	1384.6268	1445.475	1477.5117	1479.9791	1488.684	1506.6633	1778.7593	2933.4619	3051.4212	3063.8248	3072.7219	3097.2331	3109.9306	3115.3895	3129.793	3211.8685	3690.3829
OC1(CC11CCC1)C=O	O[C@]1(CC21CCC2)C=O	
InChI=1S/C7H10O2/c8-5-7(9)4-6(7)2-1-3-6/h5,9H,1-4H2	InChI=1S/C7H10O2/c8-5-7(9)4-6(7)2-1-3-6/h5,9H,1-4H2/t7-/m1/s1
