17
gdb 34367	2.67255	1.68773	1.3123	2.4039	78.79	-0.2291	0.0115	0.2406	1003.1222	0.137043	-380.822447	-380.814793	-380.813848	-380.854579	29.707	
C	 0.002805376	-1.1449973556	-0.3566286182	-0.41561
C	 0.0057672732	 0.0372798535	-0.1381016109	 0.27504
C	-0.0389295013	 1.4628983719	 0.1259700332	 0.109584
C	-0.4037219748	 2.3433268006	-1.1154613615	-0.291314
C	 1.0734491119	 2.8128003936	-1.1372099736	-0.172702
N	 1.3175555795	 2.1352254915	 0.1788493532	-0.12497
C	 1.2347838286	 2.9440815168	 1.3219984077	 0.03263
N	 0.2371630407	 2.8166846103	 2.1041448884	-0.228513
C	-0.6673195904	 1.8247316543	 1.507777157	-0.231277
H	 0.0126259489	-2.1900309534	-0.54585477	 0.197056
H	-0.7585436935	 1.8033534177	-1.9933863921	 0.121424
H	-1.1090034527	 3.1388109451	-0.8640045746	 0.119773
H	 1.6755715868	 2.361065051	-1.9291563106	 0.125107
H	 1.2481303601	 3.8917915569	-1.1226671524	 0.11683
H	 2.0453679923	 3.6439932307	 1.5117638317	 0.125009
H	-1.6773838133	 2.2401876058	 1.4142715836	 0.114263
H	-0.7323585418	 0.9406643692	 2.1494667791	 0.127671
89.5975	148.9052	181.6296	249.6637	331.7994	466.9724	503.6992	529.3386	550.1223	619.554	650.184	693.1565	754.0784	790.9337	843.0945	907.9603	937.4365	939.8662	959.8165	982.4812	1034.5371	1053.4447	1105.3703	1127.8977	1189.8429	1210.1735	1245.4054	1254.9268	1263.7939	1305.8405	1323.3346	1338.7144	1479.5496	1491.2104	1509.8941	1677.9496	2234.4667	3037.7684	3059.3428	3075.6638	3081.12	3110.1801	3143.9619	3169.4828	3500.544
C#CC12CCN1C=NC2	C#C[C@]12CCN1C=NC2	
InChI=1S/C7H8N2/c1-2-7-3-4-9(7)6-8-5-7/h1,6H,3-5H2	InChI=1S/C7H8N2/c1-2-7-3-4-9(7)6-8-5-7/h1,6H,3-5H2/t7-/m1/s1
