21
gdb 73448	2.2166	1.84749	1.52847	1.1868	81.46	-0.2331	0.0769	0.31	1015.8785	0.183679	-387.076447	-387.068307	-387.067363	-387.108339	33.187	
C	-0.0827343403	 1.4402028337	 0.0242515484	-0.488929
C	-0.0184874974	-0.0670582534	-0.0374934135	 0.317245
C	 1.0400462339	-0.7376420287	-0.9235263408	-0.289628
C	 0.3807621315	-2.0729353282	-1.3664420751	-0.210672
C	-0.7261609518	-2.288753857	-0.3255724709	-0.107466
C	-0.1399691416	-2.3062738469	 1.1260117747	-0.240789
C	-0.4505342635	-0.8152681524	 1.2426651869	-0.192792
C	-1.2836737228	-0.8609127057	-0.0325361673	 0.339914
O	-2.5088078035	-0.3298816558	-0.3809653426	-0.463529
H	 0.8299032789	 1.859020056	 0.4636173169	 0.111663
H	-0.1972694525	 1.8680066613	-0.9780068572	 0.117626
H	-0.9333506362	 1.7772677285	 0.6235034134	 0.120195
H	 1.2857440867	-0.1029389375	-1.7812078451	 0.094817
H	 1.9758350603	-0.904838052	-0.3782249674	 0.096585
H	-0.0620080567	-1.9681685354	-2.3635345988	 0.099274
H	 1.0907254047	-2.9054687397	-1.4062282521	 0.091553
H	-1.4400904135	-3.0786825971	-0.5635555062	 0.060779
H	-0.7502742085	-2.9020863352	 1.8106925174	 0.093453
H	 0.9053368002	-2.6220550538	 1.2222242267	 0.088516
H	-0.6094620138	-0.2573904244	 2.159440492	 0.077458
H	-3.1924582541	-0.7763450461	 0.1303515304	 0.284725
184.4928	192.5971	212.0694	219.563	316.3152	331.0632	347.2995	412.5871	490.4168	550.717	623.7873	653.3419	690.085	775.7182	830.0547	854.6292	891.082	915.8363	936.6922	962.1977	991.1282	994.6588	1035.4628	1056.6327	1079.0768	1096.1191	1123.9338	1151.4192	1188.3517	1216.2326	1228.5075	1244.3108	1269.6586	1280.8827	1301.8211	1302.2879	1332.7402	1355.5452	1417.0512	1467.697	1483.7399	1488.2519	1491.7952	1502.3608	1516.5403	3025.9878	3030.3344	3033.1317	3040.0463	3067.666	3082.7893	3084.0112	3087.1501	3102.5298	3107.4603	3165.1761	3792.7171
CC12CCC3CC1C23O	C[C@@]12CC[C@H]3C[C@@H]1[C@@]23O	
InChI=1S/C8H12O/c1-7-3-2-5-4-6(7)8(5,7)9/h5-6,9H,2-4H2,1H3	InChI=1S/C8H12O/c1-7-3-2-5-4-6(7)8(5,7)9/h5-6,9H,2-4H2,1H3/t5-,6-,7+,8+/m0/s1
