16
gdb 84056	3.57353	1.21225	1.01117	2.4251	79.91	-0.2324	-0.0336	0.1989	1158.163	0.124736	-400.692552	-400.68478	-400.683836	-400.724753	30.523	
O	 0.0332739547	 1.4071142521	-0.1270328623	-0.434166
C	 0.0407317165	-0.008443141	-0.0676824545	 0.110555
C	 0.7210791576	-0.5383746224	 1.1863039777	-0.239847
C	-0.0967439949	-1.2859486456	 1.9467833185	 0.247934
C	 0.1923094255	-1.9000702625	 3.1871713844	 0.214539
C	 0.3986117978	-2.4529159907	 4.2379595057	-0.424102
C	-1.4571519764	-1.3640157744	 1.3011729848	-0.174378
N	-2.0943531972	-0.0211283827	 1.1874783601	-0.346449
C	-1.3685107473	-0.6063834703	 0.0364807877	-0.07886
H	-0.5793251139	 1.6808296638	 0.5706616155	 0.289616
H	 0.5521585298	-0.3423417303	-0.9777702904	 0.092948
H	 1.7335324729	-0.2560545091	 1.4471904344	 0.11132
H	 0.5940792974	-2.9262243504	 5.1680947834	 0.195098
H	-2.0848629473	-2.2370788908	 1.4349241371	 0.102726
H	-3.0955083467	-0.1358468533	 1.040949119	 0.236714
H	-1.9190454688	-0.8802638122	-0.8557080711	 0.096351
105.5206	142.5223	180.2714	276.0009	382.0411	446.9629	489.9395	502.1227	540.569	587.6	595.7623	640.3772	657.8524	749.4995	812.9716	852.1854	873.5381	888.4201	920.9427	933.224	1025.727	1056.5158	1076.2748	1127.5399	1153.4357	1172.9784	1244.0899	1262.3103	1285.1598	1322.391	1357.8104	1406.5266	1440.9477	1656.3597	2222.4607	3046.9617	3179.1993	3190.5888	3216.554	3487.3257	3503.0452	3740.4369
OC1C=C(C#C)C2NC12	O[C@H]1C=C(C#C)[C@H]2N[C@@H]12	
InChI=1S/C7H7NO/c1-2-4-3-5(9)7-6(4)8-7/h1,3,5-9H	InChI=1S/C7H7NO/c1-2-4-3-5(9)7-6(4)8-7/h1,3,5-9H/t5-,6+,7-/m0/s1
