12
gdb 24895	3.63172	1.30688	0.96105	5.9561	76.08	-0.2603	-0.0982	0.1621	1109.6271	0.077024	-435.501621	-435.494327	-435.493383	-435.533868	26.74	
O	-0.091524264	-0.0122418398	 0.0047347803	-0.317192
C	 0.0322217095	 1.1722851926	 0.0081279077	 0.44037
O	-1.1922572508	 1.9285236851	 0.0294634586	-0.246581
C	-1.1864190354	 3.2668565449	 0.0368664941	 0.265247
C	-0.0146101186	 3.9597558103	 0.0246448523	-0.255388
C	 1.1750195725	 3.1816125954	 0.0043180779	 0.042911
N	 1.2153612302	 1.880966561	-0.0034085329	-0.312549
C	-2.4732177313	 3.8632502327	 0.0577520258	 0.235224
C	-3.5602255333	 4.3780495666	 0.0754818656	-0.344548
H	-0.0017384341	 5.0392840718	 0.0304234049	 0.132705
H	 2.1380016025	 3.6922893653	-0.0058366026	 0.137754
H	-4.5233926272	 4.8278991241	 0.0912547783	 0.222048
92.3346	124.5455	142.9449	329.7663	440.3303	448.5646	466.3178	561.6806	587.9403	663.2045	685.55	717.1418	751.7757	796.6632	797.6824	834.553	950.8449	1017.138	1037.9477	1095.524	1245.187	1377.1818	1414.3609	1563.7431	1663.8531	1886.1296	2236.4638	3135.6328	3250.272	3494.5623
O=C1OC(=CC=N1)C#C	O=c1oc(ccn1)C#C	
InChI=1S/C6H3NO2/c1-2-5-3-4-7-6(8)9-5/h1,3-4H	InChI=1S/C6H3NO2/c1-2-5-3-4-7-6(8)9-5/h1,3-4H
