17
gdb 46891	2.96963	1.56505	1.23786	4.9479	75.48	-0.253	-0.0425	0.2105	1021.2327	0.138174	-421.850672	-421.843442	-421.842498	-421.882389	28.5	
O	-0.0684933481	 0.3957343479	-1.2410402494	-0.32971
C	-0.0213463004	 1.2041332233	-0.3491319368	 0.383435
O	-1.1289196471	 1.382540482	 0.4261082424	-0.229058
C	-1.3016298426	 2.5748704883	 1.1937038573	-0.110545
C	-0.5300726399	 2.5961597213	 2.4956997984	-0.036113
C	 0.1724450646	 1.3773854746	 2.9933220512	-0.292833
C	 0.9909943605	 2.5314217898	 2.4220382731	-0.074286
C	 1.6566117227	 2.4638402957	 1.110139138	-0.044967
C	 1.2177430491	 1.9630919377	-0.0564866812	-0.21327
H	-1.0435562713	 3.448942435	 0.5825280183	 0.119646
H	-2.3747641878	 2.6119154003	 1.3989686797	 0.129851
H	-0.9425548028	 3.2778752999	 3.2340090962	 0.100172
H	 0.2352608887	 1.2166511177	 4.0632822725	 0.123617
H	 0.1037059824	 0.4748044696	 2.3986401767	 0.147791
H	 1.5282733467	 3.1207048594	 3.1567644466	 0.094527
H	 2.6559284868	 2.8943316751	 1.0949419875	 0.111083
H	 1.8880279383	 1.9687133423	-0.9092301605	 0.12066
85.514	202.5905	260.1589	296.7849	339.4107	421.2394	501.261	507.2817	647.1265	703.8173	754.2558	766.3862	795.2368	820.5652	845.0916	877.0688	927.1826	989.3196	1023.4123	1027.7163	1074.3261	1080.1819	1113.9925	1128.6621	1154.7502	1191.6545	1228.9121	1280.1837	1315.0295	1382.7649	1406.2666	1420.7617	1436.5669	1489.2189	1495.5492	1682.2814	1809.3867	3028.7493	3094.5107	3143.2826	3146.6669	3151.3936	3170.8464	3193.846	3240.2631
O=C1OCC2CC2C=C1	O=C1OC[C@H]2C[C@H]2C=C1	
InChI=1S/C7H8O2/c8-7-2-1-5-3-6(5)4-9-7/h1-2,5-6H,3-4H2	InChI=1S/C7H8O2/c8-7-2-1-5-3-6(5)4-9-7/h1-2,5-6H,3-4H2/t5-,6-/m1/s1
