20
gdb 67603	2.66603	2.16295	1.67352	1.5499	80.66	-0.2312	0.1017	0.3328	906.1705	0.174547	-365.993773	-365.987163	-365.986219	-366.024274	28.366	
C	 0.0211704374	 1.4723595	-0.0208997924	-0.506602
C	-0.0274714133	-0.0258934087	 0.0437595841	 0.362864
C	-0.9730576465	-0.9359746028	-0.6640330356	-0.094284
C	-1.1487108879	-2.0549895813	 0.3827800224	-0.058168
C	-1.2827782213	-1.2653352788	 1.718536767	-0.235438
C	 0.1645885099	-0.8145619097	 1.3639279181	-0.102131
C	 0.3739734634	-2.2171202839	 0.7086281032	-0.038752
C	 1.1398179832	-1.9989976913	-0.581835855	-0.182405
N	 0.4367817887	-0.8229326605	-1.1212614029	-0.174725
H	 1.0191488312	 1.8474430505	 0.2342818527	 0.118021
H	-0.2209996612	 1.8220982181	-1.027769189	 0.129179
H	-0.6922610795	 1.9192189855	 0.680835917	 0.116287
H	-1.754712918	-0.6265681099	-1.3471494415	 0.085054
H	-1.7900634416	-2.8990914192	 0.1299927072	 0.062162
H	-2.0599787131	-0.4979025458	 1.7859929131	 0.092275
H	-1.3256271657	-1.9151505392	 2.5978408277	 0.093769
H	 0.8498865416	-0.4001454228	 2.1040662113	 0.059147
H	 0.6477066599	-3.0354968599	 1.3723739433	 0.07092
H	 2.1986120745	-1.7633992242	-0.4271756315	 0.10119
H	 1.0636347281	-2.8369218562	-1.2835135092	 0.101637
186.3892	223.5576	281.93	380.3499	428.2801	536.9005	577.0375	676.9607	714.9775	760.5189	794.0217	832.2179	857.1201	863.2347	880.2547	911.2148	931.479	958.6032	978.8281	1006.0632	1015.1058	1025.1424	1053.7243	1068.1815	1092.6771	1115.4487	1126.4313	1166.0876	1210.3737	1213.2936	1226.3181	1232.633	1246.6727	1262.0976	1295.5089	1303.4305	1330.1729	1403.3161	1429.0146	1486.5586	1492.8279	1496.7118	1504.9447	3026.928	3039.3471	3044.4326	3084.4021	3085.0011	3099.3507	3107.3822	3114.3666	3116.4528	3137.0293	3185.9676
CC12C3C4CC1C4CN23	C[C@]12[C@@H]3[C@@H]4C[C@H]1[C@@H]4CN23	
InChI=1S/C8H11N/c1-8-6-2-4-5(6)3-9(8)7(4)8/h4-7H,2-3H2,1H3	InChI=1S/C8H11N/c1-8-6-2-4-5(6)3-9(8)7(4)8/h4-7H,2-3H2,1H3/t4-,5-,6+,7+,8-,9?/m1/s1
