17
gdb 62241	4.5172	0.59148	0.55581	4.1443	71.5	-0.285	0.0008	0.2858	1887.2789	0.134897	-455.168252	-455.158289	-455.157344	-455.205119	33.638	
N	-0.0909380378	 1.4737885332	 0.1034687231	-0.49658
C	-0.0123018303	 0.0141248807	-0.005282606	-0.139489
C	-1.3722151575	-0.6260885029	 0.3288051145	-0.186046
C	-1.8047894203	-0.3113140683	 1.7586194484	-0.0925
O	-3.0273213385	-0.9958986592	 2.046005393	-0.176923
C	-4.1234693438	-0.2574336029	 2.3116311491	 0.170016
O	-5.1864990954	-0.7431531248	 2.5494738066	-0.268358
C	 0.4592350175	-0.4467997916	-1.3292729356	 0.26003
N	 0.8263887296	-0.7609962832	-2.3795616427	-0.312124
H	 0.8292100368	 1.8856970057	-0.0189612931	 0.251018
H	-0.6722695515	 1.8430353319	-0.6446683346	 0.245939
H	 0.7235255118	-0.3279153681	 0.7334549595	 0.137948
H	-2.1293511153	-0.2627628321	-0.3758855411	 0.123983
H	-1.3088024397	-1.7100489117	 0.197046921	 0.142852
H	-1.0591733138	-0.6694170945	 2.4768402321	 0.125119
H	-1.9204742285	 0.7678608002	 1.9006772971	 0.135351
H	-3.9207109631	 0.8317094777	 2.2862360988	 0.079764
33.0543	48.7023	98.4927	118.2799	163.5602	217.7349	270.2686	300.8475	336.2881	372.2169	424.3609	580.8293	585.0927	671.6406	792.8136	849.3783	943.1286	961.7969	1027.7311	1044.581	1052.0337	1081.1728	1132.7533	1147.5877	1234.7053	1279.6019	1298.6073	1329.93	1359.2539	1395.2139	1408.1205	1434.8523	1486.0734	1512.7082	1664.2378	1871.2814	2347.8618	2943.3956	3035.1706	3041.3274	3053.5219	3086.9548	3110.3357	3492.8197	3572.7618
NC(CCOC=O)C#N	N[C@@H](CCOC=O)C#N	
InChI=1S/C5H8N2O2/c6-3-5(7)1-2-9-4-8/h4-5H,1-2,7H2	InChI=1S/C5H8N2O2/c6-3-5(7)1-2-9-4-8/h4-5H,1-2,7H2/t5-/m0/s1
