18
gdb 12372	2.90242	2.07251	1.40872	1.7539	70.03	-0.2406	0.0162	0.2568	922.9674	0.1544	-384.947299	-384.939471	-384.938527	-384.979145	29.791	
C	-0.0023425068	 1.5235860756	 0.0872685948	-0.484803
C	-0.0169637639	 0.024196869	 0.0065948333	 0.288391
C	-0.0010954401	-0.6628462054	-1.1372024752	-0.165053
C	 0.0525283779	-2.1656580438	-1.1842280112	-0.127083
O	 0.3764267705	-2.7480850911	 0.0657533923	-0.257511
C	-0.397594551	-2.1839601961	 1.114501786	-0.117675
C	 0.0095054688	-0.7276551582	 1.3260998925	 0.0496
O	 1.2982278034	-0.6354314461	 1.9352773304	-0.436923
H	 0.8470553272	 1.8587715325	 0.693426048	 0.142176
H	 0.0702363878	 1.985022234	-0.9012250172	 0.116937
H	-0.9083029797	 1.9027881067	 0.5775603168	 0.12238
H	-0.022101903	-0.149989566	-2.0967848704	 0.086987
H	-0.9097448523	-2.5686085609	-1.5533069022	 0.099244
H	 0.82443987	-2.500706717	-1.8868743688	 0.118369
H	-1.4743962365	-2.2586579094	 0.8898785136	 0.088032
H	-0.1819478618	-2.7685501504	 2.0126799517	 0.113658
H	-0.6776940359	-0.2567875598	 2.0399979885	 0.082042
H	 1.8930608553	-1.1326524337	 1.359952987	 0.281233
104.3735	185.468	214.6916	245.3844	292.1118	326.3359	406.0866	434.3856	444.9554	583.3528	644.746	713.7552	830.2465	842.0157	887.6679	926.3612	978.0113	1032.6638	1038.8163	1058.1894	1073.3932	1114.4143	1157.8146	1185.1342	1240.8417	1275.7332	1305.3017	1324.9398	1363.4041	1382.7702	1405.0837	1413.2364	1427.4892	1476.6803	1480.9897	1492.3152	1494.1972	1740.5728	2927.8096	2973.5753	3020.082	3039.8248	3053.0091	3075.2227	3097.5371	3113.2261	3147.49	3782.1514
CC1=CCOCC1O	CC1=CCOC[C@H]1O	
InChI=1S/C6H10O2/c1-5-2-3-8-4-6(5)7/h2,6-7H,3-4H2,1H3	InChI=1S/C6H10O2/c1-5-2-3-8-4-6(5)7/h2,6-7H,3-4H2,1H3/t6-/m1/s1
