20
gdb 46779	2.71648	1.6625	1.30417	3.1622	79.56	-0.2498	0.0211	0.271	1037.1738	0.174201	-403.154535	-403.147146	-403.146202	-403.186225	30.209	
N	-0.1090514793	 1.2896898869	-0.5257201795	-0.490469
C	-0.0183924504	 0.1071067076	-0.0778162925	 0.365458
C	-1.2579885189	-0.7440431373	 0.0912083187	-0.268933
C	-1.5660981495	-1.27961598	 1.5047362262	-0.219907
C	-0.3849582701	-1.9581494755	 2.20855806	-0.006904
C	 0.7677918688	-0.9642012762	 2.5375409637	-0.248753
C	 1.4472891882	-1.3752702801	 1.2085743449	 0.12391
C	 0.5955886929	-2.6736930841	 1.2309983978	-0.252675
O	 1.2125506109	-0.4623118951	 0.1332307178	-0.266756
H	 0.826459011	 1.6957319131	-0.6061601178	 0.215562
H	-2.0922673706	-0.1343278457	-0.2584548208	 0.131102
H	-1.1666980486	-1.5902106217	-0.6003353635	 0.120344
H	-1.9294671493	-0.4588327836	 2.1351711503	 0.110893
H	-2.3956813421	-1.9898724835	 1.4110413856	 0.102151
H	-0.7471529142	-2.5550639836	 3.0494288391	 0.069199
H	 0.5163817324	 0.0942811043	 2.651808332	 0.112093
H	 1.3574247538	-1.2833627106	 3.400771792	 0.104316
H	 2.531000298	-1.499240321	 1.2076693989	 0.088424
H	 1.1514204608	-3.4729334039	 1.7289832021	 0.104702
H	 0.2181754662	-3.0546692498	 0.280133095	 0.106243
91.3726	185.4707	312.3637	313.6633	349.5311	419.5561	461.8721	489.1504	537.8568	672.5459	747.1903	779.0617	802.5886	834.4766	865.4711	904.5223	919.2031	936.2614	958.5305	967.9289	1039.157	1048.4418	1071.1118	1093.7934	1101.373	1151.37	1161.7093	1199.8169	1224.8672	1250.2553	1258.8765	1279.9708	1296.5091	1317.2771	1350.3496	1372.8935	1384.8512	1415.5839	1459.9748	1479.3292	1487.851	1501.2362	1734.3199	3027.4551	3038.7984	3054.4193	3062.219	3067.2325	3075.3559	3100.1377	3112.9041	3119.8968	3124.704	3452.937
N=C1CCC2CC(C2)O1	[NH][C]1CC[C@@H]2C[C@@H](C2)O1	
InChI=1S/C7H11NO/c8-7-2-1-5-3-6(4-5)9-7/h5-6,8H,1-4H2	InChI=1S/C7H11NO/c8-7-2-1-5-3-6(4-5)9-7/h5-6,8H,1-4H2/t5-,6+
