12
gdb 125567	3.56837	1.76632	1.19028	3.5039	61.95	-0.2728	-0.0871	0.1856	931.8436	0.078046	-464.917101	-464.910448	-464.909504	-464.948341	24.313	
C	-0.016833597	 1.5093467102	 0.0408614522	-0.492703
C	-0.0125696508	 0.0264222117	 0.0023322707	 0.359244
N	-0.0481348312	-0.7481020951	-1.0544180111	-0.246609
N	-0.0289504403	-2.1069321057	-0.690604665	-0.3393
C	 0.0179613338	-2.0762255677	 0.6028694359	 0.544013
O	 0.0594677943	-2.9135577643	 1.6476668569	-0.23622
N	 0.0978118624	-2.0589529057	 2.8095338082	 0.028224
N	 0.0800527091	-0.8565916554	 2.4588570712	-0.048691
N	 0.0309844316	-0.8106802345	 1.1084395575	-0.051822
H	 0.8868561894	 1.8994764341	 0.5203378347	 0.154822
H	-0.0601516885	 1.8773779143	-0.9848181164	 0.174306
H	-0.8813268428	 1.8924463381	 0.5927368952	 0.154736
130.9503	188.784	224.4796	245.5528	388.5224	517.2442	628.1803	633.0404	656.0347	699.4766	714.0489	744.3955	836.1902	994.6402	1022.0667	1024.9705	1067.6203	1156.2674	1274.4065	1351.8287	1400.8198	1416.7797	1476.5066	1477.2518	1484.7385	1576.5726	1624.4882	3044.7897	3101.4604	3156.0674
CC1=NN=C2ON=NN12	Cc1nnc2onnn12	
InChI=1S/C3H3N5O/c1-2-4-5-3-8(2)6-7-9-3/h1H3	InChI=1S/C3H3N5O/c1-2-4-5-3-8(2)6-7-9-3/h1H3
