19
gdb 83599	2.25181	1.62374	1.26723	3.4594	75.88	-0.2293	-0.0306	0.1987	1094.639	0.157446	-423.016819	-423.007843	-423.006899	-423.050506	33.154	
C	-0.7612643402	 1.281536916	-0.5426684553	-0.410962
C	-0.1120759501	-0.0933146715	-0.3741600035	-0.116403
C	 0.8666981515	-0.5446304323	-1.5003871363	-0.151679
C	 1.0760793505	-2.0603827907	-1.5692458273	-0.092437
O	 2.0548622864	-2.0269783278	-0.5018498512	-0.322078
C	 2.0673092378	-0.5711983427	-0.4830655894	 0.322451
C	 3.4406975712	 0.0230421539	-0.6086653933	-0.48496
C	 1.0833688572	-0.0845052416	 0.6097009775	 0.379232
O	 1.2096079001	 0.2521215752	 1.7506271511	-0.303038
H	-0.0204855751	 2.0427800549	-0.810336299	 0.120466
H	-1.5220971592	 1.2602411191	-1.3289773516	 0.122449
H	-1.2364566576	 1.5937003663	 0.3914637812	 0.140088
H	-0.8741574833	-0.8401591059	-0.1242581159	 0.101767
H	 0.8654687109	 0.0371440209	-2.420773869	 0.084493
H	 0.2111616162	-2.6869727767	-1.3204597899	 0.105952
H	 1.526765171	-2.4237805386	-2.5011303843	 0.105585
H	 3.9420286164	-0.3372008308	-1.5117764756	 0.12624
H	 3.390863607	 1.1160626847	-0.64219294	 0.124793
H	 4.0434747192	-0.2614111022	 0.2598713219	 0.148039
61.1639	161.7561	190.3806	199.8344	215.9982	235.5291	264.6376	310.9846	371.339	478.7886	602.0786	648.355	743.2782	784.1236	804.4449	863.9352	910.7148	956.1832	983.2392	1003.7936	1008.1104	1056.4379	1072.2951	1110.4089	1139.7352	1145.228	1169.899	1188.1912	1229.5679	1266.527	1310.6565	1334.7152	1349.3404	1405.4753	1408.1584	1476.2906	1482.692	1494.7565	1496.5074	1521.5299	1886.2158	3014.9735	3034.8664	3037.4728	3045.5601	3060.8125	3102.3652	3111.234	3115.1397	3117.5673	3127.4233
CC1C2COC2(C)C1=O	C[C@H]1[C@@H]2CO[C@]2(C)C1=O	
InChI=1S/C7H10O2/c1-4-5-3-9-7(5,2)6(4)8/h4-5H,3H2,1-2H3	InChI=1S/C7H10O2/c1-4-5-3-9-7(5,2)6(4)8/h4-5H,3H2,1-2H3/t4-,5-,7-/m0/s1
