18
gdb 126173	4.05063	0.94871	0.88001	4.3791	73.91	-0.2564	-0.0094	0.2471	1362.3119	0.148455	-435.2685	-435.259674	-435.25873	-435.303045	32.075	
C	-0.027617724	 1.5505292185	 0.0624733738	-0.386085
C	-0.1159421849	 0.0359924933	-0.1291099765	-0.174517
C	 0.8116779597	-0.4712964379	-1.2509857822	 0.013782
O	 2.1640154013	-0.1122267588	-1.0082618691	-0.433829
C	 0.6954714991	-1.9605942906	-1.4259487945	 0.341022
C	-0.0636680021	-2.7403824519	-2.2647563516	-0.196892
N	 0.2664547056	-4.0087861364	-1.9179249462	-0.149676
N	 1.1777175479	-4.0329552162	-0.9323455839	-0.109601
N	 1.4331445558	-2.7923131463	-0.6330780086	-0.270381
H	 1.0038071513	 1.8479083627	 0.266387469	 0.136276
H	-0.3579325616	 2.0834004951	-0.8367111465	 0.108679
H	-0.655825202	 1.8800675759	 0.8953474556	 0.10861
H	 0.1569488766	-0.4842082707	 0.797673129	 0.10649
H	-1.145671815	-0.2635560468	-0.3634336679	 0.088095
H	 0.5292457555	 0.0243728101	-2.1889000927	 0.084023
H	 2.5331197973	-0.8027637781	-0.4425311613	 0.296437
H	-0.7719466218	-2.5136964135	-3.0433894164	 0.151568
H	-0.0637877388	-4.8791283384	-2.30394829	 0.285998
33.1254	103.4211	118.9654	203.5287	238.5434	283.9824	356.209	384.253	435.4431	517.5316	582.4607	696.0159	742.5504	757.9405	796.1926	801.9498	899.4478	988.1621	993.078	1038.5112	1060.2504	1065.8493	1117.5621	1124.987	1133.9884	1239.1504	1270.3766	1276.6228	1322.5209	1334.4072	1370.4477	1381.5243	1405.1606	1442.1606	1479.9404	1489.0615	1494.7099	1510.0522	1591.0026	3020.674	3025.1587	3035.043	3062.7159	3100.2652	3127.5738	3284.503	3655.9141	3771.3976
CCC(O)C1=CNN=N1	CC[C@@H](O)c1c[nH]nn1	
InChI=1S/C5H9N3O/c1-2-5(9)4-3-6-8-7-4/h3,5,9H,2H2,1H3,(H,6,7,8)	InChI=1S/C5H9N3O/c1-2-5(9)4-3-6-8-7-4/h3,5,9H,2H2,1H3,(H,6,7,8)/t5-/m1/s1
