20
gdb 85678	2.18247	1.37438	1.16741	4.5633	79.25	-0.2722	0.0032	0.2754	1188.5518	0.168677	-403.156035	-403.146215	-403.145271	-403.190909	36.109	
C	-0.7452269356	 1.3593031096	-0.0269191407	-0.412083
C	 0.0297683387	 0.0606499037	-0.0696281933	 0.138088
O	 1.2840027887	 0.187943662	-0.7953425645	-0.303091
C	 2.0041151941	-0.5216142901	 0.2213731833	-0.025571
C	 3.2297547158	 0.1633072741	 0.637054333	 0.283099
N	 4.1967582897	 0.6903591744	 0.9876682169	-0.330637
C	 0.7717291907	-0.4973431607	 1.1893255948	 0.210067
C	 0.9063688974	 0.4708750286	 2.3618032745	-0.449144
C	 0.3087097047	-1.8733109709	 1.6568907349	-0.457543
H	-0.1624510388	 2.1672221754	 0.4207185307	 0.130822
H	-1.013676726	 1.657404566	-1.0452313394	 0.135423
H	-1.6723886271	 1.2331254018	 0.5423551593	 0.121574
H	-0.5871427741	-0.7199310027	-0.5382154612	 0.076895
H	 2.273319219	-1.5364272552	-0.1035175726	 0.115032
H	 1.2840356752	 1.4483903553	 2.0534769274	 0.14156
H	-0.0622660822	 0.6159195394	 2.8509938795	 0.119112
H	 1.6014932015	 0.0722390449	 3.1074748473	 0.131756
H	 1.0079840977	-2.2976903434	 2.3853691417	 0.127995
H	-0.6715164637	-1.8050370328	 2.1413171694	 0.125168
H	 0.2216356341	-2.5753725896	 0.821472239	 0.121481
31.3251	142.1995	178.4575	202.3787	220.7864	238.4574	271.4124	295.6145	342.7963	359.8124	402.5491	482.8209	546.0021	558.9798	653.4846	771.3107	827.8229	886.6443	955.6753	973.7142	986.5527	1013.4614	1042.195	1058.5685	1100.0255	1141.5238	1199.1648	1205.2277	1253.7185	1277.1031	1326.8066	1353.2906	1394.7992	1406.2795	1416.9678	1431.3793	1476.2494	1480.5769	1488.9657	1494.7029	1503.9285	1509.9621	2354.4899	2991.8639	3008.0791	3028.6586	3039.6703	3043.5282	3096.8658	3102.0162	3106.2662	3109.2834	3122.6703	3133.6204
CC1OC(C#N)C1(C)C	C[C@H]1O[C@@H](C#N)C1(C)C	
InChI=1S/C7H11NO/c1-5-7(2,3)6(4-8)9-5/h5-6H,1-3H3	InChI=1S/C7H11NO/c1-5-7(2,3)6(4-8)9-5/h5-6H,1-3H3/t5-,6+/m1/s1
