15
gdb 25184	2.61617	1.72934	1.04113	5.0368	83.59	-0.2196	-0.0629	0.1567	1073.7136	0.11583	-416.849252	-416.841915	-416.840971	-416.882384	27.7	
N	-0.0646192719	 0.9768093367	-1.0591387107	-0.448724
C	 0.0154829092	 0.0521210693	-0.1716553971	 0.165741
C	 1.2843869386	-0.4413163023	 0.3498633102	-0.148675
C	 1.5761817123	-1.3903863849	 1.2696921202	-0.09164
C	 0.7002516011	-2.2244108762	 2.0339155799	-0.127514
C	-0.6481193609	-2.233705843	 1.9901853653	 0.017466
N	-1.4924625675	-1.469091833	 1.2252530631	-0.360991
C	-1.3541927531	-0.4593863231	 0.2637480534	 0.384159
O	-2.3718778586	-0.0097010535	-0.2072545989	-0.307961
H	 0.8748150905	 1.2882726835	-1.3202105452	 0.220017
H	 2.1365227662	 0.0638526139	-0.1005460645	 0.094597
H	 2.6348163082	-1.5476486064	 1.4614244498	 0.107016
H	 1.1593547741	-2.9243208764	 2.7218275873	 0.103244
H	-1.1907874993	-2.9225839673	 2.6284772656	 0.129796
H	-2.480264389	-1.6457100772	 1.3553743716	 0.263467
21.6644	115.2947	334.9956	353.5866	375.9945	409.8834	453.9743	528.9264	594.7474	653.3832	710.6853	754.0763	768.7721	798.036	851.0231	902.7727	937.1764	953.4877	971.0316	1013.7012	1042.5985	1159.6021	1226.3109	1273.3852	1330.1147	1411.7475	1431.4485	1479.4139	1517.1104	1625.8068	1635.8546	1702.9396	1793.8847	3136.479	3161.6029	3185.9736	3206.7818	3432.7364	3586.4207
N=C1C=CC=CNC1=O	[NH]C1=C[CH]C=CNC1=O	
InChI=1S/C6H6N2O/c7-5-3-1-2-4-8-6(5)9/h1-4H,(H2,7,8,9)	InChI=1S/C6H6N2O/c7-5-3-1-2-4-8-6(5)9/h1-4H,(H2,7,8,9)
