19
gdb 85321	2.29702	1.81946	1.18655	4.3934	74.66	-0.2579	0.0119	0.2698	1076.4258	0.160683	-423.070356	-423.062468	-423.061524	-423.102839	30.479	
C	-0.0184921091	 1.5630694443	-0.1155219266	-0.403425
C	 0.0265558288	 0.0532162537	 0.0360832358	 0.113399
O	 0.6675369759	-0.5242580463	-1.1284857588	-0.237502
C	 1.4015260723	-1.6286519277	-0.8128797305	 0.428387
O	 1.9396458833	-2.2964891492	-1.6483995258	-0.346459
C	 1.4342425814	-1.8198577975	 0.700042969	-0.173764
C	 2.7966837948	-1.4173904488	 1.3265884168	-0.2241
C	 2.2376473729	 0.0202866921	 1.5299366191	-0.242283
C	 0.8003948445	-0.5131114738	 1.2311636109	-0.032698
H	 0.9864994893	 1.9899348564	-0.1627374012	 0.130575
H	-0.5504586737	 1.839132006	-1.0295527397	 0.136359
H	-0.5447124492	 2.0060788455	 0.7360832899	 0.12145
H	-1.0001623014	-0.3380075043	 0.0579049876	 0.089353
H	 1.0192595159	-2.7949032407	 0.9620671296	 0.102233
H	 2.969657164	-1.9354449453	 2.2724526282	 0.110349
H	 3.6774089286	-1.5375622896	 0.6926668561	 0.123959
H	 2.3885545167	 0.4707545349	 2.5124193073	 0.106866
H	 2.5987711144	 0.7200329627	 0.7725555947	 0.117496
H	 0.1748503608	-0.6007643925	 2.1204690977	 0.079806
104.9991	121.5085	220.0247	231.8274	238.2984	323.779	487.9157	502.2453	587.8547	672.0467	687.2068	714.2305	772.5378	802.8082	872.5587	903.0373	941.2743	959.7943	965.6589	1009.6787	1028.1127	1071.5292	1094.0419	1137.7913	1155.7349	1182.8812	1191.1938	1229.348	1243.4389	1262.6671	1271.7148	1312.4046	1329.9433	1371.8871	1387.5577	1414.3505	1478.9431	1486.1135	1496.3569	1500.9518	1873.3595	3006.0867	3047.2718	3069.6146	3073.3447	3092.9381	3102.9129	3116.9116	3119.5704	3129.4235	3134.0157
CC1OC(=O)C2CCC12	C[C@H]1OC(=O)[C@H]2CC[C@@H]12	
InChI=1S/C7H10O2/c1-4-5-2-3-6(5)7(8)9-4/h4-6H,2-3H2,1H3	InChI=1S/C7H10O2/c1-4-5-2-3-6(5)7(8)9-4/h4-6H,2-3H2,1H3/t4-,5+,6+/m1/s1
