19
gdb 17287	3.01115	2.42104	1.86227	1.5793	74.37	-0.2214	0.08	0.3014	814.8045	0.166654	-327.862488	-327.855515	-327.854571	-327.893034	28.6	
C	-0.0230057272	 1.541229219	-0.0110764468	-0.494177
C	 0.008099714	 0.030005467	 0.0132685387	 0.374918
C	-1.3134934673	-0.7574013902	 0.2825281703	-0.274228
C	-0.6173946177	-1.5406667963	 1.4399117687	-0.221315
C	 0.7071472597	-0.7702569211	 1.1672544603	-0.073057
C	 1.6819659001	-1.3601680631	 0.1244905326	-0.053607
N	 0.8746636503	-2.0915666728	-0.8834310192	-0.337604
C	 1.0089728703	-0.6197215258	-0.9801262252	-0.109586
H	 0.9902928948	 1.960455453	-0.0202255219	 0.112005
H	-0.5428300962	 1.9120235842	-0.9036421839	 0.114499
H	-0.5425323076	 1.9413720487	 0.866279981	 0.114
H	-2.129987472	-0.1103959057	 0.6158913648	 0.086489
H	-1.6608636052	-1.3733320434	-0.5482405054	 0.107243
H	-1.0376315104	-1.3319770695	 2.4268245709	 0.088814
H	-0.5583612667	-2.6202617395	 1.2962409117	 0.109999
H	 1.187113353	-0.2459724476	 1.995124326	 0.060881
H	 2.7264284826	-1.611798115	 0.2673716409	 0.085971
H	 1.528217999	-2.4967441701	-1.5525589518	 0.227538
H	 1.4155365867	-0.1649461018	-1.8774062416	 0.08122
176.7908	232.8528	244.7137	290.8332	324.0237	423.6623	528.8815	618.222	689.3846	729.3254	791.5362	808.5547	831.3691	871.0774	881.8967	915.0181	934.7283	947.8372	986.8566	996.3602	1018.5871	1070.2142	1101.6681	1120.422	1145.3547	1166.2109	1197.2286	1222.0458	1239.9181	1253.2143	1270.069	1287.9133	1324.7326	1334.723	1377.9124	1408.8959	1457.8993	1478.6132	1492.094	1493.8709	3014.3916	3055.9416	3067.4919	3075.0291	3089.718	3097.3705	3118.2699	3134.5375	3160.8912	3179.0589	3474.6047
CC12CCC1C1NC21	C[C@]12CC[C@H]1[C@H]1N[C@@H]21	
InChI=1S/C7H11N/c1-7-3-2-4(7)5-6(7)8-5/h4-6,8H,2-3H2,1H3	InChI=1S/C7H11N/c1-7-3-2-4(7)5-6(7)8-5/h4-6,8H,2-3H2,1H3/t4-,5+,6+,7-/m0/s1
