16
gdb 87477	3.78826	1.26567	1.12969	2.8905	70.76	-0.2452	-0.0193	0.2259	1089.7932	0.122233	-437.775074	-437.767194	-437.76625	-437.807499	29.75	
C	-0.1666191398	 1.4455554404	-0.0371635508	-0.322484
N	 0.0467745686	 0.0041719285	 0.0163672714	-0.153652
C	 1.41015388	-0.49396359	-0.2495059691	-0.348049
C	 0.8104564568	-0.5255945885	 1.0990094262	 0.481942
C	 1.1937894861	 0.0789860077	 2.4646656584	-0.208767
O	-0.0900584266	-0.459550233	 2.9978406532	-0.298931
C	 0.3813657215	-1.5802146838	 2.1308658627	-0.204102
C	 1.7457005636	-1.3299791928	 2.8374600375	 0.491094
O	 2.6035515521	-1.8692486114	 3.4511320976	-0.306609
H	 0.7051119217	 2.02961801	 0.2996586112	 0.101584
H	-0.3968948137	 1.7331024131	-1.0669255933	 0.130806
H	-1.0213519669	 1.7012650218	 0.595006915	 0.141678
H	 1.4759805817	-1.3907297999	-0.85914922	 0.131451
H	 2.1958399178	 0.2409891816	-0.4238360187	 0.119518
H	 1.4870624026	 1.083147271	 2.7596370789	 0.120966
H	-0.2570745854	-2.4539730648	 2.0313583799	 0.123555
104.7459	141.4469	182.6117	207.4361	283.7072	379.5977	406.941	491.7249	533.9085	582.4756	691.7789	751.5251	777.6328	790.9244	838.9443	895.3168	945.3603	967.5878	1042.0432	1054.3008	1099.8902	1115.9776	1126.6888	1134.1959	1166.9564	1179.5703	1193.0245	1211.0362	1229.5475	1442.3203	1451.4596	1492.4967	1494.6724	1523.2554	1940.3164	2972.9659	3080.0796	3090.4059	3119.7485	3164.6491	3171.6686	3183.344
CN1CC11C2OC1C2=O	CN1C[C@]21[C@H]1O[C@@H]2C1=O	
InChI=1S/C6H7NO2/c1-7-2-6(7)4-3(8)5(6)9-4/h4-5H,2H2,1H3	InChI=1S/C6H7NO2/c1-7-2-6(7)4-3(8)5(6)9-4/h4-5H,2H2,1H3/t4-,5+,6-,7?
