18
gdb 16277	3.15454	1.77928	1.42409	0.772	79.51	-0.2293	0.0404	0.2697	951.5371	0.15297	-310.614474	-310.606562	-310.605618	-310.64624	30.883	
C	-0.1087707859	 1.5676145524	 0.0533875299	-0.413415
C	 0.0716398351	 0.0569694836	 0.0027511586	-0.030468
C	 1.1722128805	-0.5665131789	-0.9235925733	-0.251453
C	 1.7733468598	-1.292191133	 0.2830591593	-0.102937
C	 2.1874649125	-0.30360822	 1.3249254874	-0.324848
C	 0.7166930284	-0.6535545777	 1.218479377	 0.208936
C	-0.012241342	-1.2249109401	 2.2980413452	 0.177754
C	-0.6572920437	-1.6973995555	 3.1989457465	-0.420697
H	 0.8326269776	 2.0846266973	 0.2661265315	 0.113997
H	-0.4852966992	 1.9466720398	-0.9031172386	 0.115111
H	-0.8274630609	 1.8473079678	 0.8310254701	 0.12462
H	-0.8895052318	-0.4193690747	-0.2093255935	 0.083048
H	 0.7543904089	-1.234817226	-1.6788610227	 0.106027
H	 1.8438079151	 0.1429813098	-1.4193357639	 0.096899
H	 2.1220612748	-2.3172230999	 0.2963515606	 0.099921
H	 2.6797771308	-0.7151748024	 2.1990688816	 0.125517
H	 2.5352044195	 0.6861086607	 1.038526078	 0.109751
H	-1.2189335296	-2.1157975332	 3.9963417662	 0.182237
117.6498	155.6598	205.4533	230.0711	290.6291	391.0289	446.0527	500.0263	530.0338	559.0929	609.8517	640.5872	677.0562	808.5884	835.5552	863.1797	881.3235	934.9092	971.2717	1026.2955	1033.0717	1075.7564	1094.0926	1113.8701	1139.862	1180.927	1208.6038	1239.6441	1267.5346	1288.2314	1363.3916	1386.0329	1411.1765	1481.2001	1493.5728	1497.3259	1503.2211	2227.1251	3029.1789	3043.707	3063.5513	3095.8067	3101.0243	3110.9512	3113.6611	3191.6394	3211.8042	3505.7812
CC1CC2CC12C#C	C[C@H]1C[C@H]2C[C@@]12C#C	
InChI=1S/C8H10/c1-3-8-5-7(8)4-6(8)2/h1,6-7H,4-5H2,2H3	InChI=1S/C8H10/c1-3-8-5-7(8)4-6(8)2/h1,6-7H,4-5H2,2H3/t6-,7-,8-/m0/s1
