18
gdb 50983	2.01147	1.33196	0.92453	3.5527	79.69	-0.2586	0.0185	0.2771	1301.7531	0.144835	-401.892488	-401.883023	-401.882079	-401.92742	34.632	
N	-2.3253126466	 0.5769138008	-1.8432893927	-0.439358
C	-2.1266043153	-0.5994867472	-1.4347022994	 0.112733
O	-1.4726102876	-0.8046030144	-0.2687971304	-0.221567
C	-1.2054409493	-2.146821849	 0.0786526558	 0.425805
C	-0.0065403811	-2.7454906768	-0.6480840138	-0.424324
C	 1.2477847636	-2.0606622442	-0.353980668	 0.325172
C	 2.2788003064	-1.4975241372	-0.1046066301	-0.442847
C	-1.4460761182	-2.4660326518	 1.5174569799	-0.300425
C	-2.3770880404	-3.0186134327	 0.4556516358	-0.335559
H	-2.841364202	 0.5555215391	-2.7203595	 0.229243
H	-2.4482685979	-1.5276887297	-1.9244104288	 0.091508
H	 0.0741964624	-3.8032407017	-0.3699949	 0.134186
H	-0.1914046591	-2.7298914834	-1.7305380488	 0.13132
H	 3.186843918	-0.9919802325	 0.1127113832	 0.200362
H	-0.7560982321	-3.1406171256	 2.0112936003	 0.124941
H	-1.8187343063	-1.6578987828	 2.1350360612	 0.138403
H	-3.3657382797	-2.5796306885	 0.3864618444	 0.130018
H	-2.333593935	-4.0762637924	 0.2188954314	 0.120391
48.1269	87.6201	130.9297	142.0616	208.5265	301.9037	313.4474	342.925	373.4238	461.2968	514.6235	608.7496	625.3078	648.1327	772.2333	785.5744	822.6083	895.712	902.23	931.8801	978.627	1002.8022	1023.4351	1049.9025	1059.8988	1084.6732	1095.5729	1187.2611	1197.8946	1277.6441	1291.2596	1331.1499	1367.9485	1415.9942	1456.5886	1462.2819	1499.8545	1745.9937	2244.6545	3018.3285	3035.1457	3057.234	3137.6857	3147.1724	3223.2944	3240.4385	3507.3861	3517.8928
N=COC1(CC#C)CC1	[NH][CH]OC1(CC#C)CC1	
InChI=1S/C7H9NO/c1-2-3-7(4-5-7)9-6-8/h1,6,8H,3-5H2	InChI=1S/C7H9NO/c1-2-3-7(4-5-7)9-6-8/h1,6,8H,3-5H2
