23
gdb 121536	6.85215	0.43973	0.42916	0.1001	98.76	-0.2249	0.0558	0.2807	2644.3181	0.204611	-351.127782	-351.117028	-351.116084	-351.165526	38.178	
C	 0.041794169	 1.5759666879	-0.0248627919	-0.385124
C	 0.0083412861	 0.0459050975	 0.0165129357	-0.160463
C	-1.4142626391	-0.521164836	 0.0121000353	-0.147543
C	-1.4418370689	-2.0624998333	 0.0575027743	-0.358375
C	-2.7917457155	-2.6159036998	 0.0511935355	 0.010957
C	-3.9186154303	-3.0455239902	 0.0439041611	 0.131818
C	-5.2575977337	-3.5618265729	 0.0420454761	-0.154783
C	-5.8413486753	-4.1877708834	-1.2148576507	-0.252242
C	-5.5043840739	-5.0601230139	-0.041588464	-0.251528
H	 1.0690066522	 1.9537030352	-0.0214554138	 0.111521
H	-0.4510331203	 1.9581592886	-0.925657443	 0.115076
H	-0.4744366382	 2.006096398	 0.8405140303	 0.115095
H	 0.5621366989	-0.3569799156	-0.8421499552	 0.094557
H	 0.5378349187	-0.3085303179	 0.9110524222	 0.094885
H	-1.9743096897	-0.1298320288	 0.8700881742	 0.104073
H	-1.9490959158	-0.1821267416	-0.8833231848	 0.104329
H	-0.8800087739	-2.4578692829	-0.8000315948	 0.121914
H	-0.9027411336	-2.4066061162	 0.9511606901	 0.12145
H	-5.9617575627	-3.0078749169	 0.6567189361	 0.105741
H	-6.8849196	-3.988904727	-1.4317723801	 0.115244
H	-5.1977508125	-4.2332268137	-2.0851860155	 0.123779
H	-4.6319063452	-5.6982260653	-0.1147615928	 0.124211
H	-6.3143949563	-5.465363192	 0.5544691459	 0.115409
25.8997	62.8445	65.3217	117.2785	141.5553	161.7527	241.7148	250.5095	311.7618	367.7204	471.2721	496.0229	529.8794	703.7117	733.8187	791.7981	796.8755	821.8452	897.7933	901.0984	914.6438	932.5261	1002.8179	1058.3699	1061.9821	1063.366	1078.6652	1119.1998	1121.742	1129.7357	1184.78	1201.2817	1231.3477	1241.2981	1277.7143	1312.5929	1326.7494	1358.4582	1390.9681	1396.2792	1414.6218	1467.3926	1474.2409	1485.306	1497.7607	1498.6196	1500.9248	1511.6217	2361.8134	3003.6998	3011.6972	3028.7349	3029.4147	3033.559	3038.225	3075.0393	3097.7326	3102.0221	3139.2217	3139.282	3145.18	3223.7385	3238.9421
CCCCC#CC1CC1	CCCCC#CC1CC1	
InChI=1S/C9H14/c1-2-3-4-5-6-9-7-8-9/h9H,2-4,7-8H2,1H3	InChI=1S/C9H14/c1-2-3-4-5-6-9-7-8-9/h9H,2-4,7-8H2,1H3
