20
gdb 86377	2.55068	1.45796	1.11423	2.3051	73.66	-0.2422	0.0659	0.3081	1144.4509	0.171679	-440.274019	-440.265217	-440.264272	-440.307178	34.418	
C	-0.1073443868	 1.4912721282	 0.0301856174	-0.499732
C	 0.1424834965	 0.0089480878	-0.0252335274	 0.30328
N	-0.714229108	-0.9263679534	 0.7547701626	-0.40351
C	 0.7384450251	-0.7978238137	 1.057947325	-0.131732
C	 1.5164592745	-1.9686359019	 0.4793364483	 0.152945
O	 1.3446231175	-3.1721865149	 1.2044246729	-0.440165
C	 1.0361868795	-2.0418508736	-0.9931653774	-0.295024
C	 0.4997630964	-0.6374663723	-1.3640305237	 0.106446
O	-0.5871399805	-0.6480154834	-2.2714985427	-0.441245
H	 0.7773873402	 2.0486108873	-0.296492767	 0.127233
H	-0.9336678047	 1.7630789303	-0.6349529702	 0.137785
H	-0.3560499158	 1.8194785569	 1.044754379	 0.111734
H	-1.2404669394	-0.3918368472	 1.4424501586	 0.230342
H	 1.0324628288	-0.3673737485	 2.01029649	 0.08839
H	 2.5890924987	-1.7511091789	 0.529999522	 0.088727
H	 0.3913982359	-3.3101735047	 1.2689332354	 0.284464
H	 1.8190501727	-2.3854332498	-1.6721059093	 0.105839
H	 0.213573671	-2.7604811338	-1.0567522188	 0.103843
H	 1.2777297324	-0.0399539486	-1.8531365332	 0.08612
H	-1.3110464943	-1.0898534258	-1.8098436616	 0.28426
88.5307	123.2277	207.4785	231.7273	258.4167	309.3971	396.7272	408.7691	443.8356	465.3893	496.816	563.1055	612.8147	637.0944	694.5152	831.9961	878.1821	885.9196	949.1804	996.594	1002.7473	1020.6759	1045.5608	1070.9376	1087.8512	1103.7023	1122.4357	1128.6951	1179.8391	1254.7152	1278.5481	1295.2932	1323.1649	1337.4625	1340.6492	1358.1481	1411.6549	1429.7029	1439.9658	1457.843	1480.9382	1483.0387	1502.854	3029.6057	3047.6672	3052.6777	3064.7915	3096.5425	3103.1637	3117.7795	3161.3736	3493.0569	3776.0063	3779.6883
CC12NC1C(O)CC2O	C[C@]12N[C@H]1[C@@H](O)C[C@H]2O	
InChI=1S/C6H11NO2/c1-6-4(9)2-3(8)5(6)7-6/h3-5,7-9H,2H2,1H3	InChI=1S/C6H11NO2/c1-6-4(9)2-3(8)5(6)7-6/h3-5,7-9H,2H2,1H3/t3-,4+,5-,6+/m0/s1
