21
gdb 73329	2.59159	1.95108	1.37416	0.6343	88.09	-0.2181	0.0004	0.2184	1013.919	0.184947	-349.925609	-349.918229	-349.917285	-349.95675	31.083	
C	 0.0985218432	 1.4852243853	 0.0226130459	-0.47931
C	-0.0834810512	-0.018490713	-0.0114613467	 0.354188
C	 0.7502757084	-0.7742281312	-1.0940993528	-0.275599
C	-0.2445482436	-1.799373796	-1.7654367305	-0.263258
C	-1.060307486	-2.0224970478	-0.5167337352	 0.122906
C	-0.6552958726	-2.8400881979	 0.4667536473	-0.114186
C	-0.5042580417	-2.0855976525	 1.7759044021	-0.272694
C	-0.6692757411	-0.6361950151	 1.3094023298	-0.090038
C	-1.4401371192	-0.6569704204	 0.0256804106	-0.156023
H	 1.1041812606	 1.7593165305	 0.3636034172	 0.116218
H	-0.039472109	 1.9200415506	-0.9748330272	 0.111985
H	-0.6202034819	 1.9640928659	 0.6949711473	 0.113215
H	 1.1419190582	-0.0497482436	-1.8179337207	 0.092872
H	 1.6050669514	-1.3157156837	-0.6762832246	 0.102121
H	-0.7940685642	-1.325810882	-2.5856602854	 0.097718
H	 0.2593464274	-2.6921576465	-2.1428866775	 0.099209
H	-0.1486268481	-3.7851270936	 0.2946329767	 0.086686
H	-1.2416710719	-2.3223799411	 2.557483011	 0.102785
H	 0.4817610836	-2.3064612858	 2.206949799	 0.104244
H	-0.889824306	 0.1137913439	 2.0647619978	 0.071669
H	-2.3875324463	-0.1703090561	-0.1836474241	 0.075292
201.5582	215.647	246.1333	271.1111	350.5033	383.4495	442.8416	524.656	632.2766	645.9378	721.4205	758.2312	823.4307	826.3349	852.3755	866.1491	885.9556	920.0573	927.9172	948.9591	995.0092	1010.9829	1021.5697	1062.8731	1091.1361	1094.0838	1121.2736	1150.79	1162.4628	1185.9154	1228.6297	1242.4271	1273.3163	1284.3929	1306.4558	1310.1605	1330.0672	1402.6314	1417.5011	1476.837	1482.2336	1492.2683	1496.7461	1500.26	1656.716	2992.0414	3017.5877	3028.5122	3030.9054	3046.6359	3073.9356	3076.9884	3096.4087	3111.5356	3139.7621	3154.4178	3171.8131
CC12CCC3=CCC1C23	C[C@@]12CC[C]3[CH]C[C@@H]1[C@@H]23	
InChI=1S/C9H12/c1-9-5-4-6-2-3-7(9)8(6)9/h2,7-8H,3-5H2,1H3	InChI=1S/C9H12/c1-9-5-4-6-2-3-7(9)8(6)9/h2,7-8H,3-5H2,1H3/t7-,8+,9-/m1/s1
