17
gdb 34363	2.74956	1.61973	1.3057	1.7017	79.21	-0.2471	0.0127	0.2598	1014.2696	0.135948	-384.64642	-384.638791	-384.637847	-384.678395	30.031	
C	 0.0317092116	-1.1531205054	-0.1472117686	-0.436739
C	 0.020147718	 0.0461149979	-0.0607045933	 0.289105
C	 0.0143770249	 1.4953822064	 0.0309875566	 0.224812
C	-0.8649144016	 2.207786357	-1.0227386737	-0.319496
C	-0.0363197165	 3.4092320561	-1.4080112052	-0.064598
C	 1.1726343976	 3.4154120118	-0.8458418674	-0.083792
C	 1.3930370602	 2.2436108121	 0.0658281516	-0.159834
C	 1.0560260445	 2.4835708732	 1.5550980291	-0.084924
O	-0.2784554734	 1.9622503002	 1.3784616644	-0.30872
H	 0.0363093064	-2.2128041987	-0.2173352655	 0.196053
H	-1.0821854033	 1.5622346884	-1.8819687497	 0.117654
H	-1.8243616248	 2.4748860329	-0.5649963371	 0.130307
H	-0.4086417083	 4.1700714357	-2.085315841	 0.099444
H	 1.9265542223	 4.1806944515	-0.9949092674	 0.098816
H	 2.2985678588	 1.6686068454	-0.1360241211	 0.093634
H	 1.639430189	 1.873021423	 2.2560904383	 0.103936
H	 1.0464712945	 3.5249625325	 1.89404927	 0.104342
102.6728	147.3651	200.0867	254.9869	365.857	440.0723	495.4085	516.1248	565.7126	620.3789	662.667	675.6206	740.2487	771.1098	851.3336	881.1701	906.6546	960.8202	970.9401	1009.4015	1034.1885	1039.9839	1076.6692	1091.8922	1127.8962	1145.2924	1165.482	1199.2935	1229.7411	1300.7236	1335.5181	1343.5562	1371.2758	1465.2344	1517.7323	1679.8001	2232.477	3015.6432	3034.2769	3071.5303	3072.559	3095.8087	3181.7553	3206.3236	3501.1131
C#CC12CC=CC1CO2	C#C[C@]12CC=C[C@H]1CO2	
InChI=1S/C8H8O/c1-2-8-5-3-4-7(8)6-9-8/h1,3-4,7H,5-6H2	InChI=1S/C8H8O/c1-2-8-5-3-4-7(8)6-9-8/h1,3-4,7H,5-6H2/t7-,8-/m0/s1
