17
gdb 32619	4.64623	0.92295	0.81638	4.6918	85.96	-0.2127	0.0067	0.2194	1411.3563	0.136204	-380.881902	-380.873236	-380.872292	-380.915865	31.882	
C	 0.0652210087	 1.5631948678	 0.0592328224	-0.372861
C	-0.0556507305	 0.0420045918	-0.0504832962	-0.161255
N	 0.6540114766	-0.5048280373	-1.199206369	 0.027176
C	 0.1056074496	-0.8992079445	-2.3884140011	-0.013754
N	 1.0044545229	-1.3026924927	-3.2509340127	-0.321439
C	 2.2180260184	-1.164092691	-2.5967527432	 0.13975
C	 2.0103073697	-0.6687249562	-1.325976669	-0.218389
C	 3.4577012819	-1.5026166602	-3.1909365813	 0.249727
C	 4.5191035986	-1.7853522186	-3.6839359664	-0.433898
H	 1.1097834466	 1.8675764181	 0.1697314197	 0.13503
H	-0.3387828941	 2.0504854439	-0.8325212632	 0.136923
H	-0.4894135199	 1.9214000257	 0.9316313086	 0.126921
H	 0.3287351714	-0.4408158852	 0.8538763338	 0.129807
H	-1.1043660721	-0.2527474689	-0.1496124759	 0.128493
H	-0.9619273309	-0.8714306026	-2.5541248447	 0.128013
H	 2.6948510353	-0.4355769677	-0.5275932387	 0.135154
H	 5.4502850877	-2.0378565823	-4.1263892532	 0.184603
48.0453	96.3305	143.6333	188.8632	225.7601	340.2004	387.0584	477.2913	537.5893	550.6251	561.4427	650.974	657.4959	700.1931	707.3121	763.0795	795.9661	828.819	963.3163	991.3733	1062.6577	1101.746	1116.0144	1176.9242	1242.6764	1278.3504	1289.7139	1387.4777	1405.6497	1415.4539	1421.0869	1484.9303	1490.9217	1505.4488	1528.7391	1562.0718	2236.2274	3045.4746	3052.5576	3093.7289	3121.2834	3128.1339	3242.1366	3275.8456	3506.0728
CCN1C=NC(=C1)C#C	CCn1cnc(c1)C#C	
InChI=1S/C7H8N2/c1-3-7-5-9(4-2)6-8-7/h1,5-6H,4H2,2H3	InChI=1S/C7H8N2/c1-3-7-5-9(4-2)6-8-7/h1,5-6H,4H2,2H3
