23
gdb 103284	2.47678	1.28488	1.0913	1.5105	86.01	-0.2275	0.0848	0.3123	1276.6301	0.204255	-388.256348	-388.246592	-388.245648	-388.290468	37.411	
C	-1.7144704132	 1.5999206084	 0.5426616408	-0.388157
C	-0.9738287646	 0.281778002	 0.2735716965	-0.25674
C	-0.1563695917	-0.2199500515	 1.4560538278	 0.314791
C	 0.8096118737	 0.7886115513	 2.0643854721	-0.462301
C	-0.7443938525	-1.1606865686	 2.4649706965	 0.051854
O	-1.672721681	-2.0783467424	 1.8753379065	-0.309128
C	-0.581818655	-2.7382574365	 1.1597991057	 0.140875
C	-0.8699006801	-3.093747035	-0.2860432288	-0.416337
C	 0.3957254669	-1.6438010821	 1.5869373843	-0.216247
H	-1.0293866017	 2.440443057	 0.6878948688	 0.114276
H	-2.3649912995	 1.8503512374	-0.3009842062	 0.110865
H	-2.3443595587	 1.5211459776	 1.4353760681	 0.120063
H	-1.7149437109	-0.4772205344	 0.0185269523	 0.120057
H	-0.3190761567	 0.401756252	-0.599911097	 0.08762
H	 0.2873066227	 1.677925801	 2.4288513347	 0.122704
H	 1.3545161745	 0.357114647	 2.9103271717	 0.113213
H	 1.5508832706	 1.1132816434	 1.3249304028	 0.118043
H	-0.8225141221	-0.9846388815	 3.5331564149	 0.09468
H	-0.3376133568	-3.6597306594	 1.7083938877	 0.081463
H	-1.0307867983	-2.218578251	-0.9162222886	 0.125621
H	-0.024694328	-3.6592185948	-0.6937698057	 0.117389
H	-1.7575189709	-3.7327037504	-0.3426926685	 0.126861
H	 1.4346990234	-1.8190477196	 1.8365818035	 0.088535
76.1826	155.5588	159.9259	201.2945	210.6608	228.8942	274.8708	317.5588	335.2967	373.9355	427.0159	519.5858	582.4547	669.1401	711.799	793.1428	819.0735	848.5162	883.7269	924.6138	930.3658	1002.328	1021.5659	1025.3893	1037.9003	1053.0447	1063.7012	1090.6217	1113.9148	1141.0574	1159.9078	1206.175	1256.2834	1292.9483	1296.104	1328.2075	1366.2372	1397.0686	1407.7956	1408.9152	1415.2648	1421.6978	1478.1782	1490.447	1495.8039	1498.2219	1498.5439	1504.2349	1515.164	2990.5888	3018.9765	3029.1124	3035.2286	3040.897	3091.5213	3096.8953	3101.5138	3102.2265	3107.1029	3121.925	3145.5825	3158.3409	3187.1283
CCC1(C)C2OC(C)C12	CC[C@@]1(C)[C@H]2O[C@@H](C)[C@@H]12	
InChI=1S/C8H14O/c1-4-8(3)6-5(2)9-7(6)8/h5-7H,4H2,1-3H3	InChI=1S/C8H14O/c1-4-8(3)6-5(2)9-7(6)8/h5-7H,4H2,1-3H3/t5-,6+,7-,8+/m0/s1
