15
gdb 67679	2.58617	1.92328	1.38476	2.7642	64.77	-0.2369	-0.0073	0.2296	919.4847	0.112508	-457.741334	-457.734113	-457.733169	-457.7729	27.88	
O	-0.0511102622	 1.4133842485	 0.0608839431	-0.445766
C	 0.0819077066	 0.0491987544	 0.0638550425	 0.211569
C	-0.2349921107	-0.8170792475	-1.1763358659	 0.038045
O	 0.5722975502	-1.9187048579	-1.4959847997	-0.262513
C	 0.4673158155	-2.848740895	-0.4075360643	-0.090582
C	-0.1322072392	-2.0291604981	 0.7408458983	-0.210593
C	-1.0684485447	-1.0222459933	 0.0200084219	-0.175995
C	 0.7694785705	-0.8062158197	 1.0807942336	 0.380232
O	 1.5553513957	-0.5890443072	 1.9590804108	-0.339482
H	 0.6495624671	 1.7948004277	-0.4802099046	 0.301891
H	-0.588254468	-0.261724883	-2.0378452972	 0.124574
H	-0.1858523256	-3.6859865891	-0.6890635661	 0.10798
H	 1.4659525422	-3.2344270926	-0.1827000929	 0.129271
H	-0.5031282546	-2.5958901775	 1.5928261929	 0.107059
H	-2.1301833427	-0.8755272398	 0.1533928276	 0.12431
122.0786	188.9311	233.4284	265.2081	299.3296	410.3346	470.3676	570.3725	661.8219	698.2849	724.7851	801.0625	824.1341	878.7809	897.9908	916.597	942.651	960.229	988.5565	1025.3419	1056.4039	1116.6573	1150.2874	1183.4321	1223.8512	1240.9973	1248.6918	1281.331	1324.9233	1380.0626	1441.3532	1517.3332	1876.1277	3011.9958	3089.7256	3145.1347	3190.2656	3228.9971	3797.4321
OC12C3OCC(C13)C2=O	O[C@]12[C@H]3OC[C@H]([C@@H]13)C2=O	
InChI=1S/C6H6O3/c7-4-2-1-9-5-3(2)6(4,5)8/h2-3,5,8H,1H2	InChI=1S/C6H6O3/c7-4-2-1-9-5-3(2)6(4,5)8/h2-3,5,8H,1H2/t2-,3-,5+,6-/m1/s1
