20
gdb 39878	3.83489	1.52611	1.40627	1.5057	82.87	-0.2228	0.0869	0.3097	998.5754	0.17408	-365.939761	-365.93311	-365.932166	-365.970426	28.563	
C	-0.0048075513	 1.5657528808	 0.0384688126	-0.361148
C	 1.2877366346	 0.7676075254	-0.0176567072	-0.349104
C	-0.0330997012	 0.0736076815	 0.0106514596	 0.462924
C	-0.5381836298	-0.9599322482	 1.0164663086	-0.10116
C	-2.0702076132	-0.8390658325	 0.8267329486	-0.223595
C	-2.0320971416	-1.3497088755	-0.6308265534	-0.065822
C	-1.4329900974	-2.7469791815	-0.3957854195	-0.163643
N	-0.1525577256	-2.0557757928	-0.016351131	-0.152613
C	-0.5421812525	-0.9338657332	-0.9910082855	-0.096306
H	-0.2511253062	 2.0685700196	 0.9688349982	 0.11218
H	-0.3103662576	 2.1067147155	-0.8515727113	 0.112784
H	 1.8510314774	 0.7698106516	-0.9453873491	 0.11462
H	 1.9030524028	 0.7356908462	 0.8755957338	 0.116158
H	-0.1239914792	-1.0643478506	 2.0186217089	 0.072237
H	-2.6635600067	-1.4857971208	 1.4790895806	 0.092236
H	-2.415921253	 0.1913328886	 0.939105174	 0.099854
H	-2.8907914876	-1.1585382101	-1.2758906138	 0.05976
H	-1.8840466832	-3.3926979966	 0.3653259699	 0.094287
H	-1.2522617959	-3.3216217675	-1.3090247854	 0.103736
H	-0.2047476631	-1.0061870201	-2.0260911488	 0.072614
160.8813	231.0452	249.0732	429.4303	465.06	486.2842	576.7634	696.1285	733.8113	768.5249	799.5245	838.6603	866.265	884.5258	912.3368	923.9751	940.9667	953.3706	963.113	980.2949	991.4734	1015.5811	1017.3579	1053.6383	1068.53	1077.7516	1113.363	1147.4629	1161.1788	1182.8694	1191.9218	1222.2737	1224.8943	1245.7774	1258.6241	1267.7679	1291.5794	1303.5464	1428.9087	1463.924	1496.0976	1514.5818	1518.3432	3039.2603	3058.6866	3097.0098	3098.5898	3106.8668	3110.5948	3121.2876	3123.9569	3126.3446	3198.5747	3213.7533
C1CC11C2CC3CN2C13	C1CC21[C@H]1C[C@@H]3CN1[C@H]23	
InChI=1S/C8H11N/c1-2-8(1)6-3-5-4-9(6)7(5)8/h5-7H,1-4H2	InChI=1S/C8H11N/c1-2-8(1)6-3-5-4-9(6)7(5)8/h5-7H,1-4H2/t5-,6-,7+/m1/s1
