16
gdb 9631	3.74889	1.24598	1.12079	3.8621	63.19	-0.2459	-0.022	0.2239	1072.4289	0.127785	-420.860889	-420.852268	-420.851324	-420.894108	31.118	
O	-0.1572076948	 1.4594721352	-0.3024906033	-0.431162
C	 0.020746972	 0.0937381299	 0.0721405667	-0.160912
C	-1.3592189743	-0.5204680088	 0.0364922813	 0.439704
O	-2.2636686417	 0.1639007743	 0.8499727461	-0.47061
C	-1.8837807569	-1.1717765542	-1.2010637874	-0.35266
C	-1.5770470564	-2.0241092672	 0.0367971839	-0.163077
C	-0.45139476	-2.9841324693	 0.0009792001	 0.159031
O	-0.4040312696	-4.0048606489	 0.6422227877	-0.265814
H	 0.6036273705	 1.9618140439	 0.00178478	 0.298032
H	 0.7051149872	-0.4203531142	-0.6159254313	 0.097061
H	 0.4270151821	 0.0161254259	 1.0901200925	 0.110931
H	-2.1274551491	 1.0993524839	 0.6473395402	 0.293001
H	-2.9306555023	-1.0305781277	-1.4395749342	 0.134849
H	-1.2196623622	-1.2836532007	-2.0526236653	 0.123013
H	-2.4219925623	-2.3442920463	 0.6362481699	 0.12495
H	 0.3763961479	-2.7100014859	-0.6948026568	 0.063663
78.1783	122.2589	149.0462	225.7051	250.4098	275.8539	375.0221	383.4584	418.241	447.8839	463.032	579.3162	749.3847	855.1592	888.987	914.2221	968.6122	1017.3646	1039.9962	1058.4716	1066.565	1076.1018	1169.5961	1198.0348	1237.2422	1277.348	1290.3199	1346.5365	1408.0045	1439.3593	1455.3085	1492.3209	1507.8455	1816.4913	2846.7858	2999.7353	3041.5634	3133.0416	3186.7979	3234.249	3764.1657	3843.2524
OCC1(O)CC1C=O	OC[C@@]1(O)C[C@H]1C=O	
InChI=1S/C5H8O3/c6-2-4-1-5(4,8)3-7/h2,4,7-8H,1,3H2	InChI=1S/C5H8O3/c6-2-4-1-5(4,8)3-7/h2,4,7-8H,1,3H2/t4-,5-/m0/s1
