16
gdb 9517	3.15676	1.63532	1.51479	1.3129	61.32	-0.2561	-0.0367	0.2193	908.784	0.12816	-420.871175	-420.862838	-420.861893	-420.903991	29.991	
C	-0.2654318392	 1.6390848607	 0.1965891352	-0.438245
C	-0.0700813633	 0.1359291013	 0.1045073721	 0.252138
C	-1.3604767419	-0.6217043151	-0.2406552782	-0.084082
O	-1.7672928342	-0.3101234132	-1.5561196475	-0.415871
O	 0.9564831975	-0.2368701983	-0.8777566876	-0.336075
C	 1.7755457108	-0.9283897777	 0.088371411	-0.194232
C	 0.7892623427	-0.529548746	 1.1914679699	 0.303245
O	 0.7164980783	-0.6591281668	 2.3748738743	-0.278432
H	 0.6937502312	 2.1546297433	 0.2862770265	 0.125267
H	-0.7807242382	 1.9958623861	-0.6989937397	 0.146592
H	-0.8764794196	 1.8797456942	 1.0720570608	 0.136443
H	-1.2003873662	-1.7037348104	-0.114745612	 0.090289
H	-2.1683528977	-0.3207879601	 0.4330974057	 0.124287
H	-1.008377285	-0.5042782484	-2.1212073522	 0.295049
H	 1.853554864	-2.0064118385	-0.1009867616	 0.135229
H	 2.7822757606	-0.502446421	 0.1769991234	 0.138398
92.5911	117.6265	153.3812	202.6719	228.699	311.0415	336.4955	419.9985	479.5746	527.3774	584.5436	671.1453	759.4418	856.7288	909.0589	952.9	965.3563	1006.822	1039.1247	1075.3531	1127.3842	1142.707	1197.4478	1210.0485	1271.9718	1295.0705	1384.3028	1400.6901	1424.4864	1478.0067	1479.55	1493.6019	1499.9684	1919.317	2983.1861	3021.2888	3046.3424	3069.3	3088.9915	3122.9153	3132.1879	3776.8868
CC1(CO)OCC1=O	C[C@@]1(CO)OCC1=O	
InChI=1S/C5H8O3/c1-5(3-6)4(7)2-8-5/h6H,2-3H2,1H3	InChI=1S/C5H8O3/c1-5(3-6)4(7)2-8-5/h6H,2-3H2,1H3/t5-/m0/s1
