17
gdb 22983	2.85967	1.15522	0.92151	3.0327	73.1	-0.2364	0.0046	0.241	1260.1367	0.134563	-455.128096	-455.118753	-455.117809	-455.162984	33.255	
C	-0.2401834916	 1.4651155951	-0.0059271406	-0.498091
C	-0.0062466153	-0.0140739261	 0.1264053781	 0.353261
N	 0.1498387786	-0.6642878408	 1.2157221134	-0.175462
O	 0.0988527583	 0.1589403758	 2.350024234	-0.394038
C	 0.028360683	-0.8017421374	-1.1508150436	-0.229388
C	 0.0025899262	-2.3548456528	-1.1051705994	-0.182159
N	-1.2550157192	-2.2890739333	-1.8629811589	-0.320385
C	-1.3455062233	-0.9251830033	-1.891967983	 0.429415
O	-2.1677074612	-0.1547706996	-2.3110681477	-0.362744
H	 0.6718518051	 1.9624750639	-0.3587036307	 0.134655
H	-1.0205594046	 1.6440454914	-0.7518821817	 0.166416
H	-0.5252535066	 1.9059409735	 0.9481155298	 0.15421
H	 0.2036200883	-0.4782651386	 3.0640992461	 0.305874
H	 0.79145451	-0.3954795593	-1.8237547897	 0.11343
H	 0.8183908332	-2.8510051698	-1.6383660263	 0.112417
H	-0.099283161	-2.7620170504	-0.0984840621	 0.138936
H	-1.9148223696	-3.0007777883	-2.1394203476	 0.253653
53.4	94.9309	108.1559	129.2986	210.4072	299.2007	321.8304	373.3745	384.6058	431.0521	493.7848	542.7971	604.2844	732.8215	753.2338	813.3747	917.7788	941.2586	981.2859	1003.5094	1041.8366	1066.1756	1090.1754	1159.8861	1163.0786	1188.6989	1226.3475	1292.0348	1346.7432	1392.9604	1396.8458	1408.0111	1482.8297	1489.8492	1527.5296	1731.0285	1887.1339	3035.2881	3055.1074	3063.2198	3098.4427	3130.1088	3166.1835	3613.7114	3822.8713
CC(=NO)C1CNC1=O	CC(=NO)[C@H]1CNC1=O	
InChI=1S/C5H8N2O2/c1-3(7-9)4-2-6-5(4)8/h4,9H,2H2,1H3,(H,6,8)	InChI=1S/C5H8N2O2/c1-3(7-9)4-2-6-5(4)8/h4,9H,2H2,1H3,(H,6,8)/t4-/m1/s1
