19
gdb 76386	2.52473	1.1922	1.13624	2.723	73.39	-0.2356	-0.0104	0.2252	1214.4597	0.155284	-460.168958	-460.158671	-460.157727	-460.204034	37.3	
C	-0.0366863031	 1.5394342651	 0.0357582688	-0.431343
C	 0.0335178698	 0.0307104962	 0.028556132	-0.09851
C	 1.3238611171	-0.7023421691	-0.1881515835	 0.013498
O	 2.5413440609	-0.0109785944	-0.2282010304	-0.429372
C	 0.6883012755	-0.7110853894	 1.2018546515	 0.252124
O	 1.3457494722	 0.0300193312	 2.1792430052	-0.478065
C	 0.0537062386	-1.9889510238	 1.6510625086	 0.340752
C	 0.2392550391	-2.3761252348	 3.1007638838	-0.475433
O	-0.570881009	-2.6693091507	 0.8609580778	-0.330484
H	 0.7708895668	 1.9755550062	 0.6278685735	 0.125715
H	 0.0136365175	 1.9454743776	-0.9814218333	 0.115652
H	-0.980226707	 1.8749513608	 0.475660569	 0.134777
H	-0.8299316156	-0.4933969012	-0.3703859177	 0.118702
H	 1.3084132335	-1.6353424077	-0.7455514138	 0.119356
H	 2.4604777671	 0.7326089715	-0.8346104111	 0.303383
H	 2.217428597	 0.2425854175	 1.8131224393	 0.293652
H	-0.1689296985	-1.5987117971	 3.7548510808	 0.149106
H	-0.2560751129	-3.3291751459	 3.2881959807	 0.133406
H	 1.3052191411	-2.444727662	 3.3403008788	 0.143086
64.8996	127.6625	142.1014	155.3343	182.2258	210.7228	239.1715	251.1453	317.5288	343.4267	468.7916	499.2599	508.5549	586.7437	595.8214	640.1183	706.5395	777.3954	845.0838	934.7708	999.6685	1016.1583	1028.0287	1045.1159	1063.7295	1131.7508	1157.6984	1194.6183	1257.5868	1285.3149	1306.0888	1353.7181	1381.2945	1391.4003	1416.0289	1431.9625	1455.1895	1467.1172	1494.2572	1503.6428	1781.8767	3034.2928	3046.2877	3097.7524	3107.5878	3125.6462	3144.204	3157.9539	3164.2783	3712.3258	3811.8183
CC1C(O)C1(O)C(C)=O	C[C@H]1[C@@H](O)[C@]1(O)C(=O)C	
InChI=1S/C6H10O3/c1-3-5(8)6(3,9)4(2)7/h3,5,8-9H,1-2H3	InChI=1S/C6H10O3/c1-3-5(8)6(3,9)4(2)7/h3,5,8-9H,1-2H3/t3-,5+,6+/m0/s1
