19
gdb 76324	2.14377	1.47592	1.26696	1.895	71.48	-0.2381	-0.0332	0.2049	1114.588	0.155535	-460.164937	-460.154782	-460.153838	-460.199454	37.187	
C	-0.1919212239	 1.4662551028	-0.1777730415	-0.410086
C	-0.0159379299	-0.037159362	-0.0199244626	-0.088613
C	 1.1330380694	-0.6364757035	-0.9387710517	 0.05082
O	 1.5600766924	 0.0323495785	-2.0855275486	-0.42996
C	 2.0084820937	-0.52159844	 0.3038646691	 0.284133
O	 3.1489887018	-0.1617288831	 0.4274148027	-0.320314
C	 0.7763005211	-0.5167964089	 1.2451977634	 0.295813
C	 0.8394643696	 0.3243526761	 2.5032551857	-0.466305
O	 0.3391658711	-1.8503915823	 1.5027304696	-0.474814
H	 0.753822347	 2.0055589859	-0.0545807802	 0.118196
H	-0.5633737213	 1.6954733311	-1.1798978407	 0.136459
H	-0.9022469796	 1.8624002405	 0.5536718325	 0.121408
H	-0.9638766145	-0.5691766333	-0.1189185199	 0.094745
H	 0.8903274168	-1.6760597493	-1.1792641198	 0.122409
H	 2.3645434248	 0.5134140314	-1.8538558321	 0.296218
H	 1.1282066317	 1.3552342887	 2.2851476061	 0.132122
H	-0.1316578649	 0.3264237708	 3.0072489564	 0.130406
H	 1.5863500076	-0.0841784149	 3.1935456123	 0.122178
H	 0.9500476471	-2.2448832086	 2.1358828393	 0.285185
76.9672	135.7858	182.4006	192.0125	213.4561	221.3205	235.3446	283.5812	286.2877	342.9993	366.5151	432.5653	483.7729	551.9783	608.749	744.014	774.3194	819.1202	837.3318	915.1689	977.7261	1027.53	1044.6734	1060.0363	1131.3999	1144.4959	1156.4665	1195.7211	1231.5944	1276.1029	1308.0373	1344.1146	1362.2973	1405.9023	1408.6985	1416.9171	1482.1882	1483.6008	1497.3964	1499.4982	1855.5759	3035.5635	3038.1986	3066.1294	3090.5426	3102.4594	3107.9158	3120.845	3128.7542	3773.2061	3794.7558
CC1C(O)C(=O)C1(C)O	C[C@H]1[C@@H](O)C(=O)[C@]1(C)O	
InChI=1S/C6H10O3/c1-3-4(7)5(8)6(3,2)9/h3-4,7,9H,1-2H3	InChI=1S/C6H10O3/c1-3-4(7)5(8)6(3,2)9/h3-4,7,9H,1-2H3/t3-,4+,6+/m0/s1
