23
gdb 58767	2.94666	1.24628	1.19131	1.8338	84.3	-0.2339	0.0718	0.3058	1200.0946	0.206357	-388.277738	-388.268936	-388.267992	-388.310957	34.985	
C	-0.1560826254	 1.5036286064	 0.0245422084	-0.397478
C	 0.0595274886	-0.0174149603	-0.0276745884	-0.083166
C	 0.7935885682	-0.428761862	-1.3140426962	-0.397484
C	 0.7573572899	-0.5389376431	 1.2202891393	 0.325114
C	 0.1195694193	-0.4425935524	 2.6523727571	-0.284526
C	 1.1921210656	-1.5167530307	 2.9406272109	 0.099699
C	 0.9193246096	-2.0712985914	 1.5245253159	-0.284529
O	 2.4281954795	-0.8020341124	 2.7850226859	-0.281347
C	 2.1876203372	-0.0722948028	 1.5606149732	-0.115496
H	 0.7968589301	 2.0439625593	 0.0056025024	 0.116341
H	-0.7409009167	 1.8404997775	-0.8374189092	 0.111617
H	-0.6925145	 1.802221307	 0.9306148579	 0.117283
H	-0.9329579006	-0.4899852264	-0.0495995944	 0.070559
H	 1.7800499473	 0.0433537046	-1.3805134737	 0.116345
H	 0.9367989201	-1.5126126834	-1.365500755	 0.117279
H	 0.2241654939	-0.1237172174	-2.1978843531	 0.111618
H	 0.1992677001	 0.4999917604	 3.1998144081	 0.097147
H	-0.902737277	-0.8259361819	 2.6775997791	 0.095952
H	 1.2297746311	-2.1236807865	 3.8437775045	 0.076523
H	-0.0252925084	-2.6128557464	 1.4401869257	 0.095954
H	 1.7310493314	-2.6194839912	 1.0396442031	 0.097145
H	 2.9312317931	-0.3546059202	 0.8062982274	 0.097726
H	 2.2635808834	 1.0051188531	 1.7478720209	 0.097724
63.3551	169.9698	196.7432	223.0927	246.9201	305.9727	327.708	422.6707	448.6335	490.7155	515.3221	583.7692	677.6376	825.285	850.9753	876.6347	891.4293	916.6913	928.3355	949.8938	953.8365	968.6613	980.2304	1002.2954	1025.1626	1081.7507	1106.8666	1115.8114	1133.9755	1161.0644	1176.0683	1206.5498	1207.937	1242.8747	1243.382	1271.2986	1314.527	1348.2559	1364.0083	1380.4583	1398.851	1420.6578	1472.8509	1487.4107	1493.8582	1503.1788	1503.9074	1511.5994	1532.4215	2997.0024	3020.8571	3028.7811	3034.0837	3057.3668	3061.7097	3065.4161	3094.3771	3100.1424	3102.8291	3104.835	3124.1289	3129.9748	3137.0475
CC(C)C12CC(C1)OC2	CC(C)[C@@]12C[C@@H](C1)OC2	
InChI=1S/C8H14O/c1-6(2)8-3-7(4-8)9-5-8/h6-7H,3-5H2,1-2H3	InChI=1S/C8H14O/c1-6(2)8-3-7(4-8)9-5-8/h6-7H,3-5H2,1-2H3/t7-,8-
