20
gdb 68258	2.29049	1.50553	1.4363	4.0504	83.76	-0.2926	0.0308	0.3235	1074.3457	0.170673	-365.989298	-365.980509	-365.979565	-366.022197	34.059	
C	 0.4445845616	 1.1970325616	 0.3020322761	-0.518788
C	 0.215293788	-0.277093461	 0.1098574511	 0.30934
C	 0.6545619092	-1.1660703349	-1.0983069847	-0.280924
C	-0.1071974133	-2.1249067376	-0.1409090014	-0.075788
C	 0.689482435	-1.4586905968	 1.0147932926	-0.288117
C	-1.1968732494	-1.002289002	 0.0272756521	 0.169691
C	-2.1522510981	-1.0029326653	 1.2266129935	-0.482708
C	-1.9800396164	-0.69337931	-1.1719062441	 0.224351
N	-2.6366898407	-0.4351740552	-2.0888047583	-0.357523
H	 1.5160694618	 1.4232141479	 0.3119156497	 0.126714
H	-0.0148287676	 1.7721655693	-0.5087120668	 0.137955
H	 0.0195111896	 1.546047742	 1.2492594445	 0.123641
H	 0.1989079403	-0.9551933768	-2.0670772606	 0.12812
H	 1.7288724494	-1.3406857612	-1.1897391154	 0.094668
H	-0.3095137403	-3.1860391356	-0.2864301124	 0.08624
H	 1.765930623	-1.6449733044	 1.007799542	 0.099396
H	 0.2969000749	-1.5265851743	 2.0288985086	 0.097994
H	-1.6474415467	-1.2363384421	 2.1640576385	 0.127251
H	-2.6307920186	-0.0244536405	 1.3315592497	 0.138581
H	-2.9457249817	-1.7410650629	 1.0764434153	 0.139906
116.767	163.9497	174.0271	195.5422	205.427	302.4336	349.3424	357.4159	493.7121	528.5366	537.7907	604.8113	648.3927	656.2063	754.3262	801.2546	893.4002	905.2457	910.5924	953.5416	1006.4764	1015.7103	1023.4907	1074.8015	1098.8954	1127.0253	1161.03	1177.3027	1180.7505	1199.9035	1223.297	1237.4684	1246.1422	1323.4772	1410.3279	1416.2387	1486.0513	1488.0307	1491.229	1491.9343	1514.6179	1551.2465	2340.6162	3030.4522	3050.3293	3068.4126	3075.7113	3098.7642	3102.9635	3110.3528	3116.8673	3134.4847	3137.703	3151.7672
CC12CC(C1)C2(C)C#N	C[C@@]12C[C@@H](C1)[C@]2(C)C#N	
InChI=1S/C8H11N/c1-7-3-6(4-7)8(7,2)5-9/h6H,3-4H2,1-2H3	InChI=1S/C8H11N/c1-7-3-6(4-7)8(7,2)5-9/h6H,3-4H2,1-2H3/t6-,7+,8-/m0/s1
