21
gdb 37588	2.70472	2.23622	1.92696	0.1437	82.97	-0.2547	0.0884	0.3432	860.4593	0.189241	-349.971223	-349.965532	-349.964588	-350.000751	26.608	
C	-0.0012478138	 1.5874340702	-0.0425220353	-0.222779
C	 1.4766189707	 1.9050863368	 0.0923293277	-0.056034
C	 2.5149244115	 0.9074467957	-0.4361492361	-0.062919
C	 2.0755727065	 0.8858282689	 1.015630846	-0.054341
C	 1.1524087995	-0.3504752188	 1.0131146019	-0.038606
C	 2.0234290753	-1.3569435327	 0.2270435682	-0.204199
C	 2.0903394796	-0.4629048297	-1.0380048414	-0.029588
C	 0.5969683013	-0.4134496036	-1.3875722323	-0.20509
C	 0.013891727	 0.0507053572	-0.0215535083	-0.036495
H	-0.5388866616	 2.0097184769	 0.816155803	 0.087087
H	-0.4716076922	 1.9777844581	-0.9516888224	 0.090075
H	 1.7937228895	 2.941832992	 0.1516406187	 0.073873
H	 3.4784911383	 1.3180572962	-0.7151361821	 0.077135
H	 2.7198264568	 1.1177319099	 1.8553645886	 0.073104
H	 0.7884020819	-0.6631016169	 1.9924440894	 0.054993
H	 2.9958804541	-1.5195339378	 0.7008465548	 0.087655
H	 1.5498597258	-2.327729975	 0.0428880681	 0.082208
H	 2.7468141163	-0.8039125141	-1.8403997031	 0.051344
H	 0.3553007268	 0.285722453	-2.1932036388	 0.087352
H	 0.237021546	-1.4045493287	-1.682435534	 0.085178
H	-0.9566138992	-0.3917766175	 0.2086751574	 0.060046
294.0445	427.0596	454.182	503.5898	565.839	613.9523	687.9094	735.2873	762.9683	799.2585	821.5213	836.456	870.8547	896.3582	909.1862	917.2662	950.0001	957.9406	976.604	986.7587	996.9296	1018.7385	1039.9157	1056.044	1081.1329	1106.2436	1113.7097	1126.6153	1158.2537	1170.5961	1192.3393	1224.7153	1250.7058	1269.3923	1280.3472	1294.9892	1302.4906	1314.0899	1330.303	1350.4416	1353.5582	1404.7587	1490.1207	1505.2236	1519.8352	3020.0879	3038.7079	3044.5743	3063.404	3087.0305	3091.7535	3094.3055	3096.9964	3108.8377	3153.4458	3168.7714	3180.7147
C1C2C3C2C2CC3CC12	C1[C@@H]2[C@H]3[C@@H]2[C@@H]2C[C@H]3C[C@H]12	
InChI=1S/C9H12/c1-4-2-7-8-5(1)3-6(4)9(7)8/h4-9H,1-3H2	InChI=1S/C9H12/c1-4-2-7-8-5(1)3-6(4)9(7)8/h4-9H,1-3H2/t4-,5-,6-,7-,8+,9-/m1/s1
