18
gdb 60665	3.02695	0.98192	0.81801	7.2728	71.91	-0.2368	0.0229	0.2597	1397.7385	0.147481	-472.459299	-472.449556	-472.448612	-472.494262	35.834	
C	-0.006738238	 1.5452230574	-0.1657751582	-0.385392
C	 0.0743295473	 0.0135143869	-0.038937439	-0.139733
N	 0.7763019093	-0.422595133	 1.1544929341	-0.310942
H	-0.8052343151	-1.1925952772	 1.6413065932	 0.297998
C	 2.0528469278	-0.5347295007	 1.1728036634	 0.408778
N	 2.9362228415	-0.1404119429	 0.1828900134	-0.547481
N	 2.683810749	-1.10217854	 2.2708579668	-0.54751
C	-1.3596796424	-0.5615355934	 0.0002429858	 0.431454
O	-2.1491006828	-0.3982775433	-0.8928522499	-0.356214
O	-1.6381096947	-1.2406681995	 1.1166263883	-0.36714
H	 0.9862215002	 1.9817746759	-0.308061475	 0.109461
H	-0.6411288725	 1.8105728713	-1.0141709442	 0.146795
H	-0.4362266058	 1.9737925873	 0.7444574843	 0.129673
H	 0.5178385192	-0.3948690953	-0.9627509442	 0.086059
H	 2.5254377433	 0.0759114531	-0.7118542499	 0.267482
H	 3.774807876	-0.6976512586	 0.1081960376	 0.261112
H	 2.0518596533	-1.2217872862	 3.0496372387	 0.260248
H	 3.5501334845	-0.6564968619	 2.5403506449	 0.255352
63.9358	77.7703	120.1582	175.0634	231.7659	250.4751	324.1724	370.6177	395.3385	412.9175	459.5489	526.469	556.3169	604.8876	637.9776	656.047	740.285	754.7285	831.9222	839.564	885.3546	984.2606	1063.0873	1095.4218	1100.2528	1119.6326	1230.8797	1238.0095	1308.1067	1345.6987	1397.0568	1432.8717	1450.1566	1490.4608	1501.7094	1633.6127	1646.3876	1749.8984	1866.0117	2955.7382	3044.813	3114.4048	3138.9305	3425.4406	3560.2136	3577.8974	3666.1203	3684.2025
CC([NH+]=C(N)N)C([O-])=O	C[C@@H](N=C(N)N)C(=O)O	
InChI=1S/C4H9N3O2/c1-2(3(8)9)7-4(5)6/h2H,1H3,(H,8,9)(H4,5,6,7)	InChI=1S/C4H9N3O2/c1-2(3(8)9)7-4(5)6/h2H,1H3,(H,8,9)(H4,5,6,7)/t2-/m1/s1
