19
gdb 64708	3.75388	1.08202	1.01764	1.4479	80.01	-0.2535	0.0492	0.3026	1223.0473	0.156749	-385.819151	-385.810263	-385.809319	-385.852503	34.239	
C	 0.0268683945	 1.604542836	 0.2054816376	-0.458163
C	 0.0163387222	 0.0892643146	 0.0520493849	 0.30249
C	-1.4009327375	-0.4734347107	-0.1792477188	-0.426296
C	-2.0034779182	-0.0392203445	-1.434429488	 0.312141
C	-2.4790731655	 0.3209732155	-2.4781509081	-0.443391
C	 1.0663528949	-0.5308524624	-0.9547948546	-0.304618
C	 1.6860896884	-1.2889346685	 0.2232035344	 0.033068
O	 2.1031202766	-0.3086626398	 1.1851297929	-0.253089
C	 0.7310076887	-0.703870225	 1.1753723841	-0.010934
H	 1.0376790908	 1.9503749447	 0.4337723438	 0.133514
H	-0.3123664573	 2.091537389	-0.7138388874	 0.129106
H	-0.6371298696	 1.9223709881	 1.0181088181	 0.108878
H	-1.3634942401	-1.5711993613	-0.1579559856	 0.126463
H	-2.0450847397	-0.1742159629	 0.6589658821	 0.128524
H	-2.9096090132	 0.637025119	-3.3957648182	 0.196204
H	 0.5968889767	-1.1744921753	-1.7022328977	 0.114257
H	 1.737230291	 0.1738331419	-1.4513625374	 0.111104
H	 2.2039493028	-2.2407994491	 0.2358431316	 0.104228
H	 0.3145714844	-1.0855885993	 2.1023647163	 0.096515
74.0493	121.1205	178.5915	234.3736	259.1295	312.3143	347.4105	373.7297	407.9595	447.1319	579.1796	621.2241	637.0564	682.8971	790.5675	835.1059	852.2814	861.0218	909.2956	932.213	953.323	974.8757	989.2202	1009.118	1047.7224	1116.6135	1147.1259	1150.452	1222.2568	1226.9296	1257.3411	1273.0401	1309.1657	1343.1854	1383.4888	1410.1311	1466.7387	1477.529	1492.0492	1502.1595	2236.621	3007.9442	3031.0094	3039.4247	3068.6551	3097.9642	3125.2333	3127.1909	3164.164	3190.674	3506.6879
CC1(CC#C)CC2OC12	C[C@@]1(CC#C)C[C@H]2O[C@@H]12	
InChI=1S/C8H10O/c1-3-4-8(2)5-6-7(8)9-6/h1,6-7H,4-5H2,2H3	InChI=1S/C8H10O/c1-3-4-8(2)5-6-7(8)9-6/h1,6-7H,4-5H2,2H3/t6-,7-,8-/m1/s1
