16
gdb 22743	5.19525	0.96695	0.86685	1.5473	78.96	-0.2274	-0.0405	0.1869	1289.4018	0.123807	-437.837399	-437.829515	-437.828571	-437.870094	30.102	
O	-0.11145535	 1.3350880411	-0.0055111432	-0.394125
N	 0.0219830525	-0.0633490602	-0.0135868839	-0.230257
C	-1.1165031126	-0.6438550377	 0.0184061014	 0.362763
C	-1.2398836882	-2.1584374064	-0.0004261578	-0.401558
C	-2.7536069665	-2.3854820072	-0.0655953095	 0.417508
C	-3.3947734877	-3.5422907487	-0.7124198583	-0.245256
O	-3.3258770317	-3.4512129605	 0.7093777761	-0.274406
C	-3.3845930292	-1.043394452	 0.0224000526	-0.147731
C	-2.4627126856	-0.0695805539	 0.0631137641	-0.154857
H	 0.8061942955	 1.6252969266	-0.0270335924	 0.308035
H	-0.7038284882	-2.5983471785	-0.8448801083	 0.131183
H	-0.8412308887	-2.6041603075	 0.9157399149	 0.146482
H	-4.3911489729	-3.4446816427	-1.1433332971	 0.115099
H	-2.7671819668	-4.3085294194	-1.167160177	 0.117597
H	-4.4599737164	-0.9152927915	 0.0521971028	 0.118792
H	-2.6443176635	 0.9938994384	 0.1158030157	 0.130731
51.543	210.4091	219.2807	263.131	328.7938	342.6224	377.9406	437.5602	457.3769	609.9681	639.5687	710.8931	802.7065	825.0786	834.0652	863.9003	915.7349	946.8262	979.8433	983.734	1010.1248	1099.6813	1129.0558	1161.1104	1176.0925	1216.4305	1257.8905	1277.077	1345.5239	1398.5504	1425.2993	1466.4313	1526.5338	1633.4154	1726.9304	3065.2435	3073.3822	3108.6727	3160.3707	3208.9283	3253.0353	3824.072
ON=C1CC2(CO2)C=C1	ON=C1C[C@]2(CO2)C=C1	
InChI=1S/C6H7NO2/c8-7-5-1-2-6(3-5)4-9-6/h1-2,8H,3-4H2	InChI=1S/C6H7NO2/c8-7-5-1-2-6(3-5)4-9-6/h1-2,8H,3-4H2/t6-/m0/s1
