17
gdb 44482	3.70368	1.61283	1.47917	3.7439	71.12	-0.2312	-0.0186	0.2125	915.712	0.138683	-421.830875	-421.824618	-421.823673	-421.86141	26.179	
O	 0.0300550594	 0.0417734587	-0.2095432044	-0.323691
C	-0.023941814	 1.2270418435	-0.0296757987	 0.44043
C	-1.2863302192	 2.1048170364	 0.098622249	-0.360041
C	-0.7114952183	 3.4495136553	 0.5284460441	-0.041866
C	 0.219098178	 4.1596983078	-0.5073236186	 0.096308
C	 1.1229821921	 4.5910419617	 0.6631583354	-0.240235
C	 0.6942145295	 3.2051208782	 1.2066235661	-0.089257
C	 1.1383489439	 2.2181507609	 0.1082423407	-0.018943
O	 0.9514966728	 3.0538501751	-1.0735948008	-0.293801
H	-1.8361247799	 2.1257093448	-0.8468980017	 0.138265
H	-1.9508641059	 1.67627455	 0.856245359	 0.130308
H	-1.3731656312	 4.1211260823	 1.0735762699	 0.083515
H	-0.126944866	 4.8169047633	-1.3031532205	 0.086537
H	 2.1753932388	 4.7735456838	 0.4368448175	 0.107899
H	 0.700221409	 5.4035221255	 1.2577426944	 0.10724
H	 0.810501381	 2.8962619581	 2.244413342	 0.08553
H	 2.1394262902	 1.7907227146	 0.1344937367	 0.091801
116.5434	301.447	339.6004	457.9218	481.935	533.9216	598.6275	680.8322	696.3745	800.5211	813.9043	846.6021	859.2551	880.2065	912.4922	942.2117	956.4618	986.1262	1015.5199	1025.3729	1065.7328	1082.4087	1103.5443	1130.4131	1153.6866	1208.7441	1217.9731	1235.6418	1249.4363	1254.7893	1270.5352	1287.0129	1326.2026	1340.938	1445.7545	1487.1265	1864.642	3057.0772	3071.4873	3101.647	3125.3088	3130.3895	3136.5958	3137.9628	3143.9264
O=C1CC2C3CC2C1O3	O=C1C[C@@H]2[C@H]3C[C@@H]2[C@@H]1O3	
InChI=1S/C7H8O2/c8-5-1-3-4-2-6(3)9-7(4)5/h3-4,6-7H,1-2H2	InChI=1S/C7H8O2/c8-5-1-3-4-2-6(3)9-7(4)5/h3-4,6-7H,1-2H2/t3-,4-,6+,7-/m0/s1
