18
gdb 85241	2.75494	1.58607	1.15361	2.6249	73.69	-0.2445	0.0183	0.2628	1081.4083	0.147621	-439.097028	-439.08874	-439.087796	-439.129478	32.313	
C	 0.1246134293	 1.5372649796	-0.0743206669	-0.397193
C	-0.0053649183	 0.0354348559	 0.1086884125	 0.103914
O	 0.5125596894	-0.6293750755	-1.0843117625	-0.256761
C	 1.1626449194	-1.771686557	-0.7456967942	 0.355207
N	 1.4356957479	-2.7478100976	-1.5010038126	-0.580657
C	 1.5013604384	-1.7650738496	 0.7032575584	 0.375964
O	 1.6508711164	-2.9952041517	 1.3110609491	-0.475
C	 2.2676006309	-0.5508256888	 1.1729814026	-0.349468
C	 0.7573760421	-0.581875963	 1.2714902865	-0.15199
H	 1.1739184587	 1.839498827	-0.1237471929	 0.128795
H	-0.3728825352	 1.854528031	-0.9947533875	 0.132313
H	-0.3458933213	 2.0545799236	 0.7673982459	 0.124895
H	-1.0662565272	-0.2368635526	 0.183918303	 0.096821
H	 1.0710417164	-2.6175046079	-2.444076221	 0.229452
H	 1.7763657047	-3.6208662975	 0.5814764759	 0.300109
H	 2.8040814227	-0.6956543681	 2.1038729653	 0.130631
H	 2.7557141034	 0.0985738642	 0.4530803194	 0.123146
H	 0.2859718625	-0.6201758321	 2.2453587392	 0.109823
127.9112	141.1957	227.9711	235.1596	293.4176	324.5362	331.2817	403.4437	488.753	516.7124	569.3778	674.9165	701.4142	751.9767	795.2232	865.7257	891.4301	908.642	937.7492	961.155	996.3728	1022.3496	1065.8563	1074.8706	1103.587	1119.1553	1155.3497	1180.4521	1261.3368	1319.5352	1354.0438	1380.3254	1411.3214	1420.4495	1440.7147	1486.4996	1491.7546	1500.4165	1775.1596	3020.9482	3047.2468	3120.1617	3127.0624	3129.5347	3197.5083	3225.0058	3499.6026	3723.3977
CC1OC(=N)C2(O)CC12	C[C@H]1O[C]([NH])[C@@]2(O)C[C@@H]12	
InChI=1S/C6H9NO2/c1-3-4-2-6(4,8)5(7)9-3/h3-4,7-8H,2H2,1H3	InChI=1S/C6H9NO2/c1-3-4-2-6(4,8)5(7)9-3/h3-4,7-8H,2H2,1H3/t3-,4+,6-/m1/s1
