18
gdb 61420	3.02836	0.98188	0.81787	7.2725	71.9	-0.2368	0.0229	0.2598	1397.7658	0.147484	-472.459295	-472.44955	-472.448606	-472.494267	35.834	
C	 0.1191881977	 1.5426356206	 0.1239635015	-0.385443
C	-0.006931247	 0.0090710838	 0.0982451516	-0.139638
N	-1.3846186534	-0.4493217106	 0.1041286915	-0.31104
C	-2.0340554484	-0.5924907394	 1.1995788482	 0.408685
N	-1.621249912	-0.2158849908	 2.4658822877	-0.54747
N	-3.2912184865	-1.1800992115	 1.1891034208	-0.547513
H	-3.9633878834	-0.7566055787	 1.8140843701	 0.255347
H	-3.6498760709	-1.2880794336	 0.2510968902	 0.260236
C	 0.6808624334	-0.5277590323	-1.1772473057	 0.431333
O	 1.845914564	-0.3417928013	-1.4133458736	-0.356387
O	-0.1384182888	-1.2011122469	-1.9894001927	-0.366821
H	 1.1665789607	 1.8271230637	 0.0026663441	 0.146797
H	-0.4622333008	 1.9798006413	-0.6930664521	 0.129666
H	-0.2591228195	 1.9534226384	 1.0646217348	 0.109527
H	 0.5802122975	-0.408248318	 0.9336212543	 0.086191
H	-1.0084262396	-1.1759710051	-1.5272722187	 0.297957
H	-0.6440105436	 0.0129787466	 2.5595006816	 0.267488
H	-1.9654471194	-0.7931423461	 3.2193174063	 0.261085
63.5162	77.5203	120.0475	174.8956	231.7607	250.4825	323.9339	370.3034	395.2556	412.7576	459.4355	526.4783	556.6773	605.102	638.0694	656.2243	740.3893	754.7646	831.3904	839.7418	885.3541	984.3394	1063.0907	1095.5264	1100.3244	1119.4802	1231.2272	1238.5139	1308.1238	1345.3659	1397.2017	1432.9685	1450.5355	1490.458	1501.7788	1633.5605	1646.5141	1750.1273	1865.7335	2956.4816	3044.8612	3114.4998	3138.742	3426.4751	3560.2838	3577.7149	3666.1967	3683.9596
CC(NC(N)=[NH2+])C([O-])=O	C[C@@H](N=C(N)N)C(=O)O	
InChI=1S/C4H9N3O2/c1-2(3(8)9)7-4(5)6/h2H,1H3,(H,8,9)(H4,5,6,7)	InChI=1S/C4H9N3O2/c1-2(3(8)9)7-4(5)6/h2H,1H3,(H,8,9)(H4,5,6,7)/t2-/m1/s1
