23
gdb 116513	2.72721	1.10229	0.85921	2.4563	81.88	-0.2395	0.0748	0.3143	1407.7233	0.207431	-425.42378	-425.414383	-425.413439	-425.458099	35.542	
O	 0.0619819286	 1.4326356688	 0.1599756227	-0.422126
C	 0.0721645566	 0.0167300597	 0.049405921	-0.089834
C	-1.3720128447	-0.4848227251	-0.03825963	 0.011771
C	-1.3819155215	-2.0080951532	-0.2630710577	-0.211595
C	-2.6574870053	-2.5927176558	-0.900046343	-0.205682
C	-4.0063928265	-2.0442022814	-0.3824270143	-0.193704
C	-4.030297733	-1.5371997564	 1.0639877759	-0.068845
O	-3.5343609513	-0.2158271121	 1.1882198295	-0.246807
C	-2.1310407895	-0.0771490374	 1.2393666734	-0.07364
H	 0.9651595253	 1.7324526486	 0.2956904713	 0.287568
H	 0.6202480262	-0.3041120022	-0.8504183995	 0.086491
H	 0.5716804204	-0.4469540649	 0.9174006856	 0.083768
H	-1.8408498938	 0.0258400926	-0.8897910418	 0.087229
H	-0.5332832694	-2.2906863353	-0.8993811839	 0.08795
H	-1.1966630377	-2.4963202179	 0.7031730579	 0.094338
H	-2.6181832133	-2.4373074323	-1.9847239654	 0.099011
H	-2.6280322475	-3.6796187357	-0.7576306502	 0.095206
H	-4.334864134	-1.2022753166	-1.0020151639	 0.110194
H	-4.7704806746	-2.8227986593	-0.4957709159	 0.091014
H	-5.068729591	-1.4875044717	 1.40927277	 0.101205
H	-3.4927836069	-2.2203353134	 1.7427813566	 0.081145
H	-1.7219603887	-0.6558062626	 2.0884750921	 0.071735
H	-1.9494751084	 0.9812251236	 1.4373315096	 0.123607
68.7265	106.9075	175.2943	181.5132	216.9058	251.6312	315.1816	342.0524	386.7421	435.4389	446.5891	540.7954	557.5725	751.4671	800.2908	848.4711	884.7074	924.8307	946.1254	986.6759	1012.4916	1045.1546	1061.1589	1068.8422	1113.7993	1129.8836	1140.2388	1170.3012	1209.4244	1241.5019	1250.1413	1259.1402	1283.3816	1301.9968	1329.5154	1345.7391	1356.0675	1380.2912	1381.9982	1394.8554	1412.0881	1426.2001	1453.4618	1476.2218	1490.4463	1492.4583	1499.9689	1511.0615	1520.353	2932.4538	2955.0863	2968.7384	2987.2369	3009.2721	3020.8093	3030.0113	3034.148	3041.4198	3056.4421	3064.4758	3078.6673	3111.1865	3835.4521
OCC1CCCCOC1	OC[C@H]1CCCCOC1	
InChI=1S/C7H14O2/c8-5-7-3-1-2-4-9-6-7/h7-8H,1-6H2	InChI=1S/C7H14O2/c8-5-7-3-1-2-4-9-6-7/h7-8H,1-6H2/t7-/m1/s1
