17
gdb 71327	3.74631	1.44542	1.27244	2.6618	71.7	-0.2372	-0.0169	0.2204	991.7343	0.136014	-421.802035	-421.794671	-421.793726	-421.833617	29.337	
O	 0.0450820288	 1.3887839299	 0.0127443415	-0.481642
C	 0.0233390162	-0.005778245	 0.0008548609	 0.415008
C	 0.4309519392	-0.7387059775	-1.3043566323	-0.305159
C	-0.7609603451	-1.7268191945	-1.1202437706	-0.16602
C	-1.3345346937	-0.7822800589	 0.0076575039	-0.09667
C	-0.7387540175	-1.7461581964	 1.1073335409	-0.166026
C	 0.4567626448	-0.7611798593	 1.28477396	-0.305124
C	-0.4872833093	-2.7568107561	-0.0179258493	 0.426436
O	-0.3164569595	-3.9425736556	-0.0299302791	-0.317042
H	 0.9636311163	 1.6823331555	 0.0049859985	 0.279979
H	 0.235924105	-0.0821858711	-2.1564785882	 0.118229
H	 1.4392612523	-1.1564257754	-1.3868229079	 0.102493
H	-1.290879386	-2.0655799155	-2.0096925107	 0.093969
H	-2.3278244731	-0.3460832144	 0.0213429241	 0.086874
H	-1.2509024738	-2.1003934586	 2.0011528628	 0.093968
H	 1.4664433218	-1.1800902705	 1.3398918919	 0.102481
H	 0.2788645635	-0.1195541064	 2.1518547637	 0.118245
117.7338	176.1495	220.5277	298.6045	387.2157	410.4448	440.6714	500.5484	589.0607	657.9851	743.1121	790.9276	818.2254	866.924	886.4255	918.3283	927.8637	935.4587	949.983	988.6449	1042.2958	1045.1635	1113.6846	1123.9152	1134.0112	1169.1525	1188.5197	1189.3819	1240.5127	1241.2631	1252.1582	1278.4024	1315.775	1369.7683	1476.0811	1492.4751	1880.1009	3045.8377	3049.1381	3107.7424	3109.4713	3122.1821	3123.3726	3177.7859	3790.3214
OC12CC3C1C(C2)C3=O	O[C@]12C[C@@H]3[C@H]1[C@H](C2)C3=O	
InChI=1S/C7H8O2/c8-6-3-1-7(9)2-4(6)5(3)7/h3-5,9H,1-2H2	InChI=1S/C7H8O2/c8-6-3-1-7(9)2-4(6)5(3)7/h3-5,9H,1-2H2/t3-,4+,5+,7+
