23
gdb 60210	3.74021	0.91484	0.83012	1.6222	85.8	-0.2332	0.0843	0.3175	1502.5925	0.204704	-388.254917	-388.245429	-388.244485	-388.289697	36.231	
C	 0.0966110735	 1.5139564592	-0.1127741506	-0.390424
C	 0.0278778257	-0.0065748882	 0.0854731629	 0.042036
C	 0.6673951357	-0.4084002055	 1.4230908404	-0.384249
C	-1.4269959929	-0.5003611498	-0.0429235119	-0.200387
C	-1.5907904222	-2.0017700321	-0.2084627878	 0.133295
O	-1.2476352542	-2.8125507365	 0.964079726	-0.301018
C	-2.4938048455	-3.5041016356	 0.8672058959	 0.111706
C	-3.6380788821	-2.57508577	 1.1106379129	-0.298667
C	-2.9861998233	-2.6298252394	-0.2594572899	-0.15339
H	 1.1284325215	 1.8743456991	-0.0454347551	 0.109165
H	-0.3010333759	 1.8120165423	-1.0889924176	 0.105297
H	-0.485617864	 2.0350832852	 0.6569066449	 0.111063
H	 0.6073608676	-0.4759349523	-0.7235982419	 0.068508
H	 0.1337892921	 0.0599839906	 2.2593312887	 0.105201
H	 0.6378274461	-1.4882124794	 1.5785924729	 0.144023
H	 1.7098953215	-0.0751947444	 1.4688182688	 0.100672
H	-2.0125189926	-0.1559514903	 0.8183385925	 0.095079
H	-1.8816715803	-0.042415545	-0.9329659506	 0.093435
H	-0.9815277337	-2.3518363803	-1.0536684875	 0.078094
H	-2.4940994465	-4.5766060368	 1.0225877396	 0.102958
H	-4.6185639821	-3.04004953	 1.1495539713	 0.113451
H	-3.5068853699	-1.7225174428	 1.7700218613	 0.117092
H	-3.5313589984	-2.878121168	-1.1599372154	 0.097059
38.7029	94.6272	140.2084	226.5662	230.8078	259.7039	285.3577	328.7638	416.4577	426.201	483.5273	538.2506	724.0583	770.6713	803.1146	825.8312	851.3038	931.1978	935.6371	950.6167	965.7069	972.5373	985.9335	996.2335	1037.0917	1045.1169	1052.2728	1085.4184	1110.2639	1134.8301	1167.2874	1196.9636	1202.2379	1250.3519	1266.0388	1281.5993	1317.6954	1358.8424	1368.3568	1378.1196	1401.8145	1407.5177	1425.9914	1466.039	1476.1091	1487.6885	1495.1869	1505.9216	1510.8626	2990.7541	3004.0749	3010.4895	3022.3524	3029.2169	3060.8796	3084.5907	3090.5771	3097.0962	3121.0989	3138.1596	3179.9971	3201.2351	3212.4435
CC(C)CC1OC2CC12	CC(C)C[C@H]1O[C@H]2C[C@@H]12	
InChI=1S/C8H14O/c1-5(2)3-7-6-4-8(6)9-7/h5-8H,3-4H2,1-2H3	InChI=1S/C8H14O/c1-5(2)3-7-6-4-8(6)9-7/h5-8H,3-4H2,1-2H3/t6-,7+,8-/m0/s1
