23
gdb 60546	2.55553	1.15267	1.02514	1.4985	85.37	-0.2589	0.0842	0.3431	1325.3429	0.204522	-388.26486	-388.254956	-388.254012	-388.299588	38.013	
C	 0.2177449894	 1.5526299928	 0.1966862301	-0.474888
C	 0.0263755905	 0.0570940992	 0.0240725303	 0.418397
C	 0.9025343125	-0.6709884773	-0.9667060888	-0.313158
C	 1.1241846982	-0.8554298277	 0.5149749394	-0.307037
C	-1.3954663234	-0.4524869068	 0.2006690425	 0.034676
O	-1.7637216393	-0.1861582739	 1.554533218	-0.449627
C	-2.4009405536	 0.1590036708	-0.7535697572	-0.003077
C	-2.6621296156	-0.4577367107	-2.1011719791	-0.265598
C	-3.7046426137	-0.563974329	-1.0166842715	-0.291241
H	 1.2802705603	 1.8126161737	 0.1705948562	 0.106965
H	-0.2769720817	 2.121346451	-0.5987648013	 0.110778
H	-0.1910013574	 1.8814860308	 1.1565011342	 0.13283
H	 0.4797845348	-1.4990225838	-1.5258852491	 0.104985
H	 1.6240973674	-0.0855324748	-1.5266899118	 0.106629
H	 1.999706032	-0.3997822315	 0.9647534492	 0.107058
H	 0.8394476114	-1.802331511	 0.9611771467	 0.111779
H	-1.3870679762	-1.54333538	 0.0242463678	 0.04656
H	-2.7184723344	-0.2968982748	 1.6145675869	 0.278974
H	-2.4666593006	 1.2414364413	-0.6967755403	 0.091275
H	-2.8530134312	 0.2025054207	-2.9395839541	 0.113811
H	-2.1162158118	-1.3577515644	-2.3627058427	 0.1145
H	-3.8504835179	-1.5372329211	-0.5569301079	 0.111574
H	-4.6117776497	 0.0225469164	-1.1104143775	 0.113833
55.0755	89.8917	154.2552	215.1087	228.884	246.2784	302.5371	315.5406	336.8699	359.9081	451.7966	458.9474	549.4539	747.1442	778.3404	784.813	833.7564	866.4642	877.0922	912.8038	936.2512	949.7747	958.4575	984.529	1033.5519	1052.5705	1067.7795	1074.934	1077.7237	1084.3655	1128.02	1138.9138	1157.171	1186.0162	1199.3593	1222.9187	1252.891	1306.9169	1328.4803	1353.1397	1395.4089	1413.7934	1450.6272	1467.498	1469.9582	1490.3489	1500.6851	1504.7485	1514.0931	2932.4235	3031.989	3093.1278	3113.566	3124.0889	3127.5405	3132.6769	3136.8094	3153.9773	3204.3626	3205.9195	3219.164	3223.2348	3810.1841
CC1(CC1)C(O)C1CC1	CC1(CC1)[C@@H](O)C1CC1	
InChI=1S/C8H14O/c1-8(4-5-8)7(9)6-2-3-6/h6-7,9H,2-5H2,1H3	InChI=1S/C8H14O/c1-8(4-5-8)7(9)6-2-3-6/h6-7,9H,2-5H2,1H3/t7-/m0/s1
