16
gdb 47860	2.46093	1.754	1.29859	3.6105	65.97	-0.2711	-0.0071	0.264	986.5423	0.1257	-475.054227	-475.046693	-475.045749	-475.086559	28.255	
O	 0.1011513871	 0.5068492197	 0.9777091552	-0.334321
C	-0.0974087019	 1.2028403706	 0.0331227198	 0.489805
O	-1.3193645105	 1.6284127658	-0.3004513428	-0.242873
C	-1.5318068777	 2.6328890077	-1.3089187134	-0.083716
C	-1.3241434939	 4.0290512823	-0.7266874391	-0.20525
C	 0.0259873865	 4.1752681058	-0.0051429034	-0.187442
N	 1.1456086498	 3.8805921344	-0.8859244968	-0.233359
C	 1.4502063707	 2.7091910478	-1.2148822738	 0.125873
O	 0.9243202335	 1.481380121	-0.8637114153	-0.246025
H	-0.8834634031	 2.4430044515	-2.1675301282	 0.138982
H	-2.5662590269	 2.4896283699	-1.626355366	 0.133141
H	-1.3897573631	 4.7549536205	-1.5445151898	 0.122853
H	-2.1264342279	 4.2562336333	-0.0170267745	 0.122067
H	 0.1328645544	 5.2069717596	 0.3399303608	 0.11851
H	 0.0364681167	 3.5453953411	 0.8946005089	 0.139522
H	 2.2792195562	 2.515096039	-1.8912510916	 0.142233
88.7594	113.6393	233.3619	263.2098	313.1977	355.9394	472.7486	544.0975	587.6612	622.6343	684.1826	785.4407	795.0687	842.5969	863.9858	938.0249	953.5176	1013.4617	1053.7512	1075.7853	1099.2313	1118.3378	1184.5913	1233.8087	1275.1706	1308.6578	1353.8224	1386.2536	1407.052	1426.7338	1471.5669	1509.3436	1527.1376	1756.6269	1887.6509	3018.9668	3047.498	3076.6814	3085.064	3096.3467	3129.5147	3174.8717
O=C1OCCCN=CO1	O=C1OCCCN=CO1	
InChI=1S/C5H7NO3/c7-5-8-3-1-2-6-4-9-5/h4H,1-3H2/b6-4-	InChI=1S/C5H7NO3/c7-5-8-3-1-2-6-4-9-5/h4H,1-3H2/b6-4-
