13
gdb 133740	2.13446	1.43635	1.03597	3.3821	52.06	-0.3091	-0.0064	0.3027	1113.4431	0.083663	-584.242805	-584.23379	-584.232846	-584.277562	30.44	
C	 0.2307360649	 1.1168613993	-0.5963631986	-0.2504
O	-0.191226264	 0.3207371547	 0.5039686729	-0.226591
C	-1.3750142724	-0.3801832733	 0.2802058276	-0.160553
C	-1.2109093522	-1.4741457871	-0.7023723791	 0.28066
N	-1.0531359453	-2.2945265804	-1.49902606	-0.308734
C	-1.8322603008	-0.9455566675	 1.6381336456	 0.290948
F	-2.0555648119	 0.0521334705	 2.4916810336	-0.061464
F	-2.9707205329	-1.6275251982	 1.4761599212	-0.06859
F	-0.9196235928	-1.7583755108	 2.1600743292	-0.055788
H	 1.1362850033	 1.6307604806	-0.2724257752	 0.152217
H	 0.4565114233	 0.4992136316	-1.4745800543	 0.14337
H	-0.5344049863	 1.8592168291	-0.8629659364	 0.123266
H	-2.1851290431	 0.2772547315	-0.0741304364	 0.141658
58.0394	85.2156	133.2568	169.1071	178.6885	253.8874	337.8048	345.514	375.0177	450.1044	536.1432	565.8335	612.7594	722.757	879.0758	962.5131	1014.6486	1149.3132	1182.7679	1185.7333	1223.5089	1233.0431	1294.577	1346.815	1374.7912	1480.7214	1488.5431	1505.3782	2365.6127	2993.0159	3003.3903	3068.4881	3147.7408
COC(C#N)C(F)(F)F	CO[C@@H](C#N)C(F)(F)F	
InChI=1S/C4H4F3NO/c1-9-3(2-8)4(5,6)7/h3H,1H3	InChI=1S/C4H4F3NO/c1-9-3(2-8)4(5,6)7/h3H,1H3/t3-/m0/s1
