18
gdb 35580	2.93966	1.45375	1.23115	5.6457	75.3	-0.2338	0.0223	0.2561	1055.6109	0.151207	-398.119378	-398.111786	-398.110841	-398.151755	29.499	
N	 0.2450623898	-1.1853421925	 0.0878534454	-0.332944
C	 0.1665427491	-0.0329841925	 0.0527053886	 0.324587
C	 0.0528039096	 1.4242009236	-0.0071484183	-0.149253
N	-0.227755813	 2.0863962648	 1.2840312098	-0.314908
C	 0.8208447488	 3.1149868282	 1.0572708305	-0.002234
C	 1.934073149	 3.0876783079	 2.1034481212	-0.207282
C	 2.6837352344	 1.7792712433	 1.76092291	-0.179094
N	 2.5951144791	 1.6224235604	 0.2944564054	-0.27429
C	 1.3738097521	 2.2677061816	-0.1403913696	-0.022755
H	-0.6502898704	 1.6783995419	-0.8120062818	 0.109051
H	-1.1752831671	 2.4250587665	 1.3973597499	 0.227416
H	 0.4465753986	 4.1161947831	 0.8224484979	 0.068574
H	 2.5883966849	 3.9575613385	 1.9681707008	 0.09221
H	 1.5439045455	 3.102364492	 3.1244937397	 0.109332
H	 3.7288499253	 1.7752264138	 2.07850604	 0.104964
H	 2.1858727183	 0.9305623569	 2.2398449894	 0.135683
H	 3.3900947163	 2.0559378134	-0.157868223	 0.225161
H	 1.4928355196	 2.736843729	-1.1162260061	 0.085782
66.9238	136.6122	219.5859	240.4513	371.937	379.3324	514.1976	555.1858	624.4198	645.9657	685.0741	730.8548	782.8171	842.7985	851.4202	900.9176	941.3596	963.4351	990.2463	997.9606	1043.9379	1072.4103	1090.7273	1139.0635	1151.3648	1182.4515	1209.3171	1236.7678	1272.247	1301.5747	1319.4603	1351.2105	1372.3869	1388.0706	1396.4669	1461.2852	1472.3944	1506.435	2358.0798	3008.1822	3033.8627	3057.8487	3060.2567	3103.1265	3114.0119	3119.4938	3553.2795	3555.0157
N#CC1NC2CCNC12	N#C[C@H]1N[C@H]2CCN[C@@H]12	
InChI=1S/C6H9N3/c7-3-5-6-4(9-5)1-2-8-6/h4-6,8-9H,1-2H2	InChI=1S/C6H9N3/c7-3-5-6-4(9-5)1-2-8-6/h4-6,8-9H,1-2H2/t4-,5+,6+/m0/s1
