19
gdb 102076	2.18669	1.15225	0.83701	2.4747	72.97	-0.2595	-0.0406	0.2189	1396.4642	0.155481	-460.180534	-460.170265	-460.169321	-460.216726	35.822	
C	-0.2950118402	 1.5561183221	 0.0770718699	-0.399433
C	 0.0467475415	 0.0629459559	 0.0456062392	-0.195091
C	 0.7548028138	-0.4072980387	-1.253134144	-0.121991
C	 2.1778844263	 0.1058446572	-1.287114054	 0.153309
O	 3.1594745839	-0.5838369175	-1.4282551759	-0.254218
C	 0.6846386071	-1.9521885419	-1.4017285925	 0.041809
O	-0.6241168813	-2.4152813458	-1.2028803718	-0.439142
C	 1.1744251364	-2.4063280131	-2.7695003411	 0.120045
O	 0.4353477255	-3.0003815042	-3.520342047	-0.266585
H	 0.5923410506	 2.1960479574	 0.0468492446	 0.120374
H	-0.9328470534	 1.8309396627	-0.7700792827	 0.122915
H	-0.8396227265	 1.8008814659	 0.9939011817	 0.126046
H	 0.6692436537	-0.2028693623	 0.9097205152	 0.106657
H	-0.8703801797	-0.5240815265	 0.1290722419	 0.147047
H	 0.2211702859	 0.0539526899	-2.0992240283	 0.10464
H	 2.2806388234	 1.2036965436	-1.1482415708	 0.096449
H	 1.3670005186	-2.3906719677	-0.6549137291	 0.108898
H	-0.8681915542	-2.8530733653	-2.0355349544	 0.295494
H	 2.2185082984	-2.1704516117	-3.0315118409	 0.132777
52.9662	71.7524	98.931	110.4423	187.0807	217.701	243.9425	313.9658	329.9921	344.8385	384.5547	456.4753	515.2004	640.4559	750.4153	795.9426	809.0479	875.0252	925.8379	976.4855	1001.8009	1038.4338	1078.2437	1124.9741	1150.6715	1158.1431	1252.2705	1265.9022	1278.8935	1331.9553	1355.5008	1374.4248	1386.1119	1413.2064	1432.1875	1443.3314	1494.9036	1502.4468	1508.9072	1800.5631	1811.3106	2900.9506	2977.0544	2994.5215	3018.6999	3031.5544	3037.2752	3095.063	3106.9279	3118.8146	3662.3239
CCC(C=O)C(O)C=O	CC[C@@H](C=O)[C@@H](O)C=O	
InChI=1S/C6H10O3/c1-2-5(3-7)6(9)4-8/h3-6,9H,2H2,1H3	InChI=1S/C6H10O3/c1-2-5(3-7)6(9)4-8/h3-6,9H,2H2,1H3/t5-,6-/m0/s1
