16
gdb 18801	3.24959	3.07428	2.37268	1.5593	68.15	-0.2273	0.0002	0.2275	662.2153	0.135332	-342.72751	-342.722277	-342.721332	-342.756387	22.899	
N	-0.0301293467	 1.4795059416	 0.0407541296	-0.293738
C	 1.473803387	 1.453393335	-0.0025082091	-0.066845
C	 1.9811732106	 1.2584866472	 1.3960907674	-0.085772
C	 1.5242016487	 0.1459149758	 1.9937809525	-0.085772
C	 0.8046649306	-0.7925722389	 1.070197678	-0.066842
N	 1.7403938498	-1.1630579312	-0.0485174212	-0.293739
C	 1.3219248445	 0.0264222376	-0.7650238679	-0.002329
C	-0.0374277976	 0.0319815355	-0.0486005374	-0.002329
H	-0.4031147526	 1.872197942	 0.9049805433	 0.206492
H	 1.9205311718	 2.2853977145	-0.5491918977	 0.064458
H	 2.606470845	 1.9997177158	 1.8826863725	 0.095307
H	 1.7052242034	-0.106639956	 3.0333205055	 0.095307
H	 0.3241013944	-1.6450835621	 1.5528397474	 0.064458
H	 2.7197790264	-1.1882368388	 0.2350005742	 0.206493
H	 1.4834473551	 0.0583734536	-1.843087272	 0.082425
H	-0.9503437804	-0.4553591418	-0.392716145	 0.082425
364.1299	387.1322	438.2025	563.9696	631.8584	684.6279	708.0951	721.6614	744.8386	755.4518	831.9354	872.0054	948.9087	951.7762	958.3067	996.2699	1007.633	1015.8306	1046.0814	1080.0837	1100.7604	1125.8414	1165.5198	1187.6128	1210.7466	1233.4267	1297.4083	1298.8411	1318.158	1327.713	1349.8627	1375.5448	1393.976	1643.8976	3090.2712	3091.9987	3102.5359	3112.1438	3169.9894	3193.185	3452.2808	3453.5336
N1C2C=CC3NC2C13	N1[C@H]2C=C[C@@H]3N[C@H]2[C@H]13	
InChI=1S/C6H8N2/c1-2-4-6-5(8-4)3(1)7-6/h1-8H	InChI=1S/C6H8N2/c1-2-4-6-5(8-4)3(1)7-6/h1-8H/t3-,4-,5+,6+/m0/s1
