19
gdb 97436	5.35439	0.58811	0.54675	2.4728	82.06	-0.2632	0.0109	0.2742	1994.8265	0.156769	-419.218888	-419.208279	-419.207335	-419.256279	35.845	
C	-0.0602865616	 1.3773188843	 0.0163389071	-0.317052
N	 0.0787808414	-0.062556966	 0.0804673419	-0.200114
C	 0.5255956183	-0.6487790794	-0.9352977247	 0.130138
O	 0.6694594034	-1.99489301	-0.9397660293	-0.211761
C	 1.2285903954	-2.5609271546	-2.1178632408	-0.075563
C	 1.1246586736	-4.0873881555	-1.9672554352	-0.150077
C	-0.334461989	-4.5703640058	-1.8696726297	-0.393972
C	 1.8257628951	-4.7277008329	-3.083661495	 0.2568
N	 2.370871221	-5.221990544	-3.9746164823	-0.313999
H	 0.5305660204	 1.8375452472	 0.8160484038	 0.13279
H	 0.2542702676	 1.8168181153	-0.9442368206	 0.098974
H	-1.1058023224	 1.6521032342	 0.1951358208	 0.132302
H	 0.8245677105	-0.1564064346	-1.8738369163	 0.080674
H	 0.6777459722	-2.2323955995	-3.0092789581	 0.124643
H	 2.2780742841	-2.2613686434	-2.2288048907	 0.129525
H	 1.6529003639	-4.3583691674	-1.0449386104	 0.146349
H	-0.3740932513	-5.6499540236	-1.7096197699	 0.140125
H	-0.8234786949	-4.0676873185	-1.0336892243	 0.155173
H	-0.8803312377	-4.3395649259	-2.7890630163	 0.135045
25.2176	57.0954	86.6445	134.0742	182.709	204.3538	217.6505	238.6129	293.9349	308.0099	371.709	421.8542	545.2813	560.8381	628.4806	830.1217	930.5985	943.0726	976.8048	1035.3243	1063.1069	1104.2215	1127.9628	1141.3114	1158.5672	1167.6199	1241.1396	1268.3746	1312.3133	1344.2648	1390.6577	1407.9124	1433.4646	1450.9678	1480.3668	1494.4322	1500.7455	1504.7601	1515.5743	1784.5532	2360.9346	2970.5047	2994.0831	3014.0878	3043.4056	3055.3719	3062.9604	3064.4893	3082.7387	3129.77	3150.6225
CN=COCC(C)C#N	CN=COC[C@@H](C)C#N	
InChI=1S/C6H10N2O/c1-6(3-7)4-9-5-8-2/h5-6H,4H2,1-2H3	InChI=1S/C6H10N2O/c1-6(3-7)4-9-5-8-2/h5-6H,4H2,1-2H3/t6-/m0/s1
