17
gdb 15377	6.02115	0.86313	0.83089	1.9496	65.98	-0.2463	-0.0257	0.2206	1349.3347	0.141003	-400.970928	-400.962167	-400.961223	-401.005705	30.325	
O	-0.113747615	 1.2952027018	-0.7225918682	-0.419189
C	 0.0765293449	 0.1833394423	 0.1345940233	-0.064758
C	-1.2380302587	-0.5118102588	 0.4068140132	-0.039685
N	-1.8243759312	-1.2058379347	-0.7572395202	-0.348261
C	-1.4460899788	-1.9864184677	 0.4356836625	-0.033614
C	-0.3558170805	-3.0274809069	 0.2614589654	-0.285889
C	-0.9004054007	-4.2709708573	-0.4142008737	 0.158344
O	-0.7973168352	-5.389138135	 0.0197291321	-0.236836
H	-0.5450646211	 0.9485249707	-1.5128011316	 0.28982
H	 0.8072583786	-0.5211102818	-0.2868105464	 0.089755
H	 0.4953185797	 0.5774872068	 1.0664323758	 0.113327
H	-1.9227974534	 0.0725474651	 1.0193161589	 0.0971
H	-2.8298740205	-1.0666961314	-0.7932868131	 0.239492
H	-2.261901096	-2.3196606375	 1.0764026452	 0.100468
H	 0.4341215871	-2.6274243224	-0.3842113828	 0.128157
H	 0.0841191632	-3.3111039311	 1.2220822246	 0.123766
H	-1.4253470423	-4.0687964821	-1.3746942352	 0.088002
49.2613	59.8939	78.6074	154.5762	207.3789	280.2018	391.6304	434.3994	482.9106	493.8405	565.1174	790.7534	795.7701	865.8223	895.8908	966.8417	989.951	1007.5558	1045.7569	1073.3512	1082.8895	1142.2246	1180.2302	1210.8533	1258.5912	1265.6233	1278.9032	1294.3064	1368.0569	1401.8136	1419.4733	1439.6128	1448.781	1475.8591	1499.462	1834.5687	2885.5136	3005.4687	3046.2319	3076.7277	3101.6033	3114.2345	3127.1653	3514.6634	3790.8789
OCC1NC1CC=O	OC[C@H]1N[C@H]1CC=O	
InChI=1S/C5H9NO2/c7-2-1-4-5(3-8)6-4/h2,4-6,8H,1,3H2	InChI=1S/C5H9NO2/c7-2-1-4-5(3-8)6-4/h2,4-6,8H,1,3H2/t4-,5+/m0/s1
