23
gdb 82494	2.56223	1.68976	1.38115	0.1196	88.99	-0.2644	0.086	0.3504	1078.7521	0.207612	-351.136149	-351.128129	-351.127185	-351.168015	33.386	
C	-0.2574157325	 1.6121062265	-0.0823108316	-0.435214
C	 0.0207723094	 0.1157268578	-0.0225854456	 0.047591
C	 1.1070089738	-0.5858889205	-0.8990431138	-0.065062
C	 2.3977745118	 0.1555069917	-0.5062264512	-0.24987
C	 2.3681747056	-0.2755879529	 0.980976346	 0.340938
C	 3.1591622643	 0.5205333202	 1.9921365718	-0.506362
C	 2.547060967	-1.8140714832	 0.8187380148	-0.278018
C	 1.1483318101	-1.7431078895	 0.1955922747	-0.028571
C	 0.7938641421	-0.5461803966	 1.1297661068	-0.081742
H	 0.630457566	 2.2177512012	 0.1181044723	 0.115792
H	-0.6458326825	 1.9036608499	-1.0651897062	 0.112399
H	-1.0120081223	 1.8880741611	 0.6629555169	 0.112675
H	-0.9246574829	-0.4287483592	-0.1443849459	 0.065376
H	 0.9318812457	-0.7964112032	-1.9547268529	 0.052594
H	 3.2904367943	-0.215553498	-1.0197256738	 0.086892
H	 2.3438605622	 1.2353562909	-0.6655495172	 0.087766
H	 2.8400241739	 1.5688907612	 2.0149339531	 0.11321
H	 3.0408419248	 0.1147351505	 3.0028505352	 0.110893
H	 4.2296722765	 0.5068200734	 1.7536614387	 0.113488
H	 3.3989059016	-2.1726832138	 0.2299896759	 0.082568
H	 2.516514431	-2.3395417373	 1.7790257342	 0.088874
H	 0.4933319655	-2.6015704503	 0.0508467547	 0.060253
H	 0.4051287246	-0.6692538299	 2.141868203	 0.053527
150.9867	179.9563	207.0005	256.1944	304.0541	315.6187	440.5607	492.5712	524.4978	587.7304	656.1484	691.881	759.15	816.971	822.4109	854.181	873.8557	917.125	946.779	956.0348	971.8243	990.6311	1008.5602	1034.6691	1059.8518	1070.8779	1074.8647	1124.0386	1140.4125	1143.7866	1167.6577	1197.4495	1207.2276	1227.5471	1242.211	1260.2242	1270.6576	1286.0579	1315.0695	1353.844	1396.4825	1410.0728	1413.5332	1487.253	1491.3156	1493.9508	1496.0578	1499.5237	1526.6738	3018.7773	3019.3942	3028.383	3029.2251	3052.1827	3080.7565	3083.8963	3086.057	3088.6944	3093.596	3099.9033	3103.	3109.8744	3121.4431
CC1C2CC3(C)CC2C13	C[C@H]1[C@H]2C[C@]3(C)C[C@H]2[C@H]13	
InChI=1S/C9H14/c1-5-6-3-9(2)4-7(6)8(5)9/h5-8H,3-4H2,1-2H3	InChI=1S/C9H14/c1-5-6-3-9(2)4-7(6)8(5)9/h5-8H,3-4H2,1-2H3/t5-,6+,7+,8-,9+/m0/s1
