15
gdb 123369	3.92161	1.02428	0.89669	5.353	72.39	-0.2213	0.0094	0.2307	1258.1647	0.11341	-412.934233	-412.926003	-412.925059	-412.968062	29.964	
C	 0.0392924624	-0.1476847449	 1.2098644466	-0.446885
C	 0.0131440374	 0.5388860913	 0.2239567314	 0.309876
C	 0.0167740182	 1.3661003108	-0.9860608291	-0.329054
N	 1.2419034936	 2.1348818857	-1.2128273324	-0.390915
C	 1.4906852482	 3.1946269496	-0.3489875223	 0.400988
C	 0.7853264772	 3.7710198493	 0.6879585027	-0.13107
N	 1.4781937876	 4.8603162447	 1.1309987289	-0.183207
N	 2.5690853504	 4.9962787776	 0.4468568351	-0.122527
N	 2.585084252	 3.986806037	-0.4667857317	-0.263745
H	 0.0559568756	-0.7464836681	 2.0871808169	 0.209434
H	-0.1411231887	 0.7324421413	-1.8653877214	 0.146813
H	-0.8183647162	 2.0748836627	-0.960672808	 0.159304
H	 2.0445344873	 1.5312058948	-1.3448180815	 0.246252
H	-0.1405353115	 3.460822147	 1.1410913409	 0.121552
H	 3.3332706766	 3.9345147813	-1.138763756	 0.273183
47.4448	64.3105	183.2237	211.2204	298.1807	344.6347	391.7545	504.7096	570.6891	616.2609	635.3737	675.2505	690.5784	718.0403	735.4059	803.494	930.3564	979.999	1008.771	1032.0365	1067.6875	1102.7505	1144.2271	1240.8352	1269.1104	1354.8741	1366.1416	1389.9112	1433.9278	1466.5924	1514.7193	1631.5931	2235.4774	3044.0958	3080.3034	3284.6974	3502.2741	3549.5884	3660.4969
C#CCNC1=CN=NN1	C#CCNc1cnn[nH]1	
InChI=1S/C5H6N4/c1-2-3-6-5-4-7-9-8-5/h1,4H,3H2,(H2,6,7,8,9)	InChI=1S/C5H6N4/c1-2-3-6-5-4-7-9-8-5/h1,4H,3H2,(H2,6,7,8,9)
