18
gdb 73592	2.22619	2.13007	1.53511	0.907	69.84	-0.2328	0.0677	0.3005	925.1252	0.149105	-439.027927	-439.020688	-439.019744	-439.05913	29.491	
O	-0.1012464862	 1.321410487	-0.0835054626	-0.490062
C	 0.0119257084	-0.0752825083	-0.0429681441	 0.406657
C	-1.2961344931	-0.7105227677	-0.5186693881	-0.13188
O	-1.4319402471	-1.9305713773	 0.2069250243	-0.258849
C	-0.8295589613	-1.7675591083	 1.4978821638	-0.112128
C	 0.3152191784	-0.7815534201	 1.3089675869	-0.059994
N	 1.6690665189	-1.2683453449	 0.8188915121	-0.150284
C	 1.4584639346	-2.1119859365	-0.377470888	-0.256612
C	 1.3565595544	-0.6472316976	-0.5337122892	-0.128186
H	 0.7341216053	 1.703420044	 0.2073164284	 0.28605
H	-2.1194211625	-0.0145491341	-0.2974388519	 0.107231
H	-1.3122156931	-0.9566472037	-1.5835862197	 0.114495
H	-1.5598111528	-1.360915437	 2.2144242211	 0.10306
H	-0.5162692188	-2.7570150471	 1.8436570165	 0.120716
H	 0.4676131575	-0.1162828899	 2.1602030616	 0.087947
H	 2.3840729628	-2.5734149686	-0.709710961	 0.121436
H	 0.5777874143	-2.73820595	-0.4609603818	 0.14822
H	 2.0916381003	-0.0585319299	-1.0769666984	 0.092181
161.6222	235.1731	277.8123	297.005	339.0826	361.2931	439.9393	499.0454	597.7864	644.8436	729.0645	750.0157	758.4753	839.0355	900.6408	918.1941	938.6351	994.7565	1006.6389	1050.1549	1076.9807	1090.4754	1105.0256	1133.8727	1144.4187	1157.375	1176.4883	1212.0215	1216.3218	1251.184	1263.2126	1323.7136	1332.918	1358.9825	1388.4283	1411.6786	1496.7978	1500.0145	1509.7753	2986.8165	2997.241	3086.5541	3096.0052	3102.7137	3125.017	3141.9113	3218.6568	3805.5491
OC12COCC1N1CC21	O[C@]12COC[C@H]1N1C[C@@H]21	
InChI=1S/C6H9NO2/c8-6-3-9-2-5(6)7-1-4(6)7/h4-5,8H,1-3H2	InChI=1S/C6H9NO2/c8-6-3-9-2-5(6)7-1-4(6)7/h4-5,8H,1-3H2/t4-,5+,6-,7?/m0/s1
