14
gdb 15457	3.71903	1.78423	1.22384	3.4682	74.11	-0.2421	-0.0551	0.187	937.8158	0.106621	-345.414052	-345.406756	-345.405812	-345.445841	26.936	
O	 0.0141220705	-0.0047498583	 0.0035337935	-0.309063
C	-0.002455785	 1.1990922496	 0.0093078737	 0.302774
C	-1.2516363466	 2.091868935	 0.0312309196	-0.32482
C	-0.729413836	 3.5396842034	 0.0319261892	-0.265061
C	 0.767941939	 3.395449391	 0.0116988648	-0.160913
C	 1.1885198059	 2.1159307391	-0.0005918544	 0.068633
C	 2.5194002366	 1.6400695664	-0.0202068356	 0.244844
C	 3.6400219025	 1.2008563569	-0.036929536	-0.409467
H	-1.8712488061	 1.8593412792	-0.8394423686	 0.140195
H	-1.8472828832	 1.849915353	 0.9159595008	 0.140276
H	-1.0756041151	 4.1152441869	-0.8355152451	 0.127874
H	-1.0528210424	 4.106162299	 0.9140134225	 0.12788
H	 1.4296275191	 4.2543842845	 0.0078471938	 0.119493
H	 4.6283203008	 0.8127719343	-0.0516902982	 0.197355
81.3832	136.7442	161.6368	289.9803	393.8997	461.1488	506.8698	587.4993	609.2114	634.9758	650.8003	692.5481	766.4697	802.3223	903.9871	936.1583	1010.7351	1021.6803	1044.6645	1151.5248	1205.0218	1231.4115	1270.0985	1312.2794	1323.3105	1449.5414	1479.723	1658.3268	1828.0458	2232.7423	3029.3302	3052.4906	3069.5991	3110.1017	3201.8179	3503.0411
O=C1CCC=C1C#C	O=C1CCC=C1C#C	
InChI=1S/C7H6O/c1-2-6-4-3-5-7(6)8/h1,4H,3,5H2	InChI=1S/C7H6O/c1-2-6-4-3-5-7(6)8/h1,4H,3,5H2
