19
gdb 127148	4.38591	0.8955	0.87192	3.7908	78.12	-0.2175	0.001	0.2185	1401.4685	0.160331	-415.371692	-415.362845	-415.361901	-415.406059	32.179	
C	 0.3669287688	 1.2983398496	-0.1626025929	-0.318418
N	-0.0155350997	-0.0942061299	 0.0307325604	-0.059931
C	 0.5615441961	-0.631841258	 1.2530685436	-0.311199
C	-1.4653846288	-0.2771801974	-0.0088075186	-0.25982
C	-2.0238071532	-0.1019129052	-1.3881341432	 0.30782
C	-1.5073616853	-0.50545792	-2.5987381586	-0.15352
N	-2.4453813749	-0.1217181096	-3.4952026886	-0.147931
N	-3.4859069622	 0.4851161387	-2.8964929658	-0.119821
N	-3.2280139342	 0.4986307483	-1.619654539	-0.251377
H	 1.4570925288	 1.3760179788	-0.2214233403	 0.114821
H	-0.0546970248	 1.6759760352	-1.0974545953	 0.125632
H	 0.0200983997	 1.9554289714	 0.6576216543	 0.095846
H	 0.208996884	-0.1165205867	 2.1670761315	 0.094442
H	 0.3151917446	-1.6941923233	 1.3474377008	 0.116526
H	 1.6514221933	-0.5371519741	 1.21646306	 0.11689
H	-1.6770655438	-1.2951990113	 0.3412042442	 0.112935
H	-2.0065054989	 0.4048680098	 0.6723969761	 0.103151
H	-0.5919157913	-1.0002324796	-2.8725979606	 0.152351
H	-2.4444675281	-0.2224942368	-4.4976756281	 0.281603
44.2979	82.6862	124.5541	248.1089	251.8332	295.8704	342.0511	350.5477	377.5838	473.6203	583.785	676.8803	733.6795	765.7356	804.7947	860.5207	983.7158	998.0996	1032.6034	1049.7785	1063.7154	1067.8236	1122.923	1126.0236	1174.4696	1205.8871	1257.2482	1279.6277	1304.6525	1319.7757	1352.8192	1405.2212	1442.5552	1470.4113	1481.647	1488.7927	1493.3043	1500.287	1504.7631	1513.0683	1586.1918	2923.9361	2931.3969	2944.8698	3035.9306	3058.695	3067.1584	3103.1832	3117.0979	3295.8659	3657.0914
CN(C)CC1=CNN=N1	CN(C)Cc1c[nH]nn1	
InChI=1S/C5H10N4/c1-9(2)4-5-3-6-8-7-5/h3H,4H2,1-2H3,(H,6,7,8)	InChI=1S/C5H10N4/c1-9(2)4-5-3-6-8-7-5/h3H,4H2,1-2H3,(H,6,7,8)
