19
gdb 92960	2.75383	1.52339	1.24957	1.6977	76.67	-0.2327	0.0016	0.2343	1068.9864	0.159827	-423.014572	-423.006397	-423.005453	-423.04768	31.431	
O	 0.0576032121	 1.3576950524	-0.1282398708	-0.428049
C	-0.0510302105	-0.0555253592	-0.0023025601	 0.057757
C	 0.6510389807	-0.5680944619	 1.2766316293	-0.29608
C	-0.4949155689	-0.7141145208	 2.2519903907	-0.08371
C	-1.6808415014	-0.6595458344	 1.6435532661	-0.133499
C	-1.5326094464	-0.5037496601	 0.1557439937	 0.401863
C	-2.5927653761	 0.2443305389	-0.6836147271	-0.358577
C	-2.781399454	-1.0982394224	-1.4110523016	-0.071909
O	-1.8201547131	-1.7504552648	-0.5538519886	-0.329256
H	-0.2804789306	 1.7482355192	 0.6862512291	 0.280596
H	 0.3709182882	-0.4669969226	-0.9214024894	 0.094882
H	 1.148627811	-1.5332013308	 1.116597541	 0.123423
H	 1.4239056881	 0.1374253164	 1.5995649758	 0.109406
H	-0.3437669862	-0.8800536762	 3.3135403288	 0.100741
H	-2.6476349718	-0.7805620579	 2.1191982903	 0.096868
H	-3.4599642814	 0.589923993	-0.1171232241	 0.104531
H	-2.1931767185	 1.0684272884	-1.2742174423	 0.127853
H	-3.7742253948	-1.5562033845	-1.3297200892	 0.101373
H	-2.4700099265	-1.1157417526	-2.4628369417	 0.101787
71.7153	75.1098	209.4082	228.4694	332.6369	344.7124	410.331	435.6593	502.6197	544.8863	743.0812	766.7129	789.5374	822.6267	857.6003	875.2989	932.0894	948.6825	974.6522	982.0791	1002.8317	1013.5868	1030.0073	1077.3507	1108.5423	1157.2398	1161.2595	1181.6461	1205.9894	1247.0048	1251.5217	1275.3362	1283.7096	1316.9143	1347.4779	1388.624	1418.0955	1475.7413	1492.3426	1530.6094	1669.3278	3016.5846	3029.0879	3055.4403	3072.8639	3080.6671	3100.5358	3143.7222	3180.0862	3205.5659	3788.4068
OC1CC=CC11CCO1	O[C@H]1CC=C[C@]21CCO2	
InChI=1S/C7H10O2/c8-6-2-1-3-7(6)4-5-9-7/h1,3,6,8H,2,4-5H2	InChI=1S/C7H10O2/c8-6-2-1-3-7(6)4-5-9-7/h1,3,6,8H,2,4-5H2/t6-,7+/m0/s1
