20
gdb 51669	4.51939	0.87029	0.81844	3.0792	80.74	-0.2206	-0.0228	0.1978	1439.8364	0.170181	-403.11018	-403.101531	-403.100587	-403.144679	31.821	
O	-0.3907313789	 0.1311963392	 0.3378742316	-0.236822
C	-0.0623627386	 1.2518918201	 0.0500407198	 0.157438
C	 1.3742005181	 1.7041110621	-0.1716970979	-0.240223
N	 1.4509818891	 2.7108975582	-1.1984877393	-0.092657
C	 1.4849038207	 2.2943513223	-2.6201412865	-0.183434
C	 2.5428214202	 3.3775529039	-2.8999195506	-0.039363
C	 2.0169708648	 4.8443569756	-2.9560404115	-0.223963
C	 2.3809930388	 5.0397252116	-1.4493421973	-0.213811
C	 2.6809932689	 3.5283841896	-1.3506950507	 0.022926
H	-0.8025568065	 2.0750327446	-0.0723738518	 0.0812
H	 1.7022705306	 2.1529038359	 0.7782091647	 0.127708
H	 2.0014840821	 0.8117417759	-0.3477658117	 0.102292
H	 1.8861286659	 1.2770891892	-2.7558764203	 0.092606
H	 0.5245363769	 2.365546927	-3.1454464614	 0.102117
H	 3.3694645559	 3.1217669761	-3.5601386145	 0.07557
H	 2.558583891	 5.4972320091	-3.6437820898	 0.102363
H	 0.9500283928	 4.919361707	-3.1811218761	 0.106109
H	 3.2790085618	 5.6506762926	-1.3166929631	 0.097477
H	 1.5943121826	 5.409067296	-0.7876907382	 0.100702
H	 3.5428865238	 3.183352944	-0.7697935854	 0.061765
51.6794	66.6823	95.6089	190.2326	237.6511	327.9242	371.0509	402.2592	491.2023	655.7066	711.0088	755.0071	787.8739	818.0975	847.7089	886.3965	944.1041	955.0619	989.48	1006.059	1041.7272	1052.1949	1084.3588	1113.2494	1136.7619	1176.3863	1182.5345	1198.6092	1226.0169	1239.3249	1253.3943	1268.5437	1278.4024	1303.4208	1319.9453	1337.2807	1359.1516	1402.4012	1453.6926	1463.7914	1485.3803	1513.4804	1838.0909	2881.3653	2945.5032	2971.106	3021.6511	3042.0833	3044.2273	3056.4358	3064.9073	3105.0393	3119.9575	3129.689
O=CCN1CC2CCC12	O=CCN1C[C@H]2CC[C@@H]12	
InChI=1S/C7H11NO/c9-4-3-8-5-6-1-2-7(6)8/h4,6-7H,1-3,5H2	InChI=1S/C7H11NO/c9-4-3-8-5-6-1-2-7(6)8/h4,6-7H,1-3,5H2/t6-,7-/m1/s1
