18
gdb 90105	3.73751	1.26333	1.19331	2.3341	74.2	-0.2282	0.0335	0.2616	1099.3642	0.1461	-438.905932	-438.898165	-438.89722	-438.937724	31.144	
C	-0.1371633553	 1.5812372559	 0.0515570411	-0.320156
N	 0.0020967454	 0.137537228	 0.0374500018	-0.115204
C	-1.1914313078	-0.6890991647	 0.5142643946	-0.275612
C	-0.0965387621	-1.6494597822	 1.0197069823	 0.268939
O	 0.6242018903	-2.3490050696	 2.1420236244	-0.406502
C	 1.6943645218	-1.7948747941	 1.1740284774	-0.074405
C	 0.8717562467	-2.3852505927	 0.027664258	 0.180518
O	 0.7853901953	-3.7642072915	-0.079190466	-0.453718
C	 0.8199870872	-0.4859182621	 1.1239277551	 0.019284
H	 0.8125101557	 2.0383363193	-0.2430340331	 0.13072
H	-0.8981163106	 1.8848691602	-0.674439441	 0.126739
H	-0.4244977512	 1.9826238913	 1.0404654625	 0.097682
H	-1.7551124846	-0.1872128926	 1.3126477468	 0.113991
H	-1.8605001	-1.0331379793	-0.2793588123	 0.124573
H	 2.719266119	-1.9818125171	 1.506989711	 0.095783
H	 0.9851285228	-1.9448672766	-0.9609623804	 0.111903
H	 0.6808495158	-4.0812685678	 0.8299748695	 0.287227
H	 0.7918650916	 0.0545082855	 2.076186268	 0.08824
144.3513	210.2839	219.3226	285.2533	296.7948	364.7213	380.6894	462.9101	533.675	586.4184	625.5339	672.1916	713.3173	803.306	841.8666	878.0567	891.2995	910.1095	961.5744	1000.171	1061.2168	1086.3514	1106.8408	1138.5629	1149.6636	1166.4075	1178.3193	1185.8473	1220.9038	1232.1659	1268.2008	1283.7394	1310.4701	1343.3206	1445.9732	1455.2664	1482.7487	1496.7318	1498.6809	2940.8382	3011.1368	3050.6282	3064.9776	3079.7835	3097.4066	3108.0044	3148.797	3735.7676
CN1CC23OC(C2O)C13	CN1C[C@@]23O[C@@H]([C@H]2O)[C@@H]13	
InChI=1S/C6H9NO2/c1-7-2-6-4(7)3(9-6)5(6)8/h3-5,8H,2H2,1H3	InChI=1S/C6H9NO2/c1-7-2-6-4(7)3(9-6)5(6)8/h3-5,8H,2H2,1H3/t3-,4-,5-,6+/m1/s1
