19
gdb 124561	4.15483	0.92556	0.82315	4.161	78.35	-0.2669	-0.0342	0.2327	1424.6241	0.158243	-419.201526	-419.19249	-419.191546	-419.23622	32.908	
C	 0.0956789434	 1.5959244115	 0.0520216761	-0.387074
C	 0.0499561959	 0.0630744488	 0.045934556	 0.03899
C	 0.738346655	-0.5147678904	 1.2889560501	-0.392251
C	-1.3997106317	-0.4821681925	-0.0461533506	-0.31561
C	-2.0902451373	-0.1894582286	-1.3340626707	 0.407559
C	-2.307241922	-0.9267228391	-2.4602568765	-0.204018
N	-2.9910563259	-0.1299824807	-3.3448052549	-0.108071
N	-3.2015477769	 1.0054031479	-2.8529452851	-0.015258
O	-2.6278272453	 1.0160464908	-1.5300371079	-0.213519
H	 1.1314236702	 1.9478752707	 0.089312871	 0.115708
H	-0.3756218078	 2.0246073641	-0.8354688177	 0.136598
H	-0.423849095	 1.9969006556	 0.9304886654	 0.116009
H	 0.5881666816	-0.2955063229	-0.841699295	 0.08479
H	 0.2205497277	-0.2045831296	 2.2043825765	 0.117856
H	 0.7561486461	-1.6095350596	 1.2689880514	 0.112669
H	 1.7722490266	-0.1631084838	 1.3588220491	 0.118931
H	-1.3810130646	-1.5694943387	 0.0802027775	 0.120809
H	-1.9935628962	-0.0715110954	 0.7792168323	 0.129134
H	-2.0368225237	-1.9420558983	-2.694018957	 0.136748
38.911	80.3871	116.9862	230.592	254.6981	289.0331	319.1051	321.7019	417.1609	420.9695	625.7756	671.6611	702.0433	773.2917	814.613	834.0418	889.1653	934.45	951.0561	969.9709	988.9032	1052.3515	1095.194	1132.1153	1140.1777	1190.9278	1232.3262	1257.1337	1313.1656	1362.6728	1367.923	1389.6811	1405.3387	1427.2651	1454.7786	1476.6011	1488.4868	1495.0338	1505.9915	1511.2849	1601.2057	3014.7655	3026.8901	3033.8995	3040.6269	3085.9802	3093.0392	3099.2923	3105.7416	3126.0557	3290.248
CC(C)CC1=CN=NO1	CC(C)Cc1cnno1	
InChI=1S/C6H10N2O/c1-5(2)3-6-4-7-8-9-6/h4-5H,3H2,1-2H3	InChI=1S/C6H10N2O/c1-5(2)3-6-4-7-8-9-6/h4-5H,3H2,1-2H3
