22
gdb 116239	2.10984	1.34584	0.99231	3.9271	85.21	-0.3056	0.0319	0.3375	1309.8648	0.195767	-367.255629	-367.246156	-367.245212	-367.290479	34.867	
C	-0.0991462328	 1.6600179351	-0.0959608008	-0.388844
C	-0.1273559075	 0.1283852232	-0.0595506524	-0.205839
C	 0.695474424	-0.5193409821	-1.175690674	 0.045435
C	 2.2163411391	-0.2382958001	-1.1325725418	-0.213484
C	 2.9046334135	-1.4346152789	-1.8503002897	-0.212074
C	 1.7699901738	-2.4164076357	-2.2266080539	-0.220034
C	 0.616385217	-2.071527401	-1.2532409547	-0.182354
C	 0.8208087461	-2.7016313618	 0.0540872412	 0.285049
N	 0.994229994	-3.1986462959	 1.0838785628	-0.342152
H	 0.9162635162	 2.0465974744	 0.0367986483	 0.121741
H	-0.4780295337	 2.0422867349	-1.0506907112	 0.112762
H	-0.7199395489	 2.0812396453	 0.7002698363	 0.118071
H	 0.2424000197	-0.2261877624	 0.9102194385	 0.121473
H	-1.1671437407	-0.2154260137	-0.1348788587	 0.096002
H	 0.3057457275	-0.167795697	-2.1411536846	 0.077408
H	 2.459055831	 0.7202691333	-1.5971490231	 0.104772
H	 2.5485475892	-0.1784444293	-0.0905513635	 0.115249
H	 3.4636119788	-1.1219592552	-2.735803198	 0.104397
H	 3.6199733333	-1.919181378	-1.1807156253	 0.120367
H	 1.4141117099	-2.2253665347	-3.2442082563	 0.107335
H	 2.0699464405	-3.4650281288	-2.17421656	 0.118465
H	-0.35500307	-2.4051677615	-1.6322070691	 0.116253
63.0865	100.6815	102.0388	134.2246	211.1314	219.3999	268.7792	375.2266	409.0944	459.4881	552.5902	661.8019	679.6213	774.8535	803.7294	817.5958	845.6156	898.6272	926.8925	947.7539	986.0233	1012.1872	1031.2589	1049.802	1070.9345	1132.9623	1153.4619	1190.8695	1203.1326	1228.6978	1272.9527	1283.7128	1303.6045	1318.9963	1329.4709	1338.4491	1363.0815	1376.6877	1397.3161	1414.3176	1487.3027	1489.1496	1494.3058	1501.1215	1508.1734	1514.6183	2348.5393	3006.6449	3021.4457	3033.1241	3047.8531	3050.8613	3060.462	3064.7311	3068.2951	3089.9437	3100.291	3106.4897	3109.8267	3118.3199
CCC1CCCC1C#N	CC[C@H]1CCC[C@H]1C#N	
InChI=1S/C8H13N/c1-2-7-4-3-5-8(7)6-9/h7-8H,2-5H2,1H3	InChI=1S/C8H13N/c1-2-7-4-3-5-8(7)6-9/h7-8H,2-5H2,1H3/t7-,8-/m0/s1
