19
gdb 48750	3.00108	1.37048	1.13173	2.8612	82.02	-0.2354	-0.0186	0.2168	1121.9351	0.160577	-385.911075	-385.90323	-385.902286	-385.94331	30.867	
O	-0.0525736548	 0.0260456196	 0.1993631099	-0.272169
C	 0.0527949044	 1.1850176027	-0.1204025403	 0.107033
C	 1.2885920808	 1.9925174272	 0.0113601741	 0.232031
C	 1.0731419359	 3.4860150504	 0.1684132257	-0.332499
C	 1.5414953919	 2.9615689067	-1.1605579004	-0.104886
C	 2.9545619391	 3.1280250269	-1.5808569516	-0.046277
C	 3.9859259176	 2.7397002752	-0.8289709271	-0.072317
C	 3.8043379646	 2.0761041163	 0.5114653398	-0.289976
C	 2.4894607164	 1.2781911197	 0.6022802189	-0.2718
H	-0.8099768912	 1.7414007662	-0.5594872886	 0.0618
H	 0.0495647908	 3.8391410231	 0.2475695952	 0.12092
H	 1.7854171427	 4.0319756579	 0.7758023468	 0.131087
H	 0.8047528187	 2.9607622639	-1.9585248663	 0.094717
H	 3.1229248294	 3.600098225	-2.5446011349	 0.092822
H	 5.0007464375	 2.9109311743	-1.1762831044	 0.09197
H	 4.6446029983	 1.4039759872	 0.7169792148	 0.109086
H	 3.8413017156	 2.8340517772	 1.3071388601	 0.113452
H	 2.2845704554	 1.0071875166	 1.6429883137	 0.112035
H	 2.601572997	 0.3328727339	 0.0605775844	 0.122971
97.3683	172.1598	214.9212	219.5052	347.5857	353.1159	421.7413	474.747	529.9388	594.0967	711.7917	718.7698	754.5904	782.4697	842.2092	903.377	917.181	939.5842	987.96	1007.7923	1021.1401	1048.3949	1060.7364	1076.3076	1092.6077	1124.8623	1188.4349	1208.2144	1250.3367	1267.2059	1311.4865	1351.9805	1374.2928	1405.6706	1423.0356	1437.2225	1475.8061	1484.2585	1497.0108	1711.9335	1811.9171	2840.5879	3001.6156	3045.9727	3061.7783	3084.2662	3129.8433	3145.8585	3159.018	3180.1564	3222.1727
O=CC12CC1C=CCC2	O=C[C@]12C[C@H]1C=CCC2	
InChI=1S/C8H10O/c9-6-8-4-2-1-3-7(8)5-8/h1,3,6-7H,2,4-5H2	InChI=1S/C8H10O/c9-6-8-4-2-1-3-7(8)5-8/h1,3,6-7H,2,4-5H2/t7-,8+/m1/s1
