23
gdb 93860	2.17795	1.70426	1.10576	1.4853	85.06	-0.2364	0.08	0.3164	1193.4974	0.205925	-388.291034	-388.281782	-388.280838	-388.324836	35.965	
C	-0.7009163115	 1.3072242596	 0.0182685665	-0.429492
C	 0.1360484242	 0.0341949707	-0.0557743659	-0.065671
C	 1.3130831767	 0.1162043392	-1.0392112737	-0.07106
O	 2.2604344691	-0.8658960413	-0.6340012773	-0.283243
C	 1.9362424576	-1.3627065928	 0.6735094396	 0.090467
C	 3.2203561323	-1.5063663639	 1.4750881045	-0.412022
C	 0.8631653918	-0.4171849165	 1.2116652354	 0.328263
C	 1.1078246472	 0.5070330199	 2.3791606245	-0.309153
C	 0.1666235907	-0.668538039	 2.5143894394	-0.334757
H	-0.0848748694	 2.1792442744	 0.2597529705	 0.121739
H	-1.1880873459	 1.5026701911	-0.9426419556	 0.118393
H	-1.4910200514	 1.2292197201	 0.7727841519	 0.118245
H	-0.5151326784	-0.79343377	-0.3716592698	 0.078735
H	 1.0159766567	-0.0801390613	-2.0762342996	 0.096382
H	 1.7734456549	 1.116648671	-1.0036815809	 0.085957
H	 1.4838881675	-2.3625189034	 0.5550394313	 0.066037
H	 3.725076234	-0.5420088366	 1.578936649	 0.121869
H	 3.0212761226	-1.9141663473	 2.4721950427	 0.110932
H	 3.8994993275	-2.1919606404	 0.9610043792	 0.125151
H	 2.0613990479	 0.4563013473	 2.891519896	 0.112466
H	 0.6748544482	 1.5005324372	 2.3527492144	 0.11033
H	-0.8984634155	-0.4671490004	 2.5766547953	 0.109316
H	 0.4898764635	-1.5149900376	 3.1130237926	 0.111116
59.4973	111.6764	217.4005	229.3583	254.2998	268.4603	300.6143	307.5004	401.0861	456.088	492.6511	540.0109	630.1404	709.3585	775.2743	827.6425	863.2608	907.3661	920.2882	936.1228	963.6617	978.5112	1039.3288	1055.3579	1073.3743	1084.4115	1088.3025	1124.0363	1129.1443	1147.6321	1162.727	1188.3041	1233.3756	1253.6189	1323.5211	1347.6245	1351.6902	1366.5066	1393.0011	1405.3713	1411.3384	1415.5678	1463.5329	1484.9733	1497.5465	1500.4924	1507.0706	1511.3163	1527.4929	2943.6945	2972.2008	3000.1645	3032.3548	3038.5811	3047.8098	3095.7388	3105.219	3108.9581	3117.9364	3122.7601	3144.5365	3196.8922	3226.8579
CC1COC(C)C11CC1	C[C@H]1CO[C@@H](C)C21CC2	
InChI=1S/C8H14O/c1-6-5-9-7(2)8(6)3-4-8/h6-7H,3-5H2,1-2H3	InChI=1S/C8H14O/c1-6-5-9-7(2)8(6)3-4-8/h6-7H,3-5H2,1-2H3/t6-,7-/m0/s1
