19
gdb 105906	2.52174	1.74658	1.2398	2.9299	75.47	-0.224	0.0538	0.2778	1046.709	0.159289	-419.076229	-419.068103	-419.067159	-419.108854	31.597	
O	 0.5637640284	 0.2349626708	 0.9272277491	-0.433876
C	-0.177153475	 0.3354236464	-0.2756903944	-0.17918
C	-1.5301014731	-0.2997663575	-0.1270468855	 0.343817
N	-2.6468316534	-0.3054159589	-1.1219454208	-0.16242
C	-3.2811970351	 0.9871335281	-1.371941056	-0.333581
C	-3.200453347	-1.0798292873	 0.0312941107	-0.034806
C	-1.8306661908	-1.7735220869	 0.2820682335	-0.0784
N	-1.7339718753	-1.4404759101	 1.7408160497	-0.370472
C	-2.4527179927	-0.2602495888	 1.1517214423	-0.090381
H	 0.1547385308	-0.4543990166	 1.4720750808	 0.301268
H	-0.286028978	 1.4002468042	-0.5257490523	 0.101403
H	 0.3545099743	-0.1395510641	-1.1160613716	 0.098851
H	-2.6500943511	 1.5779070019	-2.0430934154	 0.126351
H	-4.2384221859	 0.8221743912	-1.8768402313	 0.12235
H	-3.4706955153	 1.5845166125	-0.4640437554	 0.099515
H	-4.204926502	-1.5090673236	 0.0370994188	 0.082526
H	-1.4365857412	-2.6855158296	-0.1652106776	 0.095961
H	-2.3678259044	-2.0203962877	 2.2953770332	 0.216177
H	-2.7786072733	 0.5827415559	 1.7603447023	 0.094899
73.8153	172.3934	211.3953	224.631	246.0934	331.0194	419.0366	443.9703	527.458	551.5743	671.9352	736.8488	751.8892	797.7577	835.554	899.4961	905.8877	941.1441	972.796	999.2505	1064.959	1085.9187	1094.7757	1104.8437	1130.7043	1146.4362	1161.1853	1178.3774	1187.6557	1216.155	1247.4546	1264.948	1278.0043	1285.2565	1357.8354	1383.5295	1448.7776	1484.6224	1493.3892	1496.2563	1519.6214	2963.6369	2974.8244	3018.0509	3067.5141	3091.5481	3103.625	3122.2187	3130.2891	3413.4493	3690.1825
OCC12N(C)C3C1NC23	OC[C@@]12N(C)[C@H]3[C@@H]1N[C@@H]23	
InChI=1S/C6H10N2O/c1-8-3-4-6(8,2-9)5(3)7-4/h3-5,7,9H,2H2,1H3	InChI=1S/C6H10N2O/c1-8-3-4-6(8,2-9)5(3)7-4/h3-5,7,9H,2H2,1H3/t3-,4-,5+,6+
