18
gdb 43708	4.63748	1.17411	1.06111	3.8824	77.29	-0.2464	0.0376	0.284	1140.3556	0.149044	-401.921078	-401.913834	-401.91289	-401.952779	29.281	
O	 0.0627006378	-0.0721108434	 0.0022309739	-0.363397
C	-0.0194480336	 1.1264019115	 0.0094896677	 0.429657
C	-1.1607375421	 2.1720303154	 0.0316220379	-0.519152
C	-0.0293366221	 3.2320206263	 0.0203993791	 0.507239
N	 0.9250272413	 2.1266768993	 0.0010880206	-0.424364
C	 0.0587900673	 4.4612930717	-0.923148358	-0.116413
C	-0.9498269403	 5.1503858341	 0.0432710706	-0.219674
C	 0.0863640074	 4.4519143942	 0.9730938347	-0.116408
C	 1.188254923	 4.9951053171	 0.0114145174	-0.233331
H	-1.8015861991	 2.151258427	-0.8520816397	 0.133141
H	-1.7753978378	 2.142175335	 0.9334838154	 0.133156
H	 1.9332401043	 2.0832877934	-0.0140315328	 0.248424
H	 0.0419594524	 4.4612827234	-2.0140882942	 0.078095
H	-0.9293162039	 6.2420982515	 0.0483709454	 0.09811
H	-1.9728303472	 4.7681498298	 0.0562560662	 0.1013
H	 0.101261374	 4.4411123842	 2.0640076466	 0.078095
H	 2.1476477883	 4.4720526198	-0.0051165377	 0.086617
H	 1.3361253304	 6.0779725597	 0.0146197669	 0.098905
78.776	204.5655	239.8287	361.5777	412.3465	422.9063	455.3024	570.1196	585.4364	592.7437	759.9452	787.3934	804.0381	868.8213	899.6772	902.0569	958.817	987.7111	1002.2174	1012.5185	1031.7423	1057.2796	1078.0809	1087.7175	1117.2986	1146.2135	1171.4669	1185.2534	1193.6911	1201.9274	1241.8752	1246.4821	1259.0068	1284.4675	1402.1925	1458.6988	1502.1924	1540.2115	1896.8429	3056.8091	3065.3597	3081.1443	3102.8036	3108.6418	3117.8527	3131.7194	3138.0549	3610.8193
O=C1CC2(N1)C1CC2C1	O=C1C[C@@]2(N1)[C@H]1C[C@@H]2C1	
InChI=1S/C7H9NO/c9-6-3-7(8-6)4-1-5(7)2-4/h4-5H,1-3H2,(H,8,9)	InChI=1S/C7H9NO/c9-6-3-7(8-6)4-1-5(7)2-4/h4-5H,1-3H2,(H,8,9)/t4-,5+,7-
