14
gdb 34477	1.90733	1.76416	0.93376	5.1861	78.45	-0.2688	-0.0958	0.173	1163.2579	0.103159	-395.757578	-395.749688	-395.748744	-395.790469	28.157	
N	 0.1563696225	-1.1354161861	-0.1194109599	-0.323437
C	 0.0447643344	 0.0155209269	-0.0473704025	 0.215276
C	-0.0198829765	 1.4267446942	 0.037020883	 0.111583
C	-1.1249408378	 2.1956304583	 0.0558480356	 0.111534
C	-0.7242450757	 3.6587778649	 0.2273674984	-0.263692
N	 0.725622631	 3.6781050993	-0.0030077266	-0.296361
C	 1.2165846411	 2.3084806868	 0.1935666701	-0.263671
C	-2.4722960396	 1.7668316118	-0.004274144	 0.215289
N	-3.5916373121	 1.4721277795	-0.0545207224	-0.32344
H	-1.2513133074	 4.3279911409	-0.4580083972	 0.142387
H	-0.9720128988	 3.9819023897	 1.2486944037	 0.146424
H	 0.8961042873	 3.94721901	-0.9647459424	 0.239294
H	 1.629635139	 2.1720464248	 1.2033526324	 0.146409
H	 2.0108711825	 2.058256509	-0.5148755179	 0.142407
105.3596	135.0658	148.0178	198.959	211.3558	372.4718	471.7895	494.8291	525.4748	577.7951	616.2831	668.6261	771.1077	794.245	938.3234	992.2671	1013.3582	1050.5642	1113.6754	1135.9983	1179.8936	1242.7348	1265.2153	1333.9682	1357.8284	1478.3514	1492.9788	1501.9523	1672.7285	2330.7667	2341.2015	3008.6222	3009.0194	3092.1943	3093.3641	3545.2144
N#CC1=C(CNC1)C#N	N#CC1=C(CNC1)C#N	
InChI=1S/C6H5N3/c7-1-5-3-9-4-6(5)2-8/h9H,3-4H2	InChI=1S/C6H5N3/c7-1-5-3-9-4-6(5)2-8/h9H,3-4H2
