20
gdb 71299	2.54968	1.98054	1.43395	0.9172	77.18	-0.2327	0.0815	0.3141	979.0272	0.173122	-403.108374	-403.100946	-403.100002	-403.139711	30.588	
C	 0.0439848498	 1.4370657148	 0.086087666	-0.45965
C	 0.0161638854	-0.0724465677	-0.0282133075	 0.388264
C	 0.1644224716	-0.6626973993	-1.4667550146	-0.224155
N	-1.1537660603	-1.3735951177	-1.3846989701	-0.158098
C	-1.1644700062	-2.187593056	-0.142906049	-0.014081
C	 0.0188619921	-2.8658127384	 0.5281896741	-0.255979
C	 1.2288185875	-1.9462131799	 0.8119424308	-0.089003
O	 0.8919688416	-0.5775543698	 0.9705487127	-0.302062
C	-1.3703923157	-0.7355182168	-0.0196470762	-0.086071
H	 1.0450760482	 1.8182856802	-0.1364155666	 0.123291
H	-0.6697746271	 1.89214198	-0.6063237515	 0.120161
H	-0.2169546156	 1.7394000354	 1.1050593522	 0.126915
H	 0.0984413279	 0.1147974874	-2.2312942621	 0.111188
H	 1.0202430917	-1.3025281703	-1.6941727526	 0.1035
H	-2.0687764872	-2.7911884553	-0.1221901432	 0.097651
H	-0.3654175985	-3.2608511417	 1.4762918943	 0.115314
H	 0.3513954254	-3.732293268	-0.0554985654	 0.10976
H	 1.7109291034	-2.2410902916	 1.7480770017	 0.109109
H	 1.9807825217	-2.0555689999	 0.018260644	 0.097478
H	-2.305692526	-0.2647823554	 0.266482503	 0.086467
142.1016	234.3631	250.3022	304.9659	337.9856	378.2903	432.1728	519.1823	535.6359	618.455	678.2996	776.1689	791.8143	831.34	858.0605	870.4316	913.0709	932.5771	961.5211	990.1414	1007.4828	1054.1984	1069.1364	1109.1384	1117.5194	1157.3731	1176.696	1205.6725	1240.2477	1250.3704	1265.8768	1286.5232	1297.8609	1357.7559	1365.1418	1407.8934	1411.3484	1442.589	1480.5926	1482.2494	1493.1147	1494.6851	1528.1493	3002.124	3028.7802	3040.1479	3063.1198	3066.7677	3086.0007	3112.324	3114.7713	3121.5494	3136.6923	3160.8161
CC12CN3C(CCO1)C23	C[C@@]12CN3[C@@H](CCO1)[C@@H]23	
InChI=1S/C7H11NO/c1-7-4-8-5(6(7)8)2-3-9-7/h5-6H,2-4H2,1H3	InChI=1S/C7H11NO/c1-7-4-8-5(6(7)8)2-3-9-7/h5-6H,2-4H2,1H3/t5-,6-,7-,8?/m0/s1
