18
gdb 32676	3.24236	1.36147	1.02994	1.0656	79.23	-0.2023	0.048	0.2503	1150.7502	0.149476	-401.945018	-401.937014	-401.93607	-401.978557	30.204	
O	 0.2072665554	 1.3871632605	 0.0147943708	-0.41654
C	 0.0360674287	 0.0419088025	-0.3912138191	-0.074918
C	-1.3493193429	-0.4838623117	-0.0403578324	 0.021448
C	-1.5339355353	-2.0537356808	-0.0620395968	-0.421754
C	-1.7221296232	-1.9228758659	 1.4410914099	 0.34761
C	-1.9117788096	-2.3287182585	 2.7430125938	-0.334094
C	-1.8966579201	-1.1200024962	 3.511353364	-0.128249
C	-1.6969395115	-0.0341753351	 2.6701393935	-0.1801
N	-1.6000201675	-0.5687948305	 1.4139468562	 0.023057
H	 0.2558703063	 1.3918703099	 0.9768761143	 0.291413
H	 0.1662075782	 0.0232628869	-1.4787875525	 0.117583
H	 0.7985444378	-0.6162808698	 0.0521421687	 0.099715
H	-2.1195230667	 0.086832376	-0.568455761	 0.103447
H	-2.4020913831	-2.3980454194	-0.6300343738	 0.124353
H	-0.6499226368	-2.6045872647	-0.39755714	 0.119524
H	-2.0491665921	-3.3289810547	 3.1217989716	 0.095791
H	-2.0299049228	-1.0543643463	 4.5813057663	 0.093626
H	-1.6620329249	 1.0241366577	 2.8717879263	 0.118087
35.6072	96.8344	146.1849	248.7268	348.8301	389.7448	411.9529	532.5579	603.2007	655.4528	688.8759	698.4047	762.2385	777.6358	825.5036	863.854	927.5088	956.0923	993.8686	1032.9763	1057.6023	1071.8528	1086.4006	1116.4337	1144.5083	1210.9608	1217.4857	1238.346	1254.5556	1300.1493	1343.6437	1399.9697	1414.668	1416.7725	1431.5413	1475.2653	1494.8048	1497.9168	1578.0654	2993.6061	3054.75	3062.0975	3079.9854	3101.3472	3237.021	3259.2421	3268.0992	3809.2366
OCC1CC2=CC=CN12	OC[C@H]1Cc2cccn12	
InChI=1S/C7H9NO/c9-5-7-4-6-2-1-3-8(6)7/h1-3,7,9H,4-5H2	InChI=1S/C7H9NO/c9-5-7-4-6-2-1-3-8(6)7/h1-3,7,9H,4-5H2/t7-/m1/s1
