19
gdb 82055	2.72468	1.52066	1.27961	2.3777	74.46	-0.2286	0.0608	0.2893	1058.9437	0.15944	-422.974056	-422.96599	-422.965046	-423.006694	31.365	
O	 0.3441870747	 1.4432252295	-0.0067774325	-0.432917
C	 0.1153706381	 0.0563810166	 0.0758510377	 0.066676
C	 0.3130478314	-0.6727300158	 1.4035299627	-0.099113
C	-0.7820251105	-0.3111552493	 2.3728634754	-0.308114
C	-1.0852820785	-1.291766827	 1.2764070091	-0.115172
C	-1.3451091749	-0.5160907161	-0.0128041957	 0.419832
C	-2.5743601751	 0.3730352576	-0.2712827323	-0.356228
C	-2.7639123646	-0.5033476078	-1.5236782629	-0.081141
O	-1.6064591498	-1.3020198415	-1.1901362709	-0.329516
H	 0.0816503788	 1.8385278912	 0.831231995	 0.282008
H	 0.6902461622	-0.4063509143	-0.7311458786	 0.106939
H	 1.2347687934	-1.1322448592	 1.7388882259	 0.091585
H	-0.6752407889	-0.7300585655	 3.3679165041	 0.120703
H	-1.2465447815	 0.674051639	 2.3682272331	 0.101182
H	-1.3995053597	-2.3111536766	 1.4597594213	 0.098076
H	-3.3644401289	 0.3058171981	 0.4789782746	 0.109108
H	-2.3311962716	 1.4199940361	-0.4629129911	 0.11635
H	-3.677859548	-1.1079010357	-1.5546838146	 0.102387
H	-2.6413199367	 0.0088593707	-2.4848235603	 0.107358
86.3146	123.3866	205.2739	234.6734	288.5625	307.2271	421.1006	453.5168	559.2715	577.7963	718.3171	790.8026	795.9836	831.6738	862.8488	908.2506	936.2448	956.9588	976.8601	993.7413	1019.4554	1023.4312	1061.9533	1084.0337	1114.6598	1116.8106	1154.1466	1158.2414	1178.5649	1208.1638	1224.2574	1241.3364	1271.02	1280.7781	1320.6489	1349.0658	1354.9383	1423.5419	1483.9886	1494.9506	1530.1458	3023.1222	3064.7887	3074.2673	3083.7947	3093.2569	3131.9283	3182.576	3192.1467	3204.8859	3812.448
OC1C2CC2C11CCO1	O[C@H]1[C@H]2C[C@H]2[C@]21CCO2	
InChI=1S/C7H10O2/c8-6-4-3-5(4)7(6)1-2-9-7/h4-6,8H,1-3H2	InChI=1S/C7H10O2/c8-6-4-3-5(4)7(6)1-2-9-7/h4-6,8H,1-3H2/t4-,5+,6-,7-/m0/s1
