17
gdb 106758	2.21546	1.62176	1.11483	3.5987	70.83	-0.2318	-0.0109	0.2209	1113.9128	0.133025	-458.929553	-458.920447	-458.919503	-458.96358	33.081	
C	 0.0526629559	 1.3130166357	-0.290779216	-0.264322
O	 0.0221132905	-0.0303293227	 0.188573421	-0.279098
C	-1.2298627907	-0.5766153052	 0.2113111747	 0.23455
C	-1.8764519749	-1.143611363	-1.0771565816	-0.41899
C	-1.6987431139	-2.0723675086	 0.0675859674	 0.349356
O	-0.9971818071	-3.2501530343	 0.0748316696	-0.443659
C	-2.8047669612	-1.852929739	 1.0963282842	-0.400239
C	-2.274667146	-0.3979271566	 1.2657356271	 0.364723
O	-2.4894614165	 0.4551014554	 2.0818599465	-0.330835
H	 1.0961097303	 1.6322284139	-0.2607126255	 0.133019
H	-0.3167322758	 1.3730716619	-1.3237927982	 0.111694
H	-0.5498930051	 1.96944013	 0.3466554419	 0.144917
H	-2.8570918849	-0.8328162454	-1.4315543507	 0.121641
H	-1.1251702139	-1.2354179307	-1.8593346277	 0.120282
H	-0.339097987	-3.2312566618	-0.6286517903	 0.294952
H	-3.8362099819	-1.9913593423	 0.7599611998	 0.119172
H	-2.6340127377	-2.4157121174	 2.0185514378	 0.142837
75.1732	112.9111	130.0037	173.8716	221.6853	271.1872	279.9317	372.2911	419.5069	494.1434	527.4505	585.8603	644.8275	672.1192	749.5452	803.0032	866.4726	962.8062	1001.6991	1007.6983	1040.6273	1075.4985	1101.2066	1125.9692	1142.9724	1179.2785	1205.7852	1218.4469	1338.7762	1390.8789	1410.7084	1458.0126	1480.5703	1486.0553	1506.5919	1511.889	1871.1017	3005.4696	3057.0549	3078.5933	3091.8341	3116.5092	3133.8667	3178.6611	3812.6833
COC12CC1(O)CC2=O	CO[C@@]12C[C@]1(O)CC2=O	
InChI=1S/C6H8O3/c1-9-6-3-5(6,8)2-4(6)7/h8H,2-3H2,1H3	InChI=1S/C6H8O3/c1-9-6-3-5(6,8)2-4(6)7/h8H,2-3H2,1H3/t5-,6-/m1/s1
