14
gdb 131676	2.77532	1.33338	0.90577	6.5626	66.74	-0.2716	-0.071	0.2006	1182.3527	0.100421	-469.997745	-469.989504	-469.98856	-470.031339	28.422	
O	-0.0066009668	 1.416328483	 0.0071941992	-0.405406
C	 0.0225683601	 0.0049503014	 0.0017246294	-0.188815
C	-1.3988457676	-0.4602899639	 0.0122362824	 0.358792
C	-2.566319714	 0.2430378775	 0.0238928286	-0.143673
N	-3.6201848929	-0.6430488314	 0.0300344104	-0.160868
N	-3.1816922129	-1.8480869816	 0.0229290903	-0.102539
N	-1.8033091007	-1.7761547567	 0.0118816616	-0.110075
C	-1.0006725669	-2.9332128527	 0.0019298127	 0.187221
O	-1.419072229	-4.0516205017	 0.0021443098	-0.236841
H	 0.8994151861	 1.7386073743	 0.0002733045	 0.301453
H	 0.5390191736	-0.3875120575	-0.8902310719	 0.119679
H	 0.5543453539	-0.3940826389	 0.8816688555	 0.119646
H	-2.7134138926	 1.3089221982	 0.0282109299	 0.154071
H	 0.0730926897	-2.67229254	-0.0064005825	 0.107353
69.5498	130.9774	163.2999	188.7888	212.2379	249.3262	281.0416	393.8944	575.3631	644.979	692.0404	708.7057	794.9253	864.4552	984.7188	1022.3123	1043.7081	1048.8677	1103.8078	1114.4544	1229.9149	1253.2711	1258.3014	1278.2318	1389.2613	1412.68	1454.371	1485.9661	1515.6555	1609.635	1856.3206	2955.7797	2976.3911	2976.7541	3299.9921	3839.5356
OCC1=CN=NN1C=O	OCc1cnnn1C=O	
InChI=1S/C4H5N3O2/c8-2-4-1-5-6-7(4)3-9/h1,3,8H,2H2	InChI=1S/C4H5N3O2/c8-2-4-1-5-6-7(4)3-9/h1,3,8H,2H2
