15
gdb 123763	4.82454	1.11924	1.05209	2.4934	66.59	-0.2686	-0.0381	0.2305	1134.2498	0.11419	-453.919573	-453.912262	-453.911318	-453.953096	25.669	
C	 0.0499323607	 1.2376946361	-0.3038790693	-0.058506
C	 1.5036309135	 1.4927476523	 0.1403926822	-0.301485
C	 1.3906288747	 0.0969812472	 0.8101188818	 0.033337
O	 0.0409649272	-0.0636534159	 0.3310887186	-0.281956
C	 2.3057289505	-0.9706268928	 0.3114183119	 0.432707
N	 3.1063616555	-1.7276107453	 1.0034666217	-0.318609
C	 3.6957418186	-2.4825069423	 0.0193511648	 0.035678
N	 3.297306871	-2.2238286798	-1.1956591656	-0.106034
O	 2.3609022314	-1.2024762907	-1.0065400653	-0.194421
H	-0.7047551697	 1.9026726941	 0.1301977045	 0.112281
H	-0.1134352708	 1.1611848932	-1.3839356654	 0.121525
H	 2.2338639375	 1.5539452789	-0.6662405024	 0.133367
H	 1.6543206985	 2.3178866032	 0.8362538527	 0.126055
H	 1.4465248644	 0.0899510761	 1.9032186247	 0.115158
H	 4.436109917	-3.2443511544	 0.2151758352	 0.150902
41.0413	55.5965	147.9367	205.8672	389.4193	404.9304	658.852	673.343	774.4386	797.7128	835.0854	921.8735	930.624	939.7326	946.436	980.3325	1014.1238	1031.9636	1045.0376	1091.827	1162.7547	1182.3833	1216.9346	1257.3548	1262.3644	1272.187	1323.993	1355.0074	1365.5196	1487.391	1510.0197	1528.7302	1618.7017	3034.3221	3065.2971	3079.8323	3096.3327	3155.9463	3262.5439
C1CC(O1)C1=NC=NO1	C1C[C@@H](O1)c1ncno1	
InChI=1S/C5H6N2O2/c1-2-8-4(1)5-6-3-7-9-5/h3-4H,1-2H2	InChI=1S/C5H6N2O2/c1-2-8-4(1)5-6-3-7-9-5/h3-4H,1-2H2/t4-/m1/s1
