18
gdb 41088	3.39829	1.90018	1.63072	0.6904	74.21	-0.2144	0.056	0.2703	871.6475	0.150585	-401.817109	-401.811109	-401.810165	-401.847011	26.374	
C	-0.0282278175	 1.474936749	-0.1975891886	-0.164319
O	 1.3809580582	 1.6567202503	 0.2272282945	-0.368946
C	 1.2487732129	 0.3799459075	 0.8341983673	 0.48351
C	 2.0269997437	-0.8367232082	 1.48088039	-0.181181
C	 1.5940672635	-0.3394058986	 2.8800195741	-0.250665
C	 0.3750791306	 0.2118326065	 2.1329345807	-0.045948
N	-0.3439810887	-0.8724614726	 1.2786572617	-0.185023
C	 0.8431525823	-1.8310547685	 1.222469423	-0.148786
C	 0.0709259069	-0.0716293346	 0.0437733111	-0.061655
H	-0.7102983639	 2.0406812386	 0.4417373993	 0.123543
H	-0.1500885467	 1.7644361917	-1.2430323127	 0.122444
H	 3.0376029083	-1.1496146288	 1.2299297492	 0.081146
H	 1.4656572589	-1.0809379363	 3.6733280597	 0.099907
H	 2.2010942478	 0.4958651914	 3.2406408366	 0.113106
H	-0.2985813857	 0.9589211105	 2.5435911613	 0.08386
H	 0.8757700315	-2.3423776082	 0.2582184157	 0.105935
H	 0.7543134346	-2.5758318098	 2.0166001958	 0.10857
H	 0.1223213233	-0.6525654997	-0.8787075387	 0.084501
287.948	311.4667	336.1531	437.0955	505.8635	539.3604	618.1901	686.3223	757.2262	805.3044	815.2722	829.6124	877.1676	881.6845	900.3266	939.313	958.3992	979.0048	1000.3062	1013.633	1042.3459	1063.6665	1085.2411	1091.9712	1133.469	1146.2166	1159.5145	1205.1343	1213.1824	1225.1401	1251.7076	1260.7502	1298.4982	1304.9702	1344.1242	1347.7594	1487.3772	1497.2432	1515.3704	3053.7433	3064.0749	3069.166	3088.5754	3111.2065	3123.1891	3130.4107	3149.7889	3155.7977
C1OC23C4CC2N(C4)C13	C1O[C@@]23[C@H]4C[C@@H]2N(C4)[C@@H]13	
InChI=1S/C7H9NO/c1-4-2-8-5(1)7(4)6(8)3-9-7/h4-6H,1-3H2	InChI=1S/C7H9NO/c1-4-2-8-5(1)7(4)6(8)3-9-7/h4-6H,1-3H2/t4-,5-,6-,7-/m0/s1
