20
gdb 65142	3.42054	1.14918	1.0083	2.7843	80.45	-0.2614	0.0285	0.2899	1248.0186	0.170588	-403.143781	-403.135017	-403.134073	-403.177382	33.577	
C	 0.1850513167	 1.5382462556	 0.3104285027	-0.468085
C	-0.0427336553	 0.0724901963	-0.0066039255	 0.337974
C	 0.7936415008	-0.5805697613	-1.0793773069	-0.308082
C	 1.0213974071	-0.9264484158	 0.374678425	-0.305159
C	-1.4867415845	-0.3390809901	 0.1414458186	 0.053611
C	-2.4836358744	 0.0348707765	-0.9829775037	-0.372613
C	-2.6362319967	-1.4622577559	-1.1309875728	 0.439144
N	-3.3243183906	-2.2185964267	-1.8554106459	-0.541836
O	-1.722321017	-1.76260428	-0.1375950079	-0.266234
H	 1.2412595937	 1.8000108605	 0.2009643073	 0.122073
H	-0.3890681447	 2.1896879993	-0.3591185606	 0.120489
H	-0.1111177499	 1.7739870304	 1.3396757269	 0.119377
H	 0.3342709071	-1.3407088391	-1.700674885	 0.127138
H	 1.5305017851	 0.0325923277	-1.5870283065	 0.109955
H	 1.9147709403	-0.5526678516	 0.863504167	 0.110222
H	 0.6992503137	-1.9079063236	 0.7025698303	 0.129611
H	-1.8502709264	-0.1094446472	 1.1494257292	 0.09114
H	-3.3893123013	 0.5620478759	-0.6803676778	 0.135838
H	-2.0388299367	 0.5293582438	-1.848528676	 0.138286
H	-3.1446559371	-3.2009849446	-1.6405066083	 0.227153
75.7298	79.8149	186.2518	216.5237	258.9201	304.6919	336.6821	408.1832	474.9376	497.9964	519.024	671.1633	751.5368	793.4457	849.9622	869.3933	878.1523	922.9655	943.251	951.6336	965.8325	1014.8631	1034.0173	1044.7581	1050.5455	1069.4956	1090.4044	1115.9176	1148.0555	1192.722	1223.1005	1236.747	1283.0098	1319.0599	1360.8951	1392.6555	1419.8099	1459.4367	1461.7959	1491.1441	1497.2436	1510.4848	1826.0685	3021.9611	3044.0568	3079.6438	3087.3292	3105.846	3135.1849	3138.8579	3143.6323	3218.598	3231.2882	3474.9079
CC1(CC1)C1CC(=N)O1	CC1(CC1)[C@H]1C[C]([NH])O1	
InChI=1S/C7H11NO/c1-7(2-3-7)5-4-6(8)9-5/h5,8H,2-4H2,1H3	InChI=1S/C7H11NO/c1-7(2-3-7)5-4-6(8)9-5/h5,8H,2-4H2,1H3/t5-/m1/s1
