16
gdb 27157	3.09889	1.32457	0.99404	1.8262	72.96	-0.2351	-0.0077	0.2274	1168.7581	0.124493	-437.897613	-437.889593	-437.888649	-437.93096	28.812	
C	-0.3719302777	 1.5092415557	 0.1871653729	-0.495324
C	-0.0652048088	 0.0592706152	 0.0211315034	 0.162167
C	 0.2175710643	-0.6563703938	-1.1020658314	 0.29663
O	 0.4245618939	-1.9625150595	-0.7255934954	-0.180752
C	 0.2496235221	-1.9564068258	 0.6116107967	 0.06639
N	-0.0358395991	-0.8035041998	 1.1172335294	-0.303904
C	 0.3370593545	-0.3174169292	-2.5220283487	-0.054473
C	 1.0301266977	-1.1771359368	-3.4949550041	-0.178757
O	-0.393747148	-1.1215512667	-3.4656227716	-0.230481
H	 0.3696843141	 1.9922384947	 0.8321491478	 0.142985
H	-0.3843446323	 2.0314686632	-0.7724592048	 0.126056
H	-1.3491224221	 1.6426554471	 0.6624419389	 0.146359
H	 0.3604400736	-2.9020626031	 1.1191201187	 0.151965
H	 0.2918520141	 0.751964427	-2.7205455872	 0.103903
H	 1.5041996577	-0.7228954032	-4.3643644633	 0.118467
H	 1.4676667561	-2.113201395	-3.1543440914	 0.128771
62.2872	118.4867	154.2381	171.3086	262.0543	285.1401	439.0462	478.6569	621.3874	667.9364	708.952	733.6729	825.5543	848.5878	908.4569	957.7247	978.9571	995.8537	1065.1604	1090.8068	1099.9542	1155.3043	1161.3054	1163.9676	1239.3723	1289.6437	1292.3408	1369.8366	1415.7314	1433.4558	1473.5714	1489.3525	1519.1307	1560.4638	1674.0501	3040.6072	3086.4601	3096.7922	3124.3302	3131.8601	3180.4142	3274.0203
CC1=C(OC=N1)C1CO1	Cc1c(ocn1)[C@H]1CO1	
InChI=1S/C6H7NO2/c1-4-6(5-2-8-5)9-3-7-4/h3,5H,2H2,1H3	InChI=1S/C6H7NO2/c1-4-6(5-2-8-5)9-3-7-4/h3,5H,2H2,1H3/t5-/m1/s1
