20
gdb 7597	2.69233	1.57534	1.42255	1.0761	71.04	-0.2516	0.07	0.3215	1033.4069	0.173767	-386.130465	-386.120698	-386.119754	-386.164581	35.692	
C	 0.1443083122	 1.2852802456	-0.4848128965	-0.41888
C	 0.042710438	-0.0174296873	 0.3091382469	 0.058733
O	 0.4715486614	 0.140500887	 1.6603055912	-0.431591
C	-1.3626189723	-0.6203371459	 0.2541295312	 0.402595
C	-2.4367588738	 0.1351535296	 1.0112916709	-0.488851
O	-1.7527755668	-1.0754722982	-1.0536244413	-0.307719
C	-1.5741806718	-2.0559105969	-0.0186830552	 0.025927
C	-0.5084739514	-3.1028987875	-0.2165157931	-0.427698
H	 1.175301424	 1.6491857426	-0.4751592363	 0.122922
H	-0.1659197358	 1.1237984367	-1.520669582	 0.141282
H	-0.4959169546	 2.0670310601	-0.058740016	 0.108085
H	 0.7425793978	-0.7347108553	-0.1261088123	 0.088953
H	 0.0894433319	 0.9567543184	 1.9989113144	 0.281444
H	-2.5371071396	 1.1623825148	 0.6451622008	 0.123043
H	-3.4041383874	-0.3566384007	 0.8870236521	 0.130042
H	-2.2017735708	 0.1700928429	 2.0795912049	 0.12435
H	-2.5198997863	-2.4653238532	 0.3460883869	 0.081127
H	 0.4144304594	-2.6868259571	-0.6235432737	 0.130709
H	-0.2805710184	-3.596402357	 0.7342676627	 0.127875
H	-0.8654494358	-3.8677160986	-0.9144403254	 0.127652
54.2824	132.8987	179.39	204.2108	225.9794	238.9826	257.4092	286.6678	297.4364	379.9215	433.6521	476.9548	511.3949	557.9697	702.6989	768.9567	873.9777	908.8953	942.2708	998.6529	1022.9756	1069.219	1074.0302	1094.924	1130.0985	1137.8436	1170.3264	1277.2429	1291.0875	1326.2077	1384.9222	1399.0726	1405.6986	1407.823	1415.1471	1463.4845	1484.1239	1488.5418	1493.5117	1498.8201	1503.3714	1518.8449	3031.8866	3040.3953	3041.3793	3070.3996	3081.4467	3100.5134	3104.0407	3108.5782	3126.8712	3128.0366	3138.3769	3812.8825
CC(O)C1(C)OC1C	C[C@@H](O)[C@@]1(C)O[C@H]1C	
InChI=1S/C6H12O2/c1-4(7)6(3)5(2)8-6/h4-5,7H,1-3H3	InChI=1S/C6H12O2/c1-4(7)6(3)5(2)8-6/h4-5,7H,1-3H3/t4-,5+,6-/m1/s1
