21
gdb 99672	1.98867	1.36846	0.85238	1.4307	85.23	-0.2475	0.0391	0.2866	1386.1429	0.180387	-387.027224	-387.017277	-387.016332	-387.062644	36.285	
C	-0.0632315914	 1.4026381967	 0.041776181	-0.235601
O	 0.0227491683	-0.005861647	 0.0596002865	-0.244208
C	 0.6410559831	-0.5836308708	-1.0849636543	-0.114276
C	 1.1801026427	-1.8864344963	-0.6861864918	 0.328153
C	 1.612958339	-2.9687194989	-0.3953303292	-0.426045
C	-0.3223606225	-0.7458117089	-2.2689333176	 0.055145
C	-0.719273889	 0.4904846546	-3.1285218456	-0.237592
C	-0.6310838717	-0.409176267	-4.3893897144	-0.22552
C	 0.2185394559	-1.4128708758	-3.5636196895	-0.22513
H	 0.9173772356	 1.8670842741	-0.1463308628	 0.104632
H	-0.7730732297	 1.7768643325	-0.7078860965	 0.114451
H	-0.4099087233	 1.7083095483	 1.0321659195	 0.129134
H	 1.4827083276	 0.0561870345	-1.4064125119	 0.084896
H	 2.0016321368	-3.9194468749	-0.1255067366	 0.195221
H	-1.2123385399	-1.2693888328	-1.9066544212	 0.08837
H	-1.6726958182	 0.9779945011	-2.9111554558	 0.100342
H	 0.0696885881	 1.250357402	-3.1242132517	 0.097792
H	-1.6054439391	-0.8276972043	-4.6567224692	 0.104939
H	-0.1801098741	 0.0192452158	-5.2872921021	 0.097521
H	 1.2910780815	-1.2283127959	-3.6860360701	 0.102426
H	 0.0362896205	-2.4809210668	-3.6952537068	 0.105349
57.6052	84.7743	121.163	131.0877	180.537	201.595	246.5499	347.4406	374.7281	422.1278	491.4178	539.6008	620.3162	662.3235	665.4461	784.0175	794.3129	900.3178	934.7249	948.8952	957.4825	983.0014	993.0309	1065.1689	1096.3985	1140.9403	1154.8432	1179.8131	1202.9254	1215.6848	1233.0369	1257.3743	1260.3169	1272.6871	1287.8516	1312.3269	1358.4976	1375.4317	1476.3486	1477.6689	1486.9018	1492.7577	1508.2629	1512.5349	2240.014	2938.2156	2981.9557	3041.084	3045.9615	3051.3752	3060.1688	3065.483	3099.0812	3109.0592	3112.2757	3121.9909	3503.8215
COC(C#C)C1CCC1	CO[C@@H](C#C)C1CCC1	
InChI=1S/C8H12O/c1-3-8(9-2)7-5-4-6-7/h1,7-8H,4-6H2,2H3	InChI=1S/C8H12O/c1-3-8(9-2)7-5-4-6-7/h1,7-8H,4-6H2,2H3/t8-/m0/s1
