17
gdb 109525	1.92041	1.4789	1.15296	3.9321	79.76	-0.228	0.009	0.237	1162.1169	0.134537	-380.822631	-380.813196	-380.812252	-380.857065	34.109	
C	 0.0946251722	 1.1375815088	-0.5754480297	-0.322325
N	-0.2086355311	 0.218339605	 0.5199143858	-0.285462
C	-1.4188959318	-0.5022573502	 0.349029087	 0.029327
C	-1.5438657777	-1.7762053073	-0.5018441056	-0.256521
C	-0.397462006	-2.3078731105	-1.1686182414	 0.33538
C	 0.5751954208	-2.7393964277	-1.7296527889	-0.433659
C	-1.628575617	-1.8258774747	 1.0434511939	-0.244905
C	-0.5535627605	-2.410738174	 1.7920291893	 0.30718
N	 0.3196833775	-2.8677233169	 2.3979534593	-0.339481
H	 1.0331675666	 1.6528875278	-0.3565998191	 0.128715
H	 0.181581341	 0.648086751	-1.5569424197	 0.119332
H	-0.6939238286	 1.8956069173	-0.6400635002	 0.123642
H	 0.5696628683	-0.4082203778	 0.6926426103	 0.244801
H	-2.2951704211	 0.1411065095	 0.3214386127	 0.117589
H	-2.4962595772	-1.9397651257	-0.9979116049	 0.125955
H	 1.4299393876	-3.1366431995	-2.2191681058	 0.206892
H	-2.611922343	-2.0185539052	 1.458225247	 0.143539
91.4073	96.8371	102.5025	145.7079	210.2116	240.6314	267.6672	373.6902	405.5722	451.5135	595.5561	636.9708	646.5052	662.4033	673.4322	700.428	736.1079	789.0876	869.3332	965.5132	998.6093	1050.4763	1081.5338	1122.8653	1138.5202	1157.4226	1198.6771	1285.4358	1350.0677	1365.4932	1379.5902	1461.6522	1488.7171	1507.5175	1532.1886	2236.0662	2353.7485	2993.4379	3068.1107	3116.2787	3137.1647	3148.9638	3175.1624	3502.3737	3543.5941
CNC1C(C#C)C1C#N	CN[C@H]1[C@@H](C#C)[C@H]1C#N	
InChI=1S/C7H8N2/c1-3-5-6(4-8)7(5)9-2/h1,5-7,9H,2H3	InChI=1S/C7H8N2/c1-3-5-6(4-8)7(5)9-2/h1,5-7,9H,2H3/t5-,6+,7-/m0/s1
