19
gdb 99475	1.93856	1.24309	0.85381	3.8388	76.89	-0.2444	-0.0414	0.203	1413.0071	0.156877	-419.226914	-419.216293	-419.215348	-419.263693	36.398	
C	-0.119590979	 1.409390452	-0.1191790249	-0.380838
C	 0.0452523381	-0.108697179	-0.1014999447	-0.29091
C	 0.7500159306	-0.6572722366	-1.3237176262	 0.377762
O	 1.0650352463	 0.0080525756	-2.2776382266	-0.292454
C	 1.0736226122	-2.1958591239	-1.336028455	-0.221144
N	 1.4957112699	-2.6999598686	-2.6262737849	-0.264628
C	 0.3860010022	-2.897831012	-3.5595468393	-0.327264
C	 2.0974871083	-2.4511603599	-0.3090520149	 0.288436
N	 2.8994827758	-2.6058850222	 0.5085893828	-0.318759
H	 0.8534140474	 1.9066184132	-0.1424641735	 0.13843
H	-0.6740273921	 1.7316356772	-1.003824026	 0.135604
H	-0.6572813821	 1.746007047	 0.7708631002	 0.119986
H	 0.5945534587	-0.4464849899	 0.7867526189	 0.153269
H	-0.9304464995	-0.6133072628	-0.0407962549	 0.130244
H	 0.166789872	-2.7313745013	-1.024806944	 0.135973
H	 2.1483952782	-2.0290874219	-3.0216815538	 0.239948
H	-0.2232698333	-1.9986348799	-3.7368665745	 0.115466
H	 0.791489003	-3.2298313803	-4.5183737115	 0.134258
H	-0.2670473467	-3.6930122767	-3.183405417	 0.126622
49.6866	55.696	94.2301	134.5489	165.9918	174.1366	204.8569	235.0017	316.4528	343.9064	414.8285	431.8544	538.2091	567.8493	659.7041	743.2131	789.8607	861.2914	945.2521	982.0208	1008.3779	1043.5294	1087.0489	1121.6844	1142.3861	1161.5026	1217.4616	1241.4482	1288.9296	1338.3173	1373.0419	1416.813	1447.3065	1458.019	1489.9021	1494.6129	1498.7341	1503.6633	1526.6249	1824.1789	2354.5785	2990.1497	3013.7769	3034.8238	3055.1321	3055.8396	3069.3929	3117.934	3128.0464	3131.4715	3517.8858
CCC(=O)C(NC)C#N	CCC(=O)[C@@H](NC)C#N	
InChI=1S/C6H10N2O/c1-3-6(9)5(4-7)8-2/h5,8H,3H2,1-2H3	InChI=1S/C6H10N2O/c1-3-6(9)5(4-7)8-2/h5,8H,3H2,1-2H3/t5-/m0/s1
