17
gdb 40896	3.93705	1.30405	1.26931	1.3683	71.93	-0.2468	-0.0084	0.2384	1030.4746	0.137676	-417.958134	-417.95099	-417.950045	-417.98996	27.31	
C	-0.0096340009	 1.4809715958	-0.1428639527	-0.139461
O	 1.3323451984	 1.5256754769	 0.3891784068	-0.276577
C	 1.4204512522	 0.0849515091	 0.4703432008	-0.158236
C	-0.0179340602	-0.0408031501	-0.0088396894	 0.296989
C	-1.0956860543	-0.9616019014	 0.3895150583	-0.132751
C	-2.5408394739	-0.5076517853	 0.1833099719	-0.190005
N	-2.6592963381	-0.2355087905	-1.2621578122	-0.195853
C	-1.5437461008	-0.530441792	-1.7936092999	 0.030107
N	-0.4893765071	-1.051757277	-0.9765096305	-0.180118
H	-0.7218134199	 2.029264829	 0.486224234	 0.113688
H	-0.0648352896	 1.866863071	-1.1681097532	 0.114936
H	 2.1667116273	-0.3303744172	-0.2178337658	 0.117783
H	 1.6273322853	-0.2599312595	 1.4908580071	 0.109713
H	-0.8769061801	-1.7867042194	 1.0603393679	 0.10705
H	-3.2527483955	-1.2899874727	 0.4682361637	 0.126864
H	-2.8086491752	 0.3924468707	 0.7489264528	 0.124199
H	-1.3514889374	-0.4306531974	-2.8578059195	 0.131673
97.7983	156.3363	180.4433	259.3386	373.5752	432.9292	501.8596	580.264	747.5965	783.4286	845.4792	865.9881	893.9818	939.3283	946.1294	958.0447	982.0478	1005.0296	1019.7126	1027.7372	1056.8208	1098.3887	1115.6385	1146.0119	1159.2008	1184.9725	1210.211	1286.661	1305.2361	1312.6334	1323.3972	1363.16	1459.6466	1489.3974	1502.1649	1526.457	1679.756	3011.0082	3021.9272	3038.9454	3058.404	3064.4827	3071.5112	3158.9718	3190.5589
C1OCC11C2CN=CN12	C1OCC21[C@H]1CN=CN21	
InChI=1S/C6H8N2O/c1-5-6(2-9-3-6)8(5)4-7-1/h4-5H,1-3H2	InChI=1S/C6H8N2O/c1-5-6(2-9-3-6)8(5)4-7-1/h4-5H,1-3H2/t5-,8?/m1/s1
