17
gdb 56246	4.32645	0.68676	0.65916	5.2745	65.91	-0.2475	0.0073	0.2548	1661.6505	0.135561	-492.342034	-492.332411	-492.331467	-492.378137	33.595	
N	 0.0392649723	 1.1779308465	-0.3772185181	-0.52059
C	-0.1772771289	 0.1040012829	 0.422834003	 0.418393
O	 0.3696978627	-0.0506223518	 1.4989339238	-0.357917
C	-1.2096186011	-0.901165979	-0.0961260223	-0.254639
N	-0.98615	-2.1811151491	 0.5568206402	-0.320493
H	-0.4469882889	-3.4426133312	-0.8061378604	 0.303185
H	-0.5809392743	-1.9928142494	 1.4690405014	 0.253071
C	-2.1409596052	-3.0668315746	 0.6068769744	-0.304908
C	-2.224711835	-3.9448667005	-0.6534576946	 0.417525
O	-1.0588846893	-4.0183403016	-1.3154204696	-0.36317
O	-3.2181171466	-4.5234442029	-0.9977595373	-0.330773
H	 0.6835454534	 1.8872919865	-0.0680046038	 0.271
H	-0.378546815	 1.2648739775	-1.2870019312	 0.268457
H	-2.2087418917	-0.4849730794	 0.1259072457	 0.128313
H	-1.1463331123	-1.0011184571	-1.1871492296	 0.121903
H	-2.0318324866	-3.7471955785	 1.4583436949	 0.144353
H	-3.1033829133	-2.5498368984	 0.7244221836	 0.126288
48.0519	58.5553	69.4817	133.8671	200.7375	201.9145	318.155	347.691	426.7159	514.6116	530.2588	562.6518	615.8155	660.7491	693.1097	775.8742	850.8078	864.7477	900.2427	970.8641	1016.7969	1075.4743	1111.3927	1169.7439	1212.5959	1235.9539	1265.6094	1312.5958	1347.2954	1400.4062	1419.3832	1465.0617	1486.6141	1509.6351	1622.4755	1800.1186	1880.8053	2949.8138	3014.7625	3037.6413	3081.4893	3480.5607	3519.9613	3604.3118	3738.9963
NC(=O)C[NH2+]CC([O-])=O	NC(=O)CNCC(=O)O	
InChI=1S/C4H8N2O3/c5-3(7)1-6-2-4(8)9/h6H,1-2H2,(H2,5,7)(H,8,9)	InChI=1S/C4H8N2O3/c5-3(7)1-6-2-4(8)9/h6H,1-2H2,(H2,5,7)(H,8,9)
