19
gdb 133857	3.60121	1.65672	1.41282	1.5261	85.67	-0.2014	-0.0515	0.1498	971.536	0.158963	-348.60836	-348.601028	-348.600084	-348.639441	30.453	
C	 5.3702138268	 5.9262994611	-2.4107222797	-0.418847
C	 4.7982070507	 4.7934592265	-3.2350912376	-0.108048
C	 3.3872393464	 4.1938179122	-3.113858888	-0.095543
C	 4.1282278313	 3.3162907071	-1.3355396089	-0.096434
C	 3.0124213746	 2.3483663588	-1.633721534	-0.027288
C	 3.4099355207	 1.4782010536	-2.5917598524	-0.070423
C	 4.7713441586	 1.9128601859	-3.1786465757	-0.344975
C	 4.6844554889	 3.3950485898	-2.7404566674	 0.246948
C	 2.7965462155	 3.8751425082	-1.7369574331	-0.124985
H	 5.0052729679	 6.8921738106	-2.7757535001	 0.117954
H	 6.4644464895	 5.9358123663	-2.4684685629	 0.118267
H	 5.0896006842	 5.8325393693	-1.3588402406	 0.126856
H	 5.0309240376	 4.8753507092	-4.2980118752	 0.091364
H	 2.8445825414	 4.0297617185	-4.0405300505	 0.081495
H	 4.6270692189	 3.3407878156	-0.3738592592	 0.083527
H	 2.763641441	 0.7931608743	-3.1358708154	 0.100044
H	 4.7738706282	 1.7402671452	-4.2616130811	 0.110143
H	 5.6614241029	 1.4169820409	-2.768117947	 0.116114
H	 2.071903395	 4.4474505868	-1.1679911112	 0.09383
189.4457	205.9035	211.324	306.2409	326.5207	395.9492	504.8999	561.7629	630.9614	662.3954	713.6328	733.4168	779.5113	835.196	844.8926	857.3736	906.4747	928.068	938.0484	970.8909	982.9186	1006.4862	1036.203	1075.5216	1082.5481	1103.5354	1123.4539	1136.6129	1174.7522	1225.9128	1230.6016	1241.5262	1291.3893	1307.7739	1331.5888	1408.3258	1440.211	1457.4977	1494.6214	1496.4703	1560.555	3012.9869	3033.1184	3064.7914	3094.1067	3098.1247	3123.595	3146.5801	3148.6706	3161.9777	3181.5274
CC1C2C3C4=CCC13C24	C[C@@H]1[C@H]2[C@@]31[C@@H]1[C]([CH]C3)[C@H]21	
InChI=1S/C9H10/c1-4-6-7-5-2-3-9(4,7)8(5)6/h2,4,6-8H,3H2,1H3	InChI=1S/C9H10/c1-4-7-6-5-2-3-9(4,7)8(5)6/h2,4,6-8H,3H2,1H3/t4-,6-,7-,8-,9-/m1/s1
