15
gdb 125642	3.52447	1.58571	1.10113	2.0277	72.68	-0.2227	0.0066	0.2293	1033.6961	0.115913	-413.00159	-412.994063	-412.993119	-413.033465	28.023	
C	-0.0166778823	 1.5105244338	-0.0957062225	-0.499007
C	 0.0041360401	 0.02154186	 0.0261912754	 0.193617
N	-0.0059128939	-0.7404152783	-1.0584646401	-0.278107
N	 0.0182267496	-2.0501779661	-0.6276759403	-0.372746
C	 0.0437983424	-2.0919995982	 0.7218007936	 0.50708
C	 0.0363455277	-0.7863402869	 1.2050998455	 0.132656
C	 0.0612078171	-0.9542082964	 2.6174740528	-0.168436
N	 0.0823128131	-2.2344074865	 2.9545435662	-0.214754
N	 0.0713163755	-2.9406357361	 1.7726520721	-0.367203
H	 0.8690503905	 1.9587058437	 0.3681769122	 0.131082
H	-0.0412416118	 1.7973999625	-1.1487160126	 0.143036
H	-0.8939255197	 1.936960862	 0.4034343402	 0.131024
H	 0.016003673	-2.7866755079	-1.3088771033	 0.272437
H	 0.0654798081	-0.2092666592	 3.39944571	 0.116196
H	 0.0835260507	-3.9436208464	 1.8061843508	 0.273126
128.4432	187.0008	206.7638	253.6749	256.7761	304.6543	426.1221	521.8652	617.9364	655.3463	660.8044	694.3765	761.4339	836.2721	877.5054	969.9414	996.0792	1045.1161	1064.3193	1087.8518	1136.76	1231.9282	1290.5024	1327.774	1390.541	1413.4779	1437.7463	1468.5369	1481.5757	1503.2207	1510.635	1575.7621	1652.0655	3034.4085	3085.1577	3136.2114	3246.4251	3699.9177	3704.8563
CC1=NNC2=C1C=NN2	Cc1n[nH]c2c1cn[nH]2	
InChI=1S/C5H6N4/c1-3-4-2-6-8-5(4)9-7-3/h2H,1H3,(H2,6,7,8,9)	InChI=1S/C5H6N4/c1-3-4-2-6-8-5(4)9-7-3/h2H,1H3,(H2,6,7,8,9)
