22
gdb 103150	2.10712	1.46951	1.11248	2.4833	83.03	-0.22	-0.0192	0.2007	1233.9046	0.191359	-404.348858	-404.338602	-404.337658	-404.383569	37.983	
C	-0.242993749	 1.497646122	 0.1032720073	-0.398154
C	 0.105385241	 0.0060902664	 0.0306635692	-0.206103
C	 0.7860234641	-0.4327657908	-1.273202228	 0.180979
C	 2.1094262084	 0.2993088637	-1.5389879681	-0.445841
N	 0.8276243295	-1.9276644316	-1.4156573664	-0.105442
C	 2.0492878124	-2.6720487218	-1.207214223	-0.333577
C	 0.226334101	-1.9199386687	-2.7602503079	-0.292987
C	-0.1065789417	-0.4405983665	-2.5334312421	 0.372373
O	-0.7844069792	 0.3733760601	-3.088225185	-0.304279
H	 0.6513388164	 2.1273590783	 0.1349132787	 0.114701
H	-0.8385458765	 1.8013394671	-0.7624641844	 0.144097
H	-0.8232131606	 1.7090097921	 1.0064765013	 0.113939
H	 0.7618728425	-0.2718384024	 0.8666732232	 0.094037
H	-0.8028315018	-0.5950321573	 0.1450868321	 0.103699
H	 2.8061966519	 0.1576523364	-0.7055944012	 0.121008
H	 2.5953223242	-0.0561696463	-2.4527046778	 0.120344
H	 1.9331836906	 1.3713821995	-1.655128332	 0.139812
H	 2.4246314059	-2.4991025784	-0.1935879071	 0.123901
H	 1.8403824287	-3.743222738	-1.3005092927	 0.12546
H	 2.8577567584	-2.4267889358	-1.9198711074	 0.094603
H	 0.9411776679	-2.048055927	-3.5926275832	 0.109939
H	-0.6112798841	-2.6100382108	-2.9122073054	 0.127489
90.0316	102.7773	140.7585	208.5943	225.2127	227.3948	239.4665	271.9137	297.8498	302.3096	405.833	421.8461	529.8078	575.6519	613.5414	683.3534	767.3385	812.4569	901.2202	949.2924	957.112	1002.7033	1018.0299	1052.1276	1067.5769	1112.9814	1139.2043	1160.676	1190.1101	1198.6124	1242.9862	1256.418	1299.6161	1323.486	1353.4675	1396.717	1414.1253	1452.0694	1476.053	1481.0443	1488.0863	1495.6677	1497.0496	1505.8693	1510.3677	1514.2461	1904.5903	2938.231	2950.5004	3016.1603	3037.0671	3042.6994	3055.1226	3057.2352	3067.5832	3098.3351	3104.0711	3107.5471	3120.1683	3124.5755
CCC1(C)N(C)CC1=O	CC[C@@]1(C)N(C)CC1=O	
InChI=1S/C7H13NO/c1-4-7(2)6(9)5-8(7)3/h4-5H2,1-3H3	InChI=1S/C7H13NO/c1-4-7(2)6(9)5-8(7)3/h4-5H2,1-3H3/t7-/m1/s1
