23
gdb 118475	2.13199	1.05411	0.78629	2.6514	78.8	-0.2483	0.067	0.3153	1549.659	0.203253	-462.554794	-462.54363	-462.542685	-462.591895	40.13	
C	-0.5671642657	 1.4803720862	 1.1595422943	-0.384482
C	-0.5921804074	-0.035972941	 1.2552472824	-0.042218
O	-1.1575603623	-0.5489126284	 0.0598908657	-0.269859
C	-1.2452270153	-1.9723350941	-0.0146071219	 0.067993
C	-2.5422832321	-2.4554697345	 0.6335680722	-0.097756
O	-3.6788877817	-2.0309356837	-0.11286749	-0.430594
C	-1.1852481071	-2.3111709862	-1.5269929615	 0.14108
C	 0.2483293819	-2.4126052447	-2.0262690135	-0.393768
O	-1.8412126721	-3.532827845	-1.8257587638	-0.443356
H	-0.1208821581	 1.9113700491	 2.0605934924	 0.118251
H	 0.0184301058	 1.7999384847	 0.2930210101	 0.129225
H	-1.5810269905	 1.8768402014	 1.0521791336	 0.123464
H	 0.4272244245	-0.4337492364	 1.3838001411	 0.093866
H	-1.1746010551	-0.3524768247	 2.1345090185	 0.091159
H	-0.392342174	-2.4311156942	 0.5102764269	 0.065842
H	-2.5648890935	-3.5477132062	 0.646226551	 0.123439
H	-2.6000185511	-2.1045848982	 1.6744502965	 0.093828
H	-3.5730039592	-1.0802394251	-0.2413124886	 0.290945
H	-1.6815367894	-1.4747258116	-2.0402834578	 0.071012
H	 0.7511546874	-3.2687997531	-1.564420275	 0.118683
H	 0.2681359446	-2.5501788429	-3.1104177492	 0.1209
H	 0.7999647047	-1.5017957765	-1.7766626808	 0.11928
H	-2.7814161145	-3.3728072451	-1.6737564426	 0.293065
44.866	62.2612	91.4703	118.0111	171.4305	206.1786	247.2064	254.1513	295.3772	336.164	353.4114	394.3561	462.8504	473.3885	550.4851	611.0334	686.9371	818.171	842.8703	859.4743	919.1171	948.0313	992.9578	1055.3329	1060.8004	1084.9408	1109.1179	1133.3332	1162.8925	1177.7114	1187.7143	1218.1328	1286.3728	1296.9856	1309.8269	1339.7793	1371.283	1393.0373	1398.0547	1403.6146	1423.3132	1435.4695	1447.2992	1482.9029	1487.775	1498.6665	1499.2571	1503.1871	1529.5333	2969.8596	2980.5947	2995.6377	2997.5938	3007.7138	3040.7516	3044.9279	3105.6117	3113.4145	3118.8646	3122.6047	3124.852	3772.7114	3785.9161
CCOC(CO)C(C)O	CCO[C@@H](CO)[C@@H](C)O	
InChI=1S/C6H14O3/c1-3-9-6(4-7)5(2)8/h5-8H,3-4H2,1-2H3	InChI=1S/C6H14O3/c1-3-9-6(4-7)5(2)8/h5-8H,3-4H2,1-2H3/t5-,6+/m1/s1
