18
gdb 77960	3.33484	1.20321	0.99506	3.186	77.17	-0.2735	0.0248	0.2983	1191.1182	0.147626	-401.903735	-401.89516	-401.894216	-401.936935	32.269	
C	-0.2338092381	 1.6238220697	-0.0033375629	-0.48588
C	 0.0043470358	 0.1141177061	 0.0492049191	 0.033963
C	 1.1407214661	-0.5774418533	-0.7752198197	-0.11755
C	 2.179130534	-0.1479735269	 0.3289326927	 0.173044
O	 2.6934766379	 1.1435710249	 0.4453534975	-0.448268
C	 0.9143627866	-0.6091612231	 1.110614067	-0.13392
C	 0.9281208945	-1.8361197563	 0.1334509334	-0.140666
C	-0.278885022	-2.6267975255	-0.0250638369	 0.27603
N	-1.2212188719	-3.2858844571	-0.1490027059	-0.340057
H	 0.6281865373	 2.198104224	-0.3492875004	 0.132273
H	-1.0452433582	 1.8387683471	-0.7056435476	 0.134272
H	-0.5494915104	 2.0121116224	 0.9720511836	 0.127154
H	-0.9615915442	-0.388018365	-0.0529478722	 0.1073
H	 1.270897524	-0.5914124118	-1.8575040542	 0.092589
H	 3.0411041571	-0.8185857187	 0.4000160487	 0.088436
H	 2.0213573966	 1.7354049904	 0.7899808503	 0.293272
H	 0.7744954977	-0.6619849087	 2.1916890392	 0.089697
H	 1.7929633073	-2.4973627381	 0.2307555685	 0.118311
90.0751	142.6908	147.173	181.864	254.8338	343.7599	363.8929	380.9963	443.3436	494.8451	562.6074	678.5158	731.312	790.6915	799.1795	850.7282	903.3028	931.5755	1011.3363	1021.3309	1051.3375	1062.888	1096.839	1104.8638	1129.8081	1145.1234	1183.3972	1210.6664	1221.0145	1239.2131	1287.9462	1307.7198	1375.0606	1411.3223	1436.7105	1482.6302	1498.296	1525.9269	2351.9104	3036.0342	3061.602	3064.8639	3082.0756	3095.9248	3105.1777	3119.4465	3120.9393	3867.6844
CC1C2C(O)C1C2C#N	C[C@H]1[C@H]2[C@@H](O)[C@@H]1[C@H]2C#N	
InChI=1S/C7H9NO/c1-3-5-4(2-8)6(3)7(5)9/h3-7,9H,1H3	InChI=1S/C7H9NO/c1-3-5-4(2-8)6(3)7(5)9/h3-7,9H,1H3/t3-,4-,5+,6-,7+
