16
gdb 42077	2.78977	1.71011	1.17616	2.0154	72.2	-0.2483	-0.0074	0.2409	1018.2053	0.125302	-437.825901	-437.818185	-437.817241	-437.857952	29.054	
C	 0.1002831472	 1.5380156456	-0.1646617949	 0.012767
O	 1.4104148282	 1.9773704447	 0.0244052842	-0.218338
C	 1.9771055606	 1.7533205131	 1.328379227	-0.211253
C	 2.2261189227	 0.322996475	 1.5098248639	 0.005929
C	 2.091740878	-0.8479005789	 1.2599708907	 0.111559
C	 1.6308155348	-2.0541876508	 0.5710184644	-0.281309
N	 1.1413488395	-1.7188535833	-0.7830542488	-0.239441
C	 0.4559129404	-0.6803449163	-0.9866055937	 0.140581
O	-0.0742419159	 0.132571717	-0.0276891046	-0.205226
H	-0.5850541169	 1.9643125427	 0.5789898503	 0.110077
H	-0.1713197716	 1.863261537	-1.1773852393	 0.115348
H	 2.8896587795	 2.3552748926	 1.3482878116	 0.140621
H	 1.3009770165	 2.1423105544	 2.1048031572	 0.12245
H	 2.4304654909	-2.7906155271	 0.4483028226	 0.1384
H	 0.8345111143	-2.5493410411	 1.1427062711	 0.143483
H	 0.1912733016	-0.3987309447	-2.0105459616	 0.114352
118.523	174.9797	226.1314	239.6829	314.198	336.017	377.155	452.5285	468.9402	556.5804	645.8398	724.0315	811.7304	895.469	900.3058	941.5655	996.5689	1006.6586	1021.0658	1057.4908	1134.6026	1139.813	1180.7123	1236.7015	1274.2393	1330.44	1339.4151	1381.1168	1397.7845	1443.9214	1476.9082	1478.4365	1496.1992	1742.9374	2338.5919	2994.5675	3011.056	3024.1977	3067.5281	3072.4093	3086.8508	3087.5207
C1OCC#CCN=CO1	C1OC[C][C]CN=CO1	
InChI=1S/C6H7NO2/c1-2-4-8-6-9-5-7-3-1/h5H,3-4,6H2/b7-5-	InChI=1S/C6H7NO2/c1-2-4-8-6-9-5-7-3-1/h5H,3-4,6H2/b7-5-
