21
gdb 40558	3.75645	1.03083	0.88368	1.394	85.6	-0.2295	0.0243	0.2539	1368.6622	0.184182	-387.083945	-387.075599	-387.074655	-387.117327	32.284	
C	 0.9813717043	 1.3725100834	 0.2548452997	-0.250963
C	 0.886430862	 0.247193881	-0.7429939224	-0.277338
C	-0.2318855455	 0.4584421378	 0.2425157281	-0.07985
C	-0.4951791161	-0.4577527219	 1.3861128655	 0.293019
C	-0.0785945476	-1.7241524835	 1.4467762638	-0.176134
C	-0.305106563	-2.6036363134	 2.6456877676	-0.116031
O	-0.7901777764	-1.9079931084	 3.7771133811	-0.245514
C	-1.8197076676	-0.9946348961	 3.4414140265	-0.085172
C	-1.2914320233	 0.11993312	 2.5370889182	-0.293242
H	 1.6839549586	 1.2543991888	 1.0726557234	 0.116459
H	 0.8617462651	 2.3926411942	-0.0931825289	 0.11025
H	 0.69900599	 0.4917224095	-1.7826165037	 0.111334
H	 1.5443136073	-0.6022471806	-0.6003192127	 0.114453
H	-1.1305974987	 0.9214306842	-0.1620657204	 0.085709
H	 0.4478780543	-2.1792072976	 0.6121342763	 0.083502
H	-0.9915292145	-3.4295777285	 2.377152238	 0.092772
H	 0.6364482935	-3.0716161266	 2.959334377	 0.114124
H	-2.6482369038	-1.5207407842	 2.9379973619	 0.086165
H	-2.1983320894	-0.5974636477	 4.3875232186	 0.104336
H	-0.6674163492	 0.8152737472	 3.1145960809	 0.114853
H	-2.1324323001	 0.7126347026	 2.1523616815	 0.097268
61.7266	101.2751	192.1518	202.6076	293.5317	322.1429	389.9166	460.8899	495.7167	578.9593	676.579	777.7409	791.894	825.0842	846.4521	861.7889	905.4206	912.1786	961.5599	991.5553	1023.6202	1036.7961	1057.2695	1072.5418	1086.231	1103.4254	1132.978	1163.2569	1168.8435	1198.4983	1224.2396	1240.1133	1259.7517	1302.3763	1322.0572	1368.7092	1376.9479	1413.9547	1422.4423	1464.9942	1468.666	1488.7855	1501.2079	1502.8934	1737.6073	2920.3586	2965.4338	3012.4355	3040.0293	3043.7306	3085.2446	3113.564	3132.7802	3141.0019	3162.4212	3213.7194	3228.5149
C1CC1C1=CCOCC1	C1CC1C1=CCOCC1	
InChI=1S/C8H12O/c1-2-7(1)8-3-5-9-6-4-8/h3,7H,1-2,4-6H2	InChI=1S/C8H12O/c1-2-7(1)8-3-5-9-6-4-8/h3,7H,1-2,4-6H2
