23
gdb 122522	4.29805	0.55782	0.54189	2.0991	83.53	-0.2611	0.0799	0.341	2146.1025	0.203873	-425.408822	-425.397993	-425.397049	-425.446222	38.327	
C	-0.466489179	 1.4924423639	 0.3960004346	-0.38053
C	 0.0751725403	 0.1085725245	 0.0283249713	-0.167767
C	 0.7379382966	-0.6087913369	 1.2085177152	-0.152797
C	 1.281362189	-1.9985305831	 0.8466523534	-0.235118
C	 1.9318303786	-2.6736157399	 2.030715445	 0.064497
O	 1.070522046	-3.2067405039	 3.0470273131	-0.274341
C	 1.918934091	-4.1167969231	 2.3235443397	 0.027471
C	 1.1966165302	-5.1690697716	 1.519748979	-0.084895
O	 0.6026823914	-6.132406689	 2.3752207678	-0.419237
H	 0.3345450111	 2.1492781623	 0.7531071332	 0.114077
H	-0.9369040547	 1.9790289573	-0.4640600615	 0.112131
H	-1.2162073443	 1.424791063	 1.1920172967	 0.116323
H	-0.741962126	-0.5137994259	-0.3601027437	 0.096391
H	 0.7991359166	 0.2031190434	-0.7921876951	 0.093688
H	 1.5563164934	 0.0117671343	 1.599591951	 0.092716
H	 0.0168114738	-0.7150122152	 2.0288338307	 0.11182
H	 0.4679948025	-2.618352663	 0.4574501444	 0.104148
H	 2.0267484472	-1.9084893899	 0.0444692808	 0.100566
H	 2.7767315074	-2.1150105198	 2.4429269757	 0.087729
H	 2.737898224	-4.5148013518	 2.92627091	 0.095274
H	 0.4502913447	-4.7081537307	 0.8591986384	 0.093139
H	 1.9106367246	-5.7141314918	 0.8923970115	 0.111873
H	 0.0286621154	-5.646712443	 2.9786384987	 0.292841
41.6063	67.1313	79.215	100.9957	132.8817	180.6177	241.1302	249.6678	287.9041	385.0796	414.3295	460.4119	491.6343	579.5358	734.0076	763.948	809.9664	841.3724	902.574	912.2354	951.0509	1004.1849	1030.4294	1060.9841	1067.7768	1070.6347	1117.571	1127.3606	1169.0475	1183.7586	1230.1613	1244.7645	1274.1473	1303.3698	1316.0425	1332.2055	1350.166	1363.2894	1397.7736	1402.3872	1415.258	1434.4367	1469.6456	1486.499	1492.6714	1496.7576	1499.3037	1499.6287	1512.5394	3008.5606	3012.9453	3015.6481	3021.8705	3030.4859	3036.9785	3058.6452	3065.9574	3072.2136	3088.1035	3096.9116	3099.1519	3102.5602	3799.8244
CCCCC1OC1CO	CCCC[C@H]1O[C@H]1CO	
InChI=1S/C7H14O2/c1-2-3-4-6-7(5-8)9-6/h6-8H,2-5H2,1H3	InChI=1S/C7H14O2/c1-2-3-4-6-7(5-8)9-6/h6-8H,2-5H2,1H3/t6-,7+/m1/s1
