16
gdb 51998	4.44317	0.64557	0.59282	2.3041	69.22	-0.2599	-0.0549	0.2049	1776.2005	0.120978	-475.070651	-475.060876	-475.059932	-475.108174	32.406	
O	 0.5402481582	-0.2204238789	-0.2828116088	-0.222055
C	 0.2595897414	 0.9427084023	-0.3756438175	 0.163622
C	 1.2191613066	 2.0731968066	-0.0095182089	-0.383195
C	 1.1697811457	 3.1888694256	-1.0408218851	 0.355765
O	 0.1199343652	 3.6903029997	-1.3783248871	-0.313405
C	 2.4925358893	 3.617259218	-1.644551969	-0.233911
N	 2.2872337915	 4.6774026445	-2.5933744731	-0.284055
C	 3.3221824343	 5.3737152964	-3.1273002994	 0.156122
O	 4.4909752895	 5.144620362	-2.8962053888	-0.323696
H	-0.7301097639	 1.2918229201	-0.734285962	 0.114577
H	 0.8567884486	 2.4994202443	 0.9362541549	 0.168189
H	 2.2216961236	 1.6708009627	 0.1485770312	 0.141031
H	 3.1775067193	 3.9270417968	-0.8426074694	 0.157482
H	 2.9661949677	 2.7351693804	-2.1029819448	 0.154001
H	 1.3270395452	 4.9374615629	-2.7691617826	 0.265257
H	 2.9783451878	 6.1786159265	-3.8052470595	 0.084272
19.5304	37.2366	89.2941	107.2719	151.0423	212.5044	277.6167	307.7297	360.674	463.3157	505.434	567.549	644.9065	740.7742	820.226	896.2016	925.7485	1000.5344	1036.1683	1061.8098	1071.8165	1116.213	1188.7105	1225.2118	1241.9518	1288.5944	1365.0294	1407.2019	1423.4082	1441.8817	1473.079	1516.9295	1788.017	1805.5822	1845.1577	2934.4081	2950.7583	3000.4897	3030.1788	3032.4561	3124.5966	3605.9749
O=CCC(=O)CNC=O	O=CCC(=O)CNC=O	
InChI=1S/C5H7NO3/c7-2-1-5(9)3-6-4-8/h2,4H,1,3H2,(H,6,8)	InChI=1S/C5H7NO3/c7-2-1-5(9)3-6-4-8/h2,4H,1,3H2,(H,6,8)
