17
gdb 86493	2.61718	1.31764	1.0382	3.4185	69.55	-0.2493	-0.0506	0.1988	1177.6819	0.132053	-458.96071	-458.951319	-458.950375	-458.995854	32.672	
C	-0.6837756436	 1.2407348504	 0.3222289492	-0.40086
C	 0.0119276298	-0.0593904649	-0.0170575978	 0.153643
C	 0.8636616048	-0.1147344751	-1.3060612472	-0.360252
C	 2.0580685664	-0.3192770958	-0.349168156	 0.236185
O	 1.197271674	-0.2879052871	 0.8122116087	-0.342921
C	 2.7697980658	-1.6547176104	-0.4706274367	 0.106033
O	 3.8911173321	-1.7781598503	-0.8891656276	-0.236337
C	 3.0539174572	 0.8375313564	-0.2698187682	 0.132852
O	 3.0905412443	 1.7480192263	-1.0528099933	-0.242599
H	-0.0071733779	 2.0908111463	 0.1944947956	 0.1352
H	-1.5518919122	 1.3849891128	-0.3302388033	 0.124836
H	-1.0336145691	 1.2267712491	 1.3590125574	 0.133779
H	-0.6748839388	-0.9066616828	 0.0932748776	 0.089921
H	 0.6501398226	-0.94774928	-1.9771917444	 0.121958
H	 0.937142538	 0.8132093257	-1.8742829195	 0.148553
H	 2.1546005835	-2.5182483317	-0.1323538483	 0.094229
H	 3.7183746133	 0.7935352009	 0.6177141738	 0.10578
52.1922	75.6503	82.7491	189.0818	218.2775	234.2722	278.5498	312.1087	366.8177	407.5088	510.767	588.8441	718.1431	782.8374	880.5987	892.6809	900.1689	959.8294	972.0833	1002.0563	1052.8358	1095.0262	1109.1603	1188.5067	1193.4392	1252.7119	1256.0986	1306.9134	1383.8872	1396.0269	1411.4388	1414.7234	1482.6483	1487.2851	1494.3645	1818.2458	1840.8933	2891.0055	2925.6151	3035.0065	3037.6838	3087.3117	3109.2847	3120.4895	3148.5563
CC1CC(O1)(C=O)C=O	C[C@H]1CC(O1)(C=O)C=O	
InChI=1S/C6H8O3/c1-5-2-6(3-7,4-8)9-5/h3-5H,2H2,1H3	InChI=1S/C6H8O3/c1-5-2-6(3-7,4-8)9-5/h3-5H,2H2,1H3/t5-/m0/s1
