21
gdb 119929	2.4231	0.99737	0.87541	3.2391	84.3	-0.2452	0.0162	0.2614	1461.3567	0.181094	-383.2626	-383.252366	-383.251422	-383.298293	36.633	
C	-0.2565060232	 1.5477255694	 1.1613278271	-0.382582
C	-0.5439251721	 0.0442045085	 1.163370345	-0.174358
C	-1.2355894595	-0.4156640717	-0.1208685403	-0.129216
N	-1.4243176223	-1.8677337621	-0.1013918758	-0.099254
C	-2.6485709067	-2.465836971	 0.4106752984	 0.005783
C	-3.8175615533	-1.6819245473	 0.964403533	-0.429113
C	-2.3355494844	-2.4963882486	-1.0661889365	-0.184039
C	-3.124617458	-1.6916241955	-1.9665656348	 0.293296
N	-3.7407590197	-1.0462618943	-2.703722568	-0.346612
H	 0.238470392	 1.8551832731	 2.087043159	 0.117305
H	 0.3960586711	 1.8261528401	 0.3266249584	 0.119817
H	-1.1792036243	 2.1308316688	 1.0676492871	 0.118924
H	 0.3861109372	-0.5227789065	 1.2818766844	 0.111659
H	-1.1730276997	-0.2119906488	 2.0250716263	 0.099135
H	-2.1698314811	 0.1453736103	-0.2675049376	 0.106558
H	-0.5996736674	-0.1912526244	-0.9852551615	 0.115443
H	-2.4622795356	-3.402441754	 0.9351740263	 0.106664
H	-4.0830459278	-0.8209783463	 0.3487172682	 0.149551
H	-4.6965814974	-2.3314684835	 1.0210953346	 0.135708
H	-3.5976929264	-1.3315672917	 1.9780361066	 0.132054
H	-1.962044851	-3.4105118046	-1.5212851698	 0.133277
74.2889	85.1988	89.6594	142.8619	169.8587	212.1248	234.8813	270.1469	351.9806	371.4604	389.1554	501.777	599.1383	638.6377	748.7584	754.118	786.3946	864.1601	895.291	915.8772	973.1842	1033.388	1040.2264	1052.1451	1113.7478	1137.2162	1144.9132	1168.7225	1192.708	1274.3888	1320.2287	1329.1012	1333.2776	1360.3573	1394.5064	1411.7586	1417.4987	1420.748	1484.2989	1491.4478	1496.8261	1499.8565	1503.6186	1516.958	2344.7189	3000.9975	3029.5425	3033.2852	3045.8344	3054.116	3073.2295	3101.3602	3105.9995	3107.9299	3108.7102	3136.9202	3141.624
CCCN1C(C)C1C#N	CCCN1[C@@H](C)[C@H]1C#N	
InChI=1S/C7H12N2/c1-3-4-9-6(2)7(9)5-8/h6-7H,3-4H2,1-2H3	InChI=1S/C7H12N2/c1-3-4-9-6(2)7(9)5-8/h6-7H,3-4H2,1-2H3/t6-,7+,9?/m0/s1
