23
gdb 65025	2.3956	1.47253	1.29098	1.5858	84.51	-0.2429	0.0833	0.3262	1151.7021	0.204619	-388.271203	-388.261676	-388.260732	-388.305107	36.964	
C	 0.0901712094	 1.4527908532	 0.445775097	-0.477518
C	-0.0319319649	-0.0040755198	 0.0352795393	 0.330361
C	 0.846825749	-0.4859514568	-1.0937859263	-0.315254
C	 1.1290613328	-0.9228339163	 0.3253125213	-0.307189
C	-1.435374737	-0.5909903195	 0.1495144748	 0.363531
C	-1.9684522182	-0.5669247868	 1.5780060305	-0.442674
C	-2.4438112629	-0.1224917547	-0.9385573873	-0.323618
C	-2.450537287	-1.5965767723	-1.3767304474	-0.072372
O	-1.4821391329	-1.9552054711	-0.3703196837	-0.323051
H	 1.1011344627	 1.822972523	 0.251041106	 0.115435
H	-0.60609602	 2.0876513713	-0.1156871591	 0.114266
H	-0.1120920508	 1.5981178372	 1.5120856647	 0.118716
H	 0.4525864784	-1.2409202683	-1.7631230469	 0.119293
H	 1.5141676595	 0.2334328426	-1.5568108515	 0.09992
H	 1.9924485029	-0.5103662765	 0.8369629712	 0.102549
H	 0.9043597086	-1.9551269268	 0.5680046082	 0.125996
H	-2.0882440797	 0.4579770007	 1.9424730405	 0.116374
H	-2.9427553927	-1.061584773	 1.6246812454	 0.114286
H	-1.283396385	-1.0940992566	 2.2492140421	 0.125223
H	-3.3918734109	 0.2662363799	-0.5627237198	 0.104209
H	-2.0287858463	 0.5737557151	-1.6689452951	 0.109999
H	-3.3980430228	-2.1311018911	-1.2356051825	 0.100479
H	-2.0811734725	-1.7971309635	-2.3896782513	 0.101039
78.4867	91.8081	194.4208	220.8118	235.1174	269.7723	292.5516	329.2373	354.7966	405.2523	479.2398	490.3052	576.2649	780.2426	790.7905	794.1455	865.1684	879.5304	891.5779	933.6347	939.4431	954.2484	963.4209	999.1089	1028.1178	1042.0161	1064.498	1088.6967	1123.9699	1131.2208	1163.9524	1190.753	1196.6559	1208.185	1235.8277	1264.3864	1316.6647	1351.2925	1358.4036	1403.2527	1418.7531	1454.4092	1481.7081	1487.1036	1491.0451	1494.9462	1499.9759	1509.7716	1530.1131	3014.5455	3025.2505	3039.0952	3052.5211	3076.9256	3085.8356	3101.6672	3113.9387	3114.4629	3131.2529	3133.0842	3136.2531	3216.9692	3230.4892
CC1(CC1)C1(C)CCO1	CC1(CC1)[C@@]1(C)CCO1	
InChI=1S/C8H14O/c1-7(3-4-7)8(2)5-6-9-8/h3-6H2,1-2H3	InChI=1S/C8H14O/c1-7(3-4-7)8(2)5-6-9-8/h3-6H2,1-2H3/t8-/m1/s1
