14
gdb 7945	3.74785	1.80108	1.26095	1.5514	60.59	-0.2632	-0.0168	0.2464	899.2344	0.108658	-415.912278	-415.905193	-415.904248	-415.943828	26.445	
O	 0.1431105895	 1.3178421375	 0.3524623205	-0.432923
C	-0.0227429542	-0.0380903626	 0.0276155696	 0.033675
C	-1.4893328829	-0.4384940785	-0.1716154366	-0.296824
C	-1.4695215541	-1.3975678001	-1.3510383355	 0.384144
N	-2.4220638975	-2.1652165753	-1.6756254932	-0.521172
N	-0.2243552925	-1.229266205	-1.9784111053	-0.360785
C	 0.6295803666	-0.3709018202	-1.3197451413	 0.382694
O	 1.6879646817	 0.0556538604	-1.7164053383	-0.36762
H	 1.0187355379	 1.5689384266	 0.0274635361	 0.297799
H	 0.4520567012	-0.6898207181	 0.7810302864	 0.10442
H	-1.9634322819	-0.8945124744	 0.6968643587	 0.143168
H	-2.0618902775	 0.4537403653	-0.4460273022	 0.154279
H	-2.2075250949	-2.7169239304	-2.5081907069	 0.214587
H	 0.0135211786	-1.6411913653	-2.8696476719	 0.264558
85.1988	136.9662	244.6029	346.6304	393.5289	416.5038	520.0313	545.7835	606.8223	611.6469	633.8878	738.2953	824.8142	882.9253	890.6203	983.5126	1032.8579	1096.5468	1133.0168	1178.821	1231.6049	1257.8046	1280.4466	1352.4121	1370.6633	1384.0832	1422.0966	1470.6516	1770.7809	1850.7632	2958.5973	3069.215	3144.3738	3458.7282	3613.0632	3757.172
OC1CC(=N)NC1=O	O[C@H]1C[C]([NH])NC1=O	
InChI=1S/C4H6N2O2/c5-3-1-2(7)4(8)6-3/h2,7H,1H2,(H2,5,6,8)	InChI=1S/C4H6N2O2/c5-3-1-2(7)4(8)6-3/h2,7H,1H2,(H2,5,6,8)/t2-/m0/s1
