22
gdb 122843	6.76391	0.49253	0.4738	4.1048	82.32	-0.2438	0.0362	0.28	2352.2601	0.191842	-441.51011	-441.498565	-441.497621	-441.549137	38.534	
C	 0.0055883605	 1.447089531	 0.178579524	-0.333103
N	-0.1531911445	 0.0091225026	 0.2699646583	-0.313532
C	-1.1740769938	-0.6596366055	-0.34260131	 0.418576
O	-2.0378574841	-0.0985145863	-0.9937038228	-0.374573
C	-1.1400149227	-2.1781641453	-0.1728493242	-0.322433
C	-2.5454423412	-2.763650775	-0.0094038293	-0.183366
C	-2.5477015814	-4.2850781859	-0.0452628006	-0.052469
O	-3.8709083642	-4.7362923902	 0.1374503035	-0.228733
C	-3.9812651409	-6.137480706	 0.1126665822	-0.226536
H	 0.9505265231	 1.7167924427	-0.3068330102	 0.123761
H	-0.8234190841	 1.824935943	-0.4208083869	 0.172749
H	-0.0253008254	 1.9160022868	 1.1684521394	 0.124263
H	 0.52151943	-0.5198601886	 0.796122918	 0.243045
H	-0.6727493606	-2.5875747675	-1.0792153618	 0.127828
H	-0.4947375113	-2.4644814471	 0.6667190339	 0.091148
H	-2.9844073021	-2.4315707253	 0.9381378409	 0.109133
H	-3.1839577457	-2.3738328463	-0.8062321676	 0.13846
H	-2.1471909061	-4.6463975321	-1.009801066	 0.081803
H	-1.8916898466	-4.695896023	 0.7440380288	 0.076182
H	-3.650507624	-6.558507497	-0.8506437321	 0.101639
H	-3.3876340341	-6.6104902546	 0.9120123559	 0.099627
H	-5.0346632907	-6.3869217605	 0.2623360066	 0.12653
25.8929	51.3255	82.3625	86.1159	109.9856	128.2273	160.3554	231.4082	236.5414	271.6542	340.6082	428.3451	444.1414	504.0222	629.3239	721.6983	768.9849	873.3533	897.7827	985.2909	1041.8375	1069.3661	1082.9838	1118.0186	1154.7034	1165.8769	1171.4862	1179.8779	1212.7586	1221.7834	1240.9402	1280.9311	1301.1179	1324.821	1386.7937	1429.3145	1437.7215	1467.0555	1481.8951	1485.2933	1492.457	1498.002	1500.7317	1506.7363	1532.4845	1558.6047	1778.8908	2930.4386	2954.7419	2964.7505	3005.2317	3015.0155	3025.5253	3048.3026	3057.027	3076.5949	3111.5565	3112.7789	3153.7113	3653.2146
CNC(=O)CCCOC	CNC(=O)CCCOC	
InChI=1S/C6H13NO2/c1-7-6(8)4-3-5-9-2/h3-5H2,1-2H3,(H,7,8)	InChI=1S/C6H13NO2/c1-7-6(8)4-3-5-9-2/h3-5H2,1-2H3,(H,7,8)
