16
gdb 126201	1.85234	1.79923	0.9788	4.8488	77.47	-0.2554	-0.0173	0.2381	1180.0771	0.126459	-396.980555	-396.97215	-396.971206	-397.016436	29.881	
C	 0.0284556292	 1.563881947	 0.0765144545	-0.375491
C	-0.0108257729	 0.0243973463	 0.0403056556	-0.31329
C	-1.3986194269	-0.523961579	-0.0502245002	 0.293652
C	-2.2355488747	-0.7361045922	-1.1450337544	 0.022761
C	-3.445880104	-1.2362187821	-0.5944554158	-0.081806
N	-3.3771524072	-1.3305545299	 0.7221452114	-0.214945
N	-2.1326006516	-0.8918875186	 1.0215471839	-0.246985
C	-1.9167524936	-0.4971378828	-2.5011509364	 0.194512
N	-1.6458947458	-0.2971265069	-3.6101010929	-0.354393
H	 1.0619357387	 1.9149479664	 0.1439319943	 0.127383
H	-0.4168944032	 1.9839803894	-0.8291288391	 0.14768
H	-0.5223992517	 1.954188222	 0.9375755944	 0.122776
H	 0.5587600356	-0.3340950475	-0.8227998228	 0.145479
H	 0.4812143599	-0.382886716	 0.9313721733	 0.113376
H	-4.3422849533	-1.5264543356	-1.1207754389	 0.138125
H	-1.8419982185	-0.8815742304	 1.985940173	 0.281166
4.3968	125.8839	153.7936	176.3319	222.1287	333.9898	372.411	529.5618	550.2264	574.1191	596.2616	675.683	692.6424	743.9102	786.9314	897.962	953.261	971.623	1065.4189	1080.516	1126.4326	1172.5518	1231.9178	1263.4183	1337.2424	1354.6078	1375.0988	1410.9206	1450.321	1482.4282	1496.8649	1504.8674	1516.8564	1602.206	2343.5108	3038.9891	3044.2584	3084.1125	3118.1435	3126.7875	3261.1326	3659.2219
CCC1=C(C=NN1)C#N	CCc1c(cn[nH]1)C#N	
InChI=1S/C6H7N3/c1-2-6-5(3-7)4-8-9-6/h4H,2H2,1H3,(H,8,9)	InChI=1S/C6H7N3/c1-2-6-5(3-7)4-8-9-6/h4H,2H2,1H3,(H,8,9)
