20
gdb 100596	3.32309	0.84358	0.73658	5.077	77.96	-0.2437	-0.0171	0.2266	1579.674	0.167794	-440.32368	-440.312805	-440.311861	-440.361594	36.708	
C	 0.0364716501	 1.6055810398	 0.0664173873	-0.378826
C	 0.0443164295	 0.0775712382	-0.022463138	-0.152199
N	 0.7101084494	-0.4245946352	-1.2276671664	-0.087967
C	 2.1409575292	-0.6465388018	-1.1349837483	-0.347574
C	-0.0462959076	-0.5927486122	-2.351724098	 0.427843
O	-1.2427253471	-0.3356714286	-2.370475824	-0.388216
C	 0.6381549142	-1.120685871	-3.6137639888	-0.434334
C	-0.3820101348	-1.3324327269	-4.7222498546	 0.18221
O	-0.2069975655	-0.9755562585	-5.8575452926	-0.246456
H	 1.0506197892	 2.0183741758	 0.0551382075	 0.114093
H	-0.5207389142	 2.0271947399	-0.7737417501	 0.146679
H	-0.4454775258	 1.9276513169	 0.9947949586	 0.120338
H	 0.5574813354	-0.3577945493	 0.8422750335	 0.100083
H	-0.9805488557	-0.29660753	-0.0359088601	 0.142727
H	 2.5633825131	-0.906109665	-2.1038886078	 0.144731
H	 2.6506220036	 0.2579330419	-0.7812573161	 0.135145
H	 2.3687059141	-1.4581945611	-0.4316485722	 0.131242
H	 1.4105130112	-0.4381505776	-3.9805449434	 0.14684
H	 1.1226472866	-2.0870228022	-3.4152328385	 0.140665
H	-1.2988024247	-1.8688412231	-4.4102089678	 0.102977
35.2445	54.8835	66.2324	82.613	121.5182	173.3136	202.8418	244.033	322.1049	362.1393	404.1133	461.1992	516.0514	581.5658	621.6095	758.9719	789.5858	826.8914	913.3472	1018.5161	1032.0903	1057.4622	1092.3597	1105.2022	1152.7464	1156.2371	1206.1238	1259.5851	1284.7034	1342.8499	1393.6985	1411.7251	1423.2036	1435.9266	1444.5453	1471.201	1485.9806	1487.9909	1495.9119	1505.1002	1530.7822	1732.4953	1837.5538	2951.2174	3014.1867	3021.753	3039.9726	3045.1633	3060.6715	3094.8626	3101.8764	3122.3272	3133.864	3164.7108
CCN(C)C(=O)CC=O	CCN(C)C(=O)CC=O	
InChI=1S/C6H11NO2/c1-3-7(2)6(9)4-5-8/h5H,3-4H2,1-2H3	InChI=1S/C6H11NO2/c1-3-7(2)6(9)4-5-8/h5H,3-4H2,1-2H3
