20
gdb 65185	2.58658	1.21275	0.98242	3.1635	80.08	-0.2476	-0.0259	0.2217	1269.9336	0.169555	-403.116471	-403.107237	-403.106293	-403.151355	34.503	
C	 0.3816720641	 1.3888654654	 0.9042849117	-0.449212
C	 0.0317683902	 0.150596295	 0.0980314063	 0.351439
C	 0.791820565	-0.1021491322	-1.1855053096	-0.30944
C	 1.0584873646	-0.9568053947	 0.0270604526	-0.300689
C	-1.4115377522	-0.2804405007	 0.2403079283	-0.106623
N	-2.4553086754	 0.7320993869	 0.1426408191	-0.332465
C	-2.4410895749	-0.3478204953	-0.86133419	-0.125186
C	-2.1736770067	 0.1089301268	-2.2554185758	 0.174636
O	-2.4825164167	-0.5225126208	-3.2357469403	-0.268236
H	 1.441093838	 1.6386743687	 0.7926223498	 0.111353
H	-0.2152093185	 2.2447801496	 0.5772951157	 0.135865
H	 0.1861915804	 1.2337869399	 1.9720755906	 0.110918
H	 0.2790489612	-0.5682635282	-2.0187885136	 0.130896
H	 1.5383201813	 0.6289130977	-1.4779683346	 0.114894
H	 1.9903605583	-0.8229050691	 0.5660958061	 0.111972
H	 0.7009144521	-1.9815675981	 0.003483414	 0.112217
H	-1.5608217686	-1.0461677172	 1.0032588633	 0.097096
H	-3.1914755847	 0.5772886415	 0.8250276603	 0.242978
H	-3.1677722946	-1.1545787089	-0.7964586252	 0.104381
H	-1.6835844731	 1.1029223438	-2.3187566787	 0.093206
24.8069	87.4601	194.1648	220.9558	233.493	285.7411	314.4803	330.8774	357.2461	456.5262	501.9774	555.3646	693.8244	789.1149	819.1284	869.1826	888.2178	922.4004	941.0697	952.2109	965.45	1002.119	1044.3569	1051.812	1072.4309	1092.0774	1113.8329	1132.8405	1191.6256	1196.3717	1219.4068	1229.65	1306.0917	1342.7006	1363.9596	1411.0763	1418.5345	1454.9693	1466.0034	1487.2878	1500.5808	1510.1291	1818.0296	2918.3829	3028.7758	3087.1187	3092.9113	3117.069	3124.9475	3136.0186	3142.4552	3205.9607	3224.9489	3517.8481
CC1(CC1)C1NC1C=O	CC1(CC1)[C@H]1N[C@H]1C=O	
InChI=1S/C7H11NO/c1-7(2-3-7)6-5(4-9)8-6/h4-6,8H,2-3H2,1H3	InChI=1S/C7H11NO/c1-7(2-3-7)6-5(4-9)8-6/h4-6,8H,2-3H2,1H3/t5-,6-/m0/s1
