17
gdb 129687	2.89895	1.41241	1.00329	2.4008	75.22	-0.1999	0.0187	0.2186	1150.9657	0.139295	-414.168508	-414.160349	-414.159405	-414.201557	30.614	
N	-0.0426436621	 1.412608407	-0.1713635274	-0.613066
C	-0.0249041466	 0.0129724252	-0.0707081321	 0.095191
C	-1.1057206745	-0.8494268825	 0.0497917381	 0.295271
N	-0.5565410536	-2.0939939508	 0.2261870622	-0.257798
N	 0.7799589945	-2.0984018244	 0.205513711	-0.221252
C	 1.1140234971	-0.8210277178	 0.0309157519	-0.053962
C	-2.5640509072	-0.6212173409	 0.0503997596	-0.14471
C	-3.1966500201	 0.1823831769	-1.0329550482	-0.234856
N	-3.4200283448	-1.2684977584	-0.9757285551	-0.313458
H	 0.6689153054	 1.7712049591	-0.7951384333	 0.244989
H	-0.9466655926	 1.7723562748	-0.4485552154	 0.240706
H	-1.051284319	-2.9599030626	 0.3588411493	 0.273445
H	 2.1548930612	-0.5353194727	-0.0171830353	 0.104114
H	-3.0486827963	-0.5987298	 1.0255259123	 0.111453
H	-4.0685163322	 0.7902245872	-0.8102182142	 0.125474
H	-2.5538518949	 0.573065425	-1.8172562557	 0.114556
H	-2.8190552241	-1.717721505	-1.6638596976	 0.233902
67.0651	140.1764	158.6776	216.6591	294.3312	324.9492	399.4609	457.5639	497.9731	619.3679	688.6648	707.8368	720.0365	764.6752	839.5396	856.3201	875.9157	955.7325	964.5301	1004.196	1072.4372	1109.8345	1141.4796	1156.6568	1180.0585	1236.7339	1247.1639	1275.6777	1287.3641	1304.4475	1395.7354	1409.0739	1457.8784	1505.6645	1535.9175	1632.4419	1658.514	3108.53	3112.4732	3199.0554	3241.018	3490.1617	3535.1993	3626.7556	3669.6185
NC1=C(NN=C1)C1CN1	Nc1c([nH]nc1)[C@H]1CN1	
InChI=1S/C5H8N4/c6-3-1-8-9-5(3)4-2-7-4/h1,4,7H,2,6H2,(H,8,9)	InChI=1S/C5H8N4/c6-3-1-8-9-5(3)4-2-7-4/h1,4,7H,2,6H2,(H,8,9)/t4-/m1/s1
