19
gdb 51867	4.41722	0.87028	0.76427	4.5099	79.91	-0.2567	0.0027	0.2595	1473.7479	0.159982	-423.069208	-423.060712	-423.059767	-423.103551	31.296	
O	 0.0685654441	-0.0244601231	 0.2830369231	-0.279018
C	 0.0787135687	 1.1700303907	 0.2940756899	 0.165584
O	 1.0043559833	 1.8998774501	-0.3505737406	-0.191322
C	 0.9458142414	 3.340573527	-0.2357358125	 0.078688
C	 2.0954142792	 3.8248385651	 0.6483953788	-0.217782
C	 2.2692154765	 5.3426281618	 0.5150152677	-0.21704
C	 2.5948955161	 5.7369861373	-0.9337451489	-0.241724
C	 1.7522767411	 4.9851601946	-1.9302396487	-0.057276
C	 1.0137644266	 3.9205711231	-1.6220365728	-0.057926
H	-0.6676069935	 1.7948578425	 0.8253751894	 0.073222
H	-0.0192489092	 3.5991670885	 0.228119765	 0.092085
H	 1.9124839006	 3.5365849831	 1.6888876162	 0.100322
H	 3.0072858141	 3.3094289556	 0.3254302061	 0.121314
H	 1.3427669209	 5.8426121674	 0.825944502	 0.104206
H	 3.0549146823	 5.6928017309	 1.1915603441	 0.103234
H	 2.4603291933	 6.8165664648	-1.0739319299	 0.108953
H	 3.6566592824	 5.545950005	-1.1496142948	 0.117454
H	 1.7639148099	 5.3449632963	-2.9563890396	 0.096566
H	 0.4195926621	 3.4125334894	-2.3762776644	 0.10046
32.9182	82.4351	148.8828	228.2202	267.4163	335.5615	363.4324	400.646	472.4165	565.2681	623.7899	731.3547	745.8752	832.38	876.3004	915.7565	947.8792	970.8091	1008.7442	1044.0088	1050.4576	1071.8433	1078.584	1109.3992	1152.415	1192.1318	1221.1237	1247.7658	1272.6575	1340.2284	1345.5679	1370.8891	1376.5976	1378.799	1417.9914	1437.2926	1473.9139	1490.9677	1497.9569	1725.3214	1863.7863	2929.8775	2974.7128	3002.006	3024.5151	3040.2659	3046.9271	3079.1351	3086.8071	3151.5826	3178.1558
O=COC1CCCC=C1	O=CO[C@H]1CCCC=C1	
InChI=1S/C7H10O2/c8-6-9-7-4-2-1-3-5-7/h2,4,6-7H,1,3,5H2	InChI=1S/C7H10O2/c8-6-9-7-4-2-1-3-5-7/h2,4,6-7H,1,3,5H2/t7-/m1/s1
