19
gdb 36814	8.10936	0.4627	0.44253	1.457	85.56	-0.2583	0.0302	0.2885	2359.4206	0.154875	-385.807	-385.79629	-385.795345	-385.844072	37.221	
C	-0.0084491676	-1.2074466926	-0.0037377911	-0.430272
C	-0.0205975342	-0.0057518716	 0.0022869769	 0.291338
C	-0.0055897792	 1.4516949228	 0.0093292902	-0.357721
C	 1.4209962861	 2.0347053401	-0.0003603942	-0.192537
C	 1.411248342	 3.5568537445	 0.0072280309	-0.041909
O	 2.7495251407	 4.0082539262	-0.0023548786	-0.246035
C	 2.8452182992	 5.4186822237	 0.003805042	-0.208739
C	 4.244298475	 5.8248107737	-0.0065153841	 0.279861
C	 5.3888189609	 6.1875053717	-0.0148019819	-0.412051
H	-0.0083420244	-2.2690783311	-0.0089635109	 0.194836
H	-0.5619944433	 1.8248731509	-0.8609129868	 0.131178
H	-0.5465556126	 1.8162388876	 0.8928641251	 0.131178
H	 1.9742458621	 1.6743008991	 0.8723057746	 0.1246
H	 1.9587587291	 1.6829699922	-0.886146272	 0.1246
H	 0.8683833413	 3.9445008063	-0.8731379579	 0.08722
H	 0.884037074	 3.9357570991	 0.9008145595	 0.087219
H	 2.3290703226	 5.8449010733	-0.8740362421	 0.118079
H	 2.3446671141	 5.836116173	 0.8948009126	 0.118079
H	 6.403414104	 6.5010048011	-0.0221793922	 0.201076
53.06	59.6611	65.6445	128.0228	136.1673	146.4137	220.8997	333.7347	333.8837	345.8235	386.2935	539.1299	564.3639	609.0752	618.0385	637.6959	676.7356	757.4241	870.134	949.5033	969.3456	1017.5059	1031.3552	1048.6262	1094.6134	1119.1841	1148.5387	1218.1871	1254.0742	1274.7573	1300.7239	1311.8412	1366.9259	1390.9095	1450.5735	1476.0269	1495.5712	1502.0736	1530.0738	2241.3795	2248.9957	2939.1303	2952.3935	2964.725	2968.9877	3013.4519	3041.5894	3059.8787	3106.2286	3505.8752	3507.04
C#CCCCOCC#C	C#CCCCOCC#C	
InChI=1S/C8H10O/c1-3-5-6-8-9-7-4-2/h1-2H,5-8H2	InChI=1S/C8H10O/c1-3-5-6-8-9-7-4-2/h1-2H,5-8H2
