19
gdb 106630	2.73127	1.4525	1.29161	2.273	70.41	-0.2434	0.0689	0.3124	1067.6221	0.159347	-460.123117	-460.114874	-460.11393	-460.155909	31.978	
C	-0.0593762878	 1.3789691381	 0.0166043559	-0.263545
O	 0.1041764431	-0.0277149978	 0.023166327	-0.296171
C	 0.6704135965	-0.5571234515	-1.1192129684	 0.352156
C	 0.0068704315	-0.5296732978	-2.5407082378	-0.3161
C	 0.9944588705	-1.691895721	-2.7552175082	 0.034812
O	 2.3021225699	-1.0774358783	-2.6384677631	-0.296163
C	 2.1264250485	-0.2070406296	-1.4930635535	-0.160267
C	 0.7234022352	-2.1167136405	-1.2941423327	 0.118761
O	 1.682598466	-2.8802097573	-0.6330014321	-0.449503
H	 0.903512471	 1.9081312113	-0.0010163608	 0.114045
H	-0.6589403753	 1.7129702046	-0.8418052896	 0.11426
H	-0.584371968	 1.6400509204	 0.9377873904	 0.134059
H	-1.0367875991	-0.8479864424	-2.5233397918	 0.112825
H	 0.1453927113	 0.353150984	-3.1665435982	 0.107072
H	 0.9817827015	-2.3666216245	-3.6077649023	 0.089075
H	 2.2781191046	 0.8356138333	-1.7899560362	 0.104732
H	 2.8347047427	-0.4673960872	-0.6989849954	 0.109502
H	-0.2598954254	-2.5620345824	-1.132923025	 0.097023
H	 2.5205478032	-2.7142696612	-1.0845557981	 0.293428
68.512	171.0656	198.9648	236.3552	285.0883	333.8242	374.1812	467.5181	475.4965	502.7413	591.8893	660.0469	739.9461	801.0104	844.7174	886.5881	892.7573	943.9186	956.5753	997.6867	1063.6641	1079.4906	1103.5314	1116.4653	1153.0565	1180.1412	1185.0282	1200.7485	1218.1754	1226.5065	1250.277	1272.3748	1299.7043	1312.5176	1384.3393	1434.5628	1481.019	1491.2307	1495.4558	1506.0645	1525.9212	2993.2471	3034.4949	3047.1664	3079.0545	3081.5828	3109.3871	3123.9609	3147.5621	3155.551	3763.9147
COC12CC(OC1)C2O	CO[C@@]12C[C@@H](OC1)[C@H]2O	
InChI=1S/C6H10O3/c1-8-6-2-4(5(6)7)9-3-6/h4-5,7H,2-3H2,1H3	InChI=1S/C6H10O3/c1-8-6-2-4(5(6)7)9-3-6/h4-5,7H,2-3H2,1H3/t4-,5-,6+/m1/s1
