17
gdb 105721	2.41861	1.53544	1.23958	0.9825	76.44	-0.2536	-0.0015	0.2521	1083.5956	0.133352	-421.780259	-421.77134	-421.770395	-421.813948	32.842	
C	 0.1657314308	 1.3462583134	 0.0628254233	-0.252409
O	 0.1483272462	-0.0691885195	-0.0777185982	-0.253949
C	 0.6285434062	-0.5569166059	-1.3067171726	 0.254705
O	 1.9979001033	-0.2175956546	-1.5090006186	-0.282316
C	 2.8213587756	-1.3741995965	-1.3725676196	-0.136173
C	 1.8641107866	-2.521794336	-1.2433755823	-0.096367
C	 0.6189310428	-2.069012455	-1.2260360959	-0.123138
C	-0.1590323791	-0.0318978728	-2.4394475672	 0.306746
C	-0.825007269	 0.3588772724	-3.3600933363	-0.463045
H	 1.181375524	 1.7411149355	-0.0487240785	 0.126996
H	-0.4911169354	 1.8309569295	-0.6700413451	 0.120926
H	-0.1991818729	 1.5565959787	 1.0699854428	 0.124903
H	 3.4665757687	-1.454449871	-2.2579860286	 0.119032
H	 3.4756695364	-1.2793141495	-0.4930265161	 0.11695
H	 2.1830837226	-3.5531309858	-1.1636351358	 0.116117
H	-0.3026096706	-2.6247138497	-1.1322183631	 0.123135
H	-1.4054443363	 0.7071107867	-4.1788410582	 0.197887
82.3618	109.6561	159.3622	166.0087	191.6523	242.593	355.0232	455.8709	477.1535	517.2583	543.9504	648.8062	652.1601	654.8804	740.9802	783.7157	824.0356	952.6767	955.2427	974.2718	1031.9803	1041.7687	1073.7351	1116.8538	1138.9336	1172.6275	1180.2955	1200.8618	1232.9796	1349.8593	1374.6931	1468.5155	1485.0077	1510.2689	1512.7907	1694.3091	2232.934	2994.9524	3019.7054	3028.0925	3086.3342	3130.7628	3216.9545	3253.0687	3498.8102
COC1(OCC=C1)C#C	CO[C@]1(OCC=C1)C#C	
InChI=1S/C7H8O2/c1-3-7(8-2)5-4-6-9-7/h1,4-5H,6H2,2H3	InChI=1S/C7H8O2/c1-3-7(8-2)5-4-6-9-7/h1,4-5H,6H2,2H3/t7-/m0/s1
