18
gdb 79859	3.04651	1.75004	1.29621	2.0587	71.62	-0.206	0.0548	0.2608	985.1142	0.147464	-438.998287	-438.990675	-438.98973	-439.029794	30.572	
C	 0.0717385995	 1.481711583	-0.3197259707	-0.332913
N	 0.0528137532	 0.0506040564	-0.0125398831	-0.117727
C	-1.0554530771	-0.4795066423	 0.8503135635	-0.154762
C	-0.1403283519	-1.6997387734	 1.1497005579	 0.146572
O	-0.3888412154	-2.2493759358	 2.4210382512	-0.275489
C	-0.5644530551	-1.0820560084	 3.2304902093	-0.140967
C	-0.3863022586	 0.0330543688	 2.1964848784	 0.343966
O	-0.4257930419	 1.3425318433	 2.6624383803	-0.467634
C	 0.7554892251	-0.4247419585	 1.2257364895	-0.119559
H	 1.0550642414	 1.7304466599	-0.7334151896	 0.116192
H	-0.6682553023	 1.67208565	-1.1049737603	 0.113186
H	-0.1307570085	 2.1459225535	 0.5274329932	 0.125719
H	-2.1042201216	-0.4679851876	 0.5476296084	 0.076509
H	 0.041284109	-2.452308837	 0.3891499441	 0.109469
H	-1.5618539311	-1.0828852333	 3.6929711187	 0.095402
H	 0.1917616431	-1.0413556772	 4.0242942806	 0.112474
H	-1.2654889801	 1.4824937419	 3.1150873869	 0.287131
H	 1.8348692621	-0.3500145531	 1.3657279515	 0.082432
187.0288	213.5355	246.9597	259.1219	277.8067	349.8693	400.2761	466.8509	493.2778	645.0554	689.3907	714.5923	734.7772	793.879	819.1042	913.4559	927.1612	984.5235	1019.3384	1053.5535	1064.5326	1090.3939	1113.6559	1140.8177	1151.323	1161.7658	1177.1628	1198.8232	1204.7144	1211.1185	1254.4512	1293.4998	1317.8645	1343.4797	1405.9994	1446.7879	1489.1681	1513.0679	1518.2278	3000.9275	3021.9299	3049.8849	3089.615	3092.7212	3098.756	3110.062	3187.4277	3791.4177
CN1C2C3OCC2(O)C13	CN1[C@H]2[C@@H]3OC[C@@]2(O)[C@H]13	
InChI=1S/C6H9NO2/c1-7-4-3-5(7)6(4,8)2-9-3/h3-5,8H,2H2,1H3	InChI=1S/C6H9NO2/c1-7-4-3-5(7)6(4,8)2-9-3/h3-5,8H,2H2,1H3/t3-,4-,5+,6-
