18
gdb 23124	2.52846	1.22913	0.86602	1.1158	76.72	-0.2364	0.0086	0.245	1304.7566	0.146816	-439.049915	-439.040919	-439.039974	-439.083931	33.268	
O	-0.0346207747	 1.4442839964	 0.0166942326	-0.425095
C	 0.048686757	 0.0280974584	 0.0775395787	-0.07909
C	-1.3825547428	-0.5168295983	 0.014791781	-0.125153
C	-2.091737754	-0.2356724199	-1.2907778537	-0.059211
C	-2.5152729122	-1.3443229292	-1.8966736298	-0.090594
C	-2.1812497645	-2.5939367032	-1.1198483375	-0.347375
C	-1.4388809369	-2.0371029204	 0.0787618551	 0.376134
N	-0.8976246028	-2.6791872695	 1.0334431884	-0.224177
O	-1.0670858315	-4.0669864927	 0.8719353305	-0.392341
H	 0.8587606126	 1.7991266267	 0.0331755006	 0.288493
H	 0.6312813191	-0.3781129406	-0.7639420033	 0.086612
H	 0.5182023189	-0.3143950137	 1.0102818874	 0.105979
H	-1.9255295211	-0.0704447689	 0.8596208205	 0.107664
H	-2.2134419117	 0.7758795719	-1.6566267985	 0.110638
H	-3.0470019651	-1.3760336418	-2.8408978036	 0.096757
H	-3.0668944703	-3.1634560361	-0.8062581865	 0.132626
H	-1.5584114547	-3.3069784558	-1.6761123947	 0.132595
H	-0.6232713353	-4.4179325732	 1.6512636026	 0.30554
74.153	108.7518	137.4002	219.6024	233.6956	260.1288	321.4972	362.8041	406.3809	483.4328	535.9836	558.1438	699.6438	738.2786	784.3957	839.3191	901.7831	955.5502	967.0922	984.0158	995.4694	1060.2735	1067.1609	1093.649	1130.3517	1153.0691	1204.6215	1226.7987	1236.2394	1289.0973	1297.8908	1329.3134	1371.143	1404.2543	1446.3621	1460.5719	1521.5877	1683.2014	1757.2845	2978.6311	3008.7561	3018.9854	3029.6243	3038.5544	3192.8073	3225.3692	3818.9985	3832.721
OCC1C=CCC1=NO	OC[C@H]1C=CCC1=NO	
InChI=1S/C6H9NO2/c8-4-5-2-1-3-6(5)7-9/h1-2,5,8-9H,3-4H2	InChI=1S/C6H9NO2/c8-4-5-2-1-3-6(5)7-9/h1-2,5,8-9H,3-4H2/t5-/m1/s1
