14
gdb 129657	2.37646	1.90692	1.06116	6.2591	70.97	-0.2142	-0.0551	0.1591	1036.758	0.102225	-470.01739	-470.009617	-470.008673	-470.049387	29.754	
N	-0.035822557	 1.4113074461	 0.1147271007	-0.602553
C	-0.0197256609	 0.0222243907	 0.034181522	 0.212097
C	-1.1723801504	-0.7085967921	-0.0121840035	 0.090779
N	-2.4394185788	-0.1472622605	-0.0411018494	-0.596587
C	-1.0980930193	-2.1558221594	-0.0886022071	 0.431758
O	-2.0630243233	-2.8834577015	-0.1510082033	-0.36877
O	 0.158574266	-2.7229036779	-0.0885284812	-0.259828
N	 1.3345943375	-1.9939896679	-0.0022595736	-0.088576
C	 1.2096268183	-0.7093620144	 0.0497009347	 0.003134
H	 0.8439423924	 1.8583910078	-0.1023666444	 0.257852
H	-0.7975229398	 1.8344671774	-0.4022858285	 0.262051
H	-2.581393281	 0.6121622387	 0.6131534168	 0.256656
H	-3.1545261809	-0.8620625653	 0.0330917185	 0.273305
H	 2.1586030471	-0.1813485117	 0.1093321983	 0.128683
128.908	185.7284	253.6967	263.0332	291.7844	335.4484	448.2239	488.82	530.218	540.7979	564.1175	635.3151	678.1132	693.2315	741.4116	786.9511	881.354	912.9133	957.9771	998.2302	1100.2938	1157.787	1282.4703	1326.111	1393.0061	1422.2546	1600.6071	1633.8239	1654.9424	1708.7323	1797.6483	3163.3689	3519.481	3532.995	3622.4129	3639.4908
NC1=C(N)C(=O)ON=C1	Nc1c(N)c(=O)onc1	
InChI=1S/C4H5N3O2/c5-2-1-7-9-4(8)3(2)6/h1H,5-6H2	InChI=1S/C4H5N3O2/c5-2-1-7-9-4(8)3(2)6/h1H,5-6H2
