24
gdb 80392	2.13979	1.5558	1.30118	1.6585	89.02	-0.2176	0.0764	0.294	1178.4798	0.215811	-368.381197	-368.371112	-368.370168	-368.415053	39.239	
C	-0.1657473875	 1.5392913048	-0.1558428712	-0.433276
C	 0.0339030478	 0.0628208603	 0.1106953365	-0.018781
N	 1.2342725993	-0.7195169598	-0.2652178301	-0.193635
C	 2.4281525083	 0.108398345	 0.1317133681	-0.219465
C	 2.0732302842	 0.0384955251	 1.6463323561	 0.268021
C	 3.0116149072	-0.9443563114	 2.3589764981	-0.437715
C	 1.9744819685	 1.3234173396	 2.4723015618	-0.463443
C	 0.7605118998	-0.6470849899	 1.1949411447	 0.285612
C	 0.1303158242	-1.8179961138	 1.9013838356	-0.494655
H	 0.7072576253	 2.1583702704	 0.0469587205	 0.12454
H	-0.4350187277	 1.6850279575	-1.2080683234	 0.122984
H	-0.992961184	 1.9214644094	 0.4521829798	 0.121615
H	-0.8482263511	-0.5002243445	-0.1962091919	 0.087145
H	 3.3464920915	-0.4244284806	-0.1257392277	 0.10205
H	 2.4669323186	 1.0993056295	-0.3305142788	 0.095521
H	 4.0087192732	-0.501061212	 2.4591431861	 0.111166
H	 2.6539333192	-1.185752561	 3.3661012173	 0.111185
H	 3.1157788873	-1.8798859611	 1.8015041932	 0.124654
H	 1.3084798923	 2.0664354529	 2.0318321393	 0.116283
H	 1.6014491899	 1.1029219285	 3.4794632092	 0.11308
H	 2.962758994	 1.7843712443	 2.5863870723	 0.111935
H	-0.4046607544	-1.4864511497	 2.7999239175	 0.117322
H	-0.5917975599	-2.3159206759	 1.2479986076	 0.12604
H	 0.8710493138	-2.5616134575	 2.2085874992	 0.121815
124.1211	143.8756	174.3503	191.8204	208.5939	253.5228	281.5099	298.4093	317.8735	362.9654	408.0654	424.0761	509.337	566.4042	618.8363	636.8755	698.7781	827.9885	845.3332	890.9509	932.3814	940.2983	963.2475	982.5561	1027.8419	1036.3433	1079.5845	1107.1615	1113.9375	1144.9103	1176.2057	1187.2959	1241.8814	1256.7582	1274.9134	1315.7972	1351.5247	1399.6649	1408.6956	1410.5388	1421.7483	1455.0307	1479.0587	1483.1083	1490.8885	1491.4771	1498.6353	1503.3458	1507.8276	1512.5746	1520.5985	3024.224	3027.9954	3030.9475	3037.0638	3050.4338	3081.2403	3090.1657	3091.0969	3092.1816	3097.041	3098.6373	3107.2843	3115.1616	3135.1511	3152.1355
CC1N2CC(C)(C)C12C	C[C@H]1N2CC(C)(C)[C@@]12C	
InChI=1S/C8H15N/c1-6-8(4)7(2,3)5-9(6)8/h6H,5H2,1-4H3	InChI=1S/C8H15N/c1-6-8(4)7(2,3)5-9(6)8/h6H,5H2,1-4H3/t6-,8-,9?/m1/s1
