19
gdb 56177	3.72412	0.81398	0.79159	2.0498	73.13	-0.247	0.0563	0.3033	1509.9624	0.158177	-456.36853	-456.358619	-456.357675	-456.404576	35.895	
C	-0.8696121221	 1.1065544361	-1.0076428576	-0.457185
C	-0.1970454583	 0.0110910267	-0.2135901664	 0.410406
C	-1.0740867815	-0.774958357	 0.7426955534	-0.215423
N	-1.5525135986	 0.0727134463	 1.8191827533	-0.337718
C	-2.8478757578	-0.0231167568	 2.2783926298	 0.455016
N	-3.0867165758	 0.7057251833	 3.4380861775	-0.565851
O	-3.7059745037	-0.6968950343	 1.7384474939	-0.391859
C	 1.0450531858	-0.6038022424	-0.6998936919	-0.228921
O	 1.0820533659	 0.3619279271	 0.3545716155	-0.286275
H	-0.1321783943	 1.6711919367	-1.5827872115	 0.125461
H	-1.6078538656	 0.6847144084	-1.6978414699	 0.127723
H	-1.3924772566	 1.7959799179	-0.3384050054	 0.130532
H	-1.9596757999	-1.1678656092	 0.2373929233	 0.149075
H	-0.5047768744	-1.6268997052	 1.1371079834	 0.102425
H	-0.8478857054	 0.4441534136	 2.4371091138	 0.248599
H	-2.5487064406	 1.5470770539	 3.5834341199	 0.246984
H	-4.0719893466	 0.8129732937	 3.625930557	 0.260645
H	 1.2997093108	-1.6230001068	-0.4110280299	 0.112495
H	 1.4682619087	-0.2750779021	-1.6481635182	 0.11387
32.4383	53.7229	87.9253	192.6697	227.2502	240.5642	339.803	354.2255	384.4539	395.4061	446.62	489.8407	544.7541	582.2655	655.4407	735.4401	775.6822	838.0947	906.8973	908.9999	931.8861	999.2378	1058.8717	1091.8691	1113.6649	1134.0201	1160.0418	1171.8882	1234.4494	1305.1843	1318.1889	1372.2009	1403.6471	1432.5398	1476.7634	1490.1996	1499.3248	1529.5369	1542.3025	1627.9869	1801.6913	3016.1332	3042.2855	3080.0352	3108.817	3115.0682	3129.0992	3164.9434	3573.1358	3626.5137	3687.7494
CC1(CNC(N)=O)CO1	C[C@@]1(CNC(=O)N)CO1	
InChI=1S/C5H10N2O2/c1-5(3-9-5)2-7-4(6)8/h2-3H2,1H3,(H3,6,7,8)	InChI=1S/C5H10N2O2/c1-5(3-9-5)2-7-4(6)8/h2-3H2,1H3,(H3,6,7,8)/t5-/m1/s1
