19
gdb 65404	3.6543	0.84494	0.77597	0.5513	89.42	-0.2408	0.0426	0.2834	1510.1563	0.155552	-348.677243	-348.667204	-348.66626	-348.712261	37.457	
C	 0.0676763061	 1.5236031589	-0.1771933041	-0.459418
C	-0.0001496604	 0.0126538984	 0.0030369456	 0.110694
C	 1.294885158	-0.7952722401	-0.0146005566	-0.305758
C	 0.5305831389	-0.6616064278	 1.2690351874	-0.019025
C	 1.0755119562	 0.1351344224	 2.4474449778	-0.392042
C	 1.9297463999	-0.6768821246	 3.3094572337	 0.308119
C	 2.6246827536	-1.3642838231	 4.0086030393	-0.442988
C	-1.1615981925	-0.5963238563	-0.5931024882	 0.276579
C	-2.1405573281	-1.0854950047	-1.0934355617	-0.457982
H	 0.9903159386	 1.9402333563	 0.2341608264	 0.115513
H	 0.0345907316	 1.7762960396	-1.2411902394	 0.131102
H	-0.7797162753	 2.0166365592	 0.3096032798	 0.128632
H	 1.2960429459	-1.750414265	-0.5255762963	 0.125486
H	 2.2132524296	-0.2253710398	-0.1178814318	 0.116541
H	-0.0304793947	-1.5394922561	 1.5722855619	 0.110366
H	 1.644584698	 1.0025009593	 2.0949695775	 0.12978
H	 0.2421524391	 0.5379297622	 3.0381702866	 0.136889
H	 3.2423585269	-1.963600366	 4.6302774623	 0.195908
H	-3.0014977413	-1.5236363229	-1.53368051	 0.191606
49.0664	98.1655	137.6977	178.1457	189.2153	243.6499	298.5208	336.9147	379.1621	410.4953	460.2777	540.8503	570.9436	592.5736	618.5476	639.8514	643.3728	677.9523	837.2759	868.4724	878.286	936.2127	957.0997	976.7728	1037.9337	1070.6095	1108.7088	1117.0965	1155.4566	1235.756	1278.2294	1296.0689	1324.8081	1416.2633	1417.0908	1465.5249	1485.6433	1490.0494	1503.2245	2232.1296	2239.473	3021.408	3040.8107	3063.2548	3106.3313	3119.7593	3132.5222	3165.4398	3225.4305	3503.6038	3507.338
CC1(CC1CC#C)C#C	C[C@]1(C[C@H]1CC#C)C#C	
InChI=1S/C9H10/c1-4-6-8-7-9(8,3)5-2/h1-2,8H,6-7H2,3H3	InChI=1S/C9H10/c1-4-6-8-7-9(8,3)5-2/h1-2,8H,6-7H2,3H3/t8-,9-/m1/s1
