19
gdb 68689	2.74016	1.82862	1.54629	2.23	74.3	-0.2504	0.0011	0.2515	947.6153	0.161064	-423.036973	-423.029706	-423.028762	-423.068033	30.167	
C	 0.0271088362	 1.5275244918	 0.0675757279	-0.46462
C	-0.0400341917	 0.0162278461	-0.0299764738	 0.334947
C	 0.6839512823	-0.5783266633	-1.2621303549	-0.237389
C	 0.6217616182	-2.1215983626	-1.2064157802	-0.07945
O	 0.8185555849	-2.6530860137	 0.107174941	-0.264457
C	 0.1658142972	-1.8938083016	 1.1128333831	 0.124227
O	 0.6453785921	-0.5680315016	 1.0985993121	-0.262997
C	-1.3194147594	-1.7209972617	 0.8031875033	-0.10214
C	-1.4332740261	-0.6022019237	 0.0955198221	-0.136246
H	 1.0677133254	 1.8647364099	 0.0603601925	 0.127612
H	-0.4914095242	 1.991319965	-0.7775327227	 0.114712
H	-0.4401284659	 1.8684796516	 0.9955562132	 0.128666
H	 0.2428389429	-0.2356612958	-2.2054402425	 0.094358
H	 1.7222598612	-0.2327239718	-1.228076794	 0.111827
H	-0.3457153693	-2.4591348167	-1.6008988912	 0.096963
H	 1.4062742209	-2.5641636073	-1.8258155023	 0.109192
H	 0.4238850393	-2.3666012358	 2.0613819767	 0.088536
H	-2.0794977853	-2.4571710312	 1.0273527359	 0.110546
H	-2.3151733987	-0.2028608875	-0.3892271859	 0.105714
210.8288	220.9524	268.6004	290.2988	347.5088	392.5385	427.699	515.1816	597.9087	631.0979	674.1309	751.3302	789.3363	832.9679	851.1204	876.8623	896.114	939.2784	946.3405	961.7319	989.804	1027.2555	1044.0857	1057.873	1127.739	1167.2899	1191.8394	1233.7911	1255.016	1285.7263	1315.5716	1340.3485	1365.3206	1372.0227	1409.7507	1413.7166	1468.2604	1483.9886	1496.326	1504.8546	1663.6569	3015.136	3036.3057	3041.9605	3082.5924	3094.6615	3113.4597	3114.2652	3120.952	3207.6328	3235.9078
CC12CCOC(O1)C=C2	C[C@@]12CCO[C@@H](O1)C=C2	
InChI=1S/C7H10O2/c1-7-3-2-6(9-7)8-5-4-7/h2-3,6H,4-5H2,1H3	InChI=1S/C7H10O2/c1-7-3-2-6(9-7)8-5-4-7/h2-3,6H,4-5H2,1H3/t6-,7+/m0/s1
