16
gdb 129820	5.69445	0.93748	0.8498	3.8703	72.84	-0.2109	0.0217	0.2326	1324.0587	0.126033	-434.055552	-434.04736	-434.046416	-434.089099	30.082	
N	 0.1409878209	 1.3680139368	 0.2508470182	-0.607211
C	-0.0312892798	-0.0046114958	 0.0623343263	 0.405133
C	-1.1423718919	-0.8238150078	 0.1218017585	-0.393088
C	-0.6672044089	-2.1040592034	-0.2574278987	 0.38337
N	 0.6321895057	-2.0872490218	-0.5367500197	-0.304196
N	 0.9974123374	-0.7977090288	-0.3321283135	-0.24264
C	-1.4538448016	-3.3557996436	-0.3254669255	-0.039635
C	-0.8551679011	-4.6369923705	-0.7175031134	-0.169014
O	-1.1669975637	-4.3783958345	 0.6493444031	-0.233774
H	 0.9184358481	 1.5967958746	 0.8594442838	 0.252126
H	-0.6980178078	 1.8036093831	 0.6094776155	 0.258039
H	-2.140285697	-0.5471904497	 0.4217298938	 0.096788
H	 1.9376232185	-0.5136269417	-0.5491969721	 0.269449
H	-2.5208247842	-3.2110810639	-0.4933688337	 0.086851
H	-1.4731793081	-5.3879565111	-1.2091776403	 0.104632
H	 0.2052362835	-4.661395902	-0.9571323723	 0.13317
37.8964	136.0941	169.9905	178.0333	283.702	341.2876	428.4683	443.1752	504.4274	638.121	667.3273	718.3978	751.9196	759.3843	790.9091	837.6213	906.7153	989.8959	1021.3331	1049.4284	1096.1774	1108.242	1153.8414	1165.4857	1171.1658	1197.9489	1289.9128	1313.7593	1392.2014	1454.3981	1503.4994	1526.8224	1538.8072	1622.0928	1660.5124	3084.6725	3113.3682	3183.4872	3260.4675	3531.0426	3628.5346	3671.4493
NC1=CC(=NN1)C1CO1	Nc1cc(n[nH]1)[C@H]1CO1	
InChI=1S/C5H7N3O/c6-5-1-3(7-8-5)4-2-9-4/h1,4H,2H2,(H3,6,7,8)	InChI=1S/C5H7N3O/c6-5-1-3(7-8-5)4-2-9-4/h1,4H,2H2,(H3,6,7,8)/t4-/m1/s1
