19
gdb 92068	3.00432	1.49123	1.0725	4.1719	76.3	-0.2354	0.0265	0.2619	1128.9465	0.161031	-419.21182	-419.203581	-419.202637	-419.244711	31.098	
C	-0.0348728506	 1.4349360814	 0.0214884153	-0.345366
N	 0.0242072731	-0.0107231366	 0.1346830442	-0.081952
C	-1.2187087242	-0.7774090571	 0.0887181381	-0.207677
C	-1.120650431	-1.982294326	 1.0088025011	-0.00329
C	-1.0547523507	-3.3572973273	 0.4478778458	-0.250271
N	 0.1472729685	-2.7164506062	 0.9762891442	-0.081581
C	 1.1276867916	-2.184017063	 0.0210645262	-0.284176
C	 1.2271611036	-0.6566406752	 0.0302406635	 0.409572
O	 2.2975324184	-0.0844831524	-0.0765466748	-0.387175
H	 0.9827723497	 1.8176278427	 0.0919673229	 0.170879
H	-0.4655107911	 1.7468298306	-0.9394243747	 0.121154
H	-0.645679367	 1.8571468614	 0.8273748363	 0.121778
H	-2.0326118634	-0.1230103593	 0.4126880762	 0.120107
H	-1.4509671597	-1.0838799566	-0.9417954512	 0.111411
H	-1.5177821649	-1.8321803439	 2.0102916141	 0.100434
H	-1.4212105077	-4.2055512732	 1.018923003	 0.122355
H	-1.149129691	-3.4613820736	-0.6327824233	 0.110472
H	 2.1202665186	-2.5662638087	 0.2655713726	 0.140269
H	 0.9042235279	-2.4891322068	-1.0141194894	 0.113057
94.6191	127.6122	146.4822	220.3811	281.4399	347.0346	412.4562	440.2084	449.3317	517.5304	597.7716	714.682	744.7896	823.5808	838.3378	918.5679	954.1345	985.3361	1021.0558	1056.3452	1093.8027	1116.8771	1134.56	1152.8114	1158.6785	1172.6083	1229.4738	1256.3964	1292.4052	1317.5045	1329.328	1340.9595	1408.7788	1429.1891	1458.7107	1481.6886	1499.1817	1499.8057	1511.5382	1531.1181	1776.6296	2976.4485	2991.3553	3012.1766	3067.3832	3082.4794	3089.1879	3111.1552	3126.6625	3161.7834	3182.0895
CN1CC2CN2CC1=O	CN1C[C@H]2CN2CC1=O	
InChI=1S/C6H10N2O/c1-7-2-5-3-8(5)4-6(7)9/h5H,2-4H2,1H3	InChI=1S/C6H10N2O/c1-7-2-5-3-8(5)4-6(7)9/h5H,2-4H2,1H3/t5-,8?/m0/s1
