20
gdb 62692	2.40862	1.71329	1.30325	1.4811	79.2	-0.2172	0.0645	0.2817	1060.172	0.168968	-403.04944	-403.040544	-403.0396	-403.082123	35.104	
C	-0.0565704656	 1.6054464331	 0.0226931913	-0.496233
C	 0.1033276111	 0.0916220475	 0.0296993654	 0.311497
O	-1.0851281777	-0.5417320443	-0.4161689965	-0.452555
C	 1.2716428079	-0.8407834264	-0.3349466102	-0.138034
N	 2.6942671146	-0.5741534909	 0.0857170708	-0.139543
C	 2.8113482357	 0.7637381627	 0.6815493534	-0.253788
C	 2.1595426244	-0.3129870558	 1.472320811	-0.109693
C	 0.7320042006	-0.7717698689	 1.0866996099	 0.296446
C	 0.0042820876	-1.778308273	 1.9294736514	-0.502869
H	 0.266195469	 2.0562196345	-0.9232020901	 0.118743
H	-1.1218697289	 1.8189519802	 0.1520541179	 0.126466
H	 0.4774560085	 2.093228515	 0.8385878287	 0.135213
H	-1.1639509592	-0.3758655342	-1.3622985852	 0.284554
H	 1.1157083428	-1.5904055579	-1.1022911573	 0.096293
H	 3.8380440389	 0.9846763541	 0.9657020716	 0.119366
H	 2.2866460979	 1.6050215532	 0.2549877443	 0.124224
H	 2.6560399293	-0.7472082393	 2.3359087868	 0.100077
H	-0.2959064747	-1.341294231	 2.8902166176	 0.115098
H	-0.8943063964	-2.1249972287	 1.4168375933	 0.145414
H	 0.6400052142	-2.6447830696	 2.144294036	 0.119323
146.138	182.1887	192.06	202.3077	269.1343	285.6571	318.4303	350.5884	394.0089	448.9983	499.7686	602.6181	632.417	681.2805	692.0839	767.0589	838.1657	906.0842	921.7012	935.2472	967.5378	991.1935	1009.3524	1052.9343	1077.7654	1113.8004	1120.3159	1132.0427	1154.3631	1177.6252	1220.2448	1228.1548	1251.9648	1300.3345	1343.3916	1399.8954	1408.2264	1465.3875	1489.3822	1492.989	1494.9868	1502.7994	1514.9236	3022.4567	3031.4435	3075.7998	3097.4434	3123.18	3136.1249	3139.298	3145.3972	3175.9916	3250.5775	3794.99
CC1(O)C2N3CC3C12C	C[C@@]1(O)[C@H]2N3C[C@H]3[C@@]12C	
InChI=1S/C7H11NO/c1-6-4-3-8(4)5(6)7(6,2)9/h4-5,9H,3H2,1-2H3	InChI=1S/C7H11NO/c1-6-4-3-8(4)5(6)7(6,2)9/h4-5,9H,3H2,1-2H3/t4-,5-,6+,7+,8?/m0/s1
