15
gdb 34117	3.6875	1.48301	1.397	0.3511	71.34	-0.2432	0.0123	0.2554	941.4222	0.112489	-420.532771	-420.526157	-420.525213	-420.563616	27.142	
C	 0.0050602194	-1.154504923	 0.0844790713	-0.301327
C	-0.0132511323	 0.0472889069	 0.0539664316	 0.032182
C	 0.0005279657	 1.476264228	-0.0094801568	 0.311619
C	-0.8500932372	 2.2572581994	-1.0396895297	-0.249971
C	-0.0708284445	 3.559422131	-0.7994559244	 0.009643
O	 1.2612268613	 3.1930214855	-1.2758252809	-0.28687
C	 1.3419078588	 2.3895498473	-0.1109769393	 0.010457
C	 0.4017638662	 3.2730883726	 0.7040195407	 0.05463
O	-0.3521516317	 2.1860772157	 1.2287343881	-0.323441
H	 0.0135472572	-2.2161299317	 0.1152687875	 0.188411
H	-0.7421592137	 1.916833884	-2.070137024	 0.124849
H	-1.8965521638	 2.2730125001	-0.7319930523	 0.121524
H	-0.4328881878	 4.5121265716	-1.1786271733	 0.094472
H	 2.3149860387	 1.978149844	 0.1469198942	 0.110005
H	 0.6459915235	 4.0743448785	 1.3970879675	 0.103815
145.2635	155.2776	383.5433	455.4219	474.66	539.3295	564.1121	578.4175	617.0772	690.2831	705.1406	744.99	783.4731	844.3824	855.6966	885.7008	935.0323	956.0809	984.3742	1017.2123	1029.2566	1073.887	1092.4411	1158.5538	1161.4401	1207.0359	1218.0815	1262.6011	1282.1173	1313.0919	1345.226	1459.5743	2240.2519	3089.2363	3150.9577	3154.9677	3155.9756	3165.6213	3501.3529
C#CC12CC3OC1C3O2	C#C[C@]12C[C@@H]3O[C@H]1[C@@H]3O2	
InChI=1S/C7H6O2/c1-2-7-3-4-5(9-7)6(7)8-4/h1,4-6H,3H2	InChI=1S/C7H6O2/c1-2-7-3-4-5(9-7)6(7)8-4/h1,4-6H,3H2/t4-,5+,6-,7-/m0/s1
