19
gdb 7360	2.83917	1.58032	1.08859	6.5112	67.96	-0.239	0.0367	0.2756	1102.6149	0.165886	-402.241811	-402.232954	-402.23201	-402.275447	32.388	
C	-0.5113543309	 1.5958008583	-0.5484896272	-0.388016
C	 0.1693362639	 0.3777603656	 0.0837801038	-0.116448
C	 0.9133778706	 0.7608818609	 1.3950135176	-0.199251
C	 2.2473977168	 0.0422940458	 1.6250162888	-0.169333
N	 2.0616978936	-1.4051934125	 1.8446123757	-0.506348
H	 2.9298044608	-1.9104188976	 1.7020137744	 0.248334
H	 1.7743155944	-1.5821529011	 2.8034848479	 0.251404
H	 0.5708172155	-1.8230576585	 1.0304432278	 0.312951
C	-0.8579747717	-0.7553211925	 0.2755466657	 0.400346
O	-2.0197985923	-0.6346824689	-0.0231505121	-0.333896
O	-0.3887633979	-1.9015964291	 0.7785046896	-0.391518
H	 0.2299657268	 2.3636547486	-0.7927174314	 0.097618
H	-1.0444182049	 1.3154569151	-1.4585209081	 0.133782
H	-1.2465010717	 2.0278086072	 0.1365809697	 0.128172
H	 0.9199939232	-0.0078005274	-0.6220875771	 0.09116
H	 1.1290762573	 1.8346157077	 1.3633173944	 0.110168
H	 0.2579769026	 0.6142791071	 2.2634729843	 0.111833
H	 2.8742540545	 0.1602945183	 0.7338938578	 0.118171
H	 2.7833417595	 0.520228093	 2.4573826186	 0.100871
65.6738	83.1773	209.4123	219.2699	255.7586	277.002	318.204	329.7052	354.3951	462.5345	520.2829	615.0176	728.0987	805.2763	852.4218	873.488	917.6336	964.0248	985.7751	1013.5386	1047.4901	1092.852	1122.5317	1134.7188	1166.2325	1240.5214	1285.5071	1306.215	1342.7983	1355.9105	1386.3056	1411.9047	1416.1969	1478.5052	1481.756	1487.3993	1495.978	1505.257	1653.6297	1842.2857	2997.9723	2999.1818	3027.1678	3042.5841	3062.5065	3074.4594	3111.7058	3137.2759	3183.018	3497.1876	3577.8844
CC(CC[NH3+])C([O-])=O	C[C@@H](CCN)C(=O)O	
InChI=1S/C5H11NO2/c1-4(2-3-6)5(7)8/h4H,2-3,6H2,1H3,(H,7,8)	InChI=1S/C5H11NO2/c1-4(2-3-6)5(7)8/h4H,2-3,6H2,1H3,(H,7,8)/t4-/m0/s1
