12
gdb 131434	7.37486	0.84649	0.76861	2.5776	60.03	-0.2624	-0.036	0.2264	1339.5012	0.076516	-509.767953	-509.760374	-509.75943	-509.80093	26.781	
O	 0.233634735	 1.3101771673	 0.1046986659	-0.410502
C	 0.0584849636	-0.0144829296	 0.0595549646	 0.505345
N	-0.1259934968	-0.646039554	-1.0774598731	-0.2588
O	-0.2742255835	-2.0016873542	-0.7059866189	-0.225145
C	-0.1526520868	-2.0832350174	 0.623991725	 0.580701
O	-0.2989318939	-3.2915819289	 1.1954558099	-0.229059
C	 0.1524353945	-4.4158660065	 0.5230099699	 0.162204
O	-0.034489189	-5.4981593795	 0.9685095424	-0.231005
C	 0.0571428155	-0.8714005667	 1.1946037644	-0.498646
H	 0.1899879321	 1.6476669456	-0.800764395	 0.316801
H	 0.6764858491	-4.1662746907	-0.4096196613	 0.140784
H	 0.1942246302	-0.6270820455	 2.2322723762	 0.147322
54.6192	115.0679	152.8633	254.215	350.5634	412.9589	460.3768	462.9372	524.7605	670.9379	708.9488	725.6321	789.9934	824.8258	940.7386	1001.3203	1031.7296	1048.7872	1065.2935	1188.4586	1241.7284	1327.0028	1414.3178	1543.4117	1568.6216	1674.5537	1893.03	3061.7163	3303.1605	3773.8962
OC1=NOC(OC=O)=C1	Oc1noc(OC=O)c1	
InChI=1S/C4H3NO4/c6-2-8-4-1-3(7)5-9-4/h1-2H,(H,5,7)	InChI=1S/C4H3NO4/c6-2-8-4-1-3(7)5-9-4/h1-2H,(H,5,7)
