17
gdb 56754	2.94606	1.37271	1.12955	4.028	72.51	-0.2638	0.0138	0.2776	1092.5526	0.137017	-417.94143	-417.933478	-417.932534	-417.974292	30.2	
O	 0.1555053135	 1.44421425	 0.0652991088	-0.403939
C	 0.040612516	 0.0406316196	 0.0349555823	-0.157014
C	 0.6574700715	-0.5332779169	-1.1862548951	 0.261302
N	 1.1672088769	-0.9895296658	-2.1175384778	-0.325492
C	 0.6930130773	-0.5587609783	 1.2658364884	 0.335783
C	 0.3432038626	-0.2629006376	 2.7476100291	-0.244042
C	 1.6704353827	-1.058723562	 2.714480387	-0.024089
C	 1.0341623996	-2.0183057571	 1.6676324629	-0.285653
N	 2.1154594925	-0.1198487727	 1.5967848162	-0.367219
H	 1.030735787	 1.6352233931	 0.4349765864	 0.304348
H	-1.0284806769	-0.200698328	 0.0184457174	 0.141004
H	 0.4223453301	 0.7802597311	 3.0512492668	 0.11827
H	-0.5319582141	-0.7678212344	 3.1581207824	 0.104933
H	 2.331135309	-1.3021429216	 3.545540911	 0.098987
H	 0.2142063889	-2.6647919651	 1.9940441465	 0.104648
H	 1.7294195416	-2.5434481769	 1.0077587761	 0.117358
H	 2.767098572	-0.6189212273	 0.9819363316	 0.220816
70.2503	111.3635	176.9323	225.7246	315.3547	400.6223	465.1062	472.4062	540.4455	593.9385	621.4672	723.8825	788.5892	808.3686	893.1341	917.2816	943.4517	966.2781	982.837	993.3689	1057.8505	1081.1652	1094.8315	1129.2612	1148.3778	1184.4826	1208.9957	1223.3815	1255.863	1275.3215	1298.4697	1308.2489	1344.6271	1436.0609	1484.0359	1528.7417	2353.5074	3049.3442	3055.8765	3088.2615	3122.2479	3127.0144	3167.9048	3382.9425	3725.7894
OC(C#N)C12CC(C1)N2	O[C@@H](C#N)[C@@]12C[C@@H](C1)N2	
InChI=1S/C6H8N2O/c7-3-5(9)6-1-4(2-6)8-6/h4-5,8-9H,1-2H2	InChI=1S/C6H8N2O/c7-3-5(9)6-1-4(2-6)8-6/h4-5,8-9H,1-2H2/t4-,5-,6+/m0/s1
