19
gdb 17825	4.56309	1.31449	1.13456	1.6442	72.41	-0.2233	0.072	0.2953	1094.68	0.165385	-365.003561	-364.995382	-364.994438	-365.036842	29.689	
C	-0.3786053085	 1.3391446532	-0.1527823327	-0.31244
N	 0.0472718811	-0.0415865861	 0.0327051776	-0.085801
C	 1.4432190773	-0.3674130925	-0.2171651031	-0.256981
C	 0.8925566828	-0.4154285809	 1.1692553976	 0.003509
C	 1.3623826772	 0.560170774	 2.2143155113	 0.139881
C	 0.5318253006	 0.6910587755	 3.5145943701	-0.298961
C	 1.8349405418	 0.2718096502	 4.2200654755	-0.06165
O	 2.4917775586	 0.0317971018	 2.9568403047	-0.292969
H	 0.4035066404	 2.0938185792	 0.0224874835	 0.103104
H	-0.7259697853	 1.456118407	-1.1844600086	 0.12567
H	-1.2217075864	 1.5540822521	 0.5119660347	 0.122951
H	 1.6347982284	-1.2834786787	-0.7696277343	 0.116636
H	 2.1257530239	 0.4520818509	-0.4439999865	 0.107905
H	 0.6417659859	-1.3903921569	 1.5873138511	 0.088281
H	 1.6212642806	 1.5263251595	 1.7638718751	 0.07085
H	 0.1463236842	 1.6851102805	 3.7451826096	 0.10966
H	-0.2781156182	-0.0373293948	 3.5920135072	 0.11424
H	 2.3295161505	 1.0683642608	 4.7911315378	 0.100068
H	 1.7938687051	-0.6323551149	 4.8379221996	 0.106044
57.9941	82.3854	143.5076	217.4711	235.6827	345.4134	360.7383	416.3874	519.3529	728.7622	766.543	818.9181	860.8815	908.5513	942.2512	965.6069	1000.8738	1023.8634	1032.3302	1073.925	1105.6208	1121.5711	1129.6782	1162.7087	1167.1061	1199.6787	1207.6552	1222.1075	1256.2288	1280.9647	1318.3148	1332.1429	1357.0016	1442.2242	1450.8933	1488.9017	1490.495	1505.0163	1511.5652	1532.4294	2980.1275	3012.5093	3025.1554	3057.9866	3065.7228	3076.9974	3082.9637	3098.7517	3104.099	3133.7989	3173.652
CN1CC1C1CCO1	CN1C[C@H]1[C@H]1CCO1	
InChI=1S/C6H11NO/c1-7-4-5(7)6-2-3-8-6/h5-6H,2-4H2,1H3	InChI=1S/C6H11NO/c1-7-4-5(7)6-2-3-8-6/h5-6H,2-4H2,1H3/t5-,6+,7?/m0/s1
