24
gdb 58351	2.10837	1.11815	1.07382	3.7944	86.19	-0.2361	0.0298	0.2659	1383.5213	0.214816	-405.58502	-405.573683	-405.572739	-405.622341	41.068	
C	-0.0545074725	 1.5492404341	-0.0021547186	-0.384324
C	 0.0792900325	 0.0189280499	 0.0076006844	 0.029594
C	 0.6949542392	-0.5142861343	-1.2948517484	-0.384287
N	 0.7854928265	-0.4770980344	 1.208864614	-0.048172
C	 2.0840963395	-0.1373732918	 1.4200275954	 0.153185
O	 2.7724177482	-0.4794839331	 2.3654279718	-0.362596
C	 0.0740841928	-1.3426723837	 2.177942801	 0.041652
C	 0.6998153243	-2.7422964619	 2.2654055764	-0.389997
C	-0.0488837358	-0.6796812634	 3.5575677061	-0.389997
H	 0.9180703252	 2.0386929836	-0.1120801118	 0.12514
H	-0.6827687085	 1.8680137682	-0.8401108749	 0.118421
H	-0.5105870145	 1.905957755	 0.9254272881	 0.125141
H	-0.9306070225	-0.3946508397	 0.0822099006	 0.094164
H	 1.6997808953	-0.1134951205	-1.4598134835	 0.125129
H	 0.7643200716	-1.6053737809	-1.2745146505	 0.125129
H	 0.0774263322	-0.2239921585	-2.1509216988	 0.118417
H	 2.4858989398	 0.5111080956	 0.6181751627	 0.073323
H	-0.9359624225	-1.4536319092	 1.7698619263	 0.081618
H	 1.7110384062	-2.6844608257	 2.6703029028	 0.158079
H	 0.0939060195	-3.3791646898	 2.9179801293	 0.109465
H	 0.744085258	-3.2124011039	 1.2780770605	 0.106685
H	-0.5312466008	 0.2995423744	 3.4785156653	 0.106668
H	-0.6581460043	-1.3061668668	 4.2170069743	 0.109438
H	 0.9359465408	-0.5486756331	 4.0078673273	 0.158127
18.2577	51.059	146.3614	217.4447	226.8418	229.6941	233.4767	247.951	257.0606	275.1756	300.896	358.8723	371.1593	466.7372	499.275	514.1295	636.4069	780.26	860.7983	916.7838	923.4643	926.1552	939.9696	947.4391	1033.9716	1082.9599	1130.8354	1140.0386	1143.8996	1146.5523	1203.7489	1222.5002	1308.4258	1344.5389	1349.4358	1377.2448	1389.0439	1401.0775	1408.6859	1419.9389	1446.2024	1477.4441	1478.439	1482.1514	1489.569	1493.3163	1502.3262	1505.3426	1508.619	1521.3568	1775.3416	2938.4345	3036.0283	3036.9231	3039.6227	3041.3246	3045.3888	3060.2661	3103.0399	3105.739	3107.0402	3113.8665	3116.7775	3120.0711	3148.0351	3152.1353
CC(C)N(C=O)C(C)C	CC(C)N(C=O)C(C)C	
InChI=1S/C7H15NO/c1-6(2)8(5-9)7(3)4/h5-7H,1-4H3	InChI=1S/C7H15NO/c1-6(2)8(5-9)7(3)4/h5-7H,1-4H3
