17
gdb 43791	2.4702	1.69263	1.18822	1.517	75.22	-0.2484	0.012	0.2604	1060.1357	0.136087	-417.95819	-417.950329	-417.949384	-417.99053	30.365	
N	-0.030011317	 1.1113623427	-0.4757814681	-0.565083
C	-0.0448473422	-0.053805423	-0.0138455267	 0.391629
O	 0.9491503856	-0.8424016702	 0.5401458203	-0.308038
C	 0.0339901311	-1.9690506925	 0.6709629495	 0.418276
C	 0.4419175343	-3.3613868791	 0.3595104245	-0.326326
C	 0.1204994193	-2.9394042842	 1.7910961379	-0.339752
C	-1.0855179451	-1.118543415	 0.1243335809	 0.100423
C	-2.5129427452	-0.947835664	 0.4724711224	-0.29695
N	-2.1098031046	-1.5006877669	-0.8307219687	-0.361289
H	 0.8960442665	 1.5359766659	-0.4185203427	 0.233169
H	-0.2700542888	-3.9789061486	-0.1775429089	 0.138344
H	 1.483773517	-3.5344599322	 0.1140212246	 0.132908
H	 0.954097069	-2.8314323143	 2.4763165008	 0.134159
H	-0.8020981919	-3.2845814169	 2.2462808021	 0.125246
H	-2.9901127341	-1.6592024368	 1.1406941138	 0.1282
H	-2.8899989279	 0.0698687959	 0.5237428491	 0.140593
H	-2.1744069961	-0.7906313507	-1.5579722609	 0.25449
105.0752	172.8501	181.7092	215.1222	251.9019	338.4961	501.3379	518.2551	548.2719	607.4387	698.421	756.6862	811.6639	846.2039	860.0759	869.1475	915.6156	943.7582	968.261	983.5535	1003.732	1029.1429	1049.2796	1053.7258	1074.1167	1124.8437	1168.3326	1184.4266	1242.2742	1270.2162	1285.8485	1377.0622	1447.8481	1454.352	1499.4732	1526.5627	1832.7944	3111.3046	3132.4197	3137.5219	3203.193	3217.6321	3232.3988	3490.9147	3492.1729
N=C1OC2(CC2)C11CN1	[NH][C]1OC2(CC2)[C@]21CN2	
InChI=1S/C6H8N2O/c7-4-6(3-8-6)5(9-4)1-2-5/h7-8H,1-3H2	InChI=1S/C6H8N2O/c7-4-6(3-8-6)5(9-4)1-2-5/h7-8H,1-3H2/t6-/m1/s1
