23
gdb 60000	3.42297	0.81185	0.69279	2.8609	82.8	-0.2465	0.0657	0.3123	1687.003	0.204217	-425.417055	-425.406679	-425.405734	-425.452735	38.877	
C	-0.020065334	 1.5514806001	-0.094064882	-0.383154
C	 0.0033430967	 0.0357855673	 0.0678993799	 0.146189
O	 0.6309518342	-0.2406636544	 1.3096482009	-0.451177
C	-1.4058612571	-0.5755416177	-0.0069341012	-0.215786
C	-1.4259760608	-2.1099802623	 0.0180576866	 0.091652
O	-0.7933789786	-2.6288702261	 1.2067776472	-0.435373
C	-2.8182617219	-2.673121745	-0.1495890678	 0.005271
C	-3.3404271421	-3.011640083	-1.5248471928	-0.26562
C	-3.0038803544	-4.1124852376	-0.5521994897	-0.272893
H	 0.9927825496	 1.9512131161	 0.0053529151	 0.122684
H	-0.414797736	 1.8386946295	-1.0735263128	 0.104008
H	-0.6417246794	 2.0082707051	 0.6830706562	 0.11533
H	 0.5985252939	-0.3929675278	-0.7605642887	 0.053496
H	 0.4839811722	-1.181979406	 1.4820134809	 0.282724
H	-2.0032314533	-0.1887533044	 0.8313383498	 0.088583
H	-1.8977381312	-0.244725399	-0.9300502953	 0.100411
H	-0.7935028585	-2.4873820069	-0.7959781599	 0.086392
H	-1.3866861094	-2.4611103474	 1.9483165929	 0.283582
H	-3.5475617258	-2.2656425144	 0.5490193416	 0.078126
H	-4.38345785	-2.8101321048	-1.7412106667	 0.115232
H	-2.6765002711	-2.8592061668	-2.3697477495	 0.114945
H	-2.1088797752	-4.6977531545	-0.7336517487	 0.121873
H	-3.8175323377	-4.67180522	-0.104435606	 0.113504
64.2023	66.8589	126.1421	142.0215	228.7263	237.0643	272.7959	284.2382	329.0297	345.6599	451.913	482.9421	487.5339	549.7076	641.3258	772.8442	828.6763	839.2113	853.8096	897.897	934.5307	942.9106	961.2808	992.8128	1058.7355	1062.9331	1078.2991	1081.3769	1111.5551	1132.5832	1136.6847	1183.215	1196.7905	1219.312	1225.9954	1277.6667	1301.55	1338.0384	1359.2682	1385.6645	1402.957	1406.8793	1431.26	1459.2404	1471.4828	1476.2219	1487.5439	1500.6392	1507.0493	2916.7277	3007.648	3029.7608	3037.8222	3063.0315	3109.6336	3116.9409	3119.0367	3131.914	3137.9717	3210.6016	3225.7504	3710.9037	3796.1314
CC(O)CC(O)C1CC1	C[C@@H](O)C[C@@H](O)C1CC1	
InChI=1S/C7H14O2/c1-5(8)4-7(9)6-2-3-6/h5-9H,2-4H2,1H3	InChI=1S/C7H14O2/c1-5(8)4-7(9)6-2-3-6/h5-9H,2-4H2,1H3/t5-,7-/m1/s1
