21
gdb 76301	1.80803	1.71479	1.23756	1.4574	83.46	-0.2489	0.0382	0.2871	1150.8826	0.180357	-387.052575	-387.042612	-387.041668	-387.08675	37.872	
C	-0.3672055117	 1.4434142386	 0.1652685184	-0.412922
C	-0.0649364759	-0.0459774755	 0.0147879426	-0.048753
C	 0.7735134781	-0.4698403136	-1.2361733361	 0.022439
C	 0.7731708779	 0.3807989483	-2.4961580795	-0.415556
C	 2.0667483416	-0.5307253268	-0.3397003211	-0.265592
C	 2.9141902325	 0.6442780209	-0.3626763564	 0.329972
C	 3.6054512229	 1.6302584728	-0.3163295264	-0.469539
C	 1.1074957792	-0.5592116087	 0.9111716939	 0.148735
O	 1.4728403089	 0.1397327288	 2.0632881292	-0.428116
H	 0.5184967255	 2.0675025724	 0.0155332251	 0.12109
H	-1.123952051	 1.7639476235	-0.5577429717	 0.113306
H	-0.750881506	 1.6470560195	 1.1695206676	 0.12524
H	-0.9945524804	-0.610543611	 0.1387147411	 0.066265
H	 0.516675585	-1.5009359238	-1.5001096283	 0.078625
H	 1.0782057662	 1.4103332185	-2.2926252828	 0.128119
H	 1.4648892855	-0.0271703385	-3.2411556389	 0.116197
H	-0.224739915	 0.4037735084	-2.9471702162	 0.114567
H	 2.6827362065	-1.4252978696	-0.4716263698	 0.099428
H	 4.2336745569	 2.486695182	-0.3088056315	 0.201559
H	 0.9374688143	-1.595222698	 1.2172825515	 0.090225
H	 1.935375869	 0.9418909718	 1.7881142792	 0.284711
85.4224	129.2762	163.0955	204.355	207.4796	230.2141	244.4144	322.5699	341.7169	388.9262	464.7202	488.6448	533.2054	620.7498	630.0937	641.1757	728.179	760.0198	799.3893	843.6823	884.1015	980.6629	1007.2379	1032.3706	1047.721	1109.6104	1128.7083	1150.3582	1172.1076	1184.5244	1246.2152	1256.0771	1274.7203	1312.8247	1341.9499	1367.4797	1378.1592	1410.445	1414.4393	1442.7782	1486.7979	1494.2749	1500.9043	1509.0104	2215.1463	3033.7452	3039.5234	3039.9389	3051.2547	3057.8504	3075.8775	3094.6199	3106.4985	3113.0465	3120.6444	3499.6833	3759.0411
CC1C(C)C(C#C)C1O	C[C@H]1[C@@H](C)[C@@H](C#C)[C@H]1O	
InChI=1S/C8H12O/c1-4-7-5(2)6(3)8(7)9/h1,5-9H,2-3H3	InChI=1S/C8H12O/c1-4-7-5(2)6(3)8(7)9/h1,5-9H,2-3H3/t5-,6+,7-,8+/m1/s1
