21
gdb 115569	2.67911	1.0817	1.00779	3.7465	79.34	-0.2376	-0.0233	0.2143	1329.009	0.179574	-424.222392	-424.212268	-424.211324	-424.257914	36.247	
C	 0.0601049788	 1.6454776807	-0.0483791291	-0.387271
C	-0.1615556977	 0.1325126435	-0.1581229012	-0.206046
C	 0.7383959687	-0.5044266893	-1.2123636035	-0.079015
C	 2.2182124861	-0.715163107	-0.8177576087	-0.081178
O	 2.0636731309	-2.1479755082	-0.7891606413	-0.298248
C	 0.7421407386	-2.0722557935	-1.3449329317	 0.304089
C	-0.2677102817	-2.9084947105	-0.5724453872	-0.459921
C	 0.727667146	-2.4489668894	-2.8213292528	 0.124954
O	 1.7028699662	-2.6731603817	-3.4856151588	-0.246605
H	 1.0988221845	 1.8787172176	 0.2095076408	 0.122745
H	-0.1669957784	 2.14837958	-0.9946372877	 0.119853
H	-0.5789169156	 2.0819536605	 0.7247621182	 0.119299
H	 0.0241922913	-0.3351140751	 0.8161935579	 0.108002
H	-1.2122987833	-0.0664418789	-0.4032895554	 0.101662
H	 0.6013819139	 0.009832405	-2.1693959357	 0.081081
H	 2.952719039	-0.4014344929	-1.5680559745	 0.11439
H	 2.5085230015	-0.3192196652	 0.1629659136	 0.101761
H	-0.3299974447	-2.5870552005	 0.4685372335	 0.13175
H	-1.2648627785	-2.8414633693	-1.0198480996	 0.122325
H	 0.0429662956	-3.9583407356	-0.58518786	 0.139734
H	-0.2978995612	-2.4622880602	-3.2651976368	 0.066641
60.8568	70.1961	115.1975	163.9187	198.5166	224.143	255.1193	278.0328	291.3609	361.3531	395.0284	438.8207	612.633	727.048	784.7479	825.6309	866.1837	883.1522	912.811	964.7689	978.2074	993.4422	1035.5374	1060.0792	1107.1658	1141.4387	1158.0442	1189.0123	1213.8468	1219.0238	1262.8621	1298.8856	1334.2365	1355.6958	1393.9756	1401.1956	1415.8011	1416.8106	1479.2008	1485.7004	1496.8055	1501.6433	1506.5388	1521.7561	1841.1588	2834.1135	3019.4682	3025.3674	3034.0587	3041.4991	3044.0351	3062.0709	3071.103	3102.033	3107.6896	3108.8832	3135.805
CCC1COC1(C)C=O	CC[C@H]1CO[C@]1(C)C=O	
InChI=1S/C7H12O2/c1-3-6-4-9-7(6,2)5-8/h5-6H,3-4H2,1-2H3	InChI=1S/C7H12O2/c1-3-6-4-9-7(6,2)5-8/h5-6H,3-4H2,1-2H3/t6-,7+/m0/s1
