14
gdb 61118	2.50783	1.24858	1.00642	3.1955	68.51	-0.2803	-0.077	0.2034	1170.8356	0.09665	-436.657647	-436.648223	-436.647279	-436.692243	33.177	
O	-0.0413943739	 1.45809873	-0.0023318914	-0.427747
C	 0.0015683481	 0.0669093188	-0.0353596208	 0.127551
C	 0.708238014	-0.4317219158	-1.3313704108	-0.385879
C	 0.0112851072	-0.0292206975	-2.5414566992	 0.311412
C	-0.5700425898	 0.2997113492	-3.5386668621	-0.410654
C	 0.7893654102	-0.4589643092	 1.1860479061	 0.127442
O	 1.2467652367	 0.3073629298	 1.9897923829	-0.239926
C	-1.354659833	-0.5228991245	 0.0674668546	 0.263154
N	-2.3922415535	-1.0165603726	 0.1888139509	-0.315968
H	 0.3417757531	 1.7175260043	 0.8528151043	 0.306234
H	 1.7215497802	-0.0133127504	-1.3159291537	 0.154826
H	 0.7991197294	-1.5244648511	-1.2913210625	 0.14705
H	-1.0876691419	 0.5900860724	-4.4195510429	 0.209795
H	 0.9016985733	-1.5560261034	 1.2651533346	 0.132712
63.4947	93.0667	112.4334	183.77	200.3111	293.5405	327.5067	335.097	368.1553	440.7284	454.1305	509.6418	571.9229	636.0627	664.9681	704.4976	817.2097	888.087	922.8981	991.7441	1018.6865	1109.1536	1170.2283	1282.3832	1328.0057	1381.6274	1422.3099	1454.4225	1830.6053	2250.263	2352.2963	2973.4165	3027.2306	3071.1083	3504.8552	3668.6845
OC(CC#C)(C=O)C#N	O[C@@](CC#C)(C=O)C#N	
InChI=1S/C6H5NO2/c1-2-3-6(9,4-7)5-8/h1,5,9H,3H2	InChI=1S/C6H5NO2/c1-2-3-6(9,4-7)5-8/h1,5,9H,3H2/t6-/m1/s1
