16
gdb 36388	6.03205	0.67103	0.65545	4.6992	76.05	-0.2753	0.0234	0.2987	1654.9294	0.121783	-400.702721	-400.693433	-400.692489	-400.738178	32.627	
C	 0.1170093777	-1.0984637237	-0.7005414437	-0.418128
C	 0.0299538725	 0.0038443217	-0.2318369473	 0.290025
C	-0.0489209794	 1.3409054587	 0.3466429451	-0.389977
C	 1.3139958729	 2.0133779828	 0.4172410414	 0.061638
O	 1.7799001231	 2.6967437557	-0.747457284	-0.236324
C	 1.5260578356	 3.4689658071	 0.4226485217	 0.055385
C	 0.3969446508	 4.4869886008	 0.3546710349	-0.372178
C	 0.8376099207	 5.754519464	-0.2290734999	 0.264473
N	 1.1950470668	 6.7567393003	-0.678309943	-0.293544
H	 0.1853783552	-2.0701002648	-1.1236641534	 0.204042
H	-0.7398466706	 1.9545449582	-0.2402286791	 0.139791
H	-0.4612237307	 1.2773794923	 1.3629475654	 0.140989
H	 2.0752389449	 1.4032960581	 0.9049622548	 0.113876
H	 2.4233360286	 3.8452957727	 0.9153914214	 0.117451
H	-0.4351648637	 4.0996493652	-0.2386489972	 0.162053
H	 0.0193863457	 4.6855825908	 1.3652419429	 0.160428
35.6644	61.5658	94.3944	149.8982	207.2247	318.5847	330.1873	382.4856	402.7644	475.2643	514.0469	578.4536	628.7833	655.0531	789.3866	837.5656	889.3472	947.5086	959.5567	979.7706	1041.8012	1063.2287	1147.1441	1159.268	1235.7748	1248.4213	1298.5427	1311.1248	1329.4387	1404.4755	1444.8332	1456.5217	1492.0733	2245.3886	2367.6911	3020.9912	3045.3922	3075.0518	3099.8635	3107.9492	3118.2875	3505.7099
C#CCC1OC1CC#N	C#CC[C@H]1O[C@H]1CC#N	
InChI=1S/C7H7NO/c1-2-3-6-7(9-6)4-5-8/h1,6-7H,3-4H2	InChI=1S/C7H7NO/c1-2-3-6-7(9-6)4-5-8/h1,6-7H,3-4H2/t6-,7+/m1/s1
