18
gdb 95098	2.4754	1.58293	1.17757	3.2827	77.38	-0.2294	0.014	0.2435	1084.4728	0.14945	-398.119925	-398.111745	-398.110801	-398.15247	31.386	
C	 0.1208635611	 1.586927049	-0.0505390556	-0.39938
C	 0.0600668558	 0.0640611617	 0.0220827592	-0.007965
N	 0.7671334026	-0.5560599693	-1.107007837	-0.318362
C	 1.2561418136	-1.8828374364	-0.7268128235	-0.16498
C	 1.5427765894	-1.7396774432	 0.7546549793	-0.090455
N	 2.2635805747	-0.5094390206	 1.1078100572	-0.34586
C	 0.7817156961	-0.545269379	 1.2261179163	 0.216773
C	 0.1721913626	-0.4879507954	 2.5225710517	 0.195364
N	-0.3170209677	-0.4211992462	 3.5693042184	-0.343
H	 1.1626954417	 1.9150612746	-0.0484135741	 0.143517
H	-0.3532897121	 1.9443564227	-0.9699427717	 0.113988
H	-0.405202713	 2.0393754087	 0.7962228342	 0.124331
H	-0.9940542262	-0.2577043661	 0.1013717042	 0.073829
H	 0.2107713199	-0.5655171591	-1.9515901265	 0.226949
H	 0.5209098847	-2.6967341926	-0.8512935841	 0.093525
H	 2.1498016965	-2.1424716861	-1.3063844882	 0.117772
H	 1.6521227336	-2.6222182335	 1.3746738116	 0.114978
H	 2.6688847068	-0.6131507291	 2.0363448084	 0.248975
112.997	148.0952	178.3135	236.0321	258.7616	331.925	398.7189	485.8339	489.3759	558.0674	580.8518	612.4757	651.6797	801.2275	848.6068	862.4821	925.5214	952.2835	992.3042	1044.0959	1066.2905	1083.463	1096.3813	1127.0603	1134.6391	1164.6999	1221.7604	1262.1948	1284.5265	1325.5217	1371.6314	1388.6936	1405.8715	1422.2229	1449.7247	1492.9796	1498.5698	1511.8748	2348.5306	2934.7536	2953.3651	3041.0271	3049.6368	3106.9855	3135.6856	3185.0523	3495.2249	3572.7678
CC1NCC2NC12C#N	C[C@H]1NC[C@H]2N[C@@]12C#N	
InChI=1S/C6H9N3/c1-4-6(3-7)5(9-6)2-8-4/h4-5,8-9H,2H2,1H3	InChI=1S/C6H9N3/c1-4-6(3-7)5(9-6)2-8-4/h4-5,8-9H,2H2,1H3/t4-,5-,6+/m1/s1
