18
gdb 51624	6.78187	0.70514	0.69381	4.1092	75.28	-0.2532	0.007	0.2602	1601.3093	0.146936	-439.065176	-439.056611	-439.055666	-439.099588	31.268	
O	-1.0509387588	 0.5349327382	-0.4304124899	-0.273877
C	-0.5461246934	 1.5968851932	-0.2259983039	 0.162503
O	 0.7684387343	 1.7440915819	 0.0275000399	-0.186685
C	 1.277489645	 3.0508644818	 0.2666900841	 0.143425
C	 2.1088030789	 3.2086621387	 1.5646255836	-0.345265
C	 3.1347840151	 3.982794266	 0.7248022755	 0.368157
C	 3.6548921998	 5.3385812922	 1.0038807287	-0.305453
N	 4.5560574962	 4.1654219958	 0.962709666	-0.361635
C	 2.5170034537	 3.4475804882	-0.5724480959	-0.321911
H	-1.0932139269	 2.560533471	-0.2227060888	 0.077387
H	 0.467782124	 3.7849377176	 0.1964724677	 0.09322
H	 1.6393743825	 3.7102090097	 2.4143975394	 0.110354
H	 2.4920996789	 2.2334970656	 1.8818958955	 0.12767
H	 3.7984747418	 6.0489017568	 0.1935925676	 0.12241
H	 3.4237065094	 5.7889255122	 1.9664993776	 0.113857
H	 4.7989629466	 3.8741293804	 1.9069762372	 0.232756
H	 3.0407296175	 2.5563898748	-0.9294195183	 0.131626
H	 2.3673103656	 4.1409276459	-1.4025304961	 0.11146
41.6008	57.4611	150.3254	245.6114	276.2573	303.1103	331.5249	402.3756	433.6434	546.3841	620.9408	782.4228	818.3685	853.8828	884.0641	921.6304	960.3382	974.0054	997.7368	1020.1269	1044.0261	1059.1562	1082.3401	1120.3717	1147.5782	1175.5933	1216.6877	1230.7587	1252.1602	1260.8052	1266.6439	1299.2571	1383.5338	1422.536	1444.3415	1464.7282	1492.1129	1517.634	1868.0454	2941.2879	3049.9411	3053.0932	3066.7755	3100.1239	3112.642	3125.9138	3185.3094	3492.3142
O=COC1CC2(CN2)C1	O=CO[C@H]1C[C@]2(CN2)C1	
InChI=1S/C6H9NO2/c8-4-9-5-1-6(2-5)3-7-6/h4-5,7H,1-3H2	InChI=1S/C6H9NO2/c8-4-9-5-1-6(2-5)3-7-6/h4-5,7H,1-3H2/t5-,6+
