17
gdb 114575	2.64656	1.27327	0.99932	4.8812	74.89	-0.2348	-0.0031	0.2318	1214.6572	0.135539	-417.965382	-417.956811	-417.955866	-417.998906	31.421	
C	 0.080934441	 1.4143096889	-0.2503406983	-0.319261
N	-0.1232853998	 0.0962791008	 0.3372871393	-0.287123
C	-1.4047902343	-0.4840987035	 0.0730574551	-0.035968
C	-1.8115573805	-1.0461749135	-1.3664431799	-0.281353
C	-1.9600496208	-2.4245316994	-0.7275011642	-0.044929
O	-0.6997928909	-2.7619462994	-0.1420864612	-0.276522
C	-1.5809942178	-1.9157168571	 0.6127234703	 0.313761
C	-1.9668899414	-2.3275715143	 1.9262736731	 0.200582
N	-2.3023450327	-2.6170415299	 2.9943701517	-0.338719
H	 1.0877275543	 1.7652465441	-0.0089403794	 0.12927
H	-0.041141167	 1.4484649776	-1.3466766328	 0.101331
H	-0.6316380618	 2.1229734788	 0.1862625949	 0.127662
H	 0.6038734267	-0.5471728651	 0.0434325	 0.232061
H	-2.192449643	 0.176292293	 0.4486937048	 0.107404
H	-2.7507109911	-0.6278082746	-1.7341561979	 0.119052
H	-1.0463383998	-0.9883694171	-2.143608549	 0.11934
H	-2.6238025811	-3.2439715693	-0.9747055066	 0.133413
83.8569	129.5166	148.4389	170.9546	205.1288	288.4577	376.4033	416.3102	493.1983	547.3653	577.4581	647.0636	728.1433	769.2632	845.172	864.538	927.9285	948.0842	1000.9714	1011.4843	1048.9384	1128.1515	1144.8339	1147.8743	1162.4857	1193.1491	1251.7121	1262.6241	1271.5597	1354.2125	1405.8479	1460.3996	1468.2518	1488.8861	1501.7481	1521.5913	2357.9687	2956.7409	3061.123	3069.8132	3074.1684	3112.1037	3134.2608	3203.8589	3532.7134
CNC1CC2OC12C#N	CN[C@H]1C[C@H]2O[C@@]12C#N	
InChI=1S/C6H8N2O/c1-8-4-2-5-6(4,3-7)9-5/h4-5,8H,2H2,1H3	InChI=1S/C6H8N2O/c1-8-4-2-5-6(4,3-7)9-5/h4-5,8H,2H2,1H3/t4-,5+,6-/m0/s1
