13
gdb 21582	7.37477	1.31329	1.11616	5.5346	65.76	-0.2189	-0.0412	0.1777	983.2255	0.097117	-394.806595	-394.799641	-394.798697	-394.837741	25.446	
N	 0.0136616291	 1.4475364363	 0.1524882735	-0.605232
C	-0.0203601371	 0.0574236416	 0.0448731429	 0.16088
C	-1.0969059278	-0.7899235212	 0.0301788993	-0.094059
N	-0.5860445598	-2.0777396182	-0.0031051062	-0.011062
C	-1.3449639979	-3.2510987711	-0.0291277386	 0.188996
O	-0.9030428113	-4.3633081618	-0.0676434261	-0.264654
N	 0.7695438876	-2.0894381491	-0.0148377606	-0.222094
C	 1.1120642227	-0.8180536906	 0.0175443895	-0.00885
H	 0.8202943317	 1.8648873754	-0.2912839189	 0.253192
H	-0.8297546715	 1.9053808561	-0.1642806779	 0.250796
H	-2.1590432363	-0.607176778	 0.0434318221	 0.136932
H	-2.4237138024	-3.0064071444	-0.0092086073	 0.093068
H	 2.157579893	-0.540472835	 0.0216139983	 0.122088
107.0095	207.5489	219.9428	270.2157	340.9469	371.6509	505.4619	611.1834	661.1236	684.4266	720.3456	753.5846	829.6195	885.6993	974.6354	1022.0417	1022.9483	1104.0738	1203.509	1242.0963	1298.2144	1394.191	1447.5524	1457.7829	1465.5683	1648.8115	1674.743	1848.0105	2961.3384	3231.3081	3266.6089	3553.1432	3644.2158
NC1=CN(C=O)N=C1	Nc1cn(C=O)nc1	
InChI=1S/C4H5N3O/c5-4-1-6-7(2-4)3-8/h1-3H,5H2	InChI=1S/C4H5N3O/c5-4-1-6-7(2-4)3-8/h1-3H,5H2
