16
gdb 10096	2.73043	1.69811	1.06098	2.9684	67.08	-0.2467	-0.011	0.2357	1084.3341	0.128705	-417.08012	-417.070844	-417.069899	-417.115384	30.812	
C	-0.0736100123	 1.5037553087	 0.008039326	-0.224773
O	-0.0348958209	 0.0757883316	-0.0310050301	-0.22102
C	-1.2177534754	-0.539372834	 0.0133395828	 0.522895
N	-1.0848031162	-1.9356211695	-0.029665855	-0.388083
C	 0.0428042352	-2.7405020372	-0.1020669477	 0.162894
O	 1.1918876899	-2.3947846621	-0.1449133329	-0.269468
N	-2.3187501923	 0.0870753333	 0.0842036749	-0.347151
C	-3.566312075	-0.6480696458	 0.1285678731	-0.344663
H	 0.9692026895	 1.8182826907	-0.0364191287	 0.13551
H	-0.6346130349	 1.8997221734	-0.8423708536	 0.136974
H	-0.5451385952	 1.8536287597	 0.9299758554	 0.136981
H	-1.9608310827	-2.4336175006	-0.0021151307	 0.25962
H	-0.2708018138	-3.805072793	-0.1160183806	 0.079677
H	-3.735074664	-1.2600500405	-0.7723203237	 0.113117
H	-3.6416939075	-1.3121290884	 1.0049042232	 0.11293
H	-4.3965301344	 0.0593759637	 0.1928259176	 0.134561
22.8367	107.6807	137.4938	163.528	170.1889	223.5708	239.006	279.9056	305.4091	475.7374	583.8192	608.8224	733.1881	791.7472	852.905	1026.6998	1067.0127	1086.1504	1115.4953	1139.9138	1181.6293	1184.1814	1234.9662	1350.8758	1437.4815	1455.7689	1475.9679	1476.5355	1481.9555	1500.3542	1510.9068	1522.0798	1752.5591	1849.5181	2916.5764	2959.7277	3004.8889	3049.8356	3101.1891	3123.3993	3157.911	3635.4172
COC(NC=O)=NC	COC(=NC)NC=O	
InChI=1S/C4H8N2O2/c1-5-4(8-2)6-3-7/h3H,1-2H3,(H,5,6,7)	InChI=1S/C4H8N2O2/c1-5-4(8-2)6-3-7/h3H,1-2H3,(H,5,6,7)
