16
gdb 50212	3.93536	1.37146	1.22354	4.2656	67.71	-0.227	-0.0212	0.2058	1006.7511	0.125233	-437.830496	-437.823553	-437.822609	-437.862455	27.009	
O	-0.7556579335	 0.8464737454	 0.6321439089	-0.257675
C	 0.1860463482	 0.7730974982	-0.1147518972	 0.173015
C	 1.4129552401	 1.6702292064	-0.0166910184	-0.067585
N	 2.6405064036	 0.9027171414	-0.3212194468	-0.324347
C	 3.4478209572	 1.7456803857	-1.1952461849	-0.046754
C	 2.7973870296	 2.2018104218	-2.4835077359	 0.105356
O	 1.3800421892	 2.0540372023	-2.3975937395	-0.300977
C	 1.4118431984	 2.753273139	-1.1109216256	 0.055685
C	 2.8918716827	 3.1477920899	-1.3124776238	-0.18211
H	 0.2419600416	 0.0389563878	-0.9425666909	 0.102441
H	 1.41909694	 2.1402375671	 0.9761878834	 0.088048
H	 3.1493581547	 0.6942548526	 0.5292104159	 0.231926
H	 4.5162199304	 1.5665384723	-1.1986041182	 0.104695
H	 3.2524679063	 2.1961749088	-3.4670783805	 0.111033
H	 0.6338868976	 3.5115294625	-1.0303645646	 0.103001
H	 3.3710767839	 4.1028470189	-1.1484544518	 0.104247
57.5173	127.4984	270.1078	352.6125	432.8672	479.9398	546.7242	662.2329	707.9035	743.0516	789.4596	821.3885	863.2821	888.2187	908.172	935.2357	965.8315	1003.4909	1030.9164	1041.5027	1050.6991	1063.4025	1095.7307	1109.476	1125.6869	1210.0193	1237.6743	1261.3104	1262.5059	1287.4516	1342.1684	1388.7774	1402.2935	1447.8449	1827.6582	2947.025	3019.0291	3130.6784	3181.8436	3193.2189	3208.7808	3549.5385
O=CC1NC2C3OC1C23	O=C[C@H]1N[C@H]2[C@H]3O[C@@H]1[C@@H]23	
InChI=1S/C6H7NO2/c8-1-2-5-3-4(7-2)6(3)9-5/h1-7H	InChI=1S/C6H7NO2/c8-1-2-5-3-4(7-2)6(3)9-5/h1-7H/t2-,3-,4-,5+,6+/m1/s1
