14
gdb 15938	3.57821	2.0024	1.57271	1.9482	58.07	-0.2584	-0.0524	0.2061	804.7587	0.106152	-419.630286	-419.623433	-419.622489	-419.661647	24.784	
O	-0.756834413	 1.0963077919	 0.6679088694	-0.248901
C	 0.1992114528	 0.8365532045	-0.0189909207	 0.083781
C	 1.3947606828	 1.7320522714	-0.1407097585	 0.283152
C	 1.7384257186	 2.7222117392	 0.9856016675	-0.122019
O	 1.9013237719	 3.8145494253	 0.0409080508	-0.282492
C	 1.5233574648	 2.9885659201	-1.0599468951	 0.024143
C	 2.6912061299	 2.2182680671	-1.6975927181	-0.103215
O	 2.5286177697	 1.1156110352	-0.7642988352	-0.332086
H	 0.2628979868	-0.086807205	-0.6339639228	 0.09675
H	 0.900511441	 2.9060382664	 1.6655146441	 0.133775
H	 2.6554435437	 2.4961079287	 1.5375218962	 0.121687
H	 0.7488448867	 3.4276465382	-1.6907707375	 0.106858
H	 2.5237103928	 1.8874478459	-2.7296114955	 0.114369
H	 3.6654861316	 2.7085630509	-1.6087265445	 0.124198
100.0113	136.2425	223.7948	245.9879	380.6135	407.32	509.7191	671.8745	734.0342	813.0904	857.102	913.4813	951.8586	988.2467	1002.549	1041.1776	1074.5279	1116.0621	1137.9012	1158.6641	1181.2029	1186.8085	1252.1319	1310.0981	1336.732	1355.1815	1399.7173	1499.4066	1502.7509	1816.9803	2909.4487	3028.1247	3044.3565	3092.9248	3105.4878	3109.6301
O=CC12COC1CO2	O=C[C@]12CO[C@H]1CO2	
InChI=1S/C5H6O3/c6-2-5-3-7-4(5)1-8-5/h2,4H,1,3H2	InChI=1S/C5H6O3/c6-2-5-3-7-4(5)1-8-5/h2,4H,1,3H2/t4-,5-/m0/s1
