19
gdb 96539	1.93141	1.7331	1.37736	2.6068	71.4	-0.2378	-0.0205	0.2174	1054.7179	0.160059	-460.174662	-460.166163	-460.165219	-460.207652	32.413	
O	 0.0854021375	 1.4965908634	 0.1531715804	-0.422297
C	 0.0591182156	 0.0723094715	 0.0863618656	-0.026144
C	-1.4152739821	-0.3705508336	 0.1750249358	-0.076832
O	-2.0698117937	-0.5557782358	-1.0621320356	-0.252462
C	-2.0164169771	 0.5287321722	-1.9850455452	-0.083661
C	-0.9187909659	 0.2900528217	-3.024253404	-0.199222
C	 0.5206169316	 0.3547921223	-2.4652479577	-0.289339
C	 0.6966593578	-0.4814948361	-1.2057604821	 0.36376
O	 1.2920009562	-1.5324928377	-1.1847759279	-0.307941
H	 1.0005438157	 1.7798074707	 0.2498222693	 0.291259
H	 0.6054159553	-0.3691266748	 0.9299654272	 0.094603
H	-1.464752072	-1.3435221928	 0.6702746459	 0.125176
H	-1.9360370664	 0.3715571671	 0.7986938184	 0.107904
H	-2.990485045	 0.5583573858	-2.4862068922	 0.105442
H	-1.8719414305	 1.4826025696	-1.4630516689	 0.117249
H	-1.0901120923	-0.6974836537	-3.4660645015	 0.1229
H	-1.0167837238	 1.0275351132	-3.8293301034	 0.101357
H	 1.2312160028	-0.0126408326	-3.209197023	 0.117917
H	 0.7592633863	 1.3962517095	-2.2279756212	 0.110333
102.7875	110.6644	183.7169	234.1097	316.7244	338.2864	345.8612	373.5101	435.8788	491.4417	513.0155	600.8607	677.2842	782.2674	852.8827	856.9746	910.6736	936.6518	953.1248	1003.9977	1047.4823	1078.5248	1122.466	1137.7969	1180.3169	1218.2175	1241.8672	1259.7475	1279.2128	1311.414	1339.7625	1349.92	1379.9049	1387.5078	1402.22	1414.707	1466.9624	1478.7643	1483.5528	1502.6615	1815.012	2997.5899	3024.7358	3026.2158	3038.2813	3056.1033	3073.7921	3087.4472	3102.2167	3117.7858	3814.6813
OC1COCCCC1=O	O[C@H]1COCCCC1=O	
InChI=1S/C6H10O3/c7-5-2-1-3-9-4-6(5)8/h6,8H,1-4H2	InChI=1S/C6H10O3/c7-5-2-1-3-9-4-6(5)8/h6,8H,1-4H2/t6-/m0/s1
