17
gdb 45147	2.83241	1.57124	1.18634	4.0727	72.95	-0.2407	-0.0243	0.2164	1047.0837	0.135045	-421.792857	-421.785286	-421.784342	-421.825478	29.214	
O	 0.3274107012	 0.1263153004	-0.6012996843	-0.289806
C	 0.1621703924	 1.2147444357	-0.1375571344	 0.426026
C	-1.0402375079	 1.924419454	 0.5176131235	-0.360326
C	-0.1844024576	 3.2175393617	 0.6202803916	-0.025827
C	 0.6230953048	 3.3492297947	 1.9412244914	-0.331372
C	 1.7916173903	 2.6152558615	 1.269640003	 0.455983
C	 3.232244966	 2.7665267206	 1.4819631329	-0.261407
O	 2.5354197759	 1.5737971108	 1.8671366984	-0.254442
C	 1.0377847967	 2.4766556622	-0.0662116474	-0.274498
H	-1.8791293051	 1.9989833337	-0.182639467	 0.135757
H	-1.4104351061	 1.4918538144	 1.4517133133	 0.130884
H	-0.6151585906	 4.1253656066	 0.2038337087	 0.083188
H	 0.8599417988	 4.3783738335	 2.2235599918	 0.113471
H	 0.1949024067	 2.8380852496	 2.8079925486	 0.117896
H	 3.9178339918	 2.6556548587	 0.642831136	 0.121906
H	 3.5938727102	 3.3825534747	 2.3047809144	 0.118358
H	 1.5542601125	 2.7837279971	-0.9766528503	 0.094206
53.2961	100.9442	251.2395	336.2045	364.5295	388.9589	438.8614	490.1219	555.5832	660.0243	767.4549	799.019	820.8033	850.6196	875.2213	895.9664	926.7033	965.1504	1014.9955	1047.0028	1048.4818	1089.6895	1115.8642	1126.749	1148.3005	1172.0449	1182.6625	1200.9548	1224.7347	1233.5304	1262.2063	1301.7487	1421.3485	1434.9008	1475.9215	1529.1855	1892.7696	3051.5087	3057.5902	3078.3021	3103.5543	3107.6221	3109.6547	3138.8669	3167.2027
O=C1CC2CC3(CO3)C12	O=C1C[C@H]2C[C@]3(CO3)[C@@H]12	
InChI=1S/C7H8O2/c8-5-1-4-2-7(3-9-7)6(4)5/h4,6H,1-3H2	InChI=1S/C7H8O2/c8-5-1-4-2-7(3-9-7)6(4)5/h4,6H,1-3H2/t4-,6+,7-/m0/s1
