14
gdb 131210	3.21909	1.42163	0.98613	4.1928	70.43	-0.1998	-0.0412	0.1587	1101.5878	0.102482	-470.022291	-470.014658	-470.013714	-470.054195	29.724	
O	 0.0282441486	 1.3622894191	 0.0103899266	-0.428279
C	-0.0211587753	 0.0145721572	 0.0032954741	 0.342505
C	-1.1803196065	-0.6784078869	 0.0039049648	-0.236057
C	-1.1815993507	-2.1307597413	-0.0038864384	 0.406115
N	-2.2747870827	-2.8074006069	-0.0044587862	-0.572117
N	 0.1059038847	-2.6822478807	-0.0109146983	-0.336366
N	 1.2870456639	-2.0146835284	-0.0124217273	-0.294752
C	 1.2191378931	-0.7332902534	-0.0054149176	 0.340829
O	 2.3503484029	 0.0197199564	-0.0055793041	-0.44098
H	 0.9566186021	 1.6299129457	 0.0089557881	 0.316482
H	-2.1404943964	-0.1806908795	 0.0100306017	 0.136456
H	-2.0952022433	-3.8125279527	-0.0108036052	 0.192124
H	 0.2084035094	-3.6844539882	-0.0176786472	 0.261629
H	 3.1070255303	-0.5809317804	-0.0104908207	 0.31241
101.6086	201.2108	313.9624	336.1217	355.8215	369.2004	438.1732	467.0806	477.103	524.9842	533.6266	597.6751	675.4056	736.826	737.8146	771.9471	807.648	910.8248	948.0837	1106.7406	1154.5877	1214.1297	1249.1328	1268.2081	1353.6254	1393.1558	1458.561	1499.6725	1654.5545	1688.006	1733.7741	3234.5322	3459.2228	3638.7478	3781.4997	3790.9467
OC1=CC(=N)NN=C1O	O[C@H]1C=C([NH])NN=C1O	
InChI=1S/C4H5N3O2/c5-3-1-2(8)4(9)7-6-3/h1H,(H,7,9)(H3,5,6,8)	InChI=1S/C4H6N3O2/c5-3-1-2(8)4(9)7-6-3/h1-2,5-6,8H,(H,7,9)/t2-/m0/s1
