18
gdb 72592	2.18955	1.67121	1.49496	3.3478	71.94	-0.238	0.0053	0.2432	1015.7297	0.146719	-439.098113	-439.089475	-439.088531	-439.130992	32.483	
C	 0.1021959333	 1.606973893	-0.1407456885	-0.486143
C	 0.0530909825	 0.1216119559	 0.0590966245	 0.405229
C	 0.5999426384	-0.8844794744	-0.9737729008	-0.223084
N	 1.3062631431	-1.6180691427	 0.1124440545	-0.3536
C	 0.7557655133	-0.7238738105	 1.1687718122	 0.072776
C	 1.7136671955	-0.2801262773	 2.2423327317	-0.477626
C	-0.6842826975	-1.0949469174	 1.5480451452	 0.423216
O	-1.2399934182	-1.7875940246	 2.3412774397	-0.338432
O	-1.255234055	-0.3440395589	 0.5444826716	-0.298581
H	 1.1126320665	 1.9211102484	-0.418193617	 0.132908
H	-0.580975907	 1.9079278314	-0.942045206	 0.140727
H	-0.1913745596	 2.1338389791	 0.7716526002	 0.135706
H	-0.1899915864	-1.4294450667	-1.4999418152	 0.119625
H	 1.300747468	-0.4671153878	-1.7044949496	 0.113821
H	 1.0688719911	-2.5998527887	 0.2128449277	 0.234261
H	 2.6484406228	 0.0708677393	 1.7974520619	 0.12956
H	 1.2828457915	 0.5179616268	 2.8552183098	 0.127323
H	 1.9450805978	-1.120567835	 2.9053794581	 0.142314
123.351	174.745	179.0592	193.4673	203.5318	276.7054	317.6144	342.593	419.4763	548.8253	614.9939	645.6989	697.1561	731.4541	778.6679	849.0519	868.4116	913.1286	942.3965	974.3662	1000.931	1063.9552	1106.8889	1164.4255	1171.9478	1197.9761	1226.153	1266.4129	1310.7399	1351.5021	1368.9453	1408.562	1419.6954	1477.8557	1483.3581	1488.1002	1491.1028	1500.0293	1920.4228	3036.2415	3038.0318	3041.3225	3088.264	3106.0753	3109.6836	3120.7313	3122.7959	3525.3055
CC12CNC1(C)C(=O)O2	C[C@@]12CN[C@]1(C)C(=O)O2	
InChI=1S/C6H9NO2/c1-5-3-7-6(5,2)4(8)9-5/h7H,3H2,1-2H3	InChI=1S/C6H9NO2/c1-5-3-7-6(5,2)4(8)9-5/h7H,3H2,1-2H3/t5-,6-/m1/s1
