18
gdb 55903	3.78152	0.7564	0.6857	3.7748	74.59	-0.2476	-0.0188	0.2288	1606.8474	0.145847	-439.118212	-439.108485	-439.107541	-439.154378	34.301	
N	 0.0153213358	 1.2898470641	 0.4023493827	-0.525921
C	 0.1346219414	-0.0242999788	 0.0555440572	 0.42429
O	 1.211397329	-0.5756512207	-0.0564199609	-0.353079
C	-1.1962450897	-0.7416774777	-0.2001625025	-0.361209
C	-1.0478967851	-2.2378970563	-0.0191962261	 0.025091
C	-1.5072558281	-2.9341752381	 1.2139722503	-0.297214
C	-2.231066991	-3.2016150439	-0.1052636861	-0.130545
C	-3.6134537609	-2.7017598264	-0.257759482	 0.169216
O	-4.4683445671	-3.2366303052	-0.9206681655	-0.271539
H	 0.8564539887	 1.8387836191	 0.4762311432	 0.263408
H	-0.8704158156	 1.7642547271	 0.4109050827	 0.259683
H	-1.9764413433	-0.3265088472	 0.4460786287	 0.108579
H	-1.4906993491	-0.5089621926	-1.2328429703	 0.140571
H	-0.1359631139	-2.6158118586	-0.4679465605	 0.129703
H	-0.9139284901	-3.7418312251	 1.6258863985	 0.13405
H	-2.0509032329	-2.3536109276	 1.9542383863	 0.119625
H	-2.0531683152	-4.1499653654	-0.6004823178	 0.109294
H	-3.8361339429	-1.7681468368	 0.311638162	 0.055998
34.4622	56.5655	89.4027	150.1859	195.3637	228.1841	264.6644	373.6958	389.7626	451.8528	504.4588	523.9632	610.6624	655.6605	825.0384	840.8215	854.8945	873.6357	900.1125	976.0556	1019.0618	1048.0229	1074.7643	1082.5329	1132.31	1146.1375	1196.0749	1230.2206	1246.2478	1276.1493	1339.4056	1373.768	1422.9752	1449.2462	1468.7285	1489.7094	1619.4706	1801.7764	1817.1664	2844.4304	3021.8164	3075.9777	3127.495	3175.4134	3182.7433	3220.9937	3600.7296	3736.4619
NC(=O)CC1CC1C=O	NC(=O)C[C@H]1C[C@H]1C=O	
InChI=1S/C6H9NO2/c7-6(9)2-4-1-5(4)3-8/h3-5H,1-2H2,(H2,7,9)	InChI=1S/C6H9NO2/c7-6(9)2-4-1-5(4)3-8/h3-5H,1-2H2,(H2,7,9)/t4-,5+/m1/s1
