17
gdb 127240	3.77038	1.01263	0.8063	1.7489	80.55	-0.2311	0.0225	0.2536	1382.8573	0.135798	-380.858123	-380.849133	-380.848189	-380.89349	31.898	
C	 0.2280816511	 1.3772164426	-0.0206334485	-0.320188
N	-0.0024478489	-0.0510292196	-0.0302093253	 0.051813
C	 0.571720386	-0.9811588566	-0.8334476409	-0.1097
C	 0.1052073074	-2.2143019821	-0.4251319025	 0.179257
C	 0.4225243334	-3.5725138578	-0.9986976627	-0.482249
C	 1.3744616374	-3.5386847467	-2.1049519252	 0.311084
C	 2.1575759015	-3.5045038052	-3.0158684827	-0.450963
C	-0.7555013861	-1.9104024293	 0.6527261465	-0.079389
N	-0.8158447925	-0.6025905063	 0.8904338458	-0.272005
H	 0.9600250494	 1.655963339	 0.7448905411	 0.143248
H	 0.5981723626	 1.6885337125	-0.9993797466	 0.138707
H	-0.713816833	 1.8859665635	 0.1904944548	 0.155597
H	 1.2538014717	-0.7126766398	-1.6238880239	 0.142444
H	 0.8190186654	-4.2263439124	-0.2096475974	 0.144466
H	-0.5013400554	-4.0588305179	-1.3415356407	 0.144674
H	 2.8492826925	-3.4876001328	-3.8211795543	 0.196275
H	-1.3378409325	-2.591012711	 1.2579471526	 0.106927
27.5139	52.1741	107.4575	165.097	266.9004	272.2871	327.9548	402.3962	456.0715	611.1579	627.566	640.3723	662.4098	668.2569	774.7787	799.6874	868.9933	958.2105	961.5552	1005.6865	1032.3308	1074.7836	1148.9104	1177.7845	1214.5801	1225.7342	1300.5969	1343.0866	1404.8845	1424.4967	1447.9042	1468.285	1475.912	1483.8692	1521.7083	1611.944	2241.2532	3006.9065	3027.0227	3042.9897	3116.1442	3150.9475	3234.8867	3269.2227	3505.6331
CN1C=C(CC#C)C=N1	Cn1cc(CC#C)cn1	
InChI=1S/C7H8N2/c1-3-4-7-5-8-9(2)6-7/h1,5-6H,4H2,2H3	InChI=1S/C7H8N2/c1-3-4-7-5-8-9(2)6-7/h1,5-6H,4H2,2H3
