16
gdb 124968	3.02526	1.24648	0.9524	3.0267	76.26	-0.247	-0.0087	0.2384	1207.7683	0.122867	-400.715787	-400.707033	-400.706089	-400.750219	31.335	
C	 0.427353501	 1.4471806623	-0.0507183629	-0.519329
C	 0.1222191009	-0.0177956442	-0.0084722863	 0.076419
C	-0.0052440422	-0.9100360963	-1.0320405857	 0.362514
C	 0.083595721	-0.8161901652	-2.5298326111	-0.471048
C	 1.2713641978	-0.1180732611	-3.0148384087	 0.306742
C	 2.2429990414	 0.4548761525	-3.4276742329	-0.446854
O	-0.304675015	-2.1334947765	-0.5517976952	-0.213305
N	-0.3838301848	-2.0765540855	 0.834619022	-0.144471
C	-0.1298918541	-0.8284327499	 1.1363210119	-0.023782
H	 1.1939082628	 1.7111713732	 0.6851096298	 0.135006
H	 0.7945609455	 1.7442114058	-1.0350665058	 0.146127
H	-0.4601633142	 2.0493625212	 0.175768114	 0.134169
H	 0.0637490529	-1.8372206203	-2.9272327251	 0.166801
H	-0.8149951205	-0.320368346	-2.922055801	 0.157
H	 3.1069190111	 0.9539333939	-3.7916542143	 0.20542
H	-0.1297323337	-0.5312353138	 2.1766368216	 0.128592
36.8416	85.6266	114.5729	233.0582	243.6605	292.2565	324.2941	383.5569	445.6467	627.4136	637.7659	650.8667	655.5494	678.785	767.1142	912.5225	917.4339	939.9252	956.3684	974.846	1012.5469	1069.7599	1165.278	1197.2124	1212.4674	1270.9262	1341.2124	1405.8953	1427.3788	1457.5872	1491.2094	1493.7528	1512.902	1676.1065	2244.2048	3015.8813	3034.4538	3068.7894	3087.0496	3131.8668	3233.5826	3504.3736
CC1=C(CC#C)ON=C1	Cc1c(CC#C)onc1	
InChI=1S/C7H7NO/c1-3-4-7-6(2)5-8-9-7/h1,5H,4H2,2H3	InChI=1S/C7H7NO/c1-3-4-7-6(2)5-8-9-7/h1,5H,4H2,2H3
