20
gdb 121187	2.4916	1.1001	0.84294	4.867	80.47	-0.262	0.0334	0.2954	1426.8075	0.170171	-403.149546	-403.139971	-403.139027	-403.184873	34.193	
C	 0.3155102584	 1.3690921855	-0.2527144565	-0.385852
C	 0.0096216309	-0.0273539778	 0.259258249	-0.045516
O	-1.1398528243	-0.5092409075	-0.4209428782	-0.241961
C	-1.5102014949	-1.7999155312	-0.0642987827	 0.17494
C	-2.2226583276	-2.0624336938	 1.2927670248	-0.257779
C	-3.1928286814	-3.0133865016	 0.5440431733	-0.231189
C	-2.7689331414	-2.3453278692	-0.8097392807	-0.227593
C	-3.6892346643	-1.3072557965	-1.2495230098	 0.295812
N	-4.4481083181	-0.507352278	-1.5970184843	-0.331182
H	 1.1978720392	 1.7737249797	 0.2517358666	 0.116217
H	 0.5066622616	 1.3488156287	-1.3290850346	 0.131312
H	-0.5299394051	 2.0371529878	-0.067908018	 0.136205
H	 0.8602823077	-0.7058967021	 0.0798621336	 0.089193
H	-0.1709798542	-0.0117164556	 1.3454480474	 0.095954
H	-0.6752785535	-2.5050631987	-0.204930748	 0.074806
H	-1.6328761412	-2.4761798031	 2.1124540028	 0.105524
H	-2.7329810559	-1.1562851957	 1.6303340816	 0.129958
H	-2.8701656714	-4.0560726467	 0.5751897958	 0.117246
H	-4.250682559	-2.9586799827	 0.7989849649	 0.131422
H	-2.5694526554	-3.0176430214	-1.647305717	 0.122483
68.119	82.9302	90.8049	114.3407	196.8158	237.4585	252.3136	349.9588	376.2963	454.5215	515.3116	616.5056	707.7966	765.1278	813.1363	824.4185	893.7515	913.4013	929.5572	970.4452	1026.2345	1064.9573	1086.6009	1112.033	1151.166	1182.8921	1187.3021	1208.3938	1236.9723	1260.6237	1262.94	1284.3108	1297.8479	1346.1407	1373.5024	1406.9697	1441.1894	1479.6418	1483.4613	1496.0095	1499.8789	1528.5085	2356.5437	2963.7979	2974.6481	2999.1881	3048.154	3069.0161	3080.2419	3089.0693	3122.807	3126.6922	3127.5404	3148.0193
CCOC1CCC1C#N	CCO[C@H]1CC[C@H]1C#N	
InChI=1S/C7H11NO/c1-2-9-7-4-3-6(7)5-8/h6-7H,2-4H2,1H3	InChI=1S/C7H11NO/c1-2-9-7-4-3-6(7)5-8/h6-7H,2-4H2,1H3/t6-,7-/m0/s1
