21
gdb 76310	2.45528	1.33718	1.09578	0.7839	83.38	-0.255	0.049	0.3041	1201.9927	0.180164	-387.049609	-387.039473	-387.038528	-387.084158	38.121	
C	 0.7845271864	 1.5685518327	-0.1550157554	-0.423542
C	 0.1672426386	 0.1897544535	 0.0488315143	-0.042531
C	 0.7075772157	-0.9414121392	-0.8842604789	 0.131461
O	 1.3593897492	-0.5995479769	-2.0812448166	-0.425864
C	 1.5326019741	-1.5489788212	 0.2957263444	-0.04253
C	 3.0355241811	-1.2980006763	 0.2519893482	-0.42354
C	 0.6950890257	-0.6441749699	 1.2781134852	-0.203756
C	 1.38211238	 0.0473078576	 2.3483911044	 0.342133
C	 1.9624286605	 0.627964032	 3.2285066682	-0.473085
H	 1.8775940802	 1.5580060149	-0.0956564708	 0.117094
H	 0.4999873368	 1.9685551326	-1.1331871081	 0.124414
H	 0.4363896993	 2.263120573	 0.6146397163	 0.129323
H	-0.9223086279	 0.2863747434	 0.0362450584	 0.075911
H	-0.098190813	-1.6168288703	-1.1848298975	 0.088312
H	 2.0841101797	-0.0008490318	-1.8746745461	 0.284103
H	 1.3584082518	-2.6180365516	 0.4486579309	 0.075909
H	 3.2867762733	-0.2365152458	 0.1595464387	 0.117105
H	 3.511381398	-1.6530192336	 1.1704212519	 0.129309
H	 3.482349527	-1.8291464779	-0.5941876771	 0.124417
H	-0.1266188286	-1.2289998478	 1.7036758704	 0.102117
H	 2.4673911521	 1.1357822526	 4.0123653493	 0.193239
68.4463	128.4448	168.7495	181.3661	192.5712	232.2237	251.0867	290.4156	332.8364	344.8438	471.132	484.7839	565.6108	586.9272	620.5156	625.8358	751.7796	768.1418	782.439	825.9191	902.0887	991.174	1002.9999	1027.5968	1059.3296	1112.5421	1125.6261	1126.8767	1171.4551	1182.2382	1253.8434	1267.5136	1278.6992	1293.5496	1332.1022	1354.5295	1380.7753	1404.4978	1414.6906	1444.7965	1485.594	1493.2005	1497.8525	1505.153	2226.5557	3036.5967	3041.0487	3042.7409	3054.4116	3056.9201	3076.8141	3101.4803	3110.0288	3113.5556	3114.2438	3504.0725	3821.6743
CC1C(O)C(C)C1C#C	C[C@H]1[C@@H](O)[C@@H](C)[C@H]1C#C	
InChI=1S/C8H12O/c1-4-7-5(2)8(9)6(7)3/h1,5-9H,2-3H3	InChI=1S/C8H12O/c1-4-7-5(2)8(9)6(7)3/h1,5-9H,2-3H3/t5-,6+,7+,8-
