19
gdb 39824	2.68129	1.65974	1.58754	2.1411	74.5	-0.2401	0.076	0.3162	962.7459	0.161329	-422.98619	-422.979025	-422.978081	-423.017435	29.193	
C	 0.1859597905	 1.3389737733	-0.0824368542	-0.300333
O	 1.2877686969	 0.4133601129	-0.1030301207	-0.289863
C	-0.0222947343	-0.1042901522	-0.0144728077	 0.488119
C	-0.6236979696	-0.9552859906	 1.1125828543	-0.136754
C	-1.7948607173	-1.2166722846	 0.1141885378	-0.239532
C	-0.7449576266	-1.0172646654	-1.0187998788	 0.027471
O	-0.0417723684	-2.2285084409	-1.24437257	-0.279781
C	 0.8012996739	-2.5998826893	-0.1487736236	-0.067256
C	 0.1995153131	-2.253539503	 1.2315229211	-0.231944
H	 0.1035911126	 1.941009526	 0.8216486861	 0.117575
H	 0.0127273394	 1.8736981508	-1.0154807367	 0.119793
H	-0.8390698505	-0.492180039	 2.0774036561	 0.069773
H	-2.266185029	-2.2006650685	 0.1458248135	 0.103018
H	-2.5506466808	-0.4278614788	 0.1326964035	 0.101105
H	-1.0529690525	-0.6317532999	-1.9923850926	 0.080792
H	 0.9785178687	-3.6735446496	-0.2527695995	 0.104159
H	 1.7638273047	-2.0846002179	-0.254078659	 0.122242
H	 1.0192371055	-2.1342363659	 1.9477650221	 0.108019
H	-0.4464360963	-3.0570272372	 1.6029424883	 0.103397
154.4225	223.4319	241.1901	262.5869	382.5407	408.5848	468.6816	550.4596	600.9952	640.3106	805.392	822.3598	843.3717	855.3096	888.9519	927.6881	953.0419	956.9788	975.4738	1047.7928	1069.5415	1085.983	1103.2687	1114.3276	1127.655	1164.1263	1168.4493	1188.5027	1222.073	1245.6906	1265.6656	1271.9958	1312.2373	1346.3507	1358.7235	1414.8909	1445.1949	1476.7454	1493.5753	1516.0231	1540.2731	3029.5458	3036.3209	3065.4905	3078.2962	3080.724	3090.3333	3095.8404	3098.4868	3131.5867	3167.8144
C1OC11C2CC1OCC2	C1O[C@]21[C@H]1C[C@@H]2OCC1	
InChI=1S/C7H10O2/c1-2-8-6-3-5(1)7(6)4-9-7/h5-6H,1-4H2	InChI=1S/C7H10O2/c1-2-8-6-3-5(1)7(6)4-9-7/h5-6H,1-4H2/t5-,6+,7-/m1/s1
