18
gdb 41420	3.30836	1.91714	1.54842	1.2281	73.41	-0.2321	0.0742	0.3063	887.7851	0.15064	-401.877909	-401.871623	-401.870678	-401.908197	26.638	
C	 0.0161208964	 1.4567644868	 0.0694115296	-0.121597
O	 1.4665468583	 1.5121170258	-0.0748944458	-0.357434
C	 1.4930912124	 0.123450873	-0.3656818579	 0.474623
C	 2.4767635029	-0.9003042336	 0.1486936795	-0.312696
C	 1.7750479165	-2.1683452261	-0.4286309318	-0.154993
N	 0.9248428911	-1.7378154354	-1.5867002321	-0.114366
C	-0.1935262264	-0.7890903573	-1.3188929794	-0.051894
C	 1.1414085531	-0.3265795398	-1.8139810236	-0.14159
C	 0.0013413931	-0.095902254	 0.0189391415	-0.148827
H	-0.2962430636	 1.8940493058	 1.0221084582	 0.113578
H	-0.4933802404	 1.9679236308	-0.7556416155	 0.107931
H	 3.4816144859	-0.7610403545	-0.2648465936	 0.108724
H	 2.5459413815	-0.9168807141	 1.239653204	 0.108238
H	 2.4930322239	-2.9006468058	-0.8051723504	 0.114199
H	 1.1544347038	-2.6661375175	 0.3218435568	 0.11179
H	-1.1143171271	-0.9647257734	-1.8649996477	 0.093998
H	 1.4798401213	 0.0757854003	-2.7613947447	 0.094113
H	-0.3037612326	-0.5920898311	 0.9428496227	 0.076204
205.4699	239.5177	335.384	383.2317	450.0119	507.8817	672.6172	698.8219	724.8117	761.9311	836.5775	849.5774	868.1816	882.3089	910.4446	937.8646	960.5229	972.882	1010.1966	1034.1971	1043.4474	1095.7469	1101.6803	1127.1568	1143.1047	1173.5922	1186.8131	1212.175	1232.2701	1253.5967	1276.6182	1294.2391	1321.8589	1334.4288	1347.9527	1360.1617	1489.8468	1504.887	1512.0326	3031.823	3044.7131	3061.2115	3077.682	3093.8845	3096.3083	3112.1957	3164.719	3186.7716
C1OC23CCN4C(C24)C13	C1O[C@]23CCN4[C@H]([C@@H]24)[C@H]13	
InChI=1S/C7H9NO/c1-2-8-5-4-3-9-7(1,4)6(5)8/h4-6H,1-3H2	InChI=1S/C7H9NO/c1-2-8-5-4-3-9-7(1,4)6(5)8/h4-6H,1-3H2/t4-,5-,6-,7-,8?/m0/s1
