13
gdb 132207	2.0351	1.92238	0.99006	6.845	65.56	-0.2301	-0.0105	0.2196	1074.1971	0.091167	-490.25848	-490.251052	-490.250108	-490.290588	28.031	
N	 0.0480628102	 1.3483003957	 0.1379363025	-0.57552
C	-0.0362969135	-0.0178460773	 0.0217956636	 0.455397
N	-1.1557033012	-0.6349303088	 0.034229952	-0.30793
C	-1.1639190942	-2.0383803613	 0.0069618896	 0.364037
N	-2.2772827462	-2.6542817115	 0.0063239453	-0.511047
N	 0.0819317164	-2.7413698328	-0.0243512831	-0.370782
C	 1.1293003816	-2.0467888253	-0.0379884794	 0.390719
F	 2.3324020857	-2.596166143	-0.0366184059	-0.061402
N	 1.1933388899	-0.676117116	-0.0663695982	-0.420769
H	 0.7779348177	 1.8079294828	-0.3874037333	 0.259686
H	-0.8553376113	 1.7934939827	 0.0561931307	 0.279499
H	-2.0896196105	-3.6568060665	-0.019983628	 0.221436
H	 2.0611405454	-0.2150222188	 0.1599360141	 0.276676
92.432	182.084	230.6015	334.0294	361.1944	375.9122	423.6387	528.5397	549.0925	594.995	615.5072	661.1456	696.0884	730.5701	782.9839	903.453	925.0893	988.9518	1026.1163	1141.1773	1190.9265	1236.7888	1338.7109	1418.747	1486.7004	1624.8323	1695.592	1718.1666	1803.5584	3490.6128	3564.3779	3631.4503	3673.7424
NC1=NC(=N)N=C(F)N1	N[C@@H]1N=C([NH])N=C(F)N1	
InChI=1S/C3H4FN5/c4-1-7-2(5)9-3(6)8-1/h(H4,5,6,7,8,9)	InChI=1S/C3H5FN5/c4-1-7-2(5)9-3(6)8-1/h2,6H,5H2,(H,7,8,9)/t2-/m0/s1
