17
gdb 39104	3.52627	1.71854	1.48685	0.8247	66.52	-0.2468	0.0766	0.3234	899.4984	0.138277	-458.911515	-458.904994	-458.904049	-458.942678	26.323	
C	-0.0702250035	 1.6125523709	 0.1388988474	-0.303729
C	 1.4357688908	 1.3881100008	-0.026480475	 0.039468
O	 1.7739600368	 0.599167301	 1.1508740744	-0.289476
C	 0.6898770763	-0.3769574725	 1.2430042864	-0.146874
C	-0.0393807244	 0.0406584242	-0.0200138386	 0.375792
O	-1.0358222524	-0.6506901655	-0.6932294699	-0.328172
C	-0.765249901	-0.4100380644	-2.0865298269	 0.001681
O	 0.4024389225	 0.4035038582	-2.2057597976	-0.284896
C	 1.1290197568	 0.2242943386	-1.005459157	 0.081929
H	-0.4057576396	 2.0303794397	 1.0890547683	 0.103144
H	-0.5412575786	 2.1019875655	-0.7109094963	 0.121073
H	 2.1863127659	 2.1619827011	-0.1649846756	 0.089761
H	 1.093303012	-1.3936164024	 1.203735436	 0.113336
H	 0.1345127548	-0.2346566913	 2.1755079403	 0.111057
H	-0.6204453795	-1.3842225255	-2.5741594094	 0.11221
H	-1.5995266242	 0.1281867723	-2.5493639023	 0.121519
H	 1.9004154474	-0.5489003306	-1.0901909041	 0.082177
64.6484	279.6686	349.4328	366.1385	447.9875	459.2058	540.628	676.2526	704.7146	745.1625	856.4022	872.8746	893.0596	921.2472	937.8794	961.2231	970.7735	1018.4498	1030.828	1073.6699	1079.0637	1117.4209	1138.3316	1155.311	1190.627	1198.183	1203.9623	1244.9254	1251.4699	1271.7527	1295.8282	1344.9325	1369.7873	1433.1518	1477.5341	1533.1565	1542.1055	3004.3165	3040.1675	3052.076	3068.9115	3088.0712	3093.1235	3159.2292	3173.0031
C1C2OCC11OCOC21	C1[C@H]2OC[C@]31OCO[C@@H]23	
InChI=1S/C6H8O3/c1-4-5-6(1,2-7-4)9-3-8-5/h4-5H,1-3H2	InChI=1S/C6H8O3/c1-4-5-6(1,2-7-4)9-3-8-5/h4-5H,1-3H2/t4-,5+,6+/m1/s1
