19
gdb 120063	4.45206	0.93054	0.89442	2.1195	73.82	-0.2346	0.0702	0.3048	1339.2196	0.159365	-422.945672	-422.9376	-422.936656	-422.978976	30.905	
O	 0.1327878553	 1.4074692996	 0.0676700376	-0.419945
C	 0.0504677973	-0.0067362319	-0.0146439537	-0.054885
C	-1.386837045	-0.5255901963	 0.058373695	-0.237947
C	-1.4756036108	-2.0458066082	 0.0173296572	 0.012403
C	-2.8393385026	-2.7436448235	 0.0087065361	-0.147114
C	-3.2262174932	-2.823286235	-1.4798615312	 0.094138
O	-2.2156300226	-2.1586352292	-2.2394551687	-0.290655
C	-1.2559133144	-2.7865900019	-1.3408088244	 0.050192
C	-2.3235592018	-3.8553359547	-0.901671405	-0.151235
H	-0.3538523068	 1.769941409	-0.6796078739	 0.280944
H	 0.5397826269	-0.3800381697	-0.929333893	 0.087208
H	 0.6319096361	-0.3840922504	 0.8346436076	 0.106363
H	-1.8477821148	-0.1506260529	 0.9804414605	 0.100661
H	-1.9650761304	-0.1213817544	-0.7811301746	 0.103763
H	-0.8378698632	-2.508743233	 0.7793511358	 0.076146
H	-3.5686555629	-2.8137303184	 0.8060103494	 0.09095
H	-4.23718722	-2.8590163695	-1.8627922619	 0.110854
H	-0.2787009025	-2.9425973912	-1.7927247013	 0.086448
H	-2.3452547148	-4.9339477583	-0.8420609114	 0.10171
70.067	92.6439	131.2191	247.8783	305.9255	338.2339	372.1314	580.9276	615.9404	741.8845	761.5395	772.9932	789.5096	808.5962	830.6711	879.6353	918.8761	963.9924	983.7164	1017.6564	1026.9757	1035.4206	1057.103	1068.6785	1075.9471	1082.9319	1125.5996	1156.6046	1170.2898	1186.3098	1226.7689	1233.9443	1299.5241	1311.8275	1319.4127	1373.1032	1380.7222	1410.5646	1426.4525	1482.797	1513.6815	2969.3015	3030.2748	3044.4203	3053.517	3080.9229	3144.5882	3195.0457	3208.1292	3223.6484	3814.4752
OCCC1C2C3OC1C23	OCC[C@H]1[C@H]2[C@H]3O[C@@H]1[C@@H]23	
InChI=1S/C7H10O2/c8-2-1-3-4-5-6(3)9-7(4)5/h3-8H,1-2H2	InChI=1S/C7H10O2/c8-2-1-3-4-5-6(3)9-7(4)5/h3-8H,1-2H2/t3-,4+,5+,6-,7+/m0/s1
