15
gdb 34508	4.33176	1.34482	1.17882	4.0598	76.64	-0.2383	-0.058	0.1803	1013.853	0.115471	-379.645745	-379.639252	-379.638308	-379.676692	25.749	
N	 0.0798275234	-1.1480133407	 0.010329482	-0.337134
C	 0.0061096768	 0.0087522626	-0.0001319933	 0.19932
C	-0.037368923	 1.4227714898	-0.0333947212	 0.217318
C	-1.1113055046	 2.2180942951	 0.0974526321	-0.174056
C	-0.6567572002	 3.6253875062	 0.0647306373	-0.070167
C	 0.5167359456	 4.0474592594	 0.9205153941	-0.037269
C	 1.382709633	 2.8977127631	 1.4003743382	-0.247182
C	 1.195291454	 2.3103284525	-0.0360007475	-0.126393
N	 0.70425126	 3.6791491393	-0.5255215885	-0.130589
H	-2.1386478858	 1.9048770713	 0.2228959078	 0.136917
H	-1.3326876024	 4.4122448462	-0.2530303878	 0.109737
H	 0.5873103556	 5.0748812912	 1.2644365145	 0.107995
H	 2.4088395747	 3.2402297488	 1.5455804244	 0.129573
H	 1.0672694268	 2.2960555389	 2.2568826794	 0.116463
H	 2.0687459964	 1.9276874765	-0.5588399514	 0.105465
120.9532	161.2389	345.1027	383.3466	497.3399	500.1974	566.7097	627.1609	744.7218	748.2492	779.399	802.8421	835.8637	898.0167	909.4836	937.1206	980.1618	1005.4292	1032.8309	1061.5642	1095.5944	1143.0037	1159.6423	1179.8554	1224.3718	1260.074	1268.9548	1318.9624	1344.676	1368.9096	1487.3861	1656.9127	2333.2541	3063.8868	3125.8657	3144.8291	3159.8851	3175.4768	3236.5247
N#CC1=CC2C3CC1N23	N#CC1=C[C@H]2[C@H]3C[C@@H]1N23	
InChI=1S/C7H6N2/c8-3-4-1-6-7-2-5(4)9(6)7/h1,5-7H,2H2	InChI=1S/C7H6N2/c8-3-4-1-6-7-2-5(4)9(6)7/h1,5-7H,2H2/t5-,6-,7+,9?/m0/s1
