21
gdb 120353	3.05518	0.9494	0.76953	2.4805	84.96	-0.238	-0.0156	0.2224	1537.6346	0.181814	-387.130828	-387.121432	-387.120487	-387.166073	34.47	
C	 0.0719681981	 1.6358299057	 0.1097384787	-0.380996
C	 0.0237602062	 0.1062828414	 0.0538520005	-0.17652
C	 0.6550372222	-0.4583237033	-1.2229346285	-0.16558
C	 0.6441161503	-1.9977944744	-1.2994371243	-0.159698
C	-0.6954616499	-2.651572114	-1.5308133287	-0.07093
C	-0.7122756392	-3.4433533423	-2.6048535451	-0.080038
C	 0.6156701879	-3.4899530902	-3.3100949404	-0.369296
C	 1.4753273998	-2.5123631769	-2.4936125255	 0.385102
O	 2.603199594	-2.1796312925	-2.7493290842	-0.313773
H	 1.1041397678	 2.0001251544	 0.0652605428	 0.118309
H	-0.4708569077	 2.0799521029	-0.7319831493	 0.115499
H	-0.376982104	 2.0155365545	 1.0327834051	 0.112055
H	 0.5435967127	-0.3102388485	 0.9269086516	 0.096657
H	-1.0188961877	-0.2271923436	 0.1329918973	 0.096258
H	 0.1369081119	-0.0518917983	-2.1015956092	 0.094767
H	 1.6993139439	-0.1325399121	-1.2980717798	 0.118517
H	 1.1167172085	-2.3797776234	-0.3805294222	 0.104361
H	-1.5440294324	-2.4838517184	-0.8772287272	 0.101334
H	-1.573012494	-4.0067383954	-2.9466501371	 0.100602
H	 1.079019827	-4.4858080094	-3.3076859323	 0.136611
H	 0.5791342344	-3.1764151465	-4.3609906322	 0.136759
48.1768	76.9738	97.6085	132.9054	243.3438	256.2388	280.6037	338.7136	448.2558	518.6707	582.2368	628.6829	719.9131	741.5909	764.3211	791.7692	857.7664	887.1561	952.53	962.9411	973.7314	987.4333	1040.3141	1079.8169	1099.02	1120.8211	1135.2488	1147.9839	1162.2482	1242.0389	1246.3707	1282.368	1311.4721	1325.8703	1340.4347	1384.1182	1390.5954	1413.6503	1441.8424	1483.8051	1494.506	1499.8755	1510.3112	1677.6078	1846.7358	2982.5279	3013.1286	3023.5771	3024.8982	3031.3735	3042.0608	3054.332	3072.1552	3098.6417	3103.3428	3184.4271	3207.9381
CCCC1C=CCC1=O	CCC[C@H]1C=CCC1=O	
InChI=1S/C8H12O/c1-2-4-7-5-3-6-8(7)9/h3,5,7H,2,4,6H2,1H3	InChI=1S/C8H12O/c1-2-4-7-5-3-6-8(7)9/h3,5,7H,2,4,6H2,1H3/t7-/m0/s1
