19
gdb 86529	4.01826	0.88894	0.78644	4.1668	80.55	-0.2288	-0.0676	0.1612	1472.3833	0.158557	-419.203733	-419.194407	-419.193463	-419.238678	33.219	
C	-0.5041212461	 1.4409113496	-0.1675497688	-0.405643
C	 0.0925124924	 0.0583189865	 0.0377159119	 0.016607
C	 1.3391489464	-0.3247137075	-0.812754745	-0.177149
N	 2.0251182528	-0.717049794	 0.4222238995	-0.078902
C	 0.9782364183	-0.161534352	 1.3006257013	-0.204556
C	 3.382449466	-0.7346191256	 0.5821777982	 0.24085
N	 4.1834959133	-0.6684242201	-0.4143569911	-0.509521
C	 3.863841981	-0.9063949726	 2.0077499436	 0.108743
O	 5.0337398696	-0.9244170204	 2.2923195349	-0.239857
H	 0.2654182016	 2.2177030399	-0.0995766295	 0.122491
H	-0.9743320857	 1.5225373741	-1.1531941587	 0.125618
H	-1.2695755944	 1.6586775161	 0.5850331382	 0.121455
H	-0.6858211026	-0.7060123573	-0.0313331202	 0.088259
H	 1.2255387446	-1.1356092768	-1.5380740589	 0.120044
H	 1.8273488341	 0.5226884967	-1.3106428902	 0.121232
H	 1.2648534034	 0.7754211639	 1.7971608495	 0.109829
H	 0.5955525558	-0.8591937247	 2.0528080409	 0.116153
H	 5.1387876527	-0.7580085499	-0.0612112072	 0.234602
H	 3.0792547269	-1.0268420058	 2.7840707018	 0.089745
49.8832	89.3036	117.6563	156.3453	204.4153	234.6526	295.321	334.6791	391.107	448.3802	530.9219	564.7816	729.692	821.4394	864.5722	888.8244	904.465	916.4967	936.58	988.4956	1031.812	1098.496	1120.2926	1144.1442	1153.4794	1170.9702	1216.1307	1242.461	1283.4584	1293.9112	1329.9695	1375.7423	1396.1266	1416.993	1471.632	1495.4159	1496.6921	1506.487	1525.6256	1680.1103	1824.5368	2912.0517	3006.4089	3026.9103	3030.8194	3058.9084	3071.7866	3084.8432	3099.6222	3103.8111	3460.8409
CC1CN(C1)C(=N)C=O	C[C@H]1CN(C1)[C]([NH])C=O	
InChI=1S/C6H10N2O/c1-5-2-8(3-5)6(7)4-9/h4-5,7H,2-3H2,1H3	InChI=1S/C6H10N2O/c1-5-2-8(3-5)6(7)4-9/h4-5,7H,2-3H2,1H3
