15
gdb 130975	4.09331	0.99791	0.83273	1.6931	67.82	-0.2169	-0.0387	0.1782	1293.2107	0.113281	-450.117656	-450.10949	-450.108545	-450.151826	28.868	
O	 0.9663857936	 1.1013836927	 1.2679200147	-0.236458
C	 0.5551295045	 1.6972632747	 0.3076162403	 0.173358
C	 1.1062551536	 1.5339971374	-1.1062009951	-0.260264
N	 1.2044890317	 2.8166594945	-1.7693820424	-0.386537
C	 2.2831745571	 3.6297026116	-1.4553522818	 0.367567
C	 3.106432692	 3.6346498693	-0.3468698615	-0.17086
N	 3.9424379275	 4.6812031021	-0.5949500755	-0.153684
N	 3.6732149853	 5.274099636	-1.7593498627	-0.110207
N	 2.6624423476	 4.6379084602	-2.2898881481	-0.274974
H	-0.2767915956	 2.4336318256	 0.3746820644	 0.094037
H	 2.0565302488	 0.9818437878	-1.0509805282	 0.123463
H	 0.384763846	 0.9157189325	-1.6545936444	 0.135832
H	 1.0031698023	 2.8204726213	-2.7582732519	 0.255455
H	 3.1635096469	 3.0303290965	 0.5409245491	 0.159288
H	 4.6985653789	 5.0288912378	-0.0275057469	 0.283983
48.1413	66.9272	105.5537	195.6843	292.2581	374.1684	420.3061	513.8101	550.7231	603.741	684.0917	703.7538	719.3324	756.354	796.0277	992.2002	1025.5046	1044.8806	1071.3482	1110.3935	1128.2506	1144.7192	1246.0025	1281.005	1307.488	1327.58	1371.1108	1403.8167	1454.5073	1458.2143	1536.4085	1630.9708	1837.1336	2893.564	2994.2991	3065.8296	3296.9136	3610.8029	3660.9826
O=CCNC1=CNN=N1	O=CCNc1c[nH]nn1	
InChI=1S/C4H6N4O/c9-2-1-5-4-3-6-8-7-4/h2-3H,1H2,(H2,5,6,7,8)	InChI=1S/C4H6N4O/c9-2-1-5-4-3-6-8-7-4/h2-3H,1H2,(H2,5,6,7,8)
