15
gdb 42428	4.63665	0.88317	0.80248	2.094	69.38	-0.259	-0.051	0.2081	1379.7141	0.110413	-457.72291	-457.71421	-457.713266	-457.757769	30.077	
O	 0.1166846271	 0.1073987922	-0.7318818949	-0.355182
C	 0.0417004589	 1.1819824613	-0.1896415234	 0.291852
O	 1.0954323244	 1.8601479877	 0.3061718935	-0.239163
C	 2.3531076984	 1.1903440239	 0.1809366753	 0.086376
C	 3.0227120856	 1.214976853	-1.2038369017	-0.084361
O	 4.1649743225	 1.9182678183	-0.6674045292	-0.272314
C	 3.5296576923	 2.0702607155	 0.6186958573	-0.104143
C	-1.1874042571	 1.9141589691	 0.0137678012	 0.226846
C	-2.237393156	 2.4800558016	 0.1563329857	-0.349313
H	 2.2849272726	 0.2039841068	 0.6405390531	 0.116969
H	 3.2915710912	 0.2445366055	-1.6315860486	 0.122207
H	 2.4774983744	 1.808895041	-1.9474448879	 0.112948
H	 3.2405128153	 3.107819034	 0.8260183618	 0.117556
H	 4.1504341809	 1.6892655258	 1.4364882437	 0.113284
H	-3.1663932606	 2.9809992942	 0.2829968242	 0.216438
50.9783	61.9288	98.4962	134.4085	218.6115	279.0264	361.99	408.3891	534.0395	607.3341	662.5708	704.1775	760.9267	776.7687	877.6188	889.4545	913.0486	980.5076	1028.9938	1063.208	1116.22	1136.4878	1154.2509	1183.3643	1245.5407	1262.119	1306.5624	1354.6865	1409.1809	1499.7603	1526.2479	1788.6378	2238.8725	3022.4445	3033.4433	3076.6733	3087.5347	3114.5975	3496.7779
O=C(OC1COC1)C#C	O=C(OC1COC1)C#C	
InChI=1S/C6H6O3/c1-2-6(7)9-5-3-8-4-5/h1,5H,3-4H2	InChI=1S/C6H6O3/c1-2-6(7)9-5-3-8-4-5/h1,5H,3-4H2
