21
gdb 52238	5.13507	0.67871	0.65502	3.0087	83.76	-0.2454	-0.0179	0.2275	1727.2101	0.18188	-387.07039	-387.06133	-387.060385	-387.105487	33.333	
O	-0.6314523113	 0.8012303228	 0.8828315409	-0.238425
C	-0.0000956098	 1.0273463034	-0.1171378222	 0.159438
C	 1.3072949398	 1.7810337138	-0.1712752824	-0.270964
C	 1.2276189536	 3.001527449	-1.1075982427	-0.219529
C	 2.5692772798	 3.7154464789	-1.256537115	 0.030885
C	 3.7429471374	 3.0125262474	-2.0302274634	-0.253424
C	 3.8531455462	 4.2420907996	-2.9407671298	-0.034983
C	 2.5550368847	 4.4648398722	-3.6597673228	-0.274626
C	 2.6726404432	 4.9042062313	-2.2252343737	-0.072635
H	-0.3680410379	 0.683808644	-1.1138740043	 0.067259
H	 1.5870442699	 2.0705653986	 0.846126916	 0.119164
H	 2.072560928	 1.0883719562	-0.5517859159	 0.120085
H	 0.8633402557	 2.6808187103	-2.0919097416	 0.100048
H	 0.483875589	 3.7088088852	-0.7184480984	 0.11042
H	 2.9236855074	 4.0155164753	-0.2646790202	 0.076453
H	 4.6198230649	 2.8445046464	-1.4018098648	 0.105134
H	 3.4972504627	 2.0735256503	-2.5403492407	 0.09045
H	 4.7798662074	 4.6904607621	-3.2768027185	 0.086513
H	 2.5543118483	 5.273857178	-4.3832914868	 0.112222
H	 1.9310603621	 3.6209028634	-3.9450092423	 0.10295
H	 2.5423453289	 5.9425655019	-1.9434504513	 0.083566
55.1116	62.204	96.0975	133.5096	202.2846	295.506	329.0667	420.3631	479.7033	540.5584	668.7933	760.4434	782.5741	802.9987	823.4141	852.1337	922.3267	946.6661	959.8405	989.8881	1006.141	1028.4423	1033.6737	1064.123	1080.3946	1089.4557	1108.4679	1134.4336	1160.0181	1196.8678	1226.0074	1236.1938	1260.892	1272.5779	1303.4059	1313.7584	1348.5283	1371.9692	1393.3427	1431.8519	1462.4688	1483.8861	1489.8671	1502.0606	1835.8397	2844.011	3008.0032	3020.7805	3032.7791	3041.9953	3060.0604	3096.003	3106.3819	3109.1333	3173.3589	3185.0673	3200.4473
O=CCCC1CC2CC12	O=CCC[C@H]1C[C@H]2C[C@@H]12	
InChI=1S/C8H12O/c9-3-1-2-6-4-7-5-8(6)7/h3,6-8H,1-2,4-5H2	InChI=1S/C8H12O/c9-3-1-2-6-4-7-5-8(6)7/h3,6-8H,1-2,4-5H2/t6-,7-,8-/m0/s1
