21
gdb 103445	3.44025	1.13984	1.12129	1.4273	83.83	-0.2212	0.0232	0.2444	1205.5536	0.182718	-387.08426	-387.075394	-387.07445	-387.117396	34.465	
C	-0.1150034619	 1.6169450619	-0.0669827822	-0.474826
C	-0.0141243408	 0.1057937319	-0.0462659166	 0.346334
C	-1.2510545144	-0.5702201329	 0.5078890246	-0.142447
O	-1.4040283753	-0.1931269113	 1.871734386	-0.423066
C	 0.6828375174	-0.6760983092	-1.1379392407	-0.11411
C	 1.6596252799	 0.0406538831	-2.0746466076	-0.287389
C	 2.7772966719	 0.4914624138	-1.1556225755	-0.07687
C	 2.5716820618	 0.1055226493	 0.1066486832	-0.084118
C	 1.2892028867	-0.6336689238	 0.2620342543	-0.103833
H	 0.8361126615	 2.0917243148	-0.3128215029	 0.120969
H	-0.8581864323	 1.9424158283	-0.805654216	 0.103757
H	-0.4371194542	 1.9788393675	 0.9132703568	 0.132131
H	-2.1303812443	-0.2663897717	-0.0837915128	 0.082549
H	-1.1519889957	-1.6632447699	 0.4129709738	 0.07864
H	-2.2648845397	-0.49881572	 2.1716320337	 0.285513
H	 0.1942531091	-1.5726956557	-1.5046964906	 0.075672
H	 2.0275644326	-0.6356040406	-2.8574041562	 0.105407
H	 1.1959691136	 0.8882721836	-2.5978085121	 0.10845
H	 3.6153824082	 1.0847330782	-1.5044525565	 0.090848
H	 3.2314995111	 0.3140671929	 0.9413641594	 0.092845
H	 1.2322840747	-1.4716228801	 0.9492189679	 0.083544
91.2127	159.7773	188.8632	216.9372	243.0438	250.2778	338.2004	359.9724	370.153	509.0322	544.4276	678.7238	708.1179	756.738	794.3046	853.7663	859.657	934.0388	950.9577	959.658	968.2623	989.003	1010.7234	1015.7974	1068.871	1082.0252	1090.4447	1122.6875	1130.854	1175.8222	1205.9842	1244.5771	1253.8973	1303.1252	1313.3776	1342.1605	1374.8172	1407.8022	1416.0557	1458.2264	1475.4385	1495.7673	1506.589	1516.6033	1665.9238	2958.6023	2990.3848	3012.2847	3029.4035	3035.866	3098.4199	3135.4611	3155.3931	3163.2438	3183.0013	3207.9637	3831.2023
CC1(CO)C2CC=CC12	C[C@@]1(CO)[C@H]2CC=C[C@@H]12	
InChI=1S/C8H12O/c1-8(5-9)6-3-2-4-7(6)8/h2-3,6-7,9H,4-5H2,1H3	InChI=1S/C8H12O/c1-8(5-9)6-3-2-4-7(6)8/h2-3,6-7,9H,4-5H2,1H3/t6-,7+,8+/m1/s1
