17
gdb 68700	1.98868	1.79182	1.15234	3.6148	82.14	-0.241	-0.0132	0.2278	1104.2048	0.133496	-384.658115	-384.649378	-384.648434	-384.691298	33.186	
C	-0.0148349058	 1.5275501953	 0.0900681402	-0.487122
C	-0.0239772518	 0.0306045668	 0.0160966461	 0.280317
C	 1.1470674174	-0.7991101172	-0.3495135008	-0.357882
C	 0.592624691	-0.9723597121	 1.0767274706	 0.040962
C	 1.3848906514	-0.7351139484	 2.2295561808	 0.185595
C	 2.0407841298	-0.5264978599	 3.2170890522	-0.418826
C	-0.689621703	-1.7642910912	 0.9887933423	 0.360293
O	-1.1517287884	-2.6468269854	 1.6502893144	-0.301542
C	-1.2874002018	-0.8392063842	-0.1004654051	-0.413002
H	 0.955342905	 1.8964370133	 0.4359703602	 0.1352
H	-0.2100598604	 1.9668246835	-0.8951443397	 0.131451
H	-0.7831913647	 1.8945618248	 0.7782382962	 0.130812
H	 1.0560444804	-1.6194197012	-1.0567588767	 0.126084
H	 2.1111828135	-0.3012168893	-0.3621048557	 0.138417
H	 2.6155887112	-0.3518135582	 4.0925147204	 0.1921
H	-2.1932836842	-0.3601207113	 0.2834657874	 0.134914
H	-1.4993685696	-1.2739066254	-1.081914613	 0.122228
100.9588	114.5715	143.2691	198.9576	284.4721	335.3195	380.184	406.6711	497.8043	515.8655	576.8672	585.9275	605.155	649.6866	653.8763	704.8679	777.6072	858.8474	959.8281	984.7426	986.5106	1008.5249	1060.1178	1085.5899	1113.0123	1130.6034	1208.4808	1263.375	1328.8764	1380.6052	1422.6341	1458.5677	1483.9193	1494.4882	1504.6884	1883.1481	2231.0627	3029.7707	3052.7919	3091.9438	3106.661	3110.8285	3115.5589	3208.7036	3501.9784
CC12CC1(C#C)C(=O)C2	C[C@@]12C[C@]1(C#C)C(=O)C2	
InChI=1S/C8H8O/c1-3-8-5-7(8,2)4-6(8)9/h1H,4-5H2,2H3	InChI=1S/C8H8O/c1-3-8-5-7(8,2)4-6(8)9/h1H,4-5H2,2H3/t7-,8-/m1/s1
