23
gdb 99860	1.97516	1.24893	1.1743	1.2514	87.2	-0.2568	0.047	0.3038	1293.5596	0.201941	-388.267298	-388.256074	-388.25513	-388.302668	42.327	
C	-1.4998743725	-0.3369953343	 0.0900589677	-0.405523
C	 0.0175024172	-0.1454546283	 0.0529740833	-0.187421
C	 0.7341796298	-0.6183098195	-1.2466394081	 0.059121
C	 0.645484075	-2.1534053314	-1.3879937849	-0.429605
C	 0.1326783543	 0.0307091574	-2.4172966668	 0.343744
C	-0.3212133066	 0.5951924869	-3.3793469167	-0.509608
C	 2.2320870227	-0.1534038838	-1.1611316028	 0.124264
C	 3.1247099233	-0.6678394913	-2.2920410722	-0.422389
O	 2.3139449054	 1.2613042475	-1.0656045562	-0.435699
H	-1.9845262639	 0.1847331225	-0.7404100381	 0.128417
H	-1.7891932649	-1.3915098665	 0.0387752966	 0.113489
H	-1.906590386	 0.066030955	 1.0227418664	 0.113669
H	 0.2605102709	 0.9108003709	 0.1934019211	 0.121157
H	 0.4786574862	-0.6869526106	 0.889062965	 0.09108
H	-0.3939487154	-2.4871874955	-1.3535317639	 0.127227
H	 1.0707565207	-2.4968987003	-2.3328815713	 0.127423
H	 1.1861017927	-2.6364923497	-0.5665203238	 0.114378
H	-0.7447332519	 1.0732917615	-4.2281895696	 0.198876
H	 2.6180171704	-0.5214836995	-0.2026667787	 0.084935
H	 2.7095280676	-0.3999314285	-3.2697746013	 0.121626
H	 4.1114124128	-0.2069341544	-2.1989020113	 0.124479
H	 3.2501667509	-1.7533659151	-2.2586612655	 0.116246
H	 1.9091219313	 1.6198634673	-1.8661792189	 0.280112
95.2602	98.8821	145.9729	154.7778	207.0253	218.5043	234.1958	252.273	320.786	349.3971	355.8689	392.7505	401.8572	439.0468	491.5801	563.5538	623.3046	638.7875	645.936	669.8897	790.1614	851.7061	898.6195	930.479	1005.434	1019.4823	1032.0685	1062.6611	1101.7734	1113.2366	1178.305	1188.5542	1218.3606	1295.0547	1325.6557	1352.635	1369.6914	1403.3589	1407.0206	1415.0114	1428.6383	1482.6677	1492.4452	1493.1164	1498.2862	1499.0825	1509.1501	1515.3941	2215.7712	3025.7598	3036.8644	3039.2472	3040.7065	3043.2884	3090.4752	3107.2919	3112.7334	3115.543	3117.3864	3122.9969	3134.101	3497.719	3764.3059
CCC(C)(C#C)C(C)O	CC[C@@](C)(C#C)[C@@H](C)O	
InChI=1S/C8H14O/c1-5-8(4,6-2)7(3)9/h1,7,9H,6H2,2-4H3	InChI=1S/C8H14O/c1-5-8(4,6-2)7(3)9/h1,7,9H,6H2,2-4H3/t7-,8-/m1/s1
