18
gdb 64680	4.65113	0.86046	0.8187	3.8715	83.23	-0.2757	0.0158	0.2915	1405.0343	0.145439	-364.788643	-364.779117	-364.778173	-364.823041	35.108	
C	-0.0679764911	 1.6890904587	 0.2252110062	-0.46549
C	-0.0583994606	 0.1823624975	 0.0726146282	 0.336842
C	-1.3778595395	-0.4269523366	-0.4083118491	-0.428926
C	-1.7461504078	 0.0048811733	-1.7532463133	 0.318068
C	-2.0338249115	 0.3693241311	-2.8616433302	-0.446207
C	 1.209270778	-0.5006434102	-0.340959522	-0.304842
C	 0.7081057103	-0.6635931626	 1.0907878253	-0.23803
C	 1.4156922572	-0.0434787503	 2.1743047672	 0.291701
N	 1.9810701945	 0.4597949285	 3.0498009545	-0.343258
H	 0.8922579418	 2.0619292717	 0.5888873298	 0.140078
H	-0.2814168296	 2.1610387481	-0.738273531	 0.138959
H	-0.8393652555	 2.0049171226	 0.9360769794	 0.128251
H	-1.3080658274	-1.5217959556	-0.3874468186	 0.130433
H	-2.1771030186	-0.1571281619	 0.2947373723	 0.140472
H	-2.2971735261	 0.685254236	-3.8407663114	 0.20228
H	 1.1528474081	-1.3775628747	-0.9763009966	 0.131149
H	 2.0940667527	 0.1081096561	-0.4861828889	 0.139061
H	 0.2761093952	-1.625425102	 1.3483843882	 0.129458
58.9439	98.1423	144.7765	176.1141	212.4143	301.1589	329.3224	350.2482	357.7662	385.6019	462.4096	553.3155	627.0362	631.3872	652.041	724.3432	808.8978	859.7149	911.134	950.0201	954.4281	974.2453	1007.3286	1082.2385	1086.3961	1108.6208	1133.3443	1208.5352	1259.7886	1333.4041	1353.9911	1400.5485	1424.515	1464.2477	1483.2118	1493.2284	1504.4806	2239.4454	2350.801	3017.0558	3040.3429	3051.4444	3106.5068	3128.2573	3141.7122	3160.2604	3232.2917	3504.9765
CC1(CC#C)CC1C#N	C[C@@]1(CC#C)C[C@H]1C#N	
InChI=1S/C8H9N/c1-3-4-8(2)5-7(8)6-9/h1,7H,4-5H2,2H3	InChI=1S/C8H9N/c1-3-4-8(2)5-7(8)6-9/h1,7H,4-5H2,2H3/t7-,8+/m0/s1
