19
gdb 37391	2.86227	2.24893	1.8048	0.2108	77.57	-0.1901	0.0845	0.2746	842.6953	0.163493	-381.957472	-381.951503	-381.950559	-381.987287	26.724	
C	-0.0099860756	 1.5178091311	 0.0956641984	-0.330226
C	 1.3053594739	 0.8331916894	-0.0570228543	 0.027914
C	 0.034420669	-0.0016451626	-0.0133492166	-0.025985
N	-0.2246328394	-0.678312912	-1.2889902001	-0.145625
C	-0.3446527289	 0.3331257422	-2.3959901643	-0.194602
C	 1.1670700189	 0.3069297701	-2.5425091347	 0.000796
C	 1.1039118221	-1.1259927552	-1.9702541287	 0.01267
C	 2.3871628048	-0.827055726	-1.2254049386	-0.183788
N	 2.0423854992	 0.6525299928	-1.3069507257	-0.158847
H	-0.2042187202	 1.8900556963	 1.0967401629	 0.113643
H	-0.4247158746	 2.1516458029	-0.6743035223	 0.122041
H	 1.986560734	 0.8630639736	 0.7889984114	 0.094063
H	-0.2564282891	-0.5777862266	 0.8597547419	 0.087536
H	-0.7942196175	-0.1505076921	-3.272899786	 0.106107
H	-0.9150073725	 1.2356601433	-2.1866991828	 0.10894
H	 1.6786412834	 0.6086083856	-3.4595690972	 0.07551
H	 0.9465790362	-2.0375689683	-2.5488119008	 0.076896
H	 2.546226298	-1.2069731999	-0.2130190927	 0.106113
H	 3.2607886083	-1.0542520147	-1.8453527395	 0.106846
231.0288	339.8575	426.4957	492.1726	514.5949	570.7678	647.2913	671.1778	708.4214	736.4254	785.6147	804.8659	853.4991	877.8017	920.7854	928.3545	943.1819	979.8044	1004.3922	1020.7611	1029.2579	1048.0611	1070.1121	1095.9022	1107.8042	1133.6073	1143.1422	1185.5606	1196.0649	1213.6347	1216.9695	1249.0875	1295.59	1299.0205	1303.1644	1308.92	1347.9582	1389.575	1481.1541	1499.2519	1545.5863	3024.2243	3043.5811	3074.586	3095.6671	3101.3694	3134.1489	3136.4895	3141.0969	3153.3285	3243.8841
C1C2C1N1CC3C1CN23	C1[C@H]2[C@@H]1N1C[C@@H]3[C@H]1CN23	
InChI=1S/C7H10N2/c1-4-5(1)9-3-7-6(9)2-8(4)7/h4-7H,1-3H2	InChI=1S/C7H10N2/c1-4-5(1)9-3-7-6(9)2-8(4)7/h4-7H,1-3H2/t4-,5+,6-,7-/m1/s1
