14
gdb 131894	2.84886	1.62587	1.03635	6.7047	71.49	-0.2084	-0.052	0.1564	1052.7082	0.102454	-469.96835	-469.96082	-469.959876	-470.000304	28.76	
N	 0.0357918864	 1.3993250554	 0.1484364909	-0.601523
C	-0.0193421781	 0.0375248388	 0.0434583938	 0.33415
C	-1.1255566692	-0.8173812358	 0.0322023897	 0.303802
C	-0.6587725883	-2.1690628437	-0.0099660386	-0.239228
C	 0.6987600326	-2.1094397363	-0.0272952751	-0.068733
N	 1.0782592002	-0.7639454318	 0.003069217	-0.322292
N	-2.4659436043	-0.3876373784	 0.0205255475	 0.336308
O	-3.3523604153	-1.2372752921	-0.0285147327	-0.380252
O	-2.6891306535	 0.8385691539	 0.0562045281	-0.44077
H	 0.7779552479	 1.8654554331	-0.3526811912	 0.254034
H	-0.8853205084	 1.8082916782	 0.0295204164	 0.287418
H	-1.2830694162	-3.0455204475	-0.0332873866	 0.134456
H	 1.4463406929	-2.8836502847	-0.0622480802	 0.135048
H	 2.0256019733	-0.4324077993	 0.065319731	 0.267581
106.3551	188.9646	233.8905	281.2379	348.7042	365.518	453.2516	458.4841	569.677	610.1887	637.3898	678.1722	714.8432	737.3485	791.5906	838.6527	850.9082	906.8295	1047.2815	1066.5791	1125.6219	1224.7449	1251.8024	1346.8888	1378.2925	1432.008	1524.7193	1546.0033	1568.0014	1618.2162	1666.8061	3276.1435	3297.7258	3511.5382	3643.6901	3673.9806
NC1=C(C=CN1)N(=O)=O	Nc1c(cc[nH]1)N(=O)=O	
InChI=1S/C4H5N3O2/c5-4-3(7(8)9)1-2-6-4/h1-2,6H,5H2	InChI=1S/C4H5N3O2/c5-4-3(7(8)9)1-2-6-4/h1-2,6H,5H2
