21
gdb 93353	2.74142	1.45366	1.11528	3.4033	82.01	-0.2306	-0.0049	0.2257	1152.1901	0.184306	-387.118982	-387.110695	-387.10975	-387.151688	32.877	
C	-0.3958241866	 1.5303969897	 0.0209058619	-0.387803
C	 0.0182971115	 0.0502924187	-0.0061934219	 0.002665
C	 0.7558769931	-0.324767488	-1.3114959796	-0.215504
C	 2.269115565	-0.0429226762	-1.2584857261	-0.319811
C	 2.9084021251	-0.9099701772	-0.1814209714	 0.406371
O	 3.8699010394	-1.6155437953	-0.3991660542	-0.337498
C	 2.2352624456	-0.8855412855	 1.1471471188	-0.123835
C	 1.9399836395	 0.4701907045	 1.7800628401	-0.292453
C	 0.8079697083	-0.352950732	 1.2498060134	-0.037941
H	 0.4652297459	 2.1987492424	-0.0851773209	 0.114206
H	-1.0884157684	 1.7523524147	-0.7974801237	 0.113647
H	-0.8923971783	 1.7835206001	 0.9628975159	 0.11656
H	-0.9066931044	-0.537804484	 0.0120477291	 0.079962
H	 0.6174719993	-1.3949939802	-1.5069716212	 0.107725
H	 0.3042526332	 0.2048347879	-2.1577517577	 0.09885
H	 2.7579166982	-0.2751384836	-2.2073112839	 0.120329
H	 2.4526174469	 1.017973353	-1.0461542779	 0.113757
H	 2.547785302	-1.6838530821	 1.8105286889	 0.101581
H	 2.0708027142	 0.5438220611	 2.853632663	 0.122763
H	 2.2480692057	 1.3565125579	 1.2376254038	 0.121337
H	 0.2086885246	-0.8397077759	 2.0134770036	 0.095091
75.8027	156.7125	217.9221	233.2767	300.2015	357.6948	378.5962	422.8427	475.313	545.9404	592.0466	709.5161	717.0984	755.1401	828.4917	838.3107	887.5753	923.4529	947.2778	984.3559	988.3697	1011.9861	1052.9284	1067.3605	1095.7599	1115.3132	1132.4144	1137.1156	1194.6114	1218.2516	1233.1358	1258.7651	1333.4433	1340.3266	1365.0957	1368.8998	1380.8266	1393.2168	1413.4679	1469.7399	1487.539	1494.357	1498.989	1504.5099	1798.3347	3020.2846	3031.0236	3033.8379	3036.4417	3069.6175	3099.3589	3104.2648	3109.0024	3142.0151	3146.7215	3180.1343	3226.1054
CC1CCC(=O)C2CC12	C[C@H]1CCC(=O)[C@H]2C[C@@H]12	
InChI=1S/C8H12O/c1-5-2-3-8(9)7-4-6(5)7/h5-7H,2-4H2,1H3	InChI=1S/C8H12O/c1-5-2-3-8(9)7-4-6(5)7/h5-7H,2-4H2,1H3/t5-,6-,7-/m0/s1
