20
gdb 105202	1.95063	1.458	1.08482	2.3152	75.71	-0.2414	0.0209	0.2622	1236.6947	0.168746	-440.316797	-440.306566	-440.305622	-440.352113	37.298	
C	-0.67208015	 1.1180518535	 0.3770002037	-0.386768
C	-0.7858414315	-0.1985279918	-0.4024410677	-0.264455
C	 0.3876733895	-0.4147740294	-1.3328293225	 0.279503
O	 1.6840256507	-0.6360647255	-0.7376005103	-0.310517
C	 1.096648855	-1.707289822	-1.4909243118	 0.035534
C	 0.7610664613	-2.9770430575	-0.7542568131	-0.42502
C	 0.4030659193	 0.5173897813	-2.5393116133	 0.338751
N	 1.6505218827	 0.8757948272	-2.9434094856	-0.526914
O	-0.6256634394	 0.8686357149	-3.0869529189	-0.37434
H	 0.2447109414	 1.1385874001	 0.9741122841	 0.125325
H	-0.6608748032	 1.9760302008	-0.301869531	 0.132868
H	-1.5224774663	 1.2397669529	 1.0538408157	 0.114632
H	-0.8693037273	-1.0353367873	 0.294874338	 0.096847
H	-1.6874656683	-0.1888070588	-1.0219184453	 0.13339
H	 1.5824596123	-1.8652953441	-2.4557608827	 0.096531
H	 0.325749028	-2.7789138749	 0.2261388271	 0.134881
H	 0.0578884298	-3.5789105997	-1.3394621348	 0.132479
H	 1.6690473251	-3.5713855197	-0.6079964825	 0.132217
H	 2.4326903051	 0.6783288569	-2.3406240068	 0.2734
H	 1.7390984156	 1.542989473	-3.6913505722	 0.261657
61.0614	72.8992	146.9814	163.2184	208.753	213.6866	230.3	313.3802	350.0178	367.2187	421.3916	515.3493	523.6861	541.5253	634.4926	679.2418	735.812	774.6004	818.2434	918.7702	938.4871	974.3829	1025.5113	1065.503	1091.794	1103.9763	1135.7747	1169.484	1223.3445	1296.8435	1323.3347	1377.7644	1378.8677	1404.85	1408.5055	1454.0304	1465.1094	1487.12	1499.2878	1504.2466	1509.013	1591.6638	1794.1541	3041.6694	3042.895	3066.3044	3091.5496	3102.4424	3103.7524	3114.5208	3124.0644	3145.0057	3592.7433	3732.4432
CCC1(OC1C)C(N)=O	CC[C@]1(O[C@H]1C)C(=O)N	
InChI=1S/C6H11NO2/c1-3-6(5(7)8)4(2)9-6/h4H,3H2,1-2H3,(H2,7,8)	InChI=1S/C6H11NO2/c1-3-6(5(7)8)4(2)9-6/h4H,3H2,1-2H3,(H2,7,8)/t4-,6+/m0/s1
