19
gdb 83845	2.15727	1.74502	1.28187	2.06	75.99	-0.2376	-0.0179	0.2197	1062.252	0.159959	-423.03692	-423.028751	-423.027807	-423.069714	31.404	
C	-0.2774107722	 1.4921215594	-0.0867089126	-0.415376
C	 0.0066507586	 0.010859362	 0.0126582609	-0.039916
C	 1.3402967314	-0.5758225881	-0.3295589751	 0.060749
O	 2.3617774698	 0.3228145279	-0.6444439418	-0.251126
C	 3.3682070367	 0.4320486482	 0.354045254	-0.088802
C	 2.7754934782	 1.0124562737	 1.6427417774	-0.316639
C	 1.625486865	 0.1474417479	 2.149257322	 0.392658
O	 1.3891584532	 0.0242566577	 3.3312402179	-0.327117
C	 0.8707640341	-0.6260150429	 1.1168706482	-0.188282
H	 0.6391382313	 2.0821130046	-0.0449714081	 0.131272
H	-0.7631476045	 1.7139717419	-1.0426428076	 0.125379
H	-0.9455919423	 1.8226484248	 0.7143682523	 0.128114
H	-0.8421668595	-0.6193116078	-0.2393404305	 0.100114
H	 1.3924930573	-1.5094316964	-0.887131646	 0.098782
H	 3.8274844271	-0.5487528536	 0.5486453888	 0.10267
H	 4.1374314917	 1.0889634259	-0.0605227598	 0.117025
H	 3.5182254256	 1.0890712286	 2.4421053912	 0.125064
H	 2.4037515529	 2.0243817217	 1.4409235398	 0.133481
H	 0.4894459056	-1.5634251554	 1.506905099	 0.111949
82.078	130.5138	186.33	204.614	306.5284	360.351	425.3484	445.1498	498.6731	547.3724	608.6174	714.9185	748.228	751.9159	831.3373	893.5369	921.5416	924.4771	979.5028	1039.9418	1054.458	1065.3835	1087.5798	1095.1479	1146.9358	1175.4741	1211.4969	1246.1498	1251.8923	1277.872	1335.7595	1351.957	1360.7278	1403.274	1418.5655	1424.1234	1451.6539	1493.8681	1504.5097	1507.1803	1793.9433	2996.5444	3042.2931	3044.7103	3094.6745	3101.8127	3102.0833	3114.3003	3135.1793	3149.5895	3173.7786
CC1C2OCCC(=O)C12	C[C@H]1[C@H]2OCCC(=O)[C@@H]12	
InChI=1S/C7H10O2/c1-4-6-5(8)2-3-9-7(4)6/h4,6-7H,2-3H2,1H3	InChI=1S/C7H10O2/c1-4-6-5(8)2-3-9-7(4)6/h4,6-7H,2-3H2,1H3/t4-,6-,7-/m1/s1
