20
gdb 122864	4.31131	0.62362	0.57155	2.6721	73.79	-0.2442	0.0175	0.2616	1969.684	0.168616	-477.433961	-477.422926	-477.421982	-477.472776	36.658	
C	-0.1619502094	 1.3257509414	-0.0125924078	-0.226515
O	-0.0346909971	-0.0757156686	 0.0173834269	-0.226965
C	 0.5587465503	-0.5969746879	-1.146708645	-0.066847
C	 0.6051668797	-2.1044411556	-1.0433961137	-0.072629
O	-0.7390010422	-2.6018580569	-1.1576195202	-0.237402
C	-0.8888171659	-3.931914441	-1.021437659	 0.421183
O	 0.0210666449	-4.7001597084	-0.8303300716	-0.361585
C	-2.357545554	-4.3311428785	-1.1443466375	-0.273287
N	-2.624959599	-5.7508651457	-0.9999018788	-0.486278
H	 0.8168120373	 1.8242227533	-0.100631692	 0.104057
H	-0.7933683284	 1.6608517766	-0.8505266898	 0.106831
H	-0.6297224713	 1.6310447047	 0.9262237862	 0.130759
H	-0.0078634895	-0.3014600079	-2.045370636	 0.097191
H	 1.5895634424	-0.2203555853	-1.2668865518	 0.090548
H	 1.2206322466	-2.5279529856	-1.8436425663	 0.118682
H	 1.0290917902	-2.414339311	-0.084266379	 0.133701
H	-2.9240360378	-3.7646631005	-0.3962700781	 0.141212
H	-2.7210379571	-3.9787225621	-2.1170017022	 0.136668
H	-2.0628567554	-6.2617032709	-1.6755504357	 0.235135
H	-2.2799456543	-6.0602020202	-0.0951499387	 0.23554
22.4326	43.0086	59.988	90.0406	145.2122	163.6079	218.428	230.4134	279.3931	295.5634	311.3255	449.8168	527.5801	576.9732	702.5008	853.025	884.7226	915.783	920.9829	961.5117	1057.8172	1061.7685	1128.1685	1154.3487	1170.6358	1178.6339	1187.3101	1223.1391	1228.977	1261.3204	1298.2565	1369.6422	1388.329	1400.2873	1434.6593	1455.9783	1480.0206	1486.4545	1494.1613	1498.601	1521.8527	1678.1989	1817.6824	2953.3361	2971.3405	2988.9947	3014.0936	3042.7818	3057.4501	3078.8885	3109.1325	3117.9875	3492.1724	3558.9464
COCCOC(=O)CN	COCCOC(=O)CN	
InChI=1S/C5H11NO3/c1-8-2-3-9-5(7)4-6/h2-4,6H2,1H3	InChI=1S/C5H11NO3/c1-8-2-3-9-5(7)4-6/h2-4,6H2,1H3
