16
gdb 45986	3.35013	1.29025	1.00715	1.1991	72.43	-0.2407	-0.0487	0.192	1129.1791	0.125581	-437.941022	-437.933187	-437.932243	-437.973925	29.471	
O	 0.0679201091	 0.5924732881	-1.2811604137	-0.286466
C	 0.0104897636	 1.2095787642	-0.2496904025	 0.394036
C	-1.2711359027	 1.9525760252	 0.1513407004	-0.280117
N	-1.3841278406	 2.2936667991	 1.5590098093	-0.321075
C	-0.6750911105	 3.2836271966	 2.2105864212	 0.360866
O	-1.0977108676	 3.8040609372	 3.2279709382	-0.36879
C	 0.6532557979	 3.6392278738	 1.645172353	-0.132081
C	 1.4853288745	 2.7912878122	 1.0316001296	-0.088163
C	 1.1883730426	 1.3471446138	 0.7135018579	-0.357083
H	-1.3285003736	 2.8416583374	-0.4936368482	 0.149562
H	-2.1118652686	 1.3127902881	-0.1230514584	 0.149397
H	-2.2792245628	 2.1199377325	 1.9940871339	 0.252318
H	 0.9713722369	 4.6493561228	 1.8794407508	 0.122261
H	 2.4628830823	 3.1536724007	 0.725151578	 0.120318
H	 0.9067499588	 0.8132523635	 1.6310856305	 0.152185
H	 2.0480241808	 0.8431536749	 0.27129486	 0.132832
50.4603	118.608	221.579	300.2662	326.0743	372.6149	425.0547	488.0734	518.5545	597.5966	608.9929	673.7676	750.8609	767.1103	814.8523	864.0774	925.2319	962.7869	1004.7503	1022.0376	1117.4106	1142.0446	1221.6334	1232.626	1268.9624	1301.9312	1327.5655	1366.2062	1413.8038	1445.9337	1458.16	1470.4141	1683.7261	1773.7566	1832.446	3005.901	3028.2403	3118.8021	3131.5968	3165.5844	3199.6589	3603.8769
O=C1CNC(=O)C=CC1	O=C1CNC(=O)C=CC1	
InChI=1S/C6H7NO2/c8-5-2-1-3-6(9)7-4-5/h1,3H,2,4H2,(H,7,9)	InChI=1S/C6H7NO2/c8-5-2-1-3-6(9)7-4-5/h1,3H,2,4H2,(H,7,9)
