17
gdb 69246	2.86553	1.56864	1.17107	3.2509	75.3	-0.2164	-0.0083	0.2082	1059.3544	0.137831	-418.034598	-418.02688	-418.025936	-418.066516	30.382	
C	-0.0215582402	 1.5214829151	 0.0334716578	-0.483237
C	 0.0323199245	 0.0109802326	-0.0199035854	 0.283881
N	-0.8006428357	-0.7682220663	 0.9268333883	-0.357731
C	 0.6690229936	-0.7473722061	 1.1137830682	-0.238638
C	 1.3947321465	-2.0324140817	 0.8575098579	 0.47872
O	 2.0746066424	-2.5941306396	 1.6932158181	-0.373098
N	 1.2645872385	-2.5223252411	-0.4282647001	-0.365443
C	 0.7153592374	-1.8182024386	-1.4973097365	 0.015212
C	 0.157681351	-0.6116793452	-1.3612000289	-0.157355
H	 0.8580597605	 1.9634903147	-0.4454605071	 0.133913
H	-0.9097540101	 1.894453239	-0.4893285186	 0.129164
H	-0.060870807	 1.8806295688	 1.0670455556	 0.11787
H	-1.2101418606	-0.1369676085	 1.6131413633	 0.234198
H	 1.0731171848	-0.2012859968	 1.9606655326	 0.105845
H	 1.7614248068	-3.3828869026	-0.602357974	 0.25629
H	 0.7879191147	-2.3246854503	-2.4522616879	 0.123506
H	-0.2335907273	-0.0929806232	-2.2275317134	 0.096902
124.7438	169.6334	214.983	278.5978	336.518	373.234	446.5261	478.4069	545.622	574.135	627.3805	674.2114	725.0609	745.7865	795.6402	857.9796	891.5041	934.0056	954.6669	986.2469	1026.2188	1060.1449	1096.7435	1117.4784	1157.8729	1211.8491	1287.5408	1291.641	1360.9909	1410.6106	1420.0014	1441.5846	1471.4223	1483.1166	1502.1334	1716.6522	1797.5977	3028.0216	3094.2845	3104.1139	3162.7561	3196.0569	3215.4176	3483.9866	3627.8275
CC12NC1C(=O)NC=C2	C[C@]12N[C@H]1C(=O)NC=C2	
InChI=1S/C6H8N2O/c1-6-2-3-7-5(9)4(6)8-6/h2-4,8H,1H3,(H,7,9)	InChI=1S/C6H8N2O/c1-6-2-3-7-5(9)4(6)8-6/h2-4,8H,1H3,(H,7,9)/t4-,6+/m0/s1
