18
gdb 95676	2.90872	1.32287	1.01988	2.7033	76.01	-0.2399	-0.0575	0.1824	1163.4313	0.149725	-439.093119	-439.085022	-439.084078	-439.126203	31.086	
O	 0.2739248114	 0.8510476607	 0.9356700987	-0.428783
C	 0.0353254393	-0.2838218224	 0.1081098326	 0.098436
C	-1.4680254146	-0.5071298143	-0.0432700631	-0.207481
N	-2.0635539171	 0.6549982403	-0.6994772876	-0.314541
C	-2.233826761	 0.5001739165	-2.1356956868	-0.28005
C	-0.9586812467	 0.4435789289	-2.9806642585	 0.364934
O	-1.0744326059	 0.5765766425	-4.1846635322	-0.322137
C	 0.3940563371	 0.2288381725	-2.4123336399	-0.141196
C	 0.8042500007	-0.0901335618	-1.1773191497	-0.060095
H	-0.262806471	 1.5518245496	 0.5363559961	 0.282439
H	 0.4686031631	-1.1376216697	 0.6429733846	 0.08959
H	-1.6710619097	-1.4470199286	-0.5831386416	 0.093878
H	-1.8833699817	-0.603723102	 0.964151451	 0.112497
H	-2.960270832	 0.8732469205	-0.2851044504	 0.234181
H	-2.7988061662	-0.4136654309	-2.4011973115	 0.116355
H	-2.8104513098	 1.3441858509	-2.5245477566	 0.135717
H	 1.1488869981	 0.3502613327	-3.1858361936	 0.111017
H	 1.880444926	-0.1653905753	-1.0304494215	 0.115239
50.2797	120.404	227.6648	289.1617	327.2067	349.6983	411.735	461.8954	491.104	523.3819	621.3568	627.837	685.3361	800.2226	827.2283	838.8973	854.8149	949.903	958.18	1000.1329	1044.0466	1076.4967	1107.0173	1167.3215	1214.0805	1243.364	1267.8717	1294.7026	1310.8012	1348.6808	1387.1027	1405.8501	1413.6825	1438.0934	1457.3409	1480.1039	1495.5467	1694.2744	1751.1057	2928.3852	2968.9878	3041.2651	3084.2227	3090.787	3140.6061	3166.0892	3559.3071	3728.2892
OC1CNCC(=O)C=C1	O[C@H]1CNCC(=O)C=C1	
InChI=1S/C6H9NO2/c8-5-1-2-6(9)4-7-3-5/h1-2,5,7-8H,3-4H2	InChI=1S/C6H9NO2/c8-5-1-2-6(9)4-7-3-5/h1-2,5,7-8H,3-4H2/t5-/m1/s1
