15
gdb 67179	3.02325	1.59556	1.51523	3.3602	66.22	-0.2344	0.0024	0.2367	922.107	0.114346	-453.892003	-453.885198	-453.884254	-453.922996	27.426	
N	-0.1913947295	 1.4669132084	 0.0746648634	-0.622516
C	-0.003077967	 0.0752935961	-0.0140260759	 0.214631
C	-0.9594479097	-1.1025479585	 0.0263463994	 0.032929
O	-0.3340158022	-1.7949770391	-1.0419390936	-0.283388
C	 0.7965186185	-0.8606650881	-0.9925296817	-0.095247
C	 1.8146959966	-1.5386857176	-0.1162256356	 0.468363
N	 2.9599786496	-1.9498056821	-0.4434176047	-0.557075
O	 1.2335942902	-1.665444842	 1.1282886426	-0.243002
C	 0.0551752413	-0.8793176147	 1.1428010931	 0.017285
H	 0.6393718715	 1.9518097717	 0.3973794837	 0.243639
H	-0.4857386459	 1.8755775116	-0.8054761048	 0.243322
H	-2.0300404145	-1.2032164593	 0.1579095185	 0.119967
H	 1.1295834447	-0.5402508016	-1.976535878	 0.10765
H	 3.4252464293	-2.3974692022	 0.3486636977	 0.227301
H	-0.2672708728	-0.5912083826	 2.1341909558	 0.126143
136.4414	230.2039	307.3905	350.9356	367.558	430.5563	545.8749	587.5717	639.4091	725.4312	736.5924	786.236	808.8808	851.3306	874.3528	904.1951	914.0574	941.2306	996.5228	1032.9181	1047.5402	1068.7496	1092.0991	1140.8862	1185.8626	1234.5685	1259.9366	1283.5495	1296.8703	1342.6456	1488.9629	1659.3135	1786.6816	3161.174	3195.4904	3220.8269	3469.9186	3503.9452	3585.5875
NC12C3OC1C(=N)OC23	N[C@@]12[C@H]3O[C@@H]1[C]([NH])O[C@@H]23	
InChI=1S/C5H6N2O2/c6-4-3-5(7)1(8-3)2(5)9-4/h1-3,6H,7H2	InChI=1S/C5H6N2O2/c6-4-3-5(7)1(8-3)2(5)9-4/h1-3,6H,7H2/t1-,2+,3+,5+/m0/s1
