15
gdb 127897	2.57679	1.61836	1.00103	3.1777	79.86	-0.2102	-0.0672	0.143	1122.6939	0.111453	-450.072197	-450.063782	-450.062838	-450.105314	31.073	
C	 0.0581923124	 1.3652700374	 0.108081935	-0.335921
N	-0.0158075214	-0.0807820122	 0.160928224	-0.321803
C	-1.1250826178	-0.692972988	-0.001448157	 0.398806
N	-2.3556073491	-0.0294791872	-0.2429700158	-0.190076
N	-3.4416693396	-0.5813572728	-0.4387562937	 0.034715
O	-3.5055044709	-2.0052794468	-0.4283259974	-0.234589
C	-2.3790656888	-2.7207111157	-0.1831697108	 0.01394
C	-1.1779155008	-2.1457209062	 0.047760365	 0.165874
N	-0.0108679488	-2.79695286	 0.3617009628	-0.586105
H	 0.76672821	 1.654055685	-0.6774610844	 0.128742
H	-0.8999202105	 1.8609893604	-0.0752184416	 0.139019
H	 0.4760686124	 1.7310409632	 1.0535653186	 0.130969
H	-2.570987139	-3.7872926956	-0.1899944319	 0.133948
H	 0.0948126806	-3.7510491478	 0.0552017175	 0.252729
H	 0.8024780214	-2.2054850835	 0.2503502696	 0.269752
83.8993	106.4943	195.2562	220.1493	284.3398	327.7329	393.0992	430.955	489.0506	532.6725	551.3747	567.3796	604.0814	643.0945	757.5691	776.3842	826.1527	920.1884	1066.5013	1072.3483	1127.7089	1131.6009	1181.2662	1212.8923	1332.3748	1430.2898	1454.9488	1489.6513	1491.9863	1595.2881	1610.0825	1686.3202	1708.7402	3018.6735	3070.691	3102.7142	3200.9762	3549.4493	3678.0301
CN=C1N=NOC=C1N	C[N]C1=N[N]OC=C1N	
InChI=1S/C4H6N4O/c1-6-4-3(5)2-9-8-7-4/h2H,5H2,1H3	InChI=1S/C4H6N4O/c1-6-4-3(5)2-9-8-7-4/h2H,5H2,1H3
