17
gdb 126779	2.57042	1.34549	0.94235	2.029	71.67	-0.2055	0.0482	0.2537	1230.9498	0.136111	-455.170388	-455.161414	-455.160469	-455.204649	32.942	
C	 0.1828367645	 1.5584783787	-0.061648497	-0.373671
C	 0.0046687463	 0.0478470359	 0.1012175492	-0.143847
N	 0.6516099956	-0.4684774362	 1.2913647424	-0.028548
N	 2.0215145776	-0.5739565941	 1.3451808081	-0.393754
C	 2.2624922179	-1.0179763719	 2.5661107124	 0.464057
O	 3.5196803226	-1.2594933743	 2.9933806052	-0.430947
C	 1.0951380549	-1.2070014381	 3.3370417179	-0.496667
C	 0.0911346187	-0.8319068332	 2.4630287116	 0.479183
O	-1.2540254314	-0.7751309161	 2.5860563391	-0.435617
H	 1.2453007836	 1.8125178585	-0.0898682748	 0.142636
H	-0.2817162305	 1.8951487093	-0.9936760124	 0.115442
H	-0.2804997098	 2.0981838359	 0.7695354249	 0.125145
H	-1.0530959893	-0.2166325838	 0.1708673119	 0.132969
H	 0.429220151	-0.4807441438	-0.7579070524	 0.125428
H	 4.1078153645	-1.0459969027	 2.2577186306	 0.300407
H	 1.0062210377	-1.5604876714	 4.3500014009	 0.104302
H	-1.4963438641	-1.1098231425	 3.4547605523	 0.313481
40.0845	94.0318	200.3445	221.9875	252.5764	301.1041	309.6119	357.5575	414.9365	449.7404	549.4071	615.2929	649.548	662.0051	688.3547	734.9486	789.7924	837.3392	975.0724	1017.6606	1089.4527	1100.1192	1141.1148	1177.239	1235.9655	1248.7724	1306.0666	1354.8578	1396.0096	1409.0899	1476.0096	1487.7293	1491.075	1506.2168	1564.6409	1597.3145	1626.1653	3043.5305	3058.9618	3109.256	3116.9658	3135.5317	3274.1696	3790.407	3847.6463
CCN1N=C(O)C=C1O	CCn1nc(O)cc1O	
InChI=1S/C5H8N2O2/c1-2-7-5(9)3-4(8)6-7/h3,9H,2H2,1H3,(H,6,8)	InChI=1S/C5H8N2O2/c1-2-7-5(9)3-4(8)6-7/h3,9H,2H2,1H3,(H,6,8)
