17
gdb 105281	2.40334	1.12416	0.91047	2.5606	75.6	-0.2693	-0.0557	0.2136	1312.6151	0.134101	-418.004833	-417.995397	-417.994452	-418.039707	33.244	
C	 0.0503428873	 1.5488018665	-0.0722631078	-0.39536
C	 0.0006375878	 0.0510319384	 0.2463447539	-0.247801
C	-1.3885026279	-0.5385941362	 0.042047333	 0.157586
N	-1.772448238	-0.8874791143	-1.3288607588	-0.348441
C	-1.64230051	-1.9812506491	-0.3579020765	-0.165476
C	-0.5145180554	-2.939724306	-0.5835549777	 0.167692
O	-0.4779501775	-4.0335833082	-0.083335521	-0.241275
C	-2.4196445689	 0.027980904	 0.8909520291	 0.260516
N	-3.2392537057	 0.4990100046	 1.557689489	-0.333175
H	 1.0627593504	 1.9351842586	 0.0715643327	 0.126598
H	-0.2400802601	 1.732494964	-1.1109640702	 0.134769
H	-0.6224030623	 2.1174644234	 0.576896698	 0.143628
H	 0.6971247966	-0.4880742785	-0.4002745582	 0.118684
H	 0.3097603347	-0.1326047356	 1.281331268	 0.126681
H	-2.7507872135	-0.6805552844	-1.5128352888	 0.263067
H	-2.5348359676	-2.4414854194	 0.0577149452	 0.132799
H	 0.2797799502	-2.5703142876	-1.26524698	 0.099508
70.5378	85.7984	113.5626	157.225	201.7268	221.626	284.5955	333.9188	379.7665	438.2482	493.8115	588.5113	604.457	667.5909	786.3871	825.2762	934.3771	940.023	993.8017	1024.2498	1053.9009	1081.2648	1103.4653	1112.7558	1211.5183	1235.0329	1303.6067	1324.93	1368.0786	1375.6755	1413.4341	1442.2564	1475.8347	1498.4328	1506.6085	1827.0191	2347.2646	2917.7824	3044.6233	3052.9867	3100.4429	3121.6286	3123.2836	3158.4696	3517.6327
CCC1(NC1C=O)C#N	CC[C@]1(N[C@H]1C=O)C#N	
InChI=1S/C6H8N2O/c1-2-6(4-7)5(3-9)8-6/h3,5,8H,2H2,1H3	InChI=1S/C6H8N2O/c1-2-6(4-7)5(3-9)8-6/h3,5,8H,2H2,1H3/t5-,6-/m0/s1
