17
gdb 107775	2.75511	1.75017	1.32588	2.2696	73.09	-0.2367	0.0165	0.2532	988.2664	0.135863	-417.928186	-417.920369	-417.919425	-417.960575	29.742	
C	-0.0158950925	 1.3814544589	 0.0827866468	-0.279928
O	-0.0563127442	-0.0421549116	 0.0051693959	-0.297282
C	 0.6136943382	-0.5569087879	-1.0687657859	 0.347199
C	 0.1202291383	-0.4014061796	-2.5522945854	-0.315187
C	 0.8212660133	-1.740678076	-2.782452401	-0.035107
C	 0.7998669977	-2.1019620458	-1.360663312	-0.11828
N	 2.1304116981	-1.7632662916	-2.0108595174	-0.203229
C	 2.1193120387	-0.5153176263	-1.2558084644	 0.361209
N	 3.0482974705	 0.1907845869	-0.7946584867	-0.563224
H	 1.0160089023	 1.7418873438	 0.1442016257	 0.157376
H	-0.5114439387	 1.8402880661	-0.7842483414	 0.113084
H	-0.5590443602	 1.6566406757	 0.988322104	 0.132753
H	-0.9649041043	-0.5123379101	-2.6181481751	 0.120392
H	 0.4572016323	 0.473182754	-3.1166330943	 0.112342
H	 0.7969179319	-2.3787368201	-3.6560203534	 0.114572
H	 0.6454465757	-3.0003529305	-0.7818755253	 0.124443
H	 3.9567321629	-0.1702296658	-1.0987289601	 0.228868
85.4652	154.4821	172.9825	208.8656	298.3773	380.7337	412.7882	477.3257	625.504	674.8922	695.0595	756.5598	808.0597	833.1414	879.2128	896.2632	933.7319	970.8779	994.8103	1007.0386	1011.9598	1055.6263	1093.02	1146.7172	1152.8414	1183.1772	1199.4891	1225.4288	1244.5689	1266.6221	1331.7074	1373.9982	1484.9844	1488.2193	1497.4186	1510.8532	1818.6615	3005.3491	3054.6459	3086.1934	3120.0683	3138.7504	3203.4388	3237.5105	3439.3313
COC12CC3C1N3C2=N	CO[C@]12C[C@@H]3[C@H]1N3[C]2[NH]	
InChI=1S/C6H8N2O/c1-9-6-2-3-4(6)8(3)5(6)7/h3-4,7H,2H2,1H3	InChI=1S/C6H8N2O/c1-9-6-2-3-4(6)8(3)5(6)7/h3-4,7H,2H2,1H3/t3-,4-,6-,8?/m1/s1
