19
gdb 80589	3.63667	1.0902	0.98481	3.4915	76.16	-0.2339	-0.0165	0.2175	1274.1034	0.156687	-422.998968	-422.989767	-422.988823	-423.033519	33.395	
C	-0.0696590533	 1.5235166872	 0.050987052	-0.42127
C	 0.0777284775	 0.0199799597	 0.009479424	-0.038617
C	 1.3851857151	-0.6869456924	-0.1797372226	 0.086208
O	 2.4609640225	 0.037714818	 0.4267065207	-0.27204
C	 1.8904919583	-0.1630719896	 1.7318778525	 0.002937
C	 0.6450791407	-0.8354414136	 1.1329699457	-0.156998
C	 2.7049732933	-1.1319246728	 2.5912243715	 0.362675
C	 2.3021939705	-1.1697930098	 4.0551975966	-0.489154
O	 3.5798623404	-1.8199787199	 2.1302483366	-0.280159
H	 0.8559909649	 1.9972451762	 0.386061498	 0.139078
H	-0.2938804323	 1.9128351888	-0.9474967141	 0.121443
H	-0.8810832844	 1.8284263504	 0.7201193748	 0.116413
H	-0.7374241839	-0.5064935494	-0.4854721259	 0.094512
H	 1.6361609346	-1.3873504329	-0.9673546693	 0.110279
H	 1.7351635837	 0.7813489326	 2.2717824145	 0.08921
H	 0.1277478649	-1.6851723463	 1.558562353	 0.103617
H	 1.2127985411	-1.1802344391	 4.1697495503	 0.136165
H	 2.7400473167	-2.0438305881	 4.5383744452	 0.147272
H	 2.6661363396	-0.2643974687	 4.5558110066	 0.148428
56.3451	107.3245	115.0642	155.6587	169.1296	236.959	291.7942	370.6369	434.8561	556.7968	599.607	617.8049	725.8964	799.3851	834.8486	842.6195	879.9763	942.9669	968.004	990.3583	1012.5821	1022.8634	1055.9989	1067.977	1077.9676	1100.6113	1131.4963	1180.8629	1199.5241	1213.4404	1280.9541	1315.0119	1365.3735	1379.9728	1410.2993	1434.2037	1463.5073	1473.8951	1493.3623	1503.4739	1832.8342	3011.9293	3035.2239	3038.3505	3095.0622	3096.8677	3117.9845	3132.4583	3153.5299	3184.3885	3199.4026
CC1C2OC(C12)C(C)=O	C[C@H]1[C@H]2O[C@@H]([C@@H]12)C(=O)C	
InChI=1S/C7H10O2/c1-3-5-6(3)9-7(5)4(2)8/h3,5-7H,1-2H3	InChI=1S/C7H10O2/c1-3-5-6(3)9-7(5)4(2)8/h3,5-7H,1-2H3/t3-,5+,6-,7-/m1/s1
