16
gdb 56537	2.05692	1.44162	1.3471	3.2783	65.22	-0.2713	-0.0585	0.2128	1061.9382	0.121069	-475.036644	-475.027101	-475.026157	-475.070786	34.4	
C	 0.7425079395	 1.1089478049	 1.1147979403	-0.446696
C	 0.104628769	 0.04618882	 0.2341033746	 0.2711
O	-0.2100050433	-1.0743261634	 1.0528212122	-0.461195
C	-1.25049479	 0.5114575139	-0.3179861565	 0.138494
O	-1.6254516553	 0.3360011663	-1.4527980396	-0.270224
C	 1.0320111423	-0.4425050902	-0.9104527317	-0.062729
O	 0.4407878798	-1.5321323771	-1.5908969482	-0.435362
C	 1.4176699338	 0.6500033869	-1.8218416678	 0.277234
N	 1.7253091179	 1.516699308	-2.5210523249	-0.323555
H	 1.6490609322	 0.7089246062	 1.5772705797	 0.142391
H	 0.9993013212	 2.0015504785	 0.5381574943	 0.154663
H	 0.0525369823	 1.3915790822	 1.9147441268	 0.14127
H	-0.354784532	-1.8157858643	 0.4453571621	 0.29853
H	-1.9159872512	 0.9622253682	 0.4472348477	 0.115228
H	 1.9444060658	-0.830743958	-0.4447627249	 0.149099
H	-0.335886922	-1.1703411319	-2.0466269041	 0.311752
90.4902	109.7362	136.6683	194.1445	229.6142	256.0959	281.6284	331.328	362.2751	372.9577	458.9678	512.0237	534.8719	589.2506	628.4427	662.8517	837.5279	913.1634	943.4599	969.4559	1004.419	1077.4955	1116.7142	1168.1002	1232.3136	1294.1246	1308.6217	1370.0667	1415.0427	1420.1616	1447.4283	1483.3839	1493.8595	1808.063	2358.0917	2927.0478	3047.9244	3065.6042	3123.196	3132.204	3705.4499	3728.7334
CC(O)(C=O)C(O)C#N	C[C@@](O)(C=O)[C@@H](O)C#N	
InChI=1S/C5H7NO3/c1-5(9,3-7)4(8)2-6/h3-4,8-9H,1H3	InChI=1S/C5H7NO3/c1-5(9,3-7)4(8)2-6/h3-4,8-9H,1H3/t4-,5+/m0/s1
