16
gdb 33048	4.69567	0.90016	0.77756	4.0855	68.73	-0.2045	0.0375	0.242	1434.3744	0.123467	-475.070043	-475.061248	-475.060304	-475.104708	31.137	
C	 0.0186673213	 1.4390607435	 0.1107873936	-0.38749
C	-0.0695594577	-0.0378433905	-0.2151453292	-0.066281
O	-1.3038150234	-0.536174909	 0.3531883251	-0.274705
C	-1.5458417638	-1.8299320413	 0.1718675126	 0.417727
C	-2.6330216529	-2.4768157366	-0.2652912833	-0.236723
N	-2.3410053314	-3.8454687053	-0.1241543648	-0.365739
C	-1.0747189264	-4.022577138	 0.3666866296	 0.492398
O	-0.4596952456	-5.0260442448	 0.6009532553	-0.399645
O	-0.5770347521	-2.7352122752	 0.5623530212	-0.247963
H	 0.9412627431	 1.8558305603	-0.3033647877	 0.126195
H	-0.8296906995	 1.9826398125	-0.313856149	 0.131745
H	 0.023098176	 1.5945181626	 1.1929929479	 0.137137
H	-0.0882414821	-0.2136179122	-1.2984838586	 0.109578
H	 0.7704384706	-0.5953574484	 0.2105593348	 0.135351
H	-3.570316142	-2.1046949774	-0.6356440366	 0.151306
H	-2.9352783539	-4.6188834803	-0.3620979409	 0.277109
49.1579	62.7229	116.9312	177.5581	241.09	302.0128	331.6106	402.6671	440.5628	564.7462	624.3436	671.7287	711.2284	761.1519	783.6373	817.2745	890.7451	933.789	983.7467	1051.2345	1072.2717	1123.9426	1144.1607	1180.6865	1292.9202	1309.6278	1348.1153	1396.129	1405.0905	1424.8171	1483.2227	1499.927	1522.0143	1751.9647	1905.4126	3023.2254	3048.729	3083.5736	3124.5887	3129.0649	3305.5091	3703.0119
CCOC1=CNC(=O)O1	CCOc1c[nH]c(=O)o1	
InChI=1S/C5H7NO3/c1-2-8-4-3-6-5(7)9-4/h3H,2H2,1H3,(H,6,7)	InChI=1S/C5H7NO3/c1-2-8-4-3-6-5(7)9-4/h3H,2H2,1H3,(H,6,7)
