17
gdb 72047	2.44765	1.65479	1.27903	3.22	78.78	-0.2339	0.0096	0.2434	1032.8038	0.137413	-380.822073	-380.814411	-380.813467	-380.854142	29.671	
C	-0.1377037435	 1.4392185896	-0.0145605267	-0.50387
C	 0.0237888138	-0.0497349666	-0.0229127254	 0.270702
C	 0.9496998634	-0.8972338505	-0.9011533892	-0.25354
C	 0.1243754905	-2.1108460178	-0.4209055625	-0.107833
N	 0.4863020036	-2.1700949335	 1.0374092447	-0.316654
C	-0.3008154919	-0.9305079537	 1.1746512924	-0.130028
C	-1.0870153783	-1.1177038883	-0.1180887914	 0.231057
C	-2.4510077618	-1.039613125	-0.463469191	 0.10886
N	-3.5737751003	-0.9878426467	-0.7502800066	-0.370178
H	 0.7627362063	 1.9225301764	 0.3804269755	 0.134428
H	-0.3130946152	 1.8232238374	-1.0244841209	 0.135472
H	-0.9834570634	 1.7438680526	 0.6101729778	 0.134602
H	 0.7905782421	-0.6815148247	-1.9604417843	 0.113372
H	 2.0165825709	-0.9202453013	-0.6618224537	 0.111254
H	 0.0769879405	-3.0480126225	-0.9690531091	 0.099405
H	-0.0610946769	-2.9197154835	 1.4599554342	 0.226724
H	-0.6376526497	-0.5325291721	 2.1232276362	 0.116227
111.8278	144.5782	197.8079	264.2622	291.8754	425.9	465.9712	515.5014	563.9685	588.5774	610.4812	731.2951	770.8648	835.7421	882.5778	912.4065	946.919	978.1718	1001.7132	1012.0463	1040.3605	1070.1223	1096.548	1143.079	1175.8173	1183.2751	1220.7846	1242.4973	1300.4535	1324.9264	1364.2915	1417.9713	1438.0604	1483.6842	1491.251	1500.067	2325.7483	3032.2824	3058.1032	3098.1966	3105.4837	3121.2534	3161.8013	3208.8017	3459.8318
CC12CC3NC1C23C#N	C[C@@]12C[C@H]3N[C@@H]1[C@@]23C#N	
InChI=1S/C7H8N2/c1-6-2-4-7(6,3-8)5(6)9-4/h4-5,9H,2H2,1H3	InChI=1S/C7H8N2/c1-6-2-4-7(6,3-8)5(6)9-4/h4-5,9H,2H2,1H3/t4-,5+,6-,7+/m1/s1
