17
gdb 128693	2.76255	1.2445	0.8673	0.7536	71.48	-0.2094	0.0369	0.2462	1293.9155	0.136255	-455.147852	-455.138609	-455.137665	-455.182986	32.367	
C	-0.0630711855	 1.3798311932	 0.0085023295	-0.234004
O	-0.0217174351	-0.0433890171	 0.0030361503	-0.27045
C	-1.2183808539	-0.6617736149	 0.0105363053	 0.381716
N	-2.3760967592	-0.0167402553	 0.0216610578	-0.3335
N	-3.2936565417	-1.0170950664	 0.0257354163	-0.223569
C	-2.7338531977	-2.2501777393	 0.0174793711	-0.089039
C	-1.3685063607	-2.0712513434	 0.0072756408	 0.093071
C	-0.2971839842	-3.1103488256	-0.004531845	-0.201027
O	-0.9194307299	-4.388156174	 0.0018244738	-0.423892
H	 0.9763153015	 1.7117216604	 0.0014489243	 0.123703
H	-0.5877371854	 1.7604703118	-0.8742284826	 0.131354
H	-0.5736420454	 1.7540561736	 0.9021753474	 0.131342
H	-4.2689098931	-0.7791148124	 0.0344669068	 0.270803
H	-3.3198248695	-3.1542629278	 0.0194923625	 0.149572
H	 0.3416991794	-2.9829191511	-0.8941868289	 0.102084
H	 0.3606959815	-2.9830340984	 0.8711455066	 0.102141
H	-0.2272977309	-5.0550655134	-0.0057951861	 0.289694
27.9566	103.943	140.7218	182.4488	218.1485	255.5854	256.9889	335.2045	355.7197	392.9805	578.6205	646.5587	658.3051	727.9151	776.0547	806.2903	947.9757	1046.672	1051.9899	1069.393	1077.1581	1173.5309	1181.5035	1202.6274	1226.3977	1237.8671	1260.3095	1322.9884	1424.0768	1449.5962	1467.6629	1478.7718	1491.0625	1503.3485	1520.6278	1562.2534	1639.1842	2957.8145	2971.908	3030.0585	3095.1358	3140.4243	3279.1107	3697.3747	3838.5998
COC1=NNC=C1CO	COc1n[nH]cc1CO	
InChI=1S/C5H8N2O2/c1-9-5-4(3-8)2-6-7-5/h2,8H,3H2,1H3,(H,6,7)	InChI=1S/C5H8N2O2/c1-9-5-4(3-8)2-6-7-5/h2,8H,3H2,1H3,(H,6,7)
