23
gdb 102576	2.12075	1.13998	0.87479	1.9682	82.59	-0.2514	0.0774	0.3287	1461.4201	0.202568	-425.403703	-425.392733	-425.391789	-425.440268	38.995	
C	-0.30600329	 1.14680548	-0.6494516121	-0.39098
C	 0.1339865202	-0.2445346486	-0.1894974998	-0.181719
C	 0.6931857891	-0.2551311952	 1.2346440404	 0.083082
O	-0.3551522844	 0.144077118	 2.1073496054	-0.242516
C	 0.0647845349	 0.5373581363	 3.3945415165	-0.235893
C	 1.1803495406	-1.6462889491	 1.6098108882	 0.043942
O	 2.2933134393	-2.1634812582	 0.8741576386	-0.265217
C	 2.4519749661	-1.9709755341	 2.2842354887	 0.077916
C	 3.486255468	-0.9707323056	 2.7322625449	-0.4239
H	 0.5395069875	 1.844105493	-0.6638198929	 0.108759
H	-0.7244423756	 1.1118208573	-1.6597534648	 0.110436
H	-1.0654178364	 1.55234588	 0.0235195534	 0.130754
H	-0.7142553133	-0.939319112	-0.2289677413	 0.101365
H	 0.9073148722	-0.6460561135	-0.8526645336	 0.11664
H	 1.5243415675	 0.465120642	 1.2972566054	 0.062334
H	 0.5268859095	-0.2866318672	 3.9569081078	 0.108489
H	 0.783502	 1.3702996061	 3.3502866682	 0.104463
H	-0.8252378743	 0.8706215692	 3.9342935763	 0.127616
H	 0.3559596125	-2.3539705435	 1.7306805219	 0.092045
H	 2.4671032691	-2.908336528	 2.8457658635	 0.088666
H	 3.4482518357	-0.0531952959	 2.1419405372	 0.130293
H	 3.343069204	-0.7165632337	 3.7881677632	 0.12181
H	 4.4887762476	-1.3980365274	 2.6253128749	 0.131614
51.0214	91.6461	97.2582	131.327	184.5535	186.9162	197.0494	241.7673	265.2276	299.0985	387.3527	419.1787	464.8304	502.6754	553.8279	766.3116	783.4625	856.0126	900.9902	945.8155	976.6151	998.8653	1041.7701	1070.9369	1108.5294	1126.3406	1135.0317	1161.6065	1174.418	1182.5279	1190.1655	1228.1863	1286.3737	1293.7196	1312.0032	1348.063	1388.3453	1403.2294	1407.847	1418.6847	1466.576	1477.5094	1480.6283	1486.8501	1490.958	1497.5461	1509.0746	1510.5592	1510.8954	2975.4934	2983.0137	3030.9022	3033.5939	3036.7042	3038.8931	3070.8312	3081.1946	3084.7514	3099.6619	3101.2122	3111.6641	3126.1567	3132.8209
CCC(OC)C1OC1C	CC[C@@H](OC)[C@H]1O[C@H]1C	
InChI=1S/C7H14O2/c1-4-6(8-3)7-5(2)9-7/h5-7H,4H2,1-3H3	InChI=1S/C7H14O2/c1-4-6(8-3)7-5(2)9-7/h5-7H,4H2,1-3H3/t5-,6+,7-/m0/s1
