16
gdb 71210	2.41649	2.07402	1.6437	2.1842	67.64	-0.2224	-0.0283	0.1941	880.9915	0.124985	-437.836825	-437.829794	-437.82885	-437.868084	27.749	
C	 0.0082904613	 1.5152696185	 0.0495555421	-0.514701
C	 0.0471187122	 0.0164885153	 0.0643925982	 0.162914
N	 0.8710723337	-0.7272740753	-0.9601886788	-0.350775
C	 0.8198644214	-1.8709416985	-0.0250276865	-0.053884
C	-0.6675792355	-2.127875595	 0.4638508091	-0.073415
O	-0.3286559644	-1.6763032829	 1.8148467031	-0.301066
C	 0.7092030241	-0.9122059902	 1.1703564285	 0.080974
C	-1.2576922167	-0.8005495166	-0.0532896497	 0.449994
O	-2.3426878868	-0.4960243777	-0.4577167776	-0.335969
H	 1.0169607415	 1.9327850114	-0.0072017685	 0.130391
H	-0.5690217798	 1.87618315	-0.8080256322	 0.138171
H	-0.4789581677	 1.8898480715	 0.9552767634	 0.136442
H	 0.3990199229	-0.8656991328	-1.8555860486	 0.223721
H	 1.5133688478	-2.7010012791	-0.1460172011	 0.10009
H	-1.2247811478	-3.0594086911	 0.4135667961	 0.102129
H	 1.4996019538	-0.5388625876	 1.8178988623	 0.104986
144.8122	173.1187	223.5585	266.0584	404.7845	453.2976	510.4316	623.6045	661.4073	739.1748	767.5823	800.6264	812.9455	825.0417	857.8472	887.3574	938.1614	963.7995	992.8999	1053.5052	1062.7627	1099.5202	1134.478	1136.7747	1192.1306	1208.6088	1232.9308	1271.7847	1300.0596	1330.3794	1361.2456	1416.34	1483.1196	1487.5419	1888.4874	3040.1811	3107.4901	3121.3888	3133.9715	3149.9391	3168.5845	3434.3297
CC12NC3C(OC13)C2=O	C[C@@]12N[C@@H]3[C@@H](O[C@H]13)C2=O	
InChI=1S/C6H7NO2/c1-6-4(8)3-2(7-6)5(6)9-3/h2-3,5,7H,1H3	InChI=1S/C6H7NO2/c1-6-4(8)3-2(7-6)5(6)9-3/h2-3,5,7H,1H3/t2-,3-,5+,6+/m1/s1
