15
gdb 28736	6.78512	0.85189	0.75909	3.2852	72.36	-0.2006	0.0092	0.2097	1421.6279	0.114091	-450.153097	-450.144565	-450.143621	-450.187179	30.251	
N	 0.2004929231	 1.3884973883	 0.1247411235	-0.612373
C	-0.0064909586	 0.0011552389	 0.037072641	 0.268386
C	-1.1024073359	-0.8148666041	 0.0161920252	-0.153046
N	-0.7230296429	-2.1525928423	 0.0105617751	-0.355174
C	 0.5770022677	-2.1217421465	 0.0167139476	 0.498959
N	 1.0852458896	-0.8628396649	 0.0360923322	-0.362758
O	 1.4531048636	-3.1559617578	-0.002948196	-0.230231
C	 0.9366126574	-4.422206447	-0.0520984927	 0.111216
N	 1.7440456515	-5.3872999103	-0.0661195193	-0.43412
H	 0.4039606532	 1.8123092513	-0.7762502988	 0.248601
H	-0.6149014188	 1.8503967278	 0.5079127208	 0.252791
H	-2.1431586729	-0.530185114	 0.0082186215	 0.104088
H	 2.054010314	-0.6033910035	 0.1200351282	 0.27511
H	-0.154034906	-4.4315374743	-0.0735522292	 0.15145
H	 1.227013355	-6.2639232415	-0.103821049	 0.237102
45.1551	93.6852	138.2667	161.8834	225.0723	332.4922	369.5228	454.7724	488.8549	529.7272	645.5041	697.8399	716.8182	799.1531	812.3082	821.2107	837.4516	989.9115	1042.7227	1063.8164	1076.2488	1158.8179	1190.5701	1229.1561	1279.0334	1290.8781	1395.754	1409.7499	1506.8349	1584.2831	1627.0881	1661.0408	1747.7026	3131.1048	3252.5902	3490.9091	3516.167	3598.1143	3668.0823
NC1=CN=C(N1)OC=N	Nc1cnc([nH]1)O[CH][NH]	
InChI=1S/C4H6N4O/c5-2-9-4-7-1-3(6)8-4/h1-2,5H,6H2,(H,7,8)	InChI=1S/C4H6N4O/c5-2-9-4-7-1-3(6)8-4/h1-2,5H,6H2,(H,7,8)
