21
gdb 73469	2.74071	1.8005	1.54735	1.3387	81.04	-0.2154	0.0822	0.2976	980.8477	0.185532	-387.105168	-387.097775	-387.09683	-387.13654	30.62	
C	-0.026808803	 1.463549866	-0.0253412368	-0.455785
C	 0.0404359218	-0.0401622062	 0.0181665764	 0.454077
O	-1.1876789746	-0.5678894036	-0.4382547603	-0.320721
C	-1.3021191667	-1.9906813647	-0.4639937034	-0.058097
C	-0.0243408394	-2.6728912399	 0.0257894317	-0.071305
C	 0.2995106684	-2.1361272319	 1.4370986165	-0.225686
C	 0.7900616754	-0.7288369374	 1.12996709	-0.120655
C	 1.3317787568	-0.7463120381	-0.3075609391	-0.120681
C	 1.1545480944	-2.1637141278	-0.8319739728	-0.225683
H	 0.9128598897	 1.9012598771	 0.3223251242	 0.113126
H	-0.2146101437	 1.8098653674	-1.0466274035	 0.122473
H	-0.8377232669	 1.8301144372	 0.6120622873	 0.122451
H	-2.1563687111	-2.2774903039	 0.1658663469	 0.091483
H	-1.5307094043	-2.2977524666	-1.4946129523	 0.091487
H	-0.151852289	-3.7579832235	-0.0090681559	 0.068207
H	-0.5759644699	-2.1569724014	 2.0958779418	 0.097788
H	 1.0916751547	-2.7247224264	 1.9139160604	 0.095007
H	 1.2569519007	-0.1359680936	 1.9097589515	 0.074858
H	 2.2019102431	-0.1664903983	-0.5977891574	 0.074856
H	 2.059645561	-2.7559610726	-0.6548682742	 0.095009
H	 0.9312877726	-2.2055969418	-1.9040191308	 0.09779
129.2086	201.1037	240.2531	309.3351	351.2331	397.0323	496.1519	522.9539	567.4616	673.0938	675.2483	815.294	824.6276	835.8629	855.0601	892.8231	912.2985	944.212	988.5486	996.4027	1019.1784	1032.7188	1041.4303	1072.0194	1107.3443	1121.2165	1133.7747	1176.0098	1184.9463	1205.9435	1215.1418	1253.9185	1271.9006	1310.4025	1321.9238	1348.2907	1355.8725	1412.4954	1415.2186	1445.2493	1477.427	1489.2553	1497.977	1509.4676	1527.3845	2988.789	3017.6971	3028.7444	3031.9661	3037.4102	3069.5122	3070.7937	3079.7846	3103.8008	3118.2028	3154.1885	3163.3668
CC12OCC3CC1C2C3	C[C@]12OC[C@@H]3C[C@H]1[C@H]2C3	
InChI=1S/C8H12O/c1-8-6-2-5(4-9-8)3-7(6)8/h5-7H,2-4H2,1H3	InChI=1S/C8H12O/c1-8-6-2-5(4-9-8)3-7(6)8/h5-7H,2-4H2,1H3/t5-,6+,7-,8+
