13
gdb 129330	3.47551	1.1183	0.89688	1.1196	62.43	-0.2579	-0.0602	0.1977	1199.8223	0.08734	-486.016277	-486.008204	-486.00726	-486.05082	27.577	
N	-0.1496665311	 1.3302556205	 0.199327002	-0.592375
C	 0.0098861499	 0.0833656237	 0.0894854337	 0.521654
O	 1.1454438778	-0.6730702121	 0.0737085895	-0.23998
N	 0.7548611993	-2.0457768587	-0.074225782	 0.011078
N	-0.4877461988	-2.0909736736	-0.140134163	-0.034211
N	-1.0083041702	-0.8526519732	-0.0479764794	-0.077366
C	-2.4258363392	-0.5886385721	-0.0830282849	-0.248485
C	-3.036888713	-0.7799558851	-1.471330621	 0.156836
O	-4.2131309555	-0.9347699661	-1.642307199	-0.214853
H	 0.7338577691	 1.8218181326	 0.2968123803	 0.247793
H	-2.9581005453	-1.2103319444	 0.6409078298	 0.168956
H	-2.5391712243	 0.462714358	 0.2055456205	 0.197376
H	-2.3056121987	-0.7478177795	-2.3087089464	 0.103578
31.2548	73.3126	93.8137	216.9108	256.0353	334.445	417.2775	499.1584	649.3957	685.097	715.582	741.715	756.7658	759.0722	823.2582	989.4941	1030.8324	1044.6908	1063.4034	1180.7822	1226.7985	1316.8489	1354.2652	1407.2055	1419.934	1437.2436	1533.7833	1790.2511	1850.3991	2900.1146	3061.0598	3122.6752	3554.7862
N=C1ON=NN1CC=O	[NH][C@H]1ON=NN1CC=O	
InChI=1S/C3H4N4O2/c4-3-7(1-2-8)5-6-9-3/h2,4H,1H2	InChI=1S/C3H5N4O2/c4-3-7(1-2-8)5-6-9-3/h2-4H,1H2/t3-/m1/s1
