18
gdb 107740	3.28552	1.43499	1.26773	1.0701	78.46	-0.2138	-0.0483	0.1656	1037.42	0.147798	-401.814558	-401.806914	-401.80597	-401.846894	30.114	
O	 0.1008589871	 1.2937379428	-0.2280537857	-0.415856
C	-0.0263784113	-0.0389926859	 0.2373443952	-0.144496
C	-1.4512284983	-0.5214807926	 0.1780349149	 0.292217
C	-2.5149775565	-0.3639276996	 1.3488900978	-0.313476
C	-3.2913304242	-1.3872403878	 0.5070483932	 0.02091
C	-4.1218259975	-0.8424844422	-0.4040815879	-0.107235
C	-3.3270390749	-0.6465008052	-1.6876203468	-0.1835
N	-1.9103752318	-0.8511521667	-1.2577815556	-0.169967
C	-1.9928328615	-1.8419340974	-0.2016374139	-0.141224
H	-0.2180096233	 1.2871620741	-1.1378872397	 0.288624
H	 0.612286661	-0.7280611244	-0.3337989522	 0.099643
H	 0.3228254091	-0.0363307869	 1.2756508572	 0.109147
H	-2.0405895084	-0.7255206204	 2.268920107	 0.111951
H	-2.9952335315	 0.6011114988	 1.5256434785	 0.113467
H	-4.9056524227	-0.1403476441	-0.1345251181	 0.105239
H	-3.5079625306	-1.3360038474	-2.5227160602	 0.1212
H	-3.4980282999	 0.3715454813	-2.0571138648	 0.118943
H	-1.5370921348	-2.8244227965	-0.2570232989	 0.094412
57.2737	138.6415	272.8025	293.2101	342.9684	404.8635	430.2083	473.3468	569.5443	672.8644	692.9042	745.8158	780.2626	843.0599	877.1864	883.596	918.6742	958.3965	996.1283	1004.7185	1019.7838	1039.2073	1069.8107	1075.6725	1092.5551	1151.9166	1185.4546	1193.0034	1209.3584	1241.9096	1281.6316	1303.4584	1358.2918	1393.1463	1425.8499	1473.4935	1491.1238	1501.4765	1581.7288	2999.4073	3017.4566	3029.4745	3063.8361	3073.0269	3107.9826	3166.7375	3173.1048	3799.6629
OCC12CC3=CCN1C23	OC[C@@]12C[C]3[CH]CN1[C@@H]23	
InChI=1S/C7H9NO/c9-4-7-3-5-1-2-8(7)6(5)7/h1,6,9H,2-4H2	InChI=1S/C7H9NO/c9-4-7-3-5-1-2-8(7)6(5)7/h1,6,9H,2-4H2/t6-,7-,8?/m1/s1
