27
gdb 121230	2.67441	0.80206	0.67384	0.1126	96.72	-0.2769	0.0843	0.3613	1846.6777	0.251731	-353.561365	-353.550451	-353.549507	-353.5978	40.455	
C	-0.163690012	 1.5931087746	 0.1132105086	-0.380767
C	-0.1334621727	 0.0658883466	 0.007551359	-0.16815
C	 0.7623177361	-0.4417729028	-1.1295454604	-0.168517
C	 0.7762017877	-1.9675217052	-1.2469925628	-0.019349
C	-0.4990389739	-2.5709364959	-1.9124892816	-0.225217
C	 0.2908861174	-2.7271501781	-3.2384466387	-0.224751
C	 1.6110071963	-2.5656852277	-2.4323879037	 0.050101
C	 2.7719173722	-1.7902904873	-3.0446828381	-0.197216
C	 3.3940656339	-2.5110311529	-4.2462188766	-0.383129
H	 0.8397096843	 1.9982192537	 0.2864578634	 0.112182
H	-0.5461628711	 2.0464553043	-0.8082520407	 0.112046
H	-0.8031961362	 1.925438766	 0.9371294708	 0.109412
H	 0.2168197942	-0.3610680191	 0.9568161928	 0.092708
H	-1.154629755	-0.3107375902	-0.1334889329	 0.097333
H	 0.429433315	 0.0061381673	-2.076428202	 0.08825
H	 1.7849832232	-0.0762098611	-0.9654262972	 0.090672
H	 1.0274221592	-2.3899250264	-0.2672974233	 0.055939
H	-0.7750758121	-3.5367127459	-1.480267527	 0.095854
H	-1.391557525	-1.9391069489	-1.9348732738	 0.091166
H	 0.1501259877	-3.6504199546	-3.80597919	 0.091379
H	 0.1259814521	-1.8823319701	-3.91569147	 0.095087
H	 1.9709241149	-3.5589793971	-2.134969199	 0.062865
H	 2.4309056457	-0.7951435887	-3.3562549878	 0.092719
H	 3.5434318917	-1.6234083985	-2.2808094166	 0.091152
H	 4.22079678	-1.9350527053	-4.6737243959	 0.108883
H	 3.7852182788	-3.4935918341	-3.9589433788	 0.111741
H	 2.6548430976	-2.6700385926	-5.0388268176	 0.117608
75.7846	83.75	102.4172	117.2934	130.5897	199.5635	234.7135	248.8523	285.5195	318.6053	384.1967	447.1188	494.6392	671.6685	744.0439	749.2581	794.7652	831.4129	873.6182	886.8102	920.2752	940.2993	946.4352	967.8657	981.658	1015.2341	1045.274	1052.8618	1093.0657	1117.8738	1141.3951	1164.2635	1193.1386	1219.1772	1246.4012	1255.8956	1264.6176	1273.621	1291.0306	1301.7874	1309.968	1334.7326	1344.3436	1373.1859	1394.8529	1398.1597	1410.8184	1412.3997	1478.0767	1483.7278	1486.5547	1493.4266	1499.5782	1499.7817	1501.6616	1507.8608	1510.8594	3001.7093	3011.3679	3013.0488	3016.8987	3026.4305	3027.3876	3028.7699	3035.35	3043.7421	3050.4992	3053.4744	3056.6653	3089.7693	3093.6615	3095.5057	3098.8127	3100.1393	3107.0731
CCCC1CCC1CC	CCC[C@H]1CC[C@H]1CC	
InChI=1S/C9H18/c1-3-5-9-7-6-8(9)4-2/h8-9H,3-7H2,1-2H3	InChI=1S/C9H18/c1-3-5-9-7-6-8(9)4-2/h8-9H,3-7H2,1-2H3/t8-,9+/m1/s1
