21
gdb 58201	2.72765	1.00057	0.87933	0.2483	80.96	-0.2522	0.029	0.2812	1424.7522	0.178116	-424.186738	-424.175447	-424.174503	-424.223284	40.999	
C	 1.0208488364	-0.3982918501	-0.9308452216	-0.420981
C	 0.01661942	 0.0394510052	 0.1468582962	 0.039623
C	-0.055465079	 1.5698586144	 0.2356066146	-0.403428
C	-1.3961027337	-0.5402100332	-0.078894239	 0.107876
O	-1.9529837124	-0.1712204131	-1.3308563529	-0.429554
C	-1.4572447173	-2.0821884071	 0.1072539272	-0.099198
O	-0.8840345247	-2.4854692138	 1.3492253217	-0.415124
C	-2.8260298404	-2.5790943027	-0.0370154163	 0.302896
C	-3.9575297827	-2.9824304449	-0.082063913	-0.435095
H	 2.0108324108	 0.0143170992	-0.7145301941	 0.121354
H	 1.1299713971	-1.4860371118	-0.9859969136	 0.12176
H	 0.7356089471	-0.028797744	-1.9237003777	 0.108391
H	 0.3589068893	-0.3575481143	 1.1087085865	 0.092139
H	 0.9377365238	 2.0013459616	 0.3953420108	 0.10726
H	-0.4677659488	 1.9901853584	-0.6870027082	 0.126101
H	-0.6976733659	 1.8900667466	 1.0630022748	 0.109102
H	-2.0712622982	-0.1000956179	 0.665867343	 0.084584
H	-1.4034238077	-0.5471980941	-2.0270779402	 0.284082
H	-0.8269743107	-2.5482524522	-0.6614815418	 0.10984
H	-1.553633276	-2.3568874267	 2.0301606204	 0.288764
H	-4.9549693968	-3.3419205395	-0.144447627	 0.199605
35.7258	73.8148	123.1035	198.5974	204.5342	231.4802	234.4659	254.7363	286.6317	291.6394	302.8404	360.1873	421.8422	459.2017	514.1322	587.3212	628.5477	632.3773	670.455	816.4585	912.8453	928.7944	942.7764	966.8782	1029.3197	1065.7862	1074.7608	1108.4513	1155.8323	1201.3666	1221.7796	1275.0129	1292.8324	1334.7912	1369.9874	1379.859	1399.0377	1411.3639	1420.2129	1425.2167	1487.1376	1494.7581	1509.5389	1512.8917	2233.6595	3020.6637	3026.7188	3033.2456	3039.9586	3054.7261	3091.6328	3098.7955	3105.321	3110.9271	3503.1327	3806.5054	3809.0902
CC(C)C(O)C(O)C#C	CC(C)[C@@H](O)[C@@H](O)C#C	
InChI=1S/C7H12O2/c1-4-6(8)7(9)5(2)3/h1,5-9H,2-3H3	InChI=1S/C7H12O2/c1-4-6(8)7(9)5(2)3/h1,5-9H,2-3H3/t6-,7+/m0/s1
