18
gdb 67164	2.93584	1.51304	1.46148	3.9417	75.34	-0.2278	0.0299	0.2577	995.1547	0.149559	-401.963115	-401.955677	-401.954733	-401.994642	29.827	
C	-0.0288984408	 1.5538614412	-0.0261459154	-0.519732
C	-0.0051294271	 0.0567150457	 0.0121970519	 0.340478
C	 0.4546559284	-1.0055976518	-0.9912550865	-0.138259
C	 1.2611923822	-1.7122833098	 0.0925050574	-0.234214
C	 0.4952309772	-0.8578126907	 1.1737032921	-0.235996
C	-0.7024196535	-1.7109361881	 1.5962257674	 0.412046
O	-0.8584444727	-2.3417034426	 2.6170583166	-0.384523
N	-1.5329935356	-1.712688524	 0.4921856017	-0.317399
C	-1.0133981141	-0.8846193949	-0.560972236	-0.051435
H	 0.968156753	 1.9758310326	 0.1433108177	 0.12409
H	-0.3806570818	 1.9129046089	-0.9990651237	 0.122088
H	-0.6976183632	 1.9604491064	 0.7414664741	 0.13041
H	 0.7396492132	-0.8835782085	-2.0305910099	 0.085602
H	 1.1953996345	-2.8024003273	 0.1750257384	 0.10814
H	 2.3117764035	-1.4168879862	 0.0551245854	 0.113884
H	 1.0731094969	-0.4499299104	 1.9987512716	 0.0907
H	-2.2022498342	-2.4526276161	 0.3529467495	 0.250884
H	-1.7253749659	-0.5262939546	-1.2948591626	 0.103235
134.8355	202.3814	228.4469	271.1642	318.0414	424.6105	457.1336	508.7028	569.615	616.4122	734.3673	743.5359	796.8388	813.9392	858.4293	882.2245	923.8814	943.9012	974.0603	994.1876	1026.7405	1063.2872	1088.0958	1098.0835	1135.3474	1163.9221	1204.0888	1223.4604	1232.5886	1275.5311	1296.7089	1342.0976	1383.3824	1417.157	1465.82	1484.9898	1497.1431	1502.9862	1832.2414	3023.556	3045.9799	3084.6066	3096.1143	3110.9849	3155.378	3169.1227	3188.9222	3643.6325
CC12C3CC1C(=O)NC23	C[C@@]12[C@H]3C[C@@H]1C(=O)N[C@@H]23	
InChI=1S/C7H9NO/c1-7-3-2-4(7)6(9)8-5(3)7/h3-5H,2H2,1H3,(H,8,9)	InChI=1S/C7H9NO/c1-7-3-2-4(7)6(9)8-5(3)7/h3-5H,2H2,1H3,(H,8,9)/t3-,4+,5+,7+/m0/s1
