20
gdb 111815	2.8529	1.35332	1.08312	3.482	78.95	-0.2364	0.	0.2364	1190.3409	0.171744	-403.144865	-403.136311	-403.135367	-403.178323	32.067	
C	 0.054901764	 1.7161159547	-0.037193341	-0.384454
C	 0.1942903832	 0.2007164896	 0.1504970795	-0.198796
C	 0.7082835026	-0.4887745258	-1.110664833	-0.12972
C	 0.7990707885	-2.0356909574	-1.2333573916	-0.0139
C	-0.3116349556	-2.9518105724	-0.6396153649	-0.254611
C	-0.9642720886	-2.9779980124	-2.0543188505	-0.181826
N	 0.0416781073	-1.974192346	-2.5387497135	-0.136857
C	-0.2841026596	-0.6140438002	-2.2928625751	 0.375388
O	-1.1409259762	 0.0784365003	-2.7661150428	-0.330709
H	 1.0242576877	 2.1763957532	-0.2582987206	 0.113232
H	-0.6208655974	 1.9383793786	-0.8671392615	 0.152406
H	-0.3406961982	 2.1875504994	 0.8673066737	 0.111829
H	 0.8799362099	-0.0174379189	 0.9789666923	 0.100895
H	-0.7780156236	-0.2198285127	 0.4323995021	 0.103083
H	 1.6539236361	-0.0304530566	-1.4240961795	 0.105129
H	 1.801188618	-2.4674383071	-1.2718007478	 0.084202
H	 0.0388822668	-3.9147121722	-0.2641254164	 0.114444
H	-0.9275836997	-2.4812599583	 0.130164585	 0.117867
H	-0.8641140242	-3.9291263309	-2.5821291865	 0.12007
H	-1.994688331	-2.6250395749	-2.1413066379	 0.132327
87.4583	100.7702	152.9736	194.9238	223.9502	265.2537	318.0683	440.9838	511.3493	644.3324	690.8561	736.2839	759.5136	800.2867	848.9527	861.634	892.7366	944.9715	973.1029	987.6141	1022.5441	1038.6213	1083.5323	1104.2993	1132.874	1169.7721	1185.544	1208.3738	1229.7452	1237.4949	1258.0525	1279.8507	1303.5863	1329.023	1347.89	1374.0588	1412.3613	1483.2956	1488.9558	1498.2731	1509.9045	1513.2373	1871.4658	3024.3991	3036.7952	3039.3448	3062.6307	3065.1169	3074.3978	3087.1026	3103.4889	3114.2184	3126.8707	3133.6746
CCC1C2CCN2C1=O	CC[C@H]1[C@H]2CCN2C1=O	
InChI=1S/C7H11NO/c1-2-5-6-3-4-8(6)7(5)9/h5-6H,2-4H2,1H3	InChI=1S/C7H11NO/c1-2-5-6-3-4-8(6)7(5)9/h5-6H,2-4H2,1H3/t5-,6+/m0/s1
