19
gdb 35352	2.72279	1.44928	1.21175	0.3404	87.6	-0.2263	0.0193	0.2457	1104.7285	0.159865	-348.706085	-348.698119	-348.697175	-348.738528	31.622	
C	-0.2114140311	-1.2363974208	-0.0558856238	-0.481729
C	-0.1516863059	-0.0355098186	-0.0101642069	 0.368269
C	-0.0621668624	 1.4072718493	 0.0475978968	-0.233327
C	-0.0858321563	 2.0065131959	 1.5222963331	-0.337605
C	 1.4144127943	 2.1066681316	 1.395856478	 0.325315
C	 2.5726458737	 1.7602495665	 1.9444572682	-0.229138
C	 3.5921752366	 1.4970566678	 0.8376074905	-0.237722
C	 2.7008690039	 1.2403274972	-0.4250353882	-0.250714
C	 1.4096273327	 2.0096930245	-0.1027043299	-0.036747
H	-0.2780389028	-2.2952824161	-0.0977245766	 0.19618
H	-0.7960833166	 1.858670823	-0.6259403073	 0.100022
H	-0.6008446525	 2.972578288	 1.5317077648	 0.112112
H	-0.492725246	 1.3716064761	 2.3111016465	 0.122586
H	 2.7806880592	 1.5922717216	 2.9948094643	 0.091689
H	 4.2682598041	 2.3506492911	 0.6862888014	 0.102636
H	 4.2307562615	 0.6377414539	 1.0696821862	 0.102863
H	 3.1818694395	 1.5539931169	-1.3556614057	 0.090871
H	 2.4833125691	 0.1699775374	-0.5030423599	 0.118606
H	 1.3383636892	 2.9730182345	-0.6212764815	 0.075833
77.3699	139.9312	196.1681	260.0905	315.679	361.8492	480.9274	552.6243	580.6743	617.2573	623.1847	656.0828	758.6553	766.0992	792.9028	831.0276	864.5354	897.0911	930.0445	950.2883	967.7605	993.5504	1052.9917	1072.8605	1096.7707	1125.6914	1157.4362	1182.931	1212.7857	1221.9726	1244.0957	1268.6335	1306.0843	1321.7655	1333.9107	1351.1487	1472.3454	1483.2929	1498.2655	1739.9174	2229.7189	3005.4321	3029.4308	3048.6505	3049.5813	3063.169	3065.8917	3100.6674	3121.4442	3198.0212	3504.0067
C#CC1CC2=CCCC12	C#C[C@H]1C[C]2[CH]CC[C@@H]12	
InChI=1S/C9H10/c1-2-7-6-8-4-3-5-9(7)8/h1,4,7,9H,3,5-6H2	InChI=1S/C9H10/c1-2-7-6-8-4-3-5-9(7)8/h1,4,7,9H,3,5-6H2/t7-,9-/m0/s1
