19
gdb 49910	5.26101	0.79746	0.7534	2.2837	76.91	-0.2415	-0.0296	0.2119	1521.9356	0.157758	-423.000452	-422.991532	-422.990587	-423.035639	32.007	
O	-0.9706995983	 1.5312112172	-0.3121532637	-0.23628
C	 0.0544635701	 0.9003888153	-0.3000689933	 0.1321
C	 1.4082694445	 1.4680154085	 0.0843628715	 0.054677
C	 1.4192865525	 2.5182462031	 1.20497898	-0.32151
C	 2.0933204531	 1.4069003679	 2.0469540393	 0.144514
O	 2.1419150499	 0.5189710015	 0.8854310784	-0.316864
C	 3.4459308553	 1.6741119117	 2.626438118	 0.015249
C	 3.5594973868	 2.1077767701	 4.0702123876	-0.272903
C	 4.0203291678	 0.7354872836	 3.6582262986	-0.266572
H	 0.0897310494	-0.1805000481	-0.5648507149	 0.090923
H	 1.9479837241	 1.7262598826	-0.8397217014	 0.102245
H	 2.0596281055	 3.3805882557	 1.0150142838	 0.11321
H	 0.4331886283	 2.8544447701	 1.5260001464	 0.13114
H	 1.4356101842	 0.9800965385	 2.8174163728	 0.075835
H	 4.1492129918	 2.117364742	 1.9264488768	 0.084382
H	 4.3051048399	 2.8542249593	 4.3186129715	 0.117049
H	 2.6459474856	 2.1849690762	 4.6507472681	 0.115762
H	 3.4167010677	-0.1151580827	 3.9566744067	 0.119392
H	 5.085004592	 0.5350049074	 3.6252831638	 0.117651
36.0526	74.7176	85.1097	133.5125	242.3551	276.9008	297.0752	427.1182	473.2607	593.0603	725.45	774.936	806.1805	830.0345	890.2349	902.4253	926.737	940.7086	970.3955	1004.6392	1040.3406	1044.4261	1060.944	1079.3294	1093.0879	1131.8546	1144.7018	1196.261	1220.4689	1227.6422	1250.7545	1255.4005	1301.8972	1325.6958	1349.2313	1401.5925	1443.1166	1469.95	1493.3663	1505.5443	1831.3729	2887.0011	2988.9337	3002.3354	3088.6828	3133.5622	3137.3806	3143.8782	3148.4659	3212.5483	3227.2728
O=CC1CC(O1)C1CC1	O=C[C@H]1C[C@@H](O1)C1CC1	
InChI=1S/C7H10O2/c8-4-6-3-7(9-6)5-1-2-5/h4-7H,1-3H2	InChI=1S/C7H10O2/c8-4-6-3-7(9-6)5-1-2-5/h4-7H,1-3H2/t6-,7-/m1/s1
