15
gdb 27325	3.3352	1.36678	0.97125	4.5898	73.94	-0.203	-0.0137	0.1893	1136.7785	0.114313	-453.997549	-453.989633	-453.988688	-454.029532	31.05	
N	 0.0602636633	 1.3725515814	 0.1566928849	-0.566835
C	-0.031657589	 0.0035707823	 0.0708299655	 0.44854
C	-1.1852609617	-0.7223558566	 0.0604554953	-0.359478
C	-1.1564444951	-2.1573364235	 0.0320388492	 0.372728
O	-2.1404837986	-2.8956959401	-0.0153363717	-0.417028
C	 0.210717	-2.7485052096	 0.0432715173	 0.11954
N	 0.2353986774	-4.1283557074	 0.0923594851	-0.582229
C	 1.2843994549	-1.9354353638	 0.0365585362	-0.056058
O	 1.1805546168	-0.5622918289	 0.0447720905	-0.219549
H	 0.9241058577	 1.762842322	-0.1898254344	 0.263503
H	-0.7630648236	 1.8812975662	-0.1239596596	 0.26785
H	-2.1437025023	-0.2186857131	 0.0637283988	 0.099712
H	-0.6807179045	-4.4990328929	-0.137859591	 0.262964
H	 1.0027209697	-4.5949823378	-0.3653654082	 0.244709
H	 2.3210706651	-2.2409890183	 0.0302768121	 0.121632
126.6852	183.4213	303.256	314.863	331.0221	361.1903	387.3401	429.6042	450.0587	519.7819	540.5115	594.6289	655.6528	697.9341	744.5803	771.7828	793.4261	804.9129	843.9569	933.2354	1082.3612	1124.7269	1210.2569	1248.5108	1291.7514	1317.8037	1426.0323	1474.3481	1601.066	1619.5013	1662.3726	1705.2891	1725.717	3210.2024	3231.4807	3519.7247	3582.9836	3659.6868	3695.8176
NC1=CC(=O)C(N)=CO1	Nc1cc(=O)c(N)co1	
InChI=1S/C5H6N2O2/c6-3-2-9-5(7)1-4(3)8/h1-2H,6-7H2	InChI=1S/C5H6N2O2/c6-3-2-9-5(7)1-4(3)8/h1-2H,6-7H2
