20
gdb 115211	4.07125	0.95654	0.81523	5.4911	75.81	-0.2487	0.0578	0.3065	1422.6184	0.172494	-440.34289	-440.333801	-440.332857	-440.377325	33.203	
C	 0.0214910093	 1.5793335781	 0.1196285246	-0.394494
C	-0.0096061091	 0.0527018139	-0.008218049	-0.188157
C	 0.6720928711	-0.4909029053	-1.2722976004	-0.007239
C	 0.8238366361	-2.011564363	-1.2132683969	-0.164212
N	 1.1870562221	-2.5267902494	-2.5231565992	-0.370934
C	 1.1517617841	-1.8678991482	-3.7236096106	 0.458319
O	 1.5797714609	-2.335333941	-4.7496031543	-0.395817
O	 0.6098166178	-0.6201134102	-3.714181814	-0.242848
C	-0.0925885528	-0.1683600322	-2.5523402102	-0.0733
H	 1.0500104481	 1.9556853063	 0.1094638613	 0.122937
H	-0.5200274041	 2.0714666213	-0.6940841697	 0.124496
H	-0.4402653194	 1.8987943743	 1.0584429795	 0.121101
H	 0.48297598	-0.3894539792	 0.8671043708	 0.103245
H	-1.0489209093	-0.3013624521	 0.0209381562	 0.102382
H	 1.6709358115	-0.0441047335	-1.3649521701	 0.094881
H	 1.5952446846	-2.2894696144	-0.4852908937	 0.114118
H	-0.1208327085	-2.4601628721	-0.8687406751	 0.106092
H	 1.5916243953	-3.4460511193	-2.594112838	 0.257325
H	-1.0913461005	-0.628912065	-2.5250011701	 0.10901
H	-0.2200714774	 0.9059362409	-2.6988790913	 0.123094
70.4768	84.6843	111.8449	173.1018	205.4639	258.8002	347.4249	406.5374	448.1369	476.6517	517.5713	583.0963	723.7785	762.4162	774.557	824.9972	904.9021	933.8921	945.9236	1003.6172	1038.3914	1088.412	1109.0457	1138.9521	1162.8616	1179.3372	1247.3044	1267.8398	1277.0605	1307.5586	1324.9678	1371.0775	1395.9685	1401.9031	1418.2929	1432.6368	1479.4073	1486.777	1502.2123	1505.3	1512.5352	1529.8433	1845.2988	2980.4521	3000.155	3014.5215	3026.6139	3038.4682	3043.9096	3053.4249	3104.3773	3108.135	3113.6568	3651.3442
CCC1CNC(=O)OC1	CC[C@H]1CNC(=O)OC1	
InChI=1S/C6H11NO2/c1-2-5-3-7-6(8)9-4-5/h5H,2-4H2,1H3,(H,7,8)	InChI=1S/C6H11NO2/c1-2-5-3-7-6(8)9-4-5/h5H,2-4H2,1H3,(H,7,8)/t5-/m0/s1
