15
gdb 116993	5.42987	0.5911	0.56363	2.9662	84.44	-0.2415	-0.1078	0.1337	1886.8547	0.11086	-416.788094	-416.778411	-416.777467	-416.824048	32.571	
C	 0.6353084144	 0.9342065663	 0.3140786195	-0.326061
N	-0.4016413266	 0.3591674791	-0.5430935344	-0.263203
C	 0.1032714945	-0.4860266297	-1.5946490976	-0.271982
C	 0.5828350857	-1.8702625875	-1.1378616983	 0.182503
O	 0.3893824339	-2.3011822638	-0.0234982839	-0.270186
C	 1.2601114346	-2.6694078996	-2.1511315064	 0.005187
C	 1.8250334335	-3.2993956847	-3.0166590686	 0.158884
C	 2.4630027688	-4.0167964844	-3.9865941451	 0.214339
N	 3.0057572812	-4.6232917213	-4.8153048712	-0.316223
H	 1.284889741	 0.1929770882	 0.803401407	 0.117384
H	 1.2648967624	 1.6036527256	-0.2825850355	 0.124726
H	 0.1580079774	 1.5360778564	 1.0918567069	 0.129119
H	-1.0515169343	-0.1733664129	 0.0261533096	 0.233173
H	-0.6735417044	-0.6670831859	-2.3539206119	 0.143749
H	 0.9224667381	 0.0153083342	-2.12539606	 0.138591
43.4447	65.9084	109.587	122.929	180.2696	215.4437	281.1157	300.0568	347.2	439.3683	533.2014	546.4066	580.2957	599.8899	727.0016	793.8834	935.6617	946.9852	1004.7467	1138.9968	1147.3276	1169.4684	1208.6863	1304.6884	1353.172	1434.7534	1460.8674	1489.3513	1501.8851	1525.6812	1766.3743	2247.3455	2382.3233	2990.4025	2998.8523	3058.7232	3066.9879	3112.6559	3529.9084
CNCC(=O)C#CC#N	CNCC(=O)C#CC#N	
InChI=1S/C6H6N2O/c1-8-5-6(9)3-2-4-7/h8H,5H2,1H3	InChI=1S/C6H6N2O/c1-8-5-6(9)3-2-4-7/h8H,5H2,1H3
