17
gdb 54669	2.70349	1.41608	0.94537	3.1178	76.96	-0.2424	-0.0707	0.1717	1207.2935	0.134755	-421.891835	-421.883085	-421.88214	-421.926378	31.315	
C	 0.0270307391	 1.5127984942	 0.0100897763	-0.475985
C	 0.0403578486	 0.0030331135	 0.0025597763	 0.289763
O	 1.0738884129	-0.6348332627	-0.008163343	-0.305333
C	-1.2749076718	-0.7161505514	 0.0112259844	 0.101441
C	-1.3769245341	-2.0573903187	 0.0083749281	-0.105329
C	-2.7912702589	-2.55981032	 0.0185714311	-0.279025
C	-3.6457845806	-1.278891066	 0.0287191468	-0.321735
C	-2.6401080947	-0.1157370712	 0.0238026384	 0.303415
O	-2.9290990354	 1.0588935949	 0.0300081987	-0.333093
H	 1.0537630179	 1.8800258936	 0.003300667	 0.130456
H	-0.5258492276	 1.8940284805	-0.85406225	 0.152048
H	-0.5111644103	 1.8855722901	 0.8871339836	 0.152
H	-0.5145618915	-2.7152668064	-0.0004214166	 0.143241
H	-2.9812308298	-3.1950883838	-0.8554429463	 0.133309
H	-2.9670039049	-3.1993366728	 0.8924717564	 0.133319
H	-4.2999078116	-1.190899768	-0.843409846	 0.140752
H	-4.2863069174	-1.1955271758	 0.9113236348	 0.140759
34.5842	83.4455	142.6299	184.7988	196.9369	307.8841	357.0431	368.6217	540.1738	563.225	602.007	650.9857	681.609	774.5227	799.5527	909.8723	926.1251	964.0637	981.6054	1029.9066	1032.6062	1052.3662	1146.4728	1154.2337	1231.5706	1238.1174	1290.3566	1322.9342	1330.5683	1392.8225	1443.5486	1447.4017	1466.6163	1471.9215	1650.1981	1778.3209	1808.0683	3031.9194	3049.6318	3055.8075	3069.318	3109.7806	3111.2417	3158.3813	3206.7982
CC(=O)C1=CCCC1=O	CC(=O)C1=CCCC1=O	
InChI=1S/C7H8O2/c1-5(8)6-3-2-4-7(6)9/h3H,2,4H2,1H3	InChI=1S/C7H8O2/c1-5(8)6-3-2-4-7(6)9/h3H,2,4H2,1H3
