20
gdb 57437	2.61109	1.28345	1.08557	2.7402	81.69	-0.2404	0.0309	0.2713	1210.5091	0.167892	-403.092434	-403.082521	-403.081576	-403.126627	38.002	
C	 0.1790569027	 1.5718040333	 0.3405560058	-0.402936
C	 0.0460579709	 0.0668770562	 0.0959167765	 0.347735
C	 0.7539619879	-0.7400821004	 1.2007660203	-0.408551
O	-1.3384975528	-0.2377787696	 0.0993323862	-0.467591
C	 0.6650043118	-0.3128783333	-1.2521507003	-0.035005
N	 0.0128627262	-1.4207656681	-1.9515631355	-0.356731
C	 0.020096454	-0.0772988721	-2.5841679935	-0.246402
C	-1.2323891175	 0.5950258356	-2.7980244339	 0.385395
C	-2.244427006	 1.1873079019	-3.0622296456	-0.440164
H	 1.2299401968	 1.8786841641	 0.3532462863	 0.102913
H	-0.3438931799	 2.1276983756	-0.4410410833	 0.13351
H	-0.2662227706	 1.8309208959	 1.3053719932	 0.122176
H	 0.2816274599	-0.5303794002	 2.1641048936	 0.122814
H	 0.6662276801	-1.8138646689	 1.0049341944	 0.112549
H	 1.818000422	-0.4881286001	 1.2725761879	 0.102209
H	-1.4406054904	-1.0385510863	-0.435903079	 0.288428
H	 1.7537895583	-0.2809540698	-1.2643198611	 0.085905
H	 0.6776664565	-2.0376085251	-2.4084319853	 0.242131
H	 0.7235266527	 0.0557531789	-3.4047953437	 0.113113
H	-3.1512374128	 1.7039364824	-3.2580431231	 0.198502
69.5617	114.5292	188.8358	216.8451	229.695	248.2713	286.0032	315.5359	363.1055	392.7058	454.759	485.1945	536.2005	581.6442	614.4637	641.7204	661.5996	730.3855	825.1971	848.3776	911.7652	925.6528	960.8384	980.7617	991.7436	1019.6846	1078.3968	1153.9536	1166.4752	1201.312	1213.2091	1244.6779	1276.1297	1367.7221	1390.6151	1415.1111	1427.5719	1443.9701	1476.4984	1485.9188	1500.442	1508.7791	2241.1891	3029.1126	3042.7952	3097.9399	3110.2195	3112.3889	3119.0316	3121.6537	3130.9916	3504.3003	3520.1324	3720.3092
CC(C)(O)C1NC1C#C	CC(C)(O)[C@H]1N[C@H]1C#C	
InChI=1S/C7H11NO/c1-4-5-6(8-5)7(2,3)9/h1,5-6,8-9H,2-3H3	InChI=1S/C7H11NO/c1-4-5-6(8-5)7(2,3)9/h1,5-6,8-9H,2-3H3/t5-,6-/m0/s1
