18
gdb 10882	2.70935	1.93393	1.68213	1.522	67.74	-0.242	0.0646	0.3066	887.9962	0.152908	-384.887143	-384.879057	-384.878112	-384.918978	31.257	
C	-0.1742420526	 1.5508341585	-0.0058656717	-0.443779
C	 0.0313728687	 0.0436562465	 0.0236516526	-0.030772
C	 1.1960637283	-0.6611086539	-0.751830422	-0.125737
C	 2.1772136777	-0.143835296	 0.3438772732	-0.27264
C	 0.9361971149	-0.6511339053	 1.1105808722	 0.356083
O	 0.7986365732	-0.6135894209	 2.4842651346	-0.4726
C	 0.9960632467	-1.9013506228	 0.1709526089	 0.108357
O	-0.0933758471	-2.7752002563	 0.04217439	-0.45492
H	 0.7536422122	 2.1208775324	 0.0780596691	 0.122924
H	-0.6651145907	 1.854499109	-0.9370140044	 0.115991
H	-0.8232538298	 1.8568902466	 0.8218655164	 0.12399
H	-0.9488807495	-0.4340656517	-0.1054577045	 0.03423
H	 1.3620743932	-0.6632711668	-1.8270859962	 0.079386
H	 3.098261429	-0.7166989037	 0.4813986049	 0.096004
H	 2.3742268115	 0.9259174333	 0.3645343133	 0.104736
H	 0.1173716541	-1.2499054752	 2.730248045	 0.287609
H	 1.8780179821	-2.5331551272	 0.3046900367	 0.084398
H	-0.848311342	-2.2953431464	-0.3121187982	 0.28674
158.4686	177.5055	193.6244	227.8995	264.2229	288.4084	390.7663	400.4512	475.9181	555.4773	648.0263	656.8728	759.3108	785.9379	798.6871	899.0131	939.2543	949.7089	1008.1046	1033.5986	1090.3001	1095.1813	1103.1059	1126.5673	1157.7861	1161.5029	1199.5631	1226.8073	1237.1925	1279.3573	1304.0561	1370.0101	1411.365	1436.5407	1450.9833	1495.4752	1500.9695	1536.5463	3002.0244	3036.4343	3070.417	3084.7688	3092.0618	3118.5442	3140.687	3158.5379	3798.0615	3822.9165
CC1C2CC1(O)C2O	C[C@H]1[C@H]2C[C@]1(O)[C@H]2O	
InChI=1S/C6H10O2/c1-3-4-2-6(3,8)5(4)7/h3-5,7-8H,2H2,1H3	InChI=1S/C6H10O2/c1-3-4-2-6(3,8)5(4)7/h3-5,7-8H,2H2,1H3/t3-,4+,5-,6+/m0/s1
