19
gdb 99191	5.19597	0.76797	0.71625	3.1168	73.02	-0.268	0.0053	0.2733	1595.2344	0.158227	-460.184125	-460.174825	-460.173881	-460.219498	33.176	
O	-0.02336416	 1.4867764605	-0.1607778055	-0.419611
C	-0.0479897753	 0.13444699	 0.1959939488	-0.145331
C	-1.4239335117	-0.4604164568	-0.0467373002	 0.405494
O	-2.3435679474	 0.1924171693	-0.4847580376	-0.376485
O	-1.4847840835	-1.7544957297	 0.2777948524	-0.246246
C	-2.7542691263	-2.4032940986	 0.0950095365	 0.168537
C	-3.1112110246	-2.9186624104	-1.3157350793	-0.238673
C	-3.6364204058	-4.2155636216	-0.6354089698	-0.221158
C	-2.7991775623	-3.8456592624	 0.6235587219	-0.255918
H	-0.9191673175	 1.6887724394	-0.4702950108	 0.296405
H	 0.6854011174	-0.4477505312	-0.3819797277	 0.123791
H	 0.2048605681	-0.0073680481	 1.2576404608	 0.124425
H	-3.5365468396	-1.7630370413	 0.50763487	 0.107911
H	-3.7987127492	-2.3179307126	-1.9122743311	 0.117441
H	-2.2023972482	-3.1101345932	-1.8932993035	 0.11234
H	-4.710808497	-4.16996831	-0.4409973194	 0.112695
H	-3.4103258718	-5.1643992095	-1.123776403	 0.109463
H	-1.8023663017	-4.2933443823	 0.5872235746	 0.117943
H	-3.2317735235	-4.0139554117	 1.6116081529	 0.106976
46.762	71.7907	96.1855	116.0688	187.1757	294.3316	335.3762	362.6721	389.0495	478.4071	590.0176	650.2355	713.2671	770.435	788.0824	912.3384	921.4646	927.6093	955.7502	960.6215	1041.1291	1072.8597	1090.3091	1130.9961	1156.7238	1195.6833	1241.4121	1244.3774	1248.8518	1255.7679	1259.297	1276.6311	1299.6911	1319.6586	1394.5753	1468.3455	1475.9059	1488.6867	1498.5207	1510.9139	1799.9189	2995.4649	3016.064	3066.6798	3070.008	3073.2156	3092.0704	3119.416	3128.397	3139.6972	3714.5541
OCC(=O)OC1CCC1	OCC(=O)OC1CCC1	
InChI=1S/C6H10O3/c7-4-6(8)9-5-2-1-3-5/h5,7H,1-4H2	InChI=1S/C6H10O3/c7-4-6(8)9-5-2-1-3-5/h5,7H,1-4H2
