18
gdb 39016	3.00595	1.8584	1.36889	1.4828	76.38	-0.2158	0.0241	0.2399	951.1623	0.15152	-398.088952	-398.082128	-398.081184	-398.11984	27.988	
C	 0.0167582384	 1.4533659122	-0.1845552117	-0.259528
C	 1.3025914279	 0.7330406851	-0.0036231075	-0.004221
C	 2.0776197513	 0.8547334026	 1.3185051984	-0.191179
N	 1.2226201585	 1.016533551	 2.5052033673	-0.325362
C	 0.2002221667	 0.2755604744	 2.4168226908	 0.384877
N	-0.9839665672	 0.1600934413	 3.1345911873	-0.364435
C	-1.7128124964	-0.3396607792	 1.9316800625	-0.194462
C	-0.318384549	-0.5577029138	 1.2641284918	-0.064925
N	 0.024012324	-0.0123000232	-0.0449414342	-0.120397
H	-0.3277309385	 2.0634040979	 0.6465345165	 0.124444
H	-0.2859107201	 1.8061073723	-1.1657678351	 0.116173
H	 1.9360828967	 0.5650178795	-0.8724637072	 0.092764
H	 2.7289469247	-0.0255769414	 1.4258204502	 0.107889
H	 2.7440160167	 1.7218295836	 1.253195673	 0.112413
H	-1.3303917625	 0.9001641472	 3.7327260866	 0.240661
H	-2.3232832265	-1.2266153163	 2.1153889566	 0.117066
H	-2.306522805	 0.4278808652	 1.4249507981	 0.119836
H	-0.0105124698	-1.6063709885	 1.2865613567	 0.108385
157.5586	216.9365	303.9608	321.8174	413.4935	437.8384	501.7132	571.8682	661.7857	719.0762	740.7789	772.7622	802.9205	865.2458	926.133	942.1708	966.3104	977.075	1037.7549	1059.6129	1075.9043	1104.8821	1110.8818	1137.6128	1159.7275	1168.9525	1215.0128	1228.4641	1257.6609	1301.6002	1313.5695	1327.7482	1344.9691	1382.8963	1396.2011	1496.2267	1504.6357	1514.9193	1790.5974	2993.7172	3049.8966	3056.8016	3072.7071	3110.8894	3113.4036	3123.4028	3198.1967	3561.5169
C1C2CN=C3NCC3N12	C1[C@H]2C[N][C]3NC[C@H]3N12	
InChI=1S/C6H9N3/c1-4-3-9(4)5-2-8-6(5)7-1/h4-5H,1-3H2,(H,7,8)	InChI=1S/C6H9N3/c1-4-3-9(4)5-2-8-6(5)7-1/h4-5H,1-3H2,(H,7,8)/t4-,5-,9?/m1/s1
