15
gdb 17091	4.84529	1.65632	1.57676	5.1338	64.54	-0.2682	0.0289	0.2971	830.909	0.121256	-362.654541	-362.6483	-362.647356	-362.684982	24.236	
N	-0.0204734633	-1.1350121044	-0.1011853021	-0.323556
C	 0.0005137529	 0.0187056816	-0.0331720132	 0.273845
C	 0.0247039108	 1.4729699528	 0.034715237	-0.152758
C	-0.428647535	 2.0633313261	 1.4208618532	-0.242274
C	 0.8825674633	 2.8072913312	 1.7478381273	 0.086684
C	 1.2413424905	 3.5356673477	 0.4334303119	-0.239826
C	 1.4726958673	 2.0602300787	 0.0477888032	 0.075062
O	 1.8920854006	 1.802325133	 1.4129098447	-0.283526
H	-0.5622565522	 1.8698109436	-0.798348719	 0.124983
H	-1.2962295264	 2.7206448125	 1.3330082028	 0.11511
H	-0.641755287	 1.2818807715	 2.150448169	 0.140206
H	 1.0000008777	 3.2479781593	 2.7366028305	 0.094174
H	 0.4778694092	 4.1197779828	-0.0870295081	 0.101563
H	 2.1823184948	 4.0793654182	 0.5115215638	 0.125174
H	 2.1687731067	 1.7208483353	-0.717316721	 0.105137
121.3531	167.6045	323.1432	415.9134	470.7519	538.8901	594.9517	723.4011	804.6627	837.9214	850.0139	869.3896	885.801	944.1469	961.5883	983.8733	1027.4945	1037.1552	1096.6774	1104.4421	1150.8875	1188.9886	1222.3698	1234.0666	1260.6863	1282.0686	1306.6646	1322.7295	1355.7193	1479.8757	1494.2222	2358.8709	3068.0322	3074.7711	3085.2279	3138.1735	3143.7943	3144.5244	3154.4081
N#CC1CC2CC1O2	N#C[C@H]1C[C@@H]2C[C@H]1O2	
InChI=1S/C6H7NO/c7-3-4-1-5-2-6(4)8-5/h4-6H,1-2H2	InChI=1S/C6H7NO/c7-3-4-1-5-2-6(4)8-5/h4-6H,1-2H2/t4-,5-,6-/m1/s1
