23
gdb 95809	2.38878	1.47056	1.08859	1.6728	81.6	-0.2541	0.0827	0.3368	1224.8969	0.205751	-425.445678	-425.436213	-425.435269	-425.479196	36.574	
C	-0.1091386219	 1.5178374123	-0.1299905939	-0.416811
C	 0.0562836563	 0.0131071296	 0.0120842806	 0.129122
O	 0.701753018	-0.4594890032	-1.1730853397	-0.253506
C	 0.7959604526	-1.8581909225	-1.1841420225	 0.017392
O	 1.5231651658	-2.3669588855	-0.0989297341	-0.253506
C	 0.92535699	-2.0050288577	 1.1485637757	 0.129124
C	 1.7091243814	-2.7045074964	 2.2477485404	-0.416812
C	 0.8446368333	-0.4635263019	 1.2552472431	-0.001933
C	 2.221800699	 0.1995734843	 1.3795927792	-0.400131
H	 0.8548412938	 2.0069005271	-0.2891578671	 0.131564
H	-0.7474744455	 1.74405257	-0.9883423552	 0.123047
H	-0.5717013425	 1.9391510695	 0.7680827701	 0.112916
H	-0.9471889302	-0.4475263799	 0.0647881059	 0.059145
H	-0.2209900717	-2.2983533278	-1.1881140033	 0.071546
H	 1.3325154894	-2.1389841857	-2.0930816561	 0.114077
H	-0.1114700763	-2.3882068722	 1.1576487822	 0.059145
H	 2.7668814044	-2.4332456318	 2.2111307075	 0.131566
H	 1.3124101186	-2.4358982041	 3.2318583189	 0.112917
H	 1.635007517	-3.7886793353	 2.1273682696	 0.123047
H	 0.2425772565	-0.2232001768	 2.1424214289	 0.066469
H	 2.8381179116	-0.0266655662	 0.5062799079	 0.137634
H	 2.131899621	 1.2857676514	 1.462929492	 0.111995
H	 2.7499112996	-0.1492264572	 2.2708173098	 0.111994
121.7589	163.6442	176.8631	224.0185	227.7238	242.2642	284.4635	321.741	352.7093	361.2526	451.8121	467.1359	578.5612	633.771	729.1712	765.7886	817.2954	871.3065	909.8263	982.8143	1011.9079	1016.127	1041.3509	1073.5922	1095.1125	1097.5905	1127.1746	1154.6605	1172.122	1196.4454	1235.0334	1288.0378	1307.2451	1335.0302	1359.3267	1383.239	1386.7011	1393.5305	1410.5258	1416.412	1422.0803	1446.3527	1482.7317	1483.5703	1489.4099	1501.2398	1504.8619	1506.0849	1516.8882	2906.087	2925.2528	2939.1267	3015.8791	3045.6505	3045.7261	3053.8478	3107.3069	3112.9724	3117.7126	3117.9952	3126.7397	3128.3189	3133.4444
CC1OCOC(C)C1C	C[C@H]1OCO[C@@H](C)[C@H]1C	
InChI=1S/C7H14O2/c1-5-6(2)8-4-9-7(5)3/h5-7H,4H2,1-3H3	InChI=1S/C7H14O2/c1-5-6(2)8-4-9-7(5)3/h5-7H,4H2,1-3H3/t5-,6+,7-
