21
gdb 106798	2.38257	1.46643	1.08874	2.7673	78.72	-0.2469	0.0695	0.3164	1183.7668	0.182427	-424.216805	-424.207677	-424.206733	-424.250384	34.731	
C	-0.0045021611	 1.5135788731	-0.0414177457	-0.488677
C	 0.0217347936	 0.0066645062	 0.0369923626	 0.247375
C	 1.2839981681	-0.7819540892	-0.2162503525	-0.364946
C	 0.6515906655	-0.8051747276	 1.1563102032	 0.312347
C	 1.3428713852	-0.2151094231	 2.3491471567	-0.188917
O	 2.2332995437	-1.1978354457	 2.8694372322	-0.421851
C	-0.2946157687	-1.9739253439	 1.386266392	-0.137345
O	-1.1005642206	-2.0596258741	 0.2149210342	-0.256742
C	-1.2587001301	-0.7462854805	-0.3031648071	-0.130979
H	 0.937686096	 1.9536118872	 0.297749424	 0.119611
H	-0.1642562026	 1.846944301	-1.0736530304	 0.122574
H	-0.8123385895	 1.9345137164	 0.5688735188	 0.11658
H	 1.2279904349	-1.6801491229	-0.8235590216	 0.120374
H	 2.2054615722	-0.2181507677	-0.3212944426	 0.106837
H	 1.885748347	 0.6981456729	 2.0612404639	 0.083565
H	 0.595185373	 0.0721605769	 3.1074400942	 0.084539
H	 2.6182078468	-0.8526824574	 3.6807227439	 0.286595
H	 0.2086120489	-2.9366897242	 1.5114795743	 0.119305
H	-0.9098048497	-1.7840871435	 2.2829777384	 0.08152
H	-2.1222848446	-0.2336416555	 0.156142891	 0.082799
H	-1.448564448	-0.8380479884	-1.3785588893	 0.105438
81.4369	144.4789	193.5818	207.005	241.835	268.6808	281.2016	343.8902	361.1215	421.8582	482.2127	557.911	666.8877	704.1861	782.3222	900.1661	927.9341	944.4216	955.3799	966.4321	990.0434	1037.4063	1047.0424	1069.392	1076.0814	1107.4333	1142.2173	1180.6825	1214.7486	1226.5407	1251.5756	1262.875	1276.0726	1312.6708	1360.2547	1382.7895	1415.7618	1421.5252	1466.1689	1487.0302	1492.5644	1505.7369	1508.798	1517.1153	1524.1319	2947.9122	2954.0179	2960.6019	2995.7121	3023.4065	3058.3317	3078.7738	3086.37	3104.222	3123.1	3210.1803	3823.8243
CC12CC1(CO)COC2	C[C@@]12C[C@]1(CO)COC2	
InChI=1S/C7H12O2/c1-6-2-7(6,3-8)5-9-4-6/h8H,2-5H2,1H3	InChI=1S/C7H12O2/c1-6-2-7(6,3-8)5-9-4-6/h8H,2-5H2,1H3/t6-,7-/m0/s1
