19
gdb 102283	2.03895	1.328	0.88746	2.5158	73.69	-0.2367	0.0078	0.2445	1329.7776	0.158995	-456.408903	-456.398983	-456.398039	-456.444674	35.246	
C	-0.2896401218	 1.3742807971	 0.0811042591	-0.375515
C	-0.2333075788	-0.1176359192	-0.2546216012	-0.170717
N	 0.7427108984	-0.4454253258	-1.2922641589	-0.029025
C	 2.1622913948	-0.4834363402	-0.9418551202	-0.277932
C	 2.5783843845	-1.8826417862	-0.4519228102	 0.383814
N	 2.7745422237	-2.7719085322	-1.4610540045	-0.50855
O	 2.7007969368	-2.1407644256	 0.7305734428	-0.363436
C	 0.3688847156	-0.8397789792	-2.5324925896	 0.149967
O	 1.1319376179	-1.2408447106	-3.3986559109	-0.366363
H	 0.6749754234	 1.7432730071	 0.4415038909	 0.133001
H	-0.5725388241	 1.9615191003	-0.797492342	 0.127254
H	-1.0278545219	 1.5522330719	 0.8688800726	 0.127423
H	 0.0097300462	-0.7034508598	 0.6391062036	 0.143849
H	-1.212643532	-0.4595189967	-0.6039670315	 0.120251
H	 2.7367017231	-0.1945503188	-1.8251596883	 0.142812
H	 2.3513404519	 0.2200677171	-0.1313811883	 0.132788
H	 2.4751722399	-2.5325624795	-2.3980482967	 0.283673
H	 2.9174391502	-3.7385528379	-1.2146372985	 0.256543
H	-0.7215166779	-0.7579153315	-2.6938958482	 0.090161
53.5505	59.8243	93.7994	148.3833	210.477	221.7011	266.9657	344.1829	388.7271	424.1619	452.8818	488.7209	549.8717	642.4382	653.1031	739.0668	797.2135	872.4553	889.748	968.594	987.1691	1027.8138	1093.2513	1126.0025	1136.6571	1182.5337	1284.6003	1304.8663	1342.3699	1382.4613	1397.6979	1413.2821	1426.301	1454.3416	1471.8986	1491.9347	1493.0714	1505.0934	1624.0325	1755.9611	1803.8063	2967.6497	3042.2457	3044.7592	3078.9564	3085.3617	3117.2523	3121.8243	3149.0538	3526.0583	3686.5102
CCN(CC(N)=O)C=O	CCN(CC(=O)N)C=O	
InChI=1S/C5H10N2O2/c1-2-7(4-8)3-5(6)9/h4H,2-3H2,1H3,(H2,6,9)	InChI=1S/C5H10N2O2/c1-2-7(4-8)3-5(6)9/h4H,2-3H2,1H3,(H2,6,9)
