19
gdb 63996	3.58955	1.00147	0.94092	1.6589	87.11	-0.226	-0.0165	0.2095	1316.9245	0.157311	-385.879848	-385.870696	-385.869752	-385.913436	35.528	
C	-0.1342662696	 1.533957979	-0.0488106755	-0.436846
C	 0.0033199471	 0.0092596874	-0.0137078599	 0.399747
O	-1.28263695	-0.6035488727	 0.0200629045	-0.478562
C	 0.8817383604	-0.4950218453	-1.2023158725	-0.313354
C	 2.2323487281	-0.7215166471	-0.5859695939	-0.170409
C	 2.1860884081	-0.6992488231	 0.7558921992	 0.204758
C	 0.7726648885	-0.4516885947	 1.2504905795	-0.353822
C	 3.2689705341	-0.9119697282	 1.6421783714	 0.184574
C	 4.1593037854	-1.0832466685	 2.436418193	-0.405032
H	 0.8489419154	 2.0146017207	-0.0209554997	 0.126025
H	-0.6368408059	 1.8591646738	-0.9683410554	 0.10342
H	-0.7190207526	 1.8832171848	 0.8071747628	 0.1241
H	-1.8075416337	-0.2329074398	-0.697401733	 0.273805
H	 0.4617746864	-1.4326286828	-1.5916038967	 0.117469
H	 0.9059117055	 0.214744049	-2.0388458873	 0.097314
H	 3.128815678	-0.911697981	-1.1644259027	 0.099712
H	 0.7312982217	 0.2855428274	 2.0584623677	 0.108758
H	 0.3253721414	-1.3760877338	 1.6336742449	 0.128361
H	 4.9534984814	-1.2401175254	 3.1232455035	 0.189982
60.9188	143.7901	157.9043	279.5949	287.6542	315.7875	338.1406	369.8884	410.184	446.3399	510.0767	546.2161	550.965	594.3786	634.0287	636.2477	779.1634	851.5379	874.1476	914.0935	947.7061	963.6551	968.6469	1005.2066	1090.2941	1118.3908	1140.1242	1177.7777	1203.4633	1267.7431	1282.9172	1299.9939	1332.8136	1385.4928	1403.8298	1474.17	1481.5552	1493.7213	1499.2847	1671.1668	2221.4359	3011.0343	3022.7869	3041.4567	3045.1812	3080.8294	3091.4788	3115.3636	3202.8252	3503.8909	3806.2772
CC1(O)CC=C(C1)C#C	C[C@@]1(O)CC=C(C1)C#C	
InChI=1S/C8H10O/c1-3-7-4-5-8(2,9)6-7/h1,4,9H,5-6H2,2H3	InChI=1S/C8H10O/c1-3-7-4-5-8(2,9)6-7/h1,4,9H,5-6H2,2H3/t8-/m1/s1
