18
gdb 66590	3.11812	1.86376	1.58694	1.3995	73.08	-0.2477	0.0754	0.323	903.1758	0.149926	-401.897358	-401.890649	-401.889705	-401.928148	27.47	
C	-0.0834740312	 1.4655457793	-0.0637461531	-0.5135
C	 0.0621234838	-0.0183878947	 0.0555247334	 0.351973
C	 0.9443236906	-0.855853211	-0.8176678184	-0.126996
C	 1.1038246509	-2.1712005448	-0.0531607752	 0.110612
O	 1.8197896611	-2.112150291	 1.1650782314	-0.276776
C	 1.0576073539	-1.2847592635	 2.0648987657	-0.096533
C	-0.2034261741	-0.9031521527	 1.2836986221	-0.129876
C	-0.4039653844	-2.0088706424	 0.2218561909	-0.039964
N	-0.5588325218	-0.9781446416	-0.9186792008	-0.217368
H	 0.6790458111	 1.9846352926	 0.5281214294	 0.124225
H	 0.0241152597	 1.7786135442	-1.1066253317	 0.133784
H	-1.0681037519	 1.7932235688	 0.2863352009	 0.126093
H	 1.5395452532	-0.4453827085	-1.6252023594	 0.09276
H	 1.4416040694	-3.0292506931	-0.6329197887	 0.091256
H	 0.836345758	-1.8606946527	 2.9726282467	 0.102396
H	 1.6492744201	-0.4059746582	 2.3513879103	 0.103298
H	-1.0695112175	-0.6165432005	 1.8804263137	 0.080672
H	-1.102106171	-2.8360159504	 0.3212612529	 0.083943
185.028	196.1654	228.5438	300.881	424.0664	514.6873	604.2943	664.2777	709.4894	784.4679	795.4242	812.9628	840.958	907.0001	917.2645	939.4575	947.5707	967.0353	993.9106	1006.6973	1044.4115	1051.8782	1083.7043	1105.2445	1142.8541	1193.7598	1207.9569	1214.7135	1248.1343	1255.5033	1273.2252	1309.8787	1336.867	1388.0566	1404.4046	1435.0481	1482.8358	1493.2433	1521.2844	3012.3613	3029.8813	3047.5136	3093.3247	3109.7208	3118.0655	3130.2349	3152.8513	3182.9704
CC12C3C4OCC1C4N23	C[C@@]12[C@H]3[C@H]4OC[C@@H]1[C@H]4N23	
InChI=1S/C7H9NO/c1-7-3-2-9-5-4(3)8(7)6(5)7/h3-6H,2H2,1H3	InChI=1S/C7H9NO/c1-7-3-2-9-5-4(3)8(7)6(5)7/h3-6H,2H2,1H3/t3-,4-,5+,6-,7+,8?/m1/s1
