12
gdb 130113	3.67935	1.72831	1.17939	5.8175	61.24	-0.2361	-0.0435	0.1926	926.428	0.080177	-464.947559	-464.941116	-464.940172	-464.978374	24.422	
N	 0.0055665119	 1.4161546361	 0.1506068076	-0.596966
C	 0.0113519599	 0.0356433176	 0.0198090581	 0.382226
N	-1.0172743079	-0.77157029	-0.001722645	-0.271662
N	-0.5760783312	-2.1091084148	-0.0209984645	-0.350985
C	 0.712200099	-2.0129923735	-0.0312568273	 0.53605
O	 1.7695129671	-2.8484540537	-0.0579490506	-0.249286
N	 2.9392955948	-2.0428372318	-0.0191708158	-0.110745
C	 2.5432004324	-0.8109252061	 0.0189255752	 0.045295
N	 1.1737718624	-0.718429295	 0.0038037157	-0.108186
H	 0.4450954044	 1.8995655005	-0.6260267213	 0.259491
H	-0.9502281101	 1.7391118012	 0.2504008193	 0.275039
H	 3.2270079873	 0.0217623695	 0.0607032285	 0.189728
188.062	215.2597	244.2077	283.6221	401.4383	558.1051	593.2664	654.3112	660.6319	708.4761	738.9837	805.9434	840.7642	859.7731	877.6358	972.3834	1026.3797	1126.5525	1161.6536	1221.7614	1340.7386	1389.4309	1450.8188	1566.8187	1603.0663	1647.0546	1656.7633	3281.7831	3511.0866	3606.7238
NC1=NN=C2ON=CN12	Nc1nnc2oncn12	
InChI=1S/C3H3N5O/c4-2-6-7-3-8(2)1-5-9-3/h1H,(H2,4,6)	InChI=1S/C3H3N5O/c4-2-6-7-3-8(2)1-5-9-3/h1H,(H2,4,6)
