22
gdb 95512	2.1905	1.63274	1.3673	1.9288	82.	-0.2432	0.0297	0.2729	1100.4534	0.194489	-404.3739	-404.364719	-404.363775	-404.407051	35.906	
C	-0.1447099705	 1.5659193719	-0.0499641322	-0.409991
C	 0.0123180521	 0.0370019647	-0.0207535649	-0.032863
C	 0.7748990586	-0.4408812394	-1.2585515866	-0.085813
O	 2.1544160951	-0.0458892764	-1.2135886192	-0.226012
C	 2.7299387056	-0.1039311652	 0.0112027279	 0.114085
N	 2.204206952	-0.3202355208	 1.1396131039	-0.286883
C	 0.7462029726	-0.5127105425	 1.2404242346	 0.275078
C	 0.3009888297	 0.2014964069	 2.5274911119	-0.411144
C	 0.4769967145	-2.0206563502	 1.4147226204	-0.405996
H	 0.8191213502	 2.0747201653	 0.0468200938	 0.133398
H	-0.5924749003	 1.8816281977	-0.9981751753	 0.109015
H	-0.7930822489	 1.9197965942	 0.7542801005	 0.121444
H	-0.9883616309	-0.4120117271	-0.0638506042	 0.073226
H	 0.7350739832	-1.5314221654	-1.3603141495	 0.110972
H	 0.3721764324	 0.0000842477	-2.1740190446	 0.112893
H	 3.7991662552	 0.0838810054	-0.0779838646	 0.121285
H	 0.5822997365	 1.2562172471	 2.5162094056	 0.118904
H	-0.7836261962	 0.1290749161	 2.6640054835	 0.102502
H	 0.7916850381	-0.2617924918	 3.3876033265	 0.119889
H	 1.079251	-2.4090567857	 2.2404031762	 0.127563
H	-0.579847188	-2.1987973786	 1.6413734461	 0.108564
H	 0.7383252089	-2.593382174	 0.5208189	 0.109885
93.2705	173.4212	206.0403	218.8741	259.4279	289.5593	313.3164	352.9901	378.775	411.5492	434.2863	505.5056	584.0098	631.0827	695.801	821.4277	860.3116	885.5022	923.296	938.081	967.0011	967.7104	984.3672	1014.4302	1063.7592	1080.8233	1124.7744	1169.5602	1209.2042	1224.4241	1252.8615	1277.161	1324.9093	1360.2741	1390.2636	1395.8503	1407.3585	1412.7237	1427.0511	1475.3719	1485.2047	1492.0308	1499.7152	1501.9969	1509.4218	1523.9881	1725.9708	3020.2848	3033.4676	3039.39	3040.502	3045.165	3095.5395	3104.2345	3107.1204	3112.2898	3120.7419	3125.098	3133.3158	3148.9259
CC1COC=NC1(C)C	C[C@H]1COC=NC1(C)C	
InChI=1S/C7H13NO/c1-6-4-9-5-8-7(6,2)3/h5-6H,4H2,1-3H3	InChI=1S/C7H13NO/c1-6-4-9-5-8-7(6,2)3/h5-6H,4H2,1-3H3/t6-/m0/s1
