19
gdb 83425	2.90562	1.29096	1.10667	1.9227	75.44	-0.2345	0.0659	0.3004	1163.2802	0.158553	-422.95538	-422.947005	-422.94606	-422.98858	31.579	
C	 0.0670476634	 1.6438625424	 0.1866264433	-0.427066
C	 0.014835489	 0.1384874739	 0.3211351025	-0.095402
C	 1.1198622646	-0.7688090425	-0.1347996576	 0.033563
O	 2.4047235854	-0.1617488963	 0.0379856965	-0.284193
C	 2.2109379716	-0.1333744695	 1.4752976062	-0.152821
C	 0.787763793	-0.6763460946	 1.3456051807	 0.261815
C	 0.1646343643	-1.6563614197	 2.2696149833	-0.05962
C	-1.0367802322	-1.3483636615	 3.0632640778	-0.177143
O	-1.1179581588	-2.1663509991	 1.8946998068	-0.2309
H	 1.100279939	 1.9987273261	 0.1698017711	 0.136316
H	-0.4037420506	 1.9587022771	-0.7504299625	 0.121501
H	-0.4590983826	 2.1419910781	 1.0079565492	 0.113187
H	-0.9606819519	-0.3162393037	 0.159228385	 0.110346
H	 1.0333023829	-1.5709618051	-0.8591975177	 0.109376
H	 2.8953105422	-0.8361551019	 1.9661501776	 0.108704
H	 2.345193751	 0.8682004355	 1.9000806505	 0.106622
H	 0.8425490855	-2.4180487004	 2.6611529606	 0.09241
H	-1.2118562848	-1.8642206525	 4.0061994191	 0.117307
H	-1.4918843911	-0.3633858164	 2.9732383975	 0.115998
72.9868	137.9841	183.4604	189.7057	258.2442	270.0922	353.9053	403.3888	506.569	593.0616	658.9338	766.4233	781.7256	853.6849	874.692	927.958	936.6473	985.3995	1003.488	1009.4229	1016.9554	1078.2902	1086.8105	1100.4309	1123.8325	1142.5378	1152.8689	1161.8683	1173.4556	1222.2268	1260.695	1282.7792	1302.8661	1355.1891	1413.1426	1424.4347	1481.4081	1495.3395	1507.2322	1519.4897	1522.566	3018.6549	3036.8389	3066.8407	3081.3446	3086.5016	3094.8782	3122.1638	3143.5582	3175.4927	3178.4736
CC1C2OCC12C1CO1	C[C@H]1[C@H]2OC[C@@]12[C@H]1CO1	
InChI=1S/C7H10O2/c1-4-6-7(4,3-9-6)5-2-8-5/h4-6H,2-3H2,1H3	InChI=1S/C7H10O2/c1-4-6-7(4,3-9-6)5-2-8-5/h4-6H,2-3H2,1H3/t4-,5+,6+,7-/m0/s1
