19
gdb 41842	2.84465	2.00049	1.71233	1.052	72.1	-0.2394	0.0794	0.3188	875.483	0.164224	-423.048972	-423.042759	-423.041815	-423.079481	26.354	
C	-0.070667775	 1.5459496331	-0.1846600303	-0.088532
O	 1.2049093939	 2.0513049836	 0.2254763252	-0.276396
C	 2.1027367807	 0.9703575215	 0.4451870916	 0.096446
C	 2.1677865308	 0.5322161454	 1.9359126563	-0.231969
C	 1.3049278982	-0.7428899775	 1.8978686099	 0.061926
C	-0.1593301859	-0.3999429286	 1.5396153014	-0.233412
C	-0.0261322696	 0.0406062049	 0.048317548	-0.055086
C	 1.4711982339	-0.3025284587	-0.1937812345	 0.055002
O	 1.7740787285	-1.3699447222	 0.6903799829	-0.263067
H	-0.8542958373	 2.0523250875	 0.39064369	 0.103347
H	-0.2324066001	 1.776281784	-1.2482175232	 0.093972
H	 3.0767035091	 1.2521425909	 0.0402086338	 0.081444
H	 3.1890273158	 0.2766415405	 2.2304430973	 0.103489
H	 1.7927123894	 1.3206063803	 2.5918090874	 0.107
H	 1.4315810718	-1.4260450696	 2.7373968634	 0.077289
H	-0.7841692449	-1.2915905188	 1.6279372663	 0.106987
H	-0.5825944527	 0.3809299991	 2.1771875579	 0.103035
H	-0.7098601954	-0.5017186888	-0.6057409887	 0.077376
H	 1.7704381189	-0.5507823667	-1.2106057045	 0.081148
109.9701	302.3678	356.8109	427.2677	535.1012	574.538	578.1894	714.169	777.3667	798.4573	820.197	845.6681	889.976	895.1996	925.2049	945.8553	976.1112	996.8367	1006.6101	1028.4155	1045.4342	1064.4056	1103.2654	1113.8014	1136.9772	1165.1277	1189.8189	1217.2762	1261.8195	1269.1917	1279.5449	1284.5895	1313.3217	1325.6026	1340.8736	1351.7217	1369.2138	1400.9542	1470.216	1489.5968	1526.4791	2991.8808	3050.3497	3063.3999	3065.4667	3088.7587	3100.3194	3114.0422	3122.9837	3126.2339	3138.9596
C1OC2CC3CC1C2O3	C1O[C@H]2C[C@H]3C[C@@H]1[C@@H]2O3	
InChI=1S/C7H10O2/c1-4-3-8-6-2-5(1)9-7(4)6/h4-7H,1-3H2	InChI=1S/C7H10O2/c1-4-3-8-6-2-5(1)9-7(4)6/h4-7H,1-3H2/t4-,5+,6-,7-/m0/s1
