18
gdb 18599	3.26752	2.16587	1.78462	2.0599	66.75	-0.2464	0.0851	0.3315	818.4692	0.155536	-384.932204	-384.925307	-384.924363	-384.963141	26.914	
C	 0.2853885165	 1.5075492832	-0.2208946852	-0.41458
C	 0.0430609499	 0.041822629	 0.076033462	 0.160159
O	 0.6674971819	-0.8328656707	-0.9000738082	-0.311291
C	 1.3597824641	-1.5740324254	 0.1210218801	 0.123342
C	 2.863524207	-1.314779861	 0.1349797584	-0.104444
O	 3.0296854093	-0.0433126078	 0.7536429991	-0.246497
C	 2.0521543824	 0.0401720909	 1.7861285	-0.096457
C	 0.8036856034	-0.6535802807	 1.2384812092	-0.131308
H	 1.3557891791	 1.7222683089	-0.2638117588	 0.142988
H	-0.1579525818	 1.765510906	-1.1878170862	 0.125537
H	-0.1805239133	 2.1393984853	 0.5435428887	 0.111251
H	-1.0363639447	-0.1604257907	 0.1180108179	 0.073596
H	 1.095447392	-2.6364402035	 0.1140682777	 0.076609
H	 3.3736115976	-2.1030910017	 0.7143022955	 0.085237
H	 3.2949153146	-1.2677830552	-0.8677867457	 0.121624
H	 2.3996289953	-0.4784624451	 2.6949412473	 0.091335
H	 1.9129428741	 1.0975033463	 2.0266812468	 0.113795
H	 0.1782887525	-1.0955378081	 2.0137985215	 0.079105
109.042	208.0437	247.8391	301.5857	371.693	385.3685	488.575	607.8505	735.5039	771.5835	844.4585	861.3464	884.8772	909.219	942.6667	978.508	1001.8383	1023.0507	1074.8617	1089.4196	1101.782	1124.3926	1165.8273	1200.5816	1217.7869	1253.6312	1280.1419	1300.2918	1331.9936	1341.8582	1354.5796	1379.6373	1405.5218	1410.684	1481.4013	1486.9855	1504.0552	1515.9931	2963.5637	2971.1259	2999.127	3036.7039	3056.6191	3093.1274	3104.0573	3106.2588	3115.7811	3131.7173
CC1OC2COCC12	C[C@H]1O[C@H]2COC[C@@H]12	
InChI=1S/C6H10O2/c1-4-5-2-7-3-6(5)8-4/h4-6H,2-3H2,1H3	InChI=1S/C6H10O2/c1-4-5-2-7-3-6(5)8-4/h4-6H,2-3H2,1H3/t4-,5+,6+/m1/s1
