13
gdb 5031	3.36667	2.29138	1.36342	7.3026	64.46	-0.203	-0.0105	0.1925	825.5359	0.097594	-398.647694	-398.64109	-398.640146	-398.678207	25.533	
O	-0.0526515348	 1.3588085262	 0.0113445302	-0.41078
C	 0.029624426	 0.0056575225	 0.0029027233	 0.210646
C	 1.2040229621	-0.6770779622	-0.0083614577	-0.120199
N	 1.2260027468	-2.0554380252	-0.0166127966	-0.316399
C	 0.0688455388	-2.7712294587	-0.0136506232	 0.024167
C	-1.1373502924	-2.1493254368	-0.0025448699	-0.24668
C	-1.2728174173	-0.6988076101	 0.006829974	 0.330714
O	-2.3414677365	-0.100255491	 0.0169083377	-0.390662
H	 0.8326649983	 1.7391369968	 0.00804809	 0.294472
H	 2.1723146715	-0.1888825175	-0.0114862662	 0.113767
H	 2.1115133995	-2.5307627145	-0.0247797989	 0.267991
H	 0.1825228542	-3.8486236758	-0.0206877834	 0.131193
H	-2.0496368561	-2.7325557237	-0.0003467592	 0.111769
135.6071	292.2738	316.4824	376.805	398.8985	440.8942	461.1746	552.5235	561.4355	583.5667	741.198	751.673	814.9091	847.3926	905.7908	946.9814	1038.0427	1119.2665	1179.31	1239.7326	1263.279	1311.0521	1419.9008	1449.2338	1558.3977	1632.3044	1677.0961	1731.3443	3185.3738	3200.8217	3221.3168	3674.8819	3809.9386
OC1=CNC=CC1=O	Oc1c[nH]ccc1=O	
InChI=1S/C5H5NO2/c7-4-1-2-6-3-5(4)8/h1-3,8H,(H,6,7)	InChI=1S/C5H5NO2/c7-4-1-2-6-3-5(4)8/h1-3,8H,(H,6,7)
