22
gdb 104814	2.04104	1.42585	1.21386	2.3727	82.6	-0.2607	0.0309	0.2916	1215.4682	0.1934	-404.359021	-404.349022	-404.348078	-404.394001	36.776	
C	-0.2692643587	 1.4763833033	-0.1105154552	-0.410585
C	 0.0308317896	-0.0217667325	 0.0024113534	-0.227491
C	 0.7993553905	-0.4697147158	 1.2587670266	 0.155397
C	 0.9122035934	-2.0046287931	 1.2939345589	-0.227462
C	 1.5429303828	-2.6092814587	 2.5524469812	-0.410564
C	 2.0954873537	 0.3191543399	 1.5868262111	-0.119094
O	 1.4807181509	 0.8409791028	 2.8075858499	-0.264304
C	 0.3103727207	 0.1591719284	 2.5578391378	 0.430334
N	-0.7602829758	 0.1096126461	 3.2105444522	-0.561223
H	 0.6404833903	 2.0833711981	-0.1591650421	 0.115842
H	-0.8406582385	 1.6772458096	-1.0215744015	 0.116444
H	-0.8633121721	 1.8230287125	 0.7398381165	 0.140465
H	-0.9168715023	-0.5723519622	-0.0130588919	 0.118075
H	 0.5950633231	-0.3568849849	-0.8779192569	 0.097751
H	-0.100310092	-2.4085673275	 1.1792042791	 0.117948
H	 1.4726079292	-2.3237480639	 0.4052468765	 0.097778
H	 2.5802004441	-2.2900351316	 2.6960013298	 0.115871
H	 0.9764735432	-2.3338815791	 3.4465468934	 0.140512
H	 1.5476999089	-3.7010538422	 2.4826499328	 0.116407
H	 2.9817415115	-0.274128178	 1.8220282489	 0.11641
H	 2.3574939328	 1.1323757785	 0.9065671123	 0.116427
H	-0.7097934855	 0.6822249003	 4.0553174672	 0.225061
83.8012	90.0205	101.4551	157.0509	177.2847	225.0329	269.3401	292.7051	341.1023	390.1073	456.2892	499.3897	632.1124	690.5037	736.1756	778.3526	800.8551	863.4662	895.2681	921.5746	962.1077	985.1945	999.8509	1019.0389	1057.733	1081.6707	1095.9565	1151.8159	1189.4999	1190.7573	1236.6823	1251.9308	1294.8868	1340.9429	1357.7899	1361.1792	1399.8924	1413.8317	1419.5873	1470.7514	1485.6418	1496.9139	1502.665	1507.3832	1507.6328	1529.2797	1814.51	3017.7045	3024.691	3041.6644	3042.1794	3058.8522	3066.7777	3069.0507	3105.0517	3106.767	3118.7309	3119.8331	3124.5409	3469.9554
CCC1(CC)COC1=N	CCC1(CC)CO[C]1[NH]	
InChI=1S/C7H13NO/c1-3-7(4-2)5-9-6(7)8/h8H,3-5H2,1-2H3	InChI=1S/C7H13NO/c1-3-7(4-2)5-9-6(7)8/h8H,3-5H2,1-2H3
