21
gdb 115803	3.93127	1.05251	0.94232	1.3027	78.66	-0.2497	0.073	0.3226	1320.5471	0.182181	-424.220855	-424.211859	-424.210915	-424.254274	34.733	
C	-0.1477293097	 1.5294727599	 0.0558146578	-0.3813
C	-0.009308596	 0.0063070575	-0.0217297598	-0.185114
C	 0.7814103863	-0.5820979189	 1.140740479	 0.132263
O	 0.1100167407	-0.2547506159	 2.3677974498	-0.271374
C	 0.4972551471	-1.194570421	 3.3592975598	-0.143819
C	 0.7436421844	-2.4987573147	 2.6105524202	 0.368162
O	 1.5787158338	-3.4473125241	 3.1953078483	-0.469336
C	-0.3043770187	-2.8872065292	 1.6021296673	-0.353648
C	 0.9204295828	-2.0957523654	 1.1758572204	-0.118527
H	 0.833970604	 2.0164563831	 0.047087939	 0.110284
H	-0.7191555523	 1.916344354	-0.7933160222	 0.107592
H	-0.6577206795	 1.8234621805	 0.9765463093	 0.135733
H	-0.9998812573	-0.4625883611	-0.0440238745	 0.099486
H	 0.4969756817	-0.2792006834	-0.9523768871	 0.09404
H	 1.7941579542	-0.1401363133	 1.1477152788	 0.065236
H	 1.4314443996	-0.9024453647	 3.865919274	 0.096994
H	-0.3060803053	-1.2377102848	 4.1037375767	 0.097781
H	 1.0507667005	-3.9773280223	 3.8019682585	 0.285703
H	-0.3187288102	-3.9298410845	 1.3042429293	 0.112394
H	-1.2719421179	-2.39596033	 1.6301480189	 0.120358
H	 1.6666032719	-2.5789910217	 0.5570064063	 0.097094
88.9206	130.3684	175.1614	231.4532	237.9241	285.3269	311.5093	373.6327	393.6009	451.2464	510.6338	577.3682	670.0562	726.0554	770.7743	862.8871	903.5477	920.9897	932.491	944.52	973.1514	1036.5314	1044.2987	1064.7468	1069.6706	1086.2833	1108.3696	1128.792	1164.0607	1215.4925	1260.98	1274.8952	1292.5464	1320.3708	1331.7065	1349.559	1358.4322	1407.0263	1411.9696	1415.858	1476.0282	1484.3178	1497.3027	1508.881	1515.472	2938.3637	2977.9054	3029.2866	3036.2074	3057.3438	3067.9404	3100.8237	3125.3442	3127.5596	3190.902	3221.212	3800.1879
CCC1OCC2(O)CC12	CC[C@H]1OC[C@@]2(O)C[C@@H]12	
InChI=1S/C7H12O2/c1-2-6-5-3-7(5,8)4-9-6/h5-6,8H,2-4H2,1H3	InChI=1S/C7H12O2/c1-2-6-5-3-7(5,8)4-9-6/h5-6,8H,2-4H2,1H3/t5-,6+,7-/m0/s1
