17
gdb 91415	2.71986	1.72459	1.28721	3.4282	67.46	-0.2425	-0.034	0.2086	985.5272	0.137291	-458.962729	-458.955453	-458.954509	-458.994351	28.871	
O	-0.0831949531	 1.4388710012	-0.0612356131	-0.445485
C	-0.0227403128	 0.0393877067	-0.0249367707	 0.052226
C	-1.424645786	-0.6076130158	 0.0718844943	-0.231981
C	-1.4069289072	-1.9751962396	-0.609502453	 0.080536
C	-0.089644264	-2.7552644526	-0.3856398545	-0.271867
C	 0.3682011788	-1.9321777079	-1.6045936339	-0.013434
O	-1.0273055042	-1.7712252822	-2.0097740796	-0.289649
C	 0.7472785677	-0.505853711	-1.2338120972	 0.394859
O	 1.5056742442	 0.197273814	-1.860158141	-0.339959
H	 0.6025794446	 1.7100034081	-0.6911097759	 0.292759
H	 0.5685636944	-0.2893429694	 0.8511000618	 0.094431
H	-1.747112158	-0.6863654519	 1.1154078545	 0.10786
H	-2.1348155113	 0.037590247	-0.4534818593	 0.135249
H	-2.3568165389	-2.5077424867	-0.5233686748	 0.092592
H	 0.4411400519	-2.6498339063	 0.5621079913	 0.114618
H	-0.1938535576	-3.8098010573	-0.6440802972	 0.125791
H	 1.0046538413	-2.3605574062	-2.3800909316	 0.101455
103.2676	178.9419	297.9833	353.6594	379.7883	404.2366	443.5809	447.1279	534.2284	608.459	662.8166	783.4545	843.1894	856.1116	890.4503	919.9586	945.4988	992.5164	1019.3116	1025.5912	1071.0022	1097.7406	1148.1411	1177.9606	1219.2611	1232.6582	1255.131	1268.7542	1301.9915	1312.0703	1324.3882	1354.9897	1385.5011	1428.4659	1477.4898	1493.735	1820.4631	2917.3758	3050.8468	3079.7508	3090.3068	3105.3701	3114.1912	3141.9045	3704.2118
OC1CC2CC(O2)C1=O	O[C@H]1C[C@@H]2C[C@@H](O2)C1=O	
InChI=1S/C6H8O3/c7-4-1-3-2-5(9-3)6(4)8/h3-5,7H,1-2H2	InChI=1S/C6H8O3/c7-4-1-3-2-5(9-3)6(4)8/h3-5,7H,1-2H2/t3-,4+,5-/m1/s1
