15
gdb 128298	5.40912	0.95642	0.81962	3.0087	74.93	-0.2217	-0.0494	0.1723	1338.8436	0.113926	-450.162238	-450.15394	-450.152996	-450.195842	28.915	
C	-0.0181604159	 1.4101498645	 0.1560845586	-0.326328
N	-0.0699214209	-0.0108685578	-0.1394974378	-0.369946
C	-1.229981144	-0.7152710602	-0.0643041724	 0.478132
N	-1.2641464767	-2.0372368642	 0.0104739013	-0.334243
N	-2.6153048239	-2.2842371938	-0.000434309	-0.018448
C	-3.1832134599	-3.5599708429	 0.0598021493	 0.186505
O	-2.5696866231	-4.5860074355	 0.1212054412	-0.258396
C	-3.2923388595	-1.0997536932	-0.0676841429	 0.038966
N	-2.4671279082	-0.0911408145	-0.1077321457	-0.330512
H	 0.9150220425	 1.8195468294	-0.2377896565	 0.129503
H	-0.8540686099	 1.9091748671	-0.3355998671	 0.163931
H	-0.0724948843	 1.630051135	 1.2317355264	 0.122394
H	 0.754557599	-0.5557785328	 0.0596372843	 0.259159
H	-4.2864882963	-3.4857248952	 0.0431994903	 0.099135
H	-4.3713210489	-1.0457021158	-0.08303248	 0.160148
74.686	104.0304	137.0372	165.6248	233.7982	257.52	379.4787	472.2653	508.3594	567.2571	622.678	733.6909	777.0717	837.7277	866.3533	981.1314	1008.7032	1009.3272	1096.2382	1154.3497	1180.1923	1226.5187	1302.6852	1371.675	1405.0331	1436.7495	1456.0118	1470.7177	1491.9199	1513.9504	1556.4014	1660.9279	1845.6544	2966.4973	3004.4442	3097.6966	3149.4923	3251.5567	3632.262
CNC1=NN(C=O)C=N1	CNc1nn(C=O)cn1	
InChI=1S/C4H6N4O/c1-5-4-6-2-8(3-9)7-4/h2-3H,1H3,(H,5,7)	InChI=1S/C4H6N4O/c1-5-4-6-2-8(3-9)7-4/h2-3H,1H3,(H,5,7)
