17
gdb 77766	2.22615	1.91325	1.19582	4.0263	74.06	-0.2368	-0.005	0.2318	1039.4535	0.134993	-417.895257	-417.887331	-417.886387	-417.927479	30.622	
C	 0.0680443977	 1.4559717131	-0.3199138217	-0.330043
N	 0.0343310964	 0.0212500828	-0.0257294567	-0.106982
C	-1.0724870374	-0.4797293177	 0.8960775489	-0.283287
C	-0.115942835	-1.6944612391	 1.0752817445	 0.513922
O	-0.1110952023	-2.8782092415	 1.1170910009	-0.30864
C	 0.8133684331	-0.4589051654	 1.1972879735	-0.254086
C	-0.3069564197	 0.0986770307	 2.1142129933	 0.419214
C	-0.489904956	 1.2912255709	 2.9559145212	-0.338674
N	-0.4740443191	-0.07138055	 3.5420832103	-0.389371
H	 1.0335737365	 1.6843761967	-0.7814196906	 0.130288
H	-0.7108145823	 1.6702580023	-1.0582479501	 0.128356
H	-0.0733613524	 2.1235036337	 0.5391724892	 0.114721
H	-2.1278488091	-0.4256320751	 0.6340343642	 0.100249
H	 1.8948182799	-0.37866858	 1.2788420751	 0.105971
H	 0.3598634141	 1.9112747923	 3.2277998105	 0.132871
H	-1.4365106528	 1.8226866047	 2.8912265461	 0.123786
H	-1.4161361514	-0.3800980684	 3.7704746715	 0.241705
119.817	186.2896	189.7378	229.0285	267.9157	333.1637	371.8969	501.413	526.8065	582.1908	698.0143	724.5213	749.3074	778.5253	805.8385	895.9568	935.9788	958.9353	974.2913	1029.4319	1062.098	1097.4961	1102.3591	1116.8274	1131.405	1151.1857	1177.0239	1188.8532	1237.6044	1240.4458	1256.9124	1430.5057	1442.8725	1488.2404	1500.5799	1519.7657	1949.7889	3019.2365	3085.2287	3104.831	3106.6482	3139.6627	3157.2196	3189.6199	3499.5531
CN1C2C(=O)C1C21CN1	CN1[C@H]2C(=O)[C@@H]1[C@]12CN1	
InChI=1S/C6H8N2O/c1-8-4-3(9)5(8)6(4)2-7-6/h4-5,7H,2H2,1H3	InChI=1S/C6H8N2O/c1-8-4-3(9)5(8)6(4)2-7-6/h4-5,7H,2H2,1H3/t4-,5+,6+
