20
gdb 112757	2.46083	1.20389	0.92139	0.3513	75.16	-0.2377	0.0617	0.2994	1299.7646	0.170341	-440.232652	-440.223261	-440.222316	-440.267002	35.112	
O	 0.0480198042	 1.4511180671	 0.0004027876	-0.419078
C	 0.060917752	 0.0352361044	 0.0994034371	-0.081829
C	-1.3374151261	-0.5636289721	 0.0922035749	-0.094194
C	-2.1228653513	-0.5781840686	-1.2597242837	-0.278911
C	-2.6184931946	-2.0059589281	-0.9345530465	 0.082075
O	-2.6069702444	-2.8926307597	-2.0263940215	-0.430059
C	-1.5071857979	-2.0924819026	 0.1182891767	 0.298267
C	-0.4414265902	-3.1148096467	 0.1822804763	-0.299138
N	-1.4905684917	-3.0395281621	 1.2245640814	-0.383999
H	-0.3596874396	 1.6793954415	-0.8414054168	 0.285914
H	 0.6613292164	-0.418637703	-0.7050754217	 0.089473
H	 0.5662549335	-0.1868903672	 1.0469760299	 0.104099
H	-1.9313047346	-0.0876817306	 0.8812092351	 0.083332
H	-2.8795813333	 0.1902289053	-1.4258533494	 0.104469
H	-1.4411799295	-0.6135277369	-2.1159245583	 0.112224
H	-3.6024483476	-1.9859110636	-0.4441905774	 0.074085
H	-3.0263800714	-3.7136009569	-1.7495373708	 0.289156
H	-0.4987861528	-3.9851461887	-0.4652346334	 0.119119
H	 0.5687668114	-2.8038334347	 0.4354942819	 0.115098
H	-1.1171456625	-2.6028371267	 2.0650405885	 0.229897
68.8908	99.22	149.6154	206.7687	236.8226	269.9864	276.0599	332.9369	355.9431	442.1299	473.2056	545.7817	569.7117	738.5609	819.7882	847.166	890.3035	927.0076	947.5784	965.9104	980.084	1013.9243	1053.5228	1076.2144	1090.177	1114.517	1129.9662	1160.1949	1215.7438	1231.1432	1242.7062	1252.4938	1268.1931	1284.0566	1316.9183	1344.3309	1388.7813	1407.5875	1421.3441	1439.1018	1483.6034	1505.3386	1517.143	2976.7127	2998.521	3040.3969	3054.9623	3058.2167	3108.6202	3122.8005	3193.5843	3483.8453	3813.8587	3819.0987
OCC1CC(O)C11CN1	OC[C@H]1C[C@@H](O)[C@]21CN2	
InChI=1S/C6H11NO2/c8-2-4-1-5(9)6(4)3-7-6/h4-5,7-9H,1-3H2	InChI=1S/C6H11NO2/c8-2-4-1-5(9)6(4)3-7-6/h4-5,7-9H,1-3H2/t4-,5-,6-/m1/s1
