16
gdb 65333	3.73759	1.0839	0.96496	4.2589	70.32	-0.2864	-0.0073	0.279	1214.1527	0.122145	-437.852547	-437.843859	-437.842915	-437.886151	31.28	
C	-0.0716565971	 1.8141050688	 0.4734765999	-0.477834
C	-0.1293407411	 0.3496215445	 0.1118256845	 0.344249
O	 0.8062523693	-0.1023776118	-0.8664966596	-0.262605
C	 0.9632485852	-0.592042973	 0.469957025	-0.153976
C	 2.1344645689	-0.1477061881	 1.1922067346	 0.305732
N	 3.0622862031	 0.1951903246	 1.7903306691	-0.328037
C	-1.5142272213	-0.2305265942	-0.0300668247	 0.006193
C	-2.0065562712	-0.6995626206	-1.3335864746	-0.171981
O	-1.5991442673	-1.6194593461	-0.3157505803	-0.226915
H	 0.9617781087	 2.1527707051	 0.5619997102	 0.159649
H	-0.5692994462	 2.4095184109	-0.2987042503	 0.139436
H	-0.5820025185	 1.9961799061	 1.4245506556	 0.137962
H	 0.7098312307	-1.6412017307	 0.5988945757	 0.157184
H	-2.2321618198	 0.1317084634	 0.7064212775	 0.105808
H	-3.0740522576	-0.6797581249	-1.5437073167	 0.124656
H	-1.3421534458	-0.644383484	-2.1919176361	 0.140478
84.3915	126.8851	136.9191	179.5268	216.1712	274.7709	326.9575	365.3752	454.7401	516.4322	576.6738	641.9689	700.5204	835.3881	850.5893	892.179	929.5463	969.1456	1021.2409	1034.4829	1084.0992	1114.8572	1119.144	1166.0847	1168.6986	1232.6351	1281.7323	1315.0506	1416.2705	1425.3014	1431.382	1483.4162	1496.2383	1517.2976	2359.4768	3045.3213	3100.2413	3108.9631	3112.8735	3144.8327	3157.1349	3200.3723
CC1(OC1C#N)C1CO1	C[C@]1(O[C@H]1C#N)[C@H]1CO1	
InChI=1S/C6H7NO2/c1-6(5-3-8-5)4(2-7)9-6/h4-5H,3H2,1H3	InChI=1S/C6H7NO2/c1-6(5-3-8-5)4(2-7)9-6/h4-5H,3H2,1H3/t4-,5+,6+/m0/s1
