18
gdb 39523	3.02418	2.01159	1.56849	1.0314	75.4	-0.2177	0.0021	0.2198	885.9421	0.152563	-398.084921	-398.078558	-398.077613	-398.115239	26.865	
C	-0.0840071748	 1.4386486038	 0.0227540366	-0.197303
N	 1.2910819872	 1.9406829826	 0.1739634854	-0.245662
C	 2.0785218755	 1.0004595262	-0.1999160803	 0.235182
N	 3.3749805444	 0.8259512273	 0.2894441546	-0.327642
C	 3.2546701035	-0.3564655339	 1.2215347861	-0.166138
C	 1.7878145935	-0.5865861728	 1.6787123763	-0.163715
N	 0.9803078458	-0.9578756751	 0.4875230678	-0.111953
C	 0.0410961168	-0.0622739289	-0.2536907355	-0.041188
C	 1.4324756971	-0.2553635635	-0.7164534328	-0.120031
H	-0.6271959949	 1.6750034309	 0.9457175951	 0.116559
H	-0.634258065	 1.9150874733	-0.8004721294	 0.115706
H	 3.6226093751	 1.6539498261	 0.8243196042	 0.233207
H	 3.6018516532	-1.254928205	 0.7009999619	 0.129437
H	 3.9147257422	-0.1901465556	 2.0762128673	 0.115648
H	 1.7500732602	-1.4240597284	 2.3824496902	 0.108828
H	 1.4087911417	 0.303246355	 2.1961329678	 0.118115
H	-0.7996327984	-0.6004900603	-0.6779712598	 0.10184
H	 1.7986728968	-0.8189334918	-1.5684513555	 0.099109
200.2445	279.1963	308.7014	412.4952	440.5743	493.7399	530.7167	637.73	712.1432	774.0552	795.1476	838.559	846.8331	870.737	903.6623	938.8349	964.5685	972.6309	997.4104	1017.2964	1035.3605	1072.0249	1109.9015	1116.0853	1199.9135	1204.0311	1225.8643	1258.9776	1290.7738	1299.7192	1330.9015	1357.1677	1374.1879	1394.2409	1433.8667	1482.108	1490.5428	1502.3988	1671.0078	3014.4026	3029.4573	3052.0255	3053.8148	3080.1962	3109.7383	3156.5553	3175.3859	3511.5942
C1N=C2NCCN3C1C23	C1[N][C]2NCCN3[C@@H]1[C@@H]23	
InChI=1S/C6H9N3/c1-2-9-4-3-8-6(7-1)5(4)9/h4-5H,1-3H2,(H,7,8)	InChI=1S/C6H9N3/c1-2-9-4-3-8-6(7-1)5(4)9/h4-5H,1-3H2,(H,7,8)/t4-,5-,9?/m0/s1
