16
gdb 19726	3.95823	2.36768	2.18996	1.1993	61.73	-0.246	0.0862	0.3322	691.9173	0.13383	-383.71879	-383.713344	-383.7124	-383.748006	23.044	
C	-0.0102465173	 1.5405705877	-0.0078459807	-0.072396
O	 1.3754664658	 1.9444331245	 0.0141148117	-0.281188
C	 2.1458829491	 0.7231449873	 0.0269641514	 0.06065
C	 1.3091393811	-0.2222611234	-0.8430161745	-0.232695
C	 0.0424686979	-0.006777898	 0.0142043779	-0.106907
C	 0.5591409533	-0.3317672341	 1.4223751219	 0.057527
O	 1.6518803951	-1.2537105555	 1.4969437679	-0.259712
C	 1.9466664821	 0.1496491686	 1.4374493291	 0.04167
H	-0.5297722708	 1.9637280524	 0.8604446715	 0.101227
H	-0.4860393017	 1.9225981132	-0.9193600697	 0.102645
H	 3.1627362771	 0.9565738026	-0.2857340703	 0.078236
H	 1.2041387972	 0.154315281	-1.8620474274	 0.103574
H	 1.6619320495	-1.2513446831	-0.8453082067	 0.126379
H	-0.8747913911	-0.5019940845	-0.3035972077	 0.0749
H	-0.0978929749	-0.298431443	 2.2863826674	 0.101346
H	 2.4319783176	 0.5848865144	 2.3045455382	 0.104742
272.365	348.9918	390.4127	472.8954	548.7284	609.4236	786.841	802.6784	839.8795	866.9074	895.1161	902.894	924.8311	932.2706	947.97	960.8511	996.7125	1020.637	1055.4477	1066.8202	1109.6281	1139.4865	1180.871	1214.988	1242.0782	1280.788	1289.2093	1293.0108	1305.4503	1334.3811	1370.9586	1415.34	1477.8109	1525.277	3018.36	3056.601	3092.147	3119.9837	3131.5097	3159.3771	3165.625	3179.1237
C1OC2CC1C1OC21	C1O[C@@H]2C[C@H]1[C@H]1O[C@@H]21	
InChI=1S/C6H8O2/c1-3-2-7-4(1)6-5(3)8-6/h3-6H,1-2H2	InChI=1S/C6H8O2/c1-3-2-7-4(1)6-5(3)8-6/h3-6H,1-2H2/t3-,4-,5-,6+/m1/s1
