16
gdb 34467	3.65179	1.50922	1.26586	4.6409	73.09	-0.2291	0.0158	0.2449	979.0847	0.127443	-396.877611	-396.870824	-396.86988	-396.908676	27.31	
N	 0.0429797531	-1.058608354	 0.003732796	-0.339308
C	 0.0122271216	 0.0979219255	-0.0092276775	 0.186799
C	-0.0377852627	 1.5299470832	-0.0267870303	 0.256932
N	-1.1254949429	 2.1736549363	 0.7057565703	-0.36032
C	-1.3785908195	 3.4526819815	-0.0018561474	-0.137583
C	-0.0753135776	 3.6871436834	-0.7601154399	-0.0717
N	 1.0407720063	 3.6833857065	 0.2720390393	-0.324267
C	 1.2978409333	 2.2806215163	-0.1012361318	-0.05593
C	 0.3626604934	 2.2881660428	-1.2835882341	-0.157496
H	-1.9444693278	 1.5767881331	 0.6910206552	 0.235091
H	-2.2258589114	 3.3910588563	-0.7004011402	 0.096186
H	-1.5651827952	 4.2549315344	 0.7175542368	 0.124632
H	-0.0746571223	 4.5346861925	-1.4430243433	 0.09021
H	 1.8095526573	 4.2407582921	-0.0949657815	 0.227335
H	 2.2470399651	 1.7862543502	 0.0684361413	 0.116666
H	 0.4078749093	 1.8948344899	-2.290842613	 0.11275
142.1018	163.9577	254.8204	397.8168	458.2044	494.7795	539.9165	576.4036	633.1445	715.9408	736.2024	816.5601	834.5185	862.1824	878.3777	901.7265	955.1615	979.951	1013.4926	1030.5199	1057.6001	1074.7616	1098.9313	1145.2584	1165.9073	1212.7258	1227.8629	1249.2472	1272.2458	1346.8666	1373.6852	1394.7802	1452.5396	1496.6922	2352.5205	2998.5789	3088.4218	3137.0803	3185.2837	3198.1525	3482.7944	3543.3146
N#CC12NCC3NC1C23	N#C[C@@]12NC[C@H]3N[C@@H]1[C@@H]23	
InChI=1S/C6H7N3/c7-2-6-4-3(1-8-6)9-5(4)6/h3-5,8-9H,1H2	InChI=1S/C6H7N3/c7-2-6-4-3(1-8-6)9-5(4)6/h3-5,8-9H,1H2/t3-,4+,5-,6+/m1/s1
