18
gdb 90311	2.6535	1.6376	1.26823	3.1164	78.33	-0.2061	-0.0044	0.2017	1033.9651	0.148971	-401.964265	-401.95643	-401.955486	-401.996465	30.601	
C	-0.0108004434	 1.5369964014	-0.1593474074	-0.39925
C	 0.0249105821	 0.0176607923	-0.0835235148	 0.008289
C	 1.244118606	-0.6438351289	-0.8394835518	-0.305304
C	 1.8792920306	-0.7331454837	 0.5292329512	 0.127331
C	 2.8391225211	-0.074733262	 1.1940334635	-0.113632
N	 2.3416362216	 0.3513407624	 2.4401824725	-0.309015
C	 0.9575928337	 0.1967983919	 2.5450436101	 0.394143
O	 0.2855129785	 0.5218448951	 3.4960781388	-0.372906
C	 0.580871704	-0.5803994422	 1.2793504375	-0.191719
H	 0.9672144951	 1.9677305175	 0.0818116528	 0.1226
H	-0.2812213079	 1.8669336623	-1.1677618916	 0.116188
H	-0.7426465787	 1.9478922261	 0.542596713	 0.135507
H	-0.9466801977	-0.4044914186	-0.353065603	 0.08345
H	 0.9771523476	-1.6099048817	-1.2784217935	 0.109022
H	 1.7488025416	-0.0337757732	-1.5931521029	 0.105503
H	 3.8091211925	 0.2696071755	 0.8606000676	 0.122105
H	 2.887225742	 0.7534422057	 3.1850126982	 0.258422
H	 0.0372765613	-1.4852787999	 1.5624645998	 0.109265
98.308	140.9079	227.0748	256.3272	325.2448	367.5141	396.6066	508.7232	514.0791	617.7261	658.0737	706.4084	764.9252	807.0876	813.6863	853.4373	891.8876	932.3233	949.8448	1029.0722	1050.2386	1076.3309	1095.924	1122.8029	1129.9631	1184.0848	1196.3097	1237.056	1265.6495	1275.9999	1333.0031	1355.5541	1388.6939	1413.4225	1487.6148	1495.1825	1499.0588	1683.2109	1826.6903	3032.5055	3048.3381	3064.5088	3082.5454	3099.84	3102.7245	3110.3754	3219.0422	3654.7483
CC1CC2=CNC(=O)C12	C[C@H]1C[C]2[CH]NC(=O)[C@@H]12	
InChI=1S/C7H9NO/c1-4-2-5-3-8-7(9)6(4)5/h3-4,6H,2H2,1H3,(H,8,9)	InChI=1S/C7H9NO/c1-4-2-5-3-8-7(9)6(4)5/h3-4,6H,2H2,1H3,(H,8,9)/t4-,6-/m0/s1
