16
gdb 44300	3.84705	1.74665	1.53773	3.9148	70.28	-0.2277	0.0251	0.2528	863.7335	0.128032	-400.737586	-400.731725	-400.730781	-400.767598	25.087	
O	-0.0209278581	-0.0577545191	 0.0589500858	-0.38413
C	-0.0223909475	 1.1492921867	-0.0266638624	 0.41713
N	-1.1393431945	 1.9685473925	-0.0891567722	-0.319848
C	-0.7552157903	 3.3597102894	 0.0399130356	-0.010782
C	-0.0282911619	 3.754381219	 1.3464099955	-0.08747
C	 1.1877510548	 4.2551971212	 0.6049436975	-0.113356
C	 1.2555703148	 2.9193189768	 1.2996891252	-0.065233
C	 1.1585723828	 2.1176293864	-0.0286461034	-0.163277
C	 0.6462908195	 3.4571557102	-0.6331218206	-0.068251
H	-2.0357286994	 1.6065088802	 0.1996906223	 0.245806
H	-1.5187791244	 4.0556907972	-0.3060320426	 0.08591
H	-0.4480870666	 4.1037909265	 2.2804880092	 0.091998
H	 1.7748855807	 5.1550401564	 0.7048680636	 0.099675
H	 1.7861026346	 2.6420639534	 2.2001747004	 0.100519
H	 2.0974807791	 1.706542	-0.3923927029	 0.089319
H	 0.7551260563	 3.6964341333	-1.6880174211	 0.081991
154.1629	350.5778	429.5625	492.7473	518.3362	612.6715	688.7528	723.5991	769.984	800.1494	812.0561	827.77	851.0525	895.4376	897.9288	919.5441	967.6779	987.0377	988.3222	1026.0512	1040.035	1047.7004	1063.9582	1133.5753	1166.423	1177.6937	1207.0788	1220.9475	1243.1798	1261.3247	1294.8305	1337.9702	1361.7459	1403.2152	1834.9813	3120.5231	3144.9721	3152.6097	3200.5264	3211.6212	3238.2674	3622.8652
O=C1NC2C3C4C3C1C24	O=C1N[C@H]2[C@@H]3[C@H]4[C@@H]3[C@@H]1[C@@H]24	
InChI=1S/C7H7NO/c9-7-5-2-1-3(2)6(8-7)4(1)5/h1-6H,(H,8,9)	InChI=1S/C7H7NO/c9-7-5-2-1-3(2)6(8-7)4(1)5/h1-6H,(H,8,9)/t1-,2+,3-,4+,5-,6+/m1/s1
