19
gdb 62709	2.84807	1.72015	1.49718	0.5611	73.6	-0.2293	0.0763	0.3057	959.078	0.159607	-422.995657	-422.987936	-422.986992	-423.027229	31.36	
C	-0.2387879195	 1.5874947046	 0.0930045933	-0.467215
C	 0.0303738281	 0.0932438301	 0.017463151	 0.391783
O	-1.1436707092	-0.6486344223	 0.3393283845	-0.478986
C	 0.5927489763	-0.5518969967	-1.2499309171	-0.102389
C	 2.1101246129	-0.439505684	-1.3323342363	-0.089016
C	 2.8436840598	 0.5874430632	-0.4846755569	-0.111338
O	 2.3643108192	 0.3878632624	 0.8507312121	-0.264841
C	 1.2671461106	-0.5127356609	 0.7811056827	 0.022987
C	 1.5008496899	-1.4562229046	-0.4230481682	-0.087493
H	 0.6471185632	 2.1788290926	-0.1425505302	 0.129369
H	-1.0389326921	 1.8587465552	-0.6031421592	 0.121701
H	-0.5581097713	 1.8697556558	 1.1044807932	 0.106607
H	-1.4797637728	-0.3091466911	 1.1762898194	 0.273852
H	-0.001222812	-0.8072107637	-2.12009792	 0.088817
H	 2.5554126129	-0.7595910023	-2.2672413734	 0.094817
H	 3.9270201825	 0.4116522374	-0.5023385563	 0.103843
H	 2.664028149	 1.6230187775	-0.8016144259	 0.099924
H	 1.0681619056	-0.9173003783	 1.7733611025	 0.075362
H	 1.654823447	-2.5255263951	-0.4385797151	 0.092217
177.0397	197.3256	212.4986	273.8137	296.1749	365.1826	383.5755	458.5624	524.5396	613.0671	706.0277	759.377	776.0041	799.2501	847.958	892.5545	926.2278	936.0432	954.514	974.2968	991.3984	1031.2868	1052.7774	1061.0038	1080.8196	1114.4431	1127.8886	1178.8567	1194.3413	1203.5677	1219.9457	1244.8054	1283.3655	1310.1525	1363.4693	1396.4338	1404.5679	1408.3853	1486.5198	1489.2081	1528.7771	3010.0337	3026.6308	3040.4353	3092.5118	3121.8382	3140.9525	3177.4663	3187.4458	3218.2343	3797.8143
CC1(O)C2C3COC1C23	C[C@@]1(O)[C@H]2[C@H]3CO[C@@H]1[C@@H]23	
InChI=1S/C7H10O2/c1-7(8)5-3-2-9-6(7)4(3)5/h3-6,8H,2H2,1H3	InChI=1S/C7H10O2/c1-7(8)5-3-2-9-6(7)4(3)5/h3-6,8H,2H2,1H3/t3-,4+,5-,6+,7+/m0/s1
