18
gdb 12401	2.97496	2.02718	1.3191	3.1549	67.57	-0.2558	-0.0247	0.2312	936.337	0.155326	-384.983886	-384.976485	-384.975541	-385.015413	28.797	
O	 0.0480312725	 1.4001023506	 0.1236954384	-0.444038
C	 0.0069117349	 0.0057972759	 0.0123067511	 0.060979
C	-1.4400570765	-0.5277997923	 0.0084938148	-0.21554
C	-1.475091717	-2.0487325071	-0.1863547201	-0.205558
C	-0.7793585637	-2.4596306867	-1.4917915639	-0.200481
C	 0.6747660168	-1.9392989531	-1.5463358526	-0.296576
C	 0.7211858136	-0.4548052864	-1.2565994147	 0.368183
O	 1.2548945763	 0.3626563931	-1.9772300746	-0.331934
H	 0.571192444	 1.6978123271	-0.6386554649	 0.289995
H	 0.5386712207	-0.4608792295	 0.8622196968	 0.085519
H	-1.9238431033	-0.2327800126	 0.9445741721	 0.112098
H	-1.9842700134	-0.027245747	-0.8023291785	 0.108399
H	-0.9815500745	-2.5415845744	 0.6625222308	 0.099895
H	-2.5118042492	-2.4012554734	-0.1884603536	 0.104626
H	-0.7807636981	-3.5480537926	-1.6088408595	 0.105886
H	-1.3359552554	-2.0512938536	-2.3448350151	 0.112253
H	 1.2669591394	-2.4522934547	-0.7760448318	 0.122653
H	 1.147090623	-2.1272052534	-2.5134787047	 0.123642
104.208	148.5587	293.9966	317.0918	352.8375	394.5297	424.584	451.3605	514.4456	609.2466	671.3004	743.1665	844.902	853.3724	894.145	919.2497	955.9209	1031.6209	1072.5601	1085.5489	1109.9487	1144.1765	1150.1107	1231.3909	1253.3496	1271.9228	1288.2077	1329.5826	1342.6914	1366.556	1375.4385	1377.559	1442.2939	1469.0631	1489.1177	1490.2915	1504.0512	1798.9273	2934.9318	3017.2767	3022.5038	3031.6966	3034.5262	3073.9999	3079.5078	3087.8243	3107.3743	3673.4682
OC1CCCCC1=O	O[C@H]1CCCCC1=O	
InChI=1S/C6H10O2/c7-5-3-1-2-4-6(5)8/h5,7H,1-4H2	InChI=1S/C6H10O2/c7-5-3-1-2-4-6(5)8/h5,7H,1-4H2/t5-/m0/s1
