15
gdb 9539	2.93769	1.97124	1.57393	1.8542	58.14	-0.2638	0.0104	0.2741	844.6813	0.118795	-436.923867	-436.91624	-436.915296	-436.955765	28.285	
O	-0.1295825825	 1.4799494683	-0.0658746099	-0.429153
C	 0.0216648349	 0.0694814799	-0.045218046	-0.13042
C	-1.3743689062	-0.5525390007	-0.044456722	 0.25642
O	-2.1034833267	-0.1341453737	-1.1635607361	-0.468312
C	-1.5398150467	-2.0537911989	 0.2624190709	-0.13339
O	-2.1428699608	-1.727857392	 1.5628012788	-0.254199
C	-2.0454312163	-0.3814021178	 1.3184420721	 0.406341
N	-2.3312572668	 0.6273522974	 2.0097320039	-0.569092
H	-0.6151831504	 1.7218041314	 0.7378735141	 0.306432
H	 0.5555767065	-0.2057777669	-0.9605912044	 0.120392
H	 0.6063185448	-0.2744205937	 0.8202388415	 0.102562
H	-1.8767609959	 0.799360024	-1.2846650332	 0.294721
H	-2.254095544	-2.5598521185	-0.3884586578	 0.139681
H	-0.6305669675	-2.6443892949	 0.3944688039	 0.124359
H	-2.7394946324	 0.3848493759	 2.9138313843	 0.233659
114.4888	127.4844	187.237	254.0634	312.2247	355.401	449.1932	466.4719	535.4751	604.9876	699.1519	756.1394	768.7044	864.4443	923.1767	940.6511	953.5803	1017.0632	1064.58	1070.7198	1142.638	1151.9532	1215.2295	1247.0022	1273.8098	1349.1544	1371.3895	1435.0638	1443.7672	1496.4186	1501.7483	1815.2175	3002.4848	3073.9892	3082.9952	3144.6036	3476.638	3712.8047	3742.9382
OCC1(O)COC1=N	OC[C@@]1(O)CO[C]1[NH]	
InChI=1S/C4H7NO3/c5-3-4(7,1-6)2-8-3/h5-7H,1-2H2	InChI=1S/C4H7NO3/c5-3-4(7,1-6)2-8-3/h5-7H,1-2H2/t4-/m1/s1
