17
gdb 90379	2.29967	1.56889	1.34732	4.0733	73.27	-0.2536	0.0136	0.2673	1038.978	0.13499	-417.971575	-417.962804	-417.96186	-418.004735	32.411	
C	 0.0149014166	 1.5203938653	 0.0356774218	-0.503761
C	-0.0243556678	 0.0242851345	-0.0576524422	 0.336953
C	-0.8827500454	-0.7988296932	 0.8392479039	-0.213298
C	-1.7081284778	-1.9100822215	 0.4331237787	 0.328308
N	-2.3844830513	-2.8126508287	 0.1778206736	-0.351926
N	 0.5937154432	-0.9084420068	 0.9779144102	-0.175856
C	 1.0427032657	-1.808992791	-0.1475909112	-0.221531
C	 0.5330199154	-0.796384405	-1.2143861088	 0.037584
O	-0.428576236	-1.1648808687	-2.1670802979	-0.420544
H	 0.9989483813	 1.901917203	-0.2549558786	 0.131129
H	-0.7327955943	 1.9625983382	-0.6316354867	 0.14367
H	-0.1923854063	 1.8568851491	 1.0551567872	 0.135797
H	-1.3121617769	-0.2495097787	 1.6730713651	 0.139262
H	 2.1274643113	-1.9198472238	-0.1151114942	 0.117709
H	 0.566324263	-2.7925438558	-0.1459517166	 0.137516
H	 1.376255695	-0.2666872731	-1.6791909975	 0.086143
H	-0.0217677558	-1.7505359737	-2.8139688968	 0.292844
116.2203	139.2286	166.8819	183.455	230.4608	249.2772	305.6642	385.6266	425.4754	485.5801	579.1292	581.1751	642.9985	753.3323	775.0546	847.3045	888.3302	953.2008	986.7633	1025.5372	1066.9565	1094.73	1101.1033	1150.4671	1190.9049	1202.754	1251.4129	1284.885	1317.4393	1336.425	1407.1417	1418.1569	1452.5128	1481.6529	1492.3532	1494.9926	2353.7957	3003.9952	3036.7325	3071.0659	3103.3763	3118.3707	3134.3573	3150.4544	3817.0428
CC12C(C#N)N1CC2O	C[C@]12[C@@H](C#N)N1C[C@H]2O	
InChI=1S/C6H8N2O/c1-6-4(2-7)8(6)3-5(6)9/h4-5,9H,3H2,1H3	InChI=1S/C6H8N2O/c1-6-4(2-7)8(6)3-5(6)9/h4-5,9H,3H2,1H3/t4-,5-,6-,8?/m1/s1
