13
gdb 5347	5.67925	1.54914	1.21714	4.5511	74.09	-0.2674	-0.0519	0.2156	914.1929	0.099	-324.413217	-324.407127	-324.406183	-324.443468	23.188	
N	 0.0177969772	-1.1618520997	-0.0029189313	-0.332725
C	 0.0021242347	-0.0042019621	 0.0031946961	 0.206165
C	-0.0172907684	 1.4263278265	 0.0106950812	 0.196071
C	-1.2405626937	 2.1103997858	 0.030666395	-0.185417
C	-1.2534004303	 3.4996634002	 0.0378748482	-0.089365
C	-0.0550896734	 4.2115846175	 0.0253081074	-0.107795
C	 1.1620968664	 3.5326142704	 0.0054413696	-0.089366
C	 1.1869645097	 2.1435147657	-0.0019304536	-0.185417
H	-2.1664536886	 1.5474787319	 0.0403123877	 0.124823
H	-2.2006182398	 4.027360532	 0.0533319158	 0.112931
H	-0.0698085409	 5.2961675271	 0.0310016525	 0.112341
H	 2.0946439541	 4.0859540938	-0.0043414119	 0.112931
H	 2.1277887231	 1.6060583509	-0.0173507365	 0.124823
148.5609	166.9737	395.923	408.6928	463.6666	565.4618	579.5676	635.4299	709.7279	770.4008	789.1744	867.7207	947.7299	966.8548	1003.4732	1013.4651	1049.4829	1103.5587	1186.8562	1200.9606	1221.0531	1324.4339	1351.0463	1473.8518	1522.431	1613.9592	1640.5767	2344.4105	3180.3115	3190.6375	3199.2882	3208.5313	3211.7314
N#CC1=CC=CC=C1	N#Cc1ccccc1	
InChI=1S/C7H5N/c8-6-7-4-2-1-3-5-7/h1-5H	InChI=1S/C7H5N/c8-6-7-4-2-1-3-5-7/h1-5H
