18
gdb 28875	2.2959	1.79403	1.01452	1.2669	84.07	-0.1872	0.018	0.2052	1147.6347	0.148904	-402.024891	-402.016394	-402.01545	-402.057257	33.604	
C	-0.0490807642	 1.5251637288	 0.033742054	-0.514804
C	-0.0059674047	 0.0188827255	 0.0162865815	 0.270584
C	 0.0797173105	-0.6540076728	-1.2125093676	 0.138729
N	 0.1745748322	 0.0342578156	-2.4270074907	-0.594156
C	 0.1287381235	-2.0587424564	-1.2180506143	 0.34124
O	 0.206037583	-2.6492693949	-2.4567317247	-0.465539
C	 0.0956719086	-2.7806741671	-0.0334229747	-0.259655
C	 0.0082588944	-2.1101171574	 1.1855891115	-0.117781
C	-0.042157375	-0.7218818829	 1.2007947473	-0.213768
H	 0.8056022959	 1.9569284558	-0.5011354081	 0.135016
H	-0.9562062481	 1.9172970634	-0.4481376393	 0.118033
H	-0.0371041174	 1.9065803853	 1.0574452854	 0.124062
H	-0.3395790812	 0.9027305764	-2.4585350187	 0.242348
H	-0.0290258803	-0.5494667906	-3.2260476769	 0.256171
H	 0.2051815473	-3.6049000701	-2.3479804531	 0.295576
H	 0.1342927991	-3.8666690044	-0.0677305757	 0.076806
H	-0.0170620861	-2.6722820528	 2.1121834853	 0.086617
H	-0.1078924775	-0.1927461716	 2.1463492488	 0.08052
143.0988	175.9217	235.8832	281.3322	296.1532	318.1014	327.5304	349.7034	489.2284	503.5196	531.9675	558.0934	570.1774	662.9941	694.9609	745.7308	774.3353	845.9807	855.137	910.3915	934.901	1022.2587	1057.802	1105.9207	1157.6537	1180.1807	1209.5532	1278.3531	1314.4105	1329.4076	1380.4656	1412.9768	1483.2382	1487.8069	1515.9	1535.5887	1625.3205	1644.5696	1665.1404	3004.0763	3056.693	3115.9264	3151.9759	3170.1204	3196.3504	3558.7379	3659.29	3836.6599
CC1=C(N)C(O)=CC=C1	Cc1c(N)c(O)ccc1	
InChI=1S/C7H9NO/c1-5-3-2-4-6(9)7(5)8/h2-4,9H,8H2,1H3	InChI=1S/C7H9NO/c1-5-3-2-4-6(9)7(5)8/h2-4,9H,8H2,1H3
