18
gdb 103252	3.9229	1.03997	1.00091	3.1102	72.55	-0.2455	0.0054	0.2509	1223.5577	0.146809	-439.071049	-439.0622	-439.061256	-439.104504	33.182	
C	 0.0004941124	 1.5641292136	 0.1297859463	-0.488933
C	 0.0209445019	 0.0508961135	 0.0648943336	 0.29517
C	-1.2548565697	-0.5683377865	-0.4959173666	-0.133349
O	-1.5205727804	-0.1729516804	-1.8329145536	-0.417809
C	 1.2646414931	-0.744883792	-0.2254074531	-0.047176
N	 2.4790581436	-0.1638660045	 0.3501582293	-0.34705
C	 1.9316566928	-0.1434994379	 1.6476630719	 0.409023
O	 2.3563248755	 0.2778528205	 2.6854855994	-0.343583
C	 0.6533698085	-0.8198645319	 1.1666412783	-0.281593
H	 0.9316757427	 1.9781459988	 0.5215190764	 0.135186
H	-0.1547307389	 1.9860528498	-0.8692889736	 0.11775
H	-0.8108733158	 1.9124081459	 0.7789168368	 0.126892
H	-1.1576463007	-1.6593111343	-0.5186238054	 0.11106
H	-2.1006219367	-0.3316261559	 0.1673510956	 0.099702
H	-1.8824824192	 0.7176474781	-1.8179659134	 0.289552
H	 1.3298940424	-1.5235778864	-0.9744466043	 0.118719
H	 2.9911625155	 0.6135373425	-0.0512105807	 0.242984
H	 0.1199636531	-1.6276115529	 1.6489792632	 0.113456
81.9008	129.0866	176.6147	194.0574	259.5328	265.4926	317.6355	346.0878	429.9826	506.4306	532.2581	622.43	696.7318	735.05	775.0086	843.9705	869.0218	932.2162	943.5386	978.2731	1024.9942	1026.2298	1056.2589	1078.9356	1109.6059	1139.5402	1153.8068	1200.9378	1268.3647	1304.5018	1329.6837	1383.0018	1389.6391	1414.5006	1427.6467	1488.4832	1499.9773	1507.2206	1895.1441	2991.0808	3033.0125	3068.4571	3091.6124	3126.8563	3198.6172	3214.9604	3548.9283	3834.4495
CC1(CO)C2NC(=O)C12	C[C@@]1(CO)[C@H]2NC(=O)[C@@H]12	
InChI=1S/C6H9NO2/c1-6(2-8)3-4(6)7-5(3)9/h3-4,8H,2H2,1H3,(H,7,9)	InChI=1S/C6H9NO2/c1-6(2-8)3-4(6)7-5(3)9/h3-4,8H,2H2,1H3,(H,7,9)/t3-,4-,6-/m0/s1
