22
gdb 116072	2.67493	1.13201	0.84021	3.2455	84.18	-0.2531	0.0249	0.278	1420.2195	0.195703	-404.380296	-404.371155	-404.370211	-404.414464	34.574	
C	-0.0244046632	 1.5661175686	 0.1320195636	-0.392645
C	-0.0210791977	 0.0387541942	 0.0111845712	-0.186266
C	 0.6936693903	-0.5048210389	-1.2347169793	 0.022496
C	 0.7829191238	-2.0352556532	-1.224915721	-0.221789
C	 1.5218104332	-2.5278985319	-2.4608156003	-0.084047
O	 0.9598094786	-2.0460073342	-3.690602877	-0.252224
C	 0.5957258579	-0.7302158074	-3.7804540799	 0.368028
N	 0.6517052353	-0.1053377814	-4.880594471	-0.501933
C	 0.0075475821	-0.0862312166	-2.5453748614	-0.266932
H	 0.9957103174	 1.965961649	 0.1214336997	 0.116722
H	-0.5754683176	 2.0414217245	-0.6850106196	 0.125465
H	-0.4938011791	 1.8804477963	 1.0691423101	 0.11521
H	 0.4624725569	-0.3894247202	 0.8987979721	 0.093121
H	-1.0547139966	-0.334194079	 0.0196838704	 0.095218
H	 1.7199301422	-0.1061258683	-1.2397563215	 0.07514
H	 1.309844425	-2.39447936	-0.3332066769	 0.10089
H	-0.2269812468	-2.4653361741	-1.2009348017	 0.105206
H	 2.5764242622	-2.2189989236	-2.4164116116	 0.105134
H	 1.4948412148	-3.6174326772	-2.5419526296	 0.116614
H	 1.0414200621	-0.7161245927	-5.6026800478	 0.215453
H	-1.0488052252	-0.3896852874	-2.494150711	 0.119366
H	 0.0231184642	 0.9923495234	-2.7038643375	 0.131774
82.2018	102.5175	118.0075	196.7009	212.6523	269.3604	348.5908	406.3665	445.7849	459.108	481.3326	564.8005	651.3128	772.4058	815.5671	837.2662	895.5875	918.4576	930.9669	947.1802	987.7329	1023.4933	1044.489	1057.3352	1103.3498	1128.3798	1141.9875	1174.3006	1201.9604	1258.9431	1275.1067	1296.4805	1309.683	1324.0575	1336.2981	1376.5039	1382.4891	1399.7559	1415.8293	1432.2079	1467.0968	1480.6393	1488.7644	1501.4862	1509.2462	1511.4658	1745.7883	2984.7561	3000.8816	3007.2409	3011.1223	3025.5741	3035.9411	3044.7951	3071.4688	3095.7167	3101.5402	3110.1772	3129.728	3453.7361
CCC1CCOC(=N)C1	CC[C@H]1CCO[C]([NH])C1	
InChI=1S/C7H13NO/c1-2-6-3-4-9-7(8)5-6/h6,8H,2-5H2,1H3	InChI=1S/C7H13NO/c1-2-6-3-4-9-7(8)5-6/h6,8H,2-5H2,1H3/t6-/m0/s1
