15
gdb 20373	6.22578	1.48209	1.32405	3.4169	66.45	-0.2527	0.0074	0.2601	918.3321	0.12172	-358.846983	-358.840397	-358.839453	-358.880003	24.086	
C	-0.2154917712	 1.3184067156	-0.2773546665	-0.283572
C	 1.2083273751	 1.072810985	 0.1682547965	-0.283635
C	 0.2270555239	-0.0655544475	 0.1111046085	 0.091642
N	-0.256201708	-0.6828085362	 1.3149805011	 0.035438
C	-0.5447760893	-0.1629344836	 2.5265838308	 0.008401
N	-0.9663472848	-1.1080074387	 3.3500957016	-0.278208
C	-0.9148043397	-2.2186725954	 2.5694725092	 0.037323
N	-0.4927350487	-2.0188701712	 1.3301617419	-0.251967
H	-0.8759063549	 1.8422508624	 0.4047685018	 0.130102
H	-0.4122920733	 1.5092754375	-1.3260919268	 0.132167
H	 2.0010384961	 1.0929506042	-0.5708082228	 0.132171
H	 1.5008791079	 1.432365327	 1.14855348	 0.130096
H	 0.3379006772	-0.8177800672	-0.6576831691	 0.13122
H	-0.4375249955	 0.8841858862	 2.764519127	 0.141275
H	-1.1942894247	-3.201589468	 2.9180081268	 0.127546
7.9498	160.5823	202.0787	418.3682	421.8324	626.4719	670.1422	695.0814	777.0399	816.3452	846.5932	902.5514	912.2877	950.0323	976.2001	1021.8255	1063.0823	1077.1829	1101.9702	1129.573	1166.5757	1196.8839	1210.2248	1237.7226	1245.5071	1318.4564	1388.1255	1420.6647	1467.5755	1470.6256	1504.6957	1547.3283	3139.7351	3142.5131	3215.7777	3221.0203	3236.4778	3258.8653	3262.9158
C1CC1N1C=NC=N1	C1CC1n1cncn1	
InChI=1S/C5H7N3/c1-2-5(1)8-4-6-3-7-8/h3-5H,1-2H2	InChI=1S/C5H7N3/c1-2-5(1)8-4-6-3-7-8/h3-5H,1-2H2
