17
gdb 35692	2.57329	1.44944	1.10101	4.7519	72.3	-0.2496	0.0174	0.2671	1108.8205	0.136765	-417.968997	-417.960869	-417.959925	-418.002398	29.7	
N	-0.0321830117	-1.179863276	-0.1044245307	-0.329683
C	-0.0480177609	-0.0283214225	-0.0008419878	 0.295615
C	-0.0531572589	 1.4191107092	 0.1179242038	-0.248789
C	-0.0902572448	 1.968844256	 1.5781862142	-0.172583
N	 1.3528454421	 2.2616863215	 1.4739281177	-0.343498
C	 1.3540128684	 2.1008269344	 0.0207590461	 0.283137
C	 2.5433237342	 1.4812100565	-0.7303082535	-0.127866
O	 2.5193354063	 2.5397018475	-1.7149940602	-0.268314
C	 1.5430464178	 3.2794732085	-0.9660325737	-0.133028
H	-0.80449166	 1.834555027	-0.5562708341	 0.131511
H	-0.7446360559	 2.8452675382	 1.6613455711	 0.109691
H	-0.3496212681	 1.2505155107	 2.3598698561	 0.131811
H	 1.6667019279	 3.158010042	 1.8292754523	 0.225379
H	 3.4677779154	 1.4805507175	-0.138584451	 0.110265
H	 2.3901154564	 0.4916281807	-1.1739880753	 0.13131
H	 0.6794029863	 3.5729462342	-1.5761607512	 0.107688
H	 1.9704359754	 4.1780269846	-0.4950405637	 0.097354
71.0418	87.5817	136.41	209.8375	271.1721	357.144	386.779	472.623	525.4718	591.3531	665.2371	807.8546	839.0934	875.8937	935.0545	945.1933	990.9394	1001.5083	1034.703	1035.8551	1064.3382	1118.4294	1145.4822	1150.3382	1156.3346	1192.3925	1217.4035	1238.1851	1299.8314	1327.9364	1335.7289	1371.8344	1396.6068	1499.4823	1521.6174	1525.8237	2355.5821	2982.1903	3020.9012	3023.5078	3042.7695	3079.7818	3091.8686	3099.8447	3533.732
N#CC1CNC11COC1	N#C[C@H]1CNC21COC2	
InChI=1S/C6H8N2O/c7-1-5-2-8-6(5)3-9-4-6/h5,8H,2-4H2	InChI=1S/C6H8N2O/c7-1-5-2-8-6(5)3-9-4-6/h5,8H,2-4H2/t5-/m0/s1
