23
gdb 98265	2.62178	0.97482	0.86857	2.7486	82.39	-0.2619	-0.0237	0.2382	1502.5363	0.202273	-425.461494	-425.450259	-425.449314	-425.498314	40.421	
C	 0.030733326	 1.5624662907	 0.065399848	-0.380647
C	-0.1355751868	 0.0764329293	-0.2500903773	-0.284376
C	-1.5579753391	-0.4206745662	-0.0832423238	 0.360881
O	-2.4961632958	 0.3364073178	 0.0674785599	-0.333138
C	-1.8229301272	-1.9304628594	-0.082949901	 0.04835
O	-3.1863507956	-2.1645272666	 0.1556665258	-0.441534
C	-1.3645958389	-2.6261268237	-1.3908409785	 0.015056
C	-1.5573389179	-4.143020624	-1.2641799787	-0.394092
C	-2.1135072608	-2.0706730769	-2.6095911907	-0.394763
H	 1.0638544683	 1.877494495	-0.1038304014	 0.114165
H	-0.6262923462	 2.168112846	-0.5627011458	 0.138374
H	-0.2274368393	 1.7734587163	 1.106686052	 0.130468
H	 0.1632023266	-0.1334932553	-1.28648676	 0.138523
H	 0.5252766289	-0.5445117196	 0.3679632841	 0.123775
H	-1.2239944766	-2.3504373013	 0.7454504634	 0.08179
H	-3.5833945084	-1.2806142267	 0.2285311938	 0.292529
H	-0.2907865968	-2.4271227213	-1.5064601021	 0.0704
H	-2.6114442824	-4.3800389866	-1.0958728851	 0.140877
H	-1.2306139672	-4.6532531794	-2.1758313162	 0.108052
H	-0.9820829108	-4.5492536429	-0.4252786766	 0.107425
H	-1.8102855387	-2.5924462335	-3.5221673125	 0.111903
H	-3.1909417002	-2.2046072802	-2.479842122	 0.135968
H	-1.9255135211	-1.0017741517	-2.7598026353	 0.110015
45.3274	70.6267	91.274	141.0421	194.7853	206.7541	228.0642	233.4167	275.1996	303.2834	373.5848	392.2633	413.0534	485.0121	537.6467	615.0596	698.8318	745.2479	835.9771	865.6527	928.6446	955.2522	969.6204	994.8681	1034.2962	1056.9525	1061.8745	1130.9105	1135.7923	1192.6194	1201.2868	1258.776	1285.9138	1322.4439	1346.6031	1370.8198	1374.4778	1396.3577	1414.9674	1419.5762	1440.6891	1450.9104	1483.2966	1493.8409	1495.8846	1499.897	1502.9843	1513.0411	1783.4835	2941.1268	3016.3159	3026.5412	3032.8351	3037.0197	3052.9022	3055.6457	3097.121	3100.2134	3117.9269	3122.5832	3122.8759	3133.381	3662.801
CCC(=O)C(O)C(C)C	CCC(=O)[C@@H](O)C(C)C	
InChI=1S/C7H14O2/c1-4-6(8)7(9)5(2)3/h5,7,9H,4H2,1-3H3	InChI=1S/C7H14O2/c1-4-6(8)7(9)5(2)3/h5,7,9H,4H2,1-3H3/t7-/m0/s1
