19
gdb 42884	2.2329	1.75931	1.52799	3.2095	74.6	-0.2244	-0.0274	0.1969	988.7486	0.161228	-423.029439	-423.02193	-423.020986	-423.061167	29.948	
O	 0.0371768593	 0.0159933292	 0.0890056715	-0.30526
C	-0.0163120874	 1.2091125008	 0.036507171	 0.389569
C	-1.1545674936	 2.2465919309	 0.1016306793	-0.130404
C	-0.0769042911	 3.261890465	 0.5979043817	-0.28261
C	 1.0562925325	 2.3493888543	 0.0345334204	 0.02025
O	 1.5753648486	 2.6722667469	-1.2381177561	-0.258865
C	 0.6859953577	 3.2409308844	-2.1924817747	-0.067797
C	-0.6105474727	 2.4574813964	-2.4335156936	-0.230068
C	-1.6729439893	 2.558708387	-1.3191758651	-0.212768
H	-1.9830352041	 2.0232300753	 0.777785653	 0.089657
H	-0.1385156697	 4.2783195882	 0.2075730652	 0.111458
H	-0.0259490908	 3.3060710972	 1.6883821672	 0.11395
H	 1.9232989383	 2.173864625	 0.6761214911	 0.102824
H	 0.4505363861	 4.2832995811	-1.9266549921	 0.091997
H	 1.2718549401	 3.269611386	-3.1156429414	 0.115292
H	-1.0523518696	 2.8276119075	-3.3660909857	 0.102518
H	-0.3502541795	 1.4066997689	-2.6104206642	 0.129037
H	-2.4860940145	 1.8641887403	-1.5546589269	 0.116099
H	-2.1082425404	 3.5661088158	-1.3151735106	 0.105121
117.0672	195.698	223.0612	289.2381	352.9639	376.5819	423.1925	478.9708	534.7483	622.8664	740.4821	760.0664	814.5035	844.4541	873.3291	888.172	925.1074	946.6912	1018.9674	1040.7805	1049.0681	1068.8867	1098.8168	1131.2304	1151.412	1184.4924	1203.7983	1236.4579	1257.3196	1261.6167	1311.8771	1314.4929	1362.459	1374.2061	1384.9493	1414.4081	1472.2263	1477.5515	1485.409	1511.294	1889.894	2984.6964	3024.8642	3031.7671	3069.2894	3073.6357	3079.5006	3085.5136	3086.6131	3091.7271	3134.3318
O=C1C2CC1OCCC2	O=C1[C@H]2C[C@@H]1OCCC2	
InChI=1S/C7H10O2/c8-7-5-2-1-3-9-6(7)4-5/h5-6H,1-4H2	InChI=1S/C7H10O2/c8-7-5-2-1-3-9-6(7)4-5/h5-6H,1-4H2/t5-,6+/m1/s1
