22
gdb 106703	2.54836	1.41302	1.16624	1.685	86.12	-0.2243	0.0843	0.3085	1195.2602	0.193718	-367.161842	-367.152794	-367.15185	-367.195357	35.145	
C	 0.1594915741	 1.531819168	 0.1967090889	-0.371738
C	-0.1278869465	 0.0408624427	-0.0325325184	-0.293407
C	 0.5393620074	-0.50619642	-1.2672234982	 0.301422
C	 1.9961052403	-0.9418400999	-1.3111278471	-0.376959
C	 0.9311047703	-1.9237727741	-1.7016876497	 0.291784
C	 0.7321911828	-3.2764792377	-1.0887755174	-0.495497
N	 0.5714883599	-1.6746999917	-3.123632824	-0.154798
C	-0.8669286964	-1.3398122111	-3.1183435825	-0.24685
C	 0.0896991439	-0.2930424124	-2.6920970251	-0.098569
H	 1.2337262317	 1.7116977403	 0.3077991774	 0.119643
H	-0.1924425378	 2.1356357062	-0.6465409856	 0.118119
H	-0.3406398774	 1.8971392761	 1.099067679	 0.110274
H	 0.2079861401	-0.5329204863	 0.8405773216	 0.0956
H	-1.2124550003	-0.1149672144	-0.1023993428	 0.09576
H	 2.6712520649	-0.5514772098	-2.0682829155	 0.110598
H	 2.4538185659	-1.1125962656	-0.3401642243	 0.10519
H	 0.9275818076	-3.2516897609	-0.0124727921	 0.1209
H	-0.2902953246	-3.6404918087	-1.2379028075	 0.118356
H	 1.4161756448	-4.0057593227	-1.5376638713	 0.131995
H	-1.2874793748	-1.2638604924	-4.1168593167	 0.116368
H	-1.5164295613	-1.8083824708	-2.3823474871	 0.110399
H	 0.3017900555	 0.5775964052	-3.3065643419	 0.09141
70.7868	131.7499	190.7758	209.5013	243.1236	249.7693	285.06	393.7146	413.6319	516.4142	562.8821	582.0365	711.0036	768.4776	774.849	781.8718	822.7166	857.6659	945.3421	962.1011	984.749	993.8339	1009.697	1054.5019	1057.8089	1070.1736	1093.8328	1105.4942	1114.08	1154.6077	1185.1164	1215.6708	1238.6474	1284.437	1304.4906	1352.8345	1367.78	1398.4484	1408.5798	1425.4649	1478.8176	1481.7973	1493.6237	1494.2866	1497.8525	1504.1495	1508.0592	3014.4772	3028.2397	3033.2468	3047.8987	3088.718	3101.7995	3104.7793	3105.844	3106.6964	3108.2102	3148.4338	3193.715	3198.0779
CCC12CC1(C)N1CC21	CC[C@@]12C[C@]1(C)N1C[C@@H]21	
InChI=1S/C8H13N/c1-3-8-5-7(8,2)9-4-6(8)9/h6H,3-5H2,1-2H3	InChI=1S/C8H13N/c1-3-8-5-7(8,2)9-4-6(8)9/h6H,3-5H2,1-2H3/t6-,7-,8-,9?/m0/s1
