18
gdb 11600	6.13494	0.89169	0.84107	2.5793	69.32	-0.2294	0.0339	0.2633	1365.3827	0.152797	-381.123914	-381.114634	-381.11369	-381.160582	31.736	
N	-0.130932935	 1.3110181777	 0.0188236884	-0.523268
C	 0.0614422947	-0.0321853925	-0.1317734712	 0.410988
O	 1.1690413925	-0.5172963932	-0.2666296118	-0.361712
C	-1.2175240849	-0.864322921	-0.1396344032	-0.309834
C	-0.959153606	-2.3142113188	 0.267233635	-0.13589
N	-2.1928593988	-3.0896953344	 0.184439716	-0.068117
C	-2.4597352827	-3.7302802141	-1.1014218716	-0.22338
C	-2.0295184696	-4.5342199608	 0.0752892778	-0.219345
H	 0.6731463771	 1.9159867421	-0.0098770493	 0.259359
H	-1.0421922306	 1.7165659289	 0.1358523323	 0.257664
H	-1.9792104006	-0.4200306512	 0.5102611673	 0.112426
H	-1.6269513482	-0.8380949642	-1.1585337383	 0.128944
H	-0.15177136	-2.7240566129	-0.3597715291	 0.10867
H	-0.6049765193	-2.3500486656	 1.3035927154	 0.110137
H	-3.4965454994	-3.7339991178	-1.4254351362	 0.11416
H	-1.7314133927	-3.5947069431	-1.900088134	 0.111324
H	-1.0164224337	-4.9332073463	 0.0582101915	 0.112592
H	-2.7467516627	-5.1348839427	 0.6274382608	 0.115283
12.1629	63.0154	63.7478	116.113	135.4763	272.4743	331.6521	405.7511	474.1517	528.0135	601.1479	666.1486	772.2001	799.2881	836.97	870.23	913.2778	1017.2458	1025.7643	1064.2852	1084.9249	1100.5452	1112.8689	1117.9099	1166.1045	1179.177	1235.8925	1260.0031	1307.8918	1323.805	1369.2308	1410.1305	1466.0548	1488.4049	1498.5529	1521.2784	1615.4604	1793.2836	2983.5575	3026.9127	3058.6376	3079.3636	3091.098	3096.7659	3174.9553	3189.4723	3604.9973	3743.6975
NC(=O)CCN1CC1	NC(=O)CCN1CC1	
InChI=1S/C5H10N2O/c6-5(8)1-2-7-3-4-7/h1-4H2,(H2,6,8)	InChI=1S/C5H10N2O/c6-5(8)1-2-7-3-4-7/h1-4H2,(H2,6,8)
