23
gdb 104450	2.94186	1.17206	1.07018	1.8196	80.78	-0.2543	0.0754	0.3297	1268.4611	0.20652	-425.435578	-425.426294	-425.42535	-425.469154	35.941	
C	-0.0855535328	 1.5430878013	 0.1537063361	-0.399792
C	 0.0371984889	 0.0246272103	-0.0270050798	-0.211523
C	 0.7194783831	-0.4540556552	-1.3254556313	 0.238385
C	-0.0261616613	 0.0265737645	-2.5810071232	-0.420775
C	 2.1940381149	 0.0037322994	-1.372468358	-0.10443
O	 2.9028107205	-0.6254470279	-2.4334458588	-0.239938
C	 2.8516722873	-2.0209005169	-2.3164133275	 0.013822
O	 1.5425580246	-2.5193623537	-2.3747991652	-0.240185
C	 0.7564117929	-1.9987833669	-1.3106518847	-0.107834
H	 0.8921347007	 2.0354560016	 0.1653582692	 0.12026
H	-0.6808671182	 2.001912182	-0.6408678771	 0.12357
H	-0.5758265831	 1.7725456979	 1.1047450163	 0.116369
H	 0.5846236775	-0.3899729594	 0.8302301044	 0.092915
H	-0.9665285003	-0.4197958087	 0.0144446002	 0.095909
H	 0.0087188027	 1.1157795441	-2.6780151185	 0.110749
H	 0.4228396024	-0.404735107	-3.4776981321	 0.138524
H	-1.0792400715	-0.2748051171	-2.5471540555	 0.105575
H	 2.27866038	 1.0790315764	-1.5481978334	 0.109158
H	 2.6849683435	-0.2268215958	-0.4105172015	 0.081998
H	 3.394716209	-2.436997953	-3.1672267674	 0.115864
H	 3.3274205374	-2.3336643721	-1.3653390237	 0.071889
H	 1.1607323504	-2.3512007557	-0.3458439989	 0.082119
H	-0.2469748084	-2.4182887279	-1.4320183795	 0.107374
85.2631	154.5417	189.7518	212.1323	238.4613	272.0714	315.6473	344.8775	385.6261	415.4303	448.2954	491.1886	536.228	656.7021	781.4596	787.6768	892.9337	942.3687	949.2724	951.2966	982.5561	983.8609	1022.983	1059.9746	1063.3283	1086.0556	1135.1029	1192.0821	1202.9574	1235.4769	1242.0408	1268.3906	1310.2586	1339.0329	1361.541	1371.06	1379.2458	1398.7464	1416.0443	1427.8337	1442.7782	1480.8412	1489.0608	1490.603	1500.0077	1502.9413	1507.2526	1513.1161	1514.4947	2904.6258	2949.0649	2959.8664	3008.567	3036.2342	3039.8271	3042.1068	3079.6156	3093.4727	3099.6364	3106.0405	3113.5491	3114.3646	3133.8736
CCC1(C)COCOC1	CCC1(C)COCOC1	
InChI=1S/C7H14O2/c1-3-7(2)4-8-6-9-5-7/h3-6H2,1-2H3	InChI=1S/C7H14O2/c1-3-7(2)4-8-6-9-5-7/h3-6H2,1-2H3
