18
gdb 127408	2.97203	1.70097	1.11609	1.844	79.37	-0.183	0.0313	0.2143	1072.164	0.151123	-398.143999	-398.136213	-398.135269	-398.176094	29.72	
C	-0.1140472549	 1.4880159133	 0.0250212274	-0.332793
N	 0.140482962	 0.0628607943	 0.0305211113	-0.15561
C	 0.7508148489	-0.5284471668	-1.1787964127	-0.157692
C	 1.3229622155	-1.9149465807	-0.7370224984	-0.375991
C	 1.5207033198	-1.6766577444	 0.7318939135	 0.191245
C	 2.0607909835	-2.1274036397	 1.9100911503	-0.210382
N	 1.6618066093	-1.2398885156	 2.867657092	-0.200106
N	 0.8913447459	-0.2129684195	 2.3834708848	-0.378229
C	 0.8146230853	-0.5149371648	 1.0998247399	 0.426807
H	 0.8004928191	 2.0841389804	-0.1400578682	 0.102415
H	-0.8315933355	 1.7344085918	-0.763887665	 0.117233
H	-0.5430698094	 1.7785309624	 0.9865349092	 0.148559
H	 0.0126502427	-0.6096994891	-1.9823875336	 0.105406
H	 1.5731483824	 0.1135040156	-1.5393684314	 0.092013
H	 0.5913880032	-2.7109503794	-0.9247472644	 0.116934
H	 2.2283241029	-2.1666842344	-1.2959740244	 0.112606
H	 2.6801658758	-2.974692628	 2.1604159747	 0.129748
H	 1.9279929833	-1.2243482254	 3.8357169049	 0.267836
135.6964	154.839	205.5329	236.2663	262.5345	324.7471	377.5108	505.7848	589.5613	623.4251	647.4733	721.1323	752.6009	783.4929	840.6409	938.1245	963.7444	1004.045	1042.1241	1073.6663	1095.2993	1148.3105	1164.5701	1192.0949	1211.1615	1238.0019	1269.6134	1294.2441	1330.259	1370.3597	1449.7896	1464.0241	1468.545	1487.6309	1494.0034	1498.9712	1511.856	1572.5312	1656.4472	2950.4897	2955.0676	3023.0592	3069.9816	3073.1841	3084.7611	3127.0326	3254.5994	3696.6635
CN1CCC2=CNN=C12	CN1CCc2c[nH]nc12	
InChI=1S/C6H9N3/c1-9-3-2-5-4-7-8-6(5)9/h4H,2-3H2,1H3,(H,7,8)	InChI=1S/C6H9N3/c1-9-3-2-5-4-7-8-6(5)9/h4H,2-3H2,1H3,(H,7,8)
