14
gdb 124122	2.4063	1.08517	0.75146	4.8763	82.53	-0.215	-0.0624	0.1526	1436.2343	0.097928	-432.856644	-432.846493	-432.845549	-432.893349	33.659	
C	 0.0102267059	 1.283421609	-0.0072480405	-0.508156
C	 0.0497114764	-0.1699810399	-0.0342788266	 0.181459
C	 0.0684254368	-1.3786990882	-0.0621203027	-0.036378
C	 0.1400272754	-2.7857069151	-0.0875548714	-0.05188
C	 1.3711844044	-3.6219871496	 0.0041240406	 0.380077
N	 2.5190472868	-2.8933447863	 0.098310512	-0.573515
O	 1.3329995186	-4.8383363153	-0.0201350622	-0.387211
N	-1.9075233501	-4.1077170009	-0.2969614654	-0.198892
N	-0.9731675728	-3.4814768471	-0.2008929725	 0.198012
H	 0.6554925844	 1.7190641168	-0.778455647	 0.153557
H	-1.0090633419	 1.6395196605	-0.1930610776	 0.161225
H	 0.3268908797	 1.6822424712	 0.9632002447	 0.152273
H	 2.4938069656	-1.8966613883	 0.2297038235	 0.263551
H	 3.3745923205	-3.3952765768	 0.264510115	 0.265877
31.0902	78.4346	80.3259	130.2766	145.6544	171.7053	261.4843	275.8132	392.2726	440.599	454.922	497.7539	527.7768	559.2428	572.2245	684.0384	756.8203	960.5331	1048.0767	1053.0001	1089.1386	1198.6057	1351.9342	1368.8755	1416.8804	1470.7778	1479.2271	1604.7698	1778.7102	2221.1814	2336.2171	3024.6061	3082.7307	3091.2982	3605.7477	3742.5634
CC#CC1=C(N)ON=N1	CC#C[C](C(=O)N)[N][N]	
InChI=1S/C5H5N3O/c1-2-3-4-5(6)9-8-7-4/h6H2,1H3	InChI=1S/C5H5N3O/c1-2-3-4(8-7)5(6)9/h1H3,(H2,6,9)
