19
gdb 112300	2.78884	1.34343	1.00857	4.472	75.52	-0.2604	0.0118	0.2722	1212.8215	0.160047	-423.069819	-423.061558	-423.060613	-423.102898	31.381	
C	-0.0123444288	 1.5417308724	-0.0762162877	-0.38606
C	 0.0060083299	 0.0108682126	-0.0531751894	-0.18622
C	-1.3800122699	-0.6029153659	 0.1056635453	 0.111844
O	-2.2224904948	-0.2028575012	-1.0006668018	-0.245451
C	-3.0337626857	-1.2230731964	-1.4217054938	 0.440476
O	-3.9551750842	-1.0407576089	-2.1629323498	-0.345483
C	-2.5550732184	-2.5049489103	-0.8165856563	-0.187775
C	-1.1084699976	-2.8348971434	-1.1440955732	-0.291322
C	-1.4444114168	-2.1255423275	 0.1309752877	-0.069809
H	 0.9990515933	 1.9426793677	-0.188391245	 0.114978
H	-0.6212118852	 1.9091597603	-0.9061214147	 0.143317
H	-0.4313339966	 1.9463134527	 0.851767814	 0.115381
H	 0.4632543561	-0.3766022017	-0.9703191763	 0.106018
H	 0.6221454478	-0.3486377115	 0.7808572129	 0.101879
H	-1.8471589265	-0.2079614516	 1.0189165954	 0.091031
H	-3.2756124114	-3.2938753922	-0.6527185558	 0.119597
H	-0.8332660587	-3.8807860872	-1.07335628	 0.127835
H	-0.6258584831	-2.2941947378	-1.9510779932	 0.13539
H	-1.3068877394	-2.62764102	 1.0804890316	 0.104375
95.4853	120.6949	153.4178	206.3431	237.589	320.3939	399.5565	474.1115	499.7542	618.3906	682.1113	767.518	781.2459	814.3949	834.8799	847.7024	921.9009	968.45	980.5371	989.9635	1007.3642	1059.8153	1072.934	1088.8705	1100.9229	1128.663	1164.799	1194.6703	1198.5953	1290.9755	1317.9066	1331.1246	1363.3981	1389.5795	1406.6125	1413.2606	1475.3614	1489.3784	1497.5483	1508.4538	1880.884	3006.0406	3031.1233	3039.3481	3072.8297	3106.1941	3126.6913	3138.1406	3190.9578	3217.309	3228.198
CCC1OC(=O)C2CC12	CC[C@H]1OC(=O)[C@H]2C[C@@H]12	
InChI=1S/C7H10O2/c1-2-6-4-3-5(4)7(8)9-6/h4-6H,2-3H2,1H3	InChI=1S/C7H10O2/c1-2-6-4-3-5(4)7(8)9-6/h4-6H,2-3H2,1H3/t4-,5+,6-/m1/s1
