22
gdb 107016	3.00727	1.22967	1.04746	2.5986	82.03	-0.2311	0.0694	0.3005	1262.8004	0.193806	-404.316054	-404.306439	-404.305495	-404.350287	36.483	
C	-0.2766219355	 1.4970122392	-0.0460445746	-0.375289
C	 0.0916317255	 0.0112252766	 0.0879706577	-0.328462
C	 0.8688357741	-0.4968341127	-1.0892778942	 0.346967
N	 0.2336649901	-0.7490059629	-2.4130251613	-0.398388
C	 0.9929866159	-1.8350533981	-1.7296014441	-0.139096
C	 2.4673777176	-1.6147577391	-2.0836688287	-0.018118
C	 2.9052314418	-1.7541614919	-3.5336591252	-0.404995
C	 2.321717757	-0.1540734512	-1.4742719352	 0.075185
O	 2.4917000907	 0.9466096308	-2.3253906779	-0.435811
H	 0.6184144108	 2.1078072643	-0.1968028468	 0.138572
H	-0.9348054458	 1.6622489552	-0.9050890843	 0.118902
H	-0.7916466816	 1.8570823902	 0.8494254088	 0.111412
H	 0.6882193064	-0.1387575255	 0.9970744559	 0.105502
H	-0.8171014587	-0.5927109804	 0.2151632762	 0.092884
H	-0.7583827422	-0.9147858353	-2.2475430317	 0.226765
H	 0.4960707338	-2.7640745125	-1.4735154812	 0.089422
H	 3.1072525151	-2.2139284468	-1.4273107595	 0.069455
H	 2.2154217957	-1.2336679175	-4.2026764091	 0.124652
H	 3.9037954509	-1.3311282682	-3.6802564467	 0.121194
H	 2.9354786607	-2.8073200787	-3.8336112783	 0.107063
H	 2.9757440125	 0.0009181662	-0.6124058607	 0.081646
H	 1.7710769353	 0.8818203684	-2.9675913893	 0.290539
79.8647	104.1379	160.2784	180.2721	199.0269	232.663	267.3583	329.5495	354.3898	459.4743	535.2014	570.4639	608.6967	677.1005	705.5342	782.7804	805.0071	860.4951	895.0587	917.8764	954.6533	984.5122	1013.0914	1028.8868	1070.5312	1091.4675	1105.4865	1132.1932	1141.1691	1146.8579	1201.8003	1230.5575	1257.1185	1280.4054	1323.3452	1345.6601	1351.011	1379.3994	1406.8019	1412.4279	1431.2929	1463.2936	1478.3515	1489.1026	1496.1566	1504.636	1507.7005	3011.9592	3037.1734	3039.3798	3045.8941	3049.7183	3083.2023	3101.2036	3108.3251	3116.1312	3122.771	3177.218	3476.8233	3748.1702
CCC12NC1C(C)C2O	CC[C@]12N[C@H]1[C@@H](C)[C@H]2O	
InChI=1S/C7H13NO/c1-3-7-5(8-7)4(2)6(7)9/h4-6,8-9H,3H2,1-2H3	InChI=1S/C7H13NO/c1-3-7-5(8-7)4(2)6(7)9/h4-6,8-9H,3H2,1-2H3/t4-,5+,6-,7+/m1/s1
