21
gdb 22533	1.81251	1.55282	1.09763	1.5032	81.81	-0.232	0.0053	0.2374	1236.4579	0.180886	-420.343204	-420.33305	-420.332106	-420.378477	37.681	
C	-0.3716858887	 2.3863352673	 0.7220648858	-0.380963
C	-0.0532958615	 0.8903953294	 0.5768284095	-0.256887
C	-1.248562361	 0.0246607242	 0.2242932422	 0.292759
N	-1.1142376265	-0.5995106998	-0.8864286315	-0.194777
O	-2.1827641657	-1.4581491272	-1.2127310633	-0.401889
C	-2.4006768294	-0.0039209854	 1.1926434687	 0.261196
C	-2.03167186	-0.371197306	 2.6214933819	-0.458708
C	-3.4944911039	 0.9979652991	 0.9630756749	-0.263634
N	-3.7479066909	-0.4315378062	 0.7928665838	-0.355136
H	 0.5413472111	 2.9462192366	 0.9457867999	 0.117281
H	-0.7943519802	 2.7888323747	-0.2039087704	 0.122514
H	-1.0864113269	 2.5755683502	 1.5277457558	 0.126098
H	 0.6946892844	 0.7394824166	-0.2056637325	 0.119914
H	 0.3875054269	 0.5232201264	 1.5121125528	 0.112275
H	-1.9032035576	-1.8016851117	-2.0672987047	 0.307888
H	-1.3426811284	 0.3511835466	 3.0699912753	 0.117749
H	-2.9407647372	-0.4049455296	 3.2261182286	 0.1332
H	-1.5634435268	-1.3604693216	 2.6617648924	 0.126364
H	-3.9785489195	 1.4637324772	 1.8187478446	 0.112018
H	-3.4291150707	 1.629756126	 0.0807137318	 0.11361
H	-3.7554387473	-0.6859986967	-0.1884685455	 0.249129
41.442	77.5254	162.9808	192.6146	223.0576	249.6318	280.6603	310.9504	350.6253	388.9689	391.0259	428.8116	440.0178	590.898	635.7677	698.2097	797.4022	837.4112	867.7934	931.9561	942.3231	974.5234	999.3879	1038.296	1065.2867	1088.5035	1098.021	1114.2006	1130.616	1215.8504	1276.6213	1287.1464	1322.8399	1348.5009	1361.6783	1393.6731	1408.8211	1412.9232	1475.4385	1491.9514	1495.1553	1497.6375	1507.2504	1512.1881	1717.5813	3032.1094	3039.2092	3041.2128	3093.1786	3095.8369	3103.1634	3109.5345	3120.375	3128.0469	3180.8478	3556.6454	3825.45
CCC(=NO)C1(C)CN1	CCC(=NO)[C@@]1(C)CN1	
InChI=1S/C6H12N2O/c1-3-5(8-9)6(2)4-7-6/h7,9H,3-4H2,1-2H3	InChI=1S/C6H12N2O/c1-3-5(8-9)6(2)4-7-6/h7,9H,3-4H2,1-2H3/t6-/m1/s1
