20
gdb 8085	3.4794	2.06883	1.68401	1.4464	73.99	-0.2341	0.0811	0.3152	861.5729	0.179172	-348.999305	-348.992246	-348.991302	-349.029902	29.065	
C	-0.0952241458	 1.5375657686	 0.1585585535	-0.478505
C	 0.0314696851	 0.0379608699	-0.035355154	 0.331926
C	 1.2194980439	-0.5240914976	-0.8780972107	-0.257064
C	 1.1168544971	-1.7822773406	 0.0195495677	 0.130241
C	 0.5664017478	-0.8514312968	 1.1348330302	-0.290576
O	 0.131720771	-2.6692455237	-0.4933429026	-0.274458
C	-1.1915202633	-2.1479630944	-0.413895292	-0.072192
C	-1.2547362863	-0.6147431677	-0.5864486518	-0.261147
H	 0.8485327404	 1.9704342481	 0.5080159685	 0.10871
H	-0.3645943152	 2.0371836399	-0.7796621623	 0.114004
H	-0.8700703371	 1.7796201734	 0.8956334801	 0.11208
H	 1.0711906446	-0.6716942832	-1.9513677827	 0.0916
H	 2.143447504	 0.034737196	-0.6997420047	 0.08933
H	 2.0075774409	-2.3839704044	 0.2094768743	 0.072386
H	 1.3864283281	-0.3591540483	 1.6650513854	 0.095934
H	-0.1370950892	-1.2596656916	 1.8649696239	 0.095888
H	-1.7742897515	-2.66335514	-1.182974052	 0.104979
H	-1.629489832	-2.4191162135	 0.5576245038	 0.093806
H	-2.1386300489	-0.238333413	-0.056727046	 0.092918
H	-1.3709996535	-0.3381035411	-1.6413433285	 0.100142
215.0953	223.8479	247.6339	296.4164	372.7016	432.3992	446.6315	464.4701	596.2458	649.8085	809.1474	827.7766	835.1178	862.3464	891.5024	925.5889	948.7824	964.8759	1009.6097	1018.8479	1046.4571	1066.1159	1077.0381	1153.059	1188.9805	1208.18	1220.9769	1248.4362	1253.6798	1276.2666	1282.325	1295.1153	1358.7901	1371.3929	1410.8674	1414.6953	1470.5429	1487.1757	1491.6066	1496.9082	1501.6456	1527.9641	2991.027	3016.9504	3022.5223	3045.7576	3058.689	3059.7966	3079.5296	3083.1202	3089.9325	3093.6699	3107.5182	3111.703
CC12CC(C1)OCC2	C[C@@]12C[C@@H](C1)OCC2	
InChI=1S/C7H12O/c1-7-2-3-8-6(4-7)5-7/h6H,2-5H2,1H3	InChI=1S/C7H12O/c1-7-2-3-8-6(4-7)5-7/h6H,2-5H2,1H3/t6-,7+
