18
gdb 101650	4.02162	0.7402	0.64859	3.706	69.23	-0.2815	0.0166	0.2981	1640.6433	0.146115	-476.2198	-476.209983	-476.209039	-476.254953	35.502	
O	 0.0870407197	 1.4082127252	-0.0607538375	-0.416689
C	 0.0879496733	 0.0043492065	 0.0529617044	-0.067985
C	-1.3338301526	-0.5559531732	 0.0141082727	 0.072678
O	-1.982525647	-0.095384783	-1.191834057	-0.442394
C	-1.3929176022	-2.0780326735	 0.1522053017	-0.242918
C	-2.8419732618	-2.6094097053	 0.2180655153	-0.018036
O	-3.5717104069	-2.375188073	-0.9667556316	-0.4307
C	-2.8332240266	-4.0622130306	 0.463569374	 0.291099
N	-2.7927060068	-5.194318494	 0.687129575	-0.31306
H	-0.5369725303	 1.6233788065	-0.765070108	 0.288646
H	 0.6829476289	-0.4719202318	-0.748601912	 0.082513
H	 0.5664808527	-0.2466498651	 1.0053650591	 0.12054
H	-1.9102333744	-0.0828175644	 0.8179027365	 0.11304
H	-1.5225215742	-0.4962589615	-1.9416175634	 0.293761
H	-0.8804934219	-2.5585450848	-0.6905207839	 0.121944
H	-0.8636372586	-2.3745100637	 1.0648019797	 0.132767
H	-3.339116507	-2.1447495099	 1.0872653922	 0.117207
H	-3.4248087942	-1.4433796142	-1.1894055674	 0.297585
65.8115	89.0811	115.4566	166.1694	201.7145	275.9196	305.584	316.7006	359.0558	402.9608	458.6197	468.9456	536.0379	590.8948	610.8217	657.9189	849.1101	861.0508	922.9167	982.4294	1043.8271	1065.7504	1088.0225	1099.8321	1131.7506	1186.2851	1214.0918	1265.1334	1302.1698	1325.5103	1344.6719	1377.4507	1387.3653	1419.283	1440.5947	1461.8189	1475.6877	1505.9283	2368.5599	2934.6661	2956.3017	3034.7017	3054.0678	3075.6224	3088.8219	3703.2207	3766.026	3782.9115
OCC(O)CC(O)C#N	OC[C@@H](O)C[C@@H](O)C#N	
InChI=1S/C5H9NO3/c6-2-4(8)1-5(9)3-7/h4-5,7-9H,1,3H2	InChI=1S/C5H9NO3/c6-2-4(8)1-5(9)3-7/h4-5,7-9H,1,3H2/t4-,5+/m1/s1
