21
gdb 121381	4.3304	0.85343	0.75565	1.4177	82.37	-0.2415	0.0166	0.2581	1560.9749	0.182359	-424.220557	-424.211329	-424.210385	-424.255296	33.922	
C	-0.0385152553	 1.5153244463	-0.0664286474	-0.384352
C	 0.0551547974	 0.0014554583	 0.0250741199	-0.037543
O	 0.6317781115	-0.4817664581	-1.1733745362	-0.258439
C	 0.7439608775	-1.896205271	-1.2520311753	 0.080711
C	 0.7943375456	-2.2524562891	-2.7409894995	-0.116139
O	 1.1179344196	-3.6175604988	-2.9204704302	-0.249201
C	 2.423040367	-3.9382314198	-2.4782431963	-0.111093
C	 2.7712167591	-3.3203740319	-1.1530799454	-0.079986
C	 1.9962360861	-2.404550682	-0.5780320448	-0.077755
H	 0.9556805383	 1.9547966879	-0.1871024082	 0.127317
H	-0.6487182726	 1.8094488501	-0.9250672523	 0.126777
H	-0.4922103118	 1.9249739528	 0.8410153607	 0.114328
H	 0.6599930671	-0.2893843594	 0.8990094089	 0.088216
H	-0.9450413691	-0.4417199595	 0.1660766996	 0.087954
H	-0.1486124797	-2.3590989486	-0.7985802527	 0.076518
H	-0.1780050741	-2.0935380747	-3.2131478394	 0.109119
H	 1.5289719243	-1.593283989	-3.2295188439	 0.100073
H	 2.4648077502	-5.0324650818	-2.4174138477	 0.117506
H	 3.1723506024	-3.6344099143	-3.2332964775	 0.10008
H	 3.698275976	-3.6504886196	-0.6908716537	 0.094178
H	 2.2599052904	-1.9715796875	 0.3828562614	 0.091732
61.068	76.0701	95.3017	197.5328	247.2067	286.3377	306.8282	333.5869	381.3152	485.2244	541.4601	556.3157	707.783	783.9853	820.2129	889.782	900.4221	928.5616	987.3022	990.1104	1029.196	1049.6938	1077.1585	1105.526	1132.9101	1142.341	1166.8252	1187.9275	1216.0734	1242.0136	1296.2604	1299.6608	1331.6991	1345.1056	1369.6512	1400.5827	1407.1232	1419.3801	1438.7587	1483.3181	1485.3908	1499.9803	1500.6724	1528.95	1721.6905	2932.4118	2954.3816	2963.0384	2987.723	2991.4247	3044.9781	3047.5968	3101.5525	3119.5478	3121.9135	3151.9462	3175.4172
CCOC1COCC=C1	CCO[C@H]1COCC=C1	
InChI=1S/C7H12O2/c1-2-9-7-4-3-5-8-6-7/h3-4,7H,2,5-6H2,1H3	InChI=1S/C7H12O2/c1-2-9-7-4-3-5-8-6-7/h3-4,7H,2,5-6H2,1H3/t7-/m1/s1
