17
gdb 25880	4.26746	1.00869	0.82467	5.2621	78.7	-0.2109	0.0016	0.2124	1359.8986	0.137259	-418.090525	-418.081741	-418.080797	-418.124295	32.601	
C	-0.1056561846	 1.4880676327	 0.0412632922	-0.501166
C	 0.0004237767	 0.0011790056	-0.038320889	 0.337756
C	-0.0214606691	-0.8549295639	-1.1103891674	-0.328829
C	 0.1096539815	-2.1887449193	-0.6180370218	 0.199351
C	 0.2178477543	-2.1010571402	 0.7570828305	-0.192574
N	 0.1493495802	-0.7783942022	 1.0934733601	-0.304512
C	 0.1447224778	-3.3892526485	-1.4754246265	 0.298583
N	 0.0430148528	-4.6022344221	-0.8172441731	-0.543304
O	 0.2866659317	-3.3295339845	-2.6842108519	-0.36517
H	 0.7801128107	 1.9416842569	 0.5032390394	 0.12823
H	-0.203524459	 1.9047571579	-0.9632981462	 0.145375
H	-0.9792653273	 1.8111650059	 0.6211157234	 0.127847
H	-0.1229016055	-0.585860699	-2.1496590844	 0.117238
H	 0.3776748793	-2.8574191055	 1.5089793201	 0.12375
H	 0.2210193194	-0.4194466679	 2.0304371327	 0.259182
H	-0.4542909339	-4.6350475359	 0.0580815644	 0.246329
H	-0.0944934349	-5.3946942401	-1.4266242326	 0.251913
66.2664	104.3193	149.4769	160.534	275.1292	325.2955	387.8159	420.8215	497.1145	519.8487	530.505	626.3175	647.1731	650.0898	709.2339	723.0205	793.5624	858.3627	969.0564	977.4116	1010.8596	1064.3889	1085.4928	1129.873	1147.8484	1257.001	1265.6507	1376.6412	1417.8413	1429.0834	1444.0576	1481.4994	1497.5147	1549.0823	1617.4345	1628.2735	1776.3503	3018.4968	3063.305	3128.1217	3256.8832	3266.2418	3577.8237	3667.6869	3701.0036
CC1=CC(=CN1)C(N)=O	Cc1cc(c[nH]1)C(=O)N	
InChI=1S/C6H8N2O/c1-4-2-5(3-8-4)6(7)9/h2-3,8H,1H3,(H2,7,9)	InChI=1S/C6H8N2O/c1-4-2-5(3-8-4)6(7)9/h2-3,8H,1H3,(H2,7,9)
