18
gdb 86359	2.92605	1.11208	0.99762	4.0685	72.22	-0.2672	0.0415	0.3087	1230.3323	0.14744	-439.082989	-439.074081	-439.073137	-439.117098	33.238	
O	-0.0795656975	 1.4084187535	 0.0054819649	-0.435381
C	 0.0217902366	-0.0144589844	 0.0220540794	 0.085127
C	 0.2469378283	-0.5558103443	 1.4607977302	-0.282718
C	-1.2990368037	-0.5460939423	 1.6515867236	 0.115339
O	-1.8014314925	 0.633666084	 2.2356238029	-0.435046
C	-1.4169979797	-0.5897319745	 0.09135989	-0.020252
C	-2.5676265508	 0.1620787381	-0.5804949925	-0.353168
C	-2.4864015861	 0.1023625872	-2.0382350482	 0.259031
N	-2.4034405838	 0.0368116974	-3.1891611388	-0.315625
H	 0.8071268134	 1.7765067322	 0.078133288	 0.295167
H	 0.6753484257	-0.3697520948	-0.7816148152	 0.085547
H	 0.6604533894	-1.5680914997	 1.4612793463	 0.111599
H	 0.8236132637	 0.0752139677	 2.1421754302	 0.102346
H	-1.7468580313	-1.3776971978	 2.1999322155	 0.08854
H	-1.3459628669	 1.3715256835	 1.8079932871	 0.286164
H	-1.3979341563	-1.6299866722	-0.2461072934	 0.100224
H	-3.5245574318	-0.2656739224	-0.261025352	 0.152795
H	-2.5676954165	 1.2094211487	-0.2699228179	 0.16031
44.6885	109.3992	146.939	224.7641	247.3613	323.5264	373.9735	387.9509	417.6287	451.7987	520.5662	567.5413	603.8975	758.8141	824.9146	865.2922	882.6923	896.4187	949.3109	952.7692	1016.1765	1023.9417	1111.5626	1122.5478	1141.4584	1178.4656	1209.8231	1229.451	1244.1705	1264.9896	1296.7664	1324.9692	1336.0668	1382.2311	1410.6002	1450.3573	1457.1603	1469.0982	2360.4922	3046.004	3056.7464	3060.0865	3073.8705	3091.9954	3114.318	3120.2204	3756.195	3818.5156
OC1CC(O)C1CC#N	O[C@H]1C[C@@H](O)[C@H]1CC#N	
InChI=1S/C6H9NO2/c7-2-1-4-5(8)3-6(4)9/h4-6,8-9H,1,3H2	InChI=1S/C6H9NO2/c7-2-1-4-5(8)3-6(4)9/h4-6,8-9H,1,3H2/t4-,5-,6+
