16
gdb 53914	2.03071	1.49541	1.03176	5.309	70.36	-0.262	-0.0043	0.2577	1171.3211	0.123713	-434.072213	-434.063149	-434.062204	-434.106842	32.295	
N	 0.7337849524	-0.0393972851	-0.5828504816	-0.506762
C	-0.2567735443	 0.2271906397	 0.2966941397	 0.391063
O	-0.2488095684	 1.1012112425	 1.1339605506	-0.348715
C	-1.4913435041	-0.710709046	 0.1325773883	-0.22761
C	-2.4585753488	-0.0796034042	-0.7750018922	 0.312163
N	-3.2245380387	 0.405116001	-1.4908924094	-0.315956
N	-1.1024073127	-2.0167917746	-0.3983702586	-0.082909
C	-0.8128249546	-3.0461097965	 0.6045357186	-0.22873
C	-2.0579768444	-3.1082914958	-0.206595253	-0.212475
H	 1.5702084858	 0.5196845237	-0.5627279733	 0.270432
H	 0.6504495277	-0.8252238353	-1.2075171779	 0.278326
H	-1.9524191961	-0.762942747	 1.1309761494	 0.133604
H	 0.0277387563	-3.6932480826	 0.3757712946	 0.132204
H	-0.9078634814	-2.7718686236	 1.6529037742	 0.133835
H	-2.9957500547	-2.8768975364	 0.2930098439	 0.134752
H	-2.1419608139	-3.7999301298	-1.0383387833	 0.136778
49.882	77.7266	136.1848	165.5207	189.8104	326.6466	343.4387	375.4097	433.1052	447.8311	543.4954	569.5694	633.8292	744.5329	782.0487	884.4255	894.6617	906.4048	979.6354	1037.12	1058.7808	1101.396	1117.941	1128.5728	1176.1702	1190.2913	1271.3466	1307.4881	1330.9506	1352.8698	1494.0435	1519.7099	1593.112	1828.5591	2362.9553	2992.5509	3110.7482	3116.8597	3197.6817	3211.8274	3588.1437	3730.4621
NC(=O)C(C#N)N1CC1	NC(=O)[C@@H](C#N)N1CC1	
InChI=1S/C5H7N3O/c6-3-4(5(7)9)8-1-2-8/h4H,1-2H2,(H2,7,9)	InChI=1S/C5H7N3O/c6-3-4(5(7)9)8-1-2-8/h4H,1-2H2,(H2,7,9)/t4-/m1/s1
