18
gdb 27902	1.81566	1.8156	0.91032	1.0027	86.7	-0.1817	0.0393	0.221	1250.3542	0.150276	-398.1987	-398.190046	-398.189102	-398.231059	35.04	
N	-0.0160024555	 1.3992515573	 0.1828267384	-0.593605
C	 0.0020477021	 0.0058730029	 0.0436313351	 0.352746
C	-1.1990386889	-0.7088346236	 0.012275247	-0.298586
C	-1.1810197504	-2.1048467112	-0.0621421844	 0.354591
N	-2.3830631977	-2.8156190703	-0.1551474919	-0.593186
C	 0.039312517	-2.7861548967	-0.1012881932	-0.300603
C	 1.2410185543	-2.0719104176	-0.0752157556	 0.354617
N	 2.4608872044	-2.7496468878	-0.1816784411	-0.593233
C	 1.22170727	-0.6759304463	-0.000727357	-0.298519
H	 0.8071619597	 1.859076176	-0.1797021081	 0.240908
H	-0.8549797532	 1.8368826994	-0.1708221319	 0.240913
H	-2.1468450519	-0.1794222624	 0.0465518743	 0.057137
H	-3.1753838249	-2.3451100044	 0.2582822455	 0.240831
H	-2.3243499909	-3.7718164422	 0.1644543925	 0.240362
H	 0.053671315	-3.8701280559	-0.170174124	 0.057306
H	 2.4318695635	-3.7071754336	 0.1380426827	 0.240364
H	 3.2446287269	-2.2577695297	 0.2231460375	 0.240832
H	 2.1550447805	-0.1208329537	 0.0233926142	 0.057126
198.7767	223.2	223.8622	288.2246	293.518	300.5307	315.0626	316.4286	513.8724	522.3312	522.5221	579.9858	580.4379	608.0705	629.791	665.2314	688.3777	701.5136	776.242	777.7716	818.7841	1000.8651	1011.453	1011.969	1127.0562	1131.6014	1132.1317	1217.1484	1218.2592	1328.4682	1378.9991	1412.1663	1531.2791	1531.8613	1643.9136	1644.3191	1659.0541	1660.0739	1660.4166	3158.6718	3159.1668	3162.3633	3556.3132	3558.5798	3558.8207	3652.483	3655.6366	3655.8064
NC1=CC(N)=CC(N)=C1	Nc1cc(N)cc(N)c1	
InChI=1S/C6H9N3/c7-4-1-5(8)3-6(9)2-4/h1-3H,7-9H2	InChI=1S/C6H9N3/c7-4-1-5(8)3-6(9)2-4/h1-3H,7-9H2
