14
gdb 46652	2.43915	1.6007	1.42498	4.3265	65.85	-0.2635	-0.0481	0.2153	953.5706	0.101191	-436.694714	-436.687379	-436.686435	-436.726928	27.141	
O	 0.0127019898	 0.0344752684	 0.1817882559	-0.297455
C	-0.036434558	 1.2209263059	 0.0054374749	 0.39071
C	-1.2949585488	 2.0395278485	-0.3079741804	-0.203872
O	-0.8643459881	 3.3453229854	-0.691413579	-0.249907
C	 0.5139536313	 3.47145723	-0.5141965985	 0.102257
C	 1.0496338268	 3.4026228641	 0.9015347567	-0.243351
C	 0.1671188624	 3.4389367826	 2.0323111368	 0.318789
N	-0.553450628	 3.4771971853	 2.936334416	-0.336456
C	 1.1192360869	 2.1821504742	-0.0450454744	-0.224154
H	-1.8499356574	 1.5811108813	-1.1330387177	 0.150161
H	-1.9448363805	 2.0863321504	 0.573352834	 0.167732
H	 0.9789153988	 4.1429613704	-1.226060929	 0.135622
H	 2.0120556505	 3.8752252938	 1.0694085918	 0.153023
H	 2.0971989842	 1.8080043597	-0.3160374571	 0.136902
88.4483	130.2435	159.562	257.975	374.4567	440.0082	490.473	621.2548	631.4719	639.4207	691.9806	759.0759	781.4728	868.2758	930.9029	936.5525	1005.0165	1027.2488	1030.3243	1095.3391	1106.7629	1168.5852	1201.5589	1216.0816	1292.9115	1317.8342	1359.0179	1393.5819	1478.5601	1857.7363	2355.2366	3044.6932	3090.2589	3168.0771	3191.8944	3215.2405
O=C1COC2C(C#N)C12	O=C1CO[C@H]2[C@@H](C#N)[C@@H]12	
InChI=1S/C6H5NO2/c7-1-3-5-4(8)2-9-6(3)5/h3,5-6H,2H2	InChI=1S/C6H5NO2/c7-1-3-5-4(8)2-9-6(3)5/h3,5-6H,2H2/t3-,5-,6-/m0/s1
