20
gdb 122470	3.54803	0.69314	0.6165	5.0812	81.51	-0.2599	0.0296	0.2895	1816.9441	0.169769	-403.14147	-403.131484	-403.13054	-403.17772	34.889	
C	-0.0105756192	 1.345087942	-0.1918313422	-0.229202
O	-0.0410909684	-0.0116639933	 0.1800822285	-0.228332
C	-1.2904134318	-0.6180337551	-0.0528573969	-0.04442
C	-1.2009806692	-2.0784254241	 0.380019378	-0.236882
C	-2.5167769619	-2.8019624136	 0.2001517293	-0.00365
C	-2.9015197847	-3.3960111624	-1.122774259	-0.282035
C	-2.5727954167	-4.317971481	 0.0433321928	-0.188123
C	-1.3635629679	-5.0917206171	 0.0176935604	 0.288726
N	-0.3905084225	-5.7179292696	 0.0006189407	-0.34149
H	 0.9910097605	 1.7221733736	 0.027907478	 0.130156
H	-0.213385096	 1.4797925835	-1.266343194	 0.103819
H	-0.7464717588	 1.9406469194	 0.371924514	 0.103047
H	-2.0842410471	-0.096945921	 0.5122243104	 0.081881
H	-1.5629802352	-0.5510556251	-1.1205842201	 0.087641
H	-0.4119862373	-2.5729914951	-0.1959969496	 0.129975
H	-0.890961126	-2.1152644014	 1.4304840852	 0.121058
H	-3.3372766888	-2.4054000281	 0.7930388413	 0.102775
H	-3.9358793817	-3.3630586887	-1.4444309926	 0.129675
H	-2.1738108466	-3.3514638515	-1.9254187264	 0.141394
H	-3.4051932406	-4.8265450014	 0.5175566621	 0.133988
51.0145	73.5981	86.7195	122.0434	160.0637	212.2008	231.8731	304.4474	326.7607	416.9755	465.4947	555.6381	631.0467	770.4932	796.836	823.387	872.7475	938.8429	963.3311	995.1673	1057.6299	1076.7935	1078.0722	1123.95	1142.2089	1165.199	1175.0659	1195.6857	1225.135	1229.946	1250.1683	1304.8777	1315.3766	1374.5854	1415.5423	1430.8968	1481.5408	1483.3509	1485.7634	1493.4715	1505.0218	1531.7669	2351.9442	2938.6767	2966.2941	2969.963	3011.7007	3046.3654	3090.2069	3116.0155	3140.4119	3143.1229	3171.2174	3233.3678
COCCC1CC1C#N	COCC[C@H]1C[C@H]1C#N	
InChI=1S/C7H11NO/c1-9-3-2-6-4-7(6)5-8/h6-7H,2-4H2,1H3	InChI=1S/C7H11NO/c1-9-3-2-6-4-7(6)5-8/h6-7H,2-4H2,1H3/t6-,7-/m0/s1
