17
gdb 34251	4.19085	1.31749	1.19275	1.7447	79.76	-0.2244	0.0366	0.261	1053.6988	0.136753	-384.626814	-384.61964	-384.618695	-384.658169	29.094	
C	 0.0673422223	-1.1903917827	-0.0509686223	-0.384373
C	 0.0136796939	 0.012161091	-0.0112438823	 0.119178
C	-0.0535962654	 1.4306685528	 0.0470085992	 0.201458
C	-1.2197527879	 2.270330523	 0.5884647424	-0.296729
C	-0.7493340054	 3.4552293388	-0.3141676097	-0.091036
C	 0.2289341578	 4.3368684781	 0.4588764584	-0.078196
O	 1.2661093694	 3.4300168149	 0.8703746627	-0.265947
C	 1.1994444362	 2.3208911716	 0.0110044224	 0.061069
C	 0.1974424933	 2.4792918283	-1.0683943309	-0.176514
H	 0.1162837984	-2.2502855653	-0.0832933258	 0.18081
H	-2.1780681984	 1.8634868923	 0.259919167	 0.114294
H	-1.2458967014	 2.4465609404	 1.6687323573	 0.10607
H	-1.5136035753	 3.9888801589	-0.8761734729	 0.08305
H	 0.6507141546	 5.1350035893	-0.1702931271	 0.096343
H	-0.2079719331	 4.7849383442	 1.3567458576	 0.112504
H	 2.1506536735	 1.8293035885	-0.1492451836	 0.115457
H	 0.3442365475	 2.3509576957	-2.1322056224	 0.102563
134.8784	147.3203	244.6	377.5596	400.791	477.902	512.1926	559.1735	575.3887	650.6212	689.7693	713.6078	767.9276	842.6364	864.167	885.0983	901.2003	945.5661	963.2399	1007.9031	1019.897	1045.1668	1072.2263	1102.8996	1150.6005	1171.6967	1187.037	1230.3249	1232.1748	1262.0719	1284.8332	1306.8329	1363.8185	1413.6503	1492.4254	1515.8823	2227.3854	2993.3006	3048.7148	3080.6716	3115.1059	3134.4698	3200.2252	3210.6375	3503.9402
C#CC12CC3COC1C23	C#C[C@@]12C[C@H]3CO[C@@H]1[C@@H]23	
InChI=1S/C8H8O/c1-2-8-3-5-4-9-7(8)6(5)8/h1,5-7H,3-4H2	InChI=1S/C8H8O/c1-2-8-3-5-4-9-7(8)6(5)8/h1,5-7H,3-4H2/t5-,6-,7+,8-/m0/s1
