19
gdb 38708	2.71581	2.12448	1.59162	1.4887	78.92	-0.242	0.0174	0.2595	903.7735	0.162437	-385.878878	-385.872377	-385.871433	-385.909181	28.258	
C	-0.0190550507	 1.4924454976	 0.1013352251	-0.385606
C	 1.3486630024	 0.8278899139	-0.0255315782	-0.067479
C	 2.1541146007	 0.2287830573	 1.1337969082	-0.246103
C	 1.3806480108	-1.1119503163	 1.3087037048	 0.033004
O	 0.0282091602	-0.6603070537	 1.1854107314	-0.290972
C	 0.0749786254	 0.0125717081	-0.0666084476	 0.417654
C	-0.1335767135	-0.9754823721	-1.1842552302	-0.341778
C	 0.9000162213	-2.0679400059	-0.9352991961	-0.054129
C	 1.6323029683	-2.1041259386	 0.1826576244	-0.060885
H	-0.3640911501	 1.8338676576	 1.0717881572	 0.121364
H	-0.3261955181	 2.1115454818	-0.736381552	 0.112069
H	 1.8716817592	 1.0091994914	-0.9577284507	 0.089292
H	 3.2055095196	 0.0963864078	 0.8645731453	 0.100547
H	 2.1071561278	 0.8126529254	 2.0589150987	 0.103289
H	 1.5028456484	-1.5774485832	 2.2915935629	 0.075416
H	-1.151759736	-1.3875898799	-1.2058264995	 0.112588
H	 0.0417992109	-0.5094960153	-2.1620774195	 0.105211
H	 1.0478289608	-2.809343351	-1.7163112122	 0.089516
H	 2.4063496227	-2.8536585748	 0.3216997181	 0.087002
223.2748	281.1151	334.9939	378.1243	458.2661	492.1973	517.8828	627.1771	664.0008	702.116	788.0427	813.0795	845.0236	854.0394	888.976	902.5914	917.9959	946.8079	964.9043	985.4884	1019.1144	1031.0381	1043.6023	1078.6311	1097.3278	1099.1159	1151.4948	1188.5852	1201.7829	1237.9098	1245.9177	1276.9108	1314.6629	1330.0223	1358.1086	1392.8295	1410.3382	1470.1901	1478.456	1487.1784	1686.9932	3012.678	3046.6615	3050.6128	3070.9072	3100.5145	3122.1378	3151.8185	3170.6817	3176.1494	3213.3329
C1C2CC3OC12CC=C3	C1[C@H]2C[C@H]3O[C@@]12CC=C3	
InChI=1S/C8H10O/c1-2-7-4-6-5-8(6,3-1)9-7/h1-2,6-7H,3-5H2	InChI=1S/C8H10O/c1-2-7-4-6-5-8(6,3-1)9-7/h1-2,6-7H,3-5H2/t6-,7+,8+/m1/s1
