17
gdb 48997	2.63378	1.67763	1.29422	2.7754	74.53	-0.238	-0.0332	0.2048	1003.9814	0.13752	-417.993311	-417.985763	-417.984818	-418.025377	28.945	
O	-0.786655635	 0.7031956751	 0.6523899124	-0.254969
C	-0.0854466787	 1.1016997452	-0.2423325335	 0.128569
C	 1.1664596824	 1.9218898045	-0.0626309318	 0.117127
C	 1.5221664426	 2.1536154779	 1.4459059207	-0.242938
N	 2.5046393079	 1.0137327405	 1.3452782408	-0.355666
C	 2.4728680914	 1.132392999	-0.0338658585	 0.348841
N	 3.2470958882	 1.1269195105	-1.0339942351	-0.302241
C	 2.5087442308	 1.9019222814	-2.0678740048	-0.162869
C	 1.4882932142	 2.8081940828	-1.283022325	-0.325057
H	-0.3354897036	 0.8848464315	-1.3049182672	 0.083074
H	 2.0031093058	 3.1184987782	 1.6325727986	 0.116494
H	 0.7073151525	 1.960923413	 2.1432046647	 0.14527
H	 3.3921283879	 1.0260562512	 1.8341654316	 0.248772
H	 3.2191904266	 2.4994634613	-2.6456069158	 0.11648
H	 1.9998778903	 1.2336940036	-2.7751035321	 0.111259
H	 0.6095016063	 3.079083183	-1.8761183007	 0.109097
H	 1.9813652704	 3.7325655313	-0.9685268742	 0.118758
99.9749	142.7115	231.3304	268.0953	300.9063	333.5377	464.1187	514.9757	647.2459	660.971	698.5926	750.8695	818.2105	847.3393	891.8471	913.3564	915.9997	957.3083	999.4937	1004.3455	1072.3452	1134.7257	1140.0211	1187.9154	1196.9858	1222.0936	1269.1916	1289.4384	1305.8849	1321.2	1350.5257	1428.0912	1478.6566	1488.5302	1506.4626	1775.544	1818.9302	2880.9638	3022.2951	3054.6636	3056.9399	3087.6307	3106.456	3148.2169	3559.1915
O=CC12CNC1=NCC2	O=C[C@@]12CN[C]1[N]CC2	
InChI=1S/C6H8N2O/c9-4-6-1-2-7-5(6)8-3-6/h4H,1-3H2,(H,7,8)	InChI=1S/C6H8N2O/c9-4-6-1-2-7-5(6)8-3-6/h4H,1-3H2,(H,7,8)/t6-/m1/s1
