18
gdb 34822	4.80615	1.09036	1.00627	4.2893	82.13	-0.2873	0.0266	0.314	1195.0614	0.148723	-364.756519	-364.749004	-364.74806	-364.788361	29.853	
N	-0.1181127892	-1.1703164546	-0.1365621306	-0.336965
C	-0.058216428	-0.0178954193	-0.0574871054	 0.260792
C	 0.0000203403	 1.4325120507	 0.0254115815	-0.139051
C	 0.087191082	 2.1113534134	 1.4405158042	-0.128109
C	 1.5552978736	 1.592405484	 1.5353663355	-0.243543
C	 1.404560553	 2.1361627053	 0.0809773272	-0.128112
C	 0.6585157468	 3.3348143253	 0.6981953087	 0.460907
C	 0.0261229278	 4.5452072627	 0.1075302426	-0.376107
C	 1.1213231581	 4.6642839695	 1.1709241996	-0.382544
H	-0.7187395671	 1.8826698578	-0.6628397673	 0.117127
H	-0.6862344424	 2.0898251276	 2.2081177028	 0.091866
H	 2.220510049	 2.1569266641	 2.1902469485	 0.106616
H	 1.6885787368	 0.5147241858	 1.6448465179	 0.126105
H	 2.1475526109	 2.1431910445	-0.7163786506	 0.091866
H	 0.2806826788	 4.8271100825	-0.9094089254	 0.119638
H	-0.9872204836	 4.8031983774	 0.399097478	 0.119637
H	 0.8268669899	 5.0002201884	 2.1602354544	 0.119937
H	 2.0945118438	 5.0241078949	 0.8519794984	 0.119937
128.5127	137.5623	233.4272	256.6294	298.4384	420.4878	486.336	546.4625	583.2816	652.4202	747.6687	779.5045	814.149	883.7363	885.1283	899.6865	922.3088	949.7773	986.742	1019.548	1045.5957	1049.6905	1061.996	1075.5458	1086.8401	1116.4358	1156.9064	1169.8982	1180.6027	1193.3977	1198.7309	1236.5255	1241.1709	1356.4375	1415.099	1462.2543	1507.4619	1529.2126	2349.4093	3076.1944	3091.9275	3118.8944	3122.2287	3122.4193	3125.7222	3146.716	3199.59	3213.2946
N#CC1C2CC1C21CC1	N#C[C@H]1[C@H]2C[C@@H]1C12CC1	
InChI=1S/C8H9N/c9-4-5-6-3-7(5)8(6)1-2-8/h5-7H,1-3H2	InChI=1S/C8H9N/c9-4-5-6-3-7(5)8(6)1-2-8/h5-7H,1-3H2/t5-,6+,7-
