17
gdb 35342	3.8635	1.36953	1.24564	1.7475	79.98	-0.243	0.0154	0.2584	1033.3388	0.135214	-384.509037	-384.501838	-384.500894	-384.540347	29.605	
C	-0.6190999774	-1.2534028111	-0.3713947808	-0.455812
C	-0.313577196	-0.1098913802	-0.1586752518	 0.40205
C	 0.0044106691	 1.2872381387	 0.0483926808	-0.195078
O	-0.0079122476	 1.7018228594	 1.4882101273	-0.344131
C	 1.4194748581	 1.8119450943	 1.382221138	 0.421628
C	 2.7151286355	 2.6674454008	 1.4698602991	-0.299428
C	 2.9145872248	 1.5153170774	 0.3586033573	-0.10463
C	 2.3075705264	 0.5304657142	 1.3727591646	-0.274303
C	 1.4631805609	 1.8961951605	-0.1202271678	-0.080392
H	-0.8761755648	-2.2681134188	-0.5516268838	 0.204149
H	-0.7100019344	 1.9118799262	-0.4946055285	 0.122467
H	 2.6516770099	 3.692532152	 1.0996782511	 0.108736
H	 3.3513674449	 2.5823145669	 2.3556360485	 0.104323
H	 3.8171664099	 1.3810901835	-0.2384189029	 0.089977
H	 2.8892671823	 0.335416923	 2.2759159147	 0.093726
H	 1.8607211091	-0.3761566513	 0.9701999181	 0.121471
H	 1.3756003592	 2.8961294944	-0.5478895039	 0.085247
134.7551	144.6211	306.9503	338.4426	421.8178	466.0476	535.7957	545.2474	612.362	627.8959	672.1123	690.1015	731.8345	800.2978	838.9192	861.0129	902.9313	944.7819	951.2909	992.7173	1011.6081	1026.7405	1055.3256	1085.8676	1111.6587	1137.9787	1162.8919	1174.0522	1193.0169	1219.7239	1228.8055	1257.619	1321.7627	1379.8999	1494.2179	1536.4291	2230.4525	3053.0178	3068.2539	3079.3097	3090.034	3109.2145	3134.6833	3167.7626	3501.708
C#CC1OC23CC(C2)C13	C#C[C@H]1O[C@@]23C[C@@H](C2)[C@@H]13	
InChI=1S/C8H8O/c1-2-6-7-5-3-8(7,4-5)9-6/h1,5-7H,3-4H2	InChI=1S/C8H8O/c1-2-6-7-5-3-8(7,4-5)9-6/h1,5-7H,3-4H2/t5-,6-,7+,8-/m1/s1
