15
gdb 35296	3.29548	1.14303	0.98284	4.7336	77.91	-0.2509	-0.0024	0.2485	1190.253	0.112132	-379.59857	-379.590614	-379.58967	-379.6312	30.292	
C	-0.0340247787	-1.2126655713	-0.0930740979	-0.397105
C	 0.0090080717	-0.0127122491	-0.0258433214	 0.231142
C	 0.0402674098	 1.4093840194	 0.0410378761	 0.196779
C	 0.2795370685	 2.2989719902	-1.1601199277	-0.33056
C	 1.2100744573	 2.4063308849	 0.0124488047	-0.133475
C	 0.4972815892	 3.167828205	 1.1400000021	-0.148079
N	-0.5831569264	 2.1378027865	 1.1603531997	-0.356819
C	 1.2287459091	 3.2402602694	 2.4068997348	 0.31409
N	 1.8285024424	 3.3191700952	 3.391007088	-0.318995
H	-0.0647521374	-2.2732041203	-0.138965254	 0.19828
H	 0.694534325	 1.7983413689	-2.0282386176	 0.139923
H	-0.4236522315	 3.0986503332	-1.3833241599	 0.114006
H	 2.2707765557	 2.2057964454	-0.0343844088	 0.135643
H	 0.1766247587	 4.1810442517	 0.8677384679	 0.125404
H	-1.5116214636	 2.5022013609	 0.959864984	 0.229765
77.6842	160.9023	175.6208	208.2493	339.5427	417.9625	466.5559	494.0192	527.2576	553.6306	591.8041	630.0396	683.157	743.3898	815.2938	840.6777	919.3302	939.1968	958.8991	1001.44	1012.4393	1061.0421	1079.2732	1088.6576	1188.8405	1242.3099	1259.0268	1337.8334	1361.187	1392.6573	1478.4163	2239.3952	2363.6759	3030.715	3108.0564	3212.255	3229.0316	3488.5595	3502.122
C#CC12CC1C(N2)C#N	C#C[C@]12C[C@H]1[C@@H](N2)C#N	
InChI=1S/C7H6N2/c1-2-7-3-5(7)6(4-8)9-7/h1,5-6,9H,3H2	InChI=1S/C7H6N2/c1-2-7-3-5(7)6(4-8)9-7/h1,5-6,9H,3H2/t5-,6-,7-/m0/s1
