18
gdb 74557	3.73036	1.21762	1.17594	0.6806	72.52	-0.228	0.0192	0.2472	1123.9421	0.14613	-439.088449	-439.079689	-439.078745	-439.121477	33.067	
C	 0.025241642	 1.4422145828	 0.0576128728	-0.479448
C	 0.0208386004	-0.0387164722	-0.0875034236	 0.384672
N	-0.028785383	-0.7064760756	-1.174124803	-0.302172
C	-0.0407688496	-2.0986259146	-0.8022405104	-0.115962
C	 0.0376209735	-2.110388212	 0.7237036499	 0.015416
O	 0.078612648	-0.7417337475	 1.0881151345	-0.243021
C	-1.2042974684	-2.6138889462	 0.0472850019	 0.32286
C	-2.5474266004	-1.9348428111	 0.1284490196	-0.454704
O	-1.2417465059	-4.0162488577	 0.1360204535	-0.457148
H	 0.8835958997	 1.7609010879	 0.6569629577	 0.147545
H	 0.0694614891	 1.904310629	-0.9280349006	 0.154548
H	-0.8774033975	 1.7810679991	 0.5765634651	 0.146468
H	 0.472921526	-2.7969542602	-1.4533268811	 0.099384
H	 0.6355126296	-2.7562179236	 1.3537774993	 0.119416
H	-2.4697969731	-0.8518839266	 0.0225145063	 0.133944
H	-3.1994971347	-2.2974958568	-0.6748789105	 0.11328
H	-3.0275479243	-2.1602076307	 1.0855073877	 0.129593
H	-1.5962839214	-4.3548871241	-0.694463299	 0.28533
125.2241	138.2306	151.0522	188.3178	268.415	298.1426	315.9876	384.8167	396.966	475.5091	511.0611	625.7554	695.4919	715.8298	770.464	857.8238	910.3937	915.4893	964.2222	998.2728	1024.3185	1054.5094	1063.3415	1069.8264	1109.8759	1125.3619	1192.2867	1233.1562	1284.2727	1297.2539	1335.9557	1413.428	1417.6499	1422.9321	1473.8686	1477.8024	1483.8552	1497.5549	1708.1485	3034.9718	3049.2227	3097.8486	3105.8755	3140.5298	3165.3431	3173.5424	3199.6661	3783.8103
CC1=NC2C(O1)C2(C)O	CC1=N[C@H]2[C@@H](O1)[C@]2(C)O	
InChI=1S/C6H9NO2/c1-3-7-4-5(9-3)6(4,2)8/h4-5,8H,1-2H3	InChI=1S/C6H9NO2/c1-3-7-4-5(9-3)6(4,2)8/h4-5,8H,1-2H3/t4-,5+,6+/m0/s1
