24
gdb 6540	2.57342	1.77311	1.54837	0.1178	84.12	-0.262	0.0775	0.3395	1029.1931	0.221507	-314.268767	-314.259018	-314.258074	-314.302225	38.391	
C	 0.0762007778	 1.5406861232	 0.1760175211	-0.425809
C	 0.0040599797	 0.0101071414	 0.0032041577	 0.20147
C	 0.6407752484	-0.640746236	 1.2497182358	-0.401001
C	-1.4884587022	-0.3768644859	-0.0676705615	-0.412054
C	 0.743491756	-0.4859369452	-1.2670513794	 0.392445
C	 0.5151704328	-1.9468807003	-1.6360657357	-0.470952
C	 0.9608560881	 0.4348870226	-2.4481220055	-0.318569
C	 2.1279472009	 0.0390704789	-1.5745561164	-0.312506
H	 1.1036972698	 1.9161102273	 0.1834631862	 0.11181
H	-0.4748447137	 2.0677552813	-0.6083390458	 0.113429
H	-0.375985294	 1.8210075681	 1.1330209554	 0.108808
H	 0.1181754503	-0.3243230379	 2.1590314451	 0.104343
H	 0.5951814845	-1.7329945427	 1.2109742041	 0.109785
H	 1.6923667114	-0.3529555621	 1.3491492171	 0.110501
H	-1.9510323526	 0.0055015588	-0.9841215512	 0.110907
H	-1.6348276207	-1.4601789856	-0.0418871104	 0.111522
H	-2.0321434037	 0.0470784337	 0.7835477876	 0.104868
H	-0.523355715	-2.1388440122	-1.9232471167	 0.116543
H	 1.1437177716	-2.2259812565	-2.4874155034	 0.108881
H	 0.7654279218	-2.6249413997	-0.8134517012	 0.114284
H	 0.8923760109	 0.0041939003	-3.4419229121	 0.102217
H	 0.6217713425	 1.4621413177	-2.395159701	 0.107854
H	 2.5590974735	 0.8011431624	-0.9350757713	 0.107437
H	 2.8583737018	-0.6589483918	-1.9705263084	 0.103788
50.0481	196.015	219.2635	251.3976	264.0523	277.0932	301.2105	317.0562	365.4034	376.2331	380.9259	428.3929	449.7261	502.4393	617.1708	787.7842	804.1563	871.1023	904.4487	920.8917	932.3304	937.8059	951.8063	957.0066	1024.1484	1042.9148	1050.3578	1074.5766	1079.5408	1123.0001	1187.0639	1214.1207	1224.2463	1238.3647	1308.3548	1334.6293	1395.6501	1399.3082	1417.4878	1432.0195	1465.1179	1481.2954	1485.1722	1488.0234	1496.8237	1501.2961	1508.0006	1513.3043	1517.5017	1522.4535	3027.7494	3029.7737	3034.6072	3039.9566	3091.8374	3093.2038	3097.0984	3098.2754	3101.6884	3106.5025	3109.939	3110.6404	3132.0252	3136.6505	3208.31	3223.6391
CC(C)(C)C1(C)CC1	CC(C)(C)C1(C)CC1	
InChI=1S/C8H16/c1-7(2,3)8(4)5-6-8/h5-6H2,1-4H3	InChI=1S/C8H16/c1-7(2,3)8(4)5-6-8/h5-6H2,1-4H3
