17
gdb 49664	2.78913	1.66109	1.5667	5.0576	71.94	-0.2351	0.0288	0.2638	929.0824	0.138176	-417.978347	-417.971328	-417.970384	-418.009781	27.734	
O	 0.298013825	 0.1695372585	-0.5620839515	-0.317422
C	 0.232392683	 1.3435975141	-0.2884679182	 0.175028
N	 1.2349195371	 2.0405433898	 0.3653921837	-0.059049
C	 2.6552047078	 1.9974039713	 0.1499968262	-0.044926
C	 3.1756344021	 1.667785094	-1.2523212699	-0.245454
C	 2.6869801045	 2.7969912343	-2.1591249902	-0.036339
N	 1.2231888563	 2.8982918411	-2.2981982267	-0.322767
C	 1.9186505081	 3.7875618564	-1.352152944	-0.049898
C	 1.8748227812	 3.3021097249	 0.0854620868	-0.061379
H	-0.6752722082	 1.9576198716	-0.420694507	 0.07892
H	 3.2584367446	 1.7186488727	 1.0103608323	 0.102309
H	 4.2701939328	 1.6601064001	-1.235826916	 0.106858
H	 2.8306116143	 0.6863668908	-1.5882321511	 0.150635
H	 3.3031246266	 3.1010029709	-2.9997966031	 0.094372
H	 0.9870405725	 3.4032983583	-3.1485858685	 0.237268
H	 1.9518579586	 4.8546289972	-1.5404833312	 0.092148
H	 1.8822704137	 4.038562564	 0.8835679285	 0.099695
114.6231	146.7934	270.0813	320.379	349.1626	425.5406	541.485	634.3996	703.7274	737.3875	766.7655	829.6589	843.9639	858.8678	896.8949	916.625	953.9977	997.0855	1027.4766	1034.6783	1054.9392	1073.9629	1094.7563	1126.4847	1145.5958	1163.7593	1218.1767	1230.6812	1311.545	1315.6614	1344.3311	1370.6948	1417.9794	1422.9458	1446.4816	1471.5738	1790.4818	2980.0315	3058.858	3110.4502	3139.4036	3153.9359	3155.5627	3180.9526	3503.2955
O=CN1C2CC3NC3C12	O=CN1[C@H]2C[C@H]3N[C@H]3[C@@H]12	
InChI=1S/C6H8N2O/c9-2-8-4-1-3-5(7-3)6(4)8/h2-7H,1H2	InChI=1S/C6H8N2O/c9-2-8-4-1-3-5(7-3)6(4)8/h2-7H,1H2/t3-,4+,5-,6+,8?/m1/s1
