18
gdb 41925	2.27995	2.23623	1.91725	2.2061	69.13	-0.2032	0.0614	0.2646	852.0754	0.151956	-439.055777	-439.049201	-439.048257	-439.086503	27.216	
C	-0.0102505255	 1.5349043275	-0.1035368324	-0.07342
O	 1.2872190057	 2.1262546611	 0.0490351984	-0.264346
C	 2.2163205028	 1.3976565526	 0.8022476419	 0.164893
C	 1.8577824653	 1.2208032047	 2.2853532867	-0.179995
N	 0.6044029454	 0.474446218	 2.4380466764	-0.315542
C	 0.3542136696	-0.5171245258	 1.4132465239	-0.057926
C	-0.0241972997	 0.0228976339	 0.0375513811	-0.140296
C	 1.3046581586	-0.664038406	 0.2531106861	 0.090009
O	 2.4638716648	 0.124813512	 0.228611008	-0.253346
H	-0.6961485091	 1.981000604	 0.6298620269	 0.109187
H	-0.3441592011	 1.8206418447	-1.1055155626	 0.110095
H	 3.154966197	 1.9500759374	 0.7182593677	 0.098189
H	 2.7231998882	 0.7178817125	 2.7449681098	 0.096761
H	 1.7524861168	 2.2064545558	 2.7528191838	 0.108744
H	 0.5516721669	 0.0553290083	 3.3558106423	 0.22706
H	-0.1605856454	-1.4015969232	 1.7721445174	 0.089969
H	-0.7918577061	-0.4899970335	-0.5327528418	 0.088328
H	 1.4972910057	-1.6356832139	-0.1880857337	 0.101636
132.5089	205.9736	366.3745	378.8459	472.0459	488.6393	548.1531	623.3297	648.8853	737.1558	762.7313	788.7491	825.5546	889.7819	892.284	917.0038	957.4252	1005.0726	1043.1774	1054.1981	1081.6577	1091.0119	1104.1653	1134.7502	1162.2111	1188.8312	1231.8491	1258.3945	1279.6609	1315.7997	1334.1555	1348.4252	1381.2048	1405.408	1421.8194	1454.9276	1488.856	1503.8336	1508.6569	2975.0421	3006.0038	3051.5605	3074.0939	3094.6734	3154.4375	3161.8272	3173.6905	3576.1962
C1OC2CNC3C1C3O2	C1O[C@H]2CN[C@H]3[C@@H]1[C@H]3O2	
InChI=1S/C6H9NO2/c1-4-8-2-3-5(7-1)6(3)9-4/h3-7H,1-2H2	InChI=1S/C6H9NO2/c1-4-8-2-3-5(7-1)6(3)9-4/h3-7H,1-2H2/t3-,4-,5+,6-/m1/s1
