23
gdb 108254	2.36569	1.30541	1.28626	1.1367	84.96	-0.2424	0.0766	0.319	1199.8104	0.204741	-388.274948	-388.265216	-388.264272	-388.310026	36.999	
C	 0.0426898406	 1.5481028972	 0.1477921959	-0.387292
C	-0.0084176737	 0.015738361	 0.1946761638	-0.276719
C	-1.4019070061	-0.5391567264	-0.0242824553	 0.35685
C	-2.0169685542	-0.4363830313	-1.4523002086	-0.280688
C	-2.3044477462	-1.9701070372	-1.4574670074	-0.289886
C	-1.7221800139	-2.0791083129	-0.0233046848	 0.356284
O	-0.6806668119	-2.9938895815	 0.1886597134	-0.484023
C	-2.7473895897	-1.8763458829	 1.1236755769	-0.289897
C	-2.4560305506	-0.343441825	 1.1064763066	-0.280684
H	 1.0614367362	 1.9138969217	 0.3093037575	 0.111237
H	-0.2973650312	 1.9288513036	-0.8214038878	 0.115494
H	-0.596000514	 1.992065529	 0.9191028911	 0.115493
H	 0.6675028659	-0.3993648186	-0.5637502642	 0.097368
H	 0.3713529411	-0.3366837285	 1.1621275321	 0.097367
H	-2.8948543608	 0.2095508343	-1.5375834192	 0.093913
H	-1.2954120228	-0.1311477013	-2.2150309563	 0.09887
H	-3.3483430895	-2.2732627225	-1.5819008058	 0.088287
H	-1.6902338546	-2.5139786607	-2.1793722192	 0.101222
H	-1.0483490118	-3.8845316669	 0.1583360633	 0.274509
H	-3.7767406462	-2.1825465594	 0.9144376968	 0.088294
H	-2.4152538284	-2.3605383886	 2.0453307238	 0.101214
H	-2.0259389137	 0.0234540679	 2.0424137338	 0.09887
H	-3.3043313444	 0.2962579891	 0.8488791436	 0.093916
28.7536	96.4049	136.5555	183.2841	225.1007	253.669	291.8118	344.2652	367.2981	403.3092	523.0225	578.6017	610.5631	700.3253	758.3789	758.415	787.5389	885.0884	887.9282	926.9023	933.5894	951.8472	988.0755	1002.1034	1016.5596	1032.4771	1081.4405	1116.7878	1174.8293	1212.7233	1214.3956	1227.4045	1234.3471	1237.947	1254.0776	1260.7124	1272.2542	1319.8274	1324.4654	1352.8536	1377.8888	1409.5338	1465.6217	1475.0952	1481.5835	1483.3895	1501.2048	1502.4656	1508.3277	3020.0584	3030.972	3045.8088	3047.8814	3050.5378	3052.5804	3056.7401	3092.0382	3095.6781	3097.76	3101.9991	3111.7046	3116.6043	3789.3042
CCC12CCC1(O)CC2	CC[C@@]12CC[C@]1(O)CC2	
InChI=1S/C8H14O/c1-2-7-3-5-8(7,9)6-4-7/h9H,2-6H2,1H3	InChI=1S/C8H14O/c1-2-7-3-5-8(7,9)6-4-7/h9H,2-6H2,1H3/t7-,8-
