19
gdb 53382	2.75296	1.00619	0.88707	1.7571	79.48	-0.2465	0.0409	0.2874	1423.9785	0.157729	-423.004016	-422.994285	-422.993341	-423.040798	33.899	
C	-0.1726262405	 1.3981424976	 0.1263308677	-0.500812
C	-0.0814420886	-0.0534479187	 0.0809178857	 0.066347
C	-0.0061008684	-1.2545634856	 0.0406064734	 0.114421
C	 0.1093394347	-2.7214143334	-0.0290052665	-0.038258
O	 0.7559212381	-3.261316025	 1.1040301986	-0.227379
C	-0.2796574899	-3.438057326	 2.0605298038	-0.125844
C	-1.4927895753	-3.8496951496	 1.2053402041	 0.130625
C	-2.8278463479	-3.3028373139	 1.6866013851	-0.40119
O	-1.1679425663	-3.3377893717	-0.0971233499	-0.264115
H	 0.8133401751	 1.8606940716	 0.0085876314	 0.153021
H	-0.8167187682	 1.7779623429	-0.6742254395	 0.153533
H	-0.5894529921	 1.7409067911	 1.0795471429	 0.150527
H	 0.6890143348	-3.0175371152	-0.9102158528	 0.112204
H	 0.0386316938	-4.203858113	 2.7703355568	 0.11792
H	-0.4793070685	-2.5011348119	 2.6008977117	 0.102097
H	-1.5428783676	-4.9437761333	 1.1237614241	 0.083854
H	-2.7921702528	-2.2118916021	 1.7592001428	 0.128929
H	-3.6271480299	-3.576709648	 0.9929462832	 0.129837
H	-3.0765834503	-3.713209116	 2.6717153776	 0.114283
25.9649	31.8434	94.7126	127.0694	206.7635	231.5172	322.7564	323.5555	357.0356	446.6275	467.4806	552.1404	641.7461	760.1861	835.3361	852.9536	908.5439	949.7313	958.4855	1018.093	1052.6261	1053.8465	1088.6266	1107.927	1143.0772	1166.0111	1168.9194	1244.5364	1309.4822	1353.5157	1361.5955	1374.4548	1399.5184	1409.4538	1413.7103	1476.5337	1477.2897	1485.0836	1496.3448	1510.3608	2366.7778	2999.5635	3013.3594	3029.5647	3037.3761	3051.9835	3091.9364	3092.1598	3108.5229	3113.8665	3124.5172
CC#CC1OCC(C)O1	CC#C[C@H]1OC[C@@H](C)O1	
InChI=1S/C7H10O2/c1-3-4-7-8-5-6(2)9-7/h6-7H,5H2,1-2H3	InChI=1S/C7H10O2/c1-3-4-7-8-5-6(2)9-7/h6-7H,5H2,1-2H3/t6-,7+/m1/s1
