18
gdb 40072	4.60092	1.18551	1.05691	2.2003	80.16	-0.2261	-0.0076	0.2186	1147.3283	0.149282	-401.88269	-401.875424	-401.87448	-401.91437	29.01	
C	 0.0333679282	 1.5136554762	-0.024478515	-0.294808
N	 1.2668772467	 0.7085650168	 0.0023053447	-0.348621
C	-0.0516360715	 0.0338063749	 0.0034028685	 0.326805
C	-0.4538351742	-0.7826447957	 1.2587510288	-0.319974
C	-0.5027140968	-2.2115588787	 0.70194723	 0.096885
O	-1.7296529142	-3.0269997609	 0.7345978551	-0.306751
C	-1.7046967617	-3.1696236574	-0.7196824672	-0.153988
C	-0.7312492401	-2.0203276219	-0.7641799802	 0.18274
C	-0.5546091802	-0.7658806307	-1.1687376874	-0.296125
H	-0.1611480977	 2.0781874967	 0.8842973178	 0.119018
H	-0.2421734924	 2.0297603446	-0.9414502838	 0.11051
H	 1.6728780815	 0.6637216744	-0.9297302936	 0.229036
H	 0.2442870914	-0.6338904222	 2.0848767121	 0.112844
H	-1.4590341467	-0.4895172869	 1.5796933389	 0.120041
H	 0.3490996953	-2.8320098429	 1.0077652478	 0.086797
H	-1.3093212362	-4.1508725633	-1.0141459841	 0.109413
H	-2.6867831451	-3.0147227011	-1.1781509165	 0.121782
H	-0.8293443464	-0.3201178321	-2.117803946	 0.104395
92.0478	191.2671	273.0392	303.0737	321.3067	427.837	456.8068	511.543	636.3506	745.1733	766.3624	812.6599	840.889	873.4871	895.9911	909.7364	936.0582	961.7076	975.8729	994.6336	1035.7829	1054.2557	1062.0076	1113.4067	1131.3394	1140.3978	1186.3776	1211.2397	1252.526	1269.3158	1283.9106	1302.3557	1329.7733	1355.9376	1395.9806	1471.5868	1508.5519	1509.9368	1729.5843	3010.5937	3023.3687	3056.714	3076.4056	3097.6749	3122.1162	3181.1241	3196.9507	3492.029
C1NC11CC2OCC2=C1	C1N[C@]21C[C@H]1OC[C]1[CH]2	
InChI=1S/C7H9NO/c1-5-3-9-6(5)2-7(1)4-8-7/h1,6,8H,2-4H2	InChI=1S/C7H9NO/c1-5-3-9-6(5)2-7(1)4-8-7/h1,6,8H,2-4H2/t6-,7+/m1/s1
