16
gdb 98741	3.27772	0.95651	0.83866	5.3423	69.13	-0.2504	-0.0395	0.2109	1381.9826	0.121706	-475.030684	-475.021129	-475.020185	-475.067	32.293	
C	-0.2392715875	 1.6119818077	 0.7468354701	-0.336514
N	-0.2399576743	 0.1622110868	 0.6793184898	-0.327649
C	-0.9164247905	-0.5240513902	-0.2803883039	 0.436538
O	-1.5772769873	 0.0014853717	-1.1576663992	-0.379163
C	-0.7606709409	-2.0270873555	-0.1694231407	-0.051377
O	-1.9066536879	-2.8071304001	-0.4588530023	-0.221659
C	-0.8160610821	-2.9015377269	-1.3713241612	-0.057259
C	-1.043138091	-2.3686932783	-2.7598890458	 0.140012
O	-0.3133849895	-2.6701629979	-3.6708756181	-0.252895
H	 0.7826742183	 2.0039101506	 0.7263681339	 0.13403
H	-0.7844323166	 1.9785472634	-0.1232700346	 0.178693
H	-0.7365693972	 1.9683701072	 1.6554159729	 0.135196
H	 0.251425494	-0.3529754409	 1.3908889905	 0.253675
H	-0.1696702081	-2.3942174211	 0.6725519763	 0.097358
H	-0.242194486	-3.8278460911	-1.3361645485	 0.120343
H	-1.9227145033	-1.7128599054	-2.8683624991	 0.130671
28.4999	54.7856	79.3882	137.9821	196.6329	245.3314	294.013	335.5823	363.9132	422.0638	475.7684	511.4945	721.8646	762.0842	840.9233	896.0676	914.6704	1014.3182	1031.9283	1055.4715	1118.0578	1143.8389	1153.8536	1173.7895	1233.6232	1268.0674	1343.7442	1405.5343	1440.6616	1454.3716	1492.7084	1499.7212	1567.809	1783.8091	1815.0186	3010.3	3034.7059	3081.9282	3090.8438	3121.4555	3158.967	3647.2328
CNC(=O)C1OC1C=O	CNC(=O)[C@H]1O[C@H]1C=O	
InChI=1S/C5H7NO3/c1-6-5(8)4-3(2-7)9-4/h2-4H,1H3,(H,6,8)	InChI=1S/C5H7NO3/c1-6-5(8)4-3(2-7)9-4/h2-4H,1H3,(H,6,8)/t3-,4-/m0/s1
