18
gdb 31448	5.15306	0.84794	0.77163	3.0037	90.8	-0.1983	0.0186	0.2169	1498.3161	0.147607	-364.830705	-364.821693	-364.820749	-364.864789	33.831	
C	 0.1059076334	 1.5043763188	-0.2960512292	-0.366462
C	-0.0034279964	 0.0243192126	 0.1140298526	-0.304372
C	-1.4085565986	-0.4866602375	 0.1721494118	 0.342928
C	-2.2034295014	-0.8294998971	 1.2385729696	-0.36631
C	-3.4817225078	-1.2377626997	 0.7317899238	 0.16164
C	-3.4145582728	-1.1256418603	-0.6458798559	-0.199924
N	-2.1656446214	-0.6729919193	-0.966907516	-0.296536
C	-4.5968265064	-1.6744649324	 1.4837461765	 0.242407
C	-5.538619933	-2.0446879592	 2.1382764845	-0.455003
H	 1.1516286292	 1.8266339604	-0.3178383031	 0.11538
H	-0.3164639933	 1.6768201853	-1.2917687266	 0.108593
H	-0.4369653746	 2.1424398066	 0.4072643278	 0.129314
H	 0.5916073855	-0.5877349872	-0.5779529858	 0.103863
H	 0.4451608862	-0.1144045004	 1.1024980726	 0.119752
H	-1.9177747686	-0.7998008414	 2.2785084864	 0.0994
H	-4.1543932898	-1.3373821161	-1.3999457272	 0.126154
H	-1.839959006	-0.5100651154	-1.904103737	 0.260974
H	-6.3699538142	-2.3711258376	 2.7112845754	 0.178202
45.0886	114.3732	140.3608	189.1239	218.9142	332.6469	369.3888	458.3122	503.2949	525.1552	539.5144	545.5362	642.8376	659.2452	672.9157	702.9198	734.6518	783.6826	823.2743	948.4772	986.6388	1002.9254	1064.1094	1084.4119	1141.4272	1167.4637	1240.7079	1291.4724	1318.7157	1356.5784	1395.7692	1412.4798	1450.3765	1481.9207	1497.6553	1504.3668	1538.6126	1621.8064	2229.3498	3011.6201	3035.3592	3077.2703	3104.4786	3116.2953	3255.3702	3272.7239	3507.3532	3674.9725
CCC1=CC(=CN1)C#C	CCc1cc(c[nH]1)C#C	
InChI=1S/C8H9N/c1-3-7-5-8(4-2)9-6-7/h1,5-6,9H,4H2,2H3	InChI=1S/C8H9N/c1-3-7-5-8(4-2)9-6-7/h1,5-6,9H,4H2,2H3
