20
gdb 101047	1.87192	1.39045	1.2017	1.9121	81.16	-0.2393	0.0454	0.2847	1204.7676	0.168244	-403.082282	-403.071957	-403.071012	-403.117482	37.831	
C	-0.5273950568	 1.8244745249	-0.7391896559	-0.419581
C	-0.1738444412	 0.449446022	-0.1592494483	-0.053257
C	-1.4213352449	-0.2871778548	 0.3361634225	-0.07696
O	-1.0008625091	-1.3534190422	 1.182876491	-0.424933
C	 0.6206666876	-0.4061092827	-1.1541799681	 0.105718
C	 2.1134205113	-0.4211020714	-1.0324883823	-0.281877
N	 1.3390259339	-1.6006340384	-0.6509006482	-0.342008
C	 0.013889016	-0.5711873459	-2.4551513778	 0.347027
C	-0.5113468883	-0.6837725989	-3.5315125106	-0.462325
H	 0.3730774213	 2.3507323351	-1.0691439724	 0.121282
H	-1.1905266967	 1.7286461254	-1.6040636834	 0.133827
H	-1.0280068155	 2.4447967816	 0.0106694025	 0.113448
H	 0.4683219764	 0.5928951027	 0.7199542218	 0.08163
H	-2.0664299964	 0.4118753083	 0.8903630815	 0.085869
H	-1.993703169	-0.6602570636	-0.5245672571	 0.106987
H	-1.6814873131	-2.0313286061	 1.1872465643	 0.29238
H	 2.7205409199	-0.54155122	-1.9245294013	 0.124349
H	 2.5516438801	 0.2078372333	-0.2605199974	 0.111234
H	 1.1963058556	-1.6503571886	 0.3547284047	 0.244552
H	-0.9600513812	-0.7970564207	-4.4872029954	 0.192638
52.1843	127.7533	145.3296	153.1919	184.5775	214.1028	247.3745	251.8772	303.9295	368.9487	437.5846	503.3128	563.1941	592.4611	608.5373	647.4972	650.5319	854.1762	868.3281	914.3474	945.0045	962.1084	979.3821	1030.0055	1057.7342	1101.7897	1115.0645	1124.501	1158.8509	1225.1742	1262.9408	1279.7687	1291.3747	1324.0193	1343.4753	1396.7334	1411.195	1445.9918	1494.7644	1500.4936	1504.7665	1517.0835	2232.2739	2979.7371	3016.462	3034.1248	3039.824	3101.9255	3109.6949	3115.7767	3194.3709	3501.9222	3515.457	3847.3626
CC(CO)C1(CN1)C#C	C[C@@H](CO)[C@]1(CN1)C#C	
InChI=1S/C7H11NO/c1-3-7(5-8-7)6(2)4-9/h1,6,8-9H,4-5H2,2H3	InChI=1S/C7H11NO/c1-3-7(5-8-7)6(2)4-9/h1,6,8-9H,4-5H2,2H3/t6-,7+/m0/s1
