23
gdb 120487	2.45752	1.04179	0.98503	2.4726	82.39	-0.242	0.0745	0.3165	1408.24	0.20422	-425.414719	-425.404446	-425.403502	-425.450225	37.985	
C	-0.8397910537	 1.3992326445	 0.4464658478	-0.389452
C	-0.4140483599	-0.0545732513	 0.3345077611	-0.037578
O	-1.5118629302	-0.8113466812	-0.1465605743	-0.272419
C	-1.2459771033	-2.1894730298	-0.3274248118	 0.082398
C	-1.422221675	-3.040313668	 0.9615686361	-0.267412
C	-2.8996422822	-3.3353778253	 0.5543129599	-0.024364
C	-3.9445292693	-2.4886063592	 1.2733984842	-0.399076
C	-2.5393535148	-2.8416735552	-0.8904865186	 0.134157
O	-3.4182606499	-2.00879135	-1.5900195163	-0.434555
H	-0.0070600049	 2.0117660511	 0.804486472	 0.119188
H	-1.1587751126	 1.7828183248	-0.5269275627	 0.128071
H	-1.6728600932	 1.5048274569	 1.1473756132	 0.128088
H	 0.4369919537	-0.1602752025	-0.3576741443	 0.093178
H	-0.086615782	-0.4379016974	 1.3129731778	 0.095171
H	-0.3157263238	-2.318535295	-0.8982819544	 0.060652
H	-0.7847412997	-3.9285893522	 0.9616442535	 0.099638
H	-1.2771542908	-2.5056603144	 1.9041364011	 0.101083
H	-3.1836398622	-4.3910218337	 0.6017765242	 0.064272
H	-3.6581006581	-1.4329770694	 1.2861707132	 0.117221
H	-4.9164594923	-2.5670079264	 0.7770474633	 0.123147
H	-4.0614625174	-2.8182265428	 2.3114321247	 0.105983
H	-2.2970756454	-3.6908859891	-1.5376401709	 0.080323
H	-3.2489928731	-1.1147381544	-1.2651483191	 0.292286
61.5706	82.4539	111.6082	144.9534	216.8024	238.1653	250.094	290.6992	324.3292	361.9376	424.3725	463.273	524.6582	583.8774	738.7686	801.7601	814.9975	821.1398	872.3009	912.8025	937.8039	947.7255	1027.2103	1043.2534	1091.401	1094.3144	1140.3672	1146.9874	1170.7478	1186.8897	1190.3315	1209.4734	1261.6633	1278.0638	1288.0783	1297.6974	1325.0042	1357.6659	1371.1572	1402.8136	1406.7082	1436.2853	1444.6528	1473.326	1484.4622	1492.9917	1499.6689	1507.7513	1529.2371	2972.0012	2998.8592	3005.1406	3035.0558	3044.7408	3046.6683	3054.281	3065.6062	3102.3264	3109.9712	3116.3666	3119.8642	3120.865	3766.1645
CCOC1CC(C)C1O	CCO[C@H]1C[C@@H](C)[C@H]1O	
InChI=1S/C7H14O2/c1-3-9-6-4-5(2)7(6)8/h5-8H,3-4H2,1-2H3	InChI=1S/C7H14O2/c1-3-9-6-4-5(2)7(6)8/h5-8H,3-4H2,1-2H3/t5-,6+,7-/m1/s1
