18
gdb 104602	2.79672	1.18071	0.94837	10.4299	72.1	-0.1935	0.0052	0.1988	1245.302	0.144964	-476.155268	-476.14642	-476.145475	-476.189205	33.045	
N	-1.3058838733	 1.2570601366	 2.7336415644	-0.423439
H	-1.2731244332	 0.2410560387	 2.6919602962	 0.315181
H	-1.7858757211	 1.5200253432	 3.6029582055	 0.284242
H	-0.3390951264	 1.6371083548	 2.7754723006	 0.313551
C	-1.831564787	 1.8415763971	 1.4345383214	-0.439527
C	-1.1037373559	 3.1478043383	 1.2160871134	 0.400405
C	-1.1197359919	 3.5920094849	-0.2334526708	-0.411859
C	-0.5740596242	 2.5549643237	-1.2446468493	 0.397783
O	-0.8093737168	 1.2894411284	-0.9502556663	-0.391265
O	-0.0075349651	 2.9238674043	-2.2461676247	-0.359345
C	-0.7761038737	 4.1335241729	 2.2680006182	-0.240288
O	 0.212938754	 3.1658171243	 1.8521698525	-0.297233
H	-1.2720439595	 1.2562871315	 0.0012464832	 0.297429
H	-2.9106839765	 1.9809770443	 1.533584774	 0.086379
H	-2.1610019676	 3.7998101601	-0.5155194832	 0.126542
H	-0.5550816406	 4.5153503914	-0.3723691981	 0.124975
H	-0.5312167027	 5.1627711874	 2.0114693432	 0.129225
H	-1.1496016384	 4.0058833879	 3.2858470098	 0.087245
72.7828	82.6201	134.9147	264.9325	277.0405	307.818	341.736	387.3321	402.0987	468.7948	556.7214	585.2885	675.2446	716.3375	734.1836	841.2442	877.8925	891.0435	920.5253	959.4743	964.7222	1071.435	1088.1322	1128.5158	1132.7521	1165.584	1202.0801	1251.9432	1278.6664	1296.4665	1343.4905	1385.4126	1420.947	1449.4643	1524.5891	1628.9749	1649.1196	1668.437	1813.7336	2153.4017	3031.0352	3065.3518	3091.0941	3121.1339	3157.1422	3188.664	3342.3837	3518.9844
[NH3+]CC1(CC([O-])=O)CO1	[NH3][CH][C@@]1(CC(=O)O)CO1	
InChI=1S/C5H9NO3/c6-2-5(3-9-5)1-4(7)8/h1-3,6H2,(H,7,8)	InChI=1S/C5H9NO3/c6-2-5(3-9-5)1-4(7)8/h2H,1,3H2,6H3,(H,7,8)/t5-/m0/s1
