17
gdb 96839	3.42592	1.13998	0.88302	1.1795	72.58	-0.256	-0.0136	0.2424	1291.7127	0.136079	-455.190991	-455.182023	-455.181079	-455.225259	32.016	
C	-0.0509905882	 1.4852084504	-0.1659269644	-0.340715
N	-0.0073408182	 0.0462615505	 0.036308638	-0.299795
C	-1.0581624013	-0.6168084141	 0.1789686916	 0.420758
C	-1.1680428284	-2.1052170564	 0.4088572818	-0.318455
C	-2.6123722645	-2.42363781	 0.0085734273	-0.113375
N	-3.2223231804	-3.523194637	 0.7331420865	-0.509383
C	-3.3025230168	-1.0593321686	 0.1613065083	 0.403575
O	-4.4677281884	-0.8260518837	 0.2675981071	-0.322336
O	-2.3491614776	-0.0664197916	 0.1640547839	-0.223439
H	 0.5314848712	 1.7297931121	-1.0601343093	 0.133806
H	-1.0598240828	 1.8976011858	-0.2694163707	 0.134111
H	 0.4463565009	 1.9738112241	 0.6792028714	 0.135849
H	-0.4076274144	-2.6516815385	-0.1471489749	 0.150227
H	-1.0190626343	-2.3193619168	 1.4746601704	 0.13771
H	-2.6519091188	-2.6612933544	-1.0631550005	 0.130225
H	-3.2522220854	-3.3047105797	 1.7262453207	 0.23336
H	-4.1922307526	-3.614157402	 0.4420835428	 0.247878
65.909	87.214	131.6269	202.8819	229.851	248.3066	261.0419	359.2193	444.8803	536.1887	584.7341	610.5604	643.9854	735.4969	797.9903	887.2096	916.6762	957.7935	990.8354	1045.399	1094.4145	1126.3883	1137.5287	1157.1036	1175.4412	1245.2147	1258.2541	1300.394	1315.0766	1413.1622	1439.3058	1473.4102	1492.882	1496.5255	1667.3225	1818.9672	1908.0248	3023.3966	3026.8524	3044.6115	3089.653	3103.0599	3144.7582	3482.6409	3559.4243
CN=C1CC(N)C(=O)O1	CN=C1C[C@@H](N)C(=O)O1	
InChI=1S/C5H8N2O2/c1-7-4-2-3(6)5(8)9-4/h3H,2,6H2,1H3	InChI=1S/C5H8N2O2/c1-7-4-2-3(6)5(8)9-4/h3H,2,6H2,1H3/t3-/m1/s1
