23
gdb 120559	5.1023	0.64717	0.63307	1.9543	84.14	-0.2444	0.085	0.3295	1875.483	0.20387	-425.393658	-425.383206	-425.382262	-425.430026	37.063	
C	-0.5914741285	 1.3765963723	 0.6238978323	-0.226026
O	-0.2161413563	 0.0811351465	 0.2257874251	-0.230682
C	-1.3182968337	-0.7403075556	-0.0922835874	-0.054587
C	-0.801831262	-2.1112253029	-0.4930539529	-0.018833
C	-0.2122354058	-2.9405454371	 0.6838453419	-0.261014
C	-1.5377856531	-3.7230884977	 0.7667477811	 0.172042
C	-1.9257801941	-3.1789669748	-0.6421756962	-0.282728
O	-1.3718038723	-5.1065140812	 0.9274629086	-0.23793
C	-2.5911767458	-5.8099391671	 0.9891177589	-0.239993
H	 0.3236835336	 1.9295887564	 0.8497278012	 0.126344
H	-1.1397509224	 1.9074662055	-0.1710597976	 0.101838
H	-1.2278909364	 1.3609378128	 1.5234919602	 0.101373
H	-1.9991390419	-0.817276021	 0.7750993811	 0.07966
H	-1.9035965525	-0.2985047842	-0.9184921928	 0.082115
H	-0.1424676649	-1.9947556617	-1.3563284013	 0.078897
H	 0.5914266655	-3.6045521901	 0.3567576392	 0.110925
H	 0.1145939713	-2.3891414722	 1.5674944833	 0.105991
H	-2.2103839999	-3.3316672615	 1.5463873706	 0.05941
H	-2.9473866165	-2.8174297105	-0.7925008851	 0.091487
H	-1.6883101812	-3.9141004265	-1.4156808458	 0.10768
H	-3.2150121263	-5.4693116875	 1.8311397127	 0.102005
H	-3.177645364	-5.7031286015	 0.0638528431	 0.106309
H	-2.352352773	-6.8666152105	 1.1322627797	 0.125717
47.7993	89.5112	97.9372	115.4171	156.0905	198.1745	228.2753	251.8314	292.9983	376.1533	444.8433	463.2077	469.0352	662.1319	816.6956	843.2471	895.7425	931.0915	948.2187	969.3996	1006.4491	1041.5061	1075.5611	1103.9726	1150.03	1159.4986	1169.338	1180.2036	1185.6515	1203.4131	1214.7025	1231.2582	1250.4568	1257.5984	1271.2079	1286.1925	1300.569	1358.4231	1393.0059	1425.7495	1467.941	1479.5125	1481.377	1485.003	1486.1525	1494.2683	1503.6034	1509.839	1526.4284	2933.6841	2958.626	2966.8962	2967.221	2975.3608	3007.9707	3017.3346	3051.2344	3069.8496	3079.8161	3110.3623	3111.8713	3112.9867	3128.6557
COCC1CC(C1)OC	COC[C@H]1C[C@@H](C1)OC	
InChI=1S/C7H14O2/c1-8-5-6-3-7(4-6)9-2/h6-7H,3-5H2,1-2H3	InChI=1S/C7H14O2/c1-8-5-6-3-7(4-6)9-2/h6-7H,3-5H2,1-2H3/t6-,7-
