15
gdb 104976	1.95705	1.6362	1.24576	2.1236	62.02	-0.26	-0.1108	0.1492	1053.8053	0.109052	-494.873775	-494.864646	-494.863702	-494.908423	31.581	
O	-0.0217247258	 1.5141886377	 0.4374710516	-0.412859
C	-0.2227081016	 0.1607171952	 0.7741568383	-0.136322
C	-1.4335591871	-0.4688230179	 0.0881008445	 0.258227
C	-1.2778198326	-1.5533576605	-0.898663655	-0.213156
O	-1.6723119185	-1.8196300325	 0.4488721282	-0.251768
C	-2.6736605249	 0.3980449899	-0.0157954527	 0.238765
O	-3.6821117406	 0.2137717658	 0.6184204013	-0.256397
C	-2.6651374659	 1.5322748734	-1.0518487973	 0.086142
O	-1.7549671778	 1.7471266805	-1.8111767418	-0.237275
H	-0.0000846753	 1.5888012385	-0.524701454	 0.299578
H	 0.6580482063	-0.4666348738	 0.5705860756	 0.103901
H	-0.4013828734	 0.1346642221	 1.8546026917	 0.138105
H	-2.0474905541	-1.7254996225	-1.649774234	 0.128595
H	-0.2736238475	-1.8731933054	-1.1734093303	 0.128046
H	-3.6126442013	 2.1080678495	-1.058024946	 0.126419
59.5052	79.7537	119.4818	164.8372	194.6522	266.2318	284.49	333.4507	438.8302	484.069	514.2481	599.07	626.3637	684.2155	871.9367	907.0107	932.2989	1003.3748	1047.4057	1100.5768	1119.1856	1127.1789	1169.7625	1222.5316	1259.8229	1349.1465	1362.5303	1406.1176	1433.3173	1502.7023	1524.4618	1810.3086	1813.3432	2946.7827	2993.8016	3075.595	3083.6399	3174.7186	3781.383
OCC1(CO1)C(=O)C=O	OC[C@]1(CO1)C(=O)C=O	
InChI=1S/C5H6O4/c6-1-4(8)5(2-7)3-9-5/h1,7H,2-3H2	InChI=1S/C5H6O4/c6-1-4(8)5(2-7)3-9-5/h1,7H,2-3H2/t5-/m0/s1
