16
gdb 123831	3.58534	1.52481	1.11024	2.9093	70.15	-0.2482	-0.0107	0.2375	1035.456	0.127347	-437.883376	-437.876666	-437.875722	-437.914576	26.174	
C	-0.0200639479	 1.4061205639	 0.0163785543	-0.078265
C	 1.4153086938	 1.9667137932	 0.0404290528	-0.347661
C	 2.192566621	 1.2517382905	-1.0216157956	 0.122077
C	 1.7321977567	 0.1020150333	-1.5777609167	 0.350047
C	 0.4543540358	-0.5779698528	-1.2102418404	-0.194829
O	-0.0379262962	-0.0174070441	-0.0049593066	-0.245742
O	 2.5679213126	-0.3532983409	-2.5169880166	-0.223425
N	 3.6567156554	 0.5284414046	-2.602784109	-0.142984
C	 3.4176565454	 1.4619420395	-1.7132344755	-0.087032
H	-0.5696465589	 1.6943880123	 0.9155886199	 0.117343
H	-0.557451729	 1.8050565737	-0.8587528091	 0.098708
H	 1.3870708669	 3.0492317007	-0.129973389	 0.11473
H	 1.8617716964	 1.8103220164	 1.0302104921	 0.124853
H	-0.2837539133	-0.4817706792	-2.0249321011	 0.118376
H	 0.6051713943	-1.6462457427	-1.0245912648	 0.141757
H	 4.135579547	 2.2627968614	-1.5997634946	 0.132047
116.2459	217.7868	283.1158	331.3223	366.2415	454.2551	519.3594	636.4371	660.043	698.5013	749.9072	857.8882	887.551	909.4601	946.8157	966.5289	980.2491	1026.578	1091.8499	1119.9632	1176.7289	1200.1552	1220.0028	1238.779	1278.3471	1301.3841	1333.756	1378.7063	1416.2472	1432.3076	1478.883	1486.6231	1497.0219	1512.6553	1671.0487	2961.831	2982.0226	3028.2715	3066.7109	3077.192	3102.4222	3237.8176
C1CC2=C(CO1)ON=C2	C1Cc2c(CO1)onc2	
InChI=1S/C6H7NO2/c1-2-8-4-6-5(1)3-7-9-6/h3H,1-2,4H2	InChI=1S/C6H7NO2/c1-2-8-4-6-5(1)3-7-9-6/h3H,1-2,4H2
