19
gdb 102137	2.74244	0.83179	0.66023	2.0118	87.72	-0.2509	0.0356	0.2865	1710.1473	0.154702	-385.820208	-385.809036	-385.808092	-385.858308	38.013	
C	 0.2099925772	 1.3901542223	-0.1445941636	-0.23538
O	-0.1065654962	 0.0324408589	 0.0764952856	-0.221406
C	 0.620645548	-0.5607553488	 1.1367876185	-0.082135
C	-0.0371953215	-1.9321060024	 1.4105202692	-0.362522
C	-1.3994351082	-1.8165226225	 1.9130277296	 0.31332
C	-2.5146701993	-1.7182242173	 2.3491714279	-0.450583
C	 2.0476096221	-0.7147661447	 0.8237437744	 0.091284
C	 3.2143632062	-0.8527731099	 0.5579696519	 0.067233
C	 4.6252611951	-1.0169591092	 0.2394165732	-0.500353
H	 1.2641643859	 1.5224533533	-0.4244197366	 0.114865
H	-0.4248240576	 1.7341413797	-0.9641480936	 0.128639
H	 0.004376419	 2.0023780491	 0.7471522014	 0.10522
H	 0.5189444086	 0.0585692572	 2.0437081974	 0.098075
H	-0.0200680253	-2.500757903	 0.4741821456	 0.146529
H	 0.5856386013	-2.4767210409	 2.1283665333	 0.137742
H	-3.504444959	-1.635580096	 2.7240173715	 0.193514
H	 5.0685909754	-1.8313567905	 0.8227467426	 0.152186
H	 4.76685971	-1.253873479	-0.8206319017	 0.153117
H	 5.1927850786	-0.1055667064	 0.4567249134	 0.150655
24.7521	61.2759	77.4575	88.9127	139.3077	177.6491	217.3692	262.2442	291.5608	343.8981	348.2803	401.7778	466.8864	552.161	564.336	612.6426	646.5833	808.7795	844.5957	973.6038	1021.9783	1044.7052	1053.0145	1054.6643	1144.8375	1156.0637	1184.919	1199.9484	1257.4203	1292.1516	1359.7691	1367.5723	1414.2283	1457.5068	1476.6632	1478.2513	1478.4436	1485.2991	1510.147	2242.3694	2364.7446	2962.084	2983.2585	3029.465	3040.8899	3044.7334	3084.7702	3091.1606	3092.0856	3121.2865	3507.8727
COC(CC#C)C#CC	CO[C@@H](CC#C)C#CC	
InChI=1S/C8H10O/c1-4-6-8(9-3)7-5-2/h1,8H,6H2,2-3H3	InChI=1S/C8H10O/c1-4-6-8(9-3)7-5-2/h1,8H,6H2,2-3H3/t8-/m0/s1
