19
gdb 46565	2.92137	1.68489	1.31618	2.8566	79.48	-0.2309	-0.0182	0.2128	1006.2228	0.161095	-385.850301	-385.843287	-385.842343	-385.881653	28.933	
O	-0.1399475672	-0.058771029	-0.214925094	-0.31155
C	-0.0388365034	 1.1292614593	-0.0608373286	 0.345133
C	-1.2542635193	 2.1125700755	 0.0239508377	-0.307464
C	-0.7096989681	 3.5497962417	 0.3024161809	-0.365236
C	 0.688102445	 3.2286633319	 0.7951047078	 0.336761
C	 2.1562452936	 3.7491831818	 0.8531813842	-0.309608
C	 2.2223082006	 2.216545691	 1.2072372992	-0.072865
C	 0.9965547445	 2.456045208	 2.1240477954	-0.262003
C	 1.2131588517	 1.9979700516	 0.033571742	-0.095223
H	-1.8367373339	 2.0419956874	-0.8995558543	 0.131387
H	-1.9084018126	 1.755916518	 0.8262889684	 0.136504
H	-0.6710685462	 4.1357867483	-0.6223498775	 0.108508
H	-1.3270375346	 4.0993980079	 1.0186379153	 0.106499
H	 2.6054219878	 4.0534305196	-0.0964014935	 0.095359
H	 2.4129637522	 4.4403219265	 1.6606547946	 0.095385
H	 3.1187230077	 1.6388973862	 1.4325431195	 0.08252
H	 1.1568456435	 3.0723202213	 3.0127083869	 0.091855
H	 0.382621657	 1.5822419389	 2.3579947842	 0.107713
H	 1.6071018417	 2.1891141542	-0.9735892582	 0.086324
95.1499	192.6355	277.6712	337.2071	462.9599	487.5162	541.571	583.2091	608.0616	668.066	748.3718	782.6638	819.1481	871.8635	889.2208	929.4211	954.6766	964.3098	974.2451	997.4972	1008.2761	1043.354	1066.5849	1107.1298	1129.3043	1132.0933	1149.7814	1191.7779	1202.4894	1211.3826	1223.8911	1248.6869	1269.8892	1285.2169	1328.8554	1339.4021	1448.2011	1492.4402	1499.378	1541.3379	1844.8814	3022.3141	3044.2126	3047.6845	3052.9912	3059.4798	3087.1309	3104.2398	3113.2035	3114.5576	3117.0085
O=C1CCC23CC(C2)C13	O=C1CC[C@@]23C[C@@H](C2)[C@@H]13	
InChI=1S/C8H10O/c9-6-1-2-8-3-5(4-8)7(6)8/h5,7H,1-4H2	InChI=1S/C8H10O/c9-6-1-2-8-3-5(4-8)7(6)8/h5,7H,1-4H2/t5-,7-,8+/m0/s1
