15
gdb 127272	3.35097	1.39136	0.98931	4.7089	75.25	-0.2165	-0.0416	0.1749	1128.1381	0.113969	-453.978518	-453.970731	-453.969787	-454.011524	28.662	
C	-0.0072129607	 1.4820590551	 0.009771422	-0.325406
N	-0.0245248526	 0.0229815437	 0.0010283014	 0.023459
C	-1.2157293107	-0.6543340828	 0.0038910887	-0.092284
C	-1.2184972626	-2.0153660896	-0.003551782	 0.240434
O	-2.3237605933	-2.7666109529	-0.0016125716	-0.422008
C	 0.0380650425	-2.7447644992	-0.0143848999	 0.266506
O	 0.016948363	-3.9842080635	-0.0214930674	-0.441125
C	 1.1957951376	-1.8866986417	-0.0162015363	-0.099099
N	 1.1612822934	-0.5735446368	-0.0087614173	-0.204271
H	 1.0355076775	 1.7926548218	 0.0027353844	 0.169669
H	-0.5162483363	 1.8765900108	-0.8750044403	 0.148624
H	-0.5009475368	 1.865937135	 0.9078387413	 0.148654
H	-2.1166171724	-0.0544533847	 0.0121365037	 0.142672
H	-1.9614462151	-3.6800877815	-0.0084949594	 0.307858
H	 2.1860786766	-2.3292923437	-0.0243059673	 0.136317
41.9594	134.8256	202.9614	293.1884	341.3999	349.411	421.9479	450.8198	538.8276	587.5822	616.8396	713.9608	760.7648	781.6365	832.0104	866.1554	921.3828	970.4493	1092.0149	1149.2028	1194.7141	1226.0076	1304.9752	1314.714	1370.3689	1421.2242	1448.0836	1486.0656	1500.7258	1531.2166	1539.8968	1676.0122	1701.7557	3042.4418	3104.674	3180.9141	3194.6287	3215.1831	3505.5475
CN1C=C(O)C(=O)C=N1	Cn1cc(O)c(=O)cn1	
InChI=1S/C5H6N2O2/c1-7-3-5(9)4(8)2-6-7/h2-3,9H,1H3	InChI=1S/C5H6N2O2/c1-7-3-5(9)4(8)2-6-7/h2-3,9H,1H3
