17
gdb 20044	5.48108	1.31976	1.16844	3.0946	72.17	-0.2204	0.0165	0.2369	1036.0339	0.143476	-363.83234	-363.82492	-363.823975	-363.864801	26.942	
C	 0.1835459174	 1.5455491954	 0.0735892553	-0.240846
N	 1.2608779024	 0.5685858308	-0.1039451149	-0.311972
C	-0.1295322149	 0.0834661515	 0.0542961159	-0.140291
C	-0.4339692265	-0.6872512204	 1.2720659905	 0.37308
C	-1.3743000195	-1.6163785669	 1.4351124124	-0.239825
C	-1.3388939537	-2.148584119	 2.8378301261	-0.098909
O	-0.2935825	-1.4278271623	 3.4839756412	-0.268211
C	 0.3274218753	-0.5319711569	 2.566328749	-0.156797
H	 0.2049153458	 2.0842818861	 1.0162016302	 0.125553
H	-0.1447038902	 2.1368738857	-0.7774938085	 0.116327
H	 1.537914889	 0.5172984963	-1.0802654804	 0.237188
H	-0.6384588195	-0.2706557112	-0.8398550111	 0.084812
H	-2.0743938674	-1.9641677734	 0.6853035932	 0.095361
H	-2.2874262489	-1.9918057573	 3.3766966744	 0.102004
H	-1.1277768229	-3.2304021769	 2.8706912402	 0.10163
H	 1.3906405313	-0.7816057697	 2.4413998446	 0.120434
H	 0.2818973223	 0.4935396883	 2.9650227619	 0.100461
64.0755	98.1682	165.3986	178.0469	339.0437	414.0636	534.0301	598.9491	772.9362	799.4509	857.3378	867.2458	908.1608	920.5549	935.7641	968.4347	979.4731	1027.2706	1064.1462	1077.428	1116.513	1118.8659	1155.2091	1170.9159	1215.0978	1220.7037	1245.1552	1284.9759	1313.4105	1378.6759	1393.3366	1429.0586	1510.3133	1517.1726	1529.6575	1725.2189	2962.5573	2976.4762	2980.934	3013.0397	3109.0996	3126.9547	3195.8328	3208.4641	3511.0093
C1NC1C1=CCOC1	C1N[C@H]1C1=CCOC1	
InChI=1S/C6H9NO/c1-2-8-4-5(1)6-3-7-6/h1,6-7H,2-4H2	InChI=1S/C6H9NO/c1-2-8-4-5(1)6-3-7-6/h1,6-7H,2-4H2/t6-/m1/s1
