16
gdb 28174	5.01041	1.25354	1.01031	1.5115	78.83	-0.1711	0.0028	0.1739	1129.4491	0.126325	-400.77616	-400.768795	-400.767851	-400.807775	28.9	
N	 0.1562804289	 1.3335552779	 0.1578985782	-0.593861
C	-0.0417393596	-0.0377045028	 0.0444813661	 0.375575
C	-1.160348618	-0.8263090069	 0.0053909408	-0.486003
C	-0.6570698221	-2.1735554135	 0.0041361362	 0.299468
C	 0.6958679095	-2.0785188555	 0.0345406621	 0.283395
C	 1.3790726563	-3.3995198951	 0.0035435597	-0.418928
C	 0.1565471673	-4.3141529262	-0.0403992055	-0.08934
C	-0.98913088	-3.6000370792	-0.0399560806	-0.205448
O	 1.1091640528	-0.7798912765	 0.062832032	-0.226329
H	 0.9611452622	 1.6538845391	-0.3675356108	 0.254095
H	-0.6657327487	 1.8595888792	-0.105972296	 0.254293
H	-2.1798720393	-0.4761889534	-0.0220956861	 0.098054
H	 2.0220804615	-3.5477470277	-0.8746088928	 0.130689
H	 2.0009336979	-3.6022419605	 0.8858841965	 0.132187
H	 0.2412773177	-5.3921203867	-0.062665999	 0.096014
H	-1.9896577867	-4.0126343421	-0.0663929108	 0.09614
123.7953	155.7772	241.7339	299.9871	306.8609	430.1586	502.5863	550.9954	631.8065	658.133	716.4077	724.2183	731.3475	746.1646	795.9189	878.412	919.7277	924.8257	939.3802	973.2655	1069.0436	1094.8487	1116.1634	1149.1576	1183.6112	1225.8151	1309.8948	1342.2576	1391.8678	1440.4735	1479.4399	1562.2937	1599.8164	1632.8346	1659.1476	3022.3	3049.3358	3208.3401	3233.913	3255.453	3534.6226	3638.1764
NC1=CC2=C(CC=C2)O1	Nc1cc2c(CC=C2)o1	
InChI=1S/C7H7NO/c8-7-4-5-2-1-3-6(5)9-7/h1-2,4H,3,8H2	InChI=1S/C7H7NO/c8-7-4-5-2-1-3-6(5)9-7/h1-2,4H,3,8H2
