19
gdb 122608	4.3574	0.68936	0.62286	1.8682	74.3	-0.2579	-0.0335	0.2244	1778.9811	0.156465	-460.143248	-460.133473	-460.132529	-460.179388	33.561	
C	 0.0658959249	 1.3956931822	 0.0609297077	-0.229727
O	-0.168990826	 0.0223018945	-0.1385482837	-0.231359
C	 0.6931995334	-0.5475570628	-1.0966323038	-0.054256
C	 0.3734377493	-2.034773786	-1.1978188499	-0.219449
C	 1.2609415204	-2.7421076157	-2.2089366369	 0.002147
O	 2.6653464213	-2.7815697733	-1.836586314	-0.292736
C	 2.7360336641	-4.2212295577	-1.8381925544	-0.189084
C	 1.2479442693	-4.2797443245	-2.2065965221	 0.33773
O	 0.4340374563	-5.1305461832	-2.3900974281	-0.270443
H	 1.0911670029	 1.587979713	 0.4148219668	 0.10563
H	-0.0913026011	 1.9762390671	-0.8621977477	 0.103757
H	-0.6405428598	 1.7416411196	 0.8193159896	 0.128225
H	 0.5587596301	-0.0599876261	-2.0788984783	 0.083536
H	 1.7472988729	-0.4091639851	-0.8069888445	 0.107784
H	 0.4917966822	-2.4947365239	-0.2108861946	 0.114986
H	-0.6721497865	-2.167030049	-1.4986186577	 0.126362
H	 1.1342758092	-2.3128746154	-3.2143286056	 0.106441
H	 3.418730961	-4.618753471	-2.6002667189	 0.133889
H	 2.9999322362	-4.6417803527	-0.8597111139	 0.136567
51.7403	77.4513	91.8876	116.8325	136.5496	202.691	231.8752	295.7697	389.004	431.37	518.2237	559.4875	695.1561	797.7402	821.516	893.8673	959.1772	995.0816	1011.2982	1066.1437	1084.7687	1089.3891	1131.9318	1139.2656	1165.2139	1182.9682	1214.4278	1233.5452	1247.8939	1284.9204	1305.2498	1318.9499	1367.6238	1426.0278	1476.8189	1481.1863	1482.4335	1485.3349	1504.5682	1533.3286	1925.7991	2944.2314	2970.1866	2993.0264	2997.5821	3013.5215	3018.6572	3045.4286	3064.7368	3093.5861	3114.9364
COCCC1OCC1=O	COCC[C@H]1OCC1=O	
InChI=1S/C6H10O3/c1-8-3-2-6-5(7)4-9-6/h6H,2-4H2,1H3	InChI=1S/C6H10O3/c1-8-3-2-6-5(7)4-9-6/h6H,2-4H2,1H3/t6-/m1/s1
