17
gdb 28569	3.77212	1.11635	0.91848	2.0655	78.39	-0.2114	0.0055	0.217	1273.6249	0.13568	-421.839852	-421.831638	-421.830694	-421.873282	30.078	
C	 0.1806266835	 1.3886928576	-0.2637692376	-0.493566
C	-0.0389940341	-0.0651714417	-0.0485359518	 0.350428
C	-1.0771147158	-0.7959948113	 0.4430321678	-0.256314
C	-0.6652484844	-2.1668244011	 0.4057109537	-0.274278
C	 0.5944961712	-2.1747068336	-0.1096563191	 0.372927
O	 0.9855799844	-0.897821168	-0.3937319046	-0.213213
C	 1.5330312756	-3.2629984674	-0.3982456099	-0.050003
C	 2.671161112	-3.1194987064	-1.3200085624	-0.178881
O	 2.883027611	-3.1370276095	 0.0890709287	-0.233656
H	 1.0367840149	 1.7541295296	 0.3144791193	 0.142753
H	 0.3778042056	 1.6144751369	-1.3179564357	 0.13826
H	-0.7054931763	 1.9468703862	 0.0459551811	 0.136274
H	-2.0193496179	-0.4044927574	 0.7935495542	 0.10876
H	-1.2284099392	-3.0308207727	 0.7229749195	 0.111407
H	 1.101265323	-4.2531581803	-0.2592821773	 0.100365
H	 3.0315469045	-3.9918609376	-1.8646752732	 0.113703
H	 2.8376814718	-2.1594643133	-1.8044100128	 0.125034
69.5595	122.5123	137.6504	152.6414	248.8854	329.4986	423.4802	447.5127	617.5012	635.8959	687.1558	716.4902	795.6163	817.5811	836.2335	896.7969	963.6763	973.5779	1002.7728	1039.0122	1045.4992	1064.3522	1096.1226	1156.9869	1165.88	1216.0372	1245.8979	1256.0033	1296.8748	1385.0204	1413.7602	1420.5024	1472.0941	1491.5163	1516.6598	1602.6606	1655.7276	3031.1803	3081.8714	3082.9814	3125.6152	3130.9333	3176.6431	3249.0881	3262.6488
CC1=CC=C(O1)C1CO1	Cc1ccc(o1)[C@H]1CO1	
InChI=1S/C7H8O2/c1-5-2-3-6(9-5)7-4-8-7/h2-3,7H,4H2,1H3	InChI=1S/C7H8O2/c1-5-2-3-6(9-5)7-4-8-7/h2-3,7H,4H2,1H3/t7-/m1/s1
