20
gdb 16551	2.84702	2.56654	2.09046	0.1786	77.56	-0.2311	0.0223	0.2534	789.5323	0.181982	-311.894825	-311.888616	-311.887671	-311.924571	26.792	
C	 0.0049132079	 1.5318246927	 0.0079140259	-0.204408
C	 1.5253681694	 1.799785692	-0.0038583153	-0.039734
C	 2.074188503	 1.4888303734	 1.4147174343	-0.198705
C	 1.8052515982	 0.0218144159	 1.8237181939	-0.18319
C	 0.4042424384	-0.4946447875	 1.42099215	-0.198705
C	-0.0000947046	-0.0120867849	 0.0018719924	-0.039734
C	 1.1220359859	-0.2839817906	-0.9944455742	-0.070419
C	 1.9813795667	 0.7367093156	-0.9976759505	-0.07042
H	-0.5035845111	 1.9626904895	 0.8769632513	 0.08146
H	-0.4631739758	 1.9230447168	-0.9008127483	 0.088818
H	 1.7877717032	 2.8208213009	-0.2967529497	 0.056162
H	 3.151006768	 1.6876911006	 1.4676712114	 0.088763
H	 1.5955976911	 2.1765586927	 2.1236375431	 0.091564
H	 2.5566248299	-0.612308853	 1.3433086208	 0.102284
H	 1.9503294176	-0.096916157	 2.9029678256	 0.08675
H	 0.3919298902	-1.5893962672	 1.4780410129	 0.088763
H	-0.352762714	-0.1375986205	 2.130955841	 0.091564
H	-0.9623955325	-0.4456987921	-0.2864241667	 0.056162
H	 1.2299768551	-1.2150675826	-1.5395331316	 0.086512
H	 2.9155381033	 0.7869672754	-1.5458679063	 0.086513
253.4368	258.4352	351.4723	389.3275	422.8322	548.5662	592.8411	712.3774	755.5338	784.5077	803.2552	821.9133	874.3466	886.5504	898.8075	926.5147	939.4147	966.1261	1017.6104	1028.3638	1045.4851	1056.6197	1103.2528	1118.1586	1129.3392	1169.6048	1203.4539	1254.9528	1281.6947	1289.334	1301.8584	1329.5896	1336.9744	1340.0595	1378.1351	1379.4946	1391.7995	1482.6211	1488.1286	1492.1064	1504.6852	1660.6116	3017.9918	3018.9603	3036.843	3043.5775	3055.9877	3056.4365	3059.1699	3062.5228	3083.9882	3088.9483	3180.0829	3206.3053
C1C2CCCC1C=C2	C1[C@H]2CCC[C@@H]1C=C2	
InChI=1S/C8H12/c1-2-7-4-5-8(3-1)6-7/h4-5,7-8H,1-3,6H2	InChI=1S/C8H12/c1-2-7-4-5-8(3-1)6-7/h4-5,7-8H,1-3,6H2/t7-,8+
