14
gdb 20636	7.09715	1.27808	1.0904	3.3017	74.07	-0.2271	-0.0025	0.2246	1042.5916	0.107638	-341.58293	-341.575382	-341.574438	-341.614989	27.507	
C	-0.0389231419	 1.5141212653	 0.0999268652	-0.511241
C	-0.0017184341	 0.030766462	-0.0656475732	 0.386435
C	-0.0388399277	-0.7735291495	-1.1833846863	-0.391376
C	 0.0311372729	-2.1045720721	-0.6920567435	 0.203836
N	 0.1066836811	-2.1234960635	 0.645373857	-0.291584
N	 0.0846882204	-0.8260228313	 0.9895465957	-0.247914
C	 0.0264595998	-3.3008968955	-1.4534830723	 0.275495
C	 0.0199398767	-4.2940957834	-2.1329730111	-0.423651
H	 0.8665758867	 1.892439943	 0.5879495105	 0.139721
H	-0.1170927145	 1.9968749318	-0.8760865933	 0.147586
H	-0.8971176036	 1.8354548934	 0.7010889476	 0.139453
H	-0.1066026535	-0.4596033049	-2.2120848126	 0.111078
H	 0.1318567249	-0.5885145678	 1.9667948925	 0.273493
H	 0.0149816029	-5.1775564374	-2.7222391461	 0.18867
65.3303	137.8083	149.0335	271.7139	323.8315	476.0975	527.1704	535.5803	559.3435	581.0294	663.5049	668.8018	716.9533	731.1925	824.0345	990.6011	1005.9613	1045.4616	1063.61	1161.1594	1201.7133	1290.5266	1409.1833	1424.8103	1437.7615	1461.3074	1483.7404	1506.6788	1612.1002	2239.8035	3031.8624	3082.386	3132.5876	3271.5359	3501.8478	3661.4997
CC1=CC(=NN1)C#C	Cc1cc(n[nH]1)C#C	
InChI=1S/C6H6N2/c1-3-6-4-5(2)7-8-6/h1,4H,2H3,(H,7,8)	InChI=1S/C6H6N2/c1-3-6-4-5(2)7-8-6/h1,4H,2H3,(H,7,8)
