20
gdb 56637	2.10063	1.29339	1.11324	2.3146	79.14	-0.2761	0.0313	0.3074	1240.3563	0.168036	-403.159564	-403.149249	-403.148305	-403.195027	37.126	
C	 0.1198207126	 1.3581685331	-0.4427630752	-0.406724
C	 0.0613796198	-0.0379789438	 0.2118077518	-0.199628
C	 0.6448431769	-0.0211902697	 1.5577225265	 0.270991
N	 1.0941845443	-0.0082032456	 2.6226997187	-0.328764
C	-1.3654161596	-0.6080208308	 0.2511115295	 0.39686
C	-2.3742165792	 0.1781469788	 1.0619190186	-0.478447
O	-1.8269859257	-1.0486425159	-1.0313870455	-0.307025
C	-1.61098142	-2.0401759032	-0.0116486795	 0.028965
C	-0.576676516	-3.1060612526	-0.2668307559	-0.43382
H	 1.1570429191	 1.6799230405	-0.5611932899	 0.136797
H	-0.3482545715	 1.3067174421	-1.4288690423	 0.146086
H	-0.3997290296	 2.1080519148	 0.1576022355	 0.139745
H	 0.6718831299	-0.7119631958	-0.3950279013	 0.128052
H	-2.5104888606	 1.1834186957	 0.6519995098	 0.132043
H	-3.34369247	-0.324311059	 1.0438852112	 0.132043
H	-2.0481115931	 0.2748089778	 2.1020482324	 0.147252
H	-2.542839017	-2.4306422847	 0.4035755456	 0.092342
H	 0.3401298726	-2.7093777409	-0.7063591803	 0.129242
H	-0.323430376	-3.6183237302	 0.6672326089	 0.137489
H	-0.9799221669	-3.8521195607	-0.9592937187	 0.136503
38.0044	121.7684	154.1212	170.0654	193.1168	219.9717	232.4213	249.2915	284.9539	363.6555	424.5126	468.5211	499.9037	538.9794	589.2507	715.0182	770.6852	854.73	897.5782	936.8738	998.6389	1019.6818	1056.9654	1085.8768	1101.649	1124.2203	1138.7412	1172.9716	1262.5994	1288.957	1323.9026	1367.8094	1405.0855	1410.1049	1415.8	1462.9073	1480.7677	1487.4384	1492.5373	1497.9849	1503.9543	1515.0329	2354.8594	3043.7361	3045.3032	3055.3783	3079.8011	3084.4152	3105.4811	3112.437	3130.9346	3133.7792	3137.0044	3139.1721
CC(C#N)C1(C)OC1C	C[C@@H](C#N)[C@@]1(C)O[C@H]1C	
InChI=1S/C7H11NO/c1-5(4-8)7(3)6(2)9-7/h5-6H,1-3H3	InChI=1S/C7H11NO/c1-5(4-8)7(3)6(2)9-7/h5-6H,1-3H3/t5-,6-,7+/m0/s1
