17
gdb 13387	5.4731	1.19459	1.09791	2.3203	65.45	-0.2565	0.0229	0.2794	1115.3633	0.14254	-401.014859	-401.006963	-401.006018	-401.04798	27.937	
C	-0.0954002676	 1.525027463	-0.0688585193	-0.38603
C	 0.0121757005	 0.0136519161	 0.0216713645	-0.048218
O	 0.7205385721	-0.451989164	-1.1265140964	-0.237843
C	 0.827887897	-1.8268200767	-1.2214814112	 0.195767
C	 1.5616660895	-2.2043090372	-2.523962417	-0.204463
N	 2.8866712313	-2.6843587773	-2.1021333382	-0.259003
C	 2.8434980538	-2.7201930378	-0.8376529695	 0.115015
O	 1.7076182251	-2.3525975261	-0.1878680054	-0.233478
H	 0.8989025942	 1.9794466244	-0.0932699651	 0.132302
H	-0.6304446381	 1.8211489788	-0.9755307103	 0.1277
H	-0.634980803	 1.9177277039	 0.7979631288	 0.118997
H	 0.5434344382	-0.2902216699	 0.9323290024	 0.113885
H	-0.9864640535	-0.4508660422	 0.0482615919	 0.092172
H	-0.1444590734	-2.3118838441	-1.0658932725	 0.081127
H	 1.0422759258	-2.9911296523	-3.0801187596	 0.119574
H	 1.6504074085	-1.3268978228	-3.1698326857	 0.132874
H	 3.6509834896	-3.0382596657	-0.1874614973	 0.139622
60.4485	92.3658	127.203	195.7803	251.4514	358.209	413.2141	466.5617	597.1945	757.0875	820.1836	851.3117	885.7031	910.9578	953.0905	956.8083	987.2662	1045.3733	1072.9512	1094.4913	1147.435	1166.454	1186.2443	1237.6795	1296.9066	1306.4906	1321.7358	1356.0144	1377.3493	1406.5779	1444.4122	1479.7817	1483.8009	1500.5209	1527.056	1709.633	2981.7276	3024.4864	3045.2673	3046.7273	3056.9846	3105.3681	3121.5888	3124.5528	3215.2719
CCOC1CN=CO1	CCO[C@H]1CN=CO1	
InChI=1S/C5H9NO2/c1-2-7-5-3-6-4-8-5/h4-5H,2-3H2,1H3	InChI=1S/C5H9NO2/c1-2-7-5-3-6-4-8-5/h4-5H,2-3H2,1H3/t5-/m1/s1
