17
gdb 17927	2.99073	2.41445	2.38085	0.9827	67.17	-0.2104	0.0635	0.2739	736.8133	0.143259	-363.793966	-363.787517	-363.786573	-363.824098	25.938	
C	 0.0365747966	 1.5441043592	 0.0995828811	-0.526433
C	-0.0141382361	 0.0550851719	-0.026015044	 0.338657
C	 0.5614135071	-0.8695521026	-1.1335243647	 0.046792
C	 1.4209779522	-1.5178772436	-0.0373243257	-0.18817
N	 0.6209674317	-0.8491921514	 1.0530737958	-0.198853
C	-0.7085847794	-1.5489356742	 1.1900097097	-0.188167
C	-1.2404291079	-0.895834021	-0.0950854105	 0.046812
O	-0.7103124083	-1.5453894061	-1.2744500601	-0.306341
H	 1.073144962	 1.8960175288	 0.1321372476	 0.130366
H	-0.4635730225	 2.0242443991	-0.7483463724	 0.12779
H	-0.4556657388	 1.872919375	 1.020963985	 0.130458
H	 0.9876139878	-0.5813011937	-2.0978099989	 0.077707
H	 1.4426030084	-2.6108219882	-0.0028289404	 0.108654
H	 2.4462058602	-1.1318308283	-0.0222393866	 0.10719
H	-0.6656291874	-2.6415689928	 1.2122442071	 0.108652
H	-1.2177277397	-1.1852575927	 2.089378308	 0.107186
H	-2.2945333958	-0.6291896494	-0.2062143413	 0.0777
207.247	223.301	238.8636	370.2197	383.6351	450.8364	603.7103	688.1038	713.8275	829.1293	845.6505	848.4772	857.3016	880.3972	963.024	963.1156	984.5781	1001.1121	1060.8036	1104.6174	1135.1398	1164.1416	1175.0008	1183.5964	1214.981	1215.1481	1280.3288	1296.0556	1296.3622	1330.304	1368.1427	1413.9348	1475.1833	1481.2888	1485.7813	1491.3002	3029.7536	3035.6715	3038.5669	3073.9813	3079.3279	3097.4714	3100.3579	3101.2434	3102.3089
CC12C3CN1CC2O3	C[C@@]12[C@H]3CN1C[C@@H]2O3	
InChI=1S/C6H9NO/c1-6-4-2-7(6)3-5(6)8-4/h4-5H,2-3H2,1H3	InChI=1S/C6H9NO/c1-6-4-2-7(6)3-5(6)8-4/h4-5H,2-3H2,1H3/t4-,5+,6+
