23
gdb 114996	3.10132	1.04262	0.82887	0.9621	88.5	-0.2398	0.0259	0.2656	1468.7068	0.206083	-388.304632	-388.29511	-388.294165	-388.338979	36.062	
C	-0.1998408501	 1.3615053669	 0.0239801946	-0.23922
O	 0.1599158852	 0.0035047193	-0.0708317267	-0.248338
C	 0.7542671645	-0.5360861259	 1.0992629146	 0.120469
C	-0.2532219135	-0.7232876558	 2.2446997337	-0.268177
C	 0.2944211682	-1.6210449929	 3.3251557453	-0.079292
C	 1.3681781283	-2.3940575792	 3.1689077155	-0.03305
C	 2.1531532839	-2.5030278647	 1.8831470173	-0.02709
C	 2.5372401512	-3.9606514812	 1.5842368296	-0.399686
C	 1.3752822734	-1.876280832	 0.714607443	-0.214838
H	 0.6547300145	 1.988467807	 0.3255049322	 0.100584
H	-0.5321530181	 1.6767868116	-0.9685784234	 0.124691
H	-1.0203773632	 1.5364664296	 0.7352303078	 0.105271
H	 1.5546973814	 0.1433567442	 1.4429813526	 0.061294
H	-0.5311325616	 0.2443039387	 2.6800145031	 0.099686
H	-1.1795478633	-1.1435889216	 1.8265046534	 0.114314
H	-0.2261165783	-1.6101295777	 4.2800833811	 0.083704
H	 1.718307554	-3.0007215233	 4.0022380081	 0.079632
H	 3.0928161381	-1.9420281093	 2.0129550071	 0.08095
H	 1.6435388821	-4.5817846508	 1.4594161505	 0.118038
H	 3.1277936145	-4.0291957295	 0.6646952081	 0.112422
H	 3.1316517873	-4.3883833662	 2.3984720816	 0.110039
H	 0.5697109701	-2.5543129955	 0.4038340619	 0.10082
H	 2.0270731815	-1.7360776517	-0.1537087411	 0.097774
73.952	108.2478	129.8749	199.5906	240.2079	255.5993	296.4853	318.5774	389.1966	445.3579	462.8894	494.5604	552.4607	690.6055	741.664	836.3759	877.2802	919.243	940.556	990.1631	993.3233	997.7079	1010.3941	1083.4027	1102.9849	1116.223	1138.8585	1157.8054	1179.3438	1187.2866	1217.2206	1234.0822	1269.9693	1298.2645	1327.3323	1338.1516	1364.5733	1379.4948	1402.7911	1404.0783	1422.3696	1477.2701	1478.4487	1491.8989	1495.8804	1499.0746	1501.9361	1511.344	1722.1036	2941.5135	2968.5793	2972.5738	3006.0119	3021.6179	3026.346	3030.2456	3048.5258	3080.2677	3098.5545	3100.4597	3107.4523	3132.9317	3158.5876
COC1CC=CC(C)C1	CO[C@H]1CC=C[C@@H](C)C1	
InChI=1S/C8H14O/c1-7-4-3-5-8(6-7)9-2/h3-4,7-8H,5-6H2,1-2H3	InChI=1S/C8H14O/c1-7-4-3-5-8(6-7)9-2/h3-4,7-8H,5-6H2,1-2H3/t7-,8+/m1/s1
