18
gdb 12980	2.68515	2.49431	1.55989	2.9691	71.51	-0.2335	-0.0068	0.2267	866.3336	0.154523	-347.837288	-347.829792	-347.828848	-347.868783	28.924	
C	-0.2178125639	 1.5294470148	 0.0536820485	-0.481211
C	 0.0655618376	 0.0497313724	 0.0116952568	 0.233481
C	-0.7610976143	-0.9297377303	 0.8442214209	-0.324567
C	 0.6970030494	-0.7697900349	 1.1315798326	-0.072662
C	 1.6345716988	-1.815028395	 0.5261024182	-0.226425
C	 1.258988067	-1.8809495763	-0.9689374132	-0.340532
C	 0.5740562936	-0.5383089326	-1.2705723958	 0.367513
O	 0.5122002181	-0.0074695272	-2.3531274666	-0.332639
H	 0.6803852018	 2.1104550822	-0.1788482266	 0.126191
H	-0.9782932309	 1.7942378825	-0.6871982884	 0.137242
H	-0.5772000304	 1.8353596643	 1.0407240709	 0.110555
H	-1.4646930099	-0.4669623106	 1.5279527934	 0.120569
H	-1.1232193644	-1.8471730281	 0.3910942277	 0.116717
H	 0.9913400483	-0.2808474798	 2.0539161825	 0.091556
H	 2.6716883498	-1.4810326127	 0.6369159532	 0.110634
H	 1.5515617693	-2.7842344927	 1.0285203197	 0.104965
H	 2.1117213495	-2.0200743688	-1.6357654029	 0.129523
H	 0.5541829406	-2.6923620974	-1.185534351	 0.129091
111.4076	158.8158	205.2704	259.2681	294.9819	406.0345	462.8394	517.8589	597.5819	656.2937	670.9106	803.5038	809.2046	852.6586	874.9949	934.9621	962.7231	1003.2607	1034.3637	1058.4138	1060.9774	1099.1755	1110.4116	1126.82	1179.0407	1225.3056	1271.9198	1288.9877	1319.4364	1337.3848	1400.3275	1418.7869	1460.3356	1483.4419	1492.2657	1496.9387	1506.2309	1824.9018	3037.5275	3042.6943	3047.379	3080.4112	3103.7912	3111.5799	3118.8909	3127.0429	3168.7889	3211.7677
CC12CC1CCC2=O	C[C@]12C[C@H]1CCC2=O	
InChI=1S/C7H10O/c1-7-4-5(7)2-3-6(7)8/h5H,2-4H2,1H3	InChI=1S/C7H10O/c1-7-4-5(7)2-3-6(7)8/h5H,2-4H2,1H3/t5-,7+/m1/s1
