21
gdb 68231	3.02924	1.59077	1.354	1.3337	80.56	-0.2525	0.0771	0.3296	1025.6061	0.185206	-387.078083	-387.070748	-387.069804	-387.109105	31.683	
O	-0.1523909502	 1.4301712169	-0.0035991043	-0.490351
C	 0.0429426238	 0.0392993706	 0.0139504819	 0.412779
C	 0.9634636664	-0.6386807669	-1.0480342953	-0.274815
C	 1.2287230404	-1.7202280497	 0.0454266078	-0.040243
C	 0.9502673724	-0.6058072413	 1.0952888239	-0.292439
C	 0.1057212663	-2.7457591665	-0.038255245	-0.007364
C	-0.8418956609	-2.9953020679	 1.105952342	-0.309613
C	-1.2802347807	-2.1383919711	-0.0615450323	-0.027272
C	-1.3484721501	-0.611501419	 0.0158459275	-0.247017
H	 0.7124751651	 1.8527039243	 0.0166016878	 0.271888
H	 0.5207330849	-0.959434158	-1.9949410282	 0.092475
H	 1.8489910512	-0.0240390664	-1.2412643556	 0.081017
H	 2.2137474766	-2.1892497756	 0.0750589126	 0.06369
H	 1.8515921668	-0.0033520298	 1.2529355892	 0.083782
H	 0.5231394077	-0.8563893846	 2.0683472047	 0.096489
H	 0.306851045	-3.5780061052	-0.7070765331	 0.079502
H	-1.2819318844	-3.9839193972	 1.1852367836	 0.104956
H	-0.6541230544	-2.5262971445	 2.0649814208	 0.112024
H	-2.0140299217	-2.5924687629	-0.7193053618	 0.082378
H	-1.8975331479	-0.2687907629	 0.9013831356	 0.10261
H	-1.8897617061	-0.2276128222	-0.8557172019	 0.105523
195.712	253.8097	301.5263	325.3577	392.839	422.0157	436.7732	459.9278	493.4794	595.9694	658.2675	756.3625	814.0656	839.1801	844.4563	863.5919	889.9231	914.6669	937.8836	946.2564	989.3947	1018.1152	1046.1971	1051.4287	1075.6196	1097.1127	1114.4154	1133.0678	1141.8024	1151.7573	1173.0181	1201.7784	1224.0052	1237.8584	1262.2496	1269.7627	1336.9246	1356.5924	1362.263	1396.5191	1409.5142	1469.0401	1487.2408	1495.1178	1515.9693	3029.811	3039.7825	3047.3656	3070.9758	3086.5047	3103.2827	3107.5097	3132.4374	3139.9635	3154.859	3213.8123	3810.8868
OC12CC(C1)C1CC1C2	O[C@@]12C[C@@H](C1)[C@H]1C[C@H]1C2	
InChI=1S/C8H12O/c9-8-2-5-1-7(5)6(3-8)4-8/h5-7,9H,1-4H2	InChI=1S/C8H12O/c9-8-2-5-1-7(5)6(3-8)4-8/h5-7,9H,1-4H2/t5-,6-,7-,8-/m0/s1
