24
gdb 120850	2.40546	0.75515	0.61546	0.7578	87.27	-0.222	0.0769	0.299	1898.0288	0.215784	-405.514654	-405.503688	-405.502743	-405.551792	39.239	
C	 0.4047186996	 1.434897423	 0.549084535	-0.381959
C	 0.2334364723	-0.0387526245	 0.1730608586	-0.162332
C	 1.1866302778	-0.4785747405	-0.9404813566	-0.124373
N	 1.013527974	-1.8988300449	-1.2228239491	-0.081497
C	 0.0368827223	-2.2713813479	-2.2404771676	-0.268608
C	 1.4930472986	-2.4798650603	-2.4814773139	 0.00924
C	 2.2350540358	-1.7063145453	-3.5517373169	-0.205379
C	 3.7343273218	-1.61471829	-3.2824381523	-0.068587
O	 4.3315414028	-0.9588247491	-4.390434259	-0.421146
H	 1.421152794	 1.6399604122	 0.9036958153	 0.113569
H	 0.2165649977	 2.091383548	-0.3080382181	 0.113479
H	-0.2880399666	 1.723562724	 1.345266969	 0.113849
H	 0.4004957227	-0.6783009631	 1.0469275945	 0.106605
H	-0.79881547	-0.2228548787	-0.1505366444	 0.097711
H	 1.0270538566	 0.1644472163	-1.8233347312	 0.081661
H	 2.2237400193	-0.3221078657	-0.6159819552	 0.097156
H	-0.6187992302	-3.1052001412	-2.0020590678	 0.11059
H	-0.4407144871	-1.4678231881	-2.8023468806	 0.103223
H	 1.8771460375	-3.491201615	-2.3403493019	 0.084995
H	 2.0936982602	-2.2124045274	-4.5147919491	 0.11027
H	 1.8320384707	-0.6965784691	-3.6718623945	 0.108056
H	 3.9158389149	-1.0639511737	-2.3460453545	 0.09173
H	 4.1467185012	-2.6283148099	-3.1472054261	 0.085827
H	 5.2761118539	-0.8884838591	-4.2253075036	 0.285919
58.3845	69.8769	85.8862	104.0325	151.7841	170.3575	239.2659	265.688	285.1565	328.8696	376.5437	423.1474	448.6315	545.6988	759.0903	777.904	789.243	838.736	891.8584	907.9506	929.5563	1011.3553	1034.7775	1044.5816	1057.251	1074.2035	1097.113	1119.2967	1126.5111	1151.6347	1183.0099	1200.5785	1233.4507	1243.3462	1275.3839	1309.8773	1319.9445	1324.516	1331.4525	1340.9545	1403.1573	1414.9318	1428.4667	1461.0539	1484.4359	1490.5193	1494.8661	1500.9357	1509.1325	1516.2681	1526.0931	2947.9793	2963.2311	2992.1948	3025.6484	3029.018	3035.7478	3039.7036	3067.9107	3078.6866	3082.9317	3096.5137	3100.1114	3103.8964	3166.1544	3831.7618
CCCN1CC1CCO	CCCN1C[C@H]1CCO	
InChI=1S/C7H15NO/c1-2-4-8-6-7(8)3-5-9/h7,9H,2-6H2,1H3	InChI=1S/C7H15NO/c1-2-4-8-6-7(8)3-5-9/h7,9H,2-6H2,1H3/t7-,8?/m1/s1
