23
gdb 76487	2.89823	1.00285	0.92828	1.5244	86.55	-0.2515	0.0772	0.3287	1411.9821	0.204132	-388.27058	-388.260524	-388.25958	-388.305315	38.077	
C	 0.2033381816	 0.6058427294	-2.3641840463	-0.409103
C	 0.1832184235	-0.4282371638	-1.2582793752	-0.094736
C	 1.3091925813	-0.5818582024	-0.248496228	-0.076113
C	 2.5598486107	 0.2695848709	-0.2726198787	-0.40956
C	-0.031997357	-0.0373039784	 0.1773709403	 0.345223
C	-0.2935530127	 1.3559272268	 0.772315963	-0.345061
C	-0.8459325544	 0.6370181051	 2.0379456608	 0.175993
O	-1.9715049781	 1.1524539402	 2.7006630381	-0.434506
C	-0.961815614	-0.6785859498	 1.2159251431	-0.34846
H	 0.6258546983	 1.557777338	-2.0314241381	 0.118072
H	 0.7926770077	 0.2629822937	-3.2220946349	 0.116164
H	-0.8119760474	 0.8099679078	-2.7230751474	 0.113822
H	-0.2887537891	-1.3647386524	-1.5511648274	 0.076509
H	 1.4947511038	-1.6092661188	 0.0609073249	 0.077768
H	 2.354710943	 1.3009538223	-0.5711943647	 0.117435
H	 3.0293030638	 0.3036374926	 0.7172391651	 0.1154
H	 3.2986399541	-0.1344874124	-0.9738633034	 0.116455
H	 0.5483771175	 2.0392615905	 0.9095623741	 0.101326
H	-1.0922817995	 1.8899112848	 0.2415774574	 0.088264
H	-0.0697878285	 0.5505889545	 2.8034425975	 0.094509
H	-2.682609206	 1.2344729374	 2.0561748272	 0.274796
H	-1.981355161	-0.8137838564	 0.8315011584	 0.086591
H	-0.6434238276	-1.6088281698	 1.6950773643	 0.09921
64.9409	145.4201	155.4293	165.9999	174.8632	226.9505	244.7457	306.0153	361.4667	405.2419	459.5124	464.9308	517.6436	542.9437	709.5705	769.8333	782.6768	834.8557	905.5547	924.6792	969.7458	996.5654	1020.1004	1030.8726	1056.8469	1067.8592	1084.5712	1123.2772	1137.986	1153.9048	1172.0192	1188.7398	1204.972	1216.3282	1243.9885	1279.3092	1328.3291	1334.0233	1367.498	1412.3813	1420.0001	1432.4159	1465.8607	1467.6422	1486.0003	1492.9375	1493.7541	1500.1966	1515.0258	3018.5547	3026.0023	3027.1424	3031.0923	3069.9701	3082.7355	3084.3296	3088.3101	3096.7861	3097.9446	3108.3256	3114.4875	3126.5099	3804.768
CC1C(C)C11CC(O)C1	C[C@H]1[C@@H](C)[C@]21C[C@@H](O)C2	
InChI=1S/C8H14O/c1-5-6(2)8(5)3-7(9)4-8/h5-7,9H,3-4H2,1-2H3	InChI=1S/C8H14O/c1-5-6(2)8(5)3-7(9)4-8/h5-7,9H,3-4H2,1-2H3/t5-,6+,7-,8-/m0/s1
