17
gdb 97127	2.36481	1.21057	0.84033	4.7933	75.67	-0.2619	0.012	0.2739	1342.4487	0.135342	-418.01313	-418.003874	-418.00293	-418.048452	31.707	
C	-0.1172168079	 1.3954663335	-0.0580534927	-0.342744
N	-0.1986721532	-0.0498448183	-0.2142720382	-0.306829
C	 0.5749536837	-0.6355785197	-0.9961375816	 0.464019
O	 1.5901980549	-0.1510716539	-1.8155834709	-0.263926
C	 1.9426302401	-1.4976195185	-2.2426332909	-0.107386
C	 0.7982025433	-2.086088754	-1.3865822264	-0.158156
C	 1.195701676	-3.0554363499	-0.2644947451	-0.358335
C	 0.0610808227	-3.4807236372	 0.553311511	 0.279414
N	-0.8321090572	-3.8453647046	 1.1882472118	-0.299369
H	 0.6950869324	 1.8628612638	-0.6264920394	 0.127407
H	-1.0678299723	 1.8407751445	-0.370615077	 0.135254
H	 0.010907873	 1.6297498795	 1.0037790969	 0.134046
H	 1.8460591213	-1.6092753492	-3.3249192078	 0.128627
H	 2.9568261475	-1.758073975	-1.9245577867	 0.121411
H	-0.0225796695	-2.5020112857	-1.9749105373	 0.129746
H	 1.6551918949	-3.9512119049	-0.6991205923	 0.157124
H	 1.9465788503	-2.5923334203	 0.3853636167	 0.159699
54.7687	82.3499	88.0133	148.1215	163.5867	208.1292	287.1493	363.1301	389.8709	503.4845	525.1558	680.8714	731.562	813.9441	885.0605	947.3651	975.3701	986.3323	1050.7813	1079.6032	1098.6281	1129.0369	1134.7175	1163.4412	1181.1579	1200.1456	1261.6112	1312.9643	1352.7494	1381.2308	1439.887	1464.5008	1493.0674	1496.9971	1516.9516	1858.2054	2368.7383	3020.6671	3039.8535	3054.0709	3078.1469	3089.8246	3093.3078	3096.5879	3116.9493
CN=C1OCC1CC#N	CN=C1OC[C@H]1CC#N	
InChI=1S/C6H8N2O/c1-8-6-5(2-3-7)4-9-6/h5H,2,4H2,1H3	InChI=1S/C6H8N2O/c1-8-6-5(2-3-7)4-9-6/h5H,2,4H2,1H3/t5-/m1/s1
