16
gdb 26768	3.64705	1.08563	0.8424	5.1962	84.46	-0.1988	-0.0164	0.1824	1307.2548	0.125532	-396.987976	-396.978988	-396.978044	-397.021774	32.479	
C	-0.0458927801	 1.5002090012	 0.1115614374	-0.519585
C	-0.0079099892	 0.0154861909	-0.0169361092	 0.271291
C	-0.0331199725	-0.7776894947	-1.159662705	 0.202385
N	-0.1528193079	-0.2871872137	-2.4764832357	-0.61306
C	 0.0052100435	-2.1292297567	-0.7472142634	-0.319373
C	 0.057392815	-2.1385376975	 0.6403814134	 0.223412
N	 0.0609947262	-0.8270956815	 1.0605015783	-0.373538
C	 0.1053357177	-3.2118798461	 1.5504406861	 0.195373
N	 0.1475209904	-4.0864775228	 2.3123046672	-0.357425
H	 0.9536171856	 1.9477882897	 0.1925846342	 0.135046
H	-0.5310138596	 1.9302458311	-0.7694619791	 0.150905
H	-0.6168750796	 1.8141918026	 0.9920440846	 0.13172
H	 0.5553781882	 0.399621176	-2.7060884911	 0.244288
H	-0.1063154579	-1.0315959827	-3.160032701	 0.244332
H	-0.0054505632	-3.0052836733	-1.3771582092	 0.111564
H	 0.0909116335	-0.5389420926	 2.0236436726	 0.272667
93.8084	120.487	143.9968	145.1085	226.09	249.5362	316.6949	410.3833	453.8665	519.2027	521.078	595.346	633.559	663.072	667.4062	768.6861	795.585	818.6264	1000.1913	1018.221	1058.0958	1088.2868	1188.2434	1220.2003	1276.4902	1349.0422	1412.0249	1438.2229	1479.4195	1491.502	1503.9291	1540.1991	1635.3858	1657.9437	2326.1828	3014.4083	3071.3253	3111.8855	3254.6318	3530.1353	3617.9405	3675.8662
CC1=C(N)C=C(N1)C#N	Cc1c(N)cc([nH]1)C#N	
InChI=1S/C6H7N3/c1-4-6(8)2-5(3-7)9-4/h2,9H,8H2,1H3	InChI=1S/C6H7N3/c1-4-6(8)2-5(3-7)9-4/h2,9H,8H2,1H3
