21
gdb 93716	3.16971	1.05856	1.01564	1.1141	84.75	-0.2583	0.0409	0.2992	1305.7417	0.181323	-387.075313	-387.065783	-387.064839	-387.109671	36.89	
C	 0.0942952825	 1.611749223	-0.0194813433	-0.409615
C	 0.0353210495	 0.0849115287	-0.0513239422	 0.05582
C	 0.840630126	-0.5607584526	-1.1971310749	-0.217834
C	 1.0541340279	-1.997890152	-0.7133424773	-0.240734
C	 1.4439595548	-1.8066632324	 0.7753741471	 0.209437
O	 2.8082178951	-1.369557299	 0.8711274314	-0.465999
C	 0.5823236366	-0.5941302334	 1.2355832447	-0.250447
C	 1.2457345786	-3.0173176	 1.5750982859	 0.260361
C	 1.1088169306	-4.0300189611	 2.2093444909	-0.44564
H	 1.1266177642	 1.9580650074	 0.1050116932	 0.119624
H	-0.295163636	 2.0435786169	-0.9478416131	 0.110382
H	-0.4959886574	 2.0180894606	 0.8088068455	 0.1126
H	-1.0133866528	-0.2162059877	-0.1740765659	 0.069468
H	 0.3288951776	-0.5008804911	-2.161903965	 0.088131
H	 1.8113526654	-0.0626726956	-1.2989006493	 0.107543
H	 0.1217791709	-2.5707420341	-0.7760901175	 0.105436
H	 1.823534169	-2.5531674652	-1.2582983864	 0.091187
H	 3.3684730618	-2.1222988956	 0.6507414342	 0.279152
H	 1.2354439205	 0.0736703587	 1.8034673566	 0.119843
H	-0.2218209287	-0.9149011126	 1.9003768816	 0.108789
H	 0.9820163137	-4.9160344328	 2.781010244	 0.192497
35.8963	136.9115	161.2297	214.068	245.1292	300.3405	325.9889	386.4704	398.6942	417.0751	482.5685	540.5755	562.6049	592.7149	623.7342	660.3266	750.5595	807.8473	857.5373	892.9725	929.2807	951.2265	988.0017	1012.9888	1036.7805	1066.0205	1078.2054	1118.827	1164.3795	1216.2241	1232.6045	1264.0175	1292.989	1322.4998	1333.3499	1348.4413	1372.8077	1384.599	1411.7823	1477.6103	1481.7474	1494.7633	1497.7794	1500.782	2229.2069	3009.7979	3025.2035	3041.434	3045.4142	3070.439	3088.2965	3093.5981	3094.5169	3099.7895	3120.7736	3500.642	3801.5423
CC1CCC(O)(C1)C#C	C[C@H]1CC[C@@](O)(C1)C#C	
InChI=1S/C8H12O/c1-3-8(9)5-4-7(2)6-8/h1,7,9H,4-6H2,2H3	InChI=1S/C8H12O/c1-3-8(9)5-4-7(2)6-8/h1,7,9H,4-6H2,2H3/t7-,8+/m0/s1
