14
gdb 42504	6.23251	0.63512	0.58054	3.8519	70.63	-0.284	-0.0736	0.2104	1759.892	0.098147	-436.680422	-436.671022	-436.670078	-436.716387	31.623	
O	-0.0998858142	-0.1158500547	 0.0019990702	-0.324342
C	-0.0073662063	 1.080376399	 0.0057649902	 0.362261
O	 1.1155375293	 1.7968984324	-0.0020193146	-0.224777
C	 2.34561887	 1.0329649028	-0.0163370589	-0.070827
C	 3.4882139025	 2.0477732109	-0.0208930657	-0.358184
C	 4.781972305	 1.378364985	-0.0354498731	 0.276809
C	 5.833005488	 0.7972167785	-0.0473948389	-0.425704
C	-1.1719449336	 1.9751698805	 0.0200982685	 0.254193
N	-2.1216717217	 2.6317805122	 0.0316208854	-0.302096
H	 2.377429235	 0.38902334	 0.8659428763	 0.150629
H	 2.3623876787	 0.3981277837	-0.9056130868	 0.150585
H	 3.3855259411	 2.6999542184	-0.8961074814	 0.152055
H	 3.4005729991	 2.6908551835	 0.8626553507	 0.152048
H	 6.7701568771	 0.2976726077	-0.057766462	 0.207349
38.2164	53.0501	81.94	154.9815	161.3514	263.8097	331.2474	336.3946	353.396	464.7506	574.7722	617.669	636.126	665.8266	772.1544	789.2837	896.3676	984.2942	1000.5013	1078.5463	1080.5222	1229.1717	1265.3379	1298.3647	1310.6589	1409.7945	1477.2328	1508.0531	1821.2887	2246.741	2362.3171	3036.7935	3071.8404	3073.5391	3128.8953	3506.2412
O=C(OCCC#C)C#N	O=C(OCCC#C)C#N	
InChI=1S/C6H5NO2/c1-2-3-4-9-6(8)5-7/h1H,3-4H2	InChI=1S/C6H5NO2/c1-2-3-4-9-6(8)5-7/h1H,3-4H2
