15
gdb 43288	3.23401	1.72174	1.1395	1.5423	76.3	-0.2435	-0.0787	0.1648	1000.892	0.115944	-416.867365	-416.860456	-416.859512	-416.899185	25.826	
O	 0.0124426254	-0.0578695055	 0.0024395262	-0.366284
C	-0.0011451661	 1.1521227022	 0.0100327464	 0.37492
C	-1.1917804391	 2.0846563053	 0.0309292682	-0.192207
C	-0.7817276129	 3.3639115252	 0.0315214083	-0.186127
C	 0.6838306701	 3.3453444484	 0.0107040922	 0.410552
N	 1.6085286474	 4.2223998581	 0.0003014675	-0.334116
C	 2.8816898538	 3.4680281788	-0.0215761452	-0.180372
C	 2.5317151026	 1.9342477084	-0.0245535496	-0.210694
N	 1.0815893022	 2.0100090028	-0.000296739	-0.125543
H	-2.2034504062	 1.7046609227	 0.0430134595	 0.139632
H	-1.3746361027	 4.2663293135	 0.044051163	 0.141935
H	 3.4550266692	 3.758325176	-0.9079553215	 0.130479
H	 3.4796607061	 3.7491833208	 0.8514075631	 0.13048
H	 2.8915397505	 1.4188795857	-0.9200091914	 0.133657
H	 2.9207460897	 1.4087787176	 0.8525848523	 0.133688
88.9455	115.8147	215.6546	300.3205	375.359	555.8766	636.7092	643.1995	657.1425	756.9045	757.5575	815.3445	822.0957	838.5325	920.6856	962.0225	987.0449	1047.312	1079.7895	1099.0484	1129.752	1207.8122	1235.6347	1253.0317	1313.2784	1350.2325	1351.8832	1428.9358	1488.3446	1531.0557	1606.4879	1728.5904	1819.2478	3046.9476	3054.3381	3075.4664	3097.1605	3239.1766	3260.6482
O=C1C=CC2=NCCN12	O=C1C=CC2=NCCN12	
InChI=1S/C6H6N2O/c9-6-2-1-5-7-3-4-8(5)6/h1-2H,3-4H2	InChI=1S/C6H6N2O/c9-6-2-1-5-7-3-4-8(5)6/h1-2H,3-4H2
