25
gdb 96349	2.04591	1.59978	1.16481	1.2889	87.96	-0.2417	0.0774	0.3191	1220.3308	0.229506	-389.513154	-389.503488	-389.502544	-389.546565	38.472	
C	-0.0524026441	 1.5828040125	-0.0969438122	-0.420098
C	 0.052865833	 0.0555064149	-0.0050730448	 0.028085
C	 0.6746722003	-0.5278426085	-1.2880589352	-0.216086
C	 0.8019825566	-2.0479438941	-1.2044517785	-0.084176
O	 1.5097597163	-2.4475717185	-0.0437194111	-0.24787
C	 0.8592962817	-2.0152108941	 1.1356393107	-0.089304
C	 0.7879356343	-0.4774343353	 1.2651994601	 0.253134
C	 2.2181970847	 0.0770168907	 1.4033035584	-0.41991
C	-0.0142371063	-0.1518960958	 2.535835928	-0.432884
H	 0.9296778291	 2.049774213	-0.22369289	 0.117896
H	-0.6612726751	 1.8676864193	-0.9617747636	 0.110128
H	-0.5194128414	 2.0187928488	 0.7907753058	 0.113124
H	-0.9735225523	-0.3386838049	 0.0593382814	 0.063123
H	 0.0575432615	-0.2593497718	-2.1546110746	 0.090025
H	 1.6655855409	-0.0903972763	-1.4594739755	 0.102713
H	-0.2023779147	-2.5083416999	-1.2058445747	 0.080557
H	 1.3556243503	-2.4510076441	-2.057774521	 0.10189
H	-0.1624354493	-2.4340017693	 1.1760198189	 0.075005
H	 1.4278980051	-2.4397169764	 1.9700547774	 0.097917
H	 2.850113359	-0.2272878164	 0.5657609562	 0.124822
H	 2.2276143458	 1.1689841005	 1.4669627453	 0.109255
H	 2.6824871033	-0.3068534615	 2.3186020536	 0.107755
H	 0.4366336999	-0.6325557181	 3.4118337801	 0.109837
H	-0.0397022465	 0.923411329	 2.7349537867	 0.116353
H	-1.049335682	-0.5037453237	 2.4584143986	 0.108709
115.2918	186.4088	202.6463	226.5698	236.0712	283.0868	290.3912	326.1496	351.603	376.7564	421.5286	438.9966	500.7904	514.2091	624.2864	688.7903	838.8664	869.976	890.9665	918.2755	948.1584	971.6294	979.1781	999.7328	1016.775	1032.0264	1077.9509	1113.6756	1130.0654	1174.6954	1195.0592	1231.1565	1246.3207	1248.6946	1300.2976	1325.3481	1347.0074	1367.4114	1385.2064	1389.0272	1398.8423	1409.2772	1414.3139	1432.7571	1477.3862	1483.5125	1486.4863	1493.7772	1500.1987	1501.767	1507.7982	1511.9392	1513.4788	2941.8064	2948.6842	2977.589	3024.5666	3025.202	3035.0907	3039.6731	3065.0737	3066.4588	3080.8344	3085.9943	3095.5596	3098.4921	3104.6585	3112.9842	3126.3997
CC1CCOCC1(C)C	C[C@H]1CCOCC1(C)C	
InChI=1S/C8H16O/c1-7-4-5-9-6-8(7,2)3/h7H,4-6H2,1-3H3	InChI=1S/C8H16O/c1-7-4-5-9-6-8(7,2)3/h7H,4-6H2,1-3H3/t7-/m0/s1
