17
gdb 44328	3.08934	1.83371	1.49378	2.7888	75.63	-0.2295	-0.0227	0.2068	903.6409	0.138709	-384.714109	-384.707688	-384.706743	-384.744805	26.798	
O	 0.0192460282	 0.0644343841	 0.2883138086	-0.312563
C	-0.0074989877	 1.2415208912	 0.058046286	 0.412614
C	-1.2743575693	 2.1115788215	-0.1091227495	-0.349245
C	-0.7986568951	 3.3729631014	-0.8022599035	-0.053382
C	 0.1533277043	 4.3634101412	-0.1168501159	-0.087734
C	 0.6688228516	 4.0393303575	 1.2418947767	-0.071415
C	 1.3084691465	 2.8652179221	 1.2538782871	-0.100319
C	 1.2139266519	 2.1827382926	-0.1058370289	-0.192763
C	 0.6936393204	 3.2868872456	-1.0394413199	-0.087208
H	-2.0025825985	 1.5693383027	-0.7192572208	 0.130055
H	-1.7313206978	 2.2666132547	 0.8736890411	 0.134474
H	-1.4288704432	 3.7899237777	-1.579807173	 0.092889
H	 0.084126545	 5.3959946123	-0.4412380098	 0.088255
H	 0.5231393435	 4.6845040191	 2.1001117702	 0.102044
H	 1.7164246858	 2.3633777089	 2.1229388327	 0.111095
H	 2.1062790922	 1.6407472176	-0.4196486411	 0.090436
H	 1.1562484422	 3.4919201001	-1.9960830901	 0.092768
101.8195	269.0187	327.5017	433.6562	482.8209	564.5695	626.3339	680.4204	715.4019	743.2452	772.4855	797.1204	800.1426	820.4188	912.494	924.2392	944.4698	969.7314	997.7003	1000.1481	1022.8272	1031.9043	1092.4865	1109.5665	1127.9064	1144.9432	1180.5259	1207.8953	1263.3223	1273.8804	1286.4425	1337.6722	1372.1244	1383.3697	1450.6241	1647.0995	1849.5422	3057.5468	3098.9506	3112.9432	3165.1709	3172.9262	3194.8697	3196.8211	3221.0648
O=C1CC2C3C=CC1C23	O=C1C[C@H]2[C@H]3C=C[C@@H]1[C@@H]23	
InChI=1S/C8H8O/c9-7-3-6-4-1-2-5(7)8(4)6/h1-2,4-6,8H,3H2	InChI=1S/C8H8O/c9-7-3-6-4-1-2-5(7)8(4)6/h1-2,4-6,8H,3H2/t4-,5+,6+,8+/m1/s1
