21
gdb 87201	3.29788	0.95845	0.93297	0.9932	79.77	-0.2354	0.0796	0.3151	1386.8347	0.179682	-424.180825	-424.171088	-424.170144	-424.215508	36.832	
C	-0.3280321125	 1.4498197355	-0.8253614827	-0.453682
C	-0.1039723549	 0.1221202141	-0.139406664	 0.405643
C	 1.2575480782	-0.5230632299	-0.1774450236	-0.381591
C	 0.7194444076	 0.0469298198	 1.1208369455	 0.044589
O	 1.2400556532	 1.2379999182	 1.6350031059	-0.421922
O	-1.1483536106	-0.8165357338	-0.2344715291	-0.291663
C	-2.3130716446	-0.4700465514	 0.4610291772	 0.134413
C	-3.4642646091	 0.1625385309	-0.2783965416	-0.281723
C	-3.5218664653	-1.2906809814	 0.1511329573	-0.299137
H	 0.5330031187	 2.1023848906	-0.6709555516	 0.129729
H	-0.4770225916	 1.3028798489	-1.9000080459	 0.115742
H	-1.2082929666	 1.9582911601	-0.4219599022	 0.127054
H	 1.2954540038	-1.6013962964	-0.2807618242	 0.121497
H	 2.0508447012	 0.0264893393	-0.6732503248	 0.111027
H	 0.3868595777	-0.6762661933	 1.8653755257	 0.09277
H	 2.139964935	 1.0653079438	 1.9310829605	 0.288995
H	-2.1393316708	-0.1680260956	 1.4929051721	 0.089701
H	-4.0817637482	 0.8886942987	 0.2395321285	 0.111113
H	-3.3193221324	 0.3557188519	-1.3349533904	 0.119729
H	-3.4068757811	-2.038503964	-0.6253316757	 0.124715
H	-4.1796212077	-1.5753469461	 0.964473933	 0.113002
60.0743	90.1809	140.9717	192.6074	224.7884	271.04	286.6101	315.7659	342.2627	457.7002	464.9942	503.3856	517.8748	716.3304	758.5019	809.7066	815.4714	838.401	909.3477	927.3201	955.4457	973.4905	1008.3432	1037.9767	1040.6021	1059.9666	1072.7552	1106.3431	1127.5521	1129.7496	1179.4009	1194.9845	1196.2682	1234.6524	1255.107	1297.6159	1322.8297	1394.8618	1410.4311	1412.4812	1453.0169	1476.4993	1483.5924	1495.4333	1507.7734	3044.0108	3101.1918	3109.0094	3112.2829	3133.9782	3134.6791	3139.8815	3140.6742	3219.7641	3229.7658	3233.9832	3801.6346
CC1(CC1O)OC1CC1	C[C@]1(C[C@H]1O)OC1CC1	
InChI=1S/C7H12O2/c1-7(4-6(7)8)9-5-2-3-5/h5-6,8H,2-4H2,1H3	InChI=1S/C7H12O2/c1-7(4-6(7)8)9-5-2-3-5/h5-6,8H,2-4H2,1H3/t6-,7-/m1/s1
