13
gdb 48030	8.07535	0.56559	0.53027	4.7258	78.35	-0.2691	-0.0777	0.1914	1902.2632	0.084507	-419.374754	-419.365061	-419.364117	-419.411658	31.683	
O	 0.0002274664	-0.147400663	 0.001644294	-0.227079
C	 0.0169894312	 1.0617653855	 0.0072586125	 0.019441
C	 1.2172159293	 1.860083509	 0.0002380203	 0.054598
C	 2.1978674829	 2.5626039813	-0.005215478	 0.099478
C	 3.386194683	 3.3923155487	-0.0115793674	-0.476716
C	 3.0999575782	 4.903101729	-0.0017424977	 0.254177
O	 1.9886439193	 5.3713943622	 0.0107919098	-0.255197
C	 4.2961127629	 5.724320033	-0.0088045071	 0.234048
C	 5.3018995142	 6.3852545601	-0.0148340284	-0.388524
H	-0.9184840605	 1.6562226208	 0.0185854594	 0.10816
H	 4.0243125212	 3.1638211633	 0.8532722425	 0.177127
H	 4.0091860117	 3.172171442	-0.8895094576	 0.177093
H	 6.1777928301	 6.9884718282	-0.0199774622	 0.223394
29.5178	40.078	60.6479	148.941	175.0612	178.2851	236.4009	363.6022	389.2774	443.7535	566.6605	604.5641	616.3568	664.1774	715.7261	827.4484	846.8413	932.9659	1022.6048	1080.1989	1160.3141	1206.691	1332.9594	1419.9815	1422.5762	1769.5025	1790.7575	2213.8613	2342.6195	2928.3608	3021.7646	3050.4393	3491.4434
O=CC#CCC(=O)C#C	O=CC#CCC(=O)C#C	
InChI=1S/C7H4O2/c1-2-7(9)5-3-4-6-8/h1,6H,5H2	InChI=1S/C7H4O2/c1-2-7(9)5-3-4-6-8/h1,6H,5H2
