19
gdb 109179	4.32765	0.99848	0.83799	0.6107	73.65	-0.2171	0.0608	0.2779	1363.4774	0.160217	-456.357468	-456.348205	-456.347261	-456.391531	33.759	
C	 0.0530417153	 1.3524760377	 0.0256620398	-0.223353
O	-0.0439102268	-0.0700220934	 0.0393264048	-0.269307
C	-1.2973099024	-0.5751239865	 0.0516725569	 0.503023
N	-2.3293158671	 0.1712572341	 0.0403429401	-0.381136
C	-3.6290799153	-0.4870342485	 0.0228668996	-0.18839
C	-3.6221489951	-1.9396189501	 0.5249129194	 0.103462
O	-4.8142985876	-2.6326253734	 0.192240086	-0.431553
C	-2.4705429167	-2.6956763039	-0.1349304534	-0.164104
N	-1.2507954361	-1.9483965547	 0.1134278362	-0.371412
H	 1.1217615906	 1.5727146997	 0.0183868732	 0.121519
H	-0.4305851075	 1.7690082339	-0.8619754519	 0.133833
H	-0.4212672334	 1.7843208437	 0.911007681	 0.134164
H	-4.3270629174	 0.1053060295	 0.6306074276	 0.08898
H	-4.0377285216	-0.486895253	-0.998664882	 0.104992
H	-3.4538744484	-1.9453786122	 1.6132239993	 0.078361
H	-5.5540865053	-2.1540666925	 0.5792264606	 0.286776
H	-2.37958394	-3.6968645053	 0.2957623377	 0.11584
H	-2.6919312794	-2.8091098685	-1.2069440377	 0.110289
H	-0.3666874758	-2.3666695865	-0.1271289571	 0.248017
73.6754	136.6295	151.606	175.4922	219.0748	246.8381	283.204	335.3427	402.5668	416.7046	463.4847	530.1321	581.197	725.751	729.7114	839.8681	908.5551	959.5995	1033.2462	1061.8056	1086.9167	1112.534	1143.9663	1179.7537	1182.0783	1209.3941	1233.9637	1248.7085	1275.5975	1299.8157	1322.8467	1346.8534	1392.0583	1439.3194	1468.2091	1473.9694	1495.7633	1501.5301	1515.9647	1541.6425	1742.6747	2976.0236	2989.2667	2998.3312	3024.4744	3045.6522	3083.2314	3118.1891	3144.9391	3637.6136	3821.4295
COC1=NCC(O)CN1	COC1=NC[C@@H](O)CN1	
InChI=1S/C5H10N2O2/c1-9-5-6-2-4(8)3-7-5/h4,8H,2-3H2,1H3,(H,6,7)	InChI=1S/C5H10N2O2/c1-9-5-6-2-4(8)3-7-5/h4,8H,2-3H2,1H3,(H,6,7)
