23
gdb 92478	2.3808	1.61115	1.59254	1.3639	83.48	-0.2315	0.0714	0.3029	1050.5557	0.209612	-388.322265	-388.314279	-388.313335	-388.35461	32.558	
C	-0.1874172019	 1.5271244561	-0.0349422179	-0.407054
C	 0.0596055831	 0.0237374033	 0.0176302774	 0.165367
O	 0.7892216123	-0.35103103	-1.1645059049	-0.300208
C	 1.8706230845	-1.2479454098	-0.8989058964	 0.118667
C	 2.9370092038	-0.5152041919	-0.0729138669	-0.206527
C	 2.2717244457	-0.0034151875	 1.2365217044	-0.214111
C	 0.8077807998	-0.4826409873	 1.2664679096	-0.018606
C	 0.7867809749	-2.023532438	 1.224973426	-0.222278
C	 1.3545052944	-2.4841680195	-0.147583069	-0.213076
H	 0.7482185052	 2.0913670537	 0.0164401347	 0.117084
H	-0.6811203311	 1.7860451897	-0.9759858417	 0.123331
H	-0.8334670827	 1.8432578178	 0.7910225799	 0.106215
H	-0.9211870344	-0.4809283782	-0.0153319309	 0.060437
H	 2.2605578736	-1.5262453415	-1.8820627048	 0.067186
H	 3.7744040368	-1.1898022366	 0.1370397811	 0.091216
H	 3.3325871513	 0.3164852421	-0.6627004173	 0.100353
H	 2.7944706646	-0.383672201	 2.1202532411	 0.092385
H	 2.3200235835	 1.0873472853	 1.2951120931	 0.098662
H	 0.3003189878	-0.1162770424	 2.1648393641	 0.058101
H	 1.3801282261	-2.4241128212	 2.05388852	 0.090816
H	-0.2363105911	-2.3884531857	 1.3630705842	 0.095165
H	 0.5805077466	-2.964540196	-0.7533581969	 0.102587
H	 2.1644358273	-3.2109086413	-0.0254848391	 0.094287
61.8006	209.9126	235.2645	271.1996	298.8115	372.7912	401.823	450.427	515.2031	574.1669	664.6424	778.321	798.8562	810.903	819.7162	861.2716	882.7629	911.3589	933.8006	965.9751	1017.1315	1028.1478	1050.1893	1066.5067	1074.274	1098.2682	1133.6564	1145.3428	1153.3611	1221.6587	1240.0028	1262.1284	1269.9242	1310.4136	1322.5215	1336.2265	1355.2923	1361.1973	1372.274	1376.2135	1393.0666	1402.079	1411.0204	1475.6661	1484.8431	1486.1692	1493.2644	1501.2183	1515.9305	2944.8316	3032.0619	3036.266	3036.9789	3045.5645	3047.6377	3057.8271	3067.485	3071.0261	3076.3043	3092.6567	3098.0692	3109.4839	3115.6809
CC1OC2CCC1CC2	C[C@H]1O[C@H]2CC[C@@H]1CC2	
InChI=1S/C8H14O/c1-6-7-2-4-8(9-6)5-3-7/h6-8H,2-5H2,1H3	InChI=1S/C8H14O/c1-6-7-2-4-8(9-6)5-3-7/h6-8H,2-5H2,1H3/t6-,7-,8+/m1/s1
