20
gdb 122924	5.04037	0.50395	0.472	4.0718	77.01	-0.2714	0.0117	0.2832	2224.6744	0.168885	-440.289302	-440.278462	-440.277518	-440.326458	37.439	
O	-0.0598909307	 1.4736196134	 0.0087827621	-0.420171
C	 0.0391087015	 0.0584652351	 0.0126813567	-0.073854
C	-1.375082125	-0.5076248187	-0.0058702168	-0.173338
C	-1.4023474681	-2.038334823	 0.002293903	-0.193241
C	-2.8266426292	-2.6010838612	-0.0161256458	-0.205335
C	-2.8484922256	-4.1389276776	 0.0369077115	-0.025809
O	-2.2159966164	-4.6705745845	 1.1879374861	-0.406157
C	-4.2331269608	-4.6435708334	-0.0834653949	 0.2572
N	-5.323810247	-5.0202589933	-0.146464819	-0.314985
H	 0.8294515116	 1.8389043315	 0.019955349	 0.286913
H	 0.5969537613	-0.3061843352	-0.8657688903	 0.085332
H	 0.5717798947	-0.3034648119	 0.9076325067	 0.08577
H	-1.9160505999	-0.1144172847	 0.8637123996	 0.107653
H	-1.8915943354	-0.1221436892	-0.8934245625	 0.108634
H	-0.8535001004	-2.4230050113	-0.8685029879	 0.099542
H	-0.8798601704	-2.4216443411	 0.8859696872	 0.114205
H	-3.402312974	-2.2136168764	 0.8350549854	 0.109268
H	-3.3565226495	-2.2765787193	-0.9195904147	 0.123272
H	-2.2759113124	-4.5360937312	-0.8094801543	 0.139941
H	-2.7248515342	-4.402141978	 1.962099119	 0.295162
55.118	63.6141	80.6761	134.4853	144.4504	171.8622	223.6216	267.1607	272.1911	330.4388	357.5056	408.4694	504.3798	577.4326	593.047	746.5919	798.6173	872.4851	926.9283	982.5395	1011.3358	1045.2021	1063.0142	1089.1315	1108.8562	1124.5296	1200.2262	1223.8658	1263.3485	1275.7589	1303.9389	1316.42	1325.7197	1342.2014	1369.8922	1401.0172	1420.3848	1465.9511	1479.2709	1491.2178	1507.19	1529.4189	2354.4038	2957.7752	2982.9471	3013.6647	3023.8341	3032.6709	3051.919	3058.228	3070.6043	3087.3557	3797.2967	3831.6235
OCCCCC(O)C#N	OCCCC[C@@H](O)C#N	
InChI=1S/C6H11NO2/c7-5-6(9)3-1-2-4-8/h6,8-9H,1-4H2	InChI=1S/C6H11NO2/c7-5-6(9)3-1-2-4-8/h6,8-9H,1-4H2/t6-/m1/s1
