18
gdb 24612	4.99689	1.08986	0.92407	2.7559	79.89	-0.1746	0.0407	0.2153	1251.627	0.150739	-398.142529	-398.134775	-398.133831	-398.175339	29.248	
C	-0.1324798594	 1.5532848833	 0.0422773876	-0.23553
C	 1.3885766882	 1.517638441	-0.2675695165	-0.155713
N	 1.4422190972	 0.1781452238	 0.3436852719	-0.150839
C	-0.019813417	 0.0364718944	 0.3452544775	-0.167238
C	 2.2982827078	-0.8112803408	-0.0995341709	 0.336057
C	 2.1281366946	-2.1789247345	-0.0685222121	-0.220523
N	 3.3039777451	-2.6882374974	-0.6017705401	-0.231827
C	 4.093994339	-1.6363801208	-0.9250049488	 0.017669
N	 3.5214501397	-0.4859344101	-0.6381833378	-0.321904
H	-0.3821787486	 2.1506138847	 0.920770454	 0.111919
H	-0.7886226235	 1.8344716247	-0.7815730238	 0.10708
H	 1.6220255897	 1.5102892252	-1.3401831831	 0.104649
H	 2.0206706743	 2.2644365869	 0.2214525001	 0.10932
H	-0.445371401	-0.3215926094	 1.2895049417	 0.101277
H	-0.3890469092	-0.6032297259	-0.4717267171	 0.090038
H	 1.3326247299	-2.8134155471	 0.2799812314	 0.117013
H	 3.5226008974	-3.6615578249	-0.726277695	 0.263155
H	 5.0715119357	-1.7593169931	-1.3666427591	 0.125396
72.718	101.6875	164.074	193.7172	351.4038	455.5261	468.1872	495.5751	622.7233	651.6555	734.3567	748.9931	800.1179	848.5553	876.612	933.7451	939.5123	948.3598	986.595	1074.6745	1102.6125	1123.3813	1138.4981	1150.8124	1158.9756	1201.0379	1219.6294	1256.0721	1269.4376	1290.8948	1342.1146	1352.2961	1358.8301	1483.4766	1490.786	1512.5259	1525.376	1537.6353	1622.8192	2976.765	3019.1361	3047.0229	3075.213	3087.5998	3141.6255	3251.6425	3286.7721	3674.9261
C1CN(C1)C1=CNC=N1	C1CN(C1)c1c[nH]cn1	
InChI=1S/C6H9N3/c1-2-9(3-1)6-4-7-5-8-6/h4-5H,1-3H2,(H,7,8)	InChI=1S/C6H9N3/c1-2-9(3-1)6-4-7-5-8-6/h4-5H,1-3H2,(H,7,8)
