17
gdb 91344	3.13779	1.41367	1.18177	1.9715	69.14	-0.2182	0.056	0.2742	1063.9823	0.137517	-455.148633	-455.140758	-455.139814	-455.18115	30.56	
N	-0.04017386	 1.3655160894	-0.028245119	-0.574942
C	-0.0939207768	-0.0000580676	-0.0420088645	 0.464364
N	-1.1345557901	-0.7238294416	 0.1103715478	-0.329107
C	-0.6996745861	-2.1060016019	-0.0341416298	-0.043646
C	-0.9879504327	-2.7866920622	-1.4049458235	 0.131889
O	-2.0934650372	-2.2684400339	-2.0936142496	-0.414552
C	 0.4478464765	-2.4014580351	-1.8903485229	-0.296303
C	 0.8062714182	-1.9864841607	-0.4435256803	 0.073882
O	 1.1157337381	-0.5924870022	-0.2819093164	-0.259138
H	 0.8533203894	 1.7609737447	 0.21948116	 0.262084
H	-0.8384513445	 1.8041534079	 0.4032251794	 0.268885
H	-0.9808332678	-2.6967213453	 0.8431134209	 0.071666
H	-1.0746154394	-3.8754903602	-1.269163893	 0.06166
H	-2.1948447484	-2.7635021468	-2.9127491023	 0.283022
H	 1.049336263	-3.195961607	-2.3385421938	 0.097609
H	 0.4336526587	-1.5358599889	-2.557017069	 0.11883
H	 1.5681160391	-2.5715046484	 0.071138586	 0.083798
66.1876	145.0142	245.6604	253.5465	350.4602	395.4497	417.0647	439.2737	538.8706	564.9857	620.2041	709.8879	735.1408	749.685	816.626	870.7609	907.1635	932.4215	944.895	1030.6959	1048.4466	1068.129	1119.7076	1165.0483	1171.9945	1200.341	1227.886	1244.606	1263.2668	1318.0669	1323.9297	1344.1211	1418.1234	1433.7412	1468.2324	1614.9815	1746.2204	2978.4885	3052.528	3064.0466	3112.3044	3129.0334	3592.1274	3706.8922	3816.6191
NC1=NC2C(O)CC2O1	NC1=N[C@H]2[C@@H](O)C[C@H]2O1	
InChI=1S/C5H8N2O2/c6-5-7-4-2(8)1-3(4)9-5/h2-4,8H,1H2,(H2,6,7)	InChI=1S/C5H8N2O2/c6-5-7-4-2(8)1-3(4)9-5/h2-4,8H,1H2,(H2,6,7)/t2-,3+,4-/m0/s1
