15
gdb 73735	2.07504	1.81488	0.97994	5.1666	78.29	-0.252	-0.0551	0.197	1144.1222	0.111117	-420.654989	-420.646525	-420.645581	-420.688176	30.806	
C	-0.0059151937	 1.486416579	 0.1014751164	-0.515829
C	 0.0141415658	 0.0025877979	-0.0053428437	 0.173327
C	 0.0012781767	-0.7679531538	-1.1093254875	-0.07576
C	-0.0348436937	-0.3685202941	-2.4626330738	 0.255391
C	-0.0657168983	-0.0304386982	-3.6175309565	-0.420676
C	 0.0323187647	-2.203830252	-0.6915558218	 0.384925
O	 0.0325275552	-3.1958465086	-1.3570910346	-0.33236
O	 0.0632005949	-2.2298853098	 0.6812390447	-0.230882
C	 0.0544566594	-0.9028936348	 1.1926248877	-0.158364
H	 0.8807487818	 1.8528033705	 0.6333804934	 0.145273
H	-0.0353218371	 1.9484913077	-0.8870696862	 0.155056
H	-0.8782107876	 1.8261801372	 0.6733030417	 0.145252
H	-0.0930589553	 0.2527601358	-4.6407897499	 0.200323
H	 0.9527251978	-0.7439152056	 1.8041345424	 0.137161
H	-0.8202088605	-0.7707569812	 1.8434765175	 0.137161
114.6222	128.063	128.5656	199.5746	231.347	278.9854	404.1457	415.6806	526.5723	552.3072	581.2598	608.2591	652.2679	657.4496	758.8562	785.6549	935.5857	956.9341	1026.18	1066.3498	1082.5223	1104.9059	1198.4155	1204.2972	1325.2276	1377.7308	1414.3931	1475.9342	1480.2451	1492.48	1694.6184	1880.9042	2234.9225	3015.1593	3026.8188	3046.6455	3074.7471	3135.0161	3500.9772
CC1=C(C#C)C(=O)OC1	CC1=C(C#C)C(=O)OC1	
InChI=1S/C7H6O2/c1-3-6-5(2)4-9-7(6)8/h1H,4H2,2H3	InChI=1S/C7H6O2/c1-3-6-5(2)4-9-7(6)8/h1H,4H2,2H3
