17
gdb 7754	3.60964	1.74779	1.2261	3.0307	71.19	-0.217	-0.0037	0.2133	973.64	0.143805	-363.920518	-363.913058	-363.912114	-363.952167	28.565	
C	-0.0273733503	 1.5778288965	-0.0022969088	-0.400668
C	 0.0148310891	 0.0452991483	 0.0310831247	-0.037337
C	 0.6910169989	-0.5219551066	-1.2318084971	-0.318501
C	 0.9813865269	-2.0167136662	-1.1772493582	 0.389003
O	 0.9697382188	-2.7501896733	-2.1437355491	-0.360603
N	 1.333141913	-2.4722485093	 0.0771759211	-0.326835
C	 1.3048589666	-1.6843312663	 1.2331420047	 0.003417
C	 0.7134106438	-0.4892717119	 1.2591732525	-0.106345
H	 0.9850368868	 1.996143814	-0.0235556165	 0.118491
H	-0.5612873844	 1.9376653107	-0.8875642505	 0.117097
H	-0.5362348305	 1.9753373492	 0.8819054212	 0.115538
H	-1.0271907349	-0.3147811258	 0.0485807731	 0.092322
H	 0.1045027845	-0.3318775635	-2.1330373435	 0.127497
H	 1.6635219772	-0.0261282291	-1.3677385103	 0.125868
H	 1.6201806076	-3.4378461408	 0.1258414587	 0.25388
H	 1.7904926268	-2.1267046368	 2.0951314284	 0.11529
H	 0.7093182303	 0.089551701	 2.1752740196	 0.091885
112.8193	125.422	240.6483	280.723	342.4611	423.8502	457.2324	525.3254	542.4805	562.6501	655.5051	728.133	761.7253	850.5481	885.6631	940.3241	956.2632	965.8495	1065.7939	1086.446	1107.5796	1152.2017	1174.7205	1238.1263	1291.1844	1306.7575	1350.503	1360.5198	1408.5842	1427.2206	1455.8483	1464.8038	1496.6692	1500.2639	1719.7402	1805.6178	2962.0951	3014.865	3029.9173	3099.0618	3103.9534	3113.5872	3189.2306	3209.947	3630.3518
CC1CC(=O)NC=C1	C[C@H]1CC(=O)NC=C1	
InChI=1S/C6H9NO/c1-5-2-3-7-6(8)4-5/h2-3,5H,4H2,1H3,(H,7,8)	InChI=1S/C6H9NO/c1-5-2-3-7-6(8)4-5/h2-3,5H,4H2,1H3,(H,7,8)/t5-/m1/s1
