19
gdb 56036	3.75053	0.90117	0.88106	2.8197	72.53	-0.2383	0.0572	0.2955	1389.9971	0.161342	-456.387755	-456.378816	-456.377871	-456.422847	32.745	
N	-0.0726177125	 1.356038546	-0.2320310438	-0.566333
C	 0.0465418328	 0.0122865608	 0.107501779	 0.449761
O	 1.0711283667	-0.4585760638	 0.566341731	-0.391376
N	-1.0937057103	-0.7243502857	-0.1388325846	-0.344357
C	-1.0613693406	-2.1786544684	-0.071258672	 0.040907
C	-2.3551819063	-2.7497803847	 0.561016162	-0.260815
C	-3.2341515894	-3.1082565693	-0.6680262569	-0.073992
O	-2.5001943891	-2.6987013527	-1.8227963526	-0.256292
C	-1.1254600888	-2.8013152387	-1.4732377846	-0.104555
H	 0.6641348431	 1.9171887034	 0.1681908299	 0.259802
H	-0.9881408368	 1.7749059861	-0.1614601668	 0.246335
H	-1.7679944729	-0.3388341759	-0.7842280141	 0.241423
H	-0.1580386229	-2.4420628291	 0.477323893	 0.121252
H	-2.1326173195	-3.6386825569	 1.1562495638	 0.112506
H	-2.8224346333	-2.0146472395	 1.2182458609	 0.112811
H	-3.429530979	-4.189843152	-0.709474172	 0.096593
H	-4.1961250808	-2.5889102658	-0.686726852	 0.108461
H	-0.5379633715	-2.2627211407	-2.2197072769	 0.117406
H	-0.7986620588	-3.8543452031	-1.4492107834	 0.090465
34.8375	66.1777	92.6188	174.4595	233.2354	335.1084	393.6657	432.1663	477.4149	530.8893	571.6974	640.2796	703.3305	762.2581	777.4724	807.398	907.1955	920.9546	937.2592	948.7557	980.6522	1064.4596	1079.6924	1102.1321	1108.5087	1169.6377	1220.6003	1241.4249	1253.0026	1275.8	1299.1443	1312.8029	1348.5891	1384.1592	1397.5498	1489.6032	1503.9318	1525.1439	1531.3673	1626.9738	1800.8189	2968.3553	2995.1807	3073.542	3083.2032	3111.3597	3125.4582	3139.5342	3571.906	3602.9191	3686.1728
NC(=O)NC1CCOC1	NC(=O)N[C@H]1CCOC1	
InChI=1S/C5H10N2O2/c6-5(8)7-4-1-2-9-3-4/h4H,1-3H2,(H3,6,7,8)	InChI=1S/C5H10N2O2/c6-5(8)7-4-1-2-9-3-4/h4H,1-3H2,(H3,6,7,8)/t4-/m0/s1
