19
gdb 14390	4.07337	1.89369	1.60078	1.3819	74.77	-0.2128	0.0641	0.2769	878.42	0.165171	-327.831774	-327.824293	-327.823349	-327.862863	30.189	
C	-0.0921585837	 1.5905578289	-0.0345180011	-0.496946
C	 0.0156793428	 0.0658235602	-0.0925245282	 0.340603
C	-1.1337076377	-0.608360496	 0.6479567757	-0.438188
C	 0.5587948637	-0.7860745043	-1.1846364542	-0.081732
C	 1.83890989	-0.3669802139	-1.9281648469	-0.081263
C	 2.4213741436	 0.9466546039	-1.4862437444	-0.308389
C	 2.4853034095	-0.2456988459	-0.5671494916	-0.004434
N	 1.2504735885	-0.7341055751	 0.1623273284	-0.189098
H	-0.1810016186	 2.0471293733	-1.0231268173	 0.133854
H	-0.9886496114	 1.864896761	 0.5287007214	 0.115447
H	 0.7600861626	 2.0385868544	 0.4816460499	 0.139545
H	-2.0919555699	-0.3440398082	 0.186938245	 0.112174
H	-1.0245238573	-1.6951915597	 0.6407320235	 0.125926
H	-1.1537256768	-0.2772454364	 1.6914868025	 0.121021
H	 0.0366352885	-1.6920271368	-1.4848075703	 0.087103
H	 2.1850718396	-0.8971214606	-2.8054900827	 0.093753
H	 3.3876888117	 1.1439881371	-1.9446236079	 0.113764
H	 1.8440076202	 1.8403239997	-1.3151117222	 0.115087
H	 3.4261981547	-0.6353380214	-0.1996556594	 0.101773
110.7944	235.3027	273.3117	285.752	318.2506	360.7092	407.3068	481.7117	599.6491	651.3232	692.9513	711.4838	765.6215	859.6582	879.1652	898.2989	943.5183	982.8407	998.7577	1009.6229	1033.0187	1033.4332	1060.4364	1075.4492	1079.8568	1099.7237	1139.5506	1187.8105	1220.627	1276.9175	1307.3181	1341.8574	1398.3879	1407.4045	1421.8485	1486.1105	1489.5747	1495.9915	1506.8735	1521.3405	3031.7763	3047.2203	3097.8978	3107.8981	3123.6868	3125.419	3128.165	3136.653	3186.1625	3200.2122	3267.2135
CC1(C)C2C3CC3N12	CC1(C)[C@H]2[C@H]3C[C@H]3N12	
InChI=1S/C7H11N/c1-7(2)6-4-3-5(4)8(6)7/h4-6H,3H2,1-2H3	InChI=1S/C7H11N/c1-7(2)6-4-3-5(4)8(6)7/h4-6H,3H2,1-2H3/t4-,5+,6+,8?/m0/s1
