19
gdb 11560	3.61369	1.24236	1.01021	0.7276	76.86	-0.2239	0.0327	0.2566	1211.456	0.163739	-365.055895	-365.04669	-365.045746	-365.090536	32.55	
C	 0.1363770513	 1.3414017787	 0.0547032161	-0.224249
O	-0.0172404105	-0.0694572561	-0.0726894663	-0.245059
C	 0.6314093573	-0.653403317	-1.1088897837	 0.406563
C	 0.3788663323	-2.1428811748	-1.1186744864	-0.49171
N	 1.3299034984	 0.0415896477	-1.9061290695	-0.307845
C	 2.0131074363	-0.5626717842	-2.9948507433	 0.065958
C	 2.1360693981	 0.2526040582	-4.2638817694	-0.269829
C	 3.3427225147	 0.0424543228	-3.389991935	-0.269823
H	 1.1879344638	 1.6099501686	 0.192769103	 0.129373
H	-0.2325785396	 1.8575790167	-0.8365673245	 0.129391
H	-0.4491098276	 1.6246879067	 0.930886855	 0.121116
H	-0.0971881343	-2.449873459	-2.0547502246	 0.144114
H	 1.3182298124	-2.6966333663	-1.028907733	 0.144116
H	-0.2711480202	-2.4158321658	-0.2874617354	 0.140631
H	 1.9219806214	-1.6399615039	-3.1281268987	 0.074432
H	 2.0807070646	-0.2696818778	-5.2125946847	 0.108421
H	 1.6703483678	 1.2307530161	-4.2503653821	 0.117988
H	 3.6824616402	 0.8803235571	-2.7929881026	 0.117989
H	 4.1254654735	-0.6256697176	-3.7317818249	 0.108423
51.2241	72.2758	135.6313	151.7428	173.6531	217.8887	286.2405	366.8401	465.2235	479.1852	577.7078	597.2895	763.0586	814.1791	816.7951	891.3361	930.0678	964.1818	1041.7503	1053.7962	1053.9713	1068.7868	1085.175	1121.1526	1180.9058	1183.7385	1198.9396	1221.5031	1236.7704	1300.131	1397.0643	1408.8287	1456.1626	1469.3515	1475.1206	1484.7974	1487.2628	1499.9041	1500.7858	1747.7932	3039.6393	3049.9396	3102.1875	3108.1714	3109.7414	3136.9329	3141.5811	3142.764	3153.4652	3223.11	3237.4728
COC(C)=NC1CC1	COC(=NC1CC1)C	
InChI=1S/C6H11NO/c1-5(8-2)7-6-3-4-6/h6H,3-4H2,1-2H3	InChI=1S/C6H11NO/c1-5(8-2)7-6-3-4-6/h6H,3-4H2,1-2H3
