15
gdb 109103	3.32001	1.17622	0.87792	4.5321	69.78	-0.2323	-0.0912	0.1411	1235.844	0.111373	-457.797618	-457.789104	-457.78816	-457.831427	30.23	
O	-0.0057077806	 1.4304302522	 0.007628997	-0.420672
C	 0.0079200181	 0.0165183189	 0.0017631497	-0.171107
C	-1.3970456359	-0.4859259469	 0.0118729933	 0.187902
C	-2.5307230169	 0.2382060734	 0.0237607819	-0.157123
C	-3.7906961196	-0.5883034252	 0.0313790869	-0.3896
C	-3.2614130026	-2.0231079452	 0.0227271749	 0.32695
O	-3.8930836123	-3.0423489664	 0.0238933737	-0.272405
C	-1.707685383	-1.9258342393	 0.0096603565	 0.224341
O	-0.9434433723	-2.861713316	-0.0000431107	-0.305555
H	 0.9037933292	 1.7414413752	 0.0011689849	 0.296702
H	 0.5218248055	-0.3898296696	-0.8849863469	 0.119714
H	 0.5370857372	-0.3970693733	 0.876087622	 0.119717
H	-2.5428700042	 1.32170974	 0.0274718886	 0.141141
H	-4.4157496979	-0.4100969393	 0.9151194513	 0.149975
H	-4.4298972749	-0.4046488886	-0.8410605132	 0.150022
62.5681	89.5321	168.0233	219.4893	240.6665	304.2238	306.9349	358.9158	451.1471	545.01	622.5603	676.9917	743.1117	766.0488	829.7418	923.7493	988.7263	1000.8835	1044.5083	1052.484	1109.3384	1149.1704	1214.2877	1243.9233	1258.3785	1287.0003	1350.5601	1443.6049	1469.666	1501.1026	1680.7583	1808.6781	1864.4264	2969.2034	2987.0406	3035.2038	3065.3773	3212.4318	3841.8375
OCC1=CCC(=O)C1=O	OCC1=CCC(=O)C1=O	
InChI=1S/C6H6O3/c7-3-4-1-2-5(8)6(4)9/h1,7H,2-3H2	InChI=1S/C6H6O3/c7-3-4-1-2-5(8)6(4)9/h1,7H,2-3H2
