18
gdb 84733	2.5515	1.70699	1.11279	2.7718	83.	-0.2119	-0.0236	0.1883	1093.0459	0.149399	-401.999464	-401.991324	-401.99038	-402.032239	30.851	
C	 0.1590983437	 1.4683351512	-0.0096685138	-0.352553
N	 0.0038550665	 0.0137340765	 0.0276829027	-0.100914
C	-0.035529495	-0.6336363814	-1.2059057513	-0.004125
C	-0.7158677237	-1.7482112184	-1.5496892789	-0.130967
C	-1.5333348715	-2.546343548	-0.6641048175	-0.067617
C	-1.2750641092	-2.6852657794	 0.6457504256	-0.107144
C	-0.0289445971	-2.1145427957	 1.2656510885	-0.359438
C	-0.0739094532	-0.5907116291	 1.2824162964	 0.39855
O	-0.1460239519	 0.0600455675	 2.3048661979	-0.36404
H	 0.9798506001	 1.737657388	-0.6825157779	 0.126569
H	-0.7576502206	 1.9511229254	-0.3641582365	 0.135809
H	 0.3744118595	 1.8129756128	 0.9997976333	 0.170075
H	 0.5072574434	-0.093135809	-1.9770944875	 0.105131
H	-0.6699127203	-2.0294023428	-2.5976209565	 0.096546
H	-2.3899458828	-3.053226542	-1.1014337402	 0.09649
H	-1.9614888117	-3.2276733385	 1.2880137418	 0.102893
H	 0.0944515931	-2.433789404	 2.3001438939	 0.128048
H	 0.8487724807	-2.429909743	 0.68574155	 0.126685
92.1664	116.6571	151.4047	251.5136	332.1019	351.6159	381.7651	409.0342	520.3939	587.0076	607.6828	696.4608	718.2955	783.1871	822.2506	882.1683	946.5833	963.6482	970.9642	985.6541	994.9497	1065.1592	1114.3584	1155.0858	1208.6457	1224.5468	1240.5261	1277.7058	1307.0841	1379.9701	1407.7316	1435.6837	1464.2351	1479.7695	1493.0909	1517.1274	1647.043	1692.1073	1775.5839	3019.2227	3035.6367	3092.114	3136.2042	3150.9525	3155.8507	3174.5528	3177.0848	3186.1662
CN1C=CC=CCC1=O	CN1C=CC=CCC1=O	
InChI=1S/C7H9NO/c1-8-6-4-2-3-5-7(8)9/h2-4,6H,5H2,1H3	InChI=1S/C7H9NO/c1-8-6-4-2-3-5-7(8)9/h2-4,6H,5H2,1H3
