19
gdb 40818	3.99983	1.07882	0.90228	1.604	78.17	-0.2477	0.0165	0.2643	1297.3932	0.16003	-423.004156	-422.99609	-422.995146	-423.037367	30.558	
C	 0.2520386014	 1.4526058781	-0.0365257381	-0.17732
O	 1.0764501766	 0.3210662664	-0.3369527527	-0.240028
C	-0.2893356616	 0.0922773865	 0.0058542576	 0.073294
C	-0.5162622356	-0.6321557562	 1.3193353645	 0.065297
O	-1.8722942858	-0.4059503443	 1.6665210662	-0.273704
C	-2.3514773768	-1.2869093297	 2.6714653843	-0.072887
C	-2.3535989566	-2.7364024187	 2.1837140198	-0.255126
C	-1.0245716436	-3.0570420096	 1.5523881734	-0.079276
C	-0.1788978588	-2.0960320725	 1.1898654064	-0.073445
H	 0.4838178428	 1.964540052	 0.8963053339	 0.116353
H	 0.0238701764	 2.0999101815	-0.8814041251	 0.117479
H	-0.9201333779	-0.2518032292	-0.8139347763	 0.099514
H	 0.1530897758	-0.172360795	 2.0704116178	 0.076118
H	-1.7294425262	-1.2018634894	 3.5772073627	 0.092519
H	-3.3589380618	-0.941953015	 2.9196117006	 0.106571
H	-2.5516383708	-3.4099566755	 3.027225496	 0.104867
H	-3.1690626472	-2.8953966859	 1.4649187505	 0.116487
H	-0.76190212	-4.1024144266	 1.4135355934	 0.09298
H	 0.7975989798	-2.317628577	 0.7690201651	 0.110307
69.766	85.1965	171.0468	261.555	306.3225	323.1286	419.5536	485.9284	501.3756	587.8423	687.7831	784.2591	853.7424	863.2624	882.0769	915.6319	925.3106	992.7739	1002.3984	1013.9717	1064.4005	1082.6013	1099.6864	1116.8	1146.8168	1161.8061	1175.6965	1209.5212	1233.5478	1275.9907	1283.1174	1304.2874	1335.4934	1363.9239	1395.2845	1422.6735	1445.5018	1470.1776	1499.8954	1528.1639	1724.0471	2926.6243	2976.9927	3014.6839	3049.626	3087.0253	3089.1377	3115.0761	3155.6904	3175.9743	3181.8579
C1OC1C1OCCC=C1	C1O[C@H]1[C@H]1OCCC=C1	
InChI=1S/C7H10O2/c1-2-4-8-6(3-1)7-5-9-7/h1,3,6-7H,2,4-5H2	InChI=1S/C7H10O2/c1-2-4-8-6(3-1)7-5-9-7/h1,3,6-7H,2,4-5H2/t6-,7+/m0/s1
