16
gdb 11307	3.76249	1.63153	1.33234	2.1822	61.49	-0.2514	-0.0312	0.2202	940.9264	0.129149	-420.885377	-420.877423	-420.876479	-420.918612	27.715	
C	-0.0495733556	 1.47439999	-0.0103061314	-0.406896
C	 0.0994387275	-0.0228405734	 0.1032812102	 0.221493
O	 0.639085834	-0.5609563409	-1.0910096457	-0.248195
C	 1.2658441436	-1.7783804752	-0.741823108	-0.127839
C	 1.5313347052	-1.6314464834	 0.7988357554	-0.013568
O	 1.0373926125	-0.3542703637	 1.1145827035	-0.238361
C	 0.8389680048	-2.7468576111	 1.5696334098	 0.143335
O	-0.1523023948	-2.6083621885	 2.2336348119	-0.231438
H	 0.9211270186	 1.9251056768	-0.2297184128	 0.132458
H	-0.7504233143	 1.7180541928	-0.8123687522	 0.131824
H	-0.4333017787	 1.8803885591	 0.9286026768	 0.135934
H	-0.8625652398	-0.5133948598	 0.3298376541	 0.083323
H	 0.6167896336	-2.6397313217	-0.9582857616	 0.108682
H	 2.1864759282	-1.8805502304	-1.3213802838	 0.124835
H	 2.6034088724	-1.66636809	 1.0289073245	 0.108432
H	 1.3291910929	-3.7427955906	 1.4466367294	 0.075981
49.208	99.9313	130.1143	210.8814	236.41	314.322	352.5458	500.6065	682.4582	696.8567	747.083	831.7439	866.0229	885.5035	917.6054	959.0371	1073.5168	1099.0711	1125.9406	1128.0648	1148.4789	1174.2603	1226.7189	1273.6819	1345.3885	1353.9291	1389.4985	1397.3744	1420.1039	1443.0738	1485.4165	1486.6589	1522.5266	1844.4716	2843.5335	2963.8343	2994.3011	3037.6456	3057.4334	3093.4913	3138.7711	3142.3409
CC1OCC(O1)C=O	C[C@H]1OC[C@@H](O1)C=O	
InChI=1S/C5H8O3/c1-4-7-3-5(2-6)8-4/h2,4-5H,3H2,1H3	InChI=1S/C5H8O3/c1-4-7-3-5(2-6)8-4/h2,4-5H,3H2,1H3/t4-,5-/m0/s1
