24
gdb 63397	3.90113	0.86414	0.85915	0.9825	91.01	-0.2285	0.0822	0.3107	1524.481	0.216427	-368.38014	-368.37048	-368.369536	-368.414575	37.442	
C	-0.2252133807	 1.4979711524	-0.0379266923	-0.435108
C	-0.0260127973	-0.0199870004	-0.0089726155	 0.350369
C	-1.3269522735	-0.743535299	-0.3413814821	-0.447213
C	 1.2338744609	-0.4656928004	-0.8214444925	-0.283797
C	 2.044286085	-0.519107403	 0.4977823871	 0.077584
C	 0.7110820302	-0.4940916005	 1.2864022401	-0.283797
N	 2.8701639867	-1.6970601929	 0.6867482347	-0.060919
C	 4.2647999838	-1.5825306828	 0.267461948	-0.224266
C	 3.9065640655	-1.6019957567	 1.7118171549	-0.224266
H	 0.699986743	 2.0341798353	 0.1987719962	 0.109423
H	-0.5573051968	 1.8307831358	-1.0282838822	 0.109655
H	-0.9836362237	 1.8076232425	 0.6906106668	 0.109655
H	-1.6893498937	-0.4674720224	-1.3390786552	 0.108954
H	-1.1929288583	-1.8300104575	-0.3227823036	 0.111019
H	-2.1152313912	-0.4906117491	 0.3780546386	 0.108954
H	 1.1181427259	-1.4710641504	-1.2355985297	 0.102298
H	 1.5875483277	 0.2073722163	-1.607601235	 0.087687
H	 2.6197625024	 0.4095987561	 0.6530253272	 0.048377
H	 0.6522284081	 0.156564508	 2.163515068	 0.087687
H	 0.4215883288	-1.5089016228	 1.5728337388	 0.102298
H	 4.6894602434	-2.4612755776	-0.2092953998	 0.114671
H	 4.5968388781	-0.6327065769	-0.1493241716	 0.108033
H	 3.9994138114	-0.6651684267	 2.2594116511	 0.108033
H	 4.0647966644	-2.4952173973	 2.3092652178	 0.114671
65.6682	77.4602	173.7163	223.0478	260.2492	269.5577	293.639	309.4395	374.0211	392.2093	432.1746	494.75	581.3957	703.7673	799.9631	833.7876	869.3348	872.3873	901.5933	918.2406	944.9476	963.3671	972.9472	1001.9391	1016.0362	1070.3129	1071.8533	1097.4023	1110.1981	1116.9017	1140.7852	1174.2062	1207.4383	1218.141	1229.7024	1236.6475	1288.4382	1301.4515	1308.4271	1323.0485	1384.6569	1402.5052	1420.3337	1469.3408	1483.7731	1484.3196	1489.5086	1498.0428	1502.4525	1507.1537	1516.173	2938.8086	3015.8278	3021.0842	3049.3326	3054.6695	3078.56	3085.8449	3090.8606	3092.019	3094.3482	3096.4817	3108.1174	3110.4473	3175.3982	3189.7052
CC1(C)CC(C1)N1CC1	CC1(C)CC(C1)N1CC1	
InChI=1S/C8H15N/c1-8(2)5-7(6-8)9-3-4-9/h7H,3-6H2,1-2H3	InChI=1S/C8H15N/c1-8(2)5-7(6-8)9-3-4-9/h7H,3-6H2,1-2H3
