15
gdb 10294	2.5989	1.7829	1.09952	1.0374	62.1	-0.254	0.0098	0.2638	1026.2034	0.118971	-396.020849	-396.011945	-396.011001	-396.054947	31.083	
N	 0.0605391092	 1.4547429042	-0.0569292935	-0.5192
C	 0.0106970479	-0.0016715498	-0.1098829351	-0.15864
C	-1.4318213375	-0.4942883005	 0.1512634513	-0.251645
C	-2.3445017631	-0.0585199773	-0.9029879629	 0.283469
N	-3.0634070764	 0.2531258128	-1.7542987377	-0.340774
C	-1.4414533908	-2.0280709685	 0.3853057285	 0.438136
N	-2.4255836614	-2.7251862568	-0.2305976843	-0.541876
O	-0.6073917246	-2.5285162921	 1.1108435003	-0.359448
H	 1.0257019849	 1.7654121039	-0.0266940865	 0.238196
H	-0.3456686723	 1.8558569077	-0.8973940555	 0.241465
H	 0.3673144576	-0.4451245582	-1.0534203597	 0.102517
H	 0.619232242	-0.4160481107	 0.6961337029	 0.146572
H	-1.7613002842	-0.0338382421	 1.0905180849	 0.166475
H	-3.0759192091	-2.2947515718	-0.8663016275	 0.284636
H	-2.4557335122	-3.7222116208	-0.0928114953	 0.270116
39.53	102.5987	153.3076	191.8402	223.0509	261.0887	308.5148	368.1914	412.4988	517.0735	522.3215	585.0138	615.979	711.2186	823.4901	849.9788	923.8423	1017.0241	1049.5369	1106.0769	1120.1627	1180.0907	1220.0563	1314.4769	1345.0692	1353.0197	1409.3261	1511.0195	1620.7266	1664.1956	1806.2541	2344.2317	2972.9758	3054.9209	3118.6518	3499.4415	3579.4304	3596.7657	3729.3267
NCC(C#N)C(N)=O	NC[C@@H](C#N)C(=O)N	
InChI=1S/C4H7N3O/c5-1-3(2-6)4(7)8/h3H,1,5H2,(H2,7,8)	InChI=1S/C4H7N3O/c5-1-3(2-6)4(7)8/h3H,1,5H2,(H2,7,8)/t3-/m0/s1
