16
gdb 132798	2.2885	1.83673	1.02103	2.0068	77.64	-0.1935	0.0229	0.2164	1098.0348	0.125759	-442.099422	-442.091417	-442.090473	-442.131318	31.948	
N	 0.0113229305	 1.4019455718	 0.1489486799	-0.597428
C	-0.0242022119	 0.0103770431	 0.0656559687	 0.213087
C	-1.2220061725	-0.7159595711	 0.0262527914	-0.228945
C	-1.1872635305	-2.1057593422	-0.0040384889	-0.07834
C	 0.0152587694	-2.8039275658	 0.0089788627	-0.228945
C	 1.2278691558	-2.1025779239	 0.0481752443	 0.213087
N	 2.4660742376	-2.7406125706	 0.114676773	-0.597428
C	 1.1672572966	-0.7111596932	 0.0704368563	 0.169359
F	 2.3365325344	-0.0183326227	 0.0763657816	-0.115351
H	 0.8908268118	 1.8060077329	-0.1384715603	 0.251177
H	-0.775892628	 1.8650271536	-0.2807553522	 0.247658
H	-2.1668202131	-0.1829640815	 0.0248840321	 0.081807
H	-2.1203785141	-2.6584219168	-0.0369580702	 0.089619
H	 0.0289804709	-3.8885260029	-0.005772371	 0.081807
H	 2.4910545832	-3.6481680671	-0.3263645214	 0.247658
H	 3.2407804249	-2.1596981719	-0.1712820358	 0.251177
154.8084	238.5944	282.6708	294.8464	297.7731	315.931	331.0201	500.7584	501.7478	535.9538	559.2202	570.256	629.6539	655.3298	700.576	718.3977	771.0814	825.1301	832.7078	927.8681	1009.1232	1059.9524	1139.6475	1165.5167	1204.8783	1240.2788	1314.6935	1372.4878	1377.4609	1517.8102	1552.6896	1624.729	1635.5638	1652.1586	1676.109	3170.6468	3181.	3194.8957	3565.9549	3566.106	3667.9118	3668.0382
NC1=CC=CC(N)=C1F	Nc1cccc(N)c1F	
InChI=1S/C6H7FN2/c7-6-4(8)2-1-3-5(6)9/h1-3H,8-9H2	InChI=1S/C6H7FN2/c7-6-4(8)2-1-3-5(6)9/h1-3H,8-9H2
