22
gdb 100335	1.88932	1.26399	0.9108	4.8274	82.61	-0.2814	0.0296	0.3111	1394.1363	0.191445	-404.374547	-404.363491	-404.362547	-404.411017	39.974	
C	 0.3472525618	-0.5419567296	 1.7559540228	-0.421302
C	-0.1319742662	-0.2597042328	 0.3269916117	-0.199962
C	-1.6104913389	-0.6048389323	 0.0327841215	 0.342854
O	-2.4849532394	 0.0496777916	 0.9443548138	-0.455673
C	-2.0323829483	-0.1256740406	-1.3703266382	-0.188981
C	-2.0237163291	 1.3931906533	-1.5684009693	-0.398051
C	-1.8098988624	-2.1482065646	 0.1317043312	-0.395251
C	-3.1947891263	-2.570520633	-0.0604639989	 0.283964
N	-4.2853623453	-2.9205523907	-0.2132835472	-0.317197
H	 1.3851386056	-0.2186348098	 1.8756433036	 0.129126
H	-0.2422439463	 0.0114763706	 2.4955186399	 0.118941
H	 0.3111322692	-1.6045931791	 2.0169287857	 0.121886
H	 0.0046568324	 0.8058907321	 0.1227288283	 0.114861
H	 0.5019521016	-0.7987793074	-0.3878915487	 0.098222
H	-2.2740472127	-0.2326213031	 1.8400484002	 0.283832
H	-1.3802958793	-0.6079575345	-2.1089771241	 0.092419
H	-3.045562634	-0.4985177775	-1.5538501349	 0.130394
H	-2.452933591	 1.6447282859	-2.5426834304	 0.115135
H	-2.6189557625	 1.8845367749	-0.7956252161	 0.141937
H	-1.0139501384	 1.8135785948	-1.5413899144	 0.113329
H	-1.1818360893	-2.6529724467	-0.6110545799	 0.1493
H	-1.4826519312	-2.5066072415	 1.1139290533	 0.140214
44.6571	81.5043	91.9205	138.9387	214.1448	221.4477	245.0389	267.168	308.9023	342.4327	359.2973	392.9382	398.8353	418.0559	534.0847	603.5091	730.678	775.5174	789.5397	882.634	914.9346	969.4751	982.7555	992.1197	1033.1184	1054.1642	1084.2701	1113.1849	1182.5677	1185.776	1236.762	1303.376	1313.195	1334.2716	1351.6226	1382.2947	1400.1681	1410.8288	1419.2788	1462.1443	1477.8935	1480.2358	1501.7104	1503.708	1509.8686	1511.6237	2362.4399	3030.4637	3034.5126	3037.6196	3046.3799	3047.4568	3076.7752	3082.2668	3087.2331	3103.5636	3108.5949	3112.6344	3134.2785	3817.6659
CCC(O)(CC)CC#N	CCC(O)(CC)CC#N	
InChI=1S/C7H13NO/c1-3-7(9,4-2)5-6-8/h9H,3-5H2,1-2H3	InChI=1S/C7H13NO/c1-3-7(9,4-2)5-6-8/h9H,3-5H2,1-2H3
