18
gdb 23319	3.57249	1.20178	0.9965	1.31	74.49	-0.2429	0.0105	0.2533	1179.4692	0.148706	-439.044489	-439.036599	-439.035655	-439.077061	30.724	
O	-0.067859671	 1.3898970098	 0.003886419	-0.399635
N	 0.0485905372	-0.0108749304	 0.0566736591	-0.193558
C	-1.0805755706	-0.6039723485	-0.0066456039	 0.367159
C	-2.4383956414	 0.0431807804	-0.063214808	-0.307881
C	-3.2549348916	-0.3626302364	 1.1817503619	-0.243373
C	-3.2660550723	-1.8607106673	 1.3903863275	 0.066261
O	-3.489948711	-2.659853209	 0.223328754	-0.257203
C	-2.19444129	-2.7056105737	 0.8379661836	 0.03908
C	-1.0471631244	-2.1133660667	 0.0336083297	-0.304301
H	 0.8522101016	 1.66602641	 0.0649484246	 0.305388
H	-2.3478891737	 1.1261803739	-0.1279221261	 0.133608
H	-2.9633006947	-0.3152484305	-0.9555991776	 0.128814
H	-2.8319224082	 0.1091275436	 2.077427319	 0.116479
H	-4.2846326591	 0.0016462163	 1.0874551629	 0.111381
H	-3.7958430576	-2.210634099	 2.2775147184	 0.088682
H	-1.9786578116	-3.657085714	 1.3238962683	 0.096588
H	-1.1167979845	-2.5140982214	-0.987557478	 0.130216
H	-0.0861535871	-2.4404161873	 0.4391062157	 0.122295
64.2628	153.4056	283.2549	296.2384	329.8465	340.0984	374.949	411.5553	534.4878	576.2651	598.6054	703.8618	772.4461	798.2014	811.3438	886.4701	927.1551	954.4432	983.4666	1006.9071	1036.4066	1041.5805	1081.6402	1151.5072	1187.0991	1228.0761	1243.2034	1273.0024	1289.3609	1329.0702	1346.9501	1375.3703	1380.4116	1417.4906	1455.9254	1468.6381	1483.0803	1486.1255	1737.5505	3014.8323	3030.1117	3052.0394	3071.5405	3094.6558	3099.536	3114.5796	3150.922	3826.4637
ON=C1CCC2OC2C1	ON=C1CC[C@H]2O[C@H]2C1	
InChI=1S/C6H9NO2/c8-7-4-1-2-5-6(3-4)9-5/h5-6,8H,1-3H2	InChI=1S/C6H9NO2/c8-7-4-1-2-5-6(3-4)9-5/h5-6,8H,1-3H2/t5-,6+/m1/s1
