17
gdb 71163	2.71193	1.88838	1.48259	0.8436	71.1	-0.2287	0.0784	0.3071	929.595	0.134525	-421.732693	-421.725278	-421.724334	-421.764202	29.525	
C	-0.0683495172	 1.5152148657	 0.010874643	-0.525825
C	 0.0771275155	 0.0310971921	 0.0696499783	 0.297288
O	-1.1713496815	-0.7280306581	 0.1824038556	-0.324591
C	-0.3962595015	-1.7527419352	 0.8088479908	 0.093316
C	 0.9258263023	-1.9031423699	 0.0371561559	-0.254367
C	 0.7475483111	-0.8878219277	 1.1788338183	-0.191192
C	 0.8567314124	-0.7913233136	-0.9768152779	 0.500119
C	 0.9250722911	-0.7037912819	-2.428691698	-0.279269
O	 2.0164221844	-0.2582351433	-1.5866905823	-0.289345
H	 0.9065055315	 1.9754980684	-0.1730568145	 0.14387
H	-0.7416338427	 1.7898044478	-0.8083276914	 0.135584
H	-0.4845656159	 1.908838784	 0.9417257093	 0.132977
H	-0.9026468762	-2.5606859273	 1.3201609628	 0.114195
H	 1.5167123053	-2.8088029854	 0.0225123541	 0.102031
H	 1.3080178182	-0.7009770753	 2.0835198263	 0.10955
H	 1.1347395522	-1.5949690267	-3.01821805	 0.118379
H	 0.3955499011	 0.0878257462	-2.95668389	 0.117279
147.8011	191.9791	199.8653	244.6117	319.461	394.7963	482.3568	588.4705	619.7313	651.5446	767.0274	780.3934	794.7509	809.7572	857.9189	880.6468	891.1191	940.8407	984.6781	996.239	1024.6456	1035.6825	1058.748	1108.2389	1119.6435	1126.2077	1149.4466	1171.3097	1190.375	1253.0577	1340.8875	1362.8187	1419.9618	1453.0086	1478.911	1487.6807	1545.7855	3041.6661	3085.3041	3111.6428	3128.0606	3171.6877	3204.8304	3211.2835	3224.9001
CC12OC3C(C13)C21CO1	C[C@]12O[C@H]3[C@H]([C@@H]13)[C@]12CO1	
InChI=1S/C7H8O2/c1-6-3-4(5(3)9-6)7(6)2-8-7/h3-5H,2H2,1H3	InChI=1S/C7H8O2/c1-6-3-4(5(3)9-6)7(6)2-8-7/h3-5H,2H2,1H3/t3-,4+,5-,6+,7+/m1/s1
