19
gdb 57686	2.94648	0.8639	0.78672	4.3641	82.7	-0.2492	0.0175	0.2667	1503.5428	0.156099	-382.035735	-382.025241	-382.024297	-382.071566	37.974	
C	 0.1249880338	 1.5779787571	 0.0334886013	-0.410283
C	 0.0348995457	 0.0312234421	 0.0600612721	 0.075918
C	 0.8250070137	-0.5282093566	 1.2626409915	-0.394861
N	-1.3549747187	-0.4880264801	 0.0997455062	-0.318158
C	-2.2118106363	 0.0268176645	 1.1627562773	-0.281572
C	-3.5257727898	-0.621817883	 1.1083734872	 0.264063
N	-4.5712898196	-1.1097363715	 1.0570457646	-0.297763
C	 0.622564827	-0.490646454	-1.1812128333	 0.329602
C	 1.1035367493	-0.8925369017	-2.206061974	-0.458935
H	 1.1646958164	 1.8958354369	-0.0801027495	 0.133095
H	-0.4470650607	 1.9841292844	-0.8057784399	 0.123478
H	-0.2572172902	 2.0115427729	 0.9628645703	 0.116595
H	 0.4579298632	-0.1119137139	 2.2059590438	 0.113269
H	 0.7354355529	-1.6156219504	 1.2964987055	 0.141623
H	 1.8806569587	-0.2619322411	 1.172573331	 0.131081
H	-1.7944294313	-0.3300068946	-0.8006413074	 0.236313
H	-1.7642018527	-0.2047060813	 2.1353013033	 0.158745
H	-2.3811196517	 1.1168894369	 1.1457861432	 0.136281
H	 1.5296296002	-1.2583927165	-3.1077351633	 0.201509
45.4953	90.5187	100.2168	177.0901	194.4318	240.3405	256.1765	266.0991	359.0127	375.1245	399.1308	443.1619	479.7941	553.7551	595.1339	633.6829	663.9822	724.0387	751.1445	891.8133	922.7028	938.6706	984.5571	1013.1603	1040.0274	1103.1139	1163.5947	1209.7329	1237.4263	1272.6226	1374.1075	1392.2317	1414.7962	1477.2525	1481.3012	1490.9854	1495.0555	1501.997	1510.5822	2239.8284	2368.5689	2960.3446	3039.165	3047.3412	3070.053	3111.9149	3118.0276	3122.5402	3143.1962	3500.604	3534.0876
CC(C)(NCC#N)C#C	CC(C)(NCC#N)C#C	
InChI=1S/C7H10N2/c1-4-7(2,3)9-6-5-8/h1,9H,6H2,2-3H3	InChI=1S/C7H10N2/c1-4-7(2,3)9-6-5-8/h1,9H,6H2,2-3H3
