14
gdb 10786	4.76246	1.58851	1.22976	0.0809	65.88	-0.2581	-0.0958	0.1622	914.1856	0.107986	-382.594929	-382.588144	-382.5872	-382.626251	25.167	
O	 0.0460247978	-0.0628267472	 0.1304463933	-0.314258
C	-0.0149486092	 1.1425457279	 0.01357515	 0.379598
C	-1.332648079	 1.9006660495	-0.0410069877	-0.330592
C	-1.2700330406	 3.1499933287	-0.9341152052	-0.330594
C	-0.0448309412	 4.0109767353	-0.6664768635	 0.379596
O	-0.0527366179	 5.2185172753	-0.7763834423	-0.314254
C	 1.2020371474	 3.282643693	-0.3107443963	-0.141059
C	 1.2192629371	 1.971204642	-0.0279810575	-0.141056
H	-2.1187486767	 1.2101004342	-0.354084595	 0.135536
H	-1.5629724602	 2.2008293837	 0.9907803849	 0.141166
H	-1.2115420604	 2.8428635334	-1.9876726465	 0.141159
H	-2.1616725143	 3.7726755594	-0.8336276881	 0.135533
H	 2.1055462232	 3.8857361238	-0.3002214151	 0.129614
H	 2.141938564	 1.4419675008	 0.1927827591	 0.129612
73.6449	155.3518	257.3523	399.3264	417.6945	432.6335	492.2584	568.1774	652.063	719.9693	743.0322	748.646	876.3071	951.4561	992.0846	1027.2613	1045.7031	1102.9787	1155.7117	1217.7064	1220.982	1294.9661	1319.7488	1356.2403	1383.0785	1462.1134	1466.7093	1661.3995	1785.7378	1786.1424	3020.4591	3029.9486	3109.8797	3110.93	3171.6463	3190.9557
O=C1CCC(=O)C=C1	O=C1CCC(=O)C=C1	
InChI=1S/C6H6O2/c7-5-1-2-6(8)4-3-5/h1-2H,3-4H2	InChI=1S/C6H6O2/c7-5-1-2-6(8)4-3-5/h1-2H,3-4H2
