25
gdb 103633	2.05018	1.26638	1.17258	1.2174	88.59	-0.2486	0.0733	0.3219	1302.1101	0.227191	-389.490383	-389.479703	-389.478759	-389.52511	40.992	
C	-0.0415025591	 1.4689099378	-0.5125735112	-0.396685
C	-0.1882920067	-0.052424924	-0.3829033147	-0.225887
C	-1.5709558556	-0.5352245306	 0.09169134	 0.342507
C	-1.9454751357	 0.0464323608	 1.4538861882	-0.467463
C	-2.661840307	-0.4043415433	-1.0241387738	-0.298395
C	-2.4758973491	-1.9045190012	-1.3747338927	 0.099704
O	-1.5802229437	-2.1388065126	-2.4511013061	-0.427
C	-1.7475319814	-2.0981243582	-0.0197866743	-0.008361
C	-0.561827233	-3.0493215518	 0.0610787109	-0.415805
H	 0.933021671	 1.7245675387	-0.9404614064	 0.110242
H	-0.8087817971	 1.894942148	-1.1687326377	 0.112032
H	-0.1161214149	 1.9750431816	 0.4545741043	 0.115268
H	 0.0249763704	-0.5145498139	-1.3516274598	 0.112865
H	 0.5745421526	-0.4255777296	 0.3132207147	 0.088298
H	-2.0229127539	 1.1382946996	 1.4260900794	 0.114194
H	-2.9121301746	-0.3415518895	 1.7934028972	 0.10427
H	-1.1978573998	-0.2128010989	 2.2136942929	 0.109621
H	-3.655512337	-0.1934439313	-0.6168637721	 0.090807
H	-2.4615734773	 0.2996393098	-1.8378590775	 0.087272
H	-3.3962565961	-2.4888894639	-1.5129081053	 0.05618
H	-1.990954748	-1.8025171511	-3.25400217	 0.281539
H	-2.4990269884	-2.4007370109	 0.7190980297	 0.063647
H	 0.1794529072	-2.8421177228	-0.71276767	 0.13324
H	-0.0709314097	-2.9802854821	 1.0380626953	 0.107527
H	-0.8922128531	-4.0856366705	-0.0690415811	 0.110384
92.5275	130.6579	177.5403	199.5278	212.4076	226.3253	248.2496	269.1835	290.2662	319.1702	352.0215	371.2758	436.2845	490.005	543.1624	663.739	731.0683	795.4274	821.7275	852.3526	885.1071	905.3169	969.2072	990.9367	1016.1711	1023.6916	1043.3642	1062.7445	1091.4986	1124.1408	1167.4361	1183.1974	1192.6815	1223.091	1249.9074	1262.6944	1306.2889	1314.5238	1348.9995	1372.0989	1378.1905	1403.9993	1411.0489	1415.2068	1420.0323	1468.9353	1484.6055	1492.865	1495.5698	1497.1344	1503.0289	1509.1599	1514.1294	2991.5512	3018.5104	3022.0097	3029.9559	3034.4406	3036.9531	3044.9411	3078.4846	3083.573	3091.1253	3093.7184	3095.5774	3098.4173	3109.7047	3132.8358	3813.7805
CCC1(C)CC(O)C1C	CC[C@@]1(C)C[C@@H](O)[C@H]1C	
InChI=1S/C8H16O/c1-4-8(3)5-7(9)6(8)2/h6-7,9H,4-5H2,1-3H3	InChI=1S/C8H16O/c1-4-8(3)5-7(9)6(8)2/h6-7,9H,4-5H2,1-3H3/t6-,7-,8+/m1/s1
