18
gdb 131805	5.51427	0.63547	0.60978	4.319	73.98	-0.2546	-0.0087	0.2459	1783.7373	0.147649	-439.072957	-439.063991	-439.063047	-439.108316	31.529	
O	-0.0262215989	 1.4456356626	-0.1874881457	-0.420214
C	 0.0457194975	 0.041177949	-0.0041493404	-0.072143
C	-1.3748908525	-0.5066211143	-0.0428511146	-0.158565
C	-1.4247409732	-2.033613531	 0.1386404765	-0.346426
C	-2.8156559639	-2.589715144	 0.0842169247	 0.157022
C	-3.5713797538	-3.1205954513	 1.08213983	-0.011577
O	-4.7776877643	-3.4965699246	 0.6299829746	-0.16321
N	-4.8536508243	-3.2138343782	-0.7292046483	-0.131988
C	-3.6973915298	-2.6818023115	-1.0349948528	-0.035926
H	 0.8673435492	 1.7999405047	-0.1636415978	 0.287034
H	 0.6496300863	-0.4355652891	-0.7943657995	 0.084826
H	 0.5166030306	-0.2134560131	 0.9601292625	 0.084797
H	-1.9656008157	-0.0189381912	 0.7403998463	 0.114602
H	-1.8316749546	-0.225030485	-0.9986341128	 0.112382
H	-0.8097833753	-2.5097178531	-0.6363617714	 0.113702
H	-0.9678340665	-2.303928459	 1.0978617255	 0.108062
H	-3.38838544	-3.2938761034	 2.1317221561	 0.147671
H	-3.5175077808	-2.3773098875	-2.0572134031	 0.12995
38.501	80.576	91.5163	120.7439	249.2111	261.9037	311.9881	329.2944	469.0729	620.452	663.7923	726.3711	756.609	842.3894	866.5563	903.461	911.6173	938.0801	1017.6753	1022.7736	1039.5041	1084.0799	1092.9202	1151.2581	1200.9198	1214.5165	1232.4294	1278.9609	1299.4851	1312.0735	1314.2967	1381.7514	1401.4558	1466.098	1477.1166	1487.2863	1501.3234	1528.587	1653.5591	2955.1059	2979.5651	3018.9634	3042.8424	3056.837	3090.0131	3235.5909	3260.3836	3831.1088
OCCCC1=CON=C1	OCCCc1conc1	
InChI=1S/C6H9NO2/c8-3-1-2-6-4-7-9-5-6/h4-5,8H,1-3H2	InChI=1S/C6H9NO2/c8-3-1-2-6-4-7-9-5-6/h4-5,8H,1-3H2
