22
gdb 83236	2.38984	1.58255	1.3452	2.4189	81.44	-0.2145	0.0686	0.2831	1095.6727	0.193806	-404.329368	-404.320067	-404.319123	-404.362871	36.104	
C	-0.0256943006	 1.6405623146	-0.3692073142	-0.311902
N	 0.0769766804	 0.2331916626	-0.0183679198	-0.096095
C	 1.2778915302	-0.5688052092	-0.1479142242	-0.033172
C	 2.6447491841	 0.1057767902	-0.2137987824	-0.23476
C	 2.7436685318	 1.0001785818	 1.0451424957	-0.296616
C	 1.6425862127	 0.5192517508	 2.0391169393	 0.3916
C	 2.2274156776	-0.3684580688	 3.1445635115	-0.437295
O	 0.9193106151	 1.6066346185	 2.6229667277	-0.475473
C	 0.6669440872	-0.2959810706	 1.1943477224	-0.050275
H	 0.9155247763	 2.2050886171	-0.3731187431	 0.101149
H	-0.4595044934	 1.7101656381	-1.3727981154	 0.113547
H	-0.7033022143	 2.1288918926	 0.3348161086	 0.13712
H	 1.1545780207	-1.516600478	-0.6683553802	 0.081724
H	 3.4161551505	-0.6721390801	-0.2044250966	 0.102439
H	 2.7878181879	 0.6748049397	-1.1395496633	 0.10374
H	 3.7385249919	 0.9485569424	 1.4987865813	 0.091543
H	 2.5568840659	 2.0499910495	 0.8089128175	 0.111435
H	 2.9427405412	 0.1988796822	 3.7524781038	 0.102827
H	 1.4353939284	-0.7378288632	 3.8024233894	 0.124537
H	 2.7599120564	-1.2278912274	 2.7238224948	 0.120124
H	 1.5162351207	 2.0749907408	 3.2163870506	 0.273679
H	 0.0524020891	-1.0188956937	 1.7278941768	 0.080124
86.8779	114.5867	194.929	212.549	261.2156	274.1009	291.4119	354.4338	381.1827	425.3787	452.5682	555.162	598.2041	699.1374	739.9507	778.0395	819.7358	850.8809	921.7265	936.4604	965.3296	978.6231	1009.2827	1037.3647	1086.993	1097.2065	1135.5288	1144.5443	1170.2022	1175.3474	1194.6903	1228.761	1238.4089	1295.216	1316.2048	1327.2756	1345.9337	1389.6401	1404.4792	1416.1073	1461.6119	1480.6014	1482.6716	1489.201	1495.8624	1500.3294	1520.8313	3014.4962	3023.025	3035.2383	3053.5769	3066.369	3068.2732	3089.9718	3105.435	3112.2428	3115.9076	3121.7622	3125.0006	3802.925
CN1C2CCC(C)(O)C12	CN1[C@H]2CC[C@@](C)(O)[C@@H]12	
InChI=1S/C7H13NO/c1-7(9)4-3-5-6(7)8(5)2/h5-6,9H,3-4H2,1-2H3	InChI=1S/C7H13NO/c1-7(9)4-3-5-6(7)8(5)2/h5-6,9H,3-4H2,1-2H3/t5-,6-,7+,8?/m0/s1
