17
gdb 50036	3.60451	1.05577	0.96786	3.1866	77.14	-0.2485	-0.0413	0.2073	1245.3032	0.134989	-421.828399	-421.820245	-421.819301	-421.86228	29.987	
O	-0.8105022116	 0.8795362246	 0.6796038771	-0.250964
C	 0.1144194296	 1.0157808864	-0.0809075806	 0.146729
C	 1.1615575822	 2.0667581995	 0.0703672427	-0.143796
O	 2.3937305117	 1.8171950469	-0.6156643864	-0.284313
C	 1.57972716	 2.8820392225	-1.1070195428	 0.416808
C	 0.9855378398	 2.7768623646	-2.5207732381	-0.322682
C	 1.1195570762	 4.2014937976	-3.1250745019	-0.269884
C	 1.8352528648	 4.9897824733	-2.0560616347	-0.068581
C	 2.0764662231	 4.2738197887	-0.9588291657	-0.130555
H	 0.2607686961	 0.3591224821	-0.9666387191	 0.087954
H	 1.2428300567	 2.5001167325	 1.06682455	 0.111231
H	 1.5583999391	 2.0384700996	-3.087717329	 0.130936
H	-0.0540863762	 2.4435470977	-2.5085854029	 0.121123
H	 1.6763006461	 4.2063653785	-4.0695221128	 0.11871
H	 0.139739071	 4.640137416	-3.3487947296	 0.120148
H	 2.1094772543	 6.0299656214	-2.192130427	 0.10789
H	 2.5758583771	 4.6116408781	-0.0592348093	 0.109246
34.7164	94.7027	138.606	228.5272	303.7013	376.6904	394.0748	484.6369	524.0194	548.1474	738.8521	755.7385	803.7135	819.8133	859.4305	923.3753	952.4889	977.2449	997.034	1013.4854	1052.8124	1079.7373	1118.5388	1121.0435	1178.5333	1217.3348	1250.6309	1267.1357	1286.4355	1331.4904	1349.3742	1394.8893	1447.592	1476.2301	1497.4913	1680.3933	1821.0131	2894.4656	3032.4442	3057.1344	3072.3856	3116.3159	3125.668	3193.4935	3221.5213
O=CC1OC11CCC=C1	O=C[C@H]1O[C@]21CCC=C2	
InChI=1S/C7H8O2/c8-5-6-7(9-6)3-1-2-4-7/h1,3,5-6H,2,4H2	InChI=1S/C7H8O2/c8-5-6-7(9-6)3-1-2-4-7/h1,3,5-6H,2,4H2/t6-,7+/m1/s1
