21
gdb 109592	1.99472	1.63222	1.1911	1.7251	74.78	-0.2364	0.0608	0.2973	1155.8518	0.181468	-461.338598	-461.328929	-461.327984	-461.372503	36.505	
C	-0.3345544491	 1.3218696742	-0.1382965299	-0.24798
O	 0.0779321985	-0.0267842053	 0.0356448115	-0.260628
C	 0.757606813	-0.5616465151	-1.0881911673	 0.030422
C	 1.1957212612	-2.0168441871	-0.7591207991	-0.034065
C	 1.6250402028	-2.3829393046	 0.6527841922	-0.407552
C	-0.1734162545	-2.5005091799	-1.3202752798	 0.062995
O	-1.2253455631	-2.5354621803	-0.3663627417	-0.452209
C	-0.2391347055	-1.1757583751	-2.1381497098	 0.128303
O	-1.5081542454	-0.6127386017	-2.2989441308	-0.438085
H	 0.5365168052	 1.9748659025	-0.2951297183	 0.108879
H	-1.0202839321	 1.4244479738	-0.9848070153	 0.140762
H	-0.8378427718	 1.621838677	 0.7841216946	 0.124547
H	 1.5192557842	 0.1452786165	-1.4438532523	 0.060024
H	 1.9727806339	-2.3053452295	-1.4757028225	 0.083621
H	 0.8717762852	-2.1014163208	 1.3912577149	 0.124647
H	 1.794842733	-3.4610852475	 0.7360597018	 0.119141
H	 2.5559480413	-1.8722186505	 0.9193005186	 0.117679
H	-0.2101780776	-3.4506237857	-1.8577216683	 0.079827
H	-1.0907776499	-1.7753953664	 0.2195206133	 0.292269
H	 0.2445644494	-1.2681440646	-3.1167149415	 0.081165
H	-2.0688566188	-1.06956821	-1.6541605504	 0.286239
121.3925	153.0386	172.2862	177.3924	203.2421	224.9406	255.0405	268.8188	340.0053	420.3843	467.459	506.4723	556.0339	630.8153	677.2221	763.8316	795.8468	859.8957	869.8202	947.4369	974.1011	1002.7318	1084.6793	1114.8692	1139.471	1140.0418	1157.5553	1183.2056	1183.7478	1215.0558	1236.8485	1254.4616	1268.9048	1313.0222	1334.4167	1372.0218	1374.0072	1413.3433	1429.3871	1459.328	1479.6179	1484.6048	1492.1339	1498.0622	1518.9559	2997.2787	3010.6953	3041.4363	3046.2432	3055.8081	3083.1499	3090.3714	3104.1895	3125.6463	3130.3454	3709.6451	3724.6685
COC1C(C)C(O)C1O	CO[C@H]1[C@@H](C)[C@@H](O)[C@H]1O	
InChI=1S/C6H12O3/c1-3-4(7)5(8)6(3)9-2/h3-8H,1-2H3	InChI=1S/C6H12O3/c1-3-4(7)5(8)6(3)9-2/h3-8H,1-2H3/t3-,4+,5+,6-/m0/s1
