15
gdb 53853	3.55551	0.90078	0.83436	1.239	68.44	-0.255	-0.0737	0.1813	1399.862	0.10809	-457.764524	-457.754696	-457.753752	-457.801121	33.275	
C	-0.2595362391	 1.2653355449	-0.1444172393	-0.472188
C	 0.4880457671	-0.0398887369	-0.0407937132	 0.284948
O	 1.0854931468	-0.4162713832	 0.9330314749	-0.259186
C	 0.4371646018	-0.9010974969	-1.3280447077	 0.358322
O	-0.1242117253	-0.542618824	-2.3322224308	-0.341164
O	 1.0950043687	-2.0550878558	-1.1703567501	-0.214421
C	 1.0984186938	-2.937796579	-2.3164495361	-0.222519
C	-0.0885998002	-3.7780088842	-2.3621840227	 0.32738
C	-1.0569985283	-4.4864118438	-2.4047580961	-0.451526
H	-1.3120724904	 1.0764689623	-0.3791478334	 0.159258
H	-0.1704143959	 1.8121691939	 0.7942027246	 0.144254
H	 0.1351725827	 1.8597138115	-0.9744888938	 0.158567
H	 1.1806890353	-2.3388386657	-3.2277778458	 0.162147
H	 2.0001755729	-3.5424226008	-2.1949996815	 0.154384
H	-1.91775138	-5.1075007523	-2.4467724691	 0.211744
31.5822	52.1771	65.5876	116.9843	190.2982	226.506	304.7546	341.6269	344.8175	428.5528	506.6533	558.625	621.4229	633.1797	692.0211	724.413	819.7716	923.671	963.9087	1012.4283	1037.8921	1040.3654	1150.816	1285.866	1303.0015	1386.0131	1402.0467	1452.6094	1460.5839	1467.2232	1809.4835	1832.5145	2246.5757	3049.7474	3066.2976	3111.2591	3116.862	3163.8277	3504.2467
CC(=O)C(=O)OCC#C	CC(=O)C(=O)OCC#C	
InChI=1S/C6H6O3/c1-3-4-9-6(8)5(2)7/h1H,4H2,2H3	InChI=1S/C6H6O3/c1-3-4-9-6(8)5(2)7/h1H,4H2,2H3
