20
gdb 112409	1.93264	1.5707	0.96392	2.5073	76.16	-0.2593	0.0242	0.2835	1254.147	0.1717	-440.309858	-440.30089	-440.299946	-440.34359	33.98	
C	-0.7107569973	 1.3256359573	-0.0260260213	-0.419979
C	 0.1236954275	 0.0460497062	-0.0517251329	-0.006842
C	 1.3128736371	 0.0529082564	-1.0265883341	-0.313059
C	 2.2615191723	-0.9616630097	-0.431790811	 0.407772
N	 3.2098609739	-1.5384230498	-1.0303273787	-0.537734
O	 1.928111367	-1.1764067983	 0.8832506394	-0.263057
C	 0.8078764781	-0.3438475647	 1.2774401642	 0.069074
C	 1.3581152061	 0.8002074925	 2.1289406193	-0.064291
O	 2.0900053915	 0.3023780234	 3.2288015953	-0.421889
H	-0.1001812104	 2.2046180626	 0.2036893164	 0.126619
H	-1.1770742762	 1.4948428915	-1.0013252519	 0.125841
H	-1.5131123946	 1.2665088755	 0.7166584073	 0.124006
H	-0.5304768606	-0.7901363986	-0.3262251325	 0.093941
H	 1.0550877154	-0.2070883126	-2.0537785572	 0.137868
H	 1.8023633385	 1.0342604403	-1.0498968685	 0.129907
H	 3.7022719029	-2.1727145392	-0.3985746999	 0.220429
H	 0.1702692921	-0.9699998103	 1.9088150242	 0.097666
H	 1.9725752892	 1.4710665205	 1.5056863788	 0.088847
H	 0.5330092906	 1.3915668047	 2.5382198048	 0.114079
H	 2.7176375968	-0.3360334679	 2.8694983384	 0.290802
89.463	117.2014	150.3227	189.8326	248.0265	272.0947	336.6832	428.6534	451.1281	476.5805	497.7667	534.1224	613.6324	681.3928	822.1659	867.8571	897.1807	904.3334	931.91	976.8043	1002.7698	1037.7035	1069.8422	1093.3779	1107.6556	1125.9977	1180.8549	1189.428	1227.2898	1268.2336	1296.2288	1309.8187	1358.8721	1364.4042	1387.3993	1402.6315	1419.0153	1439.7602	1477.2254	1498.0111	1501.4571	1507.231	1782.0439	2967.5893	3028.3611	3036.5542	3046.6073	3067.651	3083.5287	3104.6708	3108.7231	3128.1097	3468.8536	3792.427
CC1CC(=N)OC1CO	C[C@H]1C[C]([NH])O[C@H]1CO	
InChI=1S/C6H11NO2/c1-4-2-6(7)9-5(4)3-8/h4-5,7-8H,2-3H2,1H3	InChI=1S/C6H11NO2/c1-4-2-6(7)9-5(4)3-8/h4-5,7-8H,2-3H2,1H3/t4-,5-/m0/s1
