17
gdb 91225	2.226	1.61636	1.4824	3.2386	68.91	-0.2457	-0.0237	0.2219	996.2453	0.134199	-458.945797	-458.937233	-458.936289	-458.979119	32.234	
O	-0.0934066715	 1.4112038576	 0.6788799699	-0.426909
C	 0.0271841973	 0.1137388181	 0.1416766599	 0.062253
C	 0.4773382431	-1.0385152123	 1.0962400279	-0.265337
C	-0.9202761553	-1.6783114341	 1.0017666089	-0.107454
C	-1.9434944239	-1.063176639	 2.0025533336	-0.351422
C	-2.4764769922	-0.1972251917	 0.8555370383	 0.348514
O	-3.5568395748	 0.2615252414	 0.6003798438	-0.323767
C	-1.3466653533	-0.5575705172	-0.0965528038	 0.303145
O	-1.691622465	-0.7124235412	-1.4259070658	-0.477553
H	 0.7829049808	 1.806330627	 0.7284754716	 0.289235
H	 0.5835407616	 0.1133641721	-0.8043196468	 0.09237
H	 1.2729529273	-1.6498415052	 0.6634154759	 0.106939
H	 0.7795276039	-0.7161472362	 2.0962528222	 0.100806
H	-1.0148971423	-2.7451073523	 0.8100750608	 0.087485
H	-2.7024071321	-1.7440307128	 2.3965369004	 0.132853
H	-1.4996787101	-0.5080522181	 2.8327320031	 0.13276
H	-2.6498504336	-0.5985928761	-1.4876895897	 0.296083
63.5833	94.7171	217.6062	237.4591	255.8817	346.1385	369.3692	390.2552	426.6245	508.6454	519.2833	622.5083	686.948	772.8707	806.8227	838.5154	890.2939	939.4308	1000.6018	1017.6183	1035.8799	1062.6172	1107.4142	1108.6423	1139.3006	1172.8315	1203.936	1213.3574	1250.9739	1287.1511	1305.5423	1337.0519	1381.8778	1426.3425	1443.6708	1476.4463	1858.88	3023.1488	3057.9963	3066.6915	3112.1593	3119.8443	3139.6967	3753.7045	3816.3407
OC1CC2CC(=O)C12O	O[C@H]1C[C@H]2CC(=O)[C@@]12O	
InChI=1S/C6H8O3/c7-4-1-3-2-5(8)6(3,4)9/h3-4,7,9H,1-2H2	InChI=1S/C6H8O3/c7-4-1-3-2-5(8)6(3,4)9/h3-4,7,9H,1-2H2/t3-,4-,6-/m0/s1
