20
gdb 107281	3.37497	1.30261	1.15207	0.5041	78.12	-0.228	0.0525	0.2806	1151.8973	0.171266	-403.071642	-403.063547	-403.062603	-403.104382	31.571	
C	 0.0155262807	 1.4823000003	-0.2716020955	-0.37828
C	-0.1312284212	 0.003456851	 0.1128682941	-0.29815
C	 0.7498819043	-0.3748324492	 1.2699046364	 0.355104
C	 2.1379378328	-0.8485389407	 1.1555952889	-0.299542
N	 1.1185592065	-1.828307381	 1.6022399796	-0.208609
C	 0.759079334	-1.5518916403	 3.0513873211	-0.018217
C	 1.8050131172	-0.9673549248	 4.0126668418	-0.107694
O	 1.4835449529	 0.3864552529	 3.5875824117	-0.298453
C	 0.4056677742	-0.0968558543	 2.7508493335	 0.038277
H	 1.0420972747	 1.7101643938	-0.5753480536	 0.122389
H	-0.6496201195	 1.7388597653	-1.1013345458	 0.115964
H	-0.232819124	 2.1379455332	 0.5698653223	 0.12236
H	-1.1781907615	-0.2127458905	 0.3635037516	 0.09989
H	 0.1193887846	-0.638814854	-0.7390942393	 0.11066
H	 2.500807268	-1.0800790534	 0.1583465433	 0.119764
H	 2.8977243157	-0.4802648273	 1.8361036579	 0.132881
H	 0.0632721004	-2.3021235115	 3.4217360045	 0.093375
H	 1.5592439049	-1.1166471776	 5.0715458301	 0.10737
H	 2.8568055976	-1.2269757622	 3.8474162803	 0.111322
H	-0.5510763425	 0.3885814403	 2.9568085769	 0.079587
75.5019	121.7872	202.5529	240.0623	297.4902	338.3727	379.8393	456.0316	534.5084	647.3695	701.1267	762.688	784.6352	811.9678	873.7593	878.8296	930.2301	940.5036	956.6737	986.742	995.6441	1028.2317	1053.6793	1086.1487	1097.4637	1127.7686	1140.0436	1159.5462	1198.7591	1236.4703	1242.0265	1263.8183	1301.6965	1326.8706	1347.5619	1353.0853	1400.1812	1414.1855	1480.1688	1498.9556	1502.3929	1507.0013	1518.311	3018.3004	3020.1634	3036.3111	3064.0341	3066.4403	3084.1866	3104.8005	3111.6302	3126.7111	3131.9517	3211.8084
CCC12CN1C1COC21	CC[C@]12CN1[C@H]1CO[C@@H]21	
InChI=1S/C7H11NO/c1-2-7-4-8(7)5-3-9-6(5)7/h5-6H,2-4H2,1H3	InChI=1S/C7H11NO/c1-2-7-4-8(7)5-3-9-6(5)7/h5-6H,2-4H2,1H3/t5-,6+,7+,8?/m0/s1
