19
gdb 6786	7.45046	0.64691	0.60722	2.1901	68.91	-0.2443	0.0347	0.279	1769.5945	0.163651	-402.234027	-402.223783	-402.222839	-402.270966	34.678	
N	-0.0595481544	 1.3289171944	-0.2037424314	-0.522917
C	 0.0632109451	 0.0119014752	 0.142910267	 0.406827
O	 1.128162095	-0.4741934339	 0.4705411252	-0.356823
C	-1.2389774258	-0.7863190892	 0.0894443049	-0.315787
C	-0.9988183771	-2.2924596894	-0.0249086115	-0.169776
C	-2.2925089855	-3.1059292621	 0.0537409721	-0.173358
C	-2.0519702752	-4.6055542092	-0.0573558547	-0.074737
O	-3.3103493963	-5.2593085119	 0.0232529028	-0.422762
H	 0.7409598708	 1.9271289962	-0.079990134	 0.258593
H	-0.9530028603	 1.752726526	-0.381975674	 0.255748
H	-1.7959607574	-0.5658014518	 1.0112081517	 0.125279
H	-1.8649498367	-0.4249469698	-0.7360599802	 0.104638
H	-0.4809128412	-2.5019662413	-0.9691323561	 0.103434
H	-0.3052054252	-2.5909390675	 0.7677586112	 0.123306
H	-2.8092178915	-2.9078333951	 1.0014248582	 0.102282
H	-2.9839376226	-2.8074067177	-0.7445182608	 0.100367
H	-1.546217488	-4.8309354721	-1.0108105684	 0.084158
H	-1.3788772106	-4.933738033	 0.7515256585	 0.0868
H	-3.1604247831	-6.2070165478	-0.0378718006	 0.284728
25.018	56.1209	97.2834	115.1778	136.0523	175.4762	236.901	265.7728	300.9071	429.1026	487.7958	514.4697	618.9251	657.2439	743.7147	808.0298	852.4546	929.9399	1013.6962	1037.8112	1068.0127	1079.1221	1101.1746	1124.6105	1201.6025	1218.9286	1268.0317	1275.4027	1313.0932	1316.9083	1327.0352	1379.8535	1409.4165	1463.9721	1464.8548	1488.7277	1503.9517	1529.2268	1617.0202	1798.1843	2959.0662	2984.4437	3012.7917	3022.0349	3036.0955	3050.6121	3059.5572	3091.3358	3600.1066	3736.4106	3831.0145
NC(=O)CCCCO	NC(=O)CCCCO	
InChI=1S/C5H11NO2/c6-5(8)3-1-2-4-7/h7H,1-4H2,(H2,6,8)	InChI=1S/C5H11NO2/c6-5(8)3-1-2-4-7/h7H,1-4H2,(H2,6,8)
