13
gdb 22028	2.63583	1.60529	0.99833	4.4006	70.32	-0.2249	-0.0651	0.1598	1073.0305	0.088797	-485.955012	-485.947265	-485.946321	-485.987145	29.338	
N	 0.0587994862	 1.3157000874	-0.0048265805	-0.551571
C	 0.0408653597	-0.0461315607	 0.0287270312	 0.409583
N	-1.0990083869	-0.6591184726	 0.1187009734	-0.204991
O	-1.08485587	-2.058116563	 0.230056469	-0.223051
N	 0.0583110581	-2.7934998931	 0.2272801619	-0.057148
C	 1.1882560265	-2.18460357	 0.1084542639	-0.017002
C	 1.3161250684	-0.7529554825	-0.0133166302	 0.25612
N	 2.3927618258	-0.0563681046	-0.157459885	-0.250519
O	 3.5267735499	-0.8639838183	-0.2016460392	-0.381372
H	 0.9001073316	 1.7362898657	-0.3658298655	 0.275665
H	-0.8162177191	 1.7788415624	-0.1921266598	 0.268919
H	 2.0644670382	-2.8197491601	 0.1089063762	 0.159127
H	 4.2404566015	-0.2234949506	-0.2928442753	 0.31624
104.3925	215.3418	227.5054	269.6802	335.5653	378.0959	409.9369	472.7812	484.497	511.4911	561.3094	607.2257	619.6725	763.5124	786.6966	860.8478	911.8585	925.0822	945.1164	1034.1121	1163.0873	1271.0186	1326.5518	1386.7429	1499.6328	1607.4695	1618.6343	1637.8005	1689.7757	3227.2169	3589.4193	3714.6292	3820.5441
NC1=NON=CC1=NO	Nc1noncc1=NO	
InChI=1S/C3H4N4O2/c4-3-2(6-8)1-5-9-7-3/h1,8H,(H2,4,7)	InChI=1S/C3H4N4O2/c4-3-2(6-8)1-5-9-7-3/h1,8H,(H2,4,7)
