23
gdb 89155	2.24621	1.43674	1.1776	1.3228	85.29	-0.2456	0.0753	0.3209	1205.1422	0.204997	-388.272682	-388.263203	-388.262259	-388.306342	37.086	
C	 0.2771510653	 1.5762406461	-0.0938743547	-0.416616
C	 0.1302737254	 0.0672356128	 0.0422007135	 0.000152
C	 0.9618648126	-0.8763723775	-0.8777724964	-0.262238
C	 1.2545478398	-1.8081642722	 0.3327567896	-0.087346
C	 2.6441209139	-1.6278515632	 0.9586310702	 0.142885
O	 3.6999111471	-1.5412251949	 0.026303718	-0.433279
C	 2.1566078801	-0.3289336812	 1.6693697423	-0.347218
C	 0.681451339	-0.6864543187	 1.2874256943	 0.366047
C	-0.2608851657	-0.9562781036	 2.4411661492	-0.49824
H	 1.3239722479	 1.8924852809	-0.0386749901	 0.114494
H	-0.1139132516	 1.9173601179	-1.0590754396	 0.113997
H	-0.2746005402	 2.1064173227	 0.6910412926	 0.110255
H	-0.9320946048	-0.1919042204	-0.0519070859	 0.063336
H	 0.4126021551	-1.3345645128	-1.7028568832	 0.09393
H	 1.8691780418	-0.4212070362	-1.2824114238	 0.114202
H	 0.8435467602	-2.8176671047	 0.2781725803	 0.055674
H	 2.8391915489	-2.4221506465	 1.6942567429	 0.062592
H	 4.5126723293	-1.3577984449	 0.5078544096	 0.28134
H	 2.3599236589	-0.2700005648	 2.7420679364	 0.091858
H	 2.5390309997	 0.576993819	 1.1926117323	 0.09862
H	-0.5089639819	-0.0290189356	 2.9734269422	 0.114242
H	-1.2006125376	-1.3993076922	 2.0920800444	 0.111287
H	 0.1803424967	-1.6433655698	 3.1726519159	 0.110027
76.2129	176.3788	192.4394	217.3059	240.4282	262.9117	271.7566	295.5705	357.9636	418.9087	475.5521	531.5391	573.3945	617.5734	739.5031	790.7199	832.072	876.2608	878.4602	920.9292	929.0896	953.5777	1027.2815	1038.7801	1039.1776	1092.7797	1114.1717	1141.8462	1150.0783	1161.7184	1178.8881	1212.806	1232.6321	1241.6638	1258.707	1270.4087	1319.4911	1324.011	1339.7166	1379.9923	1405.4551	1411.1321	1421.8912	1477.5246	1490.4884	1492.7131	1493.0677	1496.4208	1501.8344	2982.5458	3012.0862	3015.7407	3025.9216	3056.3341	3066.8629	3074.0947	3084.6697	3087.0494	3088.9584	3096.842	3111.7385	3119.7618	3817.55
CC1CC2C(O)CC12C	C[C@H]1C[C@H]2[C@@H](O)C[C@@]12C	
InChI=1S/C8H14O/c1-5-3-6-7(9)4-8(5,6)2/h5-7,9H,3-4H2,1-2H3	InChI=1S/C8H14O/c1-5-3-6-7(9)4-8(5,6)2/h5-7,9H,3-4H2,1-2H3/t5-,6-,7-,8-/m0/s1
