13
gdb 128633	7.13377	0.90613	0.80814	4.7165	62.81	-0.2741	-0.0802	0.194	1320.2958	0.08821	-489.877194	-489.869144	-489.868199	-489.910579	27.232	
C	-0.0028712386	 1.3803523299	-0.0128911399	-0.255644
O	 0.0194555543	-0.0590496603	-0.0311790191	-0.248001
C	 0.6009827975	-0.6439782585	-1.0495179268	 0.535327
N	 0.7171228979	-1.9251924557	-1.2356140691	-0.396479
C	 1.393651821	-1.9587603801	-2.4294596108	 0.269625
C	 1.7654074074	-3.2545058827	-3.0667283204	 0.102468
O	 2.3564030655	-3.3539520462	-4.1087996257	-0.227431
N	 1.6831335087	-0.793432336	-2.9587087289	-0.159405
O	 1.1455402733	 0.1070108896	-2.0218542722	-0.206694
H	 1.0144094548	 1.7792854722	-0.0013610125	 0.157597
H	-0.5405892417	 1.7663643972	-0.8823682761	 0.157601
H	-0.5250038841	 1.6455589411	 0.9048009627	 0.159719
H	 1.435696104	-4.1294025305	-2.4713231012	 0.111315
74.7442	109.3691	151.5831	160.2458	229.0521	270.702	361.4665	405.3174	590.7776	678.9198	707.3705	772.4145	784.824	928.9849	997.0468	1029.4386	1039.1379	1115.4153	1176.9715	1201.4117	1337.7635	1361.6574	1437.1928	1473.4058	1488.1482	1494.7722	1540.1031	1665.1087	1829.0628	2942.3955	3054.6095	3134.1365	3175.9933
COC1=NC(C=O)=NO1	COc1nc(C=O)no1	
InChI=1S/C4H4N2O3/c1-8-4-5-3(2-7)6-9-4/h2H,1H3	InChI=1S/C4H4N2O3/c1-8-4-5-3(2-7)6-9-4/h2H,1H3
