16
gdb 11842	4.89392	1.3588	1.29269	3.1343	69.46	-0.2366	0.0154	0.252	975.755	0.131346	-342.756368	-342.749027	-342.748082	-342.788357	27.649	
N	-0.2448716357	-1.1753728458	-0.3289866254	-0.323615
C	-0.1288130788	-0.0375011452	-0.1570671909	 0.265647
C	 0.0536497519	 1.3995394917	 0.0476465755	-0.098488
C	-0.1505755739	 1.8666218586	 1.5253730034	-0.331195
C	 1.3730039988	 1.9998427313	 1.5798963534	 0.394323
C	 2.2212946267	 2.907978514	 2.4045858229	-0.319427
C	 2.3042304025	 1.3992193447	 2.5875835154	-0.325544
N	 1.4727641557	 1.8486064963	 0.1179903844	-0.35956
H	-0.5280792699	 1.9371457738	-0.7072170011	 0.12509
H	-0.6870567022	 2.8151513312	 1.5889798277	 0.124616
H	-0.6063357976	 1.1370539235	 2.1944071483	 0.132824
H	 3.0503030066	 3.4026022331	 1.9090995836	 0.123127
H	 1.7455335428	 3.4967236845	 3.1825304313	 0.117835
H	 1.8844211665	 0.9597451017	 3.4870125113	 0.121388
H	 3.1938998585	 0.8961542442	 2.220687477	 0.119227
H	 2.143350828	 1.1557176524	-0.2007450569	 0.233754
49.1864	162.6855	231.6181	289.7176	304.8838	410.5289	467.1902	561.0549	615.2239	722.7488	759.6809	789.7773	838.9091	899.1724	919.0645	930.6021	979.3669	1009.9457	1051.9092	1061.1761	1072.8183	1087.3041	1153.1715	1184.78	1214.4848	1251.0459	1287.2023	1300.9319	1372.9699	1407.8632	1455.2797	1484.4975	1503.0205	2346.778	3060.1946	3083.7221	3121.4428	3127.37	3146.0085	3202.1358	3218.3359	3518.3325
N#CC1CC2(CC2)N1	N#C[C@H]1CC2(CC2)N1	
InChI=1S/C6H8N2/c7-4-5-3-6(8-5)1-2-6/h5,8H,1-3H2	InChI=1S/C6H8N2/c7-4-5-3-6(8-5)1-2-6/h5,8H,1-3H2/t5-/m1/s1
