20
gdb 82193	2.48007	1.77952	1.37772	1.2795	77.37	-0.2244	0.059	0.2834	1020.4748	0.171557	-403.103797	-403.095642	-403.094698	-403.135886	32.79	
C	-0.0671353533	 1.4947733525	-0.0222812969	-0.495395
C	 0.0019102816	-0.0132581078	 0.0040080979	 0.371827
C	-0.8290109326	-0.8066039854	 0.9849110677	-0.338998
C	 0.6783140599	-0.8122716381	 1.0920979116	-0.051947
N	 1.5134869985	-1.8779777148	 0.5281209631	-0.101713
C	 0.8307978466	-3.0037842658	-0.1198711555	-0.253203
C	 1.30872774	-1.8553833281	-0.9324499634	-0.052523
C	 0.3166789404	-0.7442165459	-1.311518597	-0.005784
O	-0.8933572287	-1.2041530043	-1.9068736611	-0.427765
H	 0.8579479418	 1.9326624963	-0.4156637659	 0.115036
H	-0.8958417852	 1.8395897533	-0.6513366233	 0.127474
H	-0.2248994125	 1.8978009446	 0.9830029066	 0.115423
H	-1.3575560753	-0.2383081679	 1.7443672683	 0.106577
H	-1.3746568663	-1.6718775125	 0.632663702	 0.128359
H	 1.1328408111	-0.3283021413	 1.950252094	 0.091851
H	 1.398067616	-3.9309438445	-0.1190172205	 0.112689
H	-0.2375520607	-3.1338482596	 0.0102820429	 0.125633
H	 2.2024153315	-1.9595538648	-1.5442831242	 0.084001
H	 0.8198497669	-0.0412716925	-1.9920662773	 0.065302
H	-0.6625741394	-1.6985913433	-2.6999316792	 0.283155
130.8171	198.5964	213.2933	244.0083	269.2298	300.3734	404.6669	429.8984	498.3913	558.957	621.7892	661.688	735.027	765.9929	823.3263	848.1068	873.3405	934.107	955.3335	964.6181	1008.6675	1038.4649	1043.4852	1069.6673	1092.2144	1100.5687	1117.8476	1123.4622	1134.2361	1160.0387	1212.9566	1263.0038	1282.2391	1304.8038	1332.15	1383.3791	1389.3047	1417.4231	1424.5729	1485.3306	1488.7889	1502.3111	1519.9235	2986.5653	3022.3834	3082.7935	3099.4867	3115.6202	3124.0391	3136.2953	3159.7164	3206.6395	3229.5425	3815.1541
CC12CC1N1CC1C2O	C[C@]12C[C@H]1N1C[C@H]1[C@H]2O	
InChI=1S/C7H11NO/c1-7-2-5(7)8-3-4(8)6(7)9/h4-6,9H,2-3H2,1H3	InChI=1S/C7H11NO/c1-7-2-5(7)8-3-4(8)6(7)9/h4-6,9H,2-3H2,1H3/t4-,5+,6+,7-,8?/m0/s1
