17
gdb 29783	2.47556	1.54062	0.95934	0.4154	72.97	-0.1627	0.0598	0.2226	1185.2543	0.13513	-455.157047	-455.147142	-455.146198	-455.191656	35.62	
C	-0.015659526	 1.4599507779	 0.0034971279	-0.339756
N	-0.0251512006	 0.0154917744	-0.0044576873	-0.054386
C	-0.0107413164	-0.7960400069	-1.1424263494	-0.212573
C	 0.0761768227	-2.107162651	-0.7357599301	 0.160175
N	 0.1750153269	-3.282024497	-1.5073057966	-0.619104
C	 0.1377989558	-2.0952405006	 0.6904278573	 0.05922
O	 0.1515908464	-3.1789532651	 1.551475344	-0.466621
C	 0.0734084406	-0.7829904972	 1.0935663997	 0.327005
O	 0.0752165594	-0.2433131405	 2.3390940839	-0.45201
H	 0.9807488854	 1.8667691775	-0.2110347657	 0.129737
H	-0.715804714	 1.839410794	-0.7466128436	 0.1318
H	-0.3301472665	 1.8135614923	 0.9865020094	 0.154388
H	-0.0585818646	-0.3576347603	-2.1251820602	 0.099323
H	-0.1503156331	-3.1446100421	-2.4561835694	 0.237533
H	-0.3611899295	-4.0347430653	-1.0891878966	 0.24106
H	 1.00363633	-3.6223824681	 1.4662684828	 0.296388
H	 0.0585316334	-0.9862805618	 2.9542686241	 0.307823
67.3483	113.4637	138.0942	189.5513	219.4838	277.0373	279.4975	286.8202	308.1773	335.2161	385.8613	556.8184	568.7045	594.9252	614.3611	625.8287	673.6347	757.2558	816.1644	939.424	1066.1745	1113.9957	1136.6565	1155.0191	1214.8484	1239.3701	1290.4314	1311.9643	1393.0727	1446.9447	1468.9464	1492.4457	1511.1167	1586.9745	1608.105	1643.2641	1680.795	3018.8537	3084.826	3143.4227	3266.5611	3512.0056	3605.6124	3769.8964	3806.1729
CN1C=C(N)C(O)=C1O	Cn1cc(N)c(O)c1O	
InChI=1S/C5H8N2O2/c1-7-2-3(6)4(8)5(7)9/h2,8-9H,6H2,1H3	InChI=1S/C5H8N2O2/c1-7-2-3(6)4(8)5(7)9/h2,8-9H,6H2,1H3
