17
gdb 80505	2.28473	1.4628	1.24258	3.6776	74.43	-0.2608	-0.0081	0.2527	1087.6852	0.135625	-417.971077	-417.962462	-417.961518	-418.004065	32.204	
C	-0.1036034781	 1.5836672081	-0.0350288731	-0.441453
C	 0.0295329	 0.0834497013	 0.1066757161	-0.024887
N	 1.1969773253	-0.7176699282	-0.2880416658	-0.169125
C	 2.4345946149	 0.0657003096	 0.0724493001	-0.185502
C	 2.1013302752	 0.037912828	 1.5758591552	 0.033229
O	 2.0931324528	 1.2886689867	 2.2105640175	-0.412584
C	 0.7628057286	-0.6302871778	 1.1933260259	 0.141032
C	 0.1992858783	-1.7278727985	 1.917376352	 0.195885
N	-0.2446521924	-2.5872066364	 2.5536872708	-0.338029
H	 0.6957257732	 2.1357772946	 0.4556426067	 0.157348
H	-0.1357420192	 1.855048629	-1.0959207289	 0.131931
H	-1.0497251337	 1.8994721174	 0.4153677402	 0.133649
H	-0.8702890503	-0.4536044901	-0.188950546	 0.121434
H	 3.3228102262	-0.5062298593	-0.1961189908	 0.127733
H	 2.4882940207	 1.0579451982	-0.3797528525	 0.127032
H	 2.7311134389	-0.6811158255	 2.1123567686	 0.106497
H	 1.9021750197	 1.1638703726	 3.1463692741	 0.29581
126.8568	141.7084	161.4885	200.7274	256.7149	275.8327	334.0999	374.6414	456.868	525.9398	533.9087	556.5726	671.1144	725.1348	742.6927	853.1331	896.0508	946.2715	986.4044	1045.0194	1077.5416	1115.6656	1136.985	1143.1228	1197.0197	1222.1846	1239.9941	1286.351	1306.2538	1338.5915	1411.0136	1428.0826	1450.7876	1490.4274	1500.5388	1514.6924	2340.2064	3039.3463	3044.9213	3083.7939	3103.7901	3126.6063	3141.7175	3169.4157	3812.1192
CC1N2CC(O)C12C#N	C[C@H]1N2C[C@@H](O)[C@@]12C#N	
InChI=1S/C6H8N2O/c1-4-6(3-7)5(9)2-8(4)6/h4-5,9H,2H2,1H3	InChI=1S/C6H8N2O/c1-4-6(3-7)5(9)2-8(4)6/h4-5,9H,2H2,1H3/t4-,5-,6-,8?/m1/s1
