17
gdb 43479	2.31129	1.89674	1.15829	0.8519	74.64	-0.2535	-0.0063	0.2472	1041.8015	0.138974	-418.057186	-418.049788	-418.048844	-418.089654	28.481	
N	-0.05471578	 1.2465913895	 0.3176354796	-0.535244
C	 0.0165107514	 0.0132357549	 0.028468684	 0.376651
N	 1.1488040037	-0.7710466102	-0.2118929156	-0.358338
C	 0.9047012338	-2.0907189916	-0.5812852481	 0.403575
O	 1.7580044587	-2.90801543	-0.8242622738	-0.359222
C	-0.6076006245	-2.2693312352	-0.5949574555	-0.151918
C	-1.1812882892	-2.984543137	 0.6662946603	-0.229031
C	-1.6219072002	-1.604679204	 1.2345190672	-0.225473
C	-1.1723599702	-0.9121791231	-0.0965086376	-0.073788
H	 0.8682481708	 1.6807806928	 0.3783643903	 0.2099
H	 2.0941863313	-0.4215814526	-0.1473704849	 0.258457
H	-0.9261132659	-2.6617181673	-1.5616057581	 0.107058
H	-2.018076768	-3.6434456991	 0.4271187123	 0.115565
H	-0.456203498	-3.5512341279	 1.2540442672	 0.121817
H	-2.6868655834	-1.5087221771	 1.4507789653	 0.117067
H	-1.0640021651	-1.2686782305	 2.1109676581	 0.118373
H	-1.9762560553	-0.4457554915	-0.6636387409	 0.104551
55.9346	127.2596	223.1429	238.6708	370.1771	483.7212	588.0824	609.0199	625.8891	684.8664	718.5846	731.9827	800.6122	819.0513	842.1375	876.5833	913.4029	968.8486	984.6491	1020.0178	1046.6097	1101.9984	1119.048	1191.9393	1214.2996	1222.5406	1237.7167	1262.4189	1269.3337	1289.9484	1319.9413	1360.9137	1383.1657	1482.3791	1499.278	1759.7937	1846.6844	3073.3366	3078.9913	3104.7042	3118.5246	3127.5256	3139.6615	3452.3003	3617.0098
N=C1NC(=O)C2CCC12	[NH][C]1NC(=O)[C@H]2CC[C@@H]12	
InChI=1S/C6H8N2O/c7-5-3-1-2-4(3)6(9)8-5/h3-4H,1-2H2,(H2,7,8,9)	InChI=1S/C6H8N2O/c7-5-3-1-2-4(3)6(9)8-5/h3-4H,1-2H2,(H2,7,8,9)/t3-,4+/m1/s1
