20
gdb 40576	3.76403	1.36135	1.31217	1.2358	81.61	-0.222	0.0968	0.3188	1055.6091	0.172917	-365.922412	-365.915201	-365.914257	-365.954143	29.461	
C	 0.1064054509	 0.37777551	-0.6658541326	-0.215998
C	 0.6067221989	 1.3759000874	 0.3170995947	-0.228704
N	 0.9409472969	-0.0373770573	 0.4568076081	-0.09341
C	 0.3378774877	-0.7552692084	 1.566373937	 0.073538
C	-1.1725322831	-0.9746287628	 1.7558468844	-0.10775
C	-1.5519634886	-2.2664489657	 1.0115426501	-0.064472
C	-0.288235492	-2.8031368016	 0.338614864	-0.228241
C	 0.4662913348	-2.3026561321	 1.5993834554	-0.089422
C	-0.9124208479	-2.3297801331	 2.3747837595	-0.092539
H	-0.9537953199	 0.1389513164	-0.6318397291	 0.119831
H	 0.5632668798	 0.2938328872	-1.6483040261	 0.111665
H	 1.4332291565	 2.036522105	 0.0689365282	 0.112417
H	-0.1237600608	 1.8012778268	 1.0040957417	 0.106028
H	 0.7603529689	-0.3436077597	 2.4893767413	 0.07736
H	-1.9315635995	-0.262022262	 2.0539678464	 0.081114
H	-2.584629734	-2.4668479074	 0.7549980833	 0.082593
H	-0.304368546	-3.8959688345	 0.3001272425	 0.096845
H	 0.020992075	-2.4048769277	-0.6327623109	 0.099598
H	 1.3999292774	-2.7640677234	 1.9128559695	 0.069313
H	-1.2310780051	-2.7506085472	 3.3163653525	 0.090233
83.6375	161.1736	189.178	339.3959	364.513	487.1293	555.0458	730.0968	740.0539	786.2931	796.5195	804.9218	824.9265	844.9966	889.4959	904.4778	916.2444	971.3102	991.8766	1002.2766	1016.9268	1026.1367	1037.6649	1042.9771	1076.6191	1084.0646	1118.2395	1124.3884	1136.7317	1161.0598	1168.241	1176.8738	1187.7163	1216.4038	1246.4258	1274.8612	1312.1314	1341.2131	1360.6763	1386.875	1490.7539	1499.4924	1519.1137	3048.7844	3050.8486	3090.6773	3100.6339	3104.442	3141.9977	3172.1588	3185.3699	3191.2918	3194.6383	3231.8688
C1CN1C1C2C3CC1C23	C1CN1[C@H]1[C@H]2[C@H]3C[C@@H]1[C@@H]23	
InChI=1S/C8H11N/c1-2-9(1)8-5-3-4-6(5)7(4)8/h4-8H,1-3H2	InChI=1S/C8H11N/c1-2-9(1)8-5-3-4-6(5)7(4)8/h4-8H,1-3H2/t4-,5+,6-,7-,8+/m0/s1
