21
gdb 69494	3.03711	1.4674	1.22656	0.9082	81.35	-0.2383	0.082	0.3203	1110.8809	0.184006	-383.24711	-383.238742	-383.237798	-383.27937	33.536	
C	-0.0663724977	 1.5286938667	 0.0842442089	-0.465618
C	-0.0467185995	 0.0208669782	 0.0973165446	 0.343854
C	-1.3166057609	-0.741599289	-0.3017394867	-0.326606
C	-1.280837125	-2.0269986517	 0.5184631385	-0.063918
N	-1.3756825275	-1.9052392629	 1.9843264183	-0.376668
C	-0.0476947593	-2.0744419929	 1.3622299117	 0.322446
C	 0.7098302453	-3.3283283609	 1.7201600152	-0.466319
C	 0.7082446063	-0.7992610943	 1.0906673902	-0.155292
N	 1.2325862247	-0.6107444682	-0.2764999957	-0.375826
H	 0.9007572669	 1.9291597044	 0.3972103322	 0.130571
H	-0.2745093191	 1.9063242917	-0.9236369424	 0.120613
H	-0.8416295183	 1.9193656316	 0.7531363475	 0.111194
H	-2.217366343	-0.1537314056	-0.0826472285	 0.105077
H	-1.3349347004	-0.9492985887	-1.3794910041	 0.105125
H	-1.7318447487	-2.9279938882	 0.1127113828	 0.089984
H	-1.5262352501	-0.9319815754	 2.245396415	 0.223691
H	 0.0236340065	-4.1713014252	 1.831497924	 0.129586
H	 1.4511333952	-3.5763861048	 0.9525683977	 0.116079
H	 1.2424802789	-3.2019659342	 2.669544701	 0.121968
H	 1.3132911271	-0.3593231089	 1.8808058531	 0.08641
H	 1.0705222585	-1.4518092618	-0.8286804633	 0.223647
148.4678	182.6264	206.4538	212.3112	262.7759	350.7145	370.6148	405.8429	442.3077	499.204	561.6273	615.3233	737.1965	764.3331	818.04	840.7158	874.403	930.1498	938.3735	956.9659	1016.9555	1028.3312	1044.5681	1077.2267	1082.8911	1101.7638	1115.9252	1132.8111	1171.9867	1187.9584	1232.3385	1273.0356	1283.7104	1307.4342	1333.3579	1346.1254	1400.1684	1413.1399	1431.5792	1442.3182	1485.9408	1487.4264	1490.6127	1495.6877	1498.7526	3016.4545	3028.7722	3031.4676	3049.0033	3086.6953	3090.9129	3122.7617	3122.9561	3129.7429	3150.3479	3467.7967	3471.8523
CC12CC3NC3(C)C1N2	C[C@]12C[C@@H]3N[C@]3(C)[C@H]1N2	
InChI=1S/C7H12N2/c1-6-3-4-7(2,8-4)5(6)9-6/h4-5,8-9H,3H2,1-2H3	InChI=1S/C7H12N2/c1-6-3-4-7(2,8-4)5(6)9-6/h4-5,8-9H,3H2,1-2H3/t4-,5-,6-,7-/m0/s1
