18
gdb 41520	3.01204	1.6591	1.12715	2.9179	80.68	-0.2237	-0.0092	0.2146	1071.1962	0.150968	-398.13577	-398.128309	-398.127364	-398.167783	28.626	
C	 0.0335457851	 1.3848014169	-0.347352685	-0.179201
C	 1.4551961235	 1.4977463617	 0.2855803109	-0.350308
C	 1.3190493762	 0.0169774158	 0.6233959388	 0.418618
N	 2.0823180335	-0.8494801039	 1.1212953719	-0.332649
C	 1.6115146306	-2.2271235412	 1.1906284615	-0.181147
C	 0.1214779085	-2.4492469976	 1.563692412	-0.173194
N	-0.8943872135	-2.1648628436	 0.558191063	-0.247821
C	-0.9101745012	-1.0361008364	-0.0239293372	 0.072404
N	 0.0180438653	-0.0214461118	 0.0936184919	-0.103701
H	-0.7418077164	 2.0017373975	 0.1155295829	 0.123806
H	-0.001217413	 1.5044917017	-1.4345283829	 0.123621
H	 2.2637150583	 1.7354848751	-0.407091491	 0.136457
H	 1.5161599094	 2.1559131802	 1.1539954602	 0.13658
H	 1.8071926765	-2.7215376878	 0.2300659764	 0.118447
H	 2.223514463	-2.7489258291	 1.9352966733	 0.105967
H	 0.0091435085	-3.5010250065	 1.8484574877	 0.105739
H	-0.0916519314	-1.8576429895	 2.4655955505	 0.114092
H	-1.7275361728	-0.7940572215	-0.7061329449	 0.112291
110.8046	146.532	177.2249	259.481	334.2544	393.7343	494.9646	521.9409	584.8174	649.8277	734.0914	803.0467	834.7589	841.2445	917.1593	942.8861	947.2863	1027.559	1047.039	1074.5419	1082.5743	1132.6753	1147.8518	1151.8943	1193.2576	1227.2637	1242.6398	1292.3508	1309.2329	1337.3667	1359.6394	1402.4926	1421.5282	1471.3009	1486.4121	1488.4503	1521.3067	1714.6451	1807.5842	3006.2538	3020.4589	3047.1152	3057.0596	3062.3361	3089.0337	3095.8169	3111.8204	3143.8052
C1CC2=NCCN=CN12	C1CC2=NCCN=CN12	
InChI=1S/C6H9N3/c1-4-9-5-7-2-3-8-6(1)9/h5H,1-4H2	InChI=1S/C6H9N3/c1-4-9-5-7-2-3-8-6(1)9/h5H,1-4H2
