19
gdb 69063	2.5215	1.6249	1.22026	0.7256	87.61	-0.2275	0.0151	0.2426	1084.6162	0.158359	-348.728145	-348.719634	-348.71869	-348.760617	33.827	
C	-0.0331293916	 1.5636369009	-0.0127368036	-0.48099
C	 0.0373114136	 0.0562419053	-0.0118859986	 0.267364
C	-0.7902521663	-0.7583643549	 0.9533354852	-0.350062
C	 0.7247627977	-0.76805413	 1.1041597145	 0.126028
C	 1.4841204215	-1.9176096838	 0.4222965915	-0.340627
C	 1.1353187313	-1.759640687	-1.0399427699	-0.086769
C	 0.385971373	-0.6802018729	-1.2666941668	-0.127366
C	 1.305146909	-0.1445319739	 2.2529355307	 0.190661
C	 1.8108658543	 0.3716334995	 3.2160660968	-0.411799
H	 0.8748781998	 2.0017020003	-0.4404612048	 0.123125
H	-0.8870425076	 1.9144139983	-0.6037296879	 0.117133
H	-0.1437911263	 1.9505740446	 1.0037765514	 0.13003
H	-1.3351429458	-0.2219870274	 1.723175078	 0.119201
H	-1.272725085	-1.6604615088	 0.5904406059	 0.112375
H	 2.563706283	-1.8238189338	 0.5933894632	 0.119794
H	 1.1892860435	-2.8960242207	 0.8218509388	 0.114816
H	 1.461125808	-2.467761062	-1.7932431858	 0.09712
H	 0.0271519269	-0.3536636309	-2.236977747	 0.096014
H	 2.2522235309	 0.8248995172	 4.0684110981	 0.183952
129.3291	139.5931	185.4723	231.179	275.3723	335.831	396.5605	478.0342	491.5443	531.961	559.8518	575.1329	647.8801	656.2088	734.0085	745.5194	759.7103	888.8264	922.4293	953.5144	961.2842	968.0464	973.478	992.7146	1074.1611	1085.0187	1111.948	1152.9468	1181.6947	1238.5043	1263.5402	1316.4207	1364.9053	1381.2894	1417.5588	1469.4076	1482.0978	1488.3077	1499.6286	1674.8758	2229.9578	3025.389	3029.8516	3054.7127	3090.1683	3115.4214	3121.8164	3181.6056	3207.8704	3215.0875	3503.866
CC12CC1(CC=C2)C#C	C[C@]12C[C@]1(CC=C2)C#C	
InChI=1S/C9H10/c1-3-9-6-4-5-8(9,2)7-9/h1,4-5H,6-7H2,2H3	InChI=1S/C9H10/c1-3-9-6-4-5-8(9,2)7-9/h1,4-5H,6-7H2,2H3/t8-,9+/m0/s1
