19
gdb 68874	2.41007	1.89955	1.53153	3.2134	74.	-0.2354	0.0753	0.3108	970.4053	0.158415	-422.977109	-422.969181	-422.968237	-423.008971	31.584	
C	 0.0075707635	 1.4829038201	-0.0363389377	-0.500893
C	-0.0465326719	-0.0074430481	 0.0953551146	 0.348727
O	 1.1295262466	-0.7706630299	-0.2120469468	-0.316415
C	 0.5652351899	-0.8827030921	 1.1029282349	 0.348742
C	 1.4163504465	-0.5326210874	 2.2837976989	-0.500893
C	-0.5459973779	-1.9817535989	 1.1700454932	-0.016473
C	-1.8255985966	-1.1046396768	 1.2920268953	-0.241289
C	-1.3562789602	-0.8224572432	-0.1645723542	-0.016463
O	-0.8781827335	-2.1898913457	-0.2258506977	-0.259111
H	 0.9184036791	 1.8855631023	 0.4143801368	 0.132044
H	-0.004380426	 1.7783572824	-1.0914364546	 0.13432
H	-0.8569008648	 1.9484878402	 0.4498336759	 0.123081
H	 1.952824977	 0.4053841735	 2.1187453736	 0.132035
H	 0.8054128034	-0.4301354842	 3.1875079511	 0.123079
H	 2.159060899	-1.3162536907	 2.4707939449	 0.134329
H	-0.368711909	-2.8953909211	 1.7373367399	 0.082885
H	-2.7415966278	-1.6959662449	 1.3344903967	 0.112653
H	-1.8403562369	-0.282914928	 2.0147638172	 0.096753
H	-2.0188741503	-0.5344390374	-0.9806586219	 0.082887
183.2994	188.7257	202.4323	206.1502	249.2546	322.1177	456.3033	507.4957	516.6023	571.6564	601.7053	714.9326	728.0621	832.3942	834.2666	858.5626	872.3516	932.1346	944.1441	948.0087	1024.4957	1055.3515	1067.0006	1082.8813	1128.6139	1140.3948	1172.3228	1202.6794	1213.8501	1231.7885	1261.0961	1302.7872	1305.0575	1411.8215	1415.4882	1466.2693	1476.2257	1483.522	1489.7675	1498.2186	1517.8599	3031.2676	3032.9029	3053.0864	3092.0236	3092.6334	3115.2287	3118.0032	3122.8147	3123.969	3136.1769
CC12OC1(C)C1CC2O1	C[C@@]12O[C@]1(C)[C@H]1C[C@@H]2O1	
InChI=1S/C7H10O2/c1-6-4-3-5(8-4)7(6,2)9-6/h4-5H,3H2,1-2H3	InChI=1S/C7H10O2/c1-6-4-3-5(8-4)7(6,2)9-6/h4-5H,3H2,1-2H3/t4-,5+,6-,7+
