23
gdb 40641	3.05435	1.12056	1.09269	0.2344	89.38	-0.2399	0.0829	0.3228	1283.0085	0.208458	-351.142042	-351.133631	-351.132687	-351.17568	33.087	
C	-0.2364452461	 1.2437207221	-0.4149696016	-0.269321
C	 1.1460864142	 1.3528285272	 0.1774688466	-0.269332
C	 0.4921568581	-0.0020868407	 0.0336032574	 0.013093
C	 0.0244368059	-0.7262173681	 1.2584751893	-0.011072
C	-0.7112069516	-2.0501429584	 1.2866468917	-0.067443
C	-0.6519217833	-2.9861259044	 0.0859934929	-0.212826
C	 0.8528183008	-3.2162931318	-0.2187112308	-0.222084
C	 1.6281110696	-2.806825821	 1.0624383051	-0.212833
C	 0.6802675135	-1.9407509653	 1.8825895644	-0.067447
H	-1.0740384474	 1.5808238947	 0.1872123739	 0.108567
H	-0.3589191187	 1.4174768519	-1.4785186907	 0.107148
H	 1.9724824278	 1.6014598851	-0.4794787534	 0.10715
H	 1.2379345265	 1.7632878373	 1.1779241877	 0.108566
H	 0.8838976291	-0.6171979733	-0.7672260216	 0.078918
H	-0.3510553632	-0.0294130165	 2.0072600101	 0.072622
H	-1.5874588823	-2.1169563669	 1.9237010157	 0.073354
H	-1.1352811303	-3.9312932871	 0.3582867212	 0.096759
H	-1.1891030641	-2.599690779	-0.7873811778	 0.097539
H	 1.0528615372	-4.2554708552	-0.4950020608	 0.094136
H	 1.1706380139	-2.6117278089	-1.0718836546	 0.106854
H	 1.8863519376	-3.69368454	 1.6522798805	 0.09676
H	 2.5717959931	-2.3039063024	 0.8232492608	 0.097537
H	 0.8273462594	-1.9271454492	 2.9579041041	 0.073354
50.0075	111.5016	127.9338	193.9688	274.6106	302.0231	468.9198	496.994	659.97	683.1121	751.5559	752.0592	790.9818	807.6989	823.0762	872.2212	883.4336	886.5802	931.2516	938.2314	983.4926	998.9239	1024.4716	1030.2267	1059.7458	1075.2978	1083.3661	1097.684	1111.8159	1127.045	1149.7504	1183.3237	1197.9672	1222.9467	1225.6147	1250.8725	1265.3658	1305.4066	1310.9509	1324.7662	1335.2044	1359.4485	1398.0081	1467.3203	1470.7693	1490.8299	1492.7858	1507.4705	1515.7886	3032.1108	3032.7988	3057.6254	3064.1358	3065.3286	3099.2248	3103.1722	3126.7958	3131.6108	3147.7148	3159.3452	3184.7988	3204.1442	3220.7961
C1CC1C1C2CCCC12	C1CC1[C@H]1[C@H]2CCC[C@@H]12	
InChI=1S/C9H14/c1-2-7-8(3-1)9(7)6-4-5-6/h6-9H,1-5H2	InChI=1S/C9H14/c1-2-7-8(3-1)9(7)6-4-5-6/h6-9H,1-5H2/t7-,8+,9-
