16
gdb 35358	2.64503	1.62588	1.3546	4.1629	75.07	-0.2464	-0.0108	0.2356	985.8974	0.125526	-400.729071	-400.721671	-400.720727	-400.761243	27.926	
N	 0.1619433166	-1.179176787	 0.1118946989	-0.323115
C	 0.0769424098	-0.0265049632	 0.0825380854	 0.30605
C	-0.0231622147	 1.4192477348	 0.0545492686	-0.246994
C	-0.1153973489	 2.0730184078	 1.5015289276	-0.321037
C	 1.3833067335	 2.2389563214	 1.3918772102	 0.217322
C	 2.5191772874	 1.753101438	 1.8755683648	-0.217195
C	 3.4254547624	 1.4371110212	 0.6971104255	-0.109179
O	 2.583636543	 1.5347386521	-0.4766370157	-0.266268
C	 1.3945538971	 2.1617761305	-0.0971780558	 0.105171
H	-0.7916269074	 1.7328381652	-0.6555988108	 0.125049
H	-0.6818544832	 3.0067963925	 1.4567314451	 0.128594
H	-0.4987956876	 1.4468354584	 2.3065907915	 0.142069
H	 2.7500467374	 1.4551695602	 2.8899758811	 0.117552
H	 4.2795122119	 2.1213698305	 0.5859008828	 0.114709
H	 3.8189338859	 0.4155804408	 0.7640174513	 0.132242
H	 1.2366099269	 3.0906768066	-0.6615219506	 0.095031
79.9998	136.0277	189.1317	274.9299	330.927	359.096	510.9281	589.247	674.1336	722.2297	765.0365	775.0668	811.7278	842.0591	915.9034	949.5346	952.869	974.0536	1029.0396	1029.4717	1087.1233	1115.9172	1134.5669	1161.7397	1194.0562	1227.9697	1241.3882	1286.2397	1329.1117	1351.159	1387.9379	1480.7123	1512.4114	1732.1812	2356.7617	2995.8332	3012.9494	3049.8257	3071.9171	3090.1682	3145.2003	3222.7579
N#CC1CC2=CCOC12	N#C[C@H]1C[C]2[CH]CO[C@@H]12	
InChI=1S/C7H7NO/c8-4-6-3-5-1-2-9-7(5)6/h1,6-7H,2-3H2	InChI=1S/C7H7NO/c8-4-6-3-5-1-2-9-7(5)6/h1,6-7H,2-3H2/t6-,7-/m1/s1
