25
gdb 103182	1.88965	1.44396	1.29815	1.0408	88.58	-0.2377	0.0747	0.3124	1242.5385	0.226547	-389.482712	-389.471914	-389.47097	-389.517755	40.747	
C	-0.3584057271	 1.2076825408	 0.2270352367	-0.2504
O	-0.1835274684	-0.188685882	 0.1172483038	-0.281137
C	 0.4784160095	-0.6679372845	-1.0392120003	 0.424058
C	-0.1046827008	-0.1012057393	-2.3327771258	-0.460215
C	 2.0561564938	-0.6346063902	-1.0181313917	-0.035289
C	 2.7191031689	-0.2505040223	 0.3015492218	-0.407513
C	 2.0526016104	-2.1641246238	-1.3153503509	-0.241262
C	 0.5198923595	-2.2312645729	-1.050338878	-0.029784
C	 0.1075467201	-2.9358142349	 0.238165673	-0.396942
H	 0.5764130515	 1.76341633	 0.0698379596	 0.106634
H	-1.1101646301	 1.5927705761	-0.4757004693	 0.108734
H	-0.707886384	 1.4002478406	 1.2449581358	 0.123675
H	 0.0773981014	 0.9736141234	-2.4327337043	 0.113
H	 0.356297227	-0.5911824241	-3.1957365461	 0.117904
H	-1.184808302	-0.2787114103	-2.3781009229	 0.117962
H	 2.4800986308	-0.0285377028	-1.8259455237	 0.055615
H	 2.2614888988	-0.7676521665	 1.1490044061	 0.127936
H	 3.7822462363	-0.5150945817	 0.2776686215	 0.108587
H	 2.6516654444	 0.8244129936	 0.4971427677	 0.110029
H	 2.3371824999	-2.4165666875	-2.3399224865	 0.092906
H	 2.6633059661	-2.7647563437	-0.6344573636	 0.092255
H	-0.0552349936	-2.6521899912	-1.882034656	 0.060027
H	 0.6642930779	-2.5663669997	 1.1033380186	 0.121085
H	-0.9557545002	-2.7884009476	 0.4468655345	 0.119068
H	 0.2948366502	-4.0119619994	 0.1505787798	 0.103068
69.7907	132.7279	157.3412	198.9563	204.9042	219.9612	233.2797	252.688	287.3206	325.4283	334.6673	386.3852	420.1369	482.5838	530.3718	640.7133	736.7596	827.4461	835.5166	895.6452	907.5188	922.9347	973.5079	1003.9223	1014.4876	1078.3088	1094.0438	1103.948	1144.7473	1164.567	1179.2939	1198.0622	1210.3518	1220.4009	1239.6294	1249.506	1276.2132	1311.1867	1348.3845	1379.4139	1401.4758	1404.9642	1413.3555	1474.8122	1484.0613	1486.0918	1486.2851	1489.0083	1491.3209	1495.1251	1501.6196	1504.8211	1514.78	2992.7485	3028.7928	3031.7215	3033.8355	3036.9344	3037.9744	3044.1121	3051.5357	3093.0302	3099.937	3100.5135	3102.0628	3105.2135	3107.0595	3115.0187	3121.3966
COC1(C)C(C)CC1C	CO[C@@]1(C)[C@@H](C)C[C@H]1C	
InChI=1S/C8H16O/c1-6-5-7(2)8(6,3)9-4/h6-7H,5H2,1-4H3	InChI=1S/C8H16O/c1-6-5-7(2)8(6,3)9-4/h6-7H,5H2,1-4H3/t6-,7+,8-
