18
gdb 31080	2.25607	1.46395	0.9021	1.5488	77.02	-0.1811	0.0399	0.2211	1288.8593	0.147715	-435.299722	-435.289871	-435.288926	-435.335228	34.353	
C	 0.0148696201	 1.4002272817	 0.0304380341	-0.231077
O	 0.0256504709	-0.0208455914	-0.0039297519	-0.283372
C	 0.6359165031	-0.6273566156	 1.0397691374	 0.329159
C	 0.7511592155	-1.9896984914	 1.1905388338	 0.115634
N	 0.3516155368	-3.1194622565	 0.4506563186	-0.619618
N	 1.4418100977	-2.125926287	 2.3921135998	-0.293776
C	 1.6970033051	-0.8885087545	 2.8839540322	 0.334805
C	 2.42323476	-0.6326437308	 4.1621579066	-0.495686
N	 1.2146474498	 0.0457211034	 2.0759245633	-0.38911
H	 1.0316867256	 1.8072683955	 0.0358446187	 0.126605
H	-0.5091853179	 1.7174688434	-0.873258751	 0.118013
H	-0.5080499212	 1.7742734338	 0.917158679	 0.126601
H	-0.6559994165	-3.150895791	 0.330032934	 0.245362
H	 0.7588752584	-3.1212170489	-0.479379816	 0.245356
H	 1.6919623098	-3.0133030724	 2.7963024915	 0.260175
H	 3.4415436427	-1.039012692	 4.1456279772	 0.128893
H	 2.4870417876	 0.445589028	 4.3146847347	 0.15316
H	 1.9073621426	-1.0724982242	 5.023992318	 0.128875
54.2346	66.1856	125.8926	159.1962	186.1431	191.972	263.1003	268.546	358.9926	367.1875	536.2727	581.7801	612.1865	642.6418	676.8199	733.3803	798.59	848.5567	999.5348	1040.3712	1059.3662	1071.717	1181.0303	1205.3337	1207.2493	1217.3946	1227.5609	1320.6809	1408.417	1427.4085	1452.4189	1478.8218	1482.7298	1486.2334	1504.981	1509.036	1563.2686	1652.3535	1673.9092	3025.516	3027.4432	3072.4295	3090.8769	3132.384	3145.3698	3493.3091	3550.9354	3659.7345
COC1=C(N)NC(C)=N1	COc1c(N)[nH]c(C)n1	
InChI=1S/C5H9N3O/c1-3-7-4(6)5(8-3)9-2/h6H2,1-2H3,(H,7,8)	InChI=1S/C5H9N3O/c1-3-7-4(6)5(8-3)9-2/h6H2,1-2H3,(H,7,8)
