16
gdb 64877	3.77324	0.90159	0.82359	1.7141	71.11	-0.2642	-0.0423	0.2219	1357.9122	0.122191	-437.889043	-437.880163	-437.879219	-437.923352	32.	
O	-0.0462561388	 1.4900902475	-0.0998939425	-0.461833
C	 0.0028586491	 0.0826172861	-0.013530195	 0.270679
C	 0.2091339607	-0.4442430999	 1.4417473229	-0.295773
C	-1.3410719493	-0.5193931256	 1.6052681106	-0.074239
C	-1.453697755	-0.44853309	 0.050904415	-0.270297
C	-1.8736666134	-1.7677354102	 2.2548093013	 0.157083
O	-2.6303731689	-1.7942991396	 3.189121839	-0.241661
C	 0.8873865552	-0.4804647679	-1.0425469251	 0.228259
N	 1.6038686441	-0.9229094349	-1.8345385693	-0.329253
H	 0.8475484306	 1.8376503733	 0.0036598117	 0.295682
H	 0.6746341275	-1.4339782294	 1.4555254042	 0.130827
H	 0.7515860334	 0.2241054561	 2.112570347	 0.128098
H	-1.7578001112	 0.3577430995	 2.0999124227	 0.112947
H	-2.1988300412	 0.2262804555	-0.3702533859	 0.144534
H	-1.5471223365	-1.4379442414	-0.4037713994	 0.131949
H	-1.4984202762	-2.7114798292	 1.7884117229	 0.072997
53.8891	72.588	175.7638	187.4032	276.6719	286.6829	347.4259	378.2555	391.1582	431.2761	572.5538	582.4243	612.0225	764.5818	814.7104	898.3085	905.6327	940.3144	1014.1785	1030.1218	1054.1764	1092.8412	1127.1483	1180.9241	1241.6846	1259.2104	1265.259	1270.2203	1323.9091	1363.1539	1429.6973	1453.0846	1473.2561	1836.2246	2350.0502	2837.5862	3064.0162	3077.4363	3118.8752	3133.7878	3150.3771	3796.8063
OC1(CC(C1)C=O)C#N	O[C@]1(C[C@@H](C1)C=O)C#N	
InChI=1S/C6H7NO2/c7-4-6(9)1-5(2-6)3-8/h3,5,9H,1-2H2	InChI=1S/C6H7NO2/c7-4-6(9)1-5(2-6)3-8/h3,5,9H,1-2H2/t5-,6-
