16
gdb 30464	5.00437	1.06375	0.88295	2.9357	81.55	-0.1952	-0.0612	0.134	1277.0142	0.124457	-434.078621	-434.070078	-434.069134	-434.112048	31.227	
C	 0.2225516015	 1.423436293	 0.1685646136	-0.323152
N	 0.1881575623	-0.0269535148	 0.1210414179	-0.317517
C	 0.3894067346	-0.5945292284	-0.9973687556	 0.378482
O	 0.6409696487	 0.1094322309	-2.1527354732	-0.236664
C	 0.8423777549	-0.5678716473	-3.3288124673	-0.035106
C	 0.7952930035	-1.913410581	-3.3924187029	 0.277965
N	 0.9081910023	-2.6658536442	-4.5632736123	-0.574475
N	 0.5613625055	-2.6741906059	-2.2484535869	-0.270661
C	 0.3767167939	-2.0461528124	-1.1429591554	-0.031379
H	 1.2014127022	 1.8197103608	-0.1366121079	 0.121554
H	-0.5224044814	 1.8744710274	-0.5020091701	 0.122279
H	 0.0177528311	 1.7550657789	 1.1887949262	 0.12049
H	 1.0258919026	 0.1023565351	-4.1570984488	 0.123507
H	 1.4456605672	-2.2300487874	-5.2992973703	 0.24749
H	 1.2350362515	-3.6025106404	-4.3668630726	 0.255007
H	 0.1985125295	-2.6108924445	-0.2312562145	 0.142179
65.9115	103.4072	191.3412	196.5227	234.9391	343.3529	368.7111	391.9269	418.1383	575.831	585.5837	616.529	673.9737	757.5132	785.128	802.0454	824.0285	940.2033	968.374	1047.0064	1102.3583	1102.8658	1160.7811	1196.02	1242.6649	1323.1065	1355.6915	1412.3737	1434.607	1483.0812	1494.7648	1615.7331	1638.6896	1701.9383	1724.8017	2993.7144	3040.3462	3110.6547	3170.9044	3226.8835	3552.282	3655.7846
CN=C1OC=C(N)N=C1	C[N]C1=C[N]C(=CO1)N	
InChI=1S/C5H7N3O/c1-7-5-2-8-4(6)3-9-5/h2-3H,6H2,1H3	InChI=1S/C5H7N3O/c1-7-5-2-8-4(6)3-9-5/h2-3H,6H2,1H3
