18
gdb 51017	2.63037	1.14928	0.92434	2.3005	72.68	-0.2401	-0.0384	0.2017	1274.8777	0.144989	-439.073367	-439.063878	-439.062934	-439.109273	33.113	
O	 3.7039208306	 1.547398478	-0.406149721	-0.248238
C	 3.0275512553	 2.0698755664	 0.4468407624	 0.15654
C	 1.7675450752	 2.8717729055	 0.2343417711	-0.383561
C	 1.3243030333	 3.2153905012	-1.1819915761	 0.29853
C	-0.096747077	 3.7879451983	-1.2339742226	-0.318333
C	-1.0943923607	 2.6908918758	-0.9227429664	 0.154048
O	-1.5394155267	 2.4776839042	 0.1789494032	-0.246636
C	 2.3081350668	 3.6636331795	-2.2014121768	-0.283851
N	 1.64385262	 2.3557072504	-2.3367125418	-0.351721
H	 3.3059695823	 1.9717269513	 1.5199820026	 0.097254
H	 0.9711882549	 2.3217740451	 0.7604980971	 0.16157
H	 1.8782096096	 3.7940755094	 0.8248254458	 0.137318
H	-0.2121715548	 4.5942797965	-0.5024753607	 0.115972
H	-0.282870475	 4.1745594335	-2.2401621331	 0.117791
H	-1.3601225261	 2.0416072743	-1.7837145198	 0.100816
H	 2.0181795018	 4.4142164941	-2.9320627413	 0.11457
H	 3.3593726837	 3.668109564	-1.9300084839	 0.125359
H	 2.308899917	 1.6406507324	-2.0527063386	 0.252572
29.5005	70.4934	86.9146	136.4767	210.514	220.9485	307.4725	340.3288	371.4652	445.1144	518.9276	638.234	710.732	782.7056	860.4109	866.4385	875.3432	947.375	990.3296	1001.9395	1014.0781	1040.9212	1088.3632	1105.8545	1136.8121	1194.9776	1260.2802	1284.6717	1302.9149	1309.5299	1379.4679	1395.4982	1420.4767	1432.4249	1448.4024	1464.3936	1506.8656	1816.5787	1818.8938	2885.0824	2912.2685	3002.7013	3023.038	3048.9838	3109.9367	3111.3352	3200.7176	3515.6617
O=CCC1(CC=O)CN1	O=CCC1(CC=O)CN1	
InChI=1S/C6H9NO2/c8-3-1-6(2-4-9)5-7-6/h3-4,7H,1-2,5H2	InChI=1S/C6H9NO2/c8-3-1-6(2-4-9)5-7-6/h3-4,7H,1-2,5H2
