16
gdb 62004	3.99306	0.74577	0.64479	4.9569	67.55	-0.2608	0.0007	0.2615	1625.4156	0.12359	-471.246956	-471.237065	-471.236121	-471.283332	34.575	
N	-0.0315275351	 1.3368097677	-0.1028183019	-0.566155
C	 0.0334627376	-0.0252157784	 0.1522965202	 0.460934
O	 0.959189492	-0.5442149862	 0.746508296	-0.387365
N	-1.0327149834	-0.7377448477	-0.3563101397	-0.34569
C	-1.0573443427	-2.1778625102	-0.3019093075	-0.160423
C	-2.4772014612	-2.6520756654	 0.050069467	-0.023474
O	-3.4364773708	-2.1709577296	-0.8820518925	-0.41913
C	-2.5290382122	-4.1209617302	 0.1611923661	 0.256341
N	-2.5619237843	-5.2750064226	 0.2065901013	-0.307116
H	 0.6259536304	 1.8651159789	 0.4502597487	 0.264898
H	-0.9423442321	 1.763698719	-0.1808145869	 0.249668
H	-1.6720223521	-0.2963742386	-0.99717528	 0.247155
H	-0.7559141251	-2.6375790083	-1.2555109228	 0.112507
H	-0.3376142263	-2.4922157379	 0.4568475827	 0.16977
H	-2.7637129444	-2.2168918085	 1.0128737947	 0.149197
H	-3.3385535003	-2.6708056421	-1.7014508753	 0.298883
25.6861	67.0656	77.4837	166.141	221.1121	253.8541	305.704	339.3507	369.65	410.2137	461.0618	510.3655	538.7048	574.9929	590.8838	669.9019	774.5543	853.931	950.0002	963.7833	1073.901	1090.5086	1110.4571	1175.9835	1221.5498	1281.1025	1294.2778	1334.7235	1398.8273	1421.6418	1493.1314	1539.9712	1628.9342	1804.8101	2358.0132	2991.61	3075.7843	3124.2134	3576.524	3642.712	3691.4823	3794.9468
NC(=O)NCC(O)C#N	NC(=O)NC[C@@H](O)C#N	
InChI=1S/C4H7N3O2/c5-1-3(8)2-7-4(6)9/h3,8H,2H2,(H3,6,7,9)	InChI=1S/C4H7N3O2/c5-1-3(8)2-7-4(6)9/h3,8H,2H2,(H3,6,7,9)/t3-/m0/s1
