18
gdb 70560	2.69826	1.50641	1.14094	3.8731	71.54	-0.2306	0.0343	0.2648	1085.3725	0.148906	-439.110129	-439.102072	-439.101128	-439.142617	31.682	
O	-0.107676565	 1.378267281	 0.0577711795	-0.471105
C	-0.0001357105	-0.0153950456	-0.0239064267	 0.414198
C	-0.4507986175	-0.6923189114	-1.294631725	-0.364028
C	-1.308551533	-0.7427041357	-0.0424016284	-0.058553
C	-1.3664574629	-1.9917808643	 0.825834981	-0.203529
N	-0.6798588915	-1.756412775	 2.0917743217	-0.293166
C	 0.5489702658	-1.1635810023	 2.1868316683	 0.396614
O	 1.1628259268	-1.0771768536	 3.232665153	-0.3752
C	 1.0843642551	-0.64263952	 0.8507603698	-0.394748
H	 0.6539450408	 1.7627442694	-0.3906574086	 0.282882
H	-0.7963283867	-0.0499960868	-2.0965675762	 0.118888
H	 0.0506140227	-1.6010050339	-1.6154977026	 0.109801
H	-2.1903356549	-0.1120451262	-0.035942824	 0.108449
H	-2.402710673	-2.2600779439	 1.0466304844	 0.121547
H	-0.927580911	-2.8487577844	 0.2931949722	 0.109745
H	-1.021389044	-2.1868713881	 2.937331119	 0.248063
H	 1.5553068681	-1.4879792521	 0.3333508434	 0.1219
H	 1.8710772107	 0.0796815727	 1.0747266392	 0.128243
79.242	153.1873	211.3808	317.2126	351.7112	379.8047	430.3986	453.9481	469.4182	481.6715	518.4037	624.0273	673.3245	789.4356	820.9942	862.14	908.1563	931.4114	940.4414	955.799	1022.6368	1043.6475	1068.6136	1109.2167	1145.4569	1163.4506	1239.7981	1256.144	1286.8916	1305.8504	1330.6135	1351.8065	1379.4482	1414.4251	1449.7745	1467.622	1487.0677	1515.9204	1800.8893	2986.0777	3035.8336	3087.2392	3121.9047	3123.1666	3175.8134	3219.6628	3628.3255	3792.706
OC12CC1CNC(=O)C2	O[C@]12C[C@H]1CNC(=O)C2	
InChI=1S/C6H9NO2/c8-5-2-6(9)1-4(6)3-7-5/h4,9H,1-3H2,(H,7,8)	InChI=1S/C6H9NO2/c8-5-2-6(9)1-4(6)3-7-5/h4,9H,1-3H2,(H,7,8)/t4-,6-/m0/s1
