18
gdb 30163	4.41142	1.22138	0.9963	1.945	77.5	-0.2234	0.0077	0.2311	1182.609	0.15052	-401.990105	-401.982723	-401.981779	-402.02209	28.69	
C	-0.6824564261	 1.2829241419	-0.0353980423	-0.402302
C	 0.1888555881	 0.029739289	 0.0086757289	 0.049649
C	 1.1857640243	-0.0814272454	-1.2113230488	-0.374959
C	 2.3514130884	-0.691856598	-0.5240641846	 0.310138
C	 2.2973209412	-0.7144754194	 0.8193471032	 0.241525
C	 1.0308941024	-0.1082657526	 1.3348540252	-0.365168
N	 3.4741828598	-1.2467926148	 1.3275147267	-0.340049
C	 4.1587483199	-1.5123655538	 0.2586562021	 0.032596
O	 3.5492067169	-1.1988025496	-0.9261728637	-0.198797
H	-0.0692519052	 2.1901707341	 0.0121262499	 0.118334
H	-1.2727471701	 1.3267027344	-0.956941072	 0.115774
H	-1.3797777898	 1.3083733	 0.8085802894	 0.118534
H	-0.4623173569	-0.8497011413	-0.0436592037	 0.089375
H	 0.7643368945	-0.6819435855	-2.0241812699	 0.117708
H	 1.4212471576	 0.9066339998	-1.630269408	 0.115459
H	 1.2083980454	 0.8721109604	 1.7967627048	 0.111532
H	 0.5080817882	-0.7186563675	 2.0779486722	 0.115495
H	 5.1396296814	-1.9549905018	 0.1844978206	 0.145157
74.0362	219.9186	242.1434	256.9178	294.4637	413.5377	450.3986	518.2723	645.7338	688.4205	718.5948	770.6514	800.258	811.7126	902.0059	927.6673	950.7931	957.7168	1049.1791	1073.8712	1087.4383	1106.0761	1144.8885	1168.592	1216.5642	1247.9115	1254.2798	1292.0486	1335.5589	1353.8742	1368.8542	1411.8449	1416.1818	1494.5284	1496.5536	1500.1979	1505.0174	1524.859	1675.3609	3010.7235	3017.94	3027.8944	3037.0649	3065.4642	3073.003	3096.814	3098.9268	3276.0213
CC1CC2=C(C1)N=CO2	C[C@H]1Cc2c(C1)nco2	
InChI=1S/C7H9NO/c1-5-2-6-7(3-5)9-4-8-6/h4-5H,2-3H2,1H3	InChI=1S/C7H9NO/c1-5-2-6-7(3-5)9-4-8-6/h4-5H,2-3H2,1H3/t5-/m1/s1
