17
gdb 130206	3.02359	1.44424	1.02931	1.7786	75.63	-0.1865	0.0374	0.2239	1131.6878	0.138365	-414.16841	-414.160191	-414.159247	-414.201443	31.029	
N	 0.197958178	 1.26689946	-0.4443206831	-0.595647
C	 0.0814751173	-0.0909447022	-0.1453993545	 0.309875
N	-1.0874299967	-0.7199185683	-0.1284395654	-0.30584
N	-0.7677369765	-2.0118733768	 0.1326006173	-0.203526
C	 0.5661214299	-2.2108630596	 0.2821367936	-0.114021
C	 1.1636202781	-0.9786817252	 0.105470167	 0.157035
N	 2.5128349999	-0.5899519263	 0.2212337184	-0.174576
C	 3.5412694566	-1.5276035738	-0.2138534333	-0.226751
C	 3.2520847331	-0.3095815755	-1.0180199382	-0.219751
H	 0.9054512508	 1.7205152853	 0.1203213446	 0.25053
H	-0.689906673	 1.7445767514	-0.3537098311	 0.248289
H	-1.5042141307	-2.6903900828	 0.1966028737	 0.269896
H	 0.9807366519	-3.1788402729	 0.5131046289	 0.125272
H	 4.425506311	-1.5783655017	 0.4144167248	 0.118644
H	 3.2142958009	-2.4791780731	-0.6276521056	 0.115226
H	 2.7227888763	-0.4451219737	-1.9572326839	 0.128117
H	 3.9186434532	 0.5463087554	-0.9766930931	 0.117228
56.9861	157.2261	170.7017	266.441	281.3887	309.9606	343.1923	443.1795	529.9009	567.1262	639.6219	705.3746	734.527	761.927	804.2816	824.5873	893.827	917.8617	940.9463	1038.3415	1063.3954	1098.1126	1112.4509	1128.5083	1170.2678	1174.0013	1203.4368	1237.2855	1285.9798	1360.6426	1445.812	1487.369	1489.7946	1513.8744	1557.4338	1625.1102	1650.7869	3104.0421	3114.7075	3188.805	3208.0725	3263.144	3532.0293	3629.856	3702.7136
NC1=NNC=C1N1CC1	Nc1n[nH]cc1N1CC1	
InChI=1S/C5H8N4/c6-5-4(3-7-8-5)9-1-2-9/h3H,1-2H2,(H3,6,7,8)	InChI=1S/C5H8N4/c6-5-4(3-7-8-5)9-1-2-9/h3H,1-2H2,(H3,6,7,8)
