18
gdb 15113	7.73828	0.78398	0.74326	1.2079	75.53	-0.254	0.0345	0.2884	1514.8432	0.151456	-347.738397	-347.729465	-347.728521	-347.772922	31.679	
C	 0.0512425477	-1.1001481008	-0.3805491987	-0.415392
C	 0.0698821019	 0.0803303326	-0.1616535232	 0.282024
C	 0.0575684562	 1.5122103651	 0.1089276838	-0.203424
O	 1.3631797365	 2.0389247904	-0.0032715905	-0.244503
C	 1.4056750249	 3.4308370386	 0.2592571121	-0.05646
C	 2.8300979898	 3.9007942928	 0.1744739185	 0.010404
C	 3.4338507137	 4.2306520563	-1.1651062134	-0.24524
C	 3.1167853561	 5.3363160224	-0.1905709202	-0.274036
H	 0.0426429703	-2.1439768662	-0.5753603973	 0.199233
H	-0.6261663375	 2.0152470461	-0.5975207139	 0.115322
H	-0.3493934404	 1.6942029379	 1.1192402805	 0.115973
H	 0.7819792068	 3.9774101556	-0.4703088062	 0.080775
H	 0.986577473	 3.6379724876	 1.2595181571	 0.087138
H	 3.4894565983	 3.4415360279	 0.904820695	 0.09279
H	 4.4730390885	 3.9735364128	-1.3353577649	 0.114927
H	 2.8014569271	 4.1268633469	-2.0404310211	 0.115039
H	 2.2743167255	 5.9834952372	-0.4124719103	 0.111083
H	 3.9364193918	 5.8364930269	 0.3126484725	 0.114345
43.6673	86.9955	95.224	135.216	210.6104	311.546	335.4578	374.8599	427.8649	567.4078	607.2185	673.8756	772.9754	816.1457	844.3675	918.6038	949.1987	973.7845	1019.8892	1032.922	1056.9357	1065.7691	1079.9312	1130.1994	1141.6993	1195.3006	1200.026	1227.87	1252.7475	1281.4525	1362.8362	1402.9572	1457.6737	1469.9401	1496.6658	1506.4685	1521.2055	2248.1248	2938.193	2949.1112	2960.6945	2969.3993	3131.6313	3137.6985	3155.6637	3210.4329	3225.9807	3507.1799
C#CCOCC1CC1	C#CCOCC1CC1	
InChI=1S/C7H10O/c1-2-5-8-6-7-3-4-7/h1,7H,3-6H2	InChI=1S/C7H10O/c1-2-5-8-6-7-3-4-7/h1,7H,3-6H2
