20
gdb 102769	1.67964	1.05686	0.67388	3.6979	87.47	-0.2567	0.0227	0.2794	1708.6454	0.167577	-403.1271	-403.115821	-403.114877	-403.167222	37.654	
C	-0.4672464643	 1.6105336275	 0.3123141495	-0.395515
C	-0.2704088544	 0.1037754518	 0.137318803	-0.17877
C	 0.5833994018	-0.2501119778	-1.0870655646	-0.09355
O	 1.8785337568	 0.348002546	-0.8710528408	-0.183643
C	 2.6999267174	 0.4071868301	-1.9381131327	 0.133311
N	 3.8507116382	 0.9115460459	-1.8175521794	-0.443884
C	 0.6896187467	-1.6935947295	-1.297136461	 0.089061
C	 0.7759861512	-2.8831885808	-1.4628513792	 0.083828
C	 0.8859293712	-4.3207859286	-1.6603700733	-0.500352
H	 0.4934447315	 2.117315739	 0.4289096067	 0.146436
H	-0.9782697197	 2.0474405214	-0.553268608	 0.111677
H	-1.0752883948	 1.8187750212	 1.1972791667	 0.11505
H	 0.2141717238	-0.3276638961	 1.0193785467	 0.122591
H	-1.2343064071	-0.4031421527	 0.0228971606	 0.109983
H	 0.1340900579	 0.2148328355	-1.9780916081	 0.102777
H	 2.2629220972	-0.0095670399	-2.8549982106	 0.091804
H	 4.3329704165	 0.8876945633	-2.7137534726	 0.227103
H	 0.6215905538	-4.6048888601	-2.6846707994	 0.151025
H	 1.9089142057	-4.6641554336	-1.4723486609	 0.15743
H	 0.2227445307	-4.8660399524	-0.9801966327	 0.153637
5.4469	54.7546	78.6323	87.6065	96.9708	160.8073	188.0076	248.1887	258.9384	330.2033	344.831	435.6402	482.8162	528.3601	634.0151	775.6517	813.2868	821.7829	921.2867	952.2899	1040.8116	1046.9169	1051.9281	1053.8769	1098.2244	1117.0665	1139.5399	1181.5251	1281.1079	1300.1445	1316.1233	1358.0115	1385.2733	1409.4714	1413.8327	1428.9432	1475.7611	1476.8682	1477.6304	1496.0197	1509.3888	1745.0856	2369.3169	2983.4509	3030.5621	3034.6541	3037.7015	3050.4572	3088.1632	3092.6444	3094.2761	3106.5413	3131.8885	3515.135
CCC(OC=N)C#CC	CC[C@@H](O[CH][NH])C#CC	
InChI=1S/C7H11NO/c1-3-5-7(4-2)9-6-8/h6-8H,4H2,1-2H3	InChI=1S/C7H11NO/c1-3-5-7(4-2)9-6-8/h6-8H,4H2,1-2H3/t7-/m1/s1
