13
gdb 29357	2.02856	1.91506	0.98509	4.0012	67.66	-0.2046	0.0032	0.2078	1083.839	0.089888	-452.793911	-452.785686	-452.784741	-452.826599	30.267	
O	 0.0291614427	 1.3412112974	-0.0156184654	-0.438231
C	 0.0381991436	-0.0124061417	-0.0187871195	 0.249631
C	 0.0066429939	-0.8047217583	-1.128816363	-0.17858
N	 0.0303059354	-2.1342516825	-0.6850787521	-0.304202
C	 0.075200867	-2.1753231602	 0.658372897	 0.347387
O	 0.1040607274	-3.3624683298	 1.2844678567	-0.417819
C	 0.0824850435	-0.870183894	 1.1428295642	-0.07449
C	 0.1246505323	-0.4825417716	 2.4922670427	 0.141146
N	 0.1594603251	-0.1532254239	 3.6059887009	-0.380625
H	 0.0577001459	 1.653470311	 0.8956123455	 0.311104
H	-0.0297852484	-0.5594064955	-2.174606771	 0.138638
H	 0.0164842328	-2.9507937776	-1.2711989671	 0.27995
H	 0.1342994088	-3.2126467733	 2.237167721	 0.326091
105.8018	136.2852	224.0705	253.8667	299.5293	316.5205	327.439	438.6157	473.8806	538.0296	543.2068	594.1822	613.2082	671.952	691.2695	725.6671	785.273	1055.2044	1077.3778	1185.6383	1203.5664	1263.9792	1331.3291	1371.5567	1440.7741	1576.4896	1618.8655	1668.9594	2316.2554	3300.254	3686.5823	3808.0953	3812.6174
OC1=CNC(O)=C1C#N	Oc1c[nH]c(O)c1C#N	
InChI=1S/C5H4N2O2/c6-1-3-4(8)2-7-5(3)9/h2,7-9H	InChI=1S/C5H4N2O2/c6-1-3-4(8)2-7-5(3)9/h2,7-9H
