25
gdb 60412	4.09962	0.69625	0.62317	0.8691	90.81	-0.2455	0.0866	0.3321	1906.134	0.227524	-389.483335	-389.472697	-389.471753	-389.520219	38.875	
C	-0.1991517959	 1.5306856032	 0.0349369081	-0.386569
C	-0.0336970482	 0.0160022367	-0.0304731964	 0.166703
C	 0.8280682914	-0.5171706709	 1.1188419972	-0.392494
O	-1.3466584884	-0.5316552238	-0.0129165925	-0.262451
C	-1.4535947554	-1.8768461226	-0.4317447948	-0.084238
C	-2.9227366915	-2.2215937849	-0.55559334	 0.045156
C	-3.7545712325	-1.5664683207	-1.6925634017	-0.209874
C	-4.4633691703	-2.9313750614	-1.908682234	-0.209424
C	-3.3047598154	-3.6143923332	-1.1307416029	-0.237693
H	 0.7728113221	 2.0302283639	-0.0176145333	 0.109501
H	-0.8200761364	 1.8821804438	-0.7931881116	 0.119209
H	-0.6857231876	 1.8180934102	 0.9726017645	 0.121233
H	 0.4480241581	-0.25131965	-0.987279539	 0.059909
H	 0.3624899409	-0.2797087497	 2.0810158745	 0.120249
H	 0.9603962943	-1.6012134716	 1.0599122444	 0.115616
H	 1.8227537859	-0.0605611414	 1.093822871	 0.112192
H	-0.9505815726	-2.0137041493	-1.4059644099	 0.07428
H	-0.9667246274	-2.5625574928	 0.2817157188	 0.083104
H	-3.4078771113	-2.0576725379	 0.4125440182	 0.076597
H	-4.3714295695	-0.7023335782	-1.437877292	 0.098673
H	-3.1188751075	-1.2993672575	-2.5433253737	 0.094845
H	-5.407723331	-2.9905425313	-1.359829795	 0.101025
H	-4.6424593229	-3.255385336	-2.9366247998	 0.093883
H	-2.531430132	-3.9919357818	-1.8087257394	 0.095768
H	-3.558266437	-4.4067989328	-0.4222211409	 0.0948
34.2086	56.8033	99.9958	129.0589	161.3361	208.9037	245.267	273.9548	300.1839	394.474	421.3663	451.3733	511.969	644.2467	767.7022	785.7362	837.8952	894.5776	917.3078	926.218	930.8257	935.4062	944.4679	972.8018	978.253	1068.1019	1109.6951	1125.9115	1152.7478	1161.5615	1187.5098	1201.3351	1207.7493	1231.7422	1255.5453	1258.6066	1273.1316	1278.2643	1300.0211	1355.7895	1367.6847	1377.6178	1397.1334	1413.1446	1435.0753	1477.3956	1480.5038	1485.5941	1486.4142	1495.1587	1506.4567	1510.7351	1521.8235	2939.1869	2950.1145	2976.0384	3036.5622	3042.0558	3042.8477	3048.1322	3055.6638	3057.4688	3095.743	3104.9191	3106.555	3113.2011	3115.6279	3118.3738	3122.0962
CC(C)OCC1CCC1	CC(C)OCC1CCC1	
InChI=1S/C8H16O/c1-7(2)9-6-8-4-3-5-8/h7-8H,3-6H2,1-2H3	InChI=1S/C8H16O/c1-7(2)9-6-8-4-3-5-8/h7-8H,3-6H2,1-2H3
