19
gdb 84253	3.30479	1.6418	1.40609	0.576	80.95	-0.2192	0.0006	0.2197	970.1181	0.161133	-385.833021	-385.825967	-385.825023	-385.864035	29.517	
O	-0.0449895631	 1.4360888999	 0.2979130327	-0.432796
C	 0.0457818403	 0.0425467546	 0.028465754	 0.092796
C	 0.6515802139	-0.7255090749	 1.2172330413	-0.202473
C	-0.0442981966	-1.842696823	 1.4349001664	 0.159439
C	-0.8785289571	-2.3100620914	 2.6125521162	-0.290926
C	-2.0915329518	-1.896226611	 1.6893438086	-0.028678
C	-2.2380194837	-0.3782125087	 1.3002720748	-0.234684
C	-1.3714463325	-0.5647261947	-0.0106638668	-0.0379
C	-1.1779516835	-2.0301484985	 0.4339042524	-0.076487
H	 0.8358823671	 1.8151410329	 0.2210110593	 0.283862
H	 0.5646088769	-0.1199095167	-0.9312424206	 0.063749
H	 1.3054675737	-0.2270797114	 1.9258406049	 0.086561
H	-0.9052593702	-3.394026509	 2.7711370205	 0.10557
H	-0.7233094367	-1.8028051522	 3.568590825	 0.103452
H	-3.0222359725	-2.4507204505	 1.8285085956	 0.0676
H	-3.2749644303	-0.1307986956	 1.0638264505	 0.102855
H	-1.8637128105	 0.3558628298	 2.0152033055	 0.114127
H	-1.914417274	-0.3574903466	-0.9359911305	 0.058834
H	-1.1761097093	-2.8839359628	-0.2446240798	 0.065098
140.2543	247.8035	265.4631	332.0558	363.9167	414.0705	520.4296	575.3478	665.8622	687.5314	752.9857	792.9697	806.8466	846.7706	875.8106	890.3719	921.1155	955.1977	961.572	983.8742	1015.8804	1031.7671	1060.7731	1071.1396	1106.8668	1128.1226	1143.4593	1178.2566	1213.9602	1216.647	1223.9971	1238.3684	1275.4113	1286.3125	1296.0535	1300.1608	1337.4421	1414.0172	1470.0683	1483.6668	1681.276	2947.9069	3036.5786	3070.6802	3078.5364	3082.7113	3099.676	3104.6707	3131.715	3179.1346	3823.5485
OC1C=C2CC3CC1C23	O[C@H]1[CH][C]2C[C@H]3C[C@@H]1[C@@H]23	
InChI=1S/C8H10O/c9-7-3-5-1-4-2-6(7)8(4)5/h3-4,6-9H,1-2H2	InChI=1S/C8H10O/c9-7-3-5-1-4-2-6(7)8(4)5/h3-4,6-9H,1-2H2/t4-,6-,7-,8+/m0/s1
