20
gdb 88844	3.54994	1.11531	0.99913	1.3883	79.56	-0.2495	0.02	0.2695	1255.9048	0.172465	-403.149495	-403.141002	-403.140058	-403.183274	31.746	
C	-0.1134857476	 1.5249041902	-0.2072623883	-0.417584
C	 0.0030889052	 0.0314083828	 0.0136232154	-0.001885
C	 1.3178422306	-0.6969356738	-0.1526857018	-0.296531
C	 0.6823098787	-0.5885645897	 1.2134203916	-0.018609
C	 1.332459425	 0.1917981073	 2.3469644636	-0.008261
C	 2.1891336769	-0.7183125264	 3.276447643	-0.117652
O	 3.4690579099	-0.0437467449	 3.361981563	-0.220557
C	 3.3728122995	 1.0021349952	 2.5119533979	 0.123935
N	 2.2867650519	 1.2312254531	 1.9026320324	-0.268683
H	 0.7775818727	 2.0494211112	 0.1411330878	 0.154227
H	-0.2527908679	 1.743377206	-1.2721421755	 0.107823
H	-0.9784590385	 1.9351626433	 0.3272046284	 0.106228
H	-0.8682057053	-0.5258223696	-0.3245951398	 0.078201
H	 1.3334427022	-1.6596901311	-0.6521937635	 0.102017
H	 2.1947177622	-0.0820219216	-0.3251012008	 0.123438
H	 0.2022370379	-1.4919293396	 1.5855839753	 0.080282
H	 0.5451850961	 0.692373146	 2.9258117802	 0.091828
H	 1.7916998329	-0.8206888961	 4.2885494154	 0.119984
H	 2.35766761	-1.7119914838	 2.8495596089	 0.118404
H	 4.2791568373	 1.5915829215	 2.4236123968	 0.143395
59.1313	79.4468	161.769	213.9518	244.8639	269.4647	360.7666	453.1812	475.5307	627.2006	711.2728	763.185	798.2056	857.8496	880.2538	902.4352	928.8338	964.0532	966.3271	980.1292	999.5454	1057.2594	1076.0935	1092.7621	1113.8978	1138.1055	1152.8827	1161.727	1204.577	1223.7081	1251.4737	1305.0098	1320.768	1345.379	1381.1458	1390.312	1413.5722	1427.0713	1488.2459	1504.986	1510.112	1516.7765	1707.4544	3010.3423	3028.0544	3052.7064	3079.7405	3109.624	3111.9068	3122.2017	3132.3081	3145.1731	3211.0795	3219.5189
CC1CC1C1COC=N1	C[C@H]1C[C@H]1[C@H]1COC=N1	
InChI=1S/C7H11NO/c1-5-2-6(5)7-3-9-4-8-7/h4-7H,2-3H2,1H3	InChI=1S/C7H11NO/c1-5-2-6(5)7-3-9-4-8-7/h4-7H,2-3H2,1H3/t5-,6+,7+/m0/s1
