16
gdb 35555	2.62884	1.64242	1.48889	3.6794	66.86	-0.2849	0.013	0.2979	947.3689	0.12546	-437.879243	-437.87189	-437.870945	-437.911489	27.705	
N	-0.0382243038	-0.9389070666	 0.7339442928	-0.331182
C	-0.0155162867	 0.1644765645	 0.3922373408	 0.290664
C	-0.0020797664	 1.5829953712	-0.085292961	 0.030976
O	-0.7801237349	 2.4049054986	 0.7446559846	-0.240198
C	 0.0967005741	 3.0127565992	 1.6910549784	 0.082819
C	 0.4835871308	 2.170428496	 2.9391531912	-0.25858
C	 1.9120497355	 1.9579614835	 2.3485124097	-0.258592
C	 1.5186563357	 2.8013124544	 1.1031358262	 0.082824
O	 1.3042464719	 2.0950469728	-0.1171830811	-0.240191
H	-0.4174773197	 1.6050501181	-1.0978777046	 0.145472
H	-0.2683647514	 4.0251144371	 1.86633345	 0.098671
H	 0.4541407868	 2.7377886094	 3.8717177597	 0.112331
H	-0.1141747346	 1.2659816934	 3.0612063524	 0.136988
H	 2.7198328543	 2.4007316702	 2.9349258784	 0.112331
H	 2.1753739261	 0.9254317454	 2.1144580365	 0.136994
H	 2.1394288123	 3.6670871827	 0.8708907658	 0.098672
87.2039	100.0527	188.7431	264.8179	372.0322	420.1164	519.6623	574.963	642.5723	725.8405	755.6441	794.2311	853.7103	893.8692	898.4746	921.8427	954.9677	987.4788	1000.3561	1044.79	1119.106	1127.2121	1149.2394	1204.1574	1226.2265	1246.1488	1276.0983	1287.146	1317.2579	1352.759	1364.6564	1374.3887	1467.5108	1484.1286	2352.1885	3070.729	3076.2676	3080.7155	3104.5723	3115.2548	3129.129	3144.4876
N#CC1OC2CCC2O1	N#C[C@H]1O[C@H]2CC[C@H]2O1	
InChI=1S/C6H7NO2/c7-3-6-8-4-1-2-5(4)9-6/h4-6H,1-2H2	InChI=1S/C6H7NO2/c7-3-6-8-4-1-2-5(4)9-6/h4-6H,1-2H2/t4-,5+,6-
