16
gdb 11962	3.58753	1.6128	1.37504	2.4721	61.16	-0.2356	0.0599	0.2955	926.7851	0.128939	-420.816547	-420.808523	-420.807579	-420.849175	29.629	
O	 0.0144055119	 1.440124428	-0.2679322051	-0.412609
C	 0.0265377727	 0.0814334241	 0.1463618522	-0.172743
C	-1.3228839316	-0.5512100382	 0.0505131137	 0.394783
C	-2.007796634	-1.0681039192	-1.1915036378	-0.39326
C	-1.8749994681	-1.9558161509	 0.0285224876	 0.24467
O	-1.2182716922	-3.1683320129	 0.0437087665	-0.452026
C	-2.8325026624	-1.4711743577	 1.1155225366	-0.136052
O	-2.3177552597	-0.1151997126	 0.9942707986	-0.333269
H	-0.6171612028	 1.9000100525	 0.2959494325	 0.293753
H	 0.7240566326	-0.4424512375	-0.514023307	 0.11968
H	 0.3984659693	-0.0166738437	 1.1773505913	 0.100014
H	-2.9673932587	-0.6594255426	-1.4973604562	 0.114192
H	-1.3282020035	-1.3304184092	-1.9971615431	 0.121447
H	-1.644918166	-3.7553449323	-0.5900734762	 0.292225
H	-3.910971222	-1.5281175978	 0.9265720472	 0.102948
H	-2.5971236555	-1.8899606898	 2.1003312292	 0.116246
56.1693	121.6448	228.3612	251.6784	301.9534	346.6077	377.0361	395.3912	449.7331	544.5776	630.0968	734.7249	807.8826	878.0734	928.6864	933.1127	971.1589	993.5949	1045.4194	1052.8097	1059.434	1115.916	1143.9733	1188.3986	1249.5816	1273.9521	1320.5943	1347.4704	1382.3956	1412.2999	1431.789	1487.1451	1499.3878	1524.3188	2994.255	3024.8559	3080.5885	3088.8227	3110.844	3207.9532	3795.5963	3809.3435
OCC12CC1(O)CO2	OC[C@@]12C[C@]1(O)CO2	
InChI=1S/C5H8O3/c6-2-5-1-4(5,7)3-8-5/h6-7H,1-3H2	InChI=1S/C5H8O3/c6-2-5-1-4(5,7)3-8-5/h6-7H,1-3H2/t4-,5-/m0/s1
