14
gdb 42680	3.26831	1.70742	1.28534	4.9349	67.49	-0.2365	-0.0934	0.1431	932.7536	0.102158	-436.628011	-436.621616	-436.620671	-436.658891	25.047	
O	 0.0178149489	-0.0102215765	-0.0264126592	-0.291954
C	-0.0307535618	 1.187507303	 0.0062992574	 0.343023
C	-1.2072060111	 2.1248917802	 0.0393347998	-0.125892
C	-0.9111343425	 3.3449591677	-0.8922220176	-0.082739
C	-1.6556242782	 4.1928907684	 0.1396184664	-0.163218
N	-0.8261045555	 3.2649352244	 1.0416283312	-0.156685
C	 0.3431153741	 3.4998001212	 0.0281429363	-0.125953
C	 1.1329656594	 2.2195250558	-0.0012385383	 0.343101
O	 2.3159647541	 2.0279373696	-0.0435422799	-0.291955
H	-2.2127850046	 1.7215958549	 0.1401162747	 0.109401
H	-0.9430727155	 3.3720385415	-1.9855646104	 0.097007
H	-1.3816652059	 5.246523343	 0.2379987458	 0.118232
H	-2.7336013757	 4.0475447517	 0.2478518593	 0.118234
H	 0.8644394844	 4.450683775	 0.1177765846	 0.109398
127.4987	192.536	292.623	375.5042	514.044	524.4656	560.302	659.6811	708.8595	753.4973	769.7762	848.8752	865.7346	904.9189	925.7722	929.3103	1040.3291	1065.9967	1085.577	1091.6007	1135.0828	1161.0492	1209.9259	1213.3538	1245.2428	1256.7285	1261.4279	1303.8686	1528.2738	1864.8357	1880.8332	3053.864	3065.9918	3124.5136	3150.0134	3150.0673
O=C1C2C3CN2C3C1=O	O=C1[C@@H]2[C@H]3CN2[C@H]3C1=O	
InChI=1S/C6H5NO2/c8-5-3-2-1-7(3)4(2)6(5)9/h2-4H,1H2	InChI=1S/C6H5NO2/c8-5-3-2-1-7(3)4(2)6(5)9/h2-4H,1H2/t2-,3+,4-
