19
gdb 85643	2.7711	1.18551	0.88706	3.0942	82.21	-0.237	-0.0195	0.2175	1325.0918	0.157653	-385.896317	-385.887222	-385.886278	-385.930376	34.308	
C	-0.1831528357	 1.5345497853	-0.003898701	-0.409821
C	 0.0810641309	 0.0311371783	 0.0280378515	 0.022155
C	 0.8681416202	-0.4947125409	-1.1916436706	-0.227157
C	 1.3478169735	-1.8984770734	-0.7620708479	-0.298576
C	 2.479564178	-2.4387676755	-1.4892917962	 0.320138
C	 3.4270283685	-2.8603849174	-2.0962518035	-0.431
C	 1.5797744905	-1.7541693958	 0.7727446689	 0.394758
O	 2.1622008857	-2.5396144102	 1.4665961415	-0.298302
C	 0.9233324563	-0.4485023812	 1.2223554887	-0.326156
H	 0.7582386885	 2.0956134864	-0.0271508376	 0.117807
H	-0.7613066877	 1.8150793599	-0.8905876064	 0.117947
H	-0.7447421126	 1.8603760183	 0.8776110853	 0.119021
H	-0.8840916851	-0.4938237634	 0.0575377422	 0.081185
H	 0.2721578736	-0.5165917917	-2.1071095543	 0.112334
H	 1.7395081252	 0.1439349962	-1.379478522	 0.113883
H	 0.4995399661	-2.596974137	-0.8435093665	 0.132256
H	 4.2643900822	-3.2436390573	-2.6246638467	 0.195907
H	 1.7360355777	 0.2628804954	 1.4287112198	 0.13371
H	 0.375434664	-0.5856625861	 2.1578361549	 0.129912
58.2543	108.2139	129.3104	226.5084	241.6843	276.48	390.62	406.1812	447.7217	480.2894	512.3531	566.2445	622.0597	627.0838	637.402	726.2119	849.6325	890.3041	912.5258	952.3075	966.9338	1021.8139	1065.0898	1091.0881	1131.264	1154.7378	1163.4097	1218.6364	1256.6948	1274.8522	1283.0645	1340.0528	1348.184	1381.6213	1412.9795	1446.3661	1494.0679	1496.8714	1500.3892	1857.6245	2241.5645	2984.9747	3003.7521	3021.7809	3027.5738	3044.7499	3094.7879	3100.982	3103.3121	3105.723	3505.4077
CC1CC(C#C)C(=O)C1	C[C@H]1C[C@@H](C#C)C(=O)C1	
InChI=1S/C8H10O/c1-3-7-4-6(2)5-8(7)9/h1,6-7H,4-5H2,2H3	InChI=1S/C8H10O/c1-3-7-4-6(2)5-8(7)9/h1,6-7H,4-5H2,2H3/t6-,7+/m0/s1
