21
gdb 102221	2.5911	1.04689	0.79506	1.4677	86.07	-0.2393	-0.0071	0.2323	1505.0435	0.180356	-420.455451	-420.444352	-420.443408	-420.493029	38.167	
C	 0.18218054	-0.4150362896	-0.7513422732	-0.377976
C	-0.1336563879	-0.1679055969	 0.7346898243	-0.266179
C	 1.0904922976	-0.2856104425	 1.6151437099	 0.371739
N	 1.4812988847	-1.5763843133	 2.0344318388	-0.35246
C	 0.9489876092	-2.8233914448	 1.7866947486	 0.412632
C	 1.7065689992	-3.9418537719	 2.489083122	-0.490236
O	-0.0199483694	-3.034960799	 1.0834002064	-0.358091
N	 1.8567795091	 0.6362749026	 2.0446714789	-0.288501
C	 1.6555336867	 2.0301128284	 1.7258812655	-0.32444
H	 0.5160241359	-1.4430768715	-0.9059821502	 0.143728
H	-0.7161372384	-0.2597574126	-1.3558902131	 0.118074
H	 0.9579689763	 0.2669448429	-1.1130824892	 0.115695
H	-0.5554661481	 0.8312937267	 0.8633749572	 0.105527
H	-0.8788079993	-0.8930629007	 1.0615258476	 0.143369
H	 2.3043477952	-1.5290787198	 2.6199281652	 0.247745
H	 1.2372275651	-4.8912352247	 2.2347283046	 0.152789
H	 2.7559693936	-3.9607461401	 2.1767670278	 0.141852
H	 1.6851802422	-3.8059952481	 3.5754611421	 0.142937
H	 0.8137596088	 2.257152061	 1.0592401057	 0.108159
H	 1.5164083092	 2.5965419843	 2.6550128221	 0.126306
H	 2.5670551202	 2.4217446698	 1.2582544789	 0.127332
44.6368	55.7056	85.6388	101.6989	104.2026	177.226	211.6573	247.0022	265.7286	350.9122	358.9724	405.5644	551.3989	586.362	644.8584	671.5962	725.0623	782.6621	799.3496	947.4757	974.455	999.6603	1050.4064	1066.0632	1083.5751	1131.2725	1133.7723	1150.2255	1239.7835	1271.0567	1328.6025	1361.0909	1385.0395	1404.6935	1440.8519	1467.4441	1476.6407	1483.5244	1487.222	1494.9543	1502.308	1511.3629	1526.2227	1736.9911	1788.8456	3004.3117	3043.1411	3044.1944	3063.467	3065.2874	3081.9794	3105.86	3109.3876	3132.3002	3144.8674	3166.1364	3592.454
CCC(NC(C)=O)=NC	CCC(=NC)NC(=O)C	
InChI=1S/C6H12N2O/c1-4-6(7-3)8-5(2)9/h4H2,1-3H3,(H,7,8,9)	InChI=1S/C6H12N2O/c1-4-6(7-3)8-5(2)9/h4H2,1-3H3,(H,7,8,9)
