15
gdb 30211	4.77633	1.30615	1.06675	1.5315	67.61	-0.2164	0.0257	0.2422	1077.6301	0.113515	-457.76722	-457.760124	-457.75918	-457.798993	27.381	
C	-0.5214328222	 1.5145721232	-0.0067416294	-0.400004
C	 0.184437439	 0.1834422278	 0.0114216656	 0.179765
O	 1.0670977528	 0.062255664	-1.1318565968	-0.292136
C	 2.205696219	-0.4903090862	-0.6280735978	 0.224207
C	 3.3941249405	-1.0107033735	-1.0052889301	-0.137685
O	 4.087388181	-1.3403623729	 0.138967844	-0.174421
C	 3.3168064929	-1.0211572758	 1.235748092	-0.137685
C	 2.1570331235	-0.4968898925	 0.7823895441	 0.224206
O	 0.9862464941	 0.0513247435	 1.2116328863	-0.292133
H	 0.21150768	 2.3241195474	 0.0226959412	 0.141544
H	-1.1203890506	 1.6026285905	-0.9165926487	 0.138504
H	-1.1823183734	 1.5940936213	 0.8599975139	 0.138492
H	-0.5153828439	-0.6647748927	-0.0166708345	 0.100657
H	 3.8898856895	-1.208385951	-1.938059004	 0.143343
H	 3.7471646278	-1.227688583	 2.1985843442	 0.143343
64.6933	218.1637	259.115	318.7164	335.9295	466.0898	519.8542	564.9998	654.3163	675.2292	714.5351	722.0996	737.0013	767.5158	860.8299	862.3858	948.0394	1016.8272	1065.8144	1109.1892	1138.1953	1154.1179	1188.9519	1241.8655	1317.7149	1361.9104	1390.5722	1420.7812	1463.4015	1484.0247	1484.5208	1653.5046	1708.9422	2999.4473	3056.4227	3137.5228	3142.879	3298.2392	3303.0834
CC1OC2=COC=C2O1	C[C@H]1Oc2cocc2O1	
InChI=1S/C6H6O3/c1-4-8-5-2-7-3-6(5)9-4/h2-4H,1H3	InChI=1S/C6H6O3/c1-4-8-5-2-7-3-6(5)9-4/h2-4H,1H3
