17
gdb 98779	3.27765	1.11524	1.01662	4.2517	68.59	-0.2595	-0.0292	0.2302	1200.3705	0.134562	-458.928571	-458.920245	-458.919301	-458.96241	30.713	
O	-0.5390746776	 1.4796015239	 0.4617496265	-0.422033
C	-1.0191754463	 0.1916272124	 0.7080979194	-0.150813
C	-1.3043638523	-0.5454703725	-0.5904161259	 0.355391
O	-1.0491832999	 0.0016364502	-1.6459944184	-0.334727
C	-1.9373751688	-1.9186665127	-0.560633644	-0.116685
C	-1.7122445486	-2.9359549169	 0.6223767471	-0.293967
C	-3.2282614138	-2.9393574612	 0.8544764005	 0.038861
O	-3.6155844612	-1.5903515678	 1.1453237768	-0.228236
C	-3.4530434811	-1.963284218	-0.2222832312	 0.007379
H	-0.4727798603	 1.5401276235	-0.5050499575	 0.291359
H	-0.288816014	-0.4030899316	 1.2840558778	 0.108778
H	-1.9419558093	 0.2008771215	 1.3076334318	 0.143092
H	-1.7531104674	-2.3872900451	-1.5295062781	 0.111223
H	-1.3195911824	-3.8874820295	 0.2586703281	 0.123016
H	-1.1182218971	-2.6002359789	 1.4743042585	 0.125943
H	-3.8636843043	-3.7272739464	 1.2394432735	 0.11829
H	-4.2876586754	-1.7950570809	-0.8919576148	 0.123126
40.95	108.4933	148.9362	191.3622	280.7216	346.727	420.5829	444.7307	468.9763	545.7442	670.2606	747.0009	806.3769	836.5883	854.0823	876.9502	928.4381	946.4989	994.5432	1014.0984	1047.3666	1061.5139	1120.8925	1144.9515	1190.3855	1226.6989	1236.3036	1238.9744	1254.613	1267.974	1315.0557	1325.5186	1390.322	1452.4945	1476.8748	1494.3203	1775.1023	2963.076	3017.8106	3079.6408	3097.9935	3137.2534	3192.2744	3207.4295	3678.9358
OCC(=O)C1CC2OC12	OCC(=O)[C@H]1C[C@H]2O[C@@H]12	
InChI=1S/C6H8O3/c7-2-4(8)3-1-5-6(3)9-5/h3,5-7H,1-2H2	InChI=1S/C6H8O3/c7-2-4(8)3-1-5-6(3)9-5/h3,5-7H,1-2H2/t3-,5-,6+/m1/s1
