17
gdb 126044	3.79254	1.07267	1.05009	3.1005	74.61	-0.2392	0.0018	0.2409	1201.3384	0.138153	-414.164956	-414.15705	-414.156106	-414.198053	29.395	
C	 1.1128091892	 1.1751218779	-0.6404443732	-0.397623
C	 0.1542563121	 0.1489849594	-0.0934725583	 0.021235
N	 0.7175639843	-1.1187385448	 0.3921039456	-0.345318
C	 0.0626983665	-0.2189539962	 1.3571470905	-0.155536
C	 0.9238581191	 0.3535084167	 2.4094654384	 0.353301
C	 2.2733325492	 0.1934621373	 2.6276171437	-0.168066
N	 2.5103678378	 0.9333961405	 3.7358346335	-0.15514
N	 1.3876543913	 1.516906978	 4.1936432021	-0.114392
N	 0.425728611	 1.1656356693	 3.3900510796	-0.267035
H	 2.0153924139	 1.2371305456	-0.0285027215	 0.123526
H	 1.4112826736	 0.9170753683	-1.6620429645	 0.119792
H	 0.6442217984	 2.164575302	-0.6623298142	 0.123604
H	-0.7919105175	 0.0856029255	-0.6303443662	 0.087656
H	 0.1104921766	-1.9013039041	 0.1666960945	 0.235291
H	-0.9335030809	-0.4754256745	 1.7107775992	 0.09751
H	 3.0293584167	-0.3710987986	 2.1112574806	 0.159368
H	 3.3767015588	 1.0776170777	 4.2292639603	 0.281828
58.4747	118.7731	163.0307	202.9114	281.8125	386.1957	434.9808	517.7188	577.9551	667.14	712.8725	758.7617	788.0262	815.1891	860.9715	941.8744	982.0598	993.6439	1019.8918	1038.8482	1049.1619	1078.2185	1123.8245	1140.3891	1183.8921	1241.7128	1249.6321	1261.586	1294.4922	1346.7565	1398.6722	1424.051	1454.7445	1487.3869	1494.5229	1505.8085	1602.4569	3038.7165	3100.865	3104.9786	3130.1335	3134.8541	3300.9074	3513.8374	3659.3295
CC1NC1C1=CNN=N1	C[C@H]1N[C@H]1c1c[nH]nn1	
InChI=1S/C5H8N4/c1-3-5(7-3)4-2-6-9-8-4/h2-3,5,7H,1H3,(H,6,8,9)	InChI=1S/C5H8N4/c1-3-5(7-3)4-2-6-9-8-4/h2-3,5,7H,1H3,(H,6,8,9)/t3-,5-/m1/s1
