15
gdb 7065	6.73559	0.91899	0.85679	4.6762	67.89	-0.2742	0.0135	0.2877	1274.2599	0.116147	-362.638458	-362.629471	-362.628527	-362.672509	31.429	
O	-0.1741096791	 1.4050352897	 0.0334699297	-0.405641
C	-0.0304810455	 0.0052635675	 0.0105318586	 0.136424
C	 0.6688617712	-0.5009443559	-1.2710293146	-0.399224
C	-0.0157661548	-0.0972736402	-2.4906812592	 0.304096
C	-0.5880455398	 0.2304660051	-3.4944150409	-0.417081
C	 0.725589649	-0.5126191962	 1.2582278504	-0.368855
C	 0.0914751201	-0.1035664943	 2.5080818248	 0.272255
N	-0.4110699253	 0.2061062046	 3.500890632	-0.298359
H	 0.6883626888	 1.8119688647	-0.1084629112	 0.28627
H	-1.052309542	-0.3860051225	 0.0330110805	 0.127152
H	 1.7032592336	-0.1256401221	-1.281064486	 0.124878
H	 0.7447125724	-1.5952749845	-1.2311157118	 0.138254
H	-1.0944615136	 0.5237643853	-4.3805624249	 0.20239
H	 0.786621739	-1.6068246062	 1.2359318916	 0.153859
H	 1.756866916	-0.1366518351	 1.2462703411	 0.14358
58.1444	85.2295	100.9367	182.2932	263.2452	300.9226	342.1185	367.2535	395.8916	432.1185	474.8029	620.7544	629.6273	651.3775	867.2605	871.2495	918.6836	996.5971	1015.4937	1046.4527	1117.9962	1192.9557	1205.3382	1278.2938	1342.1219	1355.8628	1374.1304	1424.1193	1455.6101	1471.2593	2245.7388	2368.1155	2999.0112	3030.4727	3044.2811	3069.7922	3086.1245	3506.0169	3795.1294
OC(CC#C)CC#N	O[C@@H](CC#C)CC#N	
InChI=1S/C6H7NO/c1-2-3-6(8)4-5-7/h1,6,8H,3-4H2	InChI=1S/C6H7NO/c1-2-3-6(8)4-5-7/h1,6,8H,3-4H2/t6-/m0/s1
