22
gdb 58037	1.95225	1.3209	0.95293	3.0206	82.42	-0.2808	0.029	0.3098	1356.9506	0.191663	-404.377139	-404.366142	-404.365198	-404.413624	39.875	
C	-0.1709599808	 1.551754971	-0.2618812756	-0.412127
C	 0.2838907455	 0.0879342844	-0.1874001886	 0.040418
C	 1.2751007041	-0.2218915287	-1.3173425307	-0.412742
C	 0.8917708649	-0.2432406641	 1.2072880106	-0.147556
C	-0.0476823245	 0.1124965617	 2.2771315813	 0.27202
N	-0.8044165019	 0.3291103725	 3.12484489	-0.34612
C	 1.2766071868	-1.7439861999	 1.3871782999	 0.116071
C	 1.9817835967	-2.0194865595	 2.7149235998	-0.423357
O	 0.1477822044	-2.5801599415	 1.1995951532	-0.428996
H	 0.6794924434	 2.2351102471	-0.1486004215	 0.113406
H	-0.6320240911	 1.7569740599	-1.2327311178	 0.1181
H	-0.901446698	 1.7921801154	 0.5151665198	 0.141569
H	-0.5904296825	-0.5610864648	-0.307335595	 0.104989
H	 2.2149522137	 0.3278064349	-1.1838092755	 0.112789
H	 1.5087424945	-1.2866729192	-1.3911130801	 0.130605
H	 0.8501278437	 0.084109739	-2.2780206972	 0.120955
H	 1.7984106753	 0.3616867111	 1.3466075166	 0.116411
H	 1.9561384019	-2.00090115	 0.570124267	 0.100787
H	 2.230507722	-3.0815271615	 2.7827626933	 0.131198
H	 2.9072362669	-1.4404520532	 2.7996948545	 0.119171
H	 1.3414972031	-1.7587892297	 3.5645958195	 0.138919
H	-0.4495104981	-2.4450178148	 1.9458786063	 0.29349
28.9852	75.9292	146.4937	169.2426	178.8415	230.1109	239.8664	249.0748	312.5073	345.1288	377.7358	402.3098	418.3584	433.8645	489.1783	553.8024	680.6072	805.5456	861.1454	906.808	934.2924	951.1441	967.1541	978.0001	1055.843	1071.9837	1116.1186	1140.5843	1178.5425	1186.5501	1251.1804	1274.9062	1333.7743	1349.5612	1350.3558	1372.6877	1405.6893	1410.5599	1425.7792	1428.0668	1486.7138	1491.7812	1495.8787	1499.3365	1504.3076	1515.1853	2344.1348	3020.293	3028.2742	3031.5886	3037.3135	3056.5365	3078.9802	3094.7214	3102.7251	3108.8773	3118.0086	3121.1653	3124.8225	3781.3467
CC(C)C(C#N)C(C)O	CC(C)[C@@H](C#N)[C@@H](C)O	
InChI=1S/C7H13NO/c1-5(2)7(4-8)6(3)9/h5-7,9H,1-3H3	InChI=1S/C7H13NO/c1-5(2)7(4-8)6(3)9/h5-7,9H,1-3H3/t6-,7-/m1/s1
