20
gdb 133744	2.30154	1.20858	1.16566	2.0641	67.2	-0.3279	0.0772	0.4051	1198.7358	0.165097	-534.680735	-534.670538	-534.669594	-534.71565	37.741	
C	 0.1301720274	 1.5726707028	 0.009191291	-0.411304
C	-0.0185206819	 0.0480480258	 0.0025910257	-0.196966
C	-1.4752844516	-0.4849630349	 0.0135854188	 0.106451
C	-2.2278154864	-0.0571401833	 1.2878883708	-0.431485
C	-2.2519135118	-0.0434076668	-1.2414266767	-0.431483
C	-1.4007881956	-2.0181989822	 0.0045450207	 0.295608
F	-0.7448549072	-2.49681438	 1.0769618001	-0.09012
F	-2.6228063543	-2.5807996708	 0.0127842457	-0.089182
F	-0.7648696253	-2.4850240283	-1.0849863951	-0.090117
H	 1.1907967418	 1.841318951	 0.000574452	 0.120609
H	-0.3295717804	 2.0360083321	-0.868808042	 0.121064
H	-0.3128398303	 2.0267189019	 0.9005430525	 0.121059
H	 0.4863955662	-0.357448102	-0.8807677185	 0.110056
H	 0.5030095219	-0.3666735903	 0.8718984405	 0.110045
H	-2.3590326849	 1.0271921926	 1.3057275043	 0.121256
H	-3.2196130243	-0.5149060661	 1.326062542	 0.129378
H	-1.6820568602	-0.3517036195	 2.1884333486	 0.127249
H	-1.7233852401	-0.3280025382	-2.1553529176	 0.127241
H	-3.2442586041	-0.5009391173	-1.2657253854	 0.129383
H	-2.383451019	 1.0410277636	-1.2449161774	 0.121257
70.3177	83.0039	186.183	199.4042	231.1518	248.7548	277.474	305.6699	332.2944	338.193	360.4565	430.0673	442.3554	569.7985	577.2937	614.5813	736.6722	789.5479	833.8336	934.8004	953.5408	1003.685	1028.92	1055.6352	1074.9584	1153.857	1179.6923	1184.6602	1238.6393	1257.2136	1311.4581	1335.9696	1378.1482	1396.5151	1412.3598	1426.0181	1483.8454	1489.1814	1493.9442	1505.7098	1510.1616	1510.8569	1523.0242	3042.8444	3044.6123	3049.0769	3054.276	3079.7381	3108.2944	3115.6812	3123.1594	3125.0573	3126.9335	3129.8562
CCC(C)(C)C(F)(F)F	CCC(C)(C)C(F)(F)F	
InChI=1S/C6H11F3/c1-4-5(2,3)6(7,8)9/h4H2,1-3H3	InChI=1S/C6H11F3/c1-4-5(2,3)6(7,8)9/h4H2,1-3H3
