25
gdb 123047	6.06446	0.53714	0.51303	0.7649	91.37	-0.248	0.0913	0.3393	2268.8744	0.228062	-389.479951	-389.469261	-389.468317	-389.517238	38.117	
C	-0.0980705786	 1.4739851434	 0.0445484108	-0.381935
C	-0.082596648	-0.0495290756	-0.1013916065	-0.181585
C	 0.7790563135	-0.5137090789	-1.2678863181	-0.02465
O	 0.7500323768	-1.9229419469	-1.3264081303	-0.251061
C	 1.5237512574	-2.4586337654	-2.3787545084	-0.07436
C	 1.4127600888	-3.9674003494	-2.3476558946	 0.038673
C	 0.0597097649	-4.6295645786	-2.7304466936	-0.209065
C	 0.8541513174	-5.7223089227	-3.496159998	-0.209581
C	 2.0865329994	-4.7762741307	-3.491483525	-0.236806
H	 0.909475161	 1.8687242692	 0.2163574549	 0.115463
H	-0.4936125657	 1.9579340566	-0.855434628	 0.115395
H	-0.722813314	 1.7824065758	 0.8877424444	 0.116307
H	 0.2947999694	-0.5159511339	 0.8158926253	 0.105549
H	-1.1004998742	-0.4285785305	-0.2479682787	 0.105581
H	 0.4069929765	-0.0820505174	-2.2143160474	 0.079507
H	 1.8170079814	-0.1565071455	-1.1428401498	 0.079354
H	 1.1678872901	-2.0731258238	-3.3515974196	 0.075148
H	 2.5796511833	-2.1481976979	-2.2780929289	 0.0796
H	 1.7487271591	-4.3275727505	-1.3694817715	 0.076595
H	-0.5980724076	-4.9464881039	-1.9186150384	 0.099122
H	-0.5138467828	-3.991547655	-3.4110686331	 0.095932
H	 1.0237214819	-6.6091634062	-2.8787319166	 0.101172
H	 0.4692701256	-6.0468266667	-4.4658100088	 0.09416
H	 2.1463521075	-4.1882484304	-4.4138469438	 0.096363
H	 3.0693541766	-5.212488825	-3.2966869065	 0.095122
41.3896	56.01	82.4716	107.7966	152.2012	155.9764	220.3844	233.3691	300.1061	364.3381	444.0746	497.3879	647.0249	765.1773	767.4522	792.3847	892.2067	900.0768	911.6653	917.2312	935.0376	972.1358	977.8266	1002.2043	1052.9473	1081.6383	1121.5443	1151.5225	1157.1145	1180.5673	1197.468	1205.5601	1232.0233	1256.1568	1258.4459	1267.5474	1274.6477	1277.6861	1300.9279	1314.7165	1331.6844	1360.8568	1403.2426	1411.559	1454.1185	1478.5455	1486.0483	1492.0093	1499.9794	1504.3978	1508.6704	1515.0173	1533.8623	2927.8735	2942.6653	2956.6327	2961.4406	3031.0619	3038.7031	3044.205	3048.4146	3055.6323	3057.5681	3071.0236	3096.0295	3099.2553	3105.0041	3107.3502	3118.4831
CCCOCC1CCC1	CCCOCC1CCC1	
InChI=1S/C8H16O/c1-2-6-9-7-8-4-3-5-8/h8H,2-7H2,1H3	InChI=1S/C8H16O/c1-2-6-9-7-8-4-3-5-8/h8H,2-7H2,1H3
