20
gdb 120615	3.11626	0.87714	0.84257	2.4802	77.96	-0.2562	-0.0333	0.2229	1485.5935	0.168138	-440.261654	-440.25129	-440.250346	-440.298035	35.882	
C	 0.4925358736	 1.1434788395	-0.0168546233	-0.224168
O	 0.7436904444	-0.2157401635	-0.2859972066	-0.237549
C	-0.0568693806	-0.7238242045	-1.3310328759	-0.067948
C	 0.2089388333	-2.2016551615	-1.4522145945	-0.059121
N	 0.0632003045	-2.8038336447	-2.7703599626	-0.370579
C	 1.4136215417	-2.7433228972	-2.1832155768	 0.233042
C	 2.4537929346	-1.8637634865	-2.8385783416	-0.475616
C	 1.9119547626	-4.0298645961	-1.6073947384	 0.105765
O	 1.2014182292	-4.9825584147	-1.3836247206	-0.275271
H	 0.6954344065	 1.7785817729	-0.8937302451	 0.105241
H	-0.5508184894	 1.3124909173	 0.293110483	 0.106729
H	 1.1561441963	 1.4433822262	 0.7976002573	 0.129184
H	-1.1277104758	-0.5661301574	-1.1137227951	 0.094541
H	 0.1532512155	-0.2145716058	-2.2834298166	 0.099413
H	-0.1090225163	-2.7904532626	-0.5941667734	 0.109163
H	-0.2746230753	-3.7609820818	-2.6611806615	 0.247736
H	 2.0045448076	-0.9559879345	-3.2417782117	 0.136985
H	 3.2250350087	-1.5743502669	-2.1175027919	 0.131445
H	 2.9381100186	-2.3885725055	-3.669090691	 0.126085
H	 3.0018416603	-4.0626951928	-1.3934185339	 0.084923
46.7493	80.7905	89.7057	117.1492	151.0354	215.8097	244.9506	281.0903	295.9717	349.9856	391.53	464.7241	509.2762	637.5208	758.4136	781.9244	910.818	980.6334	983.2372	998.7683	1046.865	1055.2352	1103.3322	1123.8361	1140.5886	1165.6207	1181.6268	1223.429	1232.5604	1269.1393	1290.1296	1338.8835	1384.8885	1418.9404	1431.8544	1466.6149	1480.2626	1485.6878	1488.3842	1493.4352	1506.2885	1528.0804	1800.6784	2905.6754	2955.76	2972.2529	3007.0836	3015.4951	3041.1752	3101.7796	3116.4264	3136.5548	3146.3147	3459.025
COCC1NC1(C)C=O	COC[C@H]1N[C@]1(C)C=O	
InChI=1S/C6H11NO2/c1-6(4-8)5(7-6)3-9-2/h4-5,7H,3H2,1-2H3	InChI=1S/C6H11NO2/c1-6(4-8)5(7-6)3-9-2/h4-5,7H,3H2,1-2H3/t5-,6-/m1/s1
