18
gdb 111184	2.84508	1.22422	0.97411	1.7206	79.73	-0.2402	0.0336	0.2738	1241.4485	0.146483	-401.820713	-401.812174	-401.81123	-401.854165	32.164	
C	 0.1230967537	 1.2867141119	 0.2732137917	-0.24424
O	-0.3338422613	 0.0292392584	-0.1762518099	-0.241473
C	 0.4527107058	-0.5111053828	-1.179366685	 0.20217
C	 1.7390046894	-1.3336463663	-0.8243044964	-0.094634
N	 0.8125602405	-2.3631454505	-0.2110895581	-0.316559
C	 0.1757637943	-1.9866798426	-1.5358319041	-0.090142
C	 1.5899984615	-2.0333095163	-2.2218287271	-0.182477
C	 1.8707193342	-1.3440693541	-3.4653550728	 0.288997
C	 2.1167571244	-0.7886463677	-4.5039733836	-0.436111
H	 1.1087801468	 1.2155720512	 0.7557938447	 0.110091
H	 0.1926259791	 2.0132366743	-0.5515678368	 0.105518
H	-0.6018603794	 1.6500345062	 1.0046926257	 0.130981
H	 0.564677772	 0.1760310996	-2.0263700862	 0.083704
H	 2.6632565957	-1.0152206042	-0.3407404978	 0.088063
H	 1.2403529785	-3.2913207856	-0.2972643788	 0.205758
H	-0.7527833731	-2.4360132697	-1.8892366184	 0.092401
H	 2.0113433104	-3.0430963195	-2.2239604476	 0.101378
H	 2.3307548674	-0.2959076222	-5.4201105495	 0.196574
71.9475	126.0375	153.3994	189.0304	222.0755	330.3316	400.5469	457.5635	487.4359	532.4803	627.1212	636.1866	647.4136	775.919	842.6228	878.6585	882.0986	900.3075	951.6015	1025.824	1047.0942	1051.8184	1107.7806	1126.5817	1144.299	1157.9133	1182.0581	1192.6357	1220.9909	1231.2538	1244.6448	1292.8196	1301.6053	1372.7794	1433.6003	1486.1427	1491.5573	1508.8882	2226.382	2977.6625	3028.4042	3045.1243	3063.8367	3110.1683	3117.5453	3121.7556	3373.0902	3501.7628
COC1C2NC1C2C#C	CO[C@H]1[C@H]2N[C@@H]1[C@H]2C#C	
InChI=1S/C7H9NO/c1-3-4-5-7(9-2)6(4)8-5/h1,4-8H,2H3	InChI=1S/C7H9NO/c1-3-4-5-7(9-2)6(4)8-5/h1,4-8H,2H3/t4-,5-,6+,7-
