21
gdb 99142	3.21432	0.88368	0.77813	4.0237	81.08	-0.2316	0.0407	0.2724	1551.1941	0.182316	-420.421934	-420.41164	-420.410696	-420.458289	36.406	
C	-0.3651294941	 0.8969815753	-0.9856541836	-0.33007
N	-0.7531199127	-0.411049284	-0.5016127084	-0.292939
C	-1.1576211789	-0.62741854	 0.7807271039	 0.374827
O	-1.2135412786	 0.2412283707	 1.6344013487	-0.378981
C	-1.5065634954	-2.0925141859	 1.0790415245	-0.3151
C	-2.538785471	-2.6840488922	 0.1387829358	-0.01836
N	-2.125018983	-2.9223023646	-1.2622023324	-0.344521
C	-2.4875103123	-4.0697551314	-0.4087406284	-0.00328
C	-1.4079582894	-5.0790609835	-0.1032742697	-0.394763
H	 0.6572586328	 0.8888694874	-1.380562316	 0.120699
H	-1.0374375866	 1.251605271	-1.7762549707	 0.117663
H	-0.4159820434	 1.587041011	-0.142418985	 0.165425
H	-0.801246766	-1.1956388883	-1.1383851871	 0.258302
H	-0.5811243625	-2.6753661132	 1.0391135235	 0.117981
H	-1.875487742	-2.1237143283	 2.106627862	 0.127032
H	-3.5371441076	-2.271944958	 0.2775351415	 0.095254
H	-2.880586982	-2.6918354484	-1.9008628152	 0.235965
H	-3.4618437993	-4.5161081893	-0.6049184041	 0.088599
H	-0.4341653038	-4.6020290521	 0.0249953952	 0.129563
H	-1.6450746069	-5.6382609338	 0.808084559	 0.122823
H	-1.3173340272	-5.7969541223	-0.9251935635	 0.123882
56.7254	62.7276	83.1259	121.582	152.9852	192.5325	239.7348	279.5763	355.429	398.2615	464.1116	483.2066	601.3262	666.5893	726.6647	770.7238	839.0823	866.3855	902.8963	936.5545	983.4583	1015.7189	1037.6509	1085.2938	1108.2051	1150.8744	1158.5601	1175.6867	1178.8033	1242.156	1263.2302	1275.2015	1300.3128	1306.8846	1400.9815	1427.2008	1437.2068	1462.4294	1466.444	1490.7716	1498.829	1500.8818	1502.6941	1581.6543	1782.553	3020.6745	3039.2909	3062.8624	3068.9614	3099.982	3104.5073	3114.3403	3125.1044	3134.3559	3149.2839	3510.9359	3563.2148
CNC(=O)CC1NC1C	CNC(=O)C[C@H]1N[C@H]1C	
InChI=1S/C6H12N2O/c1-4-5(8-4)3-6(9)7-2/h4-5,8H,3H2,1-2H3,(H,7,9)	InChI=1S/C6H12N2O/c1-4-5(8-4)3-6(9)7-2/h4-5,8H,3H2,1-2H3,(H,7,9)/t4-,5+/m0/s1
