19
gdb 62188	4.90497	0.59564	0.54562	3.784	83.52	-0.2432	0.0303	0.2735	1943.6895	0.157136	-382.040409	-382.029982	-382.029037	-382.076847	36.795	
C	 0.0368669472	 1.4846400611	-0.2034607067	-0.391657
C	-0.0277041605	-0.0494093597	-0.0300090702	-0.129732
N	 0.747337019	-0.5877113186	 1.097515907	-0.296095
C	 2.1799638206	-0.3445016088	 1.0444704563	-0.133069
C	 2.8821677432	-1.2457686892	 2.0792125413	-0.341563
C	 4.3319205484	-1.0703623254	 2.0749710128	 0.254289
N	 5.4770331448	-0.917147298	 2.0537228801	-0.303277
C	-1.4195361918	-0.4866085852	 0.1010211976	 0.3074
C	-2.5711662509	-0.8063012044	 0.2235870005	-0.432656
H	 1.0670538389	 1.8151019073	-0.3628578165	 0.122262
H	-0.5595831404	 1.7973770207	-1.0648183906	 0.133027
H	-0.3597303339	 1.9861148114	 0.6849705986	 0.122246
H	 0.3905675013	-0.5106987731	-0.936092533	 0.116589
H	 0.3546085035	-0.2411488842	 1.967843207	 0.220771
H	 2.5363671434	-0.6106886869	 0.0429679617	 0.12789
H	 2.479690389	 0.7012989335	 1.2194354778	 0.110517
H	 2.507007145	-1.0234711278	 3.0853887025	 0.149461
H	 2.6373890512	-2.2924426349	 1.8739036262	 0.164607
H	-3.585247738	-1.1060352077	 0.3223152975	 0.198992
46.4192	77.0706	79.9115	135.6673	152.2943	209.7152	248.5189	310.5785	314.8816	401.1729	411.2647	523.9468	539.5554	587.0639	630.0442	661.3887	734.669	786.1078	842.2664	918.8602	958.1529	1021.8869	1054.076	1066.7382	1101.2574	1132.5702	1163.293	1229.1206	1285.1563	1317.4219	1332.4778	1348.2912	1398.2543	1410.3017	1467.868	1484.5881	1490.7104	1502.2959	1514.3306	2241.0653	2363.8082	2971.5751	3006.5824	3041.504	3044.2016	3064.3448	3097.1053	3117.7731	3122.3194	3504.4036	3509.9793
CC(NCCC#N)C#C	C[C@@H](NCCC#N)C#C	
InChI=1S/C7H10N2/c1-3-7(2)9-6-4-5-8/h1,7,9H,4,6H2,2H3	InChI=1S/C7H10N2/c1-3-7(2)9-6-4-5-8/h1,7,9H,4,6H2,2H3/t7-/m1/s1
