16
gdb 12939	2.64848	2.07764	1.66269	3.4433	65.54	-0.2336	-0.0115	0.2221	859.0742	0.128855	-383.726344	-383.718419	-383.717475	-383.758361	29.484	
C	-0.0258157076	 1.5388906192	 0.0029188426	-0.420785
C	 0.142444288	 0.0334884093	-0.0490598641	-0.076686
C	 0.7381523813	-0.7545272672	-1.1755177333	-0.124703
C	 1.9138852634	-0.0045823087	-1.8124960566	-0.359266
C	 2.6162788164	-0.0644926672	-0.4258045562	 0.342096
O	 3.7437680725	 0.1322970282	-0.072260158	-0.317209
C	 1.4321124528	-0.7345633052	 0.2231302624	 0.259421
O	 1.5090391462	-1.7348966895	 1.1644235595	-0.445693
H	 0.820493748	 2.0725740013	-0.4356486455	 0.132777
H	-0.9292912765	 1.8447740374	-0.535749737	 0.125055
H	-0.1261980224	 1.8799199235	 1.0387055715	 0.123019
H	-0.679909424	-0.5089388788	 0.4173808095	 0.100846
H	 0.2329586273	-1.6015687574	-1.6203362725	 0.110588
H	 2.4768808662	-0.6041055394	-2.5337865155	 0.134196
H	 1.7174003717	 0.9801068944	-2.2432584162	 0.119861
H	 1.3357591966	-1.3598688999	 2.0345855595	 0.296483
103.1304	169.1833	175.0128	249.8658	267.8042	282.2237	381.6202	479.834	517.5435	588.9895	661.385	686.9429	743.6306	833.1932	895.546	947.9781	963.5783	1008.2104	1016.1069	1047.7402	1112.7313	1119.2774	1148.9344	1208.9399	1229.488	1270.7063	1311.5368	1357.926	1419.3251	1449.5787	1477.655	1494.7032	1504.3358	1877.8279	3036.9034	3063.5731	3095.2033	3109.4242	3115.0648	3127.4008	3207.5249	3803.039
CC1C2CC(=O)C12O	C[C@H]1[C@H]2CC(=O)[C@@]12O	
InChI=1S/C6H8O2/c1-3-4-2-5(7)6(3,4)8/h3-4,8H,2H2,1H3	InChI=1S/C6H8O2/c1-3-4-2-5(7)6(3,4)8/h3-4,8H,2H2,1H3/t3-,4+,6+/m0/s1
