19
gdb 81043	2.57779	1.73105	1.30382	3.0668	70.29	-0.2517	0.06	0.3117	1007.178	0.160126	-460.144639	-460.13666	-460.135716	-460.176474	32.089	
O	-0.1971889903	 1.3781681104	-0.0382639412	-0.465214
C	-0.0301445312	-0.0285173414	 0.0107313824	 0.079764
C	 0.1301286527	-0.6241026403	 1.4353827384	-0.09807
C	-1.4119722856	-0.4902213417	 1.5982068517	-0.288944
C	-1.4407185364	-0.6635812822	 0.045441945	 0.383438
O	-2.4407799491	-0.105169067	-0.7484292499	-0.495292
C	-1.3117526421	-2.1593200636	-0.2766808255	-0.11315
O	-0.5942747505	-2.8479648949	 0.7365249976	-0.254384
C	 0.4863974904	-2.1125519091	 1.294637741	-0.077277
H	 0.6512143685	 1.7998800725	 0.1276832392	 0.288516
H	 0.6689759062	-0.3714552229	-0.7659749158	 0.060165
H	 0.7936717101	-0.1068225593	 2.1327584545	 0.06524
H	-1.9324177917	-1.232732846	 2.2047259763	 0.106612
H	-1.7002711741	 0.5210154288	 1.8853789766	 0.105446
H	-2.2721912021	 0.8452785017	-0.7695523705	 0.292669
H	-2.308419119	-2.6094291007	-0.3172903747	 0.12016
H	-0.8369495658	-2.2852875514	-1.2629156854	 0.092707
H	 1.3979669326	-2.2285336564	 0.6834365172	 0.086766
H	 0.6796404776	-2.5648048265	 2.2728179631	 0.110849
182.3207	209.1029	234.6627	259.6154	281.0892	357.4997	398.1321	414.6342	440.1835	486.253	537.6067	646.0948	698.2099	838.3844	858.4403	886.4167	915.0829	931.9788	972.0401	1002.1	1026.0876	1078.3986	1087.0374	1121.0934	1136.584	1152.1778	1184.0182	1196.3769	1231.0307	1246.8651	1256.6542	1288.6499	1299.2102	1318.6723	1370.6975	1402.0164	1416.6869	1423.4326	1477.8128	1503.8492	1513.1435	2956.5961	2977.192	2994.7274	3067.1786	3079.3641	3082.9879	3088.3662	3150.4998	3782.2861	3827.4988
OC1C2CC1(O)COC2	O[C@H]1[C@H]2C[C@]1(O)COC2	
InChI=1S/C6H10O3/c7-5-4-1-6(5,8)3-9-2-4/h4-5,7-8H,1-3H2	InChI=1S/C6H10O3/c7-5-4-1-6(5,8)3-9-2-4/h4-5,7-8H,1-3H2/t4-,5-,6-/m0/s1
