21
gdb 114466	3.19809	1.33998	1.19708	0.9366	81.78	-0.2306	0.0738	0.3044	1139.4792	0.183182	-387.021043	-387.012974	-387.01203	-387.053569	32.022	
C	-0.1430493918	 1.4404471244	 0.1529688365	-0.237048
O	 0.3049587126	 0.1356963257	-0.1375726812	-0.233872
C	 0.759266149	-0.5582191744	 0.9944649212	 0.136956
C	-0.2962523398	-1.1681730609	 1.9894787543	-0.300034
C	 0.3434357257	-2.5723200791	 1.7705359931	-0.016959
C	-0.2383755001	-3.5027764236	 0.6796300784	-0.061871
C	-0.7697554785	-2.7456172922	-0.5043247982	-0.286662
C	 0.7170616358	-2.8908968132	-0.3610300273	-0.041854
C	 1.3295385926	-1.9772397552	 0.722520829	-0.073258
H	 0.6560817865	 2.0509048377	 0.6031133969	 0.102775
H	-0.4490415944	 1.8984601951	-0.7908308851	 0.125716
H	-1.0019917746	 1.4403743908	 0.8408265873	 0.107454
H	 1.491305371	 0.0607647663	 1.5376273607	 0.062266
H	-0.2128209279	-0.7890044795	 3.0109712025	 0.095002
H	-1.3362351179	-1.074043521	 1.6671523409	 0.104961
H	 0.7191271427	-3.0867009738	 2.6543259039	 0.065592
H	-0.4948599746	-4.5433218829	 0.8420811617	 0.079482
H	-1.2032168384	-3.3774382887	-1.2742189116	 0.10529
H	-1.2473597213	-1.7776883876	-0.4142302597	 0.121556
H	 1.3066379964	-3.3876216407	-1.1222401267	 0.081247
H	 2.4081355172	-2.0925931971	 0.8325132332	 0.063259
100.9462	133.9522	171.2776	217.0509	313.397	339.9881	436.1011	438.4484	572.5592	677.0021	717.8108	738.7824	756.0902	840.8613	866.2221	898.885	907.1731	931.8874	970.9395	996.2659	1016.151	1039.7526	1057.2551	1063.778	1079.0875	1098.0538	1105.3231	1135.1757	1177.7081	1185.0117	1190.3835	1212.6915	1225.2293	1243.8176	1269.5046	1291.8491	1306.3504	1322.2312	1360.8376	1391.8067	1469.1266	1480.6621	1488.7314	1504.0995	1509.8139	2962.3777	2973.8528	3020.3603	3060.3891	3099.9623	3109.0535	3112.5164	3119.5477	3132.8283	3168.2099	3180.0892	3218.5069
COC1CC2C3CC3C12	CO[C@H]1C[C@H]2[C@H]3C[C@H]3[C@@H]12	
InChI=1S/C8H12O/c1-9-7-3-6-4-2-5(4)8(6)7/h4-8H,2-3H2,1H3	InChI=1S/C8H12O/c1-9-7-3-6-4-2-5(4)8(6)7/h4-8H,2-3H2,1H3/t4-,5+,6-,7-,8+/m0/s1
