17
gdb 29819	3.22826	1.37845	0.97767	4.1002	80.73	-0.2177	-0.0536	0.1642	1185.1802	0.136597	-418.073487	-418.064979	-418.064035	-418.106883	30.971	
C	 0.0029521516	 1.4668297853	 0.0886123559	-0.336013
N	-0.0163915625	 0.0109804632	 0.0012831762	-0.106968
C	-1.1783654244	-0.7024983743	 0.0891326418	-0.046169
C	-1.1831821072	-2.0627080693	 0.0061657337	 0.260057
C	-2.4404960496	-2.8793621429	 0.0983632963	-0.46712
N	-0.004460902	-2.7460442787	-0.1693214558	-0.280514
C	 1.1030913638	-2.075613863	-0.2536484668	-0.0981
C	 1.2227887709	-0.6216479881	-0.1779627073	 0.372478
O	 2.2584896529	 0.022383509	-0.2557670303	-0.404453
H	 0.6323434909	 1.7801091578	 0.9250685812	 0.16118
H	 0.4332810581	 1.8876537042	-0.8233512756	 0.161149
H	-1.0149492575	 1.8321852503	 0.2269620932	 0.130551
H	-2.0833590431	-0.1226722197	 0.227275341	 0.127963
H	-2.5839984217	-3.4747007539	-0.8096122095	 0.1391
H	-2.3860009427	-3.5823783343	 0.936347949	 0.139104
H	-3.3209973599	-2.2463363288	 0.2372329719	 0.116212
H	 2.0363051425	-2.6168039466	-0.3925849351	 0.131542
77.5477	119.613	134.298	187.4851	285.2537	312.6791	338.6231	424.4204	446.5201	535.6849	571.751	586.7551	744.9761	774.3483	813.8702	871.117	925.6913	946.3975	1030.409	1066.5107	1068.6458	1152.3451	1157.1962	1193.0196	1313.9023	1333.1503	1374.227	1419.3872	1428.5198	1454.0956	1466.141	1473.1269	1496.5577	1510.8223	1559.9952	1667.1067	1758.043	3034.9439	3057.3228	3091.7595	3117.7027	3124.4467	3155.3751	3160.1403	3197.0754
CN1C=C(C)N=CC1=O	Cn1cc(C)ncc1=O	
InChI=1S/C6H8N2O/c1-5-4-8(2)6(9)3-7-5/h3-4H,1-2H3	InChI=1S/C6H8N2O/c1-5-4-8(2)6(9)3-7-5/h3-4H,1-2H3
