22
gdb 99972	2.6145	1.10512	0.95347	4.9388	81.96	-0.2796	0.0363	0.3159	1331.7703	0.191425	-404.368238	-404.357171	-404.356227	-404.403892	40.443	
C	-0.0431909552	 1.5635392488	 0.1494103342	-0.415724
C	-0.0003650296	 0.0309136128	-0.0380020203	-0.152836
C	-1.368597998	-0.49684672	 0.0368660712	 0.282009
N	-2.4527117023	-0.8940209473	 0.0972307432	-0.341369
C	 0.7188925583	-0.4923045328	-1.330162723	 0.248931
C	 0.7656616599	-2.031519163	-1.2792196581	-0.424415
C	-0.0062994853	-0.0366871779	-2.6082086298	-0.425472
C	 2.160674286	 0.0512845108	-1.3294410787	-0.102743
O	 2.8594606516	-0.5310751291	-2.4187442077	-0.422808
H	 0.9651900306	 1.9718854092	 0.2430454899	 0.127251
H	-0.5434946352	 2.0563050357	-0.6871846221	 0.141862
H	-0.5918742952	 1.8132020463	 1.0609602582	 0.139269
H	 0.5376763926	-0.3949245025	 0.8200038596	 0.121298
H	-0.2425147889	-2.4545790908	-1.2864660517	 0.136119
H	 1.3133301422	-2.4193547283	-2.1394529986	 0.139233
H	 1.27308985	-2.38120179	-0.3725604112	 0.105863
H	-0.0538479646	 1.0543985737	-2.683777019	 0.108959
H	 0.5325570833	-0.4038049229	-3.4841888096	 0.137088
H	-1.0283544677	-0.4246459123	-2.6409866466	 0.134573
H	 2.1514658391	 1.1464450021	-1.4231099318	 0.089486
H	 2.6463325348	-0.1993374471	-0.3707729157	 0.082225
H	 3.7295559637	-0.1261185353	-2.4705011922	 0.291201
55.219	114.6343	142.6498	189.0252	225.6086	230.1437	240.8384	247.4121	269.8721	296.5161	341.369	350.0874	395.0622	439.6172	441.0953	581.5806	627.1508	730.0807	825.721	899.3905	935.3426	963.4358	969.099	1010.6971	1042.2872	1080.1009	1094.925	1120.4871	1184.1891	1214.1418	1233.5187	1280.2007	1290.4733	1335.6396	1344.9372	1400.2938	1411.1236	1416.1342	1461.7258	1484.3731	1492.58	1497.7555	1500.852	1503.3352	1519.091	1523.6376	2351.9944	2952.9699	3010.2287	3017.5828	3036.3606	3044.0142	3059.2194	3106.0808	3109.9374	3129.0868	3132.7275	3140.2561	3141.9428	3840.0301
CC(C#N)C(C)(C)CO	C[C@@H](C#N)C(C)(C)CO	
InChI=1S/C7H13NO/c1-6(4-8)7(2,3)5-9/h6,9H,5H2,1-3H3	InChI=1S/C7H13NO/c1-6(4-8)7(2,3)5-9/h6,9H,5H2,1-3H3/t6-/m0/s1
