17
gdb 20554	4.44112	1.59043	1.31161	3.4588	68.95	-0.2589	0.0127	0.2716	959.2351	0.144131	-360.077424	-360.069816	-360.068872	-360.109877	27.759	
C	-0.0329236504	 1.5768726981	 0.4684734692	-0.412438
C	-0.0741081817	 0.1213389139	 0.0055220647	 0.066898
C	 0.8488579956	-0.7836661036	 0.8286883033	-0.382239
N	-1.4446011934	-0.4011895436	 0.0285677042	 0.040389
C	-2.5526416674	 0.0328233346	 0.6652890943	 0.018511
N	-3.5711121678	-0.779945922	 0.4391058597	-0.285511
C	-3.0140484349	-1.7253486948	-0.3626886817	 0.035567
N	-1.7326606015	-1.5451871117	-0.6406981545	-0.250619
H	 0.9827324412	 1.962006652	 0.3477828887	 0.131313
H	-0.7078615421	 2.2062380284	-0.1181546859	 0.133758
H	-0.2962810794	 1.6711232656	 1.5270089156	 0.129355
H	 0.2325203803	 0.0721384231	-1.0443340046	 0.115305
H	 0.5777862031	-0.7514979651	 1.8891024505	 0.12306
H	 0.7733690844	-1.8159872578	 0.4812268859	 0.149354
H	 1.886970057	-0.4535145723	 0.7274327713	 0.120688
H	-2.5797790593	 0.928035081	 1.2654059248	 0.141191
H	-3.5655231138	-2.5657102658	-0.7576102856	 0.125418
42.1182	142.6548	221.4569	250.8876	281.1779	327.9007	425.3168	479.997	641.2361	677.1441	700.2758	855.1692	890.3188	908.4623	936.328	956.6858	977.1223	1025.1926	1117.0194	1139.3926	1169.0212	1191.686	1235.4054	1248.723	1318.2124	1356.3353	1371.9168	1385.1133	1399.5106	1420.8364	1473.7332	1485.7759	1489.4894	1500.9961	1513.8688	1545.5596	3040.3103	3043.5087	3058.7315	3110.3892	3117.2445	3125.4241	3137.4521	3257.1221	3273.8164
CC(C)N1C=NC=N1	CC(C)n1cncn1	
InChI=1S/C5H9N3/c1-5(2)8-4-6-3-7-8/h3-5H,1-2H3	InChI=1S/C5H9N3/c1-5(2)8-4-6-3-7-8/h3-5H,1-2H3
