18
gdb 15201	5.40574	0.86597	0.78467	3.6068	65.83	-0.2615	0.0739	0.3354	1437.1206	0.152158	-422.03205	-422.023156	-422.022212	-422.067001	30.766	
O	-0.3144582268	 1.5527501911	-0.0347783967	-0.420948
C	-0.0882164481	 0.1604101915	 0.0348519892	-0.055982
C	-1.3964779651	-0.6142213531	 0.0149360604	-0.068573
O	-2.0388617938	-0.2895199229	-1.2056027601	-0.261966
C	-3.3538106229	-0.7897860366	-1.3137403957	-0.073968
C	-3.914772869	-0.3709222641	-2.6439206733	 0.080274
C	-5.3581955781	-0.2000864751	-2.8421486453	-0.180355
O	-4.4977618437	 0.9308357284	-2.715988488	-0.226212
H	-0.9271008045	 1.6828026822	-0.7687522497	 0.29252
H	 0.5461491896	-0.1894453648	-0.7955817138	 0.09287
H	 0.4443583751	-0.0378504945	 0.9708665779	 0.107653
H	-1.2150969758	-1.699462295	 0.087612173	 0.086923
H	-2.0245008834	-0.3110902278	 0.8676043141	 0.097952
H	-3.3527806796	-1.8912665908	-1.2414390861	 0.092347
H	-3.9921255151	-0.3987033937	-0.505778456	 0.099885
H	-3.2964427631	-0.6335396186	-3.5027107593	 0.102706
H	-5.7874694236	-0.3609050164	-3.8297399209	 0.119509
H	-6.0410684321	-0.3632536198	-2.0088400694	 0.115365
43.5552	59.2038	123.6771	128.9358	186.6112	284.3093	324.9684	404.6113	446.9345	481.9715	554.7897	803.1108	868.2081	870.7554	907.4831	954.7223	995.2188	1052.514	1085.7228	1103.5261	1131.8624	1152.5704	1157.4115	1164.6997	1176.7571	1239.7411	1258.4741	1275.5084	1293.4219	1362.7268	1386.3732	1411.2858	1441.4754	1467.6695	1491.3254	1499.5349	1517.5575	1532.2602	2954.8034	2967.4665	2976.7422	3002.1875	3010.3956	3078.3127	3082.7363	3114.9043	3168.9964	3791.4889
OCCOCC1CO1	OCCOC[C@H]1CO1	
InChI=1S/C5H10O3/c6-1-2-7-3-5-4-8-5/h5-6H,1-4H2	InChI=1S/C5H10O3/c6-1-2-7-3-5-4-8-5/h5-6H,1-4H2/t5-/m0/s1
