18
gdb 121493	4.35512	0.60238	0.59506	4.4184	76.82	-0.2464	-0.002	0.2443	1896.3165	0.147158	-472.444016	-472.43394	-472.432996	-472.480414	35.602	
N	-0.2427226357	 1.57541533	-0.201871962	-0.568795
C	 0.0718116507	 0.3546588642	 0.3573180569	 0.47885
O	 0.7262490513	 0.2291485019	 1.370715974	-0.371682
N	-0.396541104	-0.7303853235	-0.3803835449	-0.364828
C	-0.1826657663	-2.0410951923	 0.0030003735	 0.120296
N	-0.5892305875	-3.0030549837	-0.7165218687	-0.273064
C	-0.3279399661	-4.3519016988	-0.2435738255	-0.153034
C	 0.442240814	-5.1310771541	-1.3128735698	-0.04335
O	 1.7043487122	-4.5541399912	-1.5876762782	-0.421534
H	-0.0652833277	 2.3566601542	 0.4097704938	 0.27054
H	-1.0601270776	 1.6622126688	-0.785030545	 0.255262
H	-0.8618682287	-0.5976574695	-1.2661936108	 0.254806
H	 0.3439848222	-2.1233508855	 0.9576477731	 0.142454
H	 0.2426171088	-4.3639977438	 0.6991196547	 0.09425
H	-1.2867594627	-4.8580883174	-0.066612873	 0.101112
H	 0.634620839	-6.1493073206	-0.9596268575	 0.105506
H	-0.1759950679	-5.1978100851	-2.2215714986	 0.0904
H	 1.534663566	-3.6437454536	-1.854705162	 0.28281
33.2101	64.5412	109.6305	124.2241	175.549	256.5275	301.9877	363.0134	375.7122	385.1482	415.1278	506.8215	540.5997	559.6053	594.7072	668.7964	771.0417	874.0886	898.2963	994.1596	1025.1473	1055.2412	1080.4074	1105.7454	1132.2751	1220.9733	1253.5529	1271.0536	1292.9273	1357.8133	1383.9827	1390.4423	1425.0481	1481.4646	1499.412	1519.3407	1627.2957	1748.9524	1821.5535	2972.3071	2986.6115	3036.0383	3080.4887	3103.4556	3586.7244	3618.1232	3705.8526	3800.0584
NC(=O)NC=NCCO	NC(=O)NC=NCCO	
InChI=1S/C4H9N3O2/c5-4(9)7-3-6-1-2-8/h3,8H,1-2H2,(H3,5,6,7,9)	InChI=1S/C4H9N3O2/c5-4(9)7-3-6-1-2-8/h3,8H,1-2H2,(H3,5,6,7,9)
