19
gdb 102284	2.17808	1.25767	0.86984	6.1344	74.97	-0.2331	0.0049	0.2381	1347.3837	0.159056	-456.388905	-456.37935	-456.378406	-456.424245	34.124	
C	 0.185968972	 1.6783180152	 0.1218419991	-0.37429
C	-0.0021941725	 0.163675379	 0.0048848746	-0.171627
N	 0.5994358382	-0.4109544971	-1.1962146718	-0.003443
C	 2.0527160776	-0.5705457619	-1.2488308514	-0.319723
C	 2.5377698902	-2.0089434592	-0.9720762396	 0.404568
O	 2.161021882	-2.9128956669	-1.8744595279	-0.372325
O	 3.2174865058	-2.2795352296	-0.0156154197	-0.331157
C	-0.1566466101	-0.8239298345	-2.2375103704	 0.103811
N	 0.341130358	-1.469526772	-3.2349489016	-0.537941
H	-0.3583881077	-1.6770325363	-3.9389052534	 0.232825
H	 1.5771105361	-2.482270419	-2.5612270456	 0.327753
H	 1.2449092873	 1.9514595428	 0.1481893932	 0.13421
H	-0.2777288935	 2.1956397496	-0.7234374283	 0.12593
H	-0.2745178068	 2.0426313778	 1.0452226526	 0.128037
H	 0.4228981008	-0.3419791747	 0.8795867378	 0.139052
H	-1.0685154672	-0.0810732987	-0.0078862698	 0.120818
H	 2.3978096533	-0.2645353841	-2.2432499968	 0.145226
H	 2.5050470632	 0.0744980314	-0.4967944566	 0.13629
H	-1.2137832666	-0.557296792	-2.1436266242	 0.111985
49.4135	78.5639	92.9854	174.6939	220.0208	239.0659	281.7098	331.6241	397.9857	426.6057	454.8048	587.199	635.4257	713.2524	755.7917	794.2829	868.3716	889.8454	943.559	967.0825	994.4338	1026.7157	1088.8156	1112.9195	1170.7243	1186.2399	1285.3278	1307.055	1342.1722	1365.2544	1394.7435	1398.0869	1413.6431	1457.4484	1472.192	1488.492	1491.4591	1505.5773	1516.1904	1692.7483	1855.0001	3040.1444	3043.1661	3046.4537	3074.6236	3087.0675	3115.778	3116.9533	3120.811	3147.2118	3557.7321
CCN(CC([O-])=O)C=[NH2+]	CCN(CC(=O)O)C=N	
InChI=1S/C5H10N2O2/c1-2-7(4-6)3-5(8)9/h4,6H,2-3H2,1H3,(H,8,9)	InChI=1S/C5H10N2O2/c1-2-7(4-6)3-5(8)9/h4,6H,2-3H2,1H3,(H,8,9)
