17
gdb 85701	2.52348	1.36609	1.05166	2.1911	74.34	-0.2474	0.0403	0.2876	1156.347	0.133682	-421.752571	-421.743861	-421.742917	-421.78595	33.028	
O	 0.7187681154	 0.39486725	-1.0891414625	-0.423987
C	 0.1348034846	-0.4194502541	-0.1108592598	 0.059042
C	 0.2250180408	-0.0273097047	 1.3952055767	-0.288197
C	-1.2495219293	-0.5236791964	 1.592229643	-0.271759
C	-2.1475355472	 0.2550772917	 2.416489622	 0.315908
C	-2.8940969154	 0.9234740775	 3.0819876199	-0.445019
C	-1.3890855482	-0.4512919309	 0.0530730762	 0.4001
C	-2.3940270975	 0.2607492339	-0.7341397043	-0.270905
O	-2.3047237398	-1.1761084479	-0.7267216609	-0.269069
H	 0.410513228	 1.2971007712	-0.950151138	 0.281239
H	 0.5233491503	-1.4278377376	-0.2853841235	 0.110443
H	 0.9937347765	-0.5087724916	 1.9997752351	 0.119846
H	 0.2909099345	 1.0568271982	 1.5199156179	 0.111533
H	-1.2579315513	-1.5741379767	 1.9033617861	 0.119413
H	-3.5521357707	 1.5037452889	 3.68016314	 0.198009
H	-3.2656124629	 0.6767261982	-0.2329496599	 0.132353
H	-2.1050367979	 0.7322120604	-1.6721818778	 0.121049
69.1149	123.8334	193.2922	208.1683	272.4644	320.141	340.916	392.9669	490.257	514.9555	567.2915	574.011	623.3524	629.359	709.9992	819.77	856.8255	898.2277	918.4054	1020.2037	1030.4195	1055.4531	1079.392	1126.4175	1138.0563	1156.5076	1166.6808	1192.7551	1242.5658	1264.7353	1316.5304	1347.6039	1422.7788	1439.9293	1482.1513	1526.7406	2233.72	3049.8868	3068.8067	3074.5548	3088.6638	3140.7304	3183.8871	3502.9488	3804.0623
OC1CC(C#C)C11CO1	O[C@H]1C[C@@H](C#C)[C@]21CO2	
InChI=1S/C7H8O2/c1-2-5-3-6(8)7(5)4-9-7/h1,5-6,8H,3-4H2	InChI=1S/C7H8O2/c1-2-5-3-6(8)7(5)4-9-7/h1,5-6,8H,3-4H2/t5-,6+,7+/m1/s1
