17
gdb 34091	3.50161	1.53259	1.31839	1.7875	77.36	-0.2317	0.0225	0.2542	990.2117	0.136343	-384.621221	-384.61405	-384.613106	-384.652516	29.286	
C	 0.102505012	-1.1619273561	 0.0243898992	-0.322538
C	 0.0200735393	 0.0366707538	-0.0020376553	 0.133508
C	-0.1118376108	 1.4737359836	-0.0247114192	 0.29182
C	-1.0218025843	 2.1144537684	 1.0310013872	-0.251636
C	-1.0469755136	 3.610500757	 0.6138293752	-0.242642
C	-0.5422238351	 3.6094668133	-0.8300264664	-0.100939
C	 0.8100448051	 2.9686664456	-1.0706268406	 0.100347
O	 1.1911104467	 2.1736625373	 0.0540604305	-0.341955
C	-0.4308052311	 2.1954469699	-1.3661364371	-0.199336
H	 0.1851560384	-2.2207035536	 0.0439905956	 0.189107
H	-2.0176472724	 1.6616982366	 0.9800196746	 0.109549
H	-0.6223510753	 1.9538604286	 2.0352008098	 0.117527
H	-2.0558454304	 4.02718172	 0.6765299932	 0.102754
H	-0.4011191803	 4.2126224631	 1.2589907716	 0.115006
H	-0.8354885932	 4.3978268353	-1.5148028832	 0.0913
H	 1.5972900317	 3.3673302264	-1.6991306225	 0.104316
H	-0.8524854669	 1.7713699009	-2.2657487626	 0.103811
144.6137	146.2549	225.1874	369.8891	449.4169	487.7198	505.3621	546.9474	627.9823	673.8652	677.0468	741.0728	760.1118	803.5887	817.6233	847.7202	879.8875	926.1819	965.2728	1007.1319	1024.5129	1033.989	1045.3781	1085.601	1091.8844	1129.8921	1182.9294	1200.3213	1221.5339	1265.198	1295.9459	1308.0656	1345.6743	1395.0311	1473.0877	1498.7898	2242.3145	3050.4789	3060.5643	3094.9132	3115.2897	3175.0237	3187.5058	3220.4565	3500.5027
C#CC12CCC3C(O1)C23	C#C[C@@]12CC[C@H]3[C@@H](O1)[C@@H]23	
InChI=1S/C8H8O/c1-2-8-4-3-5-6(8)7(5)9-8/h1,5-7H,3-4H2	InChI=1S/C8H8O/c1-2-8-4-3-5-6(8)7(5)9-8/h1,5-7H,3-4H2/t5-,6+,7-,8+/m1/s1
