16
gdb 128505	2.49959	1.32468	0.91383	3.2897	69.28	-0.2263	0.0086	0.2349	1248.2931	0.123367	-474.997642	-474.988663	-474.987719	-475.032791	30.965	
C	-0.1964362837	 1.349842838	 0.178568621	-0.25192
O	-0.0370012673	-0.0696170673	 0.0578892034	-0.265975
C	 0.6734437138	-0.683532332	 0.9954010317	 0.484592
C	 0.9565983482	-2.0145466096	 1.1373675503	 0.008725
C	 0.5153159782	-3.1553850419	 0.2885507666	-0.216826
O	-0.3355724587	-4.0009990707	 1.0607172789	-0.417081
C	 1.7448866442	-2.0197019075	 2.317976725	-0.003073
N	 1.930757055	-0.8316750678	 2.8367873776	-0.169864
O	 1.2322746733	 0.04418257	 1.9661127268	-0.232687
H	 0.7726670127	 1.8548791011	 0.1375852293	 0.147688
H	-0.8114905958	 1.646336906	-0.6705538006	 0.144564
H	-0.6981340988	 1.6058380864	 1.1159081593	 0.149129
H	-0.0038533034	-2.7600471206	-0.5968432579	 0.103113
H	 1.390312474	-3.7194925225	-0.0716229703	 0.096115
H	-0.5463998119	-4.772133724	 0.5241414513	 0.285755
H	 2.1836530901	-2.8740934776	 2.8158633875	 0.137746
31.6575	72.3334	154.8603	166.3424	190.336	268.8495	288.0799	301.378	421.7261	560.1401	622.2367	649.787	726.1643	758.9797	882.2099	925.3041	941.4188	1006.5033	1036.3388	1049.1209	1176.8076	1194.3945	1205.9117	1206.9967	1249.1069	1264.3381	1337.9733	1411.8986	1462.5963	1477.925	1486.5295	1499.5438	1517.9205	1556.5946	1691.9595	2970.4638	3010.0805	3045.9675	3120.3288	3161.8113	3236.1521	3812.7174
COC1=C(CO)C=NO1	COc1c(CO)cno1	
InChI=1S/C5H7NO3/c1-8-5-4(3-7)2-6-9-5/h2,7H,3H2,1H3	InChI=1S/C5H7NO3/c1-8-5-4(3-7)2-6-9-5/h2,7H,3H2,1H3
