13
gdb 49750	2.96743	1.37326	1.04422	3.6999	66.6	-0.2467	-0.1065	0.1403	1077.1535	0.087779	-456.602922	-456.595156	-456.594212	-456.636114	27.368	
O	-0.6351963566	 0.8197501062	-0.6488641895	-0.226529
C	 0.1662765335	 0.938435958	 0.2390881078	 0.152942
C	 1.3567797565	 1.8864784718	 0.1733600331	-0.284345
C	 1.4042351537	 2.7411190869	-1.068223817	-0.040123
C	 1.4375544274	 4.0593795325	-0.8195979317	-0.188126
C	 1.4094377364	 4.3277055238	 0.628906063	 0.297951
O	 1.4401194639	 5.3748509896	 1.2227457425	-0.288857
C	 1.3336242162	 2.9258435981	 1.3097357962	 0.295591
O	 1.2592193703	 2.7101577747	 2.4853437482	-0.27221
H	 0.0952930227	 0.3661411228	 1.1861953888	 0.117514
H	 2.2569969289	 1.2669917999	 0.3036175248	 0.148568
H	 1.3915847564	 2.2942832373	-2.0551256809	 0.147508
H	 1.4715589606	 4.8489212483	-1.5588057453	 0.140116
54.4878	106.2064	163.0451	222.8018	299.947	315.0387	424.5689	536.3124	620.2795	657.447	709.1352	714.2806	773.4732	849.226	878.2293	997.6075	1019.1465	1026.832	1058.0043	1123.0336	1189.1768	1202.8464	1276.806	1367.7316	1412.2056	1636.6529	1816.5763	1829.0361	1864.0785	2935.3706	3009.9015	3208.306	3232.698
O=CC1C=CC(=O)C1=O	O=C[C@H]1C=CC(=O)C1=O	
InChI=1S/C6H4O3/c7-3-4-1-2-5(8)6(4)9/h1-4H	InChI=1S/C6H4O3/c7-3-4-1-2-5(8)6(4)9/h1-4H/t4-/m1/s1
