16
gdb 9668	3.3884	1.43545	1.36587	2.9985	63.32	-0.2442	-0.0244	0.2198	977.7	0.127291	-420.853925	-420.845353	-420.844409	-420.886986	30.7	
C	-0.2655389246	 1.0570403552	-0.3256539655	-0.251857
O	 0.43828285	-0.119275874	 0.0616162387	-0.246232
C	 0.9848179864	-0.7982434189	-1.0199512354	 0.063166
C	 1.4559082614	-2.1865058727	-0.7790717453	-0.371354
C	 0.1410745284	-1.9864112965	-1.5236651246	 0.288127
O	-1.0649660637	-2.2300258753	-0.8752941924	-0.479057
C	 0.1046172132	-2.2147846034	-2.9833186107	 0.106251
O	 1.0794565045	-2.1523926766	-3.6977109501	-0.280407
H	 0.4069214032	 1.7715452793	-0.8182505122	 0.127909
H	-1.09496191	 0.8238265712	-1.0059660363	 0.126178
H	-0.6584379096	 1.5055242576	 0.5886238017	 0.139365
H	 1.4901645365	-0.1851595913	-1.7642131312	 0.116373
H	 2.2986249845	-2.5352531123	-1.365176628	 0.146758
H	 1.3643893004	-2.5759377133	 0.2287562609	 0.133605
H	-1.1014870224	-1.6211674178	-0.1244846038	 0.292617
H	-0.9114878885	-2.4289616912	-3.3782520758	 0.088557
97.9144	107.2515	166.7749	194.1637	222.0414	273.4081	341.0949	380.7259	434.9456	481.995	537.0091	662.4048	741.2829	750.3699	850.209	932.9686	1029.8949	1037.5284	1061.0168	1075.7407	1130.9659	1161.2298	1182.1255	1204.9636	1247.7077	1282.9507	1357.2483	1393.3591	1435.0886	1448.6016	1485.654	1488.5346	1507.2197	1801.5593	2911.749	3004.698	3065.2138	3126.8029	3134.7025	3139.1402	3241.4346	3744.7623
COC1CC1(O)C=O	CO[C@H]1C[C@]1(O)C=O	
InChI=1S/C5H8O3/c1-8-4-2-5(4,7)3-6/h3-4,7H,2H2,1H3	InChI=1S/C5H8O3/c1-8-4-2-5(4,7)3-6/h3-4,7H,2H2,1H3/t4-,5-/m0/s1
