16
gdb 11210	5.16502	1.20669	1.02982	1.7309	66.18	-0.2474	-0.0309	0.2165	1085.2912	0.129834	-383.785617	-383.778021	-383.777077	-383.818324	27.461	
O	 0.1321972056	-0.1323975758	-0.0245184429	-0.244655
C	 0.1041087342	 1.0676878968	 0.044911504	 0.157241
C	 1.3102835646	 1.9751353163	 0.0558655955	-0.070739
C	 1.3275578157	 2.9312044678	-1.1726299682	-0.241678
C	 2.2402396093	 4.0876135888	-0.744929982	-0.319478
C	 2.0874633768	 4.1778701549	 0.7778763849	 0.403127
O	 2.4996923602	 5.0598101826	 1.4820391305	-0.301968
C	 1.3175132475	 2.9384738171	 1.2572419513	-0.34371
H	-0.866310423	 1.6201872223	 0.1027130029	 0.069566
H	 2.2063281193	 1.3472601043	 0.0564846878	 0.10201
H	 1.6603128915	 2.4212001434	-2.078705085	 0.123885
H	 0.3115937793	 3.3016268951	-1.3598646495	 0.112443
H	 3.2934607456	 3.8593526167	-0.9532583608	 0.140068
H	 2.02166293	 5.0481390606	-1.2169380529	 0.135809
H	 0.2951391446	 3.2648905564	 1.4993022896	 0.13479
H	 1.7487355889	 2.5292226829	 2.172857465	 0.143291
68.111	80.496	138.8348	290.4409	346.4719	399.8717	463.4214	489.6717	575.1173	631.2377	723.8566	810.5722	869.7847	920.3425	948.7883	965.0137	1006.3059	1055.5219	1093.24	1146.3448	1164.5412	1196.1021	1237.6888	1250.6568	1287.1834	1303.9617	1330.3666	1350.1723	1428.1393	1446.5889	1450.7769	1498.2692	1838.0382	1852.9949	2830.2192	3016.2094	3032.1029	3040.6313	3072.4305	3108.4739	3114.2369	3117.5181
O=CC1CCC(=O)C1	O=C[C@H]1CCC(=O)C1	
InChI=1S/C6H8O2/c7-4-5-1-2-6(8)3-5/h4-5H,1-3H2	InChI=1S/C6H8O2/c7-4-5-1-2-6(8)3-5/h4-5H,1-3H2/t5-/m0/s1
