17
gdb 49227	3.87521	1.04924	0.88798	3.5723	77.35	-0.2534	-0.0593	0.1941	1279.9865	0.135184	-421.83325	-421.82525	-421.824306	-421.866399	29.88	
O	-0.0886707479	-0.0078146109	 0.0065292087	-0.268504
C	-0.0063563612	 1.2007382241	 0.0006839222	 0.069964
C	 1.2579778687	 1.9383242797	 0.0422313493	 0.242176
C	 1.3535515444	 3.2768387149	 0.0075178243	-0.153075
C	 2.7788319071	 3.7505588669	 0.040373468	-0.343886
C	 3.5656426893	 2.4571688359	 0.299045958	 0.417422
C	 5.0228295208	 2.3622830497	 0.1901820686	-0.247077
O	 4.3876248748	 2.4427173757	 1.4698292255	-0.262735
C	 2.6118171015	 1.2722508716	 0.1081826983	-0.398547
H	-0.9155885887	 1.8416566553	-0.0396429265	 0.06855
H	 0.5057143397	 3.9517566507	-0.0516670388	 0.113936
H	 3.0581697899	 4.2260437557	-0.9100853447	 0.126598
H	 2.9736558616	 4.4848715455	 0.830335914	 0.138166
H	 5.4862195821	 1.4041619579	-0.0437164958	 0.116277
H	 5.6036091393	 3.237608196	-0.1006273194	 0.111624
H	 2.6976951894	 0.5644804706	 0.9380414435	 0.14289
H	 2.8206997293	 0.7114338807	-0.8108260252	 0.126221
57.7929	115.7867	161.8709	284.1044	309.8462	387.197	389.9265	434.8078	455.03	553.6456	730.9122	779.4996	804.0199	838.6526	883.5843	901.2343	950.2955	960.989	992.1963	1030.2722	1048.0126	1125.93	1150.2069	1160.468	1188.6666	1203.3622	1228.0549	1268.8493	1288.2493	1366.8309	1418.2848	1426.1101	1458.991	1470.8328	1533.1399	1679.4323	1785.6675	2879.0115	3016.2827	3039.9142	3065.6266	3074.9166	3090.4848	3159.4929	3190.5272
O=CC1=CCC2(CO2)C1	O=CC1=CC[C@]2(CO2)C1	
InChI=1S/C7H8O2/c8-4-6-1-2-7(3-6)5-9-7/h1,4H,2-3,5H2	InChI=1S/C7H8O2/c8-4-6-1-2-7(3-6)5-9-7/h1,4H,2-3,5H2/t7-/m1/s1
