15
gdb 80308	2.62123	1.54752	1.29457	3.8711	60.55	-0.2603	0.0083	0.2686	990.0951	0.111404	-494.911522	-494.903559	-494.902614	-494.94389	30.219	
O	 0.0024266073	 1.3533041305	-0.2076762609	-0.416065
C	-0.0343099519	-0.029928265	-0.0676420557	-0.005463
C	-0.5114152632	-0.6558969679	 1.2319814259	-0.020483
O	-1.0475495833	 0.2315079006	 2.1841119208	-0.218532
C	-2.2144943893	 0.7986295853	 1.7221355497	 0.436565
O	-2.809221075	 1.6138318375	 2.3565431972	-0.321611
C	-2.5563242191	 0.2159104561	 0.3494098606	-0.441283
C	-1.3930514856	-0.6950778672	 0.0124980121	 0.31818
O	-1.6181173766	-1.9093720523	-0.6247921285	-0.461878
H	 0.5954888309	 1.715312142	 0.460494285	 0.304188
H	 0.7294492323	-0.5943946303	-0.6029848798	 0.104144
H	-0.030164391	-1.5243897379	 1.6626829357	 0.128157
H	-3.4806229305	-0.3648278681	 0.4229940285	 0.148952
H	-2.7134381699	 1.038609987	-0.3511571367	 0.153862
H	-1.6868578652	-1.7456658602	-1.5723567239	 0.291268
95.7882	182.2355	212.2534	271.3365	283.3569	315.7487	359.5487	476.3321	509.1242	558.8709	590.1317	619.3026	708.4639	764.1701	830.6475	888.0057	920.8745	973.1379	996.6061	1054.584	1115.9664	1131.9044	1152.129	1181.4694	1235.2727	1257.495	1291.4881	1308.3813	1340.3347	1360.6833	1437.4825	1478.2195	1899.5515	3072.1161	3107.9391	3124.7887	3205.1158	3791.6512	3798.1086
OC1C2OC(=O)CC12O	O[C@H]1[C@H]2OC(=O)C[C@@]12O	
InChI=1S/C5H6O4/c6-2-1-5(8)3(7)4(5)9-2/h3-4,7-8H,1H2	InChI=1S/C5H6O4/c6-2-1-5(8)3(7)4(5)9-2/h3-4,7-8H,1H2/t3-,4+,5+/m0/s1
