14
gdb 125704	3.08982	1.51291	1.02209	3.8906	70.16	-0.2642	-0.058	0.2062	1094.689	0.099743	-469.981792	-469.973749	-469.972805	-470.015302	29.01	
C	-0.2148329622	 1.478273672	 0.0376963482	-0.462357
C	-0.0362682061	 0.0008941474	-0.0662886985	 0.432154
N	 0.2939932004	-0.527984763	-1.1769279966	-0.173763
O	 0.4447758835	-1.9288651616	-1.1997836631	-0.279164
C	 0.2502186623	-2.709528476	-0.086743038	 0.362237
N	 0.3937631995	-3.9609539833	-0.1387319696	-0.461316
C	-0.1359963706	-2.023749304	 1.1806653651	 0.323257
N	-0.3396223233	-2.6399689165	 2.2565428905	-0.454988
O	-0.2605957258	-0.6477594265	 1.1084583586	-0.243046
H	 0.4738303926	 1.8883571459	 0.7830342968	 0.154692
H	-0.0236505055	 1.9384194198	-0.9309643683	 0.166441
H	-1.233747647	 1.7115687231	 0.362201005	 0.154661
H	 0.6583433879	-4.2472828958	-1.084303603	 0.241242
H	-0.5925113857	-1.9876183516	 3.0017290829	 0.239949
46.5149	77.0509	169.1344	284.0121	292.8257	359.3592	420.8293	478.9919	507.362	549.8459	604.3797	675.6454	764.9734	783.9895	879.747	924.0824	933.7523	966.0923	1043.8292	1066.6623	1069.9572	1111.2106	1231.4839	1313.0939	1350.9049	1416.5413	1471.4996	1472.5099	1724.2644	1743.3581	1774.3086	3050.2425	3110.3633	3169.1255	3468.2059	3476.0477
CC1=NOC(=N)C(=N)O1	CC1=NOC(=C([NH])O1)[NH]	
InChI=1S/C4H5N3O2/c1-2-7-9-4(6)3(5)8-2/h5-6H,1H3	InChI=1S/C4H5N3O2/c1-2-7-9-4(6)3(5)8-2/h5-6H,1H3
