17
gdb 84610	2.56236	1.56843	1.23733	1.6341	80.24	-0.2317	0.0013	0.2331	1051.8673	0.135127	-384.644562	-384.636322	-384.635378	-384.677005	32.255	
O	-0.0777557382	 1.4504972082	-0.0303825473	-0.431992
C	 0.0172688898	 0.0282289217	 0.0124734457	-0.00996
C	 0.6408066624	-0.4961634942	 1.2955886447	-0.120409
C	-0.1850653798	-1.2935976041	 1.9722141583	-0.073831
C	-1.5110637257	-1.4189157007	 1.2990920563	-0.129807
C	-2.292946091	-0.1347674082	 1.1732384867	-0.304015
C	-1.3972903726	-0.5764001347	 0.0260312551	 0.189329
C	-1.9840057066	-0.9879658022	-1.2114598986	 0.161529
C	-2.4603416089	-1.332389588	-2.2615273742	-0.392427
H	 0.81413651	 1.8045540314	-0.1055463183	 0.2834
H	 0.5585211764	-0.3338860267	-0.8742210403	 0.081756
H	 1.6344643794	-0.1965947525	 1.6112315769	 0.095061
H	 0.0334409007	-1.7730652581	 2.9201035363	 0.105379
H	-2.0413938811	-2.3636505977	 1.2855991649	 0.104835
H	-3.3594526448	-0.207918506	 0.9939166545	 0.125636
H	-1.9698378156	 0.722907166	 1.7510824443	 0.132323
H	-2.8860152245	-1.632891874	-3.1863424149	 0.183192
105.9111	150.5166	190.0017	227.9941	270.4025	381.1021	413.3469	488.713	528.6145	565.5668	569.6361	608.0659	648.7812	721.581	752.4113	807.032	852.6107	892.1887	943.6556	961.7715	988.0691	1000.9854	1037.7079	1072.0136	1076.3433	1079.5595	1143.9719	1202.5554	1230.977	1270.5151	1319.5821	1362.9363	1376.6948	1423.7274	1472.6696	1676.9619	2235.7288	2988.1973	3141.9009	3178.4844	3186.8201	3205.3942	3239.2468	3504.1768	3818.7365
OC1C=CC2CC12C#C	O[C@H]1C=C[C@H]2C[C@@]12C#C	
InChI=1S/C8H8O/c1-2-8-5-6(8)3-4-7(8)9/h1,3-4,6-7,9H,5H2	InChI=1S/C8H8O/c1-2-8-5-6(8)3-4-7(8)9/h1,3-4,6-7,9H,5H2/t6-,7-,8+/m0/s1
