14
gdb 131618	2.74219	1.31909	1.0189	2.3492	58.67	-0.2805	-0.0764	0.2041	1124.5775	0.099211	-507.067246	-507.058773	-507.057829	-507.101334	29.488	
O	 0.390806645	 0.1182087734	 0.9560415583	-0.40353
C	-0.2134502702	 0.2939547971	-0.3060116687	-0.087196
C	-1.5658091302	-0.443056553	-0.4420753451	-0.027426
O	-2.0933632231	-0.2933354559	-1.7410792147	-0.411139
C	-1.4274209276	-1.8843844486	-0.0445452787	 0.434312
N	-1.1823571459	-2.8518139558	-0.8775801109	-0.166008
O	-1.1097480926	-3.9612590698	-0.1067743938	-0.138825
N	-1.3259855532	-3.5967773764	 1.2197144365	 0.049193
N	-1.5152332495	-2.3553007115	 1.2539665341	-0.203143
H	-0.1567942676	 0.5418439667	 1.6252208617	 0.295408
H	-0.3794940908	 1.3498493734	-0.5602281695	 0.112553
H	 0.4846087391	-0.1221497004	-1.0411488507	 0.120702
H	-2.2904151657	 0.0161968066	 0.2406604698	 0.120751
H	-1.5952344976	-0.8629291158	-2.3392253383	 0.30435
48.8393	91.0329	153.8301	192.2278	242.1001	304.3922	314.6498	379.9081	461.6996	527.1607	674.7174	694.8854	700.1301	779.2877	966.13	1001.7901	1018.1209	1062.6241	1090.0954	1101.6658	1121.2084	1178.949	1226.7957	1308.492	1358.0439	1375.4084	1410.9706	1425.5062	1483.3913	1501.6386	1593.4744	3013.164	3049.1613	3080.9533	3798.9731	3817.129
OCC(O)C1=NON=N1	OC[C@@H](O)c1nonn1	
InChI=1S/C3H5N3O3/c7-1-2(8)3-4-6-9-5-3/h2,7-8H,1H2	InChI=1S/C3H5N3O3/c7-1-2(8)3-4-6-9-5-3/h2,7-8H,1H2/t2-/m1/s1
