16
gdb 64894	2.01733	1.7171	1.10395	3.7442	76.42	-0.2628	0.009	0.2719	1109.9901	0.120793	-400.709571	-400.700085	-400.699141	-400.743335	35.123	
C	-0.0344051432	 1.5163774249	 0.0442000037	-0.455685
C	-0.001859775	-0.0048853354	-0.0014961774	 0.073076
C	 1.3301616658	-0.706498435	-0.2177606873	-0.372085
C	 0.6960857577	-0.7340630345	 1.1578084777	 0.222676
O	 1.2133768139	 0.0886584208	 2.1572542293	-0.442671
C	 0.145094126	-1.9823502616	 1.6430190606	 0.259789
N	-0.2529060537	-2.9813198893	 2.0680233016	-0.346078
C	-1.1723125445	-0.6241120114	-0.5647850715	 0.295661
C	-2.1585471984	-1.1147373526	-1.045371315	-0.434246
H	 0.8549393173	 1.9108660688	 0.5361941762	 0.137332
H	-0.0872223064	 1.9121683343	-0.973958841	 0.133802
H	-0.914655079	 1.862601544	 0.5919852082	 0.141622
H	 1.3404547645	-1.6205636521	-0.7984456203	 0.149076
H	 2.2054956303	-0.0728788235	-0.3111415824	 0.133932
H	 2.0104793306	-0.3257974577	 2.508299369	 0.301077
H	-3.0291639561	-1.5619832199	-1.4577283114	 0.202723
105.6944	113.4191	183.0147	186.7053	198.4668	270.3071	296.8448	319.0677	406.2373	424.5786	461.4417	537.683	586.0455	614.5311	626.5894	662.9498	670.0787	728.3478	862.5527	914.2461	938.1028	982.1929	1066.4485	1100.4734	1125.3824	1209.5473	1290.182	1308.0767	1368.7581	1411.6289	1465.3712	1487.6179	1498.2804	2242.0184	2351.7232	3053.9887	3121.781	3141.9754	3152.5259	3243.7966	3502.1471	3791.1062
CC1(CC1(O)C#N)C#C	C[C@]1(C[C@]1(O)C#N)C#C	
InChI=1S/C7H7NO/c1-3-6(2)4-7(6,9)5-8/h1,9H,4H2,2H3	InChI=1S/C7H7NO/c1-3-6(2)4-7(6,9)5-8/h1,9H,4H2,2H3/t6-,7+/m1/s1
