22
gdb 9913	4.49236	0.97294	0.92119	0.8418	79.87	-0.2491	0.0853	0.3344	1390.4564	0.198321	-350.193179	-350.183444	-350.1825	-350.228029	35.223	
C	 0.2548340474	 1.4413661944	 0.1506032602	-0.384324
C	-0.0321999582	-0.0349437699	-0.0664547527	-0.02147
O	 0.7699731697	-0.4991280427	-1.1309779898	-0.247815
C	 0.5769150998	-1.8688575688	-1.4227787912	-0.119063
C	 1.4160416456	-2.2452986204	-2.620829617	 0.365401
C	 1.0612418367	-1.5097610011	-3.8982091476	-0.460518
C	 2.8596489041	-2.6034456623	-2.3661127077	-0.28598
C	 1.8627910841	-3.6851103325	-2.7088228847	-0.314055
H	 1.3098144836	 1.5948272943	 0.3948707247	 0.126071
H	 0.0269640952	 2.0128518783	-0.7537324144	 0.12537
H	-0.3531246476	 1.8326589182	 0.9718676292	 0.112673
H	 0.182918247	-0.6090116897	 0.8516495373	 0.081897
H	-1.1003967723	-0.1917438099	-0.2964086918	 0.082786
H	 0.8541951589	-2.4879428724	-0.5522449661	 0.075798
H	-0.4909446164	-2.0625846069	-1.6306327115	 0.079888
H	 1.1474287383	-0.4288414659	-3.7549444593	 0.132256
H	 1.7229067251	-1.8015514136	-4.7195560373	 0.107417
H	 0.0309732434	-1.7273214888	-4.2053642123	 0.108529
H	 3.5919412473	-2.3261415722	-3.1167421972	 0.108666
H	 3.227700262	-2.5506296496	-1.3471229661	 0.11078
H	 1.5612166951	-4.3706739331	-1.9233042988	 0.106983
H	 1.9138556013	-4.1372999953	-3.693620846	 0.108709
57.9485	79.5536	118.4963	146.9446	213.556	243.8671	278.556	300.4736	346.8062	371.4698	437.1233	511.3138	736.664	784.0883	821.1991	871.766	895.5313	923.6518	956.0515	959.9802	1009.3285	1043.1627	1049.2633	1077.0768	1086.8835	1127.6142	1142.4405	1165.003	1187.1035	1189.4341	1253.3386	1295.4445	1330.9396	1359.4186	1388.2229	1405.6198	1413.867	1454.0144	1469.3098	1483.1155	1485.1854	1498.8522	1501.0921	1509.8836	1515.0523	1535.0728	2934.7235	2951.0923	2968.1545	2971.1126	3025.961	3044.2869	3089.6315	3112.9124	3118.352	3120.6783	3126.6813	3133.4984	3204.7839	3220.0886
CCOCC1(C)CC1	CCOCC1(C)CC1	
InChI=1S/C7H14O/c1-3-8-6-7(2)4-5-7/h3-6H2,1-2H3	InChI=1S/C7H14O/c1-3-8-6-7(2)4-5-7/h3-6H2,1-2H3
