20
gdb 57643	3.25521	0.96972	0.92387	3.0662	82.05	-0.2474	0.0447	0.2921	1367.6557	0.168013	-403.077261	-403.06741	-403.066466	-403.111807	37.223	
C	-0.0457735117	 1.5683384012	-0.1602544555	-0.412937
C	-0.0180148991	 0.0299963361	-0.0581187178	 0.147846
O	 0.6041296098	-0.3652768583	 1.15995742	-0.461715
C	-1.4445765128	-0.581453984	-0.0971939101	-0.17408
N	-2.1411283252	-0.2511108178	 1.1427638621	-0.085068
C	-3.1820766206	 0.7733220833	 1.0960668468	-0.221038
C	-3.5357909072	-0.6638053445	 1.2487875111	-0.227809
C	 0.7560431034	-0.5251687722	-1.1746817913	 0.359778
C	 1.3554714165	-0.9647304135	-2.1184932897	-0.475815
H	 0.9753460369	 1.9511484375	-0.1035818616	 0.134276
H	-0.4924961192	 1.8979862829	-1.1033895059	 0.113133
H	-0.6184995209	 1.9874336648	 0.6715972459	 0.119213
H	-0.1132161575	-0.3449058847	 1.8123165472	 0.284264
H	-1.982499033	-0.2477916954	-0.9981745705	 0.096102
H	-1.3395627684	-1.6694104473	-0.1451727762	 0.122404
H	-3.2251849233	 1.4447246801	 1.9485785366	 0.124315
H	-3.3884313124	 1.2403763865	 0.1351120945	 0.119766
H	-3.9806461309	-1.1613323446	 0.3892256109	 0.118201
H	-3.840166539	-1.0589876248	 2.2135358659	 0.12423
H	 1.9007007045	-1.3575938752	-2.9408727325	 0.194935
82.4027	92.7961	119.2255	189.2117	213.4605	260.0288	309.1209	333.0465	397.7591	421.1993	461.0384	488.3474	568.1647	577.2199	627.7387	665.3896	762.4853	775.9289	838.8235	898.9346	914.2324	947.3445	970.4429	1031.1695	1034.7186	1116.1706	1125.4681	1131.1305	1154.1125	1173.5265	1191.1734	1203.9469	1292.9916	1325.5094	1361.3894	1399.3403	1422.9193	1477.9956	1488.0028	1493.1261	1495.4905	1521.9622	2239.8199	2984.3297	3043.4158	3084.9732	3100.5644	3104.9468	3118.364	3134.6628	3183.8042	3198.157	3502.0949	3699.4003
CC(O)(CN1CC1)C#C	C[C@@](O)(CN1CC1)C#C	
InChI=1S/C7H11NO/c1-3-7(2,9)6-8-4-5-8/h1,9H,4-6H2,2H3	InChI=1S/C7H11NO/c1-3-7(2,9)6-8-4-5-8/h1,9H,4-6H2,2H3/t7-/m0/s1
