17
gdb 72950	2.6508	1.50752	1.20838	1.3737	75.43	-0.2266	0.0362	0.2628	1066.2515	0.132721	-421.737121	-421.728189	-421.727245	-421.77009	34.116	
C	 0.0046910803	 1.5332857942	 0.0066029415	-0.484106
C	 0.0312526693	 0.0141242924	 0.0736491283	 0.052433
C	-1.1246657802	-0.6476444986	-0.4737267432	 0.276439
C	-2.0926913946	-1.1677837443	-0.9626563302	-0.428172
C	 1.3288818437	-0.7787807405	-0.1540567342	-0.028077
O	 2.4572371543	-0.0351862912	 0.2972825686	-0.285109
C	 1.9616230288	-0.0575753783	 1.6649664689	-0.166092
C	 0.6850077424	-0.7665214085	 1.2146348903	 0.267683
O	-0.033830053	-1.6655142305	 1.9621836921	-0.434099
H	 0.9965001238	 1.9449011926	 0.2042515534	 0.138629
H	-0.3004402508	 1.8560639614	-0.9923974438	 0.13163
H	-0.7064721626	 1.9461923409	 0.7282113595	 0.128035
H	-2.9528210394	-1.6295746471	-1.3797756297	 0.189978
H	 1.4610935776	-1.5099165036	-0.9421469037	 0.123039
H	 2.5980193296	-0.6950451953	 2.2914716664	 0.108056
H	 1.8833362179	 0.9405491192	 2.1075452074	 0.11712
H	 0.5197003729	-2.4342389025	 2.1413800786	 0.292614
127.465	140.3638	171.6665	223.0187	274.9788	281.6451	314.0586	354.9987	434.9294	469.1839	515.1714	554.3619	584.5823	655.5933	659.594	712.1767	738.6358	901.4644	937.901	971.4642	999.9452	1034.0078	1038.8765	1079.3206	1108.3956	1144.641	1207.0588	1222.112	1283.3245	1298.6318	1329.1361	1406.1508	1453.0967	1487.1335	1499.4792	1513.781	2233.6526	3023.6148	3048.0247	3083.332	3114.7982	3135.1622	3195.1412	3504.4833	3791.1346
CC1(C#C)C2OCC12O	C[C@@]1(C#C)[C@H]2OC[C@@]12O	
InChI=1S/C7H8O2/c1-3-6(2)5-7(6,8)4-9-5/h1,5,8H,4H2,2H3	InChI=1S/C7H8O2/c1-3-6(2)5-7(6,8)4-9-5/h1,5,8H,4H2,2H3/t5-,6-,7+/m1/s1
