14
gdb 50502	4.20563	1.09813	1.03042	3.8469	62.3	-0.2722	-0.0476	0.2247	1128.7068	0.099866	-473.823122	-473.81503	-473.814086	-473.857148	27.849	
O	 0.1307035008	 0.0021766432	 0.5576754511	-0.217279
C	 0.0701063841	 1.1527450055	 0.2264538345	 0.148014
C	 1.2772693842	 1.996488132	-0.1740059504	 0.007117
C	 1.6880152717	 2.9476522857	 0.9682490159	-0.144073
O	 2.578783903	 2.1234184123	 1.714368038	-0.224437
C	 3.2729477106	 1.3639782877	 0.7644303042	 0.059501
O	 2.4299893115	 1.1911397965	-0.3590141275	-0.241674
C	 4.5229015054	 2.0531109075	 0.3326948876	 0.283082
N	 5.4960260206	 2.5870999609	 0.0146424026	-0.313948
H	-0.8921739533	 1.715965504	 0.2068528471	 0.084777
H	 1.0531667394	 2.5363308265	-1.1012618532	 0.124203
H	 2.1976033662	 3.8379218057	 0.5789171023	 0.136397
H	 0.8722969499	 3.2489425039	 1.6276943555	 0.142434
H	 3.520877006	 0.3951358486	 1.2082384922	 0.155886
37.4346	84.1022	145.1329	170.8225	267.3602	297.4125	347.7968	515.7076	569.9565	672.0764	763.0968	786.9898	819.1219	904.9558	932.1919	966.1548	989.1024	1014.3523	1073.6922	1116.9609	1161.2345	1228.5622	1265.1664	1308.0135	1357.8728	1368.2955	1378.3869	1414.0097	1508.9706	1852.3726	2361.2943	2864.8095	3030.5162	3057.0412	3080.4023	3124.7688
O=CC1COC(O1)C#N	O=C[C@H]1CO[C@@H](O1)C#N	
InChI=1S/C5H5NO3/c6-1-5-8-3-4(2-7)9-5/h2,4-5H,3H2	InChI=1S/C5H5NO3/c6-1-5-8-3-4(2-7)9-5/h2,4-5H,3H2/t4-,5-/m0/s1
