13
gdb 42536	5.96559	1.09505	1.03494	3.2441	68.04	-0.2767	-0.0503	0.2264	1081.193	0.089416	-415.521876	-415.515153	-415.514209	-415.553282	25.308	
O	-0.0160634717	-0.0832520653	 0.0270368106	-0.306014
C	-0.0266714598	 1.1045082919	 0.0123451198	 0.501962
C	-0.9991558525	 2.2780215576	 0.0473440185	-0.171175
C	-0.0349915629	 3.05453328	 1.0074974886	-0.057047
C	-0.0833961472	 4.2455300351	 0.0485820736	-0.133919
C	 1.0590204654	 5.1439760497	-0.029105711	 0.29822
N	 1.9695886497	 5.8546972148	-0.071655113	-0.311602
N	-0.0644442875	 3.0615710629	-0.9385935825	-0.151065
C	 0.919878217	 2.2991085844	 0.0198163262	-0.175687
H	-2.0814134105	 2.3625985977	-0.0267029861	 0.120408
H	-0.0177577482	 3.0369304633	 2.0990786078	 0.112306
H	-1.0144542728	 4.8174527023	 0.0002954942	 0.136002
H	 1.9963826609	 2.4073142257	-0.0860488966	 0.137611
117.9423	132.7228	205.9934	327.898	478.9546	518.345	538.7111	675.1929	684.413	762.8442	797.4762	817.338	826.3224	900.4813	923.5503	996.5395	1009.5218	1042.4861	1063.661	1121.6815	1127.3637	1148.3232	1178.2179	1195.0848	1237.2878	1262.8347	1373.9427	1939.1301	2355.8426	3077.2106	3092.1474	3152.4765	3167.1052
O=C1C2C3C(C#N)N2C13	O=C1[C@H]2[C@@H]3[C@@H](C#N)N2[C@H]13	
InChI=1S/C6H4N2O/c7-1-2-3-4-6(9)5(3)8(2)4/h2-5H	InChI=1S/C6H4N2O/c7-1-2-3-4-6(9)5(3)8(2)4/h2-5H/t2-,3-,4+,5-/m1/s1
