18
gdb 54011	2.1555	1.52109	0.99294	2.0151	76.73	-0.2547	-0.0328	0.2219	1214.4258	0.14631	-435.298115	-435.288439	-435.287495	-435.333356	34.48	
C	 0.251419874	 0.5811736643	-2.1266740294	-0.464059
C	 0.13523592	-0.3536627324	-0.9416755927	 0.362649
N	 1.1239991908	-0.4863414131	-0.1673569397	-0.475872
N	-1.1218223778	-1.0749732649	-0.8216732328	-0.178573
C	-2.2815598126	-0.5603236505	-1.3897373283	 0.159281
O	-3.3869954737	-1.0351185758	-1.2747613077	-0.32243
C	-1.200674531	-2.3050358101	-0.0849783711	 0.351384
C	-1.9916042174	-3.4225533202	-0.7240463616	-0.456697
N	-0.5655464981	-2.3901408145	 1.0120585816	-0.46431
H	 1.3030972517	 0.8540653601	-2.2063055275	 0.159158
H	-0.0790603899	 0.1180044847	-3.0611531921	 0.133886
H	-0.3235367075	 1.50236742	-1.9850870409	 0.147213
H	 0.9052088515	-1.1188034665	 0.6055644937	 0.258041
H	-2.0998797193	 0.3649961382	-1.9514568802	 0.108964
H	-1.801983905	-3.4749123475	-1.7997018418	 0.140875
H	-1.7061063484	-4.3715175416	-0.2638392341	 0.123592
H	-3.0613970223	-3.2579076543	-0.5929042585	 0.184855
H	-0.6429508551	-3.3319411659	 1.3952973931	 0.232044
46.9918	64.2802	132.8217	147.1251	231.1522	271.7854	277.5118	299.3751	395.1463	422.9992	484.51	532.9969	558.2206	597.4151	633.1765	773.4442	876.4093	941.1372	986.9072	993.1575	1028.572	1058.3896	1070.6111	1079.5511	1092.2669	1165.2732	1263.4721	1345.9635	1376.0865	1404.5009	1408.0271	1457.6101	1467.1432	1481.1822	1483.6816	1497.373	1700.4327	1750.2874	1803.2114	3041.8058	3055.2281	3058.6202	3104.1041	3127.9481	3155.2792	3160.7007	3437.0249	3481.7639
CC(=N)N(C=O)C(C)=N	CC(=N)N(C=O)C(=N)C	
InChI=1S/C5H9N3O/c1-4(6)8(3-9)5(2)7/h3,6-7H,1-2H3	InChI=1S/C5H9N3O/c1-4(6)8(3-9)5(2)7/h3,6-7H,1-2H3
