18
gdb 32268	2.47943	1.47783	0.93879	1.8297	82.97	-0.2033	0.0073	0.2105	1214.8198	0.15002	-402.010063	-402.001781	-402.000837	-402.042763	32.31	
N	 0.010489856	 1.4113209596	 0.131261464	-0.595875
C	 0.0265903736	 0.011617622	 0.0306580585	 0.229265
C	-1.1625935165	-0.7199482072	 0.1229919664	-0.171106
C	-1.1490857319	-2.1094308199	 0.0789106201	-0.10789
C	 0.0536567715	-2.7928220537	-0.0720789877	-0.132888
C	 1.2400610771	-2.0683926124	-0.1610467954	-0.188553
C	 1.2492688704	-0.6767227022	-0.098478079	 0.188455
C	 2.5503491839	 0.0989647801	-0.1515915551	-0.169407
O	 3.7084145504	-0.6960473974	 0.0275120487	-0.408756
H	 0.676451323	 1.8907328415	-0.4578676412	 0.250181
H	-0.9097030001	 1.8129405445	 0.0162510804	 0.243631
H	-2.1038808842	-0.1871557594	 0.2290803682	 0.07745
H	-2.0842831203	-2.654984479	 0.1527987744	 0.090936
H	 0.0704674306	-3.8759609462	-0.119360532	 0.088139
H	 2.188531544	-2.5802271723	-0.2816755692	 0.099806
H	 2.6793806232	 0.5716510705	-1.1360053651	 0.116549
H	 2.5123395185	 0.9187804863	 0.5844321545	 0.105827
H	 3.6535228407	-1.0899547448	 0.9048248494	 0.284236
85.0666	172.4036	211.111	253.6802	306.0738	332.9376	359.9303	448.1069	494.9683	529.7893	548.4443	609.6687	660.9952	735.6629	777.1879	783.2694	852.4491	867.7784	934.5675	962.5358	999.2932	1056.976	1064.5623	1095.6639	1160.3098	1181.8801	1207.7255	1215.5045	1283.5385	1321.7488	1350.0483	1396.5066	1418.0427	1489.6669	1504.6553	1529.2356	1624.8478	1644.0467	1667.6731	2967.753	3013.9874	3155.5198	3176.1977	3187.8242	3200.597	3555.0175	3647.3898	3808.4794
NC1=CC=CC=C1CO	Nc1ccccc1CO	
InChI=1S/C7H9NO/c8-7-4-2-1-3-6(7)5-9/h1-4,9H,5,8H2	InChI=1S/C7H9NO/c8-7-4-2-1-3-6(7)5-9/h1-4,9H,5,8H2
