17
gdb 17180	4.0381	1.94191	1.64248	1.7351	68.57	-0.2426	0.0862	0.3287	837.6017	0.142319	-363.753488	-363.746517	-363.745573	-363.784735	26.642	
C	 0.0040761348	 1.3796792099	 0.0364592796	-0.264844
O	-0.0462798518	-0.0335869859	-0.0661763019	-0.286935
C	-1.3218335354	-0.549362492	-0.0520792768	 0.396205
C	-2.4964408204	-0.3622911378	-1.0133704419	-0.25146
N	-3.0550363897	-1.3887501053	-0.0333130169	-0.155871
C	-1.6570318216	-2.0545915663	 0.084957445	-0.055143
C	-1.7258383442	-2.023482964	 1.615649578	-0.262591
C	-2.3317937243	-0.6962730305	 1.1466021333	-0.070203
H	 1.0574569548	 1.6651544514	 0.0110382242	 0.132725
H	-0.5171688908	 1.8652436773	-0.7999661613	 0.116146
H	-0.4403162164	 1.7315801038	 0.9779784246	 0.113374
H	-3.0434885577	 0.5856932075	-1.0032747212	 0.100341
H	-2.394802524	-0.7447743381	-2.0340576575	 0.103919
H	-1.3745964715	-2.859051362	-0.5957488793	 0.085346
H	-2.417069177	-2.7306271057	 2.0805361449	 0.108209
H	-0.7740420617	-1.9701385631	 2.1472963166	 0.109743
H	-2.8388287731	 0.0876527409	 1.7113380506	 0.081038
82.9608	169.1488	205.2329	303.9845	372.9728	460.1134	492.1351	609.2427	735.7628	796.8501	859.8589	873.2245	889.3682	916.3283	943.8146	1009.3584	1012.655	1054.7404	1084.7042	1092.2709	1117.2524	1134.7495	1144.0386	1180.3829	1188.9741	1199.6482	1220.1571	1237.2214	1247.1172	1280.0628	1341.9114	1482.8245	1488.3085	1490.2721	1505.4191	1516.9791	2995.0664	3040.1642	3049.809	3066.9766	3102.5172	3102.8767	3110.5092	3127.4104	3135.5108
COC12CN3C1CC23	CO[C@@]12CN3[C@@H]1C[C@@H]23	
InChI=1S/C6H9NO/c1-8-6-3-7-4(6)2-5(6)7/h4-5H,2-3H2,1H3	InChI=1S/C6H9NO/c1-8-6-3-7-4(6)2-5(6)7/h4-5H,2-3H2,1H3/t4-,5+,6+
