22
gdb 106330	2.73799	1.2568	1.04506	1.7295	83.57	-0.1967	0.0796	0.2763	1271.2568	0.192131	-404.283873	-404.273928	-404.272984	-404.318453	36.727	
C	 0.0038406785	 1.5930138169	 0.3350583464	-0.25464
O	-0.0781165333	 0.1858584537	 0.4858086048	-0.276791
C	-1.3439721856	-0.3125560445	 0.2707954229	 0.382759
C	-2.4129270829	-0.4264806452	 1.3738642155	-0.257512
N	-2.6582925768	-1.8298885648	 0.9574789434	-0.059772
C	-4.0047958278	-2.3310637242	 0.7661420493	-0.327043
C	-1.7180955846	-1.7162017364	-0.1509813555	-0.134333
C	-1.9297889847	-0.5387829344	-1.1033327142	-0.070879
C	-3.2371710247	 0.0107514177	-1.6349138281	-0.427142
H	 1.0439980252	 1.8735798426	 0.515188516	 0.127508
H	-0.2843896605	 1.9060079536	-0.6782674995	 0.110053
H	-0.6360722743	 2.11885057	 1.0582147173	 0.110334
H	-1.9948798862	-0.3608536356	 2.3845958826	 0.109537
H	-3.2756028953	 0.2492661238	 1.2972195898	 0.089683
H	-4.6371565424	-1.7350003554	 0.0877601986	 0.09593
H	-3.9503539672	-3.3485371661	 0.3645440213	 0.1212
H	-4.5112837054	-2.3868412394	 1.7362623633	 0.117993
H	-1.0845271084	-2.5554068559	-0.4212812711	 0.097084
H	-1.1252859804	-0.5384280629	-1.8394554513	 0.090898
H	-3.9757260654	 0.166719494	-0.8457026957	 0.122631
H	-3.0752549245	 0.9785531099	-2.1233331213	 0.113698
H	-3.6819225633	-0.6630374174	-2.3753347645	 0.118802
70.0035	135.9217	158.9943	180.0656	187.2426	221.5818	238.4463	269.215	333.5857	359.686	417.2066	467.2479	603.9336	624.2218	698.8801	771.0042	839.0792	918.3119	968.1439	984.1046	986.0193	1046.5923	1068.6689	1076.6637	1117.3086	1125.3405	1140.0423	1165.8751	1179.3831	1200.4508	1224.9704	1235.0436	1237.7052	1292.4931	1303.3957	1348.6208	1412.3799	1445.7007	1451.0387	1479.2571	1486.9856	1489.0356	1500.4257	1502.6513	1507.5042	1510.9634	1513.6905	2972.2478	2989.2304	3005.5088	3030.3425	3042.615	3054.1723	3059.4468	3084.9898	3093.7504	3106.2027	3120.7035	3124.9202	3156.505
COC12CN(C)C1C2C	CO[C@]12CN(C)[C@H]1[C@H]2C	
InChI=1S/C7H13NO/c1-5-6-7(5,9-3)4-8(6)2/h5-6H,4H2,1-3H3	InChI=1S/C7H13NO/c1-5-6-7(5,9-3)4-8(6)2/h5-6H,4H2,1-3H3/t5-,6+,7+/m1/s1
