15
gdb 50276	2.21245	1.49664	1.04877	4.8494	71.63	-0.2548	-0.0497	0.2051	1122.4778	0.112239	-416.773123	-416.765043	-416.764099	-416.806668	29.298	
O	-0.5316559845	 0.9203015021	 0.9180133784	-0.232572
C	 0.2045728879	 0.8662945879	-0.0313321644	 0.170364
C	 1.4588486927	 1.7105101364	-0.1643007772	-0.125126
N	 2.5905362847	 1.0582261751	-0.8908693757	-0.336064
C	 2.7137762757	 2.2176632198	-1.7868660744	-0.045905
C	 1.4988949185	 2.3072164787	-2.6332573635	-0.309772
C	 1.4293912658	 2.856118947	-1.2101153854	 0.146709
C	 1.1050242433	 4.2090417107	-0.9212140607	 0.205505
N	 0.8530325917	 5.3135946438	-0.680887484	-0.344471
H	 0.0098935833	 0.1921279972	-0.8932937671	 0.088396
H	 1.7320954416	 2.1034394013	 0.8185018957	 0.119577
H	 3.3951064482	 0.9460510144	-0.2851296193	 0.243585
H	 3.661839348	 2.6845748874	-2.0218777005	 0.131322
H	 1.5021267875	 3.0869437726	-3.3869094482	 0.150043
H	 0.9597270158	 1.4042609756	-2.8987108736	 0.138408
45.7213	107.3918	169.66	187.9689	279.0272	400.6891	442.248	454.1009	516.6148	560.7194	600.829	730.1936	796.454	819.8866	893.5453	946.8393	982.8666	1014.7417	1034.2941	1048.6798	1082.753	1103.285	1113.0464	1199.5449	1205.3343	1254.8697	1327.0526	1363.5095	1402.2329	1415.7688	1480.4356	1833.9811	2342.7872	2902.0209	3085.1298	3136.694	3202.4813	3232.0408	3551.9831
O=CC1NC2CC12C#N	O=C[C@H]1N[C@H]2C[C@@]12C#N	
InChI=1S/C6H6N2O/c7-3-6-1-4(6)8-5(6)2-9/h2,4-5,8H,1H2	InChI=1S/C6H6N2O/c7-3-6-1-4(6)8-5(6)2-9/h2,4-5,8H,1H2/t4-,5+,6-/m0/s1
