21
gdb 94857	3.54842	1.0998	1.03632	2.7858	77.43	-0.241	0.0621	0.3031	1235.3896	0.18365	-424.214276	-424.205757	-424.204813	-424.248423	32.625	
O	-0.3421322072	 1.4696645528	 0.3178083669	-0.440192
C	-0.0054190401	 0.1154099208	 0.0157327507	 0.126894
C	 0.7591055768	-0.5443636144	 1.1763484572	-0.243215
C	-0.3552345222	-0.8298482511	 2.1916181694	-0.265878
C	-1.5136169286	-1.3615833955	 1.3260438242	 0.326751
C	-1.6886758622	-2.9044826688	 1.330658333	-0.120504
O	-2.9032100697	-2.8161933466	 2.0970658019	-0.274269
C	-2.907877583	-1.3783101179	 1.9928574172	-0.134725
C	-1.3313138205	-0.6681946539	-0.0481666011	-0.29926
H	 0.4787330829	 1.9579158389	 0.4391159112	 0.279721
H	 0.5484645371	 0.0676753339	-0.9320929243	 0.059478
H	 1.2174885563	-1.4798705843	 0.8301134755	 0.097403
H	 1.563580333	 0.089187962	 1.5650895517	 0.086425
H	-0.0673937826	-1.523402941	 2.9865757213	 0.09774
H	-0.6589777023	 0.1113148172	 2.6629274547	 0.109553
H	-1.8639453026	-3.3482201291	 0.3398815172	 0.08936
H	-0.9141194685	-3.4858008245	 1.8482662493	 0.095438
H	-2.9784913628	-0.8943845384	 2.9753251182	 0.098125
H	-3.7280077553	-1.0164782413	 1.3570490304	 0.093798
H	-2.1449277991	 0.0271867918	-0.2711427047	 0.118498
H	-1.3055416995	-1.4074356806	-0.8547423301	 0.098861
30.6122	75.3716	171.4355	271.8113	328.2973	332.8085	383.1361	395.2	424.9765	488.6489	656.6277	761.4006	829.7198	837.151	856.263	890.5566	908.7854	955.0976	969.8537	986.9515	997.3919	1004.677	1042.1127	1061.4889	1080.9319	1140.629	1157.9619	1161.5886	1202.5767	1213.9113	1235.8833	1247.927	1269.2748	1307.0534	1311.2194	1329.9941	1353.1345	1369.034	1383.8274	1420.7673	1473.6769	1480.2242	1491.9642	1510.7956	1535.2889	2985.0631	2997.8848	2999.7982	3027.8304	3034.6672	3041.8193	3047.0599	3054.9554	3075.8097	3096.0119	3101.8958	3812.3751
OC1CCC2(COC2)C1	O[C@H]1CCC2(COC2)C1	
InChI=1S/C7H12O2/c8-6-1-2-7(3-6)4-9-5-7/h6,8H,1-5H2	InChI=1S/C7H12O2/c8-6-1-2-7(3-6)4-9-5-7/h6,8H,1-5H2/t6-/m0/s1
