22
gdb 73565	2.1333	1.99885	1.46723	1.7037	83.78	-0.223	0.0807	0.3038	1030.2274	0.196485	-367.180936	-367.173014	-367.17207	-367.212843	32.487	
C	 0.1307784054	 1.529998809	-0.0470977313	-0.475246
C	-0.0231041771	 0.0140709181	-0.0069604237	 0.342345
C	-1.4250806483	-0.4782955065	-0.4200556851	-0.275768
C	-1.7685002693	-1.6886935847	 0.4904482069	-0.222959
C	-0.8403842787	-1.5872939536	 1.734621272	-0.233858
C	 0.3264105911	-0.6682769971	 1.3468073458	-0.002299
N	 1.6129638523	-1.2607669134	 0.7954983085	-0.148094
C	 1.2686446377	-2.1548923184	-0.3245623422	-0.260029
C	 1.2209368575	-0.70178166	-0.5669059805	-0.074433
H	 1.1238065039	 1.8366106939	 0.2977539304	 0.123113
H	-0.0010749796	 1.913711501	-1.0658960041	 0.113911
H	-0.615438969	 2.0168387311	 0.5904716528	 0.111957
H	-2.148116855	 0.3290522367	-0.2551762981	 0.095744
H	-1.4789601976	-0.735639335	-1.482806268	 0.098441
H	-2.8241525119	-1.6856356461	 0.777773772	 0.094718
H	-1.6068019019	-2.6303942338	-0.0418475499	 0.108483
H	-1.3821684373	-1.1315646626	 2.5702911257	 0.102079
H	-0.4962172999	-2.5665565121	 2.0822429625	 0.10948
H	 0.6039507635	 0.014368465	 2.1526640404	 0.075833
H	 2.1412848697	-2.6804310919	-0.7031656208	 0.118109
H	 0.3738824761	-2.7644984171	-0.2927012919	 0.112858
H	 1.9560847785	-0.2072052024	-1.1971193517	 0.085615
118.014	184.7778	237.7931	261.3282	288.8792	327.6653	404.6668	496.1362	571.0144	620.8032	674.6088	730.4004	741.7181	776.4089	841.4055	861.2757	893.1274	926.3572	936.1281	960.7941	995.5362	1011.3803	1051.1173	1053.3647	1066.1824	1106.4368	1127.3801	1142.5297	1156.523	1194.6516	1219.4834	1232.3469	1251.2852	1258.8194	1278.0901	1317.7659	1320.5971	1338.0033	1353.9544	1388.7538	1411.6098	1479.872	1482.0743	1492.1206	1498.3194	1500.9714	1521.3447	3021.0468	3032.4913	3041.7819	3052.5457	3070.9446	3078.2333	3083.6887	3086.0162	3097.0315	3098.9191	3126.465	3138.1801	3215.6693
CC12CCCC1N1CC21	C[C@]12CCC[C@H]1N1C[C@@H]21	
InChI=1S/C8H13N/c1-8-4-2-3-6(8)9-5-7(8)9/h6-7H,2-5H2,1H3	InChI=1S/C8H13N/c1-8-4-2-3-6(8)9-5-7(8)9/h6-7H,2-5H2,1H3/t6-,7+,8+,9?/m1/s1
