20
gdb 94988	2.76777	1.75423	1.52533	1.7584	76.84	-0.2302	0.0759	0.3062	968.6962	0.173421	-403.104996	-403.097597	-403.096653	-403.136432	30.092	
C	-0.2048131889	 1.5686898153	 0.0281300379	-0.407064
C	 0.035397302	 0.0590217871	-0.0358541862	 0.11647
O	 0.6886419304	-0.338461354	-1.2439267236	-0.268632
C	 2.0728687748	-0.0410767356	-1.3435508321	-0.116183
C	 2.8729630812	-0.1512686706	-0.0596180465	-0.014173
C	 2.2445767865	 0.0672424363	 1.2540741433	-0.069157
C	 0.8112689513	-0.4803448332	 1.1683030481	-0.056089
C	 1.4704007941	-1.8651817399	 0.9368795551	-0.170572
N	 2.8583359919	-1.2764216014	 0.9058452879	-0.162637
H	 0.7353846104	 2.1218104497	 0.120007818	 0.121698
H	-0.7169347118	 1.9091391059	-0.875864522	 0.125373
H	-0.8273952943	 1.820544308	 0.8930377146	 0.114843
H	-0.9327804161	-0.4527506924	-0.0924281054	 0.083803
H	 2.4654697061	-0.7271983534	-2.1027802132	 0.116663
H	 2.2234081115	 0.983230518	-1.7248026051	 0.097388
H	 3.8879539294	 0.222623699	-0.1765950343	 0.098639
H	 2.6510323977	 0.706156927	 2.0311067664	 0.089432
H	 0.228179922	-0.3972471316	 2.0868592142	 0.076333
H	 1.3998620545	-2.5219674253	 1.8064552485	 0.107142
H	 1.1838464573	-2.4131794788	 0.0365510644	 0.116722
152.1964	179.8918	223.3079	275.176	359.7444	387.7345	471.1076	490.6772	600.0124	706.413	736.9439	771.8121	794.4841	832.599	859.2104	914.5067	947.9827	958.5975	983.3317	1017.3339	1033.8147	1062.0078	1073.4741	1087.8367	1109.9756	1132.4657	1179.0282	1194.094	1230.2718	1241.5648	1283.5641	1300.7796	1319.3645	1331.0661	1362.0833	1383.1468	1401.3923	1407.9873	1444.5555	1487.4875	1493.5699	1497.1134	1505.5658	2960.9164	3035.2813	3037.8842	3055.0742	3066.373	3095.5674	3106.832	3118.5437	3123.3904	3135.1051	3162.8564
CC1OCC2C3C1CN23	C[C@H]1OC[C@H]2[C@H]3[C@@H]1CN23	
InChI=1S/C7H11NO/c1-4-5-2-8-6(3-9-4)7(5)8/h4-7H,2-3H2,1H3	InChI=1S/C7H11NO/c1-4-5-2-8-6(3-9-4)7(5)8/h4-7H,2-3H2,1H3/t4-,5-,6+,7-,8?/m1/s1
