17
gdb 17538	3.73721	1.95059	1.67413	1.9928	67.58	-0.2423	0.0715	0.3138	826.5509	0.143172	-363.795214	-363.788166	-363.787222	-363.826189	27.88	
O	-0.210763437	 1.4414704635	 0.1395820978	-0.437899
C	-0.1218298483	 0.0464612691	 0.0784727163	 0.12373
C	-0.4203495205	-0.8148569773	 1.2709506318	-0.09453
C	-1.5441490192	-0.1921827534	 2.1133972538	-0.319684
C	-2.4233180622	-0.1777284611	 0.8483406231	 0.36943
C	-3.8834422579	-0.3353023961	 0.7411991298	-0.326759
N	-3.2361868129	 0.9380485996	 0.3419602621	-0.377471
C	-1.3365918272	-0.8277842147	 0.0201657636	-0.192977
H	-1.0098037388	 1.6977354669	-0.3355032066	 0.301751
H	 0.7156369142	-0.306099974	-0.5228646566	 0.091523
H	 0.2642849325	-1.5798182511	 1.6152084052	 0.090317
H	-1.9257620025	-0.8662193273	 2.8843219332	 0.106884
H	-1.3154414726	 0.7827114784	 2.554182922	 0.109879
H	-4.3130330399	-0.9053419761	-0.0787632597	 0.120509
H	-4.4680551102	-0.3526586942	 1.657758076	 0.114032
H	-3.3635453535	 1.624952945	 1.0822864873	 0.232932
H	-1.4867752241	-1.5881842271	-0.7371071889	 0.088334
103.5735	201.7545	279.4837	323.4661	341.7916	379.5503	502.6853	543.7254	659.8016	739.2801	797.1937	824.9457	851.3871	895.9207	937.0621	951.099	969.3806	982.514	1005.2168	1012.2334	1053.1435	1073.5699	1097.814	1129.9914	1173.5561	1196.6701	1238.8857	1253.9469	1273.8556	1297.6418	1329.8927	1366.6713	1418.7877	1431.3322	1476.7547	1515.8642	3051.9174	3102.1108	3107.5722	3112.0423	3178.7862	3186.2797	3193.9576	3488.1076	3794.1769
OC1C2CC3(CN3)C12	O[C@H]1[C@H]2C[C@]3(CN3)[C@@H]12	
InChI=1S/C6H9NO/c8-5-3-1-6(2-7-6)4(3)5/h3-5,7-8H,1-2H2	InChI=1S/C6H9NO/c8-5-3-1-6(2-7-6)4(3)5/h3-5,7-8H,1-2H2/t3-,4+,5-,6-/m0/s1
