18
gdb 10337	2.53466	1.63695	1.12182	3.5874	64.6	-0.2479	-0.0199	0.228	1078.6672	0.151322	-422.086743	-422.077198	-422.076254	-422.12144	33.544	
C	 0.0289889291	 1.4693073038	 0.1537423378	-0.476716
C	 0.0455591779	-0.0225367464	-0.0829107663	 0.388659
O	 1.0715371961	-0.6111632246	-0.3663688077	-0.330084
C	-1.2837600335	-0.7780874045	 0.0278208982	-0.106634
C	-1.1627872253	-2.1913939852	-0.5709642882	-0.071456
O	-0.6731667948	-2.1921308914	-1.8928492564	-0.430108
C	-1.7564156447	-0.8727472628	 1.4886187933	-0.098151
O	-2.2535447523	 0.3885687922	 1.9118514974	-0.413755
H	 1.0482474453	 1.8575066896	 0.1613517569	 0.133718
H	-0.5377728964	 1.9508807492	-0.6527664992	 0.144577
H	-0.4985386981	 1.7020934605	 1.0821040961	 0.160992
H	-2.0473741981	-0.2120784447	-0.5207078018	 0.105296
H	-0.5365531309	-2.8111998547	 0.0895126657	 0.093736
H	-2.1578564667	-2.6482499426	-0.6030581581	 0.106475
H	 0.2452527425	-1.9020018942	-1.8238912134	 0.29509
H	-2.5446626332	-1.6397692945	 1.5438870988	 0.101862
H	-0.9257424519	-1.2112520264	 2.1273342165	 0.10381
H	-2.4870672351	 0.3238277468	 2.8428013204	 0.292687
43.2513	106.3431	135.4957	171.0371	213.1239	227.2902	263.0988	283.6799	354.5414	409.9626	476.557	553.334	605.95	617.7997	726.2575	918.0631	950.9082	991.3023	1028.4394	1047.746	1082.7198	1109.0259	1120.1659	1195.0031	1212.749	1239.6216	1265.1168	1294.7294	1374.615	1390.2888	1405.5255	1435.1058	1453.9405	1467.2229	1472.5574	1495.7796	1523.357	1779.7062	2970.2196	2985.1367	3001.9728	3037.3842	3043.4378	3070.2602	3110.4811	3159.4674	3775.9993	3827.1
CC(=O)C(CO)CO	CC(=O)C(CO)CO	
InChI=1S/C5H10O3/c1-4(8)5(2-6)3-7/h5-7H,2-3H2,1H3	InChI=1S/C5H10O3/c1-4(8)5(2-6)3-7/h5-7H,2-3H2,1H3
