20
gdb 78943	2.65212	1.96855	1.5062	0.9779	81.56	-0.2144	0.087	0.3014	964.7512	0.171578	-365.929028	-365.9215	-365.920556	-365.960468	30.782	
C	 0.0033099803	 1.5335321715	-0.1291374499	-0.327341
N	-0.0105494722	 0.087687814	 0.0119483527	-0.063107
C	-1.2281741031	-0.5671383612	 0.5305941899	-0.040416
C	-1.4660016226	-0.1291522101	 2.0161434027	-0.134267
C	-0.8248548215	-1.3770916315	 2.5836785711	-0.176882
C	-0.3478141377	-1.7087603194	 1.1398916137	-0.060235
C	 0.6822334867	-0.5320713923	 1.1600113296	-0.1042
C	-0.0147149985	-0.1025135571	 2.5032902722	 0.364462
C	 0.5083797033	 0.7712262772	 3.6037723272	-0.52099
H	 1.0199733098	 1.8688155383	-0.3606145875	 0.116523
H	-0.6429194383	 1.8249100935	-0.9643266146	 0.116914
H	-0.3401830764	 2.0681881865	 0.7723814556	 0.101136
H	-2.0761319079	-0.6918020279	-0.1435666071	 0.06588
H	-2.2392352838	 0.4939423671	 2.4465002677	 0.081581
H	-1.0991050098	-1.992409516	 3.4293664034	 0.085225
H	-0.177356361	-2.6765317649	 0.6777588635	 0.075766
H	 1.7692641838	-0.6197213069	 1.1220379581	 0.061902
H	 0.7038834112	 1.7914222939	 3.2533884041	 0.119905
H	-0.2087561446	 0.8365600303	 4.4295235757	 0.119634
H	 1.4452886523	 0.377548145	 4.0148142717	 0.118511
170.2693	185.139	229.7793	236.9558	283.4903	320.7075	548.3109	595.7022	629.7408	679.5154	773.7796	779.5179	813.5622	829.8732	848.6025	865.7305	887.2268	898.1639	912.7021	948.0752	973.9229	1019.7762	1063.7098	1074.43	1106.7214	1142.5399	1154.3971	1157.5359	1163.6031	1184.5809	1200.8426	1216.4403	1239.5925	1258.0225	1275.8158	1302.6577	1409.2374	1425.9797	1446.702	1485.8431	1487.0445	1499.3251	1506.1326	2966.8917	3019.7464	3058.2091	3078.2558	3088.6331	3095.0182	3101.8831	3109.0796	3161.066	3193.9441	3209.8094
CN1C2C3C4C2C1C34C	CN1[C@@H]2[C@H]3[C@H]4[C@@H]2[C@@H]1[C@@]34C	
InChI=1S/C8H11N/c1-8-4-3-6(5(4)8)9(2)7(3)8/h3-7H,1-2H3	InChI=1S/C8H11N/c1-8-4-3-6(5(4)8)9(2)7(3)8/h3-7H,1-2H3/t3-,4+,5+,6-,7+,8+/m0/s1
