16
gdb 42214	3.27228	1.33853	1.11757	5.8298	76.62	-0.2525	-0.0455	0.207	1088.9231	0.125376	-396.863135	-396.855612	-396.854668	-396.895615	28.483	
N	 0.0317020351	 1.2502887984	-0.4222441611	-0.496213
C	 0.113127979	 0.0440706887	-0.0107054213	 0.207032
C	-1.0927501351	-0.7728064326	-0.0477314449	 0.313472
N	-2.0178378154	-1.464378452	-0.0856036797	-0.328716
N	 1.1817825334	-0.6094571113	 0.5901596938	-0.116115
C	 2.6148909044	-0.4231681175	 0.1262240441	-0.037395
C	 2.9452734379	-1.6900958008	 0.9611441506	-0.218146
C	 1.6510319575	-1.9953760101	 0.1628518906	-0.027356
C	 2.3233979805	-1.3572845542	-1.0873629085	-0.225933
H	 0.9391280543	 1.716086886	-0.3538977601	 0.225975
H	 3.1033688673	 0.5503470803	 0.1499903925	 0.103853
H	 3.8372924443	-2.2420888579	 0.6658043642	 0.113129
H	 2.8322398692	-1.5965157184	 2.0407670113	 0.123121
H	 0.9883971017	-2.8565232559	 0.228636371	 0.123811
H	 1.6562425227	-0.9620975307	-1.8548073695	 0.128628
H	 3.1751578232	-1.8882455018	-1.5181932627	 0.110855
70.9541	130.2932	160.1511	259.0706	327.3915	456.7615	491.9442	566.5505	619.2584	690.1532	760.9918	787.2991	797.089	881.1255	887.1304	900.694	911.1037	943.1951	1010.286	1013.6859	1073.7655	1088.2554	1119.7594	1121.9854	1191.6217	1196.7877	1203.5408	1228.3677	1259.7854	1271.1325	1364.8717	1483.569	1522.8845	1671.1316	2358.2955	3070.8779	3092.8861	3126.4759	3143.7399	3146.0056	3172.387	3460.3394
N=C(C#N)N1C2CC1C2	[NH][C](C#N)N1[C@H]2C[C@@H]1C2	
InChI=1S/C6H7N3/c7-3-6(8)9-4-1-5(9)2-4/h4-5,8H,1-2H2	InChI=1S/C6H7N3/c7-3-6(8)9-4-1-5(9)2-4/h4-5,8H,1-2H2/t4-,5+
