18
gdb 67897	2.42195	1.84999	1.33195	3.3034	75.36	-0.2343	-0.0377	0.1966	1000.9852	0.146836	-401.893843	-401.886093	-401.885149	-401.925766	30.762	
C	-0.0296159174	 1.5051289961	-0.0394996506	-0.497037
C	-0.0175674723	-0.0057976975	 0.0057634309	 0.33865
C	-1.3789038346	-0.7641115085	-0.0281248981	-0.427568
C	-0.9035409762	-1.5906616622	 1.189885174	 0.400375
O	-1.3950402622	-2.4680856556	 1.8368291326	-0.292758
C	 0.4302751799	-0.8097154944	 1.2646834426	-0.142239
N	 1.6452924197	-1.3894797109	 0.5491445271	-0.141893
C	 1.1830738156	-2.1586108169	-0.6268669274	-0.261724
C	 1.1645735645	-0.687371399	-0.7181327601	-0.072126
H	 0.9593559411	 1.9144992492	 0.1928940574	 0.129545
H	-0.3139857619	 1.8670577098	-1.0347074382	 0.124491
H	-0.7431222727	 1.9180487181	 0.6813696724	 0.120562
H	-2.2282407231	-0.1239073637	 0.2360226287	 0.133841
H	-1.6395553156	-1.3318034512	-0.9260747993	 0.128663
H	 0.7134006087	-0.3619532838	 2.2183362079	 0.099425
H	 2.0081184885	-2.665771829	-1.1187888289	 0.129347
H	 0.2731732015	-2.7488541983	-0.5798461315	 0.132635
H	 1.8657058865	-0.1441443923	-1.3458366998	 0.097812
100.7032	211.4152	225.9936	259.6737	304.4454	350.4609	438.2478	480.937	558.5201	587.0198	628.4927	712.9388	735.0816	809.8068	851.0076	872.3101	909.4261	952.0982	975.8705	1002.1579	1045.931	1059.9426	1079.7025	1108.599	1135.7803	1144.7775	1165.4943	1199.9674	1218.7526	1245.1362	1254.7953	1276.699	1380.1991	1413.7951	1433.5232	1490.0111	1496.0336	1517.1491	1884.0676	3024.1412	3046.5082	3088.1716	3098.6145	3102.9788	3105.6184	3121.4157	3146.6698	3202.6871
CC12CC(=O)C1N1CC21	C[C@]12CC(=O)[C@H]1N1C[C@@H]21	
InChI=1S/C7H9NO/c1-7-2-4(9)6(7)8-3-5(7)8/h5-6H,2-3H2,1H3	InChI=1S/C7H9NO/c1-7-2-4(9)6(7)8-3-5(7)8/h5-6H,2-3H2,1H3/t5-,6+,7+,8?/m0/s1
