19
gdb 106800	2.54354	1.47485	1.12582	0.9444	70.95	-0.2318	0.0826	0.3145	1130.8936	0.158121	-460.138549	-460.129664	-460.12872	-460.172032	33.459	
C	-0.102245379	 1.4954636258	-0.065245774	-0.467973
C	 0.0617471998	 0.0099278223	 0.0638216615	 0.353925
C	 1.3716282553	-0.7246237271	-0.1844318018	-0.420736
C	 0.7010943352	-0.7589567772	 1.1794699501	 0.342164
C	 1.3244359691	-0.2384628562	 2.4407307492	-0.143943
O	 2.2534479921	-1.151473123	 3.0009500503	-0.413744
O	-0.1429411761	-1.8658138175	 1.439582343	-0.308875
C	-1.027510119	-1.9695348327	 0.3378658339	 0.00207
O	-1.1237268168	-0.6938890958	-0.2592925535	-0.292536
H	 0.7996683323	 2.0137177021	 0.2709691324	 0.123879
H	-0.2805865713	 1.7720785419	-1.1093894432	 0.133759
H	-0.9510402397	 1.8439477835	 0.5307277577	 0.13111
H	 1.3823807635	-1.6165098379	-0.800940659	 0.122387
H	 2.264897002	-0.1137695212	-0.2651783636	 0.122277
H	 1.8814240581	 0.6788102859	 2.2273536981	 0.108682
H	 0.525246588	 0.0080670823	 3.1567633213	 0.097722
H	 1.7823969684	-1.9825045884	 3.1271830926	 0.292744
H	-0.6433431913	-2.7057833516	-0.3870109067	 0.095312
H	-2.0151906807	-2.2812470652	 0.6924078717	 0.121776
77.835	132.7151	192.057	201.4552	224.0914	275.3448	348.7016	378.0699	398.5269	453.9157	471.8406	608.6276	726.1131	736.7493	797.1975	884.7607	903.9913	922.7452	954.9556	969.4036	998.8337	1047.5575	1057.9925	1099.2563	1120.3276	1137.0399	1162.5287	1213.2388	1227.7585	1263.8442	1293.1643	1379.7383	1393.296	1419.6243	1432.2381	1443.0202	1476.7262	1483.182	1491.6751	1506.4119	1553.219	2963.8266	2988.3388	3040.4979	3072.8938	3086.1456	3106.7136	3121.7137	3134.7355	3222.5795	3810.0059
CC12CC1(CO)OCO2	C[C@@]12C[C@]1(CO)OCO2	
InChI=1S/C6H10O3/c1-5-2-6(5,3-7)9-4-8-5/h7H,2-4H2,1H3	InChI=1S/C6H10O3/c1-5-2-6(5,3-7)9-4-8-5/h7H,2-4H2,1H3/t5-,6-/m1/s1
