19
gdb 83510	2.21368	1.82636	1.41629	2.2207	75.55	-0.2313	0.003	0.2343	1014.1775	0.160687	-423.025644	-423.017931	-423.016987	-423.057394	31.092	
C	-0.0403283231	 1.4722220467	 0.0104646421	-0.515324
C	-0.089686793	-0.018861975	-0.0427657229	 0.325158
C	-0.1036108364	-0.8334873055	-1.1126164832	-0.221194
C	-0.0003770879	-2.2521350729	-0.5813470938	 0.037705
O	 1.3345844129	-2.4342226829	-0.037713209	-0.277022
C	 1.4102601388	-1.580275686	 1.1151206256	-0.077945
C	 0.0081247587	-0.9170207128	 1.1872109776	-0.184804
C	-0.8392576082	-2.1387317437	 0.7139769028	 0.152695
O	-2.2174322653	-1.9333873281	 0.5744430075	-0.448182
H	 0.89127975	 1.8198783537	 0.4749878477	 0.134634
H	-0.1044651266	 1.9131829308	-0.9880256999	 0.128949
H	-0.8585499308	 1.8755577429	 0.6198691414	 0.13103
H	-0.0635016793	-0.5415531075	-2.1548455552	 0.098942
H	-0.2066489636	-3.0758421847	-1.2620490281	 0.077285
H	 1.6136873558	-2.1878717999	 2.0058394046	 0.102387
H	 2.2222461371	-0.8531043281	 0.9930627139	 0.098152
H	-0.2455916935	-0.4712156392	 2.1490628108	 0.07115
H	-0.7182303762	-3.0158990082	 1.3546065086	 0.093511
H	-2.3277219392	-1.1896350397	-0.0320102904	 0.272871
146.072	181.3229	255.2931	272.0247	308.7605	339.1498	442.473	458.75	528.0481	574.4275	619.175	732.3211	802.934	826.1123	847.8041	896.1789	919.2538	935.2195	938.9642	990.5141	1010.8668	1018.968	1050.0198	1077.378	1131.9213	1139.6252	1195.1755	1217.2527	1243.5941	1257.9847	1269.3804	1277.891	1311.4255	1347.0611	1367.4471	1413.5985	1442.9727	1478.2906	1485.3623	1523.8746	1671.6185	3013.4139	3019.034	3051.1413	3066.1458	3091.5729	3111.5948	3119.5368	3144.0689	3206.2665	3764.1936
CC1=CC2OCC1C2O	CC1=C[C@H]2OC[C@@H]1[C@H]2O	
InChI=1S/C7H10O2/c1-4-2-6-7(8)5(4)3-9-6/h2,5-8H,3H2,1H3	InChI=1S/C7H10O2/c1-4-2-6-7(8)5(4)3-9-6/h2,5-8H,3H2,1H3/t5-,6+,7+/m0/s1
