18
gdb 97629	3.04751	0.67592	0.58072	2.684	81.97	-0.2724	0.0096	0.282	1900.7247	0.145469	-401.927913	-401.917292	-401.916347	-401.965945	36.046	
C	-0.1099332878	 1.5348600858	-0.0789592509	-0.401862
C	-0.0419692645	 0.0080430725	-0.0889642964	-0.171643
C	 0.7752966767	-0.5597239101	-1.2861585537	-0.321385
C	 2.1676862865	-0.0774609747	-1.2480672739	 0.295673
N	 3.2520513263	 0.3189404861	-1.2082701366	-0.328344
C	 0.7328550936	-2.0218120753	-1.3325980164	 0.024149
C	 0.663463958	-3.2233188206	-1.3463678349	 0.135759
C	 0.6262248073	-4.6855800099	-1.4130935259	-0.198673
O	 0.6117670452	-5.1904099192	-2.7387485603	-0.397782
H	 0.88693209	 1.9784074713	 0.0005245225	 0.148088
H	-0.5788409719	 1.9185796042	-0.9916519721	 0.121613
H	-0.7021756487	 1.8831630763	 0.7716390694	 0.125571
H	 0.4023694714	-0.3668925968	 0.8380188703	 0.128914
H	-1.0447470547	-0.4238379968	-0.1604175853	 0.121916
H	 0.3316668994	-0.1642245855	-2.2112819684	 0.154728
H	 1.4689491704	-5.0928102781	-0.8325110118	 0.126651
H	-0.2903202239	-5.057003406	-0.9418182658	 0.145103
H	 1.3796568767	-4.8308557831	-3.1955083599	 0.291524
13.0083	75.6343	80.041	114.7307	154.0613	194.5304	239.8854	266.225	316.3166	335.7578	385.9468	476.5865	512.1975	560.4108	602.4884	755.1601	815.4889	873.9846	942.2738	985.0782	1043.3819	1052.0912	1100.7156	1107.4657	1170.6907	1216.4386	1259.8067	1292.7285	1337.7788	1363.6457	1364.2469	1417.0043	1418.4344	1487.3061	1488.4339	1498.7148	1506.4375	2359.736	2369.232	2983.3995	3009.0444	3039.1916	3057.3636	3066.8413	3093.4618	3113.4855	3121.9383	3814.8781
CCC(C#N)C#CCO	CC[C@@H](C#N)C#CCO	
InChI=1S/C7H9NO/c1-2-7(6-8)4-3-5-9/h7,9H,2,5H2,1H3	InChI=1S/C7H9NO/c1-2-7(6-8)4-3-5-9/h7,9H,2,5H2,1H3/t7-/m1/s1
