16
gdb 125607	1.94735	1.90764	0.97533	4.5326	78.58	-0.2523	-0.0144	0.2378	1166.6423	0.125086	-396.991203	-396.98225	-396.981305	-397.025599	31.326	
C	-0.0390874648	 1.4829947987	-0.0504971647	-0.500198
C	 0.0052165591	-0.0070960835	 0.0286063831	 0.276122
N	 0.0532024366	-0.7597822558	-1.0589841167	-0.276593
N	 0.0823813368	-2.035953125	-0.5997534038	-0.258817
C	 0.0550021486	-2.1376493642	 0.74477774	 0.298036
C	 0.0784163692	-3.4319881592	 1.4845859223	-0.513199
C	 0.0039011607	-0.8240643115	 1.2010675898	-0.033298
C	-0.0396323637	-0.4067676078	 2.5499705073	 0.18905
N	-0.0755600965	-0.0617198168	 3.6562081709	-0.360909
H	 0.8172979439	 1.9316718578	 0.4635119035	 0.14441
H	-0.0259591261	 1.7977913312	-1.0953963033	 0.146157
H	-0.9431240303	 1.8772746359	 0.4250610859	 0.144412
H	 0.1206130332	-2.7888580833	-1.2668814548	 0.279106
H	 0.9864376486	-4.0039302845	 1.2647229697	 0.14801
H	 0.048988838	-3.2431031644	 2.5592037894	 0.169678
H	-0.7822995934	-4.0582048077	 1.2257895213	 0.148033
58.7107	90.1394	124.1743	141.7182	207.8494	250.2875	336.6669	384.7334	523.9549	539.0145	548.4202	580.5234	648.6233	672.3871	729.6969	784.04	994.4495	1019.6287	1052.5749	1060.1005	1068.4877	1161.6351	1235.4069	1320.8657	1400.8075	1418.7219	1430.2614	1465.1426	1480.5226	1482.8458	1483.7453	1516.2697	1527.3933	1610.4347	2338.8378	3037.7686	3042.8235	3092.3597	3097.1432	3139.1933	3141.9916	3666.0778
CC1=NNC(C)=C1C#N	Cc1n[nH]c(C)c1C#N	
InChI=1S/C6H7N3/c1-4-6(3-7)5(2)9-8-4/h1-2H3,(H,8,9)	InChI=1S/C6H7N3/c1-4-6(3-7)5(2)9-8-4/h1-2H3,(H,8,9)
