17
gdb 56693	2.57652	1.30418	1.15543	3.3375	68.53	-0.2408	0.0049	0.2456	1120.3968	0.135353	-455.118406	-455.109423	-455.108479	-455.152042	33.259	
O	 0.0267409075	 1.4002316258	 0.2350643179	-0.43843
C	 0.1542173559	-0.0113435612	 0.1122311519	-0.076799
C	 0.8115540227	-0.3687524101	-1.159603807	 0.26227
N	 1.2894989061	-0.629059105	-2.1788165731	-0.319026
C	 0.9818762497	-0.4598688977	 1.3266994313	 0.420625
O	 2.2080650304	 0.2047842103	 1.3586941329	-0.482162
C	 0.1132369972	-0.4976664837	 2.6206404436	-0.236919
N	-0.127583637	-1.9362207861	 2.3514592036	-0.318354
C	 1.0698268013	-1.9927440659	 1.4763818728	-0.225752
H	-0.3771927391	 1.7537900502	-0.5643349623	 0.30709
H	-0.8218297973	-0.5135402994	 0.14758962	 0.140821
H	 2.036730181	 1.1294825757	 1.1366866314	 0.293731
H	 0.7501662722	-0.2879110479	 3.4897093126	 0.103573
H	-0.7863031785	 0.1241590694	 2.664560726	 0.110222
H	-0.0977035848	-2.5408841263	 3.1643849833	 0.226596
H	 0.9616238171	-2.6087646681	 0.5775670185	 0.118229
H	 2.0073783657	-2.2536102198	 1.9841408566	 0.114286
77.3503	133.266	145.111	224.1283	242.2171	299.3112	320.9046	363.0029	393.9249	434.5122	488.424	537.5091	609.0668	664.2339	808.0786	840.8476	938.7352	951.9249	975.0331	1010.9756	1024.1558	1038.7881	1094.3853	1110.1729	1137.1368	1181.9713	1210.438	1249.9152	1296.6751	1344.1487	1355.8031	1364.8575	1383.0396	1422.2975	1501.774	1529.5035	2356.493	3014.9139	3022.2787	3028.6664	3075.6387	3079.5915	3536.3321	3770.9775	3824.4427
OC(C#N)C1(O)CNC1	O[C@@H](C#N)C1(O)CNC1	
InChI=1S/C5H8N2O2/c6-1-4(8)5(9)2-7-3-5/h4,7-9H,2-3H2	InChI=1S/C5H8N2O2/c6-1-4(8)5(9)2-7-3-5/h4,7-9H,2-3H2/t4-/m0/s1
