20
gdb 95175	2.57222	1.67458	1.14139	3.7981	78.9	-0.2385	0.0076	0.2461	1109.6438	0.172623	-403.170031	-403.161796	-403.160852	-403.202663	31.926	
C	-0.4447307868	 1.4687930891	 0.0583263081	-0.397111
C	-0.0193164007	 0.0044545416	 0.0213877454	-0.081013
C	 0.7295749829	-0.3841558471	-1.2808004514	-0.215194
C	 0.9599519845	-1.9023389746	-1.3525059174	-0.243863
C	 1.3681434202	-2.509080912	-0.0153863879	-0.005508
C	 2.6078192944	-2.1349625491	 0.7405686121	-0.247403
N	 1.2935254237	-1.7002683811	 1.1965775684	-0.09511
C	 0.9566864497	-0.338091753	 1.1394510801	 0.367075
O	 1.4570664367	 0.4757998244	 1.8799853234	-0.336706
H	 0.4235336559	 2.1273365317	-0.0311352449	 0.130378
H	-1.1363217894	 1.6897704176	-0.7607354936	 0.104314
H	-0.9376534159	 1.7098528987	 1.0033977852	 0.12857
H	-0.8985100131	-0.64790943	 0.1115437277	 0.092646
H	 0.1579654972	-0.0556022697	-2.1548053131	 0.106732
H	 1.681380836	 0.1615821402	-1.31360278	 0.112716
H	 0.0198742431	-2.3797998639	-1.6527849934	 0.112233
H	 1.6929173157	-2.1541669213	-2.1273663429	 0.112358
H	 1.0145709583	-3.5278173244	 0.1356038651	 0.099871
H	 3.111477049	-2.8745862491	 1.35683012	 0.125747
H	 3.2582605986	-1.368831358	 0.3254712691	 0.129267
85.6826	182.2753	189.9504	226.1921	281.2585	318.656	357.2889	416.0586	456.1873	553.3187	644.1654	723.8088	744.1349	773.8877	847.9372	904.8504	936.478	937.6802	967.7455	990.1825	1050.3655	1068.617	1105.8521	1122.9512	1127.9483	1141.9886	1160.5762	1184.1111	1193.4837	1257.8892	1310.4944	1336.7165	1351.361	1366.6322	1394.6509	1415.2574	1420.9699	1485.9224	1489.1474	1494.8843	1505.191	1518.2453	1804.1089	3016.8776	3031.1138	3032.3321	3044.7781	3065.94	3079.1257	3107.2169	3115.3954	3115.7298	3124.8786	3194.056
CC1CCC2CN2C1=O	C[C@H]1CC[C@H]2CN2C1=O	
InChI=1S/C7H11NO/c1-5-2-3-6-4-8(6)7(5)9/h5-6H,2-4H2,1H3	InChI=1S/C7H11NO/c1-5-2-3-6-4-8(6)7(5)9/h5-6H,2-4H2,1H3/t5-,6-,8?/m0/s1
