15
gdb 123885	5.25222	1.10103	0.93562	4.4306	68.68	-0.2391	-0.0557	0.1833	1189.4588	0.113709	-450.049776	-450.042428	-450.041484	-450.082513	26.217	
C	-0.1645829376	 1.5364701748	 0.0431594998	-0.238707
C	 1.3735686732	 1.5710023756	-0.1720341135	-0.166198
N	 1.424863362	 0.1640758112	 0.2575169077	-0.145345
C	-0.0411207196	 0.0009845444	 0.2526690337	-0.166636
C	 2.3320930889	-0.7518181562	-0.1422294802	 0.504243
N	 3.5280233575	-0.4996669206	-0.619087909	-0.220816
O	 4.0533155594	-1.7527735633	-0.8247469328	-0.142249
N	 3.1283498287	-2.6995310544	-0.4676494433	 0.050306
N	 2.089887667	-2.1177714073	-0.0549779237	-0.235326
H	-0.4937029367	 2.0736603166	 0.9331149879	 0.125903
H	-0.7677482508	 1.8485017315	-0.808669306	 0.124113
H	 1.6870765287	 1.708347711	-1.2138480245	 0.126186
H	 1.9500758261	 2.249234571	 0.4628321793	 0.129048
H	-0.4437739723	-0.406438205	 1.1835162806	 0.129937
H	-0.4053852546	-0.6021163193	-0.5865124858	 0.12554
84.4812	92.6376	156.1626	161.9159	349.3911	447.9675	502.8283	644.1886	754.456	777.0238	798.8758	843.2513	879.1847	927.5413	942.0315	955.7733	1037.0294	1063.3138	1114.0845	1141.3304	1144.7245	1176.9204	1206.196	1230.1686	1271.0254	1296.7443	1342.8425	1355.342	1491.6833	1509.5317	1514.23	1533.2101	1656.5904	3032.7545	3041.1883	3088.4043	3093.6818	3099.4952	3154.318
C1CN(C1)C1=NON=N1	C1CN(C1)c1nonn1	
InChI=1S/C4H6N4O/c1-2-8(3-1)4-5-7-9-6-4/h1-3H2	InChI=1S/C4H6N4O/c1-2-8(3-1)4-5-7-9-6-4/h1-3H2
