17
gdb 49936	2.86022	1.10828	0.94353	5.6416	73.17	-0.2463	-0.0443	0.202	1253.3953	0.135788	-418.0072	-417.998469	-417.997525	-418.041597	31.049	
O	 0.8564444776	-0.117940603	 0.8783304882	-0.247427
C	 0.390748265	 0.9098603015	 0.4512586191	 0.144303
C	 1.2185805016	 2.0542236794	-0.0841239701	-0.039127
C	 1.4436780426	 3.1878910102	 0.9713335592	-0.298634
C	 2.9085842449	 2.6774127418	 1.0460421949	 0.068475
C	 3.246496888	 1.9278622857	 2.3493204758	-0.363478
C	 4.5690025586	 1.3077475671	 2.2949361103	 0.257729
N	 5.6163552694	 0.8239568464	 2.2286501944	-0.300748
N	 2.6684045973	 1.8305953972	-0.1459463495	-0.315958
H	-0.7089587642	 1.0844729782	 0.4365651335	 0.088385
H	 0.7680796148	 2.3881832669	-1.0289715383	 0.099001
H	 1.3415246287	 4.1911248615	 0.5580066384	 0.129389
H	 0.8594154104	 3.1182450011	 1.8918608646	 0.11714
H	 3.675020969	 3.4389998868	 0.8691633284	 0.101609
H	 3.2216085511	 2.6278397707	 3.1932958364	 0.151209
H	 2.5012633015	 1.148140498	 2.5393702365	 0.168967
H	 2.9367969138	 0.8552253806	-0.0454512419	 0.239164
52.6261	96.0383	104.2837	159.4268	247.4627	311.88	329.0997	384.8849	401.7199	544.1022	659.0121	735.5351	766.4489	829.3184	850.002	918.9207	933.4401	949.4886	980.422	1050.0974	1089.0202	1107.225	1143.8517	1150.9763	1226.1681	1233.0692	1264.5523	1285.4393	1317.5985	1336.1903	1383.979	1410.1401	1422.9262	1458.9665	1486.5682	1815.7518	2361.6615	2881.3509	3013.0829	3040.34	3048.1952	3076.9391	3093.2231	3140.4395	3512.1416
O=CC1CC(CC#N)N1	O=C[C@H]1C[C@@H](CC#N)N1	
InChI=1S/C6H8N2O/c7-2-1-5-3-6(4-9)8-5/h4-6,8H,1,3H2	InChI=1S/C6H8N2O/c7-2-1-5-3-6(4-9)8-5/h4-6,8H,1,3H2/t5-,6-/m1/s1
