18
gdb 74338	4.38489	0.97416	0.84556	1.1106	73.68	-0.2464	0.0214	0.2678	1362.274	0.147539	-439.084648	-439.076013	-439.075069	-439.11917	30.761	
C	 0.2064032145	 1.4930910908	 0.0335504878	-0.472374
C	-0.0096864552	 0.0186183908	 0.0426702751	 0.405732
N	-1.1109011098	-0.584043506	-0.1630720626	-0.3162
C	-0.8354728181	-2.0258052825	-0.0477358335	-0.020488
C	 0.6863764516	-2.1014098498	 0.263497529	-0.132096
O	 1.105752137	-0.7201188264	 0.2934924844	-0.252489
C	-1.6949891723	-2.6501795586	 1.0287727716	 0.094555
C	-2.9467615061	-3.3428585779	 0.7177730898	-0.177008
O	-1.7577378597	-4.0787180446	 1.0240825886	-0.24339
H	 0.9385809269	 1.7621176274	-0.7341601106	 0.147393
H	-0.7362526756	 2.0018008637	-0.1638187409	 0.152895
H	 0.6101648525	 1.8215941091	 0.9962169977	 0.146626
H	-1.0719186752	-2.5233368777	-0.9951637508	 0.089067
H	 0.9052843024	-2.5524976881	 1.2361599428	 0.124468
H	 1.2620114872	-2.6217981857	-0.5055610267	 0.123269
H	-1.5813213425	-2.2055809235	 2.0195346379	 0.093141
H	-3.735213289	-3.3968092239	 1.4664198101	 0.118129
H	-3.2812733986	-3.4039697272	-0.3167794197	 0.11877
49.2676	61.2452	142.2023	152.3422	223.4606	315.8976	334.2153	371.2629	487.4545	614.8039	676.9879	768.6964	826.0487	868.2255	913.5042	933.6376	966.9189	991.1289	1018.0834	1031.5766	1067.1704	1089.7229	1102.066	1151.0492	1165.5304	1181.2998	1227.6802	1252.2765	1286.9638	1290.0249	1326.457	1382.8976	1415.0945	1452.1923	1475.5442	1476.0854	1521.4411	1530.261	1733.7823	3037.533	3052.4157	3056.4282	3086.7691	3094.2784	3106.7026	3110.1574	3168.2158	3175.2568
CC1=NC(CO1)C1CO1	CC1=N[C@@H](CO1)[C@H]1CO1	
InChI=1S/C6H9NO2/c1-4-7-5(2-8-4)6-3-9-6/h5-6H,2-3H2,1H3	InChI=1S/C6H9NO2/c1-4-7-5(2-8-4)6-3-9-6/h5-6H,2-3H2,1H3/t5-,6+/m0/s1
