21
gdb 111797	3.00167	1.34809	1.28884	1.4513	81.73	-0.2369	0.0113	0.2481	1120.9363	0.1847	-387.091117	-387.083262	-387.082317	-387.123413	31.593	
C	 0.0097054361	 1.5987353082	-0.2364596689	-0.386194
C	 0.0185375558	 0.1008386355	 0.0914825171	-0.211089
C	-1.3870370552	-0.4972886235	 0.1369035077	 0.039961
C	-1.521553484	-2.0461255406	 0.2925371973	-0.125588
C	-0.9381078088	-2.2031482501	 1.7305263669	-0.075919
O	-1.3825848835	-1.0248422976	 2.4117851308	-0.278447
C	-2.1865721736	-0.2846606166	 1.4418827091	 0.051334
C	-3.4327874852	-1.1076532952	 1.1664685276	-0.079843
C	-3.0236284272	-2.1741940865	 0.4688425054	-0.084637
H	 1.0261525093	 2.0025934268	-0.2694254618	 0.112833
H	-0.4570466817	 1.7898716465	-1.2092434571	 0.113241
H	-0.5472730168	 2.1685683465	 0.5150185956	 0.118286
H	 0.6081278633	-0.4313567726	-0.66677688	 0.090421
H	 0.5208528508	-0.0577680343	 1.0506667743	 0.116361
H	-1.9642757738	-0.1662633607	-0.7312729069	 0.072328
H	-1.0488550976	-2.6735684955	-0.4632801942	 0.064895
H	-1.3151713118	-3.0997784854	 2.2354767188	 0.096751
H	 0.1582993693	-2.2337806127	 1.7276760682	 0.097213
H	-2.3134925983	 0.7260607242	 1.8264236451	 0.071228
H	-4.4179085098	-0.9092332744	 1.5682348756	 0.099099
H	-3.6072127872	-3.0377591621	 0.1744853295	 0.097766
79.2426	174.4825	194.4228	280.0247	310.4944	356.8932	416.8491	511.1582	547.7705	692.3295	722.8016	755.3323	817.3867	826.1992	858.8719	884.0355	899.6997	930.4401	950.5127	955.3596	969.3927	996.0238	1002.3039	1051.5281	1075.2071	1099.6816	1118.6733	1149.3485	1170.3893	1207.6577	1243.8474	1270.5733	1276.8057	1292.8506	1306.4574	1336.7027	1352.2507	1365.8542	1403.0374	1415.3025	1485.3322	1501.3126	1505.0908	1521.8429	1634.3037	3018.7082	3021.6104	3030.9092	3059.2077	3065.2394	3080.6195	3101.7525	3104.6529	3116.1266	3135.467	3198.421	3225.1798
CCC1C2COC1C=C2	CC[C@H]1[C@H]2CO[C@@H]1C=C2	
InChI=1S/C8H12O/c1-2-7-6-3-4-8(7)9-5-6/h3-4,6-8H,2,5H2,1H3	InChI=1S/C8H12O/c1-2-7-6-3-4-8(7)9-5-6/h3-4,6-8H,2,5H2,1H3/t6-,7+,8-/m1/s1
