25
gdb 121905	2.57194	0.89447	0.70003	2.229	86.53	-0.2551	0.0717	0.3268	1701.9328	0.225887	-426.626859	-426.615161	-426.614217	-426.664744	42.093	
C	 0.0655400899	 1.4577669548	 0.1453221917	-0.398386
C	-0.0141344067	-0.0684695283	-0.007995492	 0.028893
C	 0.862818302	-0.755520562	 1.0487192335	-0.39629
C	-1.4692948513	-0.5714949453	 0.0526460789	 0.161668
C	-2.3569103358	 0.0056001991	-1.0538530763	-0.413632
O	-1.4195035807	-1.9957389635	-0.0241214095	-0.280063
C	-2.6200183251	-2.6789407397	 0.291026088	-0.079285
C	-2.2384355585	-4.1175620976	 0.6058325442	-0.058686
O	-1.3704479433	-4.1940764546	 1.7185099384	-0.423332
H	 1.1099507404	 1.7845260606	 0.1441165078	 0.114989
H	-0.4441804623	 1.9875246767	-0.6633479524	 0.116356
H	-0.3784911121	 1.7822112479	 1.0943227513	 0.113549
H	 0.3745604139	-0.3378723328	-0.9999963228	 0.078775
H	 0.477654461	-0.5737289542	 2.0595626357	 0.110064
H	 0.9071232377	-1.8343418146	 0.8887286413	 0.121419
H	 1.8857013286	-0.3671811261	 1.0106495971	 0.109081
H	-1.8930570907	-0.2906754519	 1.0339937857	 0.063156
H	-3.3698375699	-0.4025226312	-0.9998861118	 0.117875
H	-2.4419508364	 1.0913349701	-0.966676578	 0.121207
H	-1.944228863	-0.2350397687	-2.0392985342	 0.121382
H	-3.0995713266	-2.2221871383	 1.1712316746	 0.093512
H	-3.335794044	-2.6515065225	-0.5446576449	 0.089673
H	-3.1377619	-4.6907596832	 0.8549210821	 0.105395
H	-1.7869001437	-4.571504335	-0.2910535423	 0.092207
H	-0.6759246434	-3.5468266897	 1.5498747839	 0.290473
30.3791	57.5082	79.6211	151.8233	158.5633	203.4867	211.4667	230.7413	288.4744	301.3653	357.4285	383.2207	408.8031	434.8246	459.0891	501.5135	566.2055	802.8788	839.6455	908.6626	911.3913	929.5456	952.1266	965.8077	991.7443	1053.6403	1082.1268	1107.9898	1133.4678	1145.5542	1163.7142	1188.1766	1207.028	1240.1384	1262.9392	1313.9011	1345.3521	1364.7357	1383.191	1387.2585	1395.6943	1405.6615	1413.9539	1422.0817	1438.3292	1486.8311	1489.4935	1492.141	1498.4851	1499.9542	1507.1513	1510.6989	1516.6575	2939.1034	2973.736	2977.7372	3012.3233	3017.3766	3028.1051	3033.5477	3044.4499	3076.5193	3090.6181	3097.8351	3112.2627	3113.3914	3126.7312	3127.5696	3798.962
CC(C)C(C)OCCO	CC(C)[C@@H](C)OCCO	
InChI=1S/C7H16O2/c1-6(2)7(3)9-5-4-8/h6-8H,4-5H2,1-3H3	InChI=1S/C7H16O2/c1-6(2)7(3)9-5-4-8/h6-8H,4-5H2,1-3H3/t7-/m1/s1
