17
gdb 33929	3.41633	1.33477	1.12952	5.3012	78.22	-0.2489	-0.0181	0.2308	1088.3526	0.13863	-380.874424	-380.866934	-380.86599	-380.906234	29.309	
N	 0.0030373264	-1.1128482965	-0.0775469811	-0.339952
C	 0.0142511932	 0.040735021	-0.0021098308	 0.271979
C	 0.009594786	 1.4889299037	 0.0440679782	 0.12961
C	-1.1849408556	 2.1271972513	-0.6573660339	-0.274729
C	-1.1311896108	 3.6673053626	-0.6848032308	-0.301975
C	 0.2398612237	 4.1928126355	-1.0223105175	-0.08146
C	 1.3525267777	 3.5198721852	-0.7224210592	-0.039318
C	 1.3283651243	 2.212660005	-0.0194996822	-0.086549
N	 0.6075733233	 2.0550845387	 1.2638630198	-0.349062
H	-1.196920445	 1.7465074777	-1.6851687389	 0.133039
H	-2.1139763077	 1.7903207944	-0.1868063108	 0.127487
H	-1.8666962565	 4.0325304813	-1.4088320494	 0.12087
H	-1.4593553845	 4.0727468404	 0.2830878043	 0.121947
H	 0.3048982995	 5.1588917803	-1.5136893784	 0.105008
H	 2.3293021452	 3.9178328735	-0.9789027369	 0.104015
H	 2.2351730511	 1.6181606281	-0.0657473382	 0.117423
H	 0.1406362098	 2.9270291479	 1.5049686457	 0.241665
127.6715	155.6394	200.9136	287.3628	345.287	413.4886	458.0581	542.4836	571.0995	596.1462	649.7171	715.9221	755.2318	838.9238	851.1099	890.4728	941.4759	980.455	992.9326	1027.2745	1049.6309	1063.7256	1125.9714	1172.653	1190.807	1205.8166	1271.158	1274.34	1322.7983	1353.705	1369.1229	1416.596	1428.9099	1486.0297	1493.6049	1708.8183	2356.4997	3005.3926	3042.487	3070.6054	3086.162	3161.1533	3169.4975	3189.8174	3494.4821
N#CC12CCC=CC1N2	N#C[C@]12CCC=C[C@H]1N2	
InChI=1S/C7H8N2/c8-5-7-4-2-1-3-6(7)9-7/h1,3,6,9H,2,4H2	InChI=1S/C7H8N2/c8-5-7-4-2-1-3-6(7)9-7/h1,3,6,9H,2,4H2/t6-,7-/m1/s1
