22
gdb 60476	5.88512	0.5169	0.49167	3.9433	84.86	-0.272	0.0332	0.3053	2230.0411	0.191806	-404.367912	-404.356864	-404.35592	-404.405393	38.301	
C	 0.025517703	 1.5035840376	-0.0137717972	-0.393711
C	-0.0098873382	-0.0293379317	 0.0183998818	 0.018297
C	 0.7504296765	-0.588875207	 1.2268671918	-0.380079
C	-1.456417566	-0.5200498253	-0.0032847702	-0.045636
O	-1.4681671308	-1.9337978931	-0.1064606633	-0.25046
C	-2.7591724044	-2.484737833	-0.0924477944	-0.050402
C	-2.5937693519	-4.004950763	-0.2164083283	-0.340606
C	-3.8766347068	-4.7001898585	-0.2120114164	 0.247331
N	-4.9015394876	-5.2334839257	-0.2068040468	-0.302046
H	 1.0573498815	 1.8673814181	-0.0272092566	 0.118087
H	-0.4816921367	 1.9023561421	-0.8987236772	 0.113548
H	-0.4618808201	 1.9282354853	 0.8719625392	 0.115567
H	 0.4662309376	-0.4085883773	-0.8956903212	 0.084548
H	 0.3229524536	-0.2119853832	 2.1641710515	 0.108845
H	 0.700780117	-1.6799390491	 1.2478322713	 0.125914
H	 1.8033009618	-0.2911958119	 1.1986235687	 0.111253
H	-1.9791622165	-0.2042337045	 0.91660423	 0.087452
H	-1.999470091	-0.0780803831	-0.8551211006	 0.088206
H	-3.2901151811	-2.2376097601	 0.8405413277	 0.109965
H	-3.3672588261	-2.102537799	-0.9277712322	 0.109394
H	-2.0574719239	-4.2361821354	-1.142545616	 0.162376
H	-1.9787441199	-4.3707401521	 0.6123375985	 0.162159
39.6403	60.4364	79.936	120.8638	154.787	172.4128	220.0172	243.2813	285.7036	315.0163	398.7043	400.6681	435.8698	489.3968	565.6058	797.2468	835.2027	919.4688	931.7683	948.8769	966.9383	976.0282	1029.6254	1068.5353	1093.8366	1158.3342	1161.9115	1190.6468	1200.8592	1231.0145	1277.7707	1301.1267	1301.882	1330.9014	1374.7348	1395.7754	1399.136	1417.8628	1451.218	1471.4938	1489.08	1490.771	1503.4797	1510.0095	1514.1526	1535.5166	2366.3883	2949.1437	2975.0728	2983.3059	3005.4352	3021.6888	3026.46	3032.1111	3057.218	3090.7539	3096.4553	3100.1296	3105.8137	3125.4445
CC(C)COCCC#N	CC(C)COCCC#N	
InChI=1S/C7H13NO/c1-7(2)6-9-5-3-4-8/h7H,3,5-6H2,1-2H3	InChI=1S/C7H13NO/c1-7(2)6-9-5-3-4-8/h7H,3,5-6H2,1-2H3
