17
gdb 69874	2.69868	1.65582	1.19134	1.4021	79.6	-0.221	0.0289	0.2499	1048.2404	0.133295	-384.588439	-384.580201	-384.579257	-384.620759	32.488	
C	-0.1445285322	 1.5155107538	 0.1037641667	-0.519423
C	 0.0970106642	 0.0462957105	 0.0440756075	 0.358487
O	-0.7897015372	-0.8509912796	 0.7223822189	-0.28108
C	 0.6250535058	-0.9458248713	 0.9743083491	-0.05746
C	 1.2946287762	-1.7566038028	-0.1711014217	-0.152191
C	 0.3011148252	-2.1720554602	-1.2103497775	-0.333555
C	 0.7489955425	-0.7225501479	-1.1806298337	 0.117295
C	 1.42780102	-0.0680641476	-2.2389155977	 0.19353
C	 1.9937594669	 0.5197949652	-3.1256310249	-0.414899
H	 0.7421672819	 2.060585991	-0.2321363192	 0.140624
H	-0.9774474835	 1.7956742178	-0.5507037894	 0.137306
H	-0.3886265245	 1.8192161252	 1.1248902825	 0.133928
H	 0.9572472451	-0.8697824819	 2.0025373437	 0.111198
H	 2.3074300416	-2.1328800542	-0.1277628333	 0.111315
H	 0.7107888814	-2.741558304	-2.0372406457	 0.12861
H	-0.7139388476	-2.4158674599	-0.9245034841	 0.141912
H	 2.4925145444	 1.029409596	-3.9119120011	 0.184406
126.9021	131.5111	190.6188	239.9107	291.3371	418.3198	432.8844	475.5368	504.5363	539.1457	552.2015	602.3899	645.2754	655.0486	766.0214	787.4053	848.713	869.2061	892.2111	940.5079	984.7061	997.9242	1021.0226	1053.9953	1100.572	1102.5587	1150.1949	1212.6899	1242.6141	1270.7932	1344.5818	1404.178	1456.0121	1469.9938	1483.0095	1504.0236	2224.1204	3039.2177	3105.277	3129.2186	3148.8006	3191.1796	3215.6324	3243.7033	3503.8717
CC12OC1C1CC21C#C	C[C@]12O[C@H]1[C@H]1C[C@@]21C#C	
InChI=1S/C8H8O/c1-3-8-4-5(8)6-7(8,2)9-6/h1,5-6H,4H2,2H3	InChI=1S/C8H8O/c1-3-8-4-5(8)6-7(8,2)9-6/h1,5-6H,4H2,2H3/t5-,6+,7+,8-/m1/s1
