21
gdb 63664	4.23564	0.7162	0.67563	4.3803	85.01	-0.2331	0.0249	0.258	1709.3782	0.180991	-383.262465	-383.252193	-383.251249	-383.298211	37.313	
C	 0.1052462395	 1.5077546713	-0.1032286591	-0.461239
C	-0.0107111234	-0.0004659133	 0.0278377741	 0.309889
C	-1.1874031594	-0.5864941327	-0.7315181213	-0.447446
C	 1.268996815	-0.8148823411	 0.0930631308	-0.347855
C	 0.3729849406	-0.6763025747	 1.3184915785	 0.012687
N	 0.7443608742	 0.067618594	 2.4935782714	-0.310506
C	 1.8023310331	-0.5782887634	 3.263676462	-0.255366
C	 2.1585104385	 0.2182930907	 4.4408470495	 0.251915
N	 2.4565979292	 0.8582487379	 5.3549836964	-0.299237
H	 1.0089017234	 1.9064534868	 0.3680456658	 0.110556
H	 0.1500768831	 1.7918029455	-1.1605019633	 0.124031
H	-0.7600652644	 2.0145347951	 0.3392626979	 0.126917
H	-1.1026792477	-0.3758500145	-1.8040118634	 0.117134
H	-1.2439943122	-1.6723247616	-0.6090411405	 0.115082
H	-2.1346225744	-0.1604512796	-0.3811233583	 0.121079
H	 1.3115504186	-1.7702782546	-0.4203372624	 0.110002
H	 2.2061262542	-0.2656311646	 0.0936394865	 0.106159
H	-0.2107338344	-1.5590735695	 1.5735259073	 0.094588
H	 1.0095790577	 1.0181937735	 2.2676337784	 0.23263
H	 1.4416345386	-1.5565068015	 3.6056040081	 0.155438
H	 2.7242155903	-0.7723825336	 2.6871175214	 0.133541
53.1449	77.1586	93.2262	179.8747	206.4476	234.6179	240.8346	292.9886	359.793	375.1727	391.4787	452.3979	503.24	568.8583	690.3924	709.8985	838.163	885.3261	918.424	947.4846	968.4141	988.2397	999.1301	1029.5729	1039.4117	1070.5834	1092.0296	1139.6366	1158.1212	1204.6516	1247.1082	1291.6925	1338.4662	1356.0716	1405.8568	1415.8469	1424.9066	1474.3265	1484.7941	1489.9824	1491.6041	1499.69	1503.6952	1524.3452	2367.8624	2950.3109	3022.5816	3027.3066	3047.1895	3084.6697	3089.4148	3095.8585	3101.8068	3117.3572	3119.0187	3204.8882	3560.3828
CC1(C)CC1NCC#N	CC1(C)C[C@H]1NCC#N	
InChI=1S/C7H12N2/c1-7(2)5-6(7)9-4-3-8/h6,9H,4-5H2,1-2H3	InChI=1S/C7H12N2/c1-7(2)5-6(7)9-4-3-8/h6,9H,4-5H2,1-2H3/t6-/m1/s1
