19
gdb 37084	2.12275	2.04999	1.31392	1.659	79.66	-0.2476	0.0816	0.3293	1026.6982	0.159022	-385.818905	-385.811226	-385.810282	-385.850795	30.957	
C	-0.0341768489	 1.5314104851	 0.0935574629	-0.33532
C	 1.2452508825	 0.7447454464	-0.0865694651	-0.326153
C	-0.0659325122	 0.0316154874	 0.0279301099	 0.307499
C	-0.4682492708	-0.9830760951	 1.0868808642	-0.155466
C	-1.9437752731	-1.256684942	 1.0019621768	-0.297179
C	-1.0291290606	-1.9031389799	-0.0090034709	-0.147932
C	-0.6302056185	-0.8808026335	-1.0560674519	 0.398551
C	-1.1738597543	-0.6105771815	-2.3870419465	-0.273401
O	 0.1192113747	-1.2212043334	-2.2084407304	-0.282579
H	-0.2151943129	 2.0024785569	 1.0544350523	 0.113597
H	-0.4152729046	 2.090243851	-0.7555391029	 0.111092
H	 1.7188977091	 0.7433858704	-1.0625152667	 0.128385
H	 1.9330532501	 0.687498196	 0.7508707161	 0.11345
H	 0.1290119113	-1.2526588382	 1.9491458475	 0.09272
H	-2.3425593605	-1.9298701563	 1.7546483941	 0.114531
H	-2.6292028873	-0.4692824975	 0.6982656351	 0.111584
H	-0.9339761901	-2.9752706256	-0.1224797415	 0.101274
H	-1.9429834619	-1.2602118698	-2.8033029865	 0.11422
H	-1.1538912221	 0.4008399797	-2.7918748463	 0.111128
112.2806	188.046	205.6281	245.1966	308.4145	367.6015	490.8094	535.6627	584.7865	591.9425	765.2694	777.8592	799.2298	859.3373	870.2607	914.118	916.0864	935.9097	951.6102	980.4564	986.5436	1032.5948	1050.6485	1051.5906	1058.7672	1073.893	1088.867	1120.9343	1144.2574	1157.9766	1181.899	1188.8383	1254.6258	1259.6184	1307.808	1390.9422	1450.5287	1461.4583	1486.667	1502.5036	1539.0251	3076.8507	3110.6587	3123.2699	3129.3662	3162.552	3185.1844	3195.4001	3203.0015	3205.9259	3220.0794
C1CC11C2CC2C11CO1	C1CC21[C@H]1C[C@H]1[C@]12CO1	
InChI=1S/C8H10O/c1-2-7(1)5-3-6(5)8(7)4-9-8/h5-6H,1-4H2	InChI=1S/C8H10O/c1-2-7(1)5-3-6(5)8(7)4-9-8/h5-6H,1-4H2/t5-,6+,8-/m0/s1
