13
gdb 5509	3.7136	2.0428	1.32896	5.6944	67.94	-0.2474	-0.038	0.2094	855.0565	0.097593	-357.694293	-357.687241	-357.686297	-357.726193	24.662	
C	 0.0123044919	 1.4504841279	 0.0324176266	-0.357725
N	 0.0189113122	-0.0034260748	 0.0010052999	-0.043286
C	 0.0774780883	-0.795608996	-1.1118090155	-0.110109
C	 0.0591147587	-2.0959192113	-0.6587515171	-0.094932
N	-0.0091542349	-2.1289832634	 0.7016772433	-0.297785
C	-0.0322598926	-0.8599110299	 1.0749572954	 0.252905
C	-0.1009484515	-0.3849575945	 2.4101813067	 0.243836
N	-0.1563236038	 0.0468625335	 3.4835232518	-0.352208
H	 0.9258017309	 1.8453529847	-0.4199945259	 0.155871
H	-0.8544356985	 1.8391545752	-0.5086665611	 0.155875
H	-0.0405526091	 1.7813501852	 1.0700928047	 0.180149
H	 0.1258053233	-0.3717903048	-2.1017182589	 0.142121
H	 0.091602655	-3.0025514717	-1.2431552698	 0.125288
58.2043	157.995	160.3485	222.5362	352.3828	508.4077	554.1491	608.8512	637.2409	720.1767	724.5923	770.0049	869.4458	932.0149	1068.4904	1106.1354	1152.1296	1175.1006	1222.5395	1310.2009	1397.9845	1429.3297	1453.256	1487.8864	1502.4519	1509.7192	1544.1674	2344.1502	3052.578	3120.091	3156.41	3252.6988	3276.8284
CN1C=CN=C1C#N	Cn1ccnc1C#N	
InChI=1S/C5H5N3/c1-8-3-2-7-5(8)4-6/h2-3H,1H3	InChI=1S/C5H5N3/c1-8-3-2-7-5(8)4-6/h2-3H,1H3
