14
gdb 42329	4.32209	0.77073	0.66749	3.4556	89.35	-0.2571	-0.0687	0.1885	1593.4991	0.098845	-399.482956	-399.474143	-399.473199	-399.517398	31.005	
O	-0.1587636087	 0.0294499291	-0.2436688469	-0.310788
C	-0.1162264362	 1.1951305641	 0.0877517297	 0.145243
C	 1.1103524597	 1.9677727876	 0.0741625171	 0.408654
C	 2.1599966125	 2.5714813242	 0.0238186896	-0.239128
C	 3.332577551	 3.2543307575	-0.0309861955	 0.291074
C	 4.3745615371	 3.8627369614	-0.0799346717	-0.536896
N	-1.2091132168	 1.8981048247	 0.5822229447	-0.069765
C	-1.7875676645	 3.0770519795	-0.0384573112	-0.22617
C	-2.5328820286	 1.7745720455	 0.0179169948	-0.221594
H	 5.2919488895	 4.3965465471	-0.121663306	 0.203553
H	-2.0507294086	 3.8858672278	 0.636685851	 0.135359
H	-1.3855328628	 3.388260855	-0.9990747305	 0.139944
H	-2.6242782782	 1.1946287356	-0.8962411205	 0.145355
H	-3.3409011054	 1.647782821	 0.7321746553	 0.135157
57.9389	79.5344	123.8485	193.7483	211.4661	275.2858	324.8907	436.0733	496.1961	547.3623	567.8656	596.9804	628.3085	677.0019	773.9342	813.6849	871.8863	973.3507	1037.639	1048.5215	1126.8497	1134.5285	1167.14	1173.0687	1222.6028	1392.2878	1495.6688	1522.2601	1751.1162	2177.0823	2342.1363	3113.7382	3119.826	3199.7251	3213.5676	3500.9376
O=C(C#CC#C)N1CC1	O=C(C#CC#C)N1CC1	
InChI=1S/C7H5NO/c1-2-3-4-7(9)8-5-6-8/h1H,5-6H2	InChI=1S/C7H5NO/c1-2-3-4-7(9)8-5-6-8/h1H,5-6H2
