15
gdb 22643	3.57017	0.9998	0.78864	3.5849	84.45	-0.2414	-0.0777	0.1636	1348.7575	0.113168	-416.804495	-416.796267	-416.795323	-416.838165	29.767	
O	-0.0812257152	 1.3406347603	 0.0088940789	-0.38541
N	 0.0373012566	-0.0523612751	 0.0045639885	-0.227576
C	-1.1070944701	-0.626455213	 0.0112506671	 0.394333
C	-1.2472266543	-2.1408512824	 0.0083559519	-0.309155
C	-2.77809531	-2.3933810118	 0.0191164676	-0.324718
C	-3.3761422702	-0.9972982529	 0.0266389849	 0.185292
C	-2.4363884781	-0.0311182571	 0.0219588961	-0.236357
C	-4.7787322477	-0.7812001961	 0.0371797573	 0.216456
N	-5.9291525962	-0.6409533082	 0.0458768483	-0.326415
H	 0.8386508364	 1.6263065568	 0.0031422231	 0.313409
H	-0.7701409636	-2.5729104398	-0.8749087126	 0.138905
H	-0.7569440726	-2.5775543057	 0.8820464507	 0.138897
H	-3.1179366667	-2.9561040776	-0.8565740637	 0.137862
H	-3.1049566344	-2.9598620789	 0.8973259204	 0.137862
H	-2.617444294	 1.0334922016	 0.0256357416	 0.146613
47.8884	124.8827	131.8125	250.6431	254.6735	323.5881	418.5232	489.2537	511.1498	561.8691	567.9566	608.8003	700.585	821.4056	870.3296	900.7143	939.8322	972.567	1010.4185	1027.4114	1147.7185	1169.022	1226.0945	1237.7976	1273.1721	1310.8599	1336.1199	1408.5372	1471.5836	1492.4421	1638.7879	1711.4549	2331.9561	3049.02	3071.1139	3078.365	3110.5755	3256.5708	3819.5445
ON=C1CCC(=C1)C#N	ON=C1CCC(=C1)C#N	
InChI=1S/C6H6N2O/c7-4-5-1-2-6(3-5)8-9/h3,9H,1-2H2	InChI=1S/C6H6N2O/c7-4-5-1-2-6(3-5)8-9/h3,9H,1-2H2
