23
gdb 115374	3.15824	0.99937	0.88519	2.5353	81.5	-0.2386	0.0734	0.312	1416.105	0.206676	-425.435527	-425.426035	-425.425091	-425.469583	36.347	
C	-0.2713580387	 1.5390430678	 0.0314638026	-0.402917
C	 0.0316981464	 0.0352176228	 0.0109888636	 0.139887
C	 0.7605862389	-0.4323680991	-1.2614000713	-0.220598
C	 2.2442048117	-0.0377953769	-1.2520183197	-0.224338
C	 2.9072854289	-0.5060348371	 0.051017621	 0.027576
C	 4.3638425002	-0.0674509818	 0.137797156	-0.095962
O	 4.9297948758	-0.6240449615	 1.3166888671	-0.424553
C	 2.0923856114	 0.0065170267	 1.2455351533	-0.077447
O	 0.7321757349	-0.3907052997	 1.1801118854	-0.266464
H	 0.6223247315	 2.1543384567	-0.1061930371	 0.115502
H	-0.9724758504	 1.7911656813	-0.7707546156	 0.11212
H	-0.7281025825	 1.8122898224	 0.9867951089	 0.123441
H	-0.9251526471	-0.495172782	 0.0756352623	 0.077889
H	 0.6854724409	-1.5248765166	-1.3165829435	 0.100691
H	 0.2553512453	-0.030567307	-2.1470091898	 0.090649
H	 2.753908307	-0.4695796557	-2.1213016641	 0.092715
H	 2.3484932253	 1.0522996671	-1.3433760963	 0.094295
H	 2.8867827316	-1.6037991741	 0.0821524967	 0.085665
H	 4.9030498485	-0.4070699221	-0.7615046647	 0.084164
H	 4.41922391	 1.0344568179	 0.1538396807	 0.081836
H	 5.8346557366	-0.3093900546	 1.3963371397	 0.287301
H	 2.4809944665	-0.4039899205	 2.1793034127	 0.122425
H	 2.1830152272	 1.1049271562	 1.3034380523	 0.076123
82.7454	119.8386	186.9955	206.6729	226.5005	247.3262	278.9626	358.0089	380.1319	411.824	451.9752	461.8774	535.86	654.3881	781.2175	820.7746	869.9564	890.5388	941.0041	955.1569	981.2274	1009.6639	1053.7029	1068.1501	1079.1228	1098.954	1144.5048	1158.8331	1172.9998	1211.5033	1236.205	1249.1352	1276.4007	1305.3353	1326.5768	1343.0453	1365.433	1377.6081	1385.0172	1390.7638	1404.4797	1420.0139	1457.7865	1478.3053	1487.1232	1492.2033	1504.3822	1513.4099	1520.7459	2952.115	2959.9615	2981.7034	3010.4911	3026.0206	3026.2821	3039.9444	3044.3015	3056.8122	3073.8181	3109.3658	3111.8018	3119.199	3834.0762
CC1CCC(CO)CO1	C[C@H]1CC[C@@H](CO)CO1	
InChI=1S/C7H14O2/c1-6-2-3-7(4-8)5-9-6/h6-8H,2-5H2,1H3	InChI=1S/C7H14O2/c1-6-2-3-7(4-8)5-9-6/h6-8H,2-5H2,1H3/t6-,7-/m0/s1
