16
gdb 80198	2.223	1.56909	1.21866	3.8822	77.86	-0.2437	-0.0003	0.2434	1080.2998	0.122918	-400.711164	-400.702723	-400.701779	-400.743994	31.983	
C	 0.0655189441	 1.5617458213	 0.0546011574	-0.426707
C	 0.1074195555	 0.0515410405	 0.0696487665	-0.050429
C	 1.3198351492	-0.7858586771	-0.184542625	-0.071145
N	 2.5422815222	-0.2004944128	 0.3627972314	-0.3371
C	 2.0120521154	-0.1046288778	 1.6600336329	 0.355083
O	 2.4474106116	 0.3573517495	 2.6723139264	-0.327734
C	 0.705752542	-0.7925961315	 1.2263086061	 0.002265
C	-0.018858254	-1.79262504	 1.9223666652	 0.176536
C	-0.6320456735	-2.6307563713	 2.5299899554	-0.400431
H	 1.0011972976	 2.0053706053	 0.403555197	 0.131596
H	-0.1246540642	 1.9256514081	-0.9608906528	 0.126593
H	-0.7375955615	 1.9297045074	 0.6998460584	 0.140358
H	-0.8051100196	-0.4210227134	-0.2903793859	 0.113899
H	 1.3722557289	-1.619426786	-0.8725234961	 0.127974
H	 3.065487879	 0.5471051158	-0.0784934054	 0.247269
H	-1.1646755026	-3.3737335381	 3.0699660087	 0.191974
128.066	131.0154	151.6819	187.7647	258.5299	351.5239	381.4928	455.2901	512.0116	555.2144	581.9247	628.8519	649.7788	665.0518	717.1137	764.6607	788.9763	902.8747	912.9624	976.0052	993.3586	1077.2031	1099.153	1107.7387	1149.068	1226.3644	1280.1159	1324.9996	1336.7692	1419.5403	1440.9947	1490.2699	1501.4895	1904.4608	2237.6693	3041.0898	3105.0796	3119.8968	3137.7361	3207.7083	3502.4456	3550.7739
CC1C2NC(=O)C12C#C	C[C@H]1[C@H]2NC(=O)[C@@]12C#C	
InChI=1S/C7H7NO/c1-3-7-4(2)5(7)8-6(7)9/h1,4-5H,2H3,(H,8,9)	InChI=1S/C7H7NO/c1-3-7-4(2)5(7)8-6(7)9/h1,4-5H,2H3,(H,8,9)/t4-,5+,7-/m0/s1
