21
gdb 72724	2.57963	1.9492	1.55561	1.6775	82.26	-0.2347	0.0594	0.2941	965.4455	0.183787	-386.985405	-386.977971	-386.977027	-387.016506	31.689	
C	-0.0457802535	 1.5468376335	-0.0443896823	-0.450784
C	-0.004955552	 0.0255949828	 0.0428738992	 0.469374
O	-1.2676431445	-0.3618317663	 0.758947403	-0.372418
C	-0.4411350769	-0.4436559665	 1.9866818979	-0.225553
C	 0.7722621578	-0.7413862736	 1.0678441708	 0.214748
C	 2.0551846037	-0.3247856367	 0.2658839902	-0.338427
C	 1.043702719	-0.5843140931	-0.9802184005	-0.119768
C	 0.855745412	-2.0931828435	-0.9285802394	-0.218476
C	 0.6540288161	-2.2312838803	 0.60465056	-0.217322
H	 0.8244648079	 1.9774762366	-0.545788125	 0.113503
H	-0.9293016678	 1.804536021	-0.6390196802	 0.132175
H	-0.1620741011	 2.0293580858	 0.9304552212	 0.116925
H	-0.4388008821	 0.5136904256	 2.5168687415	 0.106381
H	-0.7795889282	-1.2436243107	 2.6499392673	 0.110338
H	 2.3598996778	 0.7146362323	 0.3686981042	 0.114288
H	 2.9267345552	-0.98420002	 0.3131454872	 0.100088
H	 1.2269691677	-0.1115806612	-1.9480616313	 0.063845
H	-0.0166196734	-2.4218345223	-1.4997424709	 0.105589
H	 1.729094686	-2.6342369583	-1.303905918	 0.093972
H	 1.4352677196	-2.8301694798	 1.0833644994	 0.089786
H	-0.3135298832	-2.6659447452	 0.8536595556	 0.111737
187.1123	212.617	270.1769	319.0059	376.3956	403.2693	457.9824	472.9255	533.8037	617.27	650.2716	749.5279	773.7978	828.4187	837.426	873.1982	878.495	917.2212	934.5984	949.7234	968.575	1003.2438	1010.6751	1054.0504	1068.3641	1110.7413	1134.5572	1144.5495	1153.5548	1189.3913	1197.6689	1218.3721	1239.3559	1261.5598	1269.8251	1299.2453	1317.0268	1341.0128	1411.3263	1477.6253	1482.7823	1490.4821	1499.1174	1515.5246	1517.5143	3037.1407	3046.5215	3050.1	3058.243	3063.6649	3089.8507	3095.1124	3099.227	3107.1351	3116.2373	3130.3669	3160.1011
CC12OCC11CC2CC1	C[C@]12OC[C@@]31C[C@H]2CC3	
InChI=1S/C8H12O/c1-7-6-2-3-8(7,4-6)5-9-7/h6H,2-5H2,1H3	InChI=1S/C8H12O/c1-7-6-2-3-8(7,4-6)5-9-7/h6H,2-5H2,1H3/t6-,7-,8+/m1/s1
