13
gdb 132385	2.01517	1.87565	0.97175	3.3873	64.26	-0.2394	-0.0047	0.2347	1088.1364	0.091	-494.119873	-494.112678	-494.111734	-494.15143	27.796	
N	 0.0484980614	 1.3601690087	 0.1681906672	-0.567001
C	-0.0161600748	 0.0051329382	 0.0568159419	 0.42819
C	-1.2338702506	-0.6843795888	 0.0020495568	-0.308521
C	-1.1389064217	-2.0655264761	-0.0707854901	 0.455417
O	-2.2557393443	-2.8046246734	-0.1270036769	-0.410751
N	 0.0248032865	-2.7265825391	-0.0899688576	-0.427765
C	 1.0890466232	-1.9476657226	-0.034364075	 0.342214
F	 2.2470365359	-2.5836158591	-0.0556497174	-0.060605
N	 1.1692112992	-0.6389679378	 0.0348062996	-0.392044
H	 0.9515018666	 1.7797706307	 0.0187661606	 0.268398
H	-0.7617172389	 1.9152509698	-0.0455416816	 0.263154
H	-2.1935005118	-0.1865777445	 0.0202324574	 0.104189
H	-1.9666667707	-3.727300196	-0.1716653347	 0.305126
186.7977	221.7043	234.6396	328.3234	334.1987	359.7244	488.3162	534.1882	552.3107	566.6394	608.5669	646.232	716.3639	729.1688	798.5247	838.1518	993.58	1037.7589	1051.7795	1138.4619	1204.9143	1273.5405	1355.3533	1467.4445	1503.0331	1510.9989	1615.764	1642.6568	1677.6992	3223.2445	3608.1722	3734.6434	3761.6523
NC1=CC(O)=NC(F)=N1	Nc1cc(O)nc(F)n1	
InChI=1S/C4H4FN3O/c5-4-7-2(6)1-3(9)8-4/h1H,(H3,6,7,8,9)	InChI=1S/C4H4FN3O/c5-4-7-2(6)1-3(9)8-4/h1H,(H3,6,7,8,9)
