21
gdb 29776	2.39461	1.49656	0.93854	1.8183	88.72	-0.166	0.0586	0.2245	1289.4746	0.181587	-383.311769	-383.301031	-383.300087	-383.348338	38.018	
C	 0.0051303796	 1.4342811359	 0.0225297516	-0.333713
N	 0.0007956731	-0.0095604453	 0.0224231508	-0.04137
C	-0.0056248964	-0.8016924597	-1.1124437256	-0.199882
C	-0.002089847	-2.1168583884	-0.7118219213	 0.139286
N	-0.0960058451	-3.2719395	-1.5205344871	-0.605725
C	 0.0149707289	-2.1333126516	 0.7169042061	 0.166998
C	 0.0108693941	-3.3746848507	 1.5554705694	-0.520279
C	 0.0214583641	-0.814136346	 1.1381502507	 0.208367
C	 0.0457696041	-0.2345188854	 2.5144321542	-0.506527
H	 0.9115030394	 1.8385649849	 0.4892314178	 0.129826
H	-0.0330544975	 1.7879732165	-1.0093533684	 0.135964
H	-0.8626993808	 1.8412064082	 0.5546568777	 0.131515
H	-0.0245621272	-0.3584294294	-2.095502236	 0.096864
H	 0.103164793	-3.0701365714	-2.4928017996	 0.232051
H	 0.5408559136	-3.9989321937	-1.2143214496	 0.235388
H	 0.9535831788	-3.9353490127	 1.4804531776	 0.110292
H	-0.1405174484	-3.1509720039	 2.6152387176	 0.115881
H	-0.7886864839	-4.0589177044	 1.2462319282	 0.128959
H	 0.9430706078	 0.3709965947	 2.6996692622	 0.121933
H	-0.8208928863	 0.4094954379	 2.7133173661	 0.122752
H	 0.0352931762	-1.0324618454	 3.2597125675	 0.13142
23.4569	83.4668	125.7152	139.8656	171.2917	194.7442	247.1692	277.7387	280.146	299.3829	321.4585	539.5763	564.1487	605.0524	607.6625	633.5459	683.577	715.3598	805.069	850.0569	959.9919	1054.48	1062.6421	1072.8523	1098.8276	1125.1523	1147.0872	1171.455	1220.5999	1261.1337	1407.171	1409.2681	1414.1697	1429.1865	1466.3172	1474.6234	1481.1122	1484.3198	1489.558	1492.3945	1504.8128	1520.9771	1581.8481	1635.8069	1660.5249	3001.153	3007.5721	3018.8721	3046.3345	3051.3835	3066.2022	3100.6496	3123.6503	3131.302	3251.5494	3512.4554	3601.5245
CN1C=C(N)C(C)=C1C	Cn1cc(N)c(C)c1C	
InChI=1S/C7H12N2/c1-5-6(2)9(3)4-7(5)8/h4H,8H2,1-3H3	InChI=1S/C7H12N2/c1-5-6(2)9(3)4-7(5)8/h4H,8H2,1-3H3
