18
gdb 22687	3.27613	0.86599	0.76325	1.1731	71.71	-0.2574	-0.0058	0.2516	1496.1258	0.145515	-476.143845	-476.134297	-476.133352	-476.179331	34.216	
O	 0.2952708831	 1.2102805945	 0.6159377702	-0.419937
C	-0.0021699281	 0.230254602	-0.360108308	-0.140629
C	-1.3357865742	-0.4561453556	-0.1108180131	 0.35478
C	-1.3987289899	-1.9480547732	 0.0979948467	-0.329739
C	-0.9189613048	-2.7363385152	-1.1055060294	 0.097569
C	-1.5333047842	-4.0146587974	-1.4826643949	-0.180395
O	-1.8143081676	-2.8192783475	-2.2129079214	-0.224328
N	-2.4483412277	 0.1673988851	-0.0390438364	-0.164233
O	-2.2786036558	 1.5560540933	-0.2525728742	-0.412396
H	-0.434137467	 1.8415939748	 0.5816740527	 0.29782
H	-0.0119988051	 0.6539483004	-1.3768499117	 0.118609
H	 0.8086918003	-0.5024049347	-0.3184621831	 0.107425
H	-0.7687817181	-2.2130224167	 0.9591069342	 0.121741
H	-2.429517397	-2.22723843	 0.3295439999	 0.127389
H	 0.1220869483	-2.5768937637	-1.3926899945	 0.097353
H	-0.9475103922	-4.7637361064	-2.0134839532	 0.117886
H	-2.3600043836	-4.4047075815	-0.8901959296	 0.117979
H	-3.1758704462	 1.8901195817	-0.153321134	 0.313107
49.6131	62.009	103.2759	138.7581	253.1932	286.2376	315.3605	345.198	378.7521	420.9671	458.2149	507.8506	572.4013	712.0455	786.383	836.9534	870.2059	919.7947	948.1691	965.9847	993.6364	1078.0556	1094.3524	1105.5787	1160.2012	1167.9862	1198.7282	1237.3736	1274.5496	1296.165	1316.411	1371.1665	1391.7019	1443.6578	1455.2404	1459.893	1491.7567	1530.5576	1728.4792	2982.4273	3015.8711	3082.0627	3084.6892	3090.6857	3109.9398	3170.8778	3780.1449	3830.2301
OCC(CC1CO1)=NO	OCC(=NO)C[C@H]1CO1	
InChI=1S/C5H9NO3/c7-2-4(6-8)1-5-3-9-5/h5,7-8H,1-3H2	InChI=1S/C5H9NO3/c7-2-4(6-8)1-5-3-9-5/h5,7-8H,1-3H2/t5-/m0/s1
