19
gdb 115040	2.0117	1.5596	0.95891	3.8827	78.	-0.2342	-0.0239	0.2103	1242.3011	0.158083	-423.031527	-423.022401	-423.021457	-423.066399	32.618	
C	-0.3800305441	 1.5764929372	 0.0451143795	-0.237734
O	-0.2844519549	 0.2558977258	 0.5292316106	-0.242848
C	-1.2843269008	-0.6119618378	 0.0408026527	 0.118356
C	-1.1353926079	-1.0151761978	-1.4559748597	-0.285212
C	-1.4906785306	-2.4806414671	-1.4450764491	-0.061484
C	-1.5774630131	-2.9745947911	-0.2099589802	-0.093527
C	-1.2470840452	-1.9407080435	 0.8460803432	-0.171924
C	 0.1379783954	-2.2316680328	 1.4205665137	 0.182439
O	 0.3372621127	-2.5756755493	 2.5554638729	-0.255526
H	 0.3996476736	 2.1591937657	 0.5407801403	 0.133873
H	-0.2254816055	 1.6328617623	-1.0423671041	 0.10973
H	-1.360396844	 2.0203689187	 0.2787056307	 0.108181
H	-2.2732596749	-0.1493372376	 0.185073093	 0.079347
H	-1.779265931	-0.4273393402	-2.1193951973	 0.107648
H	-0.1020420512	-0.8530423714	-1.7917865858	 0.120209
H	-1.6488554019	-3.0506551767	-2.3541523315	 0.102568
H	-1.8013924283	-4.0034769635	 0.0464077425	 0.11065
H	-1.9445805377	-1.9387937406	 1.6883501811	 0.094906
H	 0.9654709393	-2.1492147804	 0.6836227276	 0.080349
55.5192	72.4052	101.8212	166.5485	195.3282	255.021	315.8407	412.8052	434.1555	478.3308	489.2611	682.9151	747.785	787.0696	842.5377	925.2793	964.4854	980.9616	985.0771	1006.9359	1041.1764	1073.1825	1108.5034	1135.7814	1154.6174	1175.4993	1187.1498	1228.6282	1265.5764	1272.112	1309.4799	1327.5431	1375.6747	1385.4777	1423.3021	1479.4392	1483.4472	1491.259	1508.0775	1679.305	1831.6015	2899.6293	2971.8899	2979.8201	3018.128	3028.764	3061.7193	3075.126	3119.7305	3186.1811	3212.6597
COC1CC=CC1C=O	CO[C@H]1CC=C[C@H]1C=O	
InChI=1S/C7H10O2/c1-9-7-4-2-3-6(7)5-8/h2-3,5-7H,4H2,1H3	InChI=1S/C7H10O2/c1-9-7-4-2-3-6(7)5-8/h2-3,5-7H,4H2,1H3/t6-,7-/m0/s1
