16
gdb 25786	4.289	1.02734	0.83845	4.0023	77.46	-0.1907	-0.0142	0.1764	1310.5399	0.126534	-434.132195	-434.123708	-434.122764	-434.165208	32.292	
N	-0.12134356	 1.3325256276	-0.1769356757	-0.558971
C	 0.0378687692	-0.0427573263	-0.0122903529	 0.293312
O	 1.1316901834	-0.5505850156	 0.1518970267	-0.354576
C	-1.2108227776	-0.811647516	-0.0053120887	 0.260546
C	-1.3868479072	-2.1752296444	-0.1551814383	-0.283172
C	-2.7772688034	-2.4443353288	-0.079627152	 0.262202
N	-3.3872509954	-3.694631846	-0.2749890652	-0.607521
C	-3.4140923056	-1.2315401763	 0.1272461911	-0.148382
N	-2.4567697058	-0.24439147	 0.137207692	-0.340982
H	 0.7572615108	 1.8135933071	-0.3118510197	 0.255816
H	-0.8541366743	 1.6366441438	-0.8016084275	 0.247826
H	-0.5915234752	-2.8826834421	-0.3311741318	 0.113766
H	-2.8031275261	-4.4594670129	 0.0371154496	 0.245217
H	-4.2914833587	-3.7669391815	 0.1731413021	 0.239599
H	-4.4596125494	-1.0002091154	 0.2545214267	 0.113276
H	-2.6092497747	 0.6915298667	 0.4720683136	 0.262044
91.7634	146.993	160.3176	193.7396	321.7795	343.1296	406.2708	407.971	523.7467	525.7368	573.6682	629.2491	634.0505	667.2079	695.0234	718.3339	758.3932	786.0676	843.719	975.1248	995.7053	1084.8672	1099.4016	1132.681	1141.2336	1268.9662	1318.1625	1364.7725	1458.2046	1468.1354	1531.0759	1614.3885	1639.1517	1660.4633	1779.515	3258.6552	3259.1482	3538.1699	3555.8725	3626.9202	3670.5826	3673.5621
NC(=O)C1=CC(N)=CN1	NC(=O)c1cc(N)c[nH]1	
InChI=1S/C5H7N3O/c6-3-1-4(5(7)9)8-2-3/h1-2,8H,6H2,(H2,7,9)	InChI=1S/C5H7N3O/c6-3-1-4(5(7)9)8-2-3/h1-2,8H,6H2,(H2,7,9)
