17
gdb 72053	2.52973	1.63943	1.27379	1.2162	81.01	-0.2253	0.0279	0.2532	1042.4144	0.134494	-384.599803	-384.591837	-384.590893	-384.632006	31.273	
C	-0.0558731017	 1.3987170802	-0.067563632	-0.504548
C	-0.001487803	-0.0864980762	 0.0154686358	 0.406571
O	 0.9704882886	-0.7984525724	-0.7526562566	-0.32333
C	 0.2158659781	-2.0070506305	-0.4724902439	 0.010743
C	 0.4539165334	-2.2432968093	 1.0382478242	-0.244503
C	-0.3384841667	-0.9516478901	 1.2349216831	-0.206505
C	-1.0685273966	-1.149110979	-0.1153170094	 0.240987
C	-2.4254538996	-1.157191071	-0.4896421896	-0.021398
C	-3.584511415	-1.1696576226	-0.8190659828	-0.367466
H	 0.8558861331	 1.8418189696	 0.3467227003	 0.136345
H	-0.1588876142	 1.7244081593	-1.1066332155	 0.13975
H	-0.9104739742	 1.7763403004	 0.5008318162	 0.134842
H	 0.3159486268	-2.7752458161	-1.2352130268	 0.099297
H	-0.0975086348	-3.1112239915	 1.4075494519	 0.112587
H	 1.4986622793	-2.2776591288	 1.3616561377	 0.10476
H	-0.7632400107	-0.5413734255	 2.1421390266	 0.104247
H	-4.6050221226	-1.1787089866	-1.1109933791	 0.177622
110.9802	147.5798	190.4221	248.1503	296.4494	407.0594	465.5913	499.1403	552.537	558.4195	616.5952	632.2109	663.8324	741.6706	798.4065	852.3538	882.0051	915.1269	935.7587	949.2358	993.6403	1000.7386	1076.7979	1097.9701	1115.2604	1151.8511	1175.8297	1221.2407	1266.8746	1283.181	1322.9261	1406.1202	1465.1302	1473.2683	1486.6691	1501.1379	2226.0944	3039.9526	3053.3758	3107.891	3118.7731	3122.228	3158.0772	3204.6217	3502.7475
CC12OC3CC1C23C#C	C[C@@]12O[C@H]3C[C@@H]1[C@@]23C#C	
InChI=1S/C8H8O/c1-3-8-5-4-6(8)9-7(5,8)2/h1,5-6H,4H2,2H3	InChI=1S/C8H8O/c1-3-8-5-4-6(8)9-7(5,8)2/h1,5-6H,4H2,2H3/t5-,6-,7+,8+/m0/s1
