19
gdb 67025	2.22988	2.07808	1.66736	2.0068	78.23	-0.2393	-0.0014	0.238	942.8771	0.159589	-382.045456	-382.037604	-382.03666	-382.07713	31.393	
C	-0.0803736448	 1.5499650036	-0.0766917835	-0.523611
C	 0.0338018177	 0.0607268861	-0.0025230629	 0.309266
C	 0.4756225352	-0.9836989141	-0.9596419129	-0.096327
C	 1.2819062694	-1.7118583464	 0.1097371418	-0.265311
C	 0.5077415048	-0.8656378482	 1.1869402757	 0.259347
C	 1.2479392447	-0.3150690322	 2.3806237799	-0.488697
N	-0.6725372559	-1.6841003422	 1.5355991565	-0.226339
C	-1.3985304197	-1.6657805141	 0.491579133	 0.020838
N	-0.9927381283	-0.8213927904	-0.5900466327	-0.195282
H	 0.8861912762	 2.0281068795	 0.1139648618	 0.124246
H	-0.4254589235	 1.8532126631	-1.0690247435	 0.137467
H	-0.7954296915	 1.9273220741	 0.6625393325	 0.131774
H	 0.6837557299	-0.9288111367	-2.0215444409	 0.103536
H	 1.2107322716	-2.7995422229	 0.1979264687	 0.105743
H	 2.3295909102	-1.4045302769	 0.0492820908	 0.109707
H	 2.1192383907	 0.2700918985	 2.0696247535	 0.111865
H	 0.5949425834	 0.3294820751	 2.9781696387	 0.125177
H	 1.5922066415	-1.1295761214	 3.0247292437	 0.132884
H	-2.3090165516	-2.2456112847	 0.3761292598	 0.123719
175.7226	193.8958	201.6198	215.7349	303.4452	345.5205	410.4017	447.6567	548.1599	601.6642	629.7191	711.7657	731.7498	803.1582	830.6738	862.7619	904.2612	939.6343	942.4294	971.11	977.7332	1008.7349	1082.2482	1097.2537	1120.1798	1127.5458	1167.4689	1196.4094	1236.0402	1256.488	1311.4509	1317.0242	1396.7611	1413.6289	1435.8018	1478.6446	1484.2679	1485.7528	1488.9822	1494.9334	1661.1875	3032.9746	3036.1601	3053.0818	3096.244	3104.4424	3111.2956	3112.8441	3116.9407	3186.1014	3191.6412
CC12C3CC1(C)N=CN23	C[C@@]12[C@H]3C[C@]1(C)[N][CH]N23	
InChI=1S/C7H10N2/c1-6-3-5-7(6,2)9(5)4-8-6/h4-5H,3H2,1-2H3	InChI=1S/C7H10N2/c1-6-3-5-7(6,2)9(5)4-8-6/h4-5H,3H2,1-2H3/t5-,6+,7-,9?/m1/s1
