21
gdb 58420	2.0337	1.32976	1.24153	1.1954	74.35	-0.2246	0.0485	0.2732	1195.7501	0.179033	-461.3359	-461.325316	-461.324372	-461.370884	39.73	
C	 0.0931326315	 1.4342174798	-0.2852688743	-0.420045
C	 0.068772844	-0.0500843825	 0.1121926641	 0.014397
C	 0.704743046	-0.2865492371	 1.4894447856	-0.400254
C	-1.3551407265	-0.5840585485	 0.0779203924	 0.312554
O	-2.2578046853	 0.0166979737	 0.9767675395	-0.4735
C	-1.9680324097	-1.101624736	-1.2169727889	 0.006991
O	-1.1986695126	-1.1960170666	-2.3763905101	-0.431289
C	-1.6385220051	-2.0531872901	-0.0785161258	-0.024015
O	-0.5296874452	-2.8930983079	-0.2903531667	-0.429093
H	 1.1194333717	 1.8137293885	-0.3030660839	 0.113074
H	-0.3399182803	 1.5817616393	-1.2796508471	 0.125075
H	-0.4640699959	 2.0476407188	 0.432810622	 0.105169
H	 0.6431227506	-0.6036925287	-0.6364333805	 0.078729
H	 0.7644043071	-1.3559888615	 1.7103563261	 0.124018
H	 1.7172110032	 0.1284743252	 1.5281360204	 0.101843
H	 0.1097032348	 0.1903456388	 2.2744917319	 0.121544
H	-2.490196112	 0.881978315	 0.6215597131	 0.284693
H	-3.0093549761	-0.860325409	-1.4136742967	 0.09981
H	-0.5697909474	-1.9148294147	-2.2208770218	 0.286111
H	-2.4383904682	-2.4648774364	 0.5316416082	 0.104927
H	-0.8610971846	-3.7468049101	-0.5894363375	 0.299262
55.9284	126.8962	168.6809	215.2499	242.6273	245.673	262.3814	279.4056	287.6362	299.0349	367.4688	375.4873	456.288	490.0836	559.1599	589.6126	669.1928	681.2629	835.6553	895.8132	906.6456	928.3891	968.6081	994.1562	1057.3527	1073.7788	1120.3315	1133.2413	1151.5417	1188.8085	1210.0029	1234.9649	1287.1458	1310.0194	1332.1741	1339.3806	1378.7498	1391.3519	1400.974	1413.5412	1483.3899	1489.0506	1494.4647	1505.9272	1515.5781	3026.6801	3036.5682	3065.6743	3093.5173	3105.5007	3108.3233	3116.7172	3136.4052	3146.8549	3733.8409	3796.5601	3806.4477
CC(C)C1(O)C(O)C1O	CC(C)[C@@]1(O)[C@@H](O)[C@H]1O	
InChI=1S/C6H12O3/c1-3(2)6(9)4(7)5(6)8/h3-5,7-9H,1-2H3	InChI=1S/C6H12O3/c1-3(2)6(9)4(7)5(6)8/h3-5,7-9H,1-2H3/t4-,5+,6+
