20
gdb 15005	4.14662	1.38671	1.1214	0.5822	71.59	-0.2359	0.0864	0.3222	1101.7657	0.178167	-386.13904	-386.130869	-386.129925	-386.171879	30.37	
C	-0.1167039654	 1.3832928379	 0.0001651592	-0.239666
O	 0.0835976512	-0.0122467166	 0.031755783	-0.243991
C	 0.7035808387	-0.5502289612	-1.1233864652	 0.123613
C	 1.3146399811	-1.8986797681	-0.7440883097	-0.222785
C	 1.8630831193	-2.6089848708	-1.9905313419	-0.212409
C	 0.7940906722	-2.6611825871	-3.0826587016	-0.061803
O	 0.2993822191	-1.3674215017	-3.3906051686	-0.243315
C	-0.3043844782	-0.7467231144	-2.2702936553	-0.095004
H	 0.8283982931	 1.9242532011	-0.1631001033	 0.105696
H	-0.8290276136	 1.6955713654	-0.777171918	 0.108168
H	-0.5222759051	 1.6710189961	 0.9734713148	 0.127354
H	 1.5001687025	 0.1270592186	-1.4745769502	 0.066764
H	 2.0933224859	-1.7542995115	 0.0113136759	 0.100227
H	 0.5272858822	-2.5068859717	-0.2797191621	 0.104778
H	 2.7360327437	-2.0686708587	-2.3767954992	 0.104521
H	 2.1935153606	-3.6242265406	-1.7432813335	 0.096794
H	 1.1970460754	-3.0621292274	-4.0171825638	 0.104772
H	-0.0368916406	-3.3141719906	-2.7628601294	 0.084604
H	-1.1490244748	-1.3478249067	-1.8919316256	 0.090018
H	-0.6995584172	 0.2087053679	-2.6262585655	 0.101664
63.4587	126.4247	172.9954	230.2731	267.5135	347.1792	385.4902	436.6824	456.7306	495.0024	575.3266	819.8927	869.1882	879.2438	923.0785	965.0128	982.6042	1029.5185	1045.4606	1117.9086	1131.2185	1143.3771	1178.1865	1187.7403	1194.4027	1225.4557	1247.8778	1292.8146	1318.2415	1335.4465	1343.2239	1372.6825	1382.5	1404.953	1419.5704	1479.1013	1479.8297	1489.5146	1492.6309	1493.2184	1506.1122	1510.3987	2953.8009	2959.2917	2970.8613	2979.4505	3026.6906	3028.4087	3030.3757	3073.2908	3082.1089	3085.0443	3088.3976	3111.019
COC1CCCOC1	CO[C@H]1CCCOC1	
InChI=1S/C6H12O2/c1-7-6-3-2-4-8-5-6/h6H,2-5H2,1H3	InChI=1S/C6H12O2/c1-7-6-3-2-4-8-5-6/h6H,2-5H2,1H3/t6-/m0/s1
