19
gdb 91056	3.94914	1.23679	1.14412	1.5194	81.69	-0.2355	0.0029	0.2384	1136.8586	0.159865	-385.833778	-385.826262	-385.825318	-385.865603	30.186	
C	-0.1000125693	 1.5629114785	 0.0749000588	-0.398953
C	 0.0707373043	 0.0425819305	 0.0136422417	 0.005567
C	 0.8771806765	-0.4493579767	-1.2437681663	-0.264023
C	 1.4760107168	-1.770740806	-0.7479606255	-0.076602
C	 2.9482788061	-2.2790220154	-0.7501633741	 0.000639
O	 3.7911273773	-1.3075312469	-0.1348521245	-0.232586
C	 3.0123548061	-2.1714318619	 0.7304549718	-0.109409
C	 1.6544321904	-1.5086602774	 0.7348380621	 0.281401
C	 0.888838704	-0.5232027252	 1.1849621503	-0.223303
H	 0.8730815418	 2.063823588	 0.1232888212	 0.121043
H	-0.6253045601	 1.932545495	-0.8121291334	 0.114242
H	-0.6787275723	 1.8652015774	 0.9543059104	 0.112089
H	-0.9324131587	-0.4117401018	-0.002389277	 0.078066
H	 0.2527376533	-0.5304257974	-2.1384566483	 0.090453
H	 1.6802319185	 0.2693403129	-1.4434228767	 0.11155
H	 0.8139920384	-2.6293412567	-0.9269945413	 0.08206
H	 3.4195923115	-2.9930037057	-1.4162918643	 0.101025
H	 3.5563892899	-2.7444929227	 1.4703494866	 0.109267
H	 0.8654466257	-0.0885103287	 2.1780719885	 0.097476
99.8419	200.6711	231.2815	246.1883	299.6882	450.3805	463.8541	517.8207	613.9751	666.7992	712.7237	810.0408	820.1481	833.7259	861.3927	875.3104	898.72	920.6257	941.5192	976.4066	1021.1344	1035.4688	1056.2022	1088.6051	1126.9752	1137.6943	1160.3959	1203.1599	1217.3637	1242.0775	1249.3536	1294.2064	1303.7324	1332.0163	1355.7373	1361.242	1410.0454	1480.0361	1496.2417	1500.3221	1732.0598	2976.0044	3012.7535	3027.8302	3042.114	3094.473	3097.4508	3100.3384	3179.7456	3192.6386	3203.9953
CC1CC2C3OC3C2=C1	C[C@H]1C[C@H]2[C@H]3O[C@H]3[C]2[CH]1	
InChI=1S/C8H10O/c1-4-2-5-6(3-4)8-7(5)9-8/h2,4,6-8H,3H2,1H3	InChI=1S/C8H10O/c1-4-2-5-6(3-4)8-7(5)9-8/h2,4,6-8H,3H2,1H3/t4-,6-,7+,8-/m1/s1
