18
gdb 66780	3.36104	2.03867	1.75087	1.7756	76.05	-0.2158	0.0682	0.284	848.3046	0.150051	-364.744923	-364.738754	-364.73781	-364.774987	26.759	
C	-0.0022465508	 1.4581959636	 0.0068960139	-0.508392
C	-0.0341725331	-0.0445896858	 0.0546381845	 0.344068
C	-1.0687226066	-0.8406385047	-0.7327249879	-0.126449
C	-1.3119673394	-2.1734407942	-0.0607939748	-0.089997
C	-0.412106026	-2.0833665257	-1.2877439259	-0.081964
C	 0.8340332782	-2.1487785146	-0.3840460795	-0.015384
C	-0.074503217	-2.2672630361	 0.8721068726	-0.088617
C	 0.3972833903	-0.841645703	 1.2283697395	-0.103977
N	 1.2847848307	-0.7461177313	 0.0043936712	-0.199036
H	 0.8362305887	 1.8435842141	 0.5921808459	 0.130963
H	 0.1171288011	 1.8134043267	-1.0223964616	 0.12342
H	-0.9279897268	 1.8840638924	 0.4091569521	 0.1166
H	-1.8588076291	-0.3474048144	-1.2836504115	 0.087174
H	-2.284702614	-2.6348505868	 0.0584968034	 0.086362
H	-0.5455408708	-2.4578059752	-2.2949181941	 0.087685
H	 1.6496786988	-2.8335230264	-0.6033850703	 0.077138
H	 0.0144120613	-3.0819704652	 1.5854947322	 0.073393
H	 0.7001458244	-0.4477327234	 2.1936525103	 0.087013
197.8773	245.8563	290.5267	557.244	570.649	576.3588	690.8518	715.0139	738.1628	774.2201	791.347	819.654	850.816	862.0556	889.8665	912.4218	918.326	939.9076	955.2973	1002.4693	1009.3697	1018.9051	1044.5007	1050.6386	1065.6185	1100.5416	1153.6801	1181.4433	1195.8748	1216.6828	1233.0403	1271.3802	1276.6651	1310.4436	1343.4738	1407.0354	1425.1783	1488.677	1494.7757	3032.9194	3093.8262	3120.3973	3142.8327	3149.5471	3160.3147	3180.1231	3190.1975	3207.8694
CC12C3C4C3C3C4C1N23	C[C@]12[C@@H]3[C@H]4[C@@H]3[C@@H]3[C@H]4[C@H]1N23	
InChI=1S/C8H9N/c1-8-5-2-3(5)6-4(2)7(8)9(6)8/h2-7H,1H3	InChI=1S/C8H9N/c1-8-5-2-3(5)6-4(2)7(8)9(6)8/h2-7H,1H3/t2-,3-,4-,5+,6+,7+,8-,9?/m0/s1
