16
gdb 123573	3.92039	1.56448	1.22509	3.6464	73.78	-0.2509	-0.0066	0.2443	981.949	0.12764	-400.735859	-400.729609	-400.728665	-400.76636	25.682	
C	-0.0175313311	 1.4687542208	 0.0923129088	-0.281139
C	 1.3029375284	 0.7566691706	 0.0118680968	-0.030633
C	 2.061899839	 0.4798052459	 1.328006056	-0.37925
C	 1.1064405634	-0.4098337406	 2.0757191455	 0.140663
C	 0.8984029201	-1.1070880914	 3.2153804938	-0.079848
O	-0.2547089678	-1.8076491273	 3.1212577439	-0.178545
N	-0.8525330165	-1.5657798153	 1.8712735595	-0.263635
C	-0.0302995848	-0.7405739759	 1.2838316267	 0.400331
C	-0.0050139587	-0.0459031015	-0.0203647551	-0.172344
H	-0.3270577993	 1.9055114296	 1.0364798303	 0.124799
H	-0.340915257	 2.0192825768	-0.7843747279	 0.121386
H	 1.8870774137	 0.8763081683	-0.8927801108	 0.0954
H	 3.011587612	-0.0281199186	 1.1243632403	 0.123108
H	 2.3036824432	 1.4067634615	 1.8597745552	 0.122547
H	 1.436381303	-1.2340124309	 4.1420277727	 0.148347
H	-0.3830775677	-0.5216744821	-0.9157628355	 0.108811
159.2525	235.4836	343.6468	417.554	440.7364	588.866	595.7475	691.6403	735.174	768.2034	792.9188	817.9758	830.3516	872.0537	892.1864	957.6197	967.3025	988.3853	1035.7404	1070.4327	1085.1148	1099.3467	1113.591	1165.1532	1183.7874	1206.3656	1264.7299	1291.8484	1330.6289	1362.8418	1416.3003	1481.6259	1491.0325	1563.8313	1672.1797	3036.2412	3067.8391	3129.5603	3181.5808	3200.9195	3218.8355	3263.0311
C1C2CC3=CON=C3C12	C1[C@H]2Cc3conc3[C@@H]12	
InChI=1S/C7H7NO/c1-4-2-6(4)7-5(1)3-9-8-7/h3-4,6H,1-2H2	InChI=1S/C7H7NO/c1-4-2-6(4)7-5(1)3-9-8-7/h3-4,6H,1-2H2/t4-,6+/m1/s1
