21
gdb 20082	3.09716	1.57615	1.28435	0.9936	79.99	-0.2292	0.0849	0.3141	1065.6312	0.188007	-329.083865	-329.07496	-329.074015	-329.117223	33.072	
C	 0.0147172229	 0.9563023173	-2.1013625747	-0.404672
C	-0.0116966565	-0.1997352856	-1.1242426298	-0.04616
C	 1.1810532294	-0.5709221875	-0.2605771803	-0.046156
C	 2.4915865094	 0.1854921593	-0.307904745	-0.404685
C	-0.0589620769	 0.0241360368	 0.3724626926	 0.028373
N	 0.0079568157	 1.3741296094	 0.8603460516	-0.05702
C	-1.2076608303	 1.9124897903	 1.4612855181	-0.221502
C	-0.0376290934	 1.5484321327	 2.3081968926	-0.221498
H	 0.496722061	 1.8361598325	-1.6728730954	 0.134554
H	 0.5463710929	 0.6833500119	-3.0198435825	 0.110146
H	-1.0038279385	 1.2452571558	-2.3839307217	 0.110413
H	-0.5995517926	-1.0469535646	-1.4698503071	 0.077012
H	 1.3018869329	-1.6386807976	-0.0929896981	 0.07701
H	 2.3339855971	 1.2644194212	-0.3420291246	 0.134562
H	 3.0931870081	-0.0300913545	 0.5822478609	 0.110409
H	 3.0828082838	-0.1056819424	-1.1833715388	 0.110151
H	-0.6916191985	-0.6532413867	 0.955043244	 0.061311
H	-1.4278315358	 2.9527240188	 1.238270077	 0.114761
H	-2.0798705318	 1.2625731006	 1.5121021619	 0.109114
H	-0.1284707047	 0.6553852184	 2.9245858728	 0.109115
H	 0.6124749758	 2.3178856439	 2.7151404465	 0.114763
78.4395	150.2518	157.4026	159.812	174.8926	253.0949	306.725	326.956	472.3812	511.2955	601.6585	749.3623	766.9084	780.7804	838.3838	894.8453	929.2517	959.9333	968.289	1031.2446	1032.9446	1057.1885	1109.5763	1115.5057	1118.6291	1122.4453	1139.1752	1158.8193	1174.1572	1186.0737	1213.3762	1250.929	1328.2471	1371.8145	1381.4504	1413.0101	1420.5355	1451.4155	1488.3369	1491.6851	1495.163	1504.0463	1515.4151	1520.0877	3031.1539	3033.0547	3034.1582	3083.1671	3085.0074	3093.1103	3097.3747	3117.378	3129.2668	3138.3202	3147.4849	3174.6807	3189.3098
CC1C(C)C1N1CC1	C[C@H]1[C@@H](C)[C@H]1N1CC1	
InChI=1S/C7H13N/c1-5-6(2)7(5)8-3-4-8/h5-7H,3-4H2,1-2H3	InChI=1S/C7H13N/c1-5-6(2)7(5)8-3-4-8/h5-7H,3-4H2,1-2H3/t5-,6+,7-
