21
gdb 67952	2.29761	1.64674	1.20983	2.912	81.81	-0.2347	-0.0165	0.2182	1115.8654	0.182978	-387.122563	-387.114156	-387.113211	-387.155596	33.103	
C	 0.333695725	 1.4800619313	-0.2575955585	-0.476792
C	-0.0646385569	 0.036442595	 0.0194198103	 0.352606
C	-1.4900669903	-0.1811339922	 0.6264287361	-0.416057
C	-0.8414765768	-1.0989621599	 1.6743252843	 0.397036
O	-1.2640191827	-1.9174200199	 2.4395911054	-0.30144
C	 0.5801807372	-0.669059787	 1.2697491471	-0.155789
C	 1.5518387188	-1.7675706128	 0.7848010177	-0.235698
C	 1.6651501842	-1.5185966064	-0.7371318648	-0.19494
C	 0.299032016	-0.9294560816	-1.1346864331	-0.270041
H	 1.386230711	 1.555206907	-0.553288034	 0.117495
H	-0.2682485747	 1.9074953426	-1.0677575207	 0.11836
H	 0.1932897467	 2.108439665	 0.6289222282	 0.112116
H	-1.8970805883	 0.7223123378	 1.0952827877	 0.122848
H	-2.2660118936	-0.6225818767	-0.0050791098	 0.122318
H	 1.0170790094	 0.0163408533	 2.0029825445	 0.090657
H	 2.5207300477	-1.7246615668	 1.2881680611	 0.103209
H	 1.130858264	-2.7580215622	 0.989266403	 0.116834
H	 2.4567908089	-0.7859879511	-0.9353341429	 0.10099
H	 1.9187413914	-2.4228655302	-1.2980890856	 0.098791
H	-0.4403107029	-1.7373650714	-1.200965407	 0.099794
H	 0.3138730959	-0.429376294	-2.1079056989	 0.097703
53.6263	172.8844	195.366	232.1721	282.7026	330.4641	358.517	419.1896	536.895	553.2743	587.9146	620.7349	769.2538	784.785	819.1132	837.9129	892.7467	906.724	929.1438	948.8545	990.3563	1011.6841	1030.4228	1055.1191	1073.7075	1122.5134	1141.2128	1157.7409	1196.1655	1219.8157	1228.6678	1254.2474	1283.5157	1310.5893	1323.5063	1337.3838	1348.5387	1408.9934	1443.8192	1485.8596	1490.5357	1495.1535	1496.7627	1508.527	1884.58	3020.3396	3027.3071	3034.9658	3043.2976	3048.7241	3060.4227	3081.9331	3086.9181	3087.7314	3090.9409	3101.235	3102.7652
CC12CC(=O)C1CCC2	C[C@]12CC(=O)[C@H]1CCC2	
InChI=1S/C8H12O/c1-8-4-2-3-6(8)7(9)5-8/h6H,2-5H2,1H3	InChI=1S/C8H12O/c1-8-4-2-3-6(8)7(9)5-8/h6H,2-5H2,1H3/t6-,8+/m1/s1
