22
gdb 6499	3.47299	1.22638	1.17732	1.7324	78.15	-0.2588	0.0812	0.3401	1182.9021	0.197856	-350.200285	-350.190619	-350.189675	-350.2345	35.873	
C	 0.2521641935	 1.6278384663	 0.0391646888	-0.378972
C	 0.0448556632	 0.108798031	-0.0418636247	 0.03416
C	 0.7304532709	-0.4691825262	-1.2877134252	-0.388917
C	 0.5493975722	-0.6172747737	 1.2218821498	-0.248605
C	-0.1422191175	-0.2469567613	 2.5239796994	 0.423508
C	-1.6406138064	-0.4543869049	 2.5989086006	-0.46164
C	 0.6401336419	-0.2699292428	 3.770521996	-0.231649
O	 0.3184522667	 0.9708296529	 3.1393368678	-0.272873
H	 1.3178235197	 1.8680257397	 0.13249247	 0.111984
H	-0.1224174237	 2.1183077336	-0.8656702642	 0.102809
H	-0.2545493636	 2.0655937085	 0.9022314302	 0.133395
H	-1.0322285757	-0.0846389137	-0.1400810153	 0.072346
H	 1.8154491268	-0.3160109366	-1.2426912901	 0.112118
H	 0.5502788444	-1.5453387302	-1.3844603775	 0.106486
H	 0.3657625768	 0.0158817628	-2.1990814937	 0.109556
H	 0.4392821143	-1.7008781806	 1.0764010176	 0.092685
H	 1.6229752628	-0.4232688517	 1.3373364541	 0.096799
H	-1.8993965052	-1.4988234823	 2.392817568	 0.118658
H	-2.014284773	-0.1925350352	 3.5917417854	 0.124626
H	-2.1630994261	 0.1699664089	 1.8676411069	 0.130333
H	 0.1388459801	-0.4553008286	 4.7202191825	 0.106203
H	 1.6933109179	-0.5489043661	 3.7449473736	 0.10699
55.2816	97.7296	168.1383	194.9201	227.7812	251.6951	303.2576	323.6268	358.1281	386.8664	408.9599	441.0496	505.1333	732.9183	813.8011	830.1146	891.2467	908.4395	929.8785	934.7414	970.4578	978.4672	1017.2518	1082.6437	1123.8531	1135.0745	1150.0696	1173.7303	1195.5491	1252.1308	1289.2102	1320.7417	1365.5852	1370.1662	1403.3516	1406.504	1420.0301	1427.6377	1464.1967	1483.0694	1486.6789	1493.6794	1498.9257	1505.2835	1508.79	1531.7391	3007.9618	3010.3893	3023.4804	3031.8048	3038.149	3057.4418	3074.1523	3087.9856	3093.5837	3098.188	3102.3018	3122.7981	3123.9476	3158.196
CC(C)CC1(C)CO1	CC(C)C[C@@]1(C)CO1	
InChI=1S/C7H14O/c1-6(2)4-7(3)5-8-7/h6H,4-5H2,1-3H3	InChI=1S/C7H14O/c1-6(2)4-7(3)5-8-7/h6H,4-5H2,1-3H3/t7-/m0/s1
