19
gdb 95100	2.47329	1.55881	1.1788	0.903	82.23	-0.2429	0.0449	0.2879	1108.1639	0.158767	-385.858086	-385.849605	-385.848661	-385.890739	33.237	
C	 0.0493251986	 1.5606829298	-0.053816998	-0.408305
C	 0.0552318878	 0.0447817917	 0.0332261787	 0.063562
O	 0.7655551198	-0.4839507406	-1.0851733079	-0.272282
C	 1.2021495009	-1.7988331959	-0.7591076567	-0.098993
C	 1.5255160513	-1.7596369859	 0.7237074408	-0.116616
C	 2.2792922154	-0.5516798199	 1.1953567658	-0.328172
C	 0.7590661496	-0.55704033	 1.2608151552	 0.177787
C	 0.0739887077	-0.5551281692	 2.5147961355	 0.17523
C	-0.5275698088	-0.5284913988	 3.5569027567	-0.391666
H	 1.0685024436	 1.9560183806	-0.023312876	 0.121166
H	-0.4202749454	 1.8850620666	-0.9863928244	 0.125859
H	-0.5146831353	 1.9802885858	 0.784120158	 0.128153
H	-0.982295438	-0.3290357107	 0.0336026017	 0.072146
H	 0.4139451107	-2.5434629258	-0.9549889176	 0.09687
H	 2.0606077126	-2.0255744556	-1.3999636989	 0.111634
H	 1.5700055977	-2.6836180646	 1.2867133355	 0.104733
H	 2.8010864073	-0.6230760248	 2.1417800357	 0.125517
H	 2.7464560201	 0.0859473157	 0.4519330698	 0.128041
H	-1.0508397155	-0.5106737284	 4.4804176261	 0.185336
116.428	143.7883	189.0075	219.6895	261.3458	325.7954	373.2306	469.2391	507.3788	521.8566	572.1447	588.9216	650.2183	657.9168	717.9774	832.7287	866.5046	893.535	911.0212	945.3555	1001.9503	1055.0884	1072.2145	1087.5584	1088.1455	1119.3324	1121.1502	1152.3271	1231.7184	1253.7258	1260.1736	1331.8476	1367.0351	1386.0682	1403.7703	1411.3995	1476.8378	1486.6818	1495.3858	1514.8195	2234.6136	2962.9246	2978.3145	3046.4537	3070.0958	3122.8916	3123.5321	3138.1485	3194.82	3233.7596	3503.6783
CC1OCC2CC12C#C	C[C@H]1OC[C@H]2C[C@@]12C#C	
InChI=1S/C8H10O/c1-3-8-4-7(8)5-9-6(8)2/h1,6-7H,4-5H2,2H3	InChI=1S/C8H10O/c1-3-8-4-7(8)5-9-6(8)2/h1,6-7H,4-5H2,2H3/t6-,7-,8+/m1/s1
