18
gdb 55702	3.00931	1.10899	0.98653	5.7708	67.72	-0.2542	0.0173	0.2715	1228.8072	0.147779	-476.231802	-476.2231	-476.222156	-476.266011	32.016	
N	-0.0685338724	 0.9483653445	-0.1038792336	-0.56944
H	-0.034681404	-0.0650552466	-0.1556230166	 0.24744
H	 0.8804969764	 1.2922728585	-0.2280369134	 0.246345
H	-1.2047288332	 2.0013405795	-1.0213684869	 0.314972
C	-0.6254181559	 1.3990102548	 1.1732438521	 0.213108
C	-0.8135114915	 2.9184685992	 1.1331760126	-0.386956
C	-1.8095793704	 3.4333176121	 0.0813162555	 0.403806
O	-1.840917018	 2.7568813022	-1.0754106661	-0.373873
O	-2.5038024066	 4.3947855208	 0.277788134	-0.327424
C	-1.8791746321	 0.6142341708	 1.6355672578	-0.098261
O	-1.2863910937	 0.3463525015	 2.9200962192	-0.264375
C	-0.0132595283	 0.8674114977	 2.4993612731	-0.112605
H	-1.1605616179	 3.2833740527	 2.1015074049	 0.148287
H	 0.1551654342	 3.4016357203	 0.941255152	 0.124937
H	-2.8133143951	 1.1801195828	 1.7163216644	 0.132279
H	-2.0664385191	-0.3058967439	 1.0636136932	 0.099696
H	 0.7336638441	 0.0732696174	 2.3536537385	 0.090607
H	 0.3836445236	 1.6117564957	 3.1994878795	 0.111458
62.8757	80.1704	94.3244	214.3468	307.8707	345.564	358.2557	402.638	415.8378	483.4819	572.5127	651.268	741.3957	848.1417	867.3908	878.7111	926.6392	937.4154	957.6856	993.9586	999.8125	1040.3904	1048.3498	1111.4798	1148.2619	1156.1146	1163.9454	1272.1242	1297.3107	1306.7236	1319.5748	1351.9929	1395.4661	1462.6916	1478.7832	1506.4208	1531.2664	1646.6562	1860.9108	2989.5102	3003.6803	3021.0059	3058.3597	3072.9718	3121.4313	3304.8541	3486.3908	3570.465
[NH3+]C1(CC([O-])=O)COC1	NC1(CC(=O)O)COC1	
InChI=1S/C5H9NO3/c6-5(1-4(7)8)2-9-3-5/h1-3,6H2,(H,7,8)	InChI=1S/C5H9NO3/c6-5(1-4(7)8)2-9-3-5/h1-3,6H2,(H,7,8)
