19
gdb 56023	3.53456	0.98726	0.88599	2.0934	72.04	-0.2409	-0.0112	0.2297	1347.559	0.158286	-460.181042	-460.171816	-460.170872	-460.216651	32.364	
C	 0.9335682428	 0.8232869752	 0.0602278048	-0.479297
C	-0.325675412	-0.0097319595	-0.0264995097	 0.39498
O	-1.1892382421	 0.0125147161	 0.8202132263	-0.310936
C	-0.451189798	-0.942513021	-1.2330202476	-0.304608
C	-0.0680820001	-2.3759049637	-0.8406047249	 0.118826
C	-0.0961058087	-3.3804319115	-2.0155534934	-0.138892
O	 1.2631893605	-3.4552303439	-2.4198148703	-0.229425
C	 1.9808894254	-3.3522692411	-1.2201423135	 0.022071
O	 1.3023569442	-2.4057293986	-0.4163926111	-0.272099
H	 1.80055676	 0.1552239201	 0.0169569428	 0.156906
H	 1.002934901	 1.495473577	-0.8031714047	 0.134367
H	 0.9432862369	 1.4039117493	 0.9833551414	 0.136931
H	-1.4992232931	-0.9362165312	-1.5491114951	 0.122195
H	 0.1818705052	-0.6212150373	-2.0660784356	 0.109439
H	-0.7090373504	-2.7036069014	-0.0140657908	 0.104442
H	-0.4605122376	-4.3633538057	-1.6813649725	 0.102744
H	-0.6928505325	-3.0468630769	-2.866572677	 0.123008
H	 2.0227445804	-4.3268627362	-0.7003616773	 0.087748
H	 2.9918936982	-2.9952962096	-1.4362917718	 0.121601
41.34	56.3211	87.9336	143.1551	174.8038	253.2696	316.9128	370.214	409.2478	528.7069	592.4186	735.2252	745.313	800.1119	842.9851	892.052	943.2021	977.541	1001.6667	1016.5281	1058.7182	1067.7369	1113.6949	1129.4092	1180.1312	1182.4934	1210.2784	1246.0957	1270.8781	1297.1637	1336.8977	1360.6068	1376.4708	1386.129	1433.8938	1460.8667	1471.8175	1475.1432	1510.7566	1544.8669	1813.0095	2937.7271	2994.2993	3034.7165	3044.4408	3049.1965	3087.5214	3100.0554	3107.4864	3114.1907	3154.006
CC(=O)CC1COCO1	CC(=O)C[C@H]1COCO1	
InChI=1S/C6H10O3/c1-5(7)2-6-3-8-4-9-6/h6H,2-4H2,1H3	InChI=1S/C6H10O3/c1-5(7)2-6-3-8-4-9-6/h6H,2-4H2,1H3/t6-/m0/s1
