18
gdb 41267	3.41537	1.95122	1.52391	0.504	74.22	-0.2063	0.0586	0.2649	889.5542	0.149934	-401.849051	-401.842821	-401.841877	-401.879218	26.761	
C	-0.0019420863	 1.4845423896	 0.1663222812	-0.25887
C	 1.5178111501	 1.6046602294	-0.2377356256	-0.346867
C	 1.3594015645	 0.201496991	-0.7880867404	 0.480045
O	 2.2798694401	-0.8577315379	-1.0635535577	-0.350931
C	 1.3007685602	-1.4444602393	-1.9704370286	 0.067742
C	 0.062426121	-2.0682438998	-1.2759327566	-0.192979
N	-0.624356943	-0.721680142	-1.111604206	-0.172924
C	 0.0875695939	-0.072625183	 0.036427957	-0.032388
C	 0.4803439874	-0.1425391169	-2.0171789303	-0.117566
H	-0.2567786282	 1.8555407098	 1.1592277373	 0.112617
H	-0.6805275589	 1.9293654133	-0.5644165875	 0.120654
H	 1.8192507569	 2.4034445778	-0.9200591728	 0.104708
H	 2.1577186266	 1.6275391893	 0.6496716993	 0.11783
H	 1.7772699156	-1.9643393575	-2.8018880039	 0.087081
H	-0.5131004733	-2.6784692212	-1.9787956721	 0.113803
H	 0.2226907796	-2.6282344241	-0.3500566068	 0.111698
H	 0.0700083204	-0.6243091645	 0.9786776798	 0.073964
H	 0.2485193534	 0.4813159861	-2.8780698761	 0.082383
225.9963	264.8029	354.405	372.8364	428.0439	546.7795	642.5071	713.2186	753.2072	785.5118	824.7701	853.5781	865.4875	884.882	889.1073	902.4696	933.7932	953.8175	990.0619	1026.9856	1040.7389	1094.7548	1096.9599	1115.7491	1153.4497	1175.5408	1190.9508	1196.5129	1212.9009	1218.7952	1241.3566	1265.8805	1294.3642	1313.9809	1330.5569	1342.3423	1474.9628	1476.3228	1494.4344	3045.8602	3055.3628	3080.8411	3088.2036	3104.0933	3108.082	3109.0974	3136.1551	3142.7675
C1CC23OC4CN(C12)C34	C1C[C@@]23O[C@H]4CN([C@H]12)[C@@H]34	
InChI=1S/C7H9NO/c1-2-7-5(1)8-3-4(9-7)6(7)8/h4-6H,1-3H2	InChI=1S/C7H9NO/c1-2-7-5(1)8-3-4(9-7)6(7)8/h4-6H,1-3H2/t4-,5+,6+,7+/m0/s1
