19
gdb 38964	2.83418	1.8101	1.4995	2.2825	73.18	-0.2395	0.0801	0.3196	944.1278	0.162484	-423.027941	-423.02101	-423.020065	-423.05946	27.923	
C	-0.0993752205	 1.3399815783	-0.0329441537	-0.072116
C	 1.3019649641	 1.9473168549	 0.1118027699	-0.230813
C	 2.1433454327	 0.7422178036	 0.5777367897	-0.082122
C	 2.1781624006	 0.5207676063	 2.0794707912	 0.030973
O	 0.874215534	 0.3774948663	 2.6660911809	-0.254334
C	 1.6445211069	-0.8062582694	 2.4146953145	 0.043175
C	 1.243570726	-1.5320504431	 1.1487461235	-0.262511
C	 1.3632513663	-0.4855839725	 0.0062031484	 0.10974
O	 0.1064320889	-0.0057659251	-0.4579453327	-0.269552
H	-0.6317219478	 1.3642503112	 0.9247472466	 0.114355
H	-0.7099622777	 1.8364830574	-0.7934307814	 0.097276
H	 1.665410077	 2.3070771419	-0.8557076116	 0.103702
H	 1.3272560569	 2.7822512585	 0.8169390402	 0.106327
H	 3.168562466	 0.7875730997	 0.1983131792	 0.076242
H	 2.9060251064	 1.0419760727	 2.69754779	 0.092415
H	 1.945051038	-1.3552062195	 3.3041737845	 0.094132
H	 1.9246673002	-2.373868724	 0.9781309414	 0.098859
H	 0.2255285963	-1.9287793715	 1.1938681342	 0.125781
H	 1.8683343758	-0.9301588354	-0.8583357047	 0.078472
72.9056	205.6183	235.8352	347.5125	385.0599	482.1643	581.3765	655.9509	678.5303	771.8286	806.6758	835.0014	860.5663	877.3561	906.5019	918.6504	947.3842	976.4061	1015.0832	1035.2283	1036.1862	1054.6541	1103.5916	1118.77	1130.0118	1190.4999	1221.1166	1227.547	1243.3526	1262.2445	1286.3248	1320.8946	1321.5279	1340.3869	1368.5825	1376.976	1404.838	1436.3099	1469.0659	1488.3595	1519.1105	3030.2574	3036.0128	3048.0429	3051.3993	3069.0903	3082.8916	3101.4997	3107.847	3133.0293	3146.3831
C1CC2C3OC3CC2O1	C1C[C@H]2[C@H]3O[C@H]3C[C@H]2O1	
InChI=1S/C7H10O2/c1-2-8-5-3-6-7(9-6)4(1)5/h4-7H,1-3H2	InChI=1S/C7H10O2/c1-2-8-5-3-6-7(9-6)4(1)5/h4-7H,1-3H2/t4-,5-,6+,7-/m1/s1
