18
gdb 98703	2.97756	1.07802	0.90514	3.1409	79.92	-0.2476	0.0064	0.254	1342.8245	0.144659	-401.915164	-401.905412	-401.904468	-401.95064	34.73	
C	-0.0986624423	 1.3773879083	 0.4526220256	-0.372145
C	-0.1558558572	-0.1136118204	 0.1281139077	-0.288093
C	-1.5813925016	-0.647122072	 0.0777048684	 0.400339
O	-2.5490743082	-0.0256795402	 0.4474598748	-0.332801
N	-1.6971049133	-1.90458116	-0.5255041248	-0.092317
C	-0.9969110426	-3.1169315732	-0.1861398262	-0.253672
C	-2.5032273394	-3.0137500144	-0.0471481755	-0.193028
C	-3.0910880536	-2.9941069679	 1.2648930393	 0.354618
C	-3.5948372456	-3.0106529877	 2.3555821655	-0.449109
H	 0.9387344492	 1.716122904	 0.5234090693	 0.108012
H	-0.6018974839	 1.9647840402	-0.3199402913	 0.130626
H	-0.6016450999	 1.5861939408	 1.3993107549	 0.137814
H	 0.3359477145	-0.3402797658	-0.8250286683	 0.124684
H	 0.3896287346	-0.6934352664	 0.8857064049	 0.121881
H	-0.5737528128	-3.6814002574	-1.0133904066	 0.130686
H	-0.4279233852	-3.1463022771	 0.740014545	 0.137452
H	-3.1127363943	-3.4822074653	-0.8168215325	 0.129034
H	-4.0451424784	-3.0039755954	 3.3174228999	 0.206019
46.9768	67.2775	101.5215	168.1108	195.1719	223.4826	250.1928	286.6799	406.3891	506.5161	529.2801	570.1512	618.158	654.4457	672.0339	731.2698	811.3928	820.0339	908.612	995.8088	1012.3627	1049.3129	1083.016	1095.6001	1110.9973	1124.8886	1149.5344	1162.325	1282.269	1340.3417	1374.5947	1409.9948	1414.4588	1458.8434	1492.2534	1499.9611	1506.2544	1801.3275	2244.123	3020.9165	3052.1999	3064.0203	3101.4192	3121.6445	3131.1955	3134.0774	3193.153	3503.1771
CCC(=O)N1CC1C#C	CCC(=O)N1C[C@H]1C#C	
InChI=1S/C7H9NO/c1-3-6-5-8(6)7(9)4-2/h1,6H,4-5H2,2H3	InChI=1S/C7H9NO/c1-3-6-5-8(6)7(9)4-2/h1,6H,4-5H2,2H3/t6-,8?/m1/s1
