21
gdb 73838	2.558	1.7488	1.25863	0.1184	88.3	-0.2015	0.0313	0.2328	1087.4577	0.183316	-349.941877	-349.933699	-349.932755	-349.974151	32.639	
C	 0.0868934903	 1.4906772812	 0.1272748108	-0.507663
C	-0.0307958518	 0.0053675716	-0.0065559869	 0.229198
C	-0.1076713251	-0.747298872	-1.1178809541	 0.208418
C	-0.0605339025	-0.33075094	-2.5533499552	-0.503354
C	-0.036952466	-2.2101160866	-0.7142792217	-0.137477
C	 1.4261730453	-2.4777294285	-0.1773717492	-0.230364
C	 0.9299092471	-2.116457614	 1.217324909	-0.069227
C	-0.5090845426	-2.2552674816	 0.7751025582	-0.075739
C	-0.0279687616	-0.8962402177	 1.189913994	-0.121068
H	 1.0439495368	 1.7746543918	 0.584351462	 0.125442
H	 0.0151500149	 2.0000324929	-0.8372358951	 0.120389
H	-0.6993372474	 1.8949055319	 0.7782910682	 0.120679
H	-0.0619769778	 0.7562173474	-2.6707479606	 0.120163
H	 0.8381215202	-0.7163006325	-3.0538715515	 0.123009
H	-0.9187672822	-0.729625876	-3.1099503591	 0.12047
H	-0.4307655746	-2.9308597066	-1.4311116443	 0.059324
H	 1.6701840919	-3.5423665147	-0.2268473475	 0.098631
H	 2.2373234617	-1.8930763569	-0.6261064608	 0.085926
H	 1.38780151	-2.4143977049	 2.1534821795	 0.080368
H	-1.3414310553	-2.8003020753	 1.2036878502	 0.080007
H	-0.2957477112	-0.5115351795	 2.1687196141	 0.072869
147.0953	161.9027	175.1352	179.4572	272.1376	328.1468	398.6375	472.7895	588.9087	601.5522	606.505	752.9584	771.2338	785.263	799.005	863.4757	882.1257	935.8745	970.1339	978.0554	989.111	1005.5322	1036.7214	1051.8028	1057.1515	1070.8727	1084.4158	1133.5746	1141.8486	1190.6841	1194.9011	1216.9319	1230.3339	1274.0379	1316.669	1342.1074	1383.8056	1409.5081	1420.2638	1477.5303	1480.0319	1488.1559	1489.2574	1493.9802	1720.4212	3008.4986	3012.8983	3032.1756	3049.341	3054.1984	3093.7565	3105.0932	3107.9176	3110.5434	3163.0407	3171.9152	3186.8735
CC1=C(C)C2CC3C2C13	CC1=C(C)[C@H]2C[C@@H]3[C@H]2[C@H]13	
InChI=1S/C9H12/c1-4-5(2)8-7-3-6(4)9(7)8/h6-9H,3H2,1-2H3	InChI=1S/C9H12/c1-4-5(2)8-7-3-6(4)9(7)8/h6-9H,3H2,1-2H3/t6-,7+,8-,9+/m1/s1
