13
gdb 18180	4.85858	1.74989	1.39901	5.224	64.62	-0.2696	-0.066	0.2037	840.4245	0.097596	-357.630914	-357.624663	-357.623718	-357.661356	23.364	
N	 0.0817255456	-1.1017078138	 0.0511987661	-0.314184
C	 0.0105609243	 0.0516023905	 0.0329889776	 0.288001
C	-0.0471326954	 1.4871708326	 0.0217273928	 0.236809
N	-1.143823632	 2.1338386384	 0.0964525703	-0.251252
C	-0.7948228672	 3.5647980134	 0.0532988516	-0.197512
C	 0.7332709828	 3.605150279	 0.0336847246	-0.038942
C	 1.4680713467	 2.961297528	 1.146733073	-0.248074
N	 1.1885224607	 2.1952993824	-0.1025765886	-0.152197
H	-1.2219714721	 4.00705728	-0.8537737178	 0.139233
H	-1.2501308227	 4.0772462639	 0.9074280774	 0.13724
H	 1.2413027499	 4.3254504587	-0.5978340064	 0.118705
H	 2.518058729	 3.1833030132	 1.3032687218	 0.141175
H	 0.9145588005	 2.6729431737	 2.0365083175	 0.140998
136.3457	177.9521	285.6065	357.8364	437.9027	539.2444	561.6428	718.3738	745.6975	787.5246	830.1994	878.2172	927.2113	983.8508	994.1501	1079.9048	1087.1974	1114.3079	1159.1408	1198.8352	1207.9098	1271.6063	1335.5676	1373.0085	1479.3166	1501.5472	1666.1267	2364.1501	3045.5873	3079.1958	3120.0157	3177.4557	3217.2067
N#CC1=NCC2CN12	N#CC1=NC[C@H]2CN12	
InChI=1S/C5H5N3/c6-1-5-7-2-4-3-8(4)5/h4H,2-3H2	InChI=1S/C5H5N3/c6-1-5-7-2-4-3-8(4)5/h4H,2-3H2/t4-,8?/m0/s1
