18
gdb 31517	3.22439	1.08084	0.86057	0.8017	77.72	-0.174	0.0357	0.2097	1360.7081	0.146816	-439.112051	-439.102453	-439.101509	-439.146746	34.765	
C	-0.2890348466	 1.508358797	-0.1586024222	-0.369712
C	 0.1318745376	 0.0397367954	 0.0272783736	-0.292118
C	 0.901785354	-0.5101538978	-1.1216772402	 0.37706
C	 2.1725060034	-0.9662380007	-1.2759347214	-0.400929
C	 2.3091513926	-1.3306432098	-2.6596543403	 0.195628
O	 3.4222589215	-1.7717422187	-3.3360727079	-0.457219
C	 1.106500213	-1.0796434502	-3.2470587716	 0.275103
N	 0.6150657167	-1.3040028463	-4.5303406163	-0.602884
O	 0.2398856913	-0.5793201158	-2.3273125064	-0.210067
H	 0.5872410647	 2.1547242509	-0.2674176961	 0.119299
H	-0.9047555953	 1.6225537341	-1.0550521731	 0.12883
H	-0.8699519433	 1.8579164624	 0.7005018201	 0.109993
H	 0.7539121973	-0.0619981046	 0.9226422183	 0.110145
H	-0.7652574232	-0.5704445405	 0.1996872429	 0.112879
H	 2.9306206109	-1.0218498059	-0.509487476	 0.102341
H	 3.7817691665	-2.5369350915	-2.875623113	 0.296451
H	 1.3589175378	-1.6594978464	-5.119521636	 0.256178
H	 0.227648081	-0.4662623416	-4.9536432046	 0.249021
55.6315	115.5461	120.1911	199.1458	229.8406	257.9506	271.0569	283.2976	306.4034	404.5015	514.656	585.0571	653.3231	661.8614	681.6631	780.2466	788.469	793.3696	839.5066	947.6404	991.232	1059.5578	1084.3314	1094.2415	1160.7024	1165.5374	1250.6683	1299.1106	1319.4275	1336.8075	1360.1487	1405.045	1455.7768	1473.9384	1496.1737	1507.3396	1620.3528	1639.9621	1720.4926	3013.4785	3039.3727	3074.6518	3110.1278	3120.2562	3247.0057	3500.2849	3604.2247	3805.0548
CCC1=CC(O)=C(N)O1	CCc1cc(O)c(N)o1	
InChI=1S/C6H9NO2/c1-2-4-3-5(8)6(7)9-4/h3,8H,2,7H2,1H3	InChI=1S/C6H9NO2/c1-2-4-3-5(8)6(7)9-4/h3,8H,2,7H2,1H3
