21
gdb 98862	3.62527	0.98979	0.90397	2.2299	84.55	-0.2266	-0.0123	0.2144	1401.1334	0.182124	-387.129767	-387.120295	-387.119351	-387.16547	34.267	
C	-0.0937754519	 1.4984122939	-0.5648964586	-0.376932
C	-0.1365915984	 0.029068517	-0.1533547728	-0.281372
C	-1.5456304551	-0.5428265058	-0.064973711	 0.37846
O	-2.5274525252	 0.152386423	-0.1913820678	-0.305138
C	-1.6494806159	-2.0568112725	 0.1846387482	-0.13305
C	-3.0714302164	-2.5116159282	 0.600305421	-0.227721
C	-3.7133281643	-3.1342788542	-0.6684208559	-0.247879
C	-2.5343876446	-3.363706405	-1.5803995874	-0.045887
C	-1.4178996829	-2.8019414485	-1.1220139776	-0.083459
H	 0.9355267843	 1.8677218771	-0.5790518786	 0.108232
H	-0.5242980617	 1.6379429375	-1.5601308926	 0.129032
H	-0.674966504	 2.111871785	 0.1276380108	 0.133639
H	 0.4503055755	-0.5967776266	-0.8385924142	 0.11992
H	 0.3305573018	-0.1180771283	 0.8314202269	 0.12252
H	-0.8881807987	-2.3231876589	 0.9297004944	 0.079642
H	-2.9921330202	-3.2667851155	 1.3870270678	 0.097602
H	-3.6531496314	-1.6744758683	 0.9878993854	 0.12072
H	-4.2582512815	-4.059420888	-0.4479393932	 0.101833
H	-4.4366964386	-2.4540360141	-1.1361451152	 0.120836
H	-2.6120279571	-3.913812353	-2.512158956	 0.094903
H	-0.4539253138	-2.8211192367	-1.6179661837	 0.094098
45.1999	52.3857	65.4112	171.7751	198.4921	213.4285	309.52	354.3099	413.0825	552.2727	599.2921	708.7846	725.5755	765.7437	788.6975	818.8343	867.9727	904.4724	921.7572	971.7939	982.5326	996.2586	1020.5716	1052.3807	1076.147	1095.0275	1130.4766	1135.1339	1178.373	1220.7351	1268.6033	1279.5847	1301.2621	1316.8174	1344.9225	1372.0515	1375.4599	1412.753	1449.9948	1472.2277	1492.3943	1492.4944	1498.2779	1683.2477	1805.3018	3010.0889	3019.1068	3025.6969	3046.1596	3050.8972	3052.0787	3070.9122	3120.3001	3129.1083	3129.7678	3180.7148	3206.64
CCC(=O)C1CCC=C1	CCC(=O)[C@H]1CCC=C1	
InChI=1S/C8H12O/c1-2-8(9)7-5-3-4-6-7/h3,5,7H,2,4,6H2,1H3	InChI=1S/C8H12O/c1-2-8(9)7-5-3-4-6-7/h3,5,7H,2,4,6H2,1H3/t7-/m1/s1
