16
gdb 49528	4.56681	1.0547	0.95552	2.6575	71.08	-0.2385	-0.0264	0.2122	1199.3638	0.123845	-437.783548	-437.776036	-437.775092	-437.815873	28.44	
O	-0.0746053936	-0.0570234273	-0.1773478194	-0.260756
C	-0.0369856346	 1.1250631369	 0.0668221138	 0.129668
C	 1.2466758629	 1.9077644392	 0.041803402	-0.054094
C	 1.2343796002	 3.3306827767	-0.6097313909	-0.168679
N	 0.3825636829	 3.7845650593	 0.5717119934	-0.332505
C	 1.5020842106	 2.9477826235	 1.1831978112	-0.16855
C	 2.4925142324	 3.6286192704	 0.2233892705	 0.555146
C	 3.9301226302	 3.7397810409	 0.0325345128	-0.310186
O	 3.0986560385	 4.8759113959	 0.3992893833	-0.297781
H	-0.9452785265	 1.700517314	 0.3228794796	 0.110954
H	 2.0850773987	 1.2608140929	-0.2213765285	 0.09373
H	 0.9922586741	 3.5939796371	-1.6390152651	 0.104017
H	 0.5663625834	 4.7746381961	 0.7557188968	 0.233483
H	 1.5735594021	 2.7622696891	 2.2545709158	 0.104055
H	 4.6141120739	 3.4053737835	 0.8101835858	 0.130752
H	 4.3482098249	 3.7858264917	-0.9712035809	 0.130747
84.3944	130.7773	225.7005	286.0377	288.2715	399.3524	413.3012	486.897	609.3033	700.563	741.2287	790.6888	861.7783	863.5893	887.43	961.8915	1008.1392	1037.0684	1071.9293	1105.6954	1108.461	1117.7802	1131.2267	1142.8578	1151.4813	1186.2512	1189.6258	1218.8395	1272.8511	1286.483	1337.5725	1415.4314	1456.5971	1552.2397	1811.9812	2971.6213	3093.7193	3111.6178	3126.4321	3130.0231	3183.2895	3411.1437
O=CC1C2NC1C21CO1	O=C[C@H]1[C@H]2N[C@@H]1[C@]12CO1	
InChI=1S/C6H7NO2/c8-1-3-4-6(2-9-6)5(3)7-4/h1,3-5,7H,2H2	InChI=1S/C6H7NO2/c8-1-3-4-6(2-9-6)5(3)7-4/h1,3-5,7H,2H2/t3-,4+,5-,6+
