17
gdb 20100	4.92606	1.55564	1.40457	1.4507	68.7	-0.2275	0.0729	0.3003	921.7267	0.143125	-363.785528	-363.778514	-363.777569	-363.816982	26.924	
C	 0.3136807027	 1.5309092821	 0.1978696159	-0.228543
N	 1.1935735369	 0.4307865741	-0.2244766006	-0.314694
C	-0.2152919324	 0.1432876086	 0.093500083	-0.153695
C	-0.4537743015	-0.6914436812	 1.2925653874	 0.531655
C	 0.5163589835	-0.9913758792	 2.3882740487	-0.338942
C	-0.1550902174	-2.1353193814	 1.6495549121	-0.191878
C	-1.619966297	-2.1968227694	 2.0596679518	-0.090172
O	-1.8048923736	-0.7821349207	 1.7730839193	-0.332923
H	 0.5405375002	 1.9396291546	 1.1779257663	 0.125694
H	-0.0111086609	 2.2585152781	-0.5408073759	 0.114993
H	 1.3180858116	 0.4494030738	-1.2326853613	 0.236568
H	-0.894019843	-0.0580444848	-0.7331783529	 0.088072
H	 1.5576664521	-0.839607652	 2.1259259547	 0.137545
H	 0.2458312159	-0.7673154394	 3.4171795685	 0.106962
H	 0.3941954711	-2.8944648238	 1.1098733656	 0.101231
H	-2.2421995781	-2.8063426794	 1.3944098461	 0.105814
H	-1.84845227	-2.4404033897	 3.1044056413	 0.102314
71.7737	168.6976	198.7648	307.5033	401.1574	424.5992	487.6379	659.8319	755.0941	831.7218	854.2656	877.7413	905.1216	939.4267	951.8646	962.2666	978.0364	995.136	1000.9166	1025.4447	1074.0612	1105.9208	1116.5263	1134.0724	1148.1705	1176.0454	1197.6089	1241.1633	1271.713	1287.2583	1336.1415	1381.3842	1448.6297	1496.9081	1508.7057	1523.1066	3020.353	3067.8326	3113.0328	3113.1963	3125.0607	3202.7431	3204.6269	3220.4824	3512.8973
C1NC1C12CC1CO2	C1N[C@H]1[C@]12C[C@H]1CO2	
InChI=1S/C6H9NO/c1-4-3-8-6(1,4)5-2-7-5/h4-5,7H,1-3H2	InChI=1S/C6H9NO/c1-4-3-8-6(1,4)5-2-7-5/h4-5,7H,1-3H2/t4-,5+,6-/m0/s1
