15
gdb 130233	3.19782	1.42377	0.98678	4.0596	76.31	-0.2053	-0.0368	0.1685	1125.3457	0.113936	-450.123867	-450.115767	-450.114823	-450.156156	31.433	
N	 0.0445631202	 1.3083222308	-0.1985039997	-0.580512
C	-0.024539829	-0.0376155657	-0.0934565445	 0.320868
C	-1.1441021893	-0.8041947691	-0.0439163628	-0.289521
C	-0.9955451809	-2.229150819	 0.014646296	 0.405761
N	-2.1440965186	-3.0097201544	 0.1152927755	-0.564498
N	 0.132448082	-2.8750494205	 0.0240352617	-0.217095
O	 1.2964235997	-2.0643950008	 0.0454588716	-0.284069
C	 1.283642177	-0.7148684451	-0.0320298882	 0.400533
N	 2.3539169904	-0.0200120589	-0.0326819396	-0.564221
H	 0.9633158032	 1.7092698459	-0.0756063314	 0.282733
H	-0.7698008473	 1.8781605669	-0.0525349798	 0.260075
H	-2.1379206956	-0.3711622953	-0.0379797368	 0.091559
H	-2.9047915166	-2.703232727	-0.4756526714	 0.250973
H	-1.946971589	-3.9952754638	-0.0047019495	 0.258481
H	 3.1794499239	-0.6154511141	 0.0254105689	 0.228931
100.7893	170.7314	268.3841	293.955	325.1212	348.8748	374.9619	432.1553	472.1173	507.4636	555.9783	580.719	633.8898	700.7432	739.168	772.5198	811.0733	834.6161	845.8584	926.4229	1020.7314	1097.1073	1115.923	1164.919	1257.5091	1300.9341	1449.6473	1472.0043	1591.2587	1620.4464	1647.3533	1682.4413	1720.695	3188.481	3500.0485	3544.3647	3573.1657	3647.0393	3722.4263
NC1=CC(N)=NOC1=N	NC1=C(ON=C([CH]1)N)[NH]	
InChI=1S/C4H6N4O/c5-2-1-3(6)8-9-4(2)7/h1,7H,5H2,(H2,6,8)	InChI=1S/C4H6N4O/c5-2-1-3(6)8-9-4(2)7/h1,7H,5H2,(H2,6,8)
