24
gdb 102613	1.60718	1.28454	0.85126	3.3564	86.93	-0.2393	0.0386	0.278	1525.8267	0.21475	-405.602871	-405.590983	-405.590038	-405.642435	41.21	
C	 0.1134284506	 1.5894743547	-0.2143174871	-0.383077
C	 0.0931180627	 0.0630076516	-0.1088614191	-0.17865
C	 0.7340103706	-0.6580688132	-1.307946306	 0.040754
C	 0.7962870787	-2.1798048701	-1.0866995261	-0.178657
C	 1.5339635116	-2.941661153	-2.1898977743	-0.383075
N	 0.0367315358	-0.3354145431	-2.5494082508	-0.307406
C	 0.6233594011	 0.307908316	-3.6033015695	 0.411413
C	-0.2854305253	 0.5452529298	-4.801813559	-0.485409
O	 1.7863774436	 0.6707742972	-3.5991819663	-0.378016
H	 1.1380380409	 1.9654502502	-0.3000885186	 0.127884
H	-0.4375143685	 1.9335246006	-1.0945806668	 0.115587
H	-0.3424253593	 2.0491347104	 0.6679027628	 0.109904
H	 0.6237269836	-0.2515359056	 0.7979322804	 0.099725
H	-0.9416431511	-0.2900309302	 0.0101789786	 0.084249
H	 1.7491450245	-0.2754629245	-1.455535086	 0.120399
H	 1.2853276296	-2.3615468654	-0.122040965	 0.099728
H	-0.2271347493	-2.5689865776	-0.9833440282	 0.084251
H	 1.5586834606	-4.0144848953	-1.9757929731	 0.109905
H	 1.0476229399	-2.8041426242	-3.1601219932	 0.115576
H	 2.5669757443	-2.5925323775	-2.287543194	 0.127889
H	-0.9311890228	-0.6047236273	-2.6279051669	 0.236486
H	-1.3036553394	 0.1695843346	-4.669355862	 0.106967
H	-0.3257458621	 1.6188794893	-5.0035658456	 0.151791
H	 0.1590026497	 0.0668265926	-5.6785239843	 0.151784
22.0472	27.2485	72.1463	86.9012	112.7207	150.884	194.6957	238.7086	242.4004	310.7125	354.0595	422.9125	437.9288	462.6759	518.0993	601.5608	636.7183	774.5639	790.1017	869.2078	932.4752	933.9114	983.1009	1022.7177	1030.3929	1043.9197	1049.8633	1070.9183	1124.3381	1172.0047	1183.4638	1251.3518	1279.094	1310.6172	1313.633	1373.3171	1379.2675	1390.0856	1396.5107	1410.9512	1415.4073	1470.3044	1477.8903	1481.8365	1487.8476	1496.9568	1497.1124	1506.1859	1507.1328	1534.0831	1776.4356	3001.0561	3006.5023	3038.7787	3039.5053	3047.5002	3047.8121	3054.0389	3079.2648	3107.0313	3107.3578	3111.1059	3112.287	3125.987	3127.5195	3629.1021
CCC(CC)NC(C)=O	CCC(CC)NC(=O)C	
InChI=1S/C7H15NO/c1-4-7(5-2)8-6(3)9/h7H,4-5H2,1-3H3,(H,8,9)	InChI=1S/C7H15NO/c1-4-7(5-2)8-6(3)9/h7H,4-5H2,1-3H3,(H,8,9)
