16
gdb 45303	3.59397	1.49479	1.25909	4.5415	70.62	-0.2484	-0.0062	0.2422	997.2064	0.127034	-437.922411	-437.915604	-437.914659	-437.954086	26.467	
N	 0.1550781122	 1.3493658937	 0.1953629405	-0.574054
C	 0.1235896977	 0.1047218437	 0.0214350988	 0.48425
O	-0.9293390049	-0.5129559824	-0.5651600055	-0.239338
C	-0.7488220461	-1.9314551721	-0.5742882391	 0.074252
C	-0.829300021	-2.4879181864	-2.0084907942	-0.28512
C	 0.6182640888	-2.6762912714	-2.3933275911	-0.055787
C	 1.4555579361	-2.4745605415	-1.3774085651	-0.09756
C	 0.722344436	-2.099038855	-0.1172080116	 0.040294
O	 1.0791427165	-0.798728838	 0.3808374381	-0.261486
H	 1.035059118	 1.6167330659	 0.6294096676	 0.22959
H	-1.4825223825	-2.3753702416	 0.1034872762	 0.099108
H	-1.3796544316	-3.4364875324	-2.0352263845	 0.118779
H	-1.3635732891	-1.7911771548	-2.6624001838	 0.139255
H	 0.9156602412	-2.9614234047	-3.3964479998	 0.111226
H	 2.5346305608	-2.5608605048	-1.4081709996	 0.113263
H	 0.8689693079	-2.8063025181	 0.7039980531	 0.10333
92.1349	101.6851	279.3283	343.2866	459.9287	504.2001	622.3171	682.7636	715.455	758.3084	789.8067	799.7752	838.8099	880.0532	904.7985	939.7371	958.8893	984.7285	1009.99	1030.524	1057.5877	1073.8841	1103.5685	1132.8277	1207.9537	1250.8027	1270.9285	1316.8788	1338.5308	1352.9906	1386.2363	1401.5472	1471.8913	1684.3887	1796.8455	3035.1783	3066.0669	3078.9572	3084.1972	3193.111	3221.8046	3538.6916
N=C1OC2CC=CC2O1	[NH][C]1O[C@H]2CC=C[C@H]2O1	
InChI=1S/C6H7NO2/c7-6-8-4-2-1-3-5(4)9-6/h1-2,4-5,7H,3H2	InChI=1S/C6H7NO2/c7-6-8-4-2-1-3-5(4)9-6/h1-2,4-5,7H,3H2/t4-,5+/m1/s1
