17
gdb 71082	2.55026	1.60858	1.32471	4.1709	73.02	-0.2241	0.0001	0.2242	1031.066	0.133969	-421.787668	-421.779423	-421.778479	-421.820226	31.265	
C	-0.0118302515	 1.4095080497	-0.0278826561	-0.50696
C	-0.0053362129	-0.0813619539	 0.0096088962	 0.424875
O	 0.9975811757	-0.7881413628	-0.7378721579	-0.324327
C	 0.2097748399	-1.9888143888	-0.5204092017	-0.128496
C	 0.3377114124	-2.2340879708	 1.0052177298	 0.476413
O	 0.6194672095	-3.1842466962	 1.6787171121	-0.339666
C	-0.3388877709	-0.9257717668	 1.2521869076	-0.347188
C	-1.0526034996	-1.1195543848	-0.1491850119	 0.224865
C	-2.5068572419	-1.1871307256	-0.4778457297	-0.526431
H	 0.8984709907	 1.8077590176	 0.4308619194	 0.14548
H	-0.0633844916	 1.7638271581	-1.0615995103	 0.139608
H	-0.872379761	 1.8036868085	 0.5199662779	 0.131045
H	 0.3190567374	-2.7593293782	-1.2791098338	 0.103981
H	-0.7591180493	-0.5182361754	 2.1616487544	 0.112145
H	-3.0507885423	-0.3671359467	 0.0013240333	 0.13406
H	-2.6697386463	-1.1139994894	-1.5583990147	 0.138719
H	-2.9493386483	-2.1269569345	-0.1312958444	 0.141878
116.6231	172.9044	183.8206	187.7259	257.141	262.8152	376.9834	459.771	524.1236	573.9934	615.6226	673.3014	708.2893	775.8897	813.2879	834.5874	907.7747	926.6768	942.545	1022.9985	1035.8432	1090.2476	1111.131	1123.521	1128.3475	1145.0052	1217.8613	1253.7611	1311.6219	1410.2891	1415.5577	1471.282	1479.0312	1489.0303	1492.3244	1515.6912	1882.0715	3032.1291	3042.7541	3096.8191	3105.1251	3113.5615	3121.635	3165.9763	3218.3035
CC12OC3C(=O)C1C23C	C[C@@]12O[C@H]3C(=O)[C@@H]1[C@@]23C	
InChI=1S/C7H8O2/c1-6-4-3(8)5(6)9-7(4,6)2/h4-5H,1-2H3	InChI=1S/C7H8O2/c1-6-4-3(8)5(6)9-7(4,6)2/h4-5H,1-2H3/t4-,5+,6-,7-/m1/s1
