15
gdb 29456	3.3344	1.66659	1.11887	2.4673	72.58	-0.2006	0.0218	0.2224	1025.9906	0.115225	-416.84391	-416.836743	-416.835799	-416.875407	27.488	
C	-0.0143002754	 1.5094778598	 0.0270991865	-0.501457
C	-0.0061601423	 0.0148178977	 0.0502414925	 0.121138
C	-0.0337811407	-0.8198991119	-1.0281993326	-0.125339
O	-0.0166108948	-2.1770395082	-0.6748875125	-0.222162
C	 0.022891965	-2.1322567794	 0.6618039534	 0.423833
C	 0.032159162	-0.8726838508	 1.189636819	 0.135951
N	 0.073209838	-0.9382507086	 2.5699676523	-0.347097
C	 0.0878776823	-2.2256816904	 2.8291870017	-0.013787
N	 0.0577111689	-3.0268763361	 1.6892304037	-0.408997
H	 0.8800500596	 1.9160996481	 0.5117953492	 0.138069
H	-0.0499594327	 1.8914165028	-0.9967701948	 0.121515
H	-0.8787049508	 1.9073165961	 0.5698735183	 0.138112
H	-0.0662292536	-0.6407861766	-2.0896311389	 0.133623
H	 0.1194132607	-2.6710152885	 3.8121897339	 0.130895
H	 0.0617038339	-4.0314508239	 1.6544533684	 0.275703
139.8814	171.5272	231.7381	241.2777	380.7585	420.5287	525.172	589.6761	599.5008	643.1401	695.1049	696.8016	750.8278	788.6826	789.4934	948.6921	1008.6842	1041.7377	1064.4171	1070.4098	1106.867	1219.2793	1245.7296	1307.9168	1354.2281	1419.0753	1434.6437	1478.6465	1487.9692	1495.7517	1558.3103	1586.9411	1630.5744	3033.5554	3086.6849	3113.9999	3254.7753	3284.8066	3679.9516
CC1=COC2=C1N=CN2	Cc1coc2c1nc[nH]2	
InChI=1S/C6H6N2O/c1-4-2-9-6-5(4)7-3-8-6/h2-3H,1H3,(H,7,8)	InChI=1S/C6H6N2O/c1-4-2-9-6-5(4)7-3-8-6/h2-3H,1H3,(H,7,8)
