18
gdb 36145	3.8439	1.10866	1.00154	5.2063	75.48	-0.2461	0.0349	0.281	1212.0179	0.148627	-401.954723	-401.946649	-401.945705	-401.987845	30.549	
N	-0.1249212691	-1.1351645887	 0.2699309616	-0.309112
C	-0.095125298	 0.003662783	 0.079480242	 0.276877
C	-0.0671594655	 1.4512419045	-0.1467825888	-0.425982
C	 1.334949343	 2.0092440141	-0.230937957	 0.472362
C	 2.1746849867	 2.2721478913	 0.9921432966	-0.351381
C	 1.7204469054	 3.4233687237	 0.1042182999	-0.133156
C	 2.6615690904	 3.8575837636	-1.008167283	-0.239586
C	 3.0505824	 2.517389546	-1.6737948476	-0.098257
O	 1.9852426698	 1.6027572606	-1.4072675736	-0.294956
H	-0.6022918535	 1.671542213	-1.0772494661	 0.158482
H	-0.6095672962	 1.9392350532	 0.669362854	 0.151884
H	 1.6907567143	 2.1765592569	 1.9583333197	 0.122022
H	 3.2170147535	 1.9723885205	 0.9885411964	 0.125566
H	 1.0032793875	 4.1360421533	 0.4952061458	 0.094507
H	 2.1239520806	 4.5046345621	-1.7089714583	 0.11271
H	 3.5420397319	 4.4027283546	-0.6558549965	 0.112523
H	 3.1688733155	 2.5846400379	-2.7581151945	 0.117717
H	 3.9893445237	 2.1310303103	-1.2555762807	 0.10778
55.47	105.942	210.4093	222.3106	307.2045	386.4292	396.9787	414.2911	469.5579	662.7634	689.6162	718.8003	832.2712	862.9744	881.6901	916.3089	925.0768	930.4397	978.2838	983.3687	1027.315	1043.9718	1078.2855	1095.1045	1131.7354	1185.2713	1222.1823	1234.7672	1263.2027	1290.9029	1320.8682	1343.6945	1395.2611	1407.3695	1446.7452	1482.9637	1496.8175	1530.0673	2366.7299	3015.0931	3048.875	3049.7422	3089.3977	3094.3986	3101.2218	3134.2334	3173.6077	3219.6276
N#CCC12CC1CCO2	N#CC[C@]12C[C@H]1CCO2	
InChI=1S/C7H9NO/c8-3-2-7-5-6(7)1-4-9-7/h6H,1-2,4-5H2	InChI=1S/C7H9NO/c8-3-2-7-5-6(7)1-4-9-7/h6H,1-2,4-5H2/t6-,7+/m1/s1
