15
gdb 24786	2.63888	2.02819	1.16375	6.5022	75.21	-0.231	-0.0461	0.1849	986.985	0.115709	-416.855785	-416.849026	-416.848081	-416.887105	25.904	
O	 0.0852079431	-0.078128254	 0.001621491	-0.388146
C	-0.0127217839	 1.1284368943	 0.0080639408	 0.432341
N	-1.2001910127	 1.856584974	 0.0294919027	-0.343399
C	-1.1822398898	 3.1663951826	 0.0360886442	 0.050217
C	-0.0300725734	 4.0106805067	 0.023815947	-0.347337
C	 1.1339471537	 3.3091941372	 0.0037459291	 0.442392
C	 2.6487824727	 3.3726011875	-0.0174922145	-0.385361
C	 2.5850413325	 1.7999160399	-0.024464014	-0.168361
N	 1.1236817991	 1.9557478161	-0.0032178936	-0.113958
H	-2.1626174689	 3.6457190978	 0.0526716878	 0.119928
H	-0.0953384704	 5.0885159944	 0.0303040644	 0.113758
H	 3.0816103488	 3.8240881324	-0.9120130874	 0.147188
H	 3.1069263044	 3.8151091559	 0.8688683485	 0.147165
H	 2.9561099075	 1.3090881497	-0.9264531976	 0.146776
H	 2.9812199473	 1.3000788156	 0.8617606318	 0.146797
125.1446	171.6741	209.8583	302.6518	462.5677	522.7666	568.8774	584.7811	640.2714	738.0086	777.8122	798.7647	812.0594	882.4094	914.3594	995.1481	1002.6058	1063.7931	1064.6372	1135.7231	1146.9149	1178.0887	1217.3388	1227.6998	1258.738	1300.9435	1409.8402	1450.5898	1469.824	1517.1437	1550.198	1687.1872	1806.5982	3078.0531	3086.9368	3113.8384	3130.1429	3143.9814	3242.4646
O=C1N=CC=C2CCN12	O=c1nccc2CCn12	
InChI=1S/C6H6N2O/c9-6-7-3-1-5-2-4-8(5)6/h1,3H,2,4H2	InChI=1S/C6H6N2O/c9-6-7-3-1-5-2-4-8(5)6/h1,3H,2,4H2
