23
gdb 58204	2.10816	1.05514	1.02333	1.801	87.36	-0.2534	0.0555	0.3089	1405.8367	0.201881	-388.265646	-388.254284	-388.25334	-388.301784	42.121	
C	 0.058248531	 1.5056661411	 0.5499639966	-0.41915
C	-0.0239453847	-0.0087949367	 0.3564672655	 0.128565
O	 0.4571451815	-0.6807367457	 1.5234564746	-0.430296
C	-1.430698443	-0.520901517	-0.0269577733	 0.013557
C	-2.0153309702	 0.2060422671	-1.2449668267	-0.416349
C	-1.4026290155	-2.0700448146	-0.20440198	-0.134615
C	-2.8076163513	-2.7035160878	-0.1703364615	-0.409642
C	-0.6806661433	-2.467879412	-1.4130856135	 0.353178
C	-0.0991652002	-2.7978256631	-2.4133068499	-0.509856
H	 1.0516170524	 1.7694743997	 0.9227300092	 0.12512
H	-0.1128709989	 2.0498802835	-0.3822463106	 0.124153
H	-0.6845670858	 1.8511835383	 1.2812833758	 0.10362
H	 0.6749512875	-0.307749698	-0.4340917898	 0.102943
H	-0.0629657799	-0.3680841026	 2.2725238022	 0.273691
H	-2.0848466518	-0.3278899988	 0.8380358594	 0.055728
H	-2.9846882698	-0.2139510484	-1.5278238726	 0.117017
H	-2.1700757438	 1.2682567325	-1.0403133468	 0.114018
H	-1.3516732113	 0.1147579352	-2.1104243374	 0.131377
H	-0.8403156797	-2.4545298963	 0.6544308547	 0.122237
H	-3.4199170833	-2.3784614149	-1.0157769771	 0.126092
H	-2.7357497616	-3.7934487342	-0.2141222973	 0.12585
H	-3.3243252741	-2.430718309	 0.7556314894	 0.109548
H	 0.4230112757	-3.0984613881	-3.2875612511	 0.193213
57.5661	74.3279	142.8954	179.6804	193.4491	211.9344	236.412	251.9861	298.1847	315.0998	345.4864	358.8803	411.6121	470.7807	482.4512	556.8603	612.7963	636.3271	646.1348	758.5459	827.3275	897.3009	933.1052	970.2913	993.7626	1041.3286	1054.8626	1086.7691	1108.7098	1119.8041	1165.6008	1184.7307	1257.7719	1293.0211	1320.9568	1341.1535	1376.9717	1383.1275	1400.9002	1406.7914	1413.5758	1423.0127	1489.1509	1491.7652	1492.9993	1499.0268	1502.6105	1512.6943	2227.1678	2979.182	3020.7672	3038.2695	3044.0948	3045.6708	3047.9662	3098.8408	3108.8381	3112.732	3117.9518	3120.6057	3126.562	3504.1088	3792.3299
CC(O)C(C)C(C)C#C	C[C@@H](O)[C@@H](C)[C@@H](C)C#C	
InChI=1S/C8H14O/c1-5-6(2)7(3)8(4)9/h1,6-9H,2-4H3	InChI=1S/C8H14O/c1-5-6(2)7(3)8(4)9/h1,6-9H,2-4H3/t6-,7-,8+/m0/s1
