21
gdb 91001	3.26042	1.5225	1.49384	1.3496	80.67	-0.2586	0.0817	0.3402	995.9856	0.186744	-387.09153	-387.084641	-387.083697	-387.122359	29.721	
O	-0.0657570707	 1.413886587	-0.0508483656	-0.448467
C	 0.0244051264	-0.0042331711	 0.0276479757	 0.135434
C	 0.639411688	-0.4873218965	 1.378114662	-0.286788
C	-0.5951878853	-0.8789974807	 2.198156938	 0.013955
C	-1.3560885693	-2.1913716777	 1.7759966234	-0.028346
C	-2.6714004706	-1.4168325664	 2.0615519991	-0.239871
C	-1.8499605571	-0.2108923316	 1.5542217403	-0.019391
C	-1.4039291594	-0.5562461481	 0.1013790269	-0.014964
C	-1.2987097518	-2.1076972567	 0.2372414061	-0.238291
H	 0.8263790289	 1.7718749152	-0.0058300303	 0.278074
H	 0.5693502659	-0.3995606257	-0.8424731217	 0.056337
H	 1.3372672402	-1.3206943327	 1.2422419396	 0.09541
H	 1.1954207039	 0.3305154367	 1.8486028156	 0.08906
H	-0.5091184029	-0.7686558492	 3.280009766	 0.0617
H	-1.1406105806	-3.1563313234	 2.2371420598	 0.05327
H	-3.5711900036	-1.7157718157	 1.5142886337	 0.083764
H	-2.8961150133	-1.3381547852	 3.1285375726	 0.09193
H	-2.1266855566	 0.8233850162	 1.7498103477	 0.069578
H	-2.0452018805	-0.1982195433	-0.7046705076	 0.064132
H	-0.3750845852	-2.5056030012	-0.1953171471	 0.089226
H	-2.1367731466	-2.6334106398	-0.2287586844	 0.094246
151.8471	280.4905	294.6754	340.1276	404.9219	448.2168	466.0699	630.7563	682.9472	739.2946	792.4183	828.9171	833.5526	854.8881	872.723	906.2324	929.1374	956.657	963.62	988.2846	1000.175	1005.8237	1046.8656	1064.0771	1088.6797	1096.131	1098.4423	1158.8945	1163.6648	1187.7523	1207.6691	1231.6209	1240.5531	1258.0429	1271.7509	1279.1292	1289.8068	1318.574	1326.0775	1340.4443	1365.5811	1422.7888	1475.4571	1497.8881	1517.4138	2985.9012	3038.485	3043.6311	3048.3851	3078.8982	3088.5693	3097.8381	3101.0984	3107.8239	3109.3422	3135.7875	3816.4798
OC1CC2C3CC2C1C3	O[C@H]1C[C@@H]2[C@H]3C[C@@H]2[C@@H]1C3	
InChI=1S/C8H12O/c9-8-3-5-4-1-6(5)7(8)2-4/h4-9H,1-3H2	InChI=1S/C8H12O/c9-8-3-5-4-1-6(5)7(8)2-4/h4-9H,1-3H2/t4-,5+,6-,7-,8-/m0/s1
