16
gdb 47225	2.53909	1.84045	1.30851	2.8891	72.04	-0.2523	-0.0291	0.2232	974.207	0.126063	-437.866616	-437.859421	-437.858477	-437.898288	28.057	
N	-0.0608260146	 1.2612931627	 0.4924371701	-0.507837
C	-0.0297087002	 0.076312747	 0.0373491991	 0.381186
O	 1.1475081302	-0.5451802842	-0.2150592911	-0.264221
C	 1.2480557595	-1.8967315096	-0.7175096075	-0.135196
C	 0.6614878152	-2.0585152952	-2.0962080396	-0.115552
C	-0.623874259	-1.8414980437	-2.3748281916	-0.022242
C	-1.6467156839	-1.4575803406	-1.3733114291	-0.013064
O	-1.5154251264	-1.9755285692	-0.040235866	-0.246797
C	-1.3561218525	-0.5709279154	-0.2168541776	-0.020786
H	 0.8904250873	 1.6188486555	 0.6036578353	 0.222206
H	 2.3243218959	-2.0757811554	-0.7376245717	 0.12075
H	 0.7900554883	-2.5865285536	-0.0067032407	 0.150783
H	 1.3399897768	-2.3384826912	-2.895954926	 0.11037
H	-0.9810959876	-1.9366002432	-3.3961169154	 0.103311
H	-2.6748457587	-1.4481799464	-1.7321035859	 0.110028
H	-2.1636642303	 0.0432882024	 0.1731456676	 0.127059
86.162	216.6585	266.0054	293.4073	335.6978	404.7314	433.957	589.7902	634.3261	670.4593	721.1645	775.4777	796.8062	864.0528	878.3474	913.2353	930.8548	978.0126	992.3236	1032.6203	1060.342	1097.1914	1138.0456	1162.7765	1233.6174	1278.6775	1289.1382	1334.2812	1379.9694	1411.9075	1436.3202	1448.2779	1495.3128	1718.7075	1722.78	3082.7288	3123.1518	3130.0088	3157.0731	3167.0564	3187.9259	3465.9318
N=C1OCC=CC2OC12	[NH][C]1OCC=C[C@H]2O[C@@H]12	
InChI=1S/C6H7NO2/c7-6-5-4(9-5)2-1-3-8-6/h1-2,4-5,7H,3H2	InChI=1S/C6H7NO2/c7-6-5-4(9-5)2-1-3-8-6/h1-2,4-5,7H,3H2/t4-,5-/m1/s1
