19
gdb 118728	3.01241	1.13971	0.96097	1.54	72.25	-0.2216	0.0756	0.2972	1282.558	0.157525	-460.091106	-460.082091	-460.081147	-460.125174	33.342	
C	 0.0499064343	 1.3340456256	-0.0169032009	-0.225452
O	-0.0525735379	-0.0643400532	-0.1504729422	-0.254901
C	-1.3647584746	-0.5568731548	 0.0795492744	-0.149437
C	-1.2569658014	-2.0579048835	 0.0190251382	 0.389439
O	-0.2578904268	-2.5777608812	 0.8509469866	-0.482564
C	-2.4165264721	-3.0202565783	-0.0751967684	-0.19363
C	-3.4759657938	-2.504269526	-1.0373331101	-0.104171
O	-2.4808265309	-2.2560009136	-2.0701779756	-0.284849
C	-1.465349558	-2.8417715657	-1.2502230001	 0.021281
H	 1.0921805835	 1.6050085319	-0.2016625251	 0.129125
H	-0.5879916377	 1.8582879658	-0.7445482875	 0.111547
H	-0.2327102081	 1.6683216602	 0.9935135816	 0.107653
H	-1.7197182023	-0.2359377876	 1.0726132633	 0.091196
H	-2.0586857565	-0.18102117	-0.6836817924	 0.111328
H	 0.515660679	-2.0206679269	 0.6930701642	 0.292779
H	-2.5175763736	-3.83216358	 0.6318784065	 0.110009
H	-4.1750154613	-3.2831675758	-1.3625540353	 0.114575
H	-4.0349977697	-1.6005266417	-0.767582857	 0.10576
H	-0.724978342	-3.4878229651	-1.7069915102	 0.110314
68.13	99.3849	145.6958	206.6706	233.8602	257.0016	343.0155	364.068	418.1351	461.7917	492.7106	528.1367	757.5072	775.8735	843.7653	915.4873	945.747	960.3194	984.2162	992.382	1012.573	1045.9718	1070.0641	1101.0689	1154.422	1158.667	1167.9772	1189.6351	1221.5829	1229.8022	1265.1938	1288.3363	1327.9351	1342.4414	1403.439	1475.9694	1483.3516	1485.5491	1495.7808	1517.2233	1522.3265	2969.3032	2979.4712	3023.3881	3024.4978	3040.6208	3069.6908	3115.841	3186.0701	3211.5591	3771.6632
COCC1(O)C2COC12	COC[C@@]1(O)[C@H]2CO[C@@H]12	
InChI=1S/C6H10O3/c1-8-3-6(7)4-2-9-5(4)6/h4-5,7H,2-3H2,1H3	InChI=1S/C6H10O3/c1-8-3-6(7)4-2-9-5(4)6/h4-5,7H,2-3H2,1H3/t4-,5+,6+/m0/s1
