18
gdb 75948	2.22384	1.88529	1.07006	2.5029	75.14	-0.2278	-0.0008	0.227	1105.1318	0.149888	-435.327072	-435.318583	-435.317639	-435.360043	32.107	
C	-0.0067443715	 1.4529711557	 0.0061691825	-0.361402
N	 0.0064529141	-0.0085578865	-0.0242922511	-0.162166
C	-1.2179133431	-0.6781658284	-0.0384640738	 0.41046
O	-2.2727239646	-0.0797312833	-0.0355501098	-0.366591
C	-1.0971212217	-2.1884365604	-0.0305057487	-0.324174
C	 0.1495995883	-2.6389946754	-0.7932837022	-0.169795
N	 1.3462206671	-1.9677172944	-0.310170384	-0.319692
C	 1.2168828763	-0.7357010945	-0.0076672142	 0.42548
N	 2.3342686003	 0.0282691275	 0.3017754366	-0.564584
H	 0.7671633927	 1.8453595257	-0.6546363717	 0.148953
H	-0.9922106655	 1.7766793171	-0.3247550523	 0.171914
H	 0.1550277393	 1.8418862088	 1.0194517143	 0.123789
H	-1.021545082	-2.5084889927	 1.0175927666	 0.129991
H	-2.0235453047	-2.6007694514	-0.4355154059	 0.129152
H	 0.2870222998	-3.7193291459	-0.6898412217	 0.109186
H	 0.0184654417	-2.4432244956	-1.8697488205	 0.106059
H	 3.1494433488	-0.5616003304	 0.3986090638	 0.261155
H	 2.2296845946	 0.6809040341	 1.0660003521	 0.252263
94.6238	143.3487	154.039	219.7974	274.6453	356.2157	376.27	417.4035	469.7994	481.0764	556.4302	610.3533	644.729	683.7197	718.1768	762.5845	881.7197	934.649	956.571	1042.6174	1073.679	1130.9699	1153.4468	1193.6025	1209.7819	1228.6154	1265.806	1320.0681	1339.7733	1377.5548	1404.2096	1448.727	1459.1489	1497.4391	1500.3389	1520.0677	1623.5936	1742.0692	1796.4871	2978.946	3024.8699	3028.7077	3072.1961	3115.1684	3117.3574	3174.0379	3555.4411	3662.2678
CN1C(=O)CCN=C1N	CN1C(=O)CCN=C1N	
InChI=1S/C5H9N3O/c1-8-4(9)2-3-7-5(8)6/h2-3H2,1H3,(H2,6,7)	InChI=1S/C5H9N3O/c1-8-4(9)2-3-7-5(8)6/h2-3H2,1H3,(H2,6,7)
