17
gdb 98711	2.95738	1.14182	0.95358	3.6408	76.99	-0.2431	0.0282	0.2713	1273.2296	0.134026	-417.975035	-417.965364	-417.96442	-418.010315	34.097	
C	-0.1880984259	 1.247220509	-0.2460953251	-0.32413
N	 0.0986637559	-0.1699740116	-0.1348968016	-0.331097
C	 0.7809662264	-0.8315773786	-1.1225631498	 0.451984
O	 1.0565173772	-0.3592539166	-2.2037920809	-0.381394
N	 1.197130466	-2.1234797079	-0.7237046484	-0.141992
C	 0.3046039062	-3.145522093	-0.2136718131	-0.260795
C	 0.9857831641	-3.3043021417	-1.5516637328	-0.18333
C	 0.1957491003	-3.2590506446	-2.7522057275	 0.365131
C	-0.4570728514	-3.2723972484	-3.7607335184	-0.455858
H	 0.5417036178	 1.8641334249	 0.2938723865	 0.123711
H	-0.1458870419	 1.5086863451	-1.3037001136	 0.171219
H	-1.1878764754	 1.4657783926	 0.1411275741	 0.122601
H	 0.086878222	-0.5884443286	 0.7808662706	 0.248309
H	 0.6611146954	-3.7121455997	 0.6429449939	 0.126734
H	-0.7649011478	-2.9516603847	-0.2391369809	 0.138619
H	 1.8554221844	-3.9554813646	-1.6035629989	 0.126308
H	-1.0256671432	-3.2570595317	-4.6574961343	 0.20398
52.975	77.988	104.4841	139.5318	180.1036	225.5657	266.8755	311.3837	453.6531	471.9196	518.2332	540.6619	614.9201	650.9613	670.3487	770.2267	799.3683	846.1481	927.5769	1001.6483	1050.7998	1085.8066	1119.264	1127.2951	1153.7135	1161.1088	1174.6656	1229.3629	1347.9847	1385.7108	1443.0381	1489.306	1501.1227	1504.7411	1552.0187	1802.9005	2244.2936	3019.5192	3083.5639	3101.5864	3132.3545	3156.3156	3194.9051	3503.7569	3641.0781
CNC(=O)N1CC1C#C	CNC(=O)N1C[C@H]1C#C	
InChI=1S/C6H8N2O/c1-3-5-4-8(5)6(9)7-2/h1,5H,4H2,2H3,(H,7,9)	InChI=1S/C6H8N2O/c1-3-5-4-8(5)6(9)7-2/h1,5H,4H2,2H3,(H,7,9)/t5-,8?/m1/s1
