19
gdb 96651	3.17876	1.14332	0.85901	1.5134	83.34	-0.2379	-0.015	0.2229	1350.928	0.157843	-419.243203	-419.233394	-419.23245	-419.27923	34.057	
C	-0.1011412341	 1.386978542	-0.0616279383	-0.31969
N	-0.022869712	-0.0614674701	-0.0012782517	-0.274667
C	 0.5813164491	-0.5970543441	 0.9838756819	 0.362794
C	 1.2526561324	 0.102801435	 2.1416557181	-0.517886
N	 0.6291843348	-1.9890429274	 0.9961392308	-0.134385
C	 0.0713201858	-2.9314603442	 0.0164242599	-0.157902
C	 0.6306391644	-4.0843899235	 0.896305706	-0.374942
C	 1.1552097533	-2.978139127	 1.8282574593	 0.419411
O	 1.770272149	-2.9290898254	 2.8600606328	-0.358995
H	 0.8902566078	 1.8613402923	-0.1034787561	 0.11644
H	-0.6465473269	 1.6774882958	-0.9629370775	 0.125062
H	-0.6297299911	 1.8167146766	 0.8018351417	 0.116492
H	 0.524092244	 0.7279043196	 2.668944069	 0.143309
H	 1.6915987502	-0.6058535269	 2.8424886782	 0.176401
H	 2.0350037839	 0.7712957953	 1.7666230192	 0.143334
H	-1.0163306459	-2.8719456257	-0.0625482743	 0.129079
H	 0.5136781391	-2.8273258884	-0.9766714953	 0.12908
H	-0.1140177531	-4.7365149864	 1.3561523341	 0.138534
H	 1.4154760193	-4.6919671473	 0.4423051121	 0.138534
34.3925	69.1842	97.6344	125.6629	164.1431	207.4993	293.7446	293.9542	357.4179	419.9834	539.8935	585.2191	585.9482	700.6762	779.1739	808.1311	913.987	964.4158	1032.3256	1045.5544	1053.7287	1075.0948	1107.0118	1118.9669	1155.5005	1167.4125	1184.7073	1191.8971	1239.2656	1331.667	1399.1381	1405.352	1440.7743	1462.4161	1484.2549	1490.7289	1493.1963	1510.0364	1523.1429	1716.097	1864.5636	2985.0415	3032.7241	3041.9369	3072.8273	3088.8999	3097.1042	3101.4251	3120.5202	3145.3398	3165.5546
CN=C(C)N1CCC1=O	CN=C(C)N1CCC1=O	
InChI=1S/C6H10N2O/c1-5(7-2)8-4-3-6(8)9/h3-4H2,1-2H3	InChI=1S/C6H10N2O/c1-5(7-2)8-4-3-6(8)9/h3-4H2,1-2H3
