13
gdb 132803	2.38268	1.81529	1.03098	1.1545	65.2	-0.2224	-0.0132	0.2092	1028.6025	0.089489	-502.052572	-502.04535	-502.044406	-502.084116	27.826	
N	-0.0274432122	 1.3800743508	-0.1479495576	-0.56756
C	-0.0103953404	 0.0082687408	-0.0627686288	 0.290644
N	-1.1759107004	-0.6426221281	-0.0368195764	-0.345072
C	-1.1519866986	-1.9786727875	-0.0100178229	 0.001031
C	 0.0049889948	-2.7443482352	 0.0002099922	-0.282351
C	 1.2153489997	-2.056378775	-0.0140389741	 0.211718
F	 2.3733515513	-2.7067133985	 0.0047352697	-0.054238
C	 1.2151656609	-0.6765034468	-0.0471999851	 0.062922
F	 2.3609684695	 0.0191134698	-0.0534909426	-0.075117
H	 0.8019221386	 1.8659003576	 0.1531296261	 0.262226
H	-0.904839551	 1.8029430081	 0.1125935229	 0.262491
H	-2.1222295892	-2.4675762016	 0.0075345932	 0.116114
H	-0.0108227229	-3.8258978442	 0.0253118734	 0.117189
146.2399	247.5083	273.6493	299.7363	309.4673	421.7208	485.5168	496.5032	543.3026	555.0713	563.4181	636.8907	717.8173	774.4456	809.7276	856.4194	964.586	1020.3886	1083.1453	1156.3383	1253.3009	1313.3056	1339.313	1367.6754	1502.4371	1544.4856	1620.6554	1623.2745	1670.3446	3164.9719	3221.9345	3588.6283	3709.0777
NC1=NC=CC(F)=C1F	Nc1nccc(F)c1F	
InChI=1S/C5H4F2N2/c6-3-1-2-9-5(8)4(3)7/h1-2H,(H2,8,9)	InChI=1S/C5H4F2N2/c6-3-1-2-9-5(8)4(3)7/h1-2H,(H2,8,9)
