16
gdb 26486	3.73554	1.30346	1.0407	2.0463	71.1	-0.242	-0.0096	0.2324	1120.2206	0.124534	-437.896348	-437.888584	-437.88764	-437.929092	28.777	
C	 0.2649903087	 1.3914710738	 0.2922938915	-0.481796
C	-0.0331166512	-0.0440986967	-0.0765755934	 0.279795
C	 0.4549697364	-0.6044561269	-1.351210025	-0.222974
O	 1.1133250991	-0.9179581738	-0.1257277555	-0.268944
C	-1.2294824433	-0.6220581493	 0.5631420279	 0.34099
C	-2.1301761789	-0.1719484206	 1.474390636	-0.209697
N	-3.0768702863	-1.1591650806	 1.7210523253	-0.258378
C	-2.7079044017	-2.137929031	 0.9632625365	 0.073046
O	-1.6010281085	-1.897866579	 0.2250173444	-0.178694
H	 1.1884918637	 1.7125904495	-0.1935673065	 0.134901
H	-0.5476300845	 2.0543600029	-0.0205810322	 0.131946
H	 0.3952679227	 1.4935094994	 1.374158038	 0.137372
H	-0.0817756591	-1.4284322596	-1.8164727138	 0.126126
H	 1.0072316701	 0.0427257528	-2.0322265326	 0.114941
H	-2.1706632986	 0.784974846	 1.9688221138	 0.127719
H	-3.1631987887	-3.109241067	 0.8503294956	 0.153647
60.3232	158.0755	181.3523	198.1098	321.9225	355.2543	439.8984	461.4698	560.5926	664.2403	711.4463	785.8908	841.9735	857.7007	875.9073	931.6207	940.6397	978.1693	1024.4752	1099.0065	1123.4612	1137.9014	1142.6365	1143.235	1173.7845	1252.7917	1309.6606	1363.7545	1373.3755	1414.7819	1480.2578	1496.7034	1519.268	1549.4944	1632.4465	3044.1701	3084.2169	3110.7804	3135.1855	3178.6409	3270.4144	3278.9943
CC1(CO1)C1=CN=CO1	C[C@]1(CO1)c1cnco1	
InChI=1S/C6H7NO2/c1-6(3-9-6)5-2-7-4-8-5/h2,4H,3H2,1H3	InChI=1S/C6H7NO2/c1-6(3-9-6)5-2-7-4-8-5/h2,4H,3H2,1H3/t6-/m0/s1
