17
gdb 93116	2.12048	1.74226	1.2661	3.5805	72.11	-0.2645	0.	0.2645	1046.6389	0.137145	-418.032934	-418.024682	-418.023738	-418.065871	30.422	
C	-0.0241409593	 1.5491283728	-0.0152892044	-0.422263
C	 0.0489359914	 0.0225546462	-0.0070455679	-0.037693
C	 0.7032407659	-0.5644547762	-1.2638154076	-0.168166
N	 0.9481807742	-2.0007385988	-1.1766255018	-0.255655
C	 0.9814200386	-2.5362425506	-0.037554903	 0.129617
O	 0.848303561	-1.9603443652	 1.1978018824	-0.230291
C	 0.7998004224	-0.5306576038	 1.2195610866	-0.026849
C	 2.1717421448	 0.0042346052	 1.3226274793	 0.291016
N	 3.238707389	 0.4406453704	 1.3983623088	-0.32275
H	 0.9737702762	 1.9953394672	-0.0678737633	 0.148179
H	-0.5944344222	 1.8952071796	-0.8822566533	 0.130718
H	-0.5193095558	 1.9315853588	 0.8835069957	 0.123145
H	-0.9652789815	-0.3880824788	 0.0732452209	 0.103864
H	 0.0652504084	-0.3821712406	-2.1350892946	 0.120667
H	 1.6566256847	-0.0590881748	-1.4693737796	 0.135423
H	 1.1253775431	-3.6071400674	 0.085183035	 0.138039
H	 0.271345299	-0.2708060138	 2.1420598469	 0.142997
87.2339	143.9134	155.9447	216.69	256.1953	291.0322	394.3258	448.7431	471.3955	509.9332	614.2016	622.5191	763.2701	881.8905	905.171	935.9107	953.0479	962.6393	1001.4721	1007.5339	1088.6034	1130.9276	1141.4082	1185.2018	1235.6832	1309.5967	1324.222	1347.502	1381.6763	1388.9661	1405.5376	1419.3555	1484.831	1497.5196	1500.8611	1746.6544	2358.4071	3021.8974	3035.1682	3037.945	3067.7968	3071.0218	3106.0931	3116.0385	3173.8602
CC1CN=COC1C#N	C[C@H]1CN=CO[C@H]1C#N	
InChI=1S/C6H8N2O/c1-5-3-8-4-9-6(5)2-7/h4-6H,3H2,1H3	InChI=1S/C6H8N2O/c1-5-3-8-4-9-6(5)2-7/h4-6H,3H2,1H3/t5-,6-/m0/s1
