16
gdb 43462	2.96008	1.41111	1.04322	1.4236	69.8	-0.2498	-0.0534	0.1964	1106.1999	0.12376	-437.909821	-437.901873	-437.900929	-437.943989	29.496	
O	-0.0088350282	 0.1539581733	-0.6065663455	-0.296187
C	-0.0058866858	 1.2456148232	-0.1038038254	 0.386477
C	-1.2521019388	 2.0781235149	 0.2132123564	-0.447461
C	-0.742546184	 3.346117644	 0.8810023096	 0.340769
O	-1.4013284158	 4.1917704863	 1.4381942058	-0.333597
C	 0.7608431198	 3.3759631662	 0.7793659692	 0.231166
C	 1.3793134176	 4.6929273192	 0.4208754347	-0.26514
N	 1.4937031671	 4.1684024119	 1.7748603286	-0.344006
C	 1.2523479714	 2.0164825383	 0.3238392836	-0.427311
H	-1.7856230796	 2.3199372107	-0.7141311257	 0.170129
H	-1.9605152696	 1.5334238435	 0.8447760429	 0.16821
H	 2.2974515123	 4.6840103145	-0.1607160502	 0.130493
H	 0.7086885048	 5.5279895344	 0.2373233788	 0.136288
H	 0.8011993024	 4.631734858	 2.3655438925	 0.250106
H	 1.7358609516	 1.4704625569	 1.1425408511	 0.156396
H	 1.9674599048	 2.0470136147	-0.5030462363	 0.143668
16.6769	75.9319	248.0362	265.3994	338.2115	367.782	439.9413	487.1916	533.3241	571.6693	618.2801	715.1212	769.2811	797.0441	866.577	883.9696	952.7825	975.4089	1018.0142	1051.9118	1102.3944	1131.8678	1148.8172	1188.9553	1197.2238	1225.8492	1241.5975	1294.3681	1323.2804	1392.5719	1397.493	1448.4269	1496.1012	1816.8952	1860.594	3050.1935	3052.8545	3097.6975	3100.2692	3107.2362	3202.2855	3454.9435
O=C1CC(=O)C2(CN2)C1	O=C1CC(=O)[C@]2(CN2)C1	
InChI=1S/C6H7NO2/c8-4-1-5(9)6(2-4)3-7-6/h7H,1-3H2	InChI=1S/C6H7NO2/c8-4-1-5(9)6(2-4)3-7-6/h7H,1-3H2/t6-/m1/s1
