21
gdb 39890	2.65388	1.78117	1.58698	0.2195	85.72	-0.2314	0.0242	0.2556	978.2964	0.185769	-349.949833	-349.942716	-349.941772	-349.980779	30.502	
C	-0.0397770761	 1.4738137327	 0.0106222348	-0.356363
C	 1.2889500928	 0.7324744768	-0.0066279477	-0.365701
C	 0.0018949227	-0.0218904428	 0.001868337	 0.477147
C	-0.4951714417	-0.9302183443	 1.1300396005	-0.149166
C	-2.0277435197	-0.9560237018	 0.7977810468	-0.201227
C	-2.0431592806	-0.9473459911	-0.7641917781	-0.201228
C	-0.5174406928	-0.9176269455	-1.1263378657	-0.149164
C	 0.0496624723	-2.2579836606	-0.6798058741	-0.076035
C	 0.0628111591	-2.2654668118	 0.657463848	-0.076032
H	-0.3263052926	 1.9811796183	 0.9270551638	 0.107236
H	-0.3442833621	 1.9913486453	-0.8942540586	 0.107236
H	 1.8705554808	 0.755762339	-0.9227733931	 0.108837
H	 1.8885342859	 0.7456115416	 0.8980572854	 0.108838
H	-0.2556956255	-0.6330085853	 2.1521491888	 0.054688
H	-2.5225455063	-1.8318550673	 1.223999097	 0.094187
H	-2.5182037252	-0.0645235702	 1.1997659762	 0.094769
H	-2.5463530357	-1.8184526627	-1.1902687061	 0.094189
H	-2.5413874572	-0.0515007286	-1.1464808943	 0.094769
H	-0.298166264	-0.60899445	-2.1495950266	 0.054688
H	 0.2847220873	-3.0794861903	-1.3454444404	 0.089164
H	 0.3108383287	-3.0943367316	 1.3091169063	 0.089166
174.0526	230.4415	255.9086	292.8484	353.6082	486.7725	521.7454	580.0921	694.6309	736.519	767.8378	790.2532	803.8498	854.6761	869.5272	883.1154	912.607	940.6572	951.0681	952.3859	962.1602	968.1237	977.2654	1014.5449	1051.3667	1059.174	1078.009	1112.8013	1140.7316	1164.3334	1182.1836	1200.0473	1229.5348	1252.0474	1256.0106	1282.4122	1296.6203	1320.6794	1356.1685	1406.5416	1464.2728	1485.8239	1501.6494	1513.7181	1640.8894	3049.8296	3061.1703	3093.38	3100.5797	3103.3806	3111.5805	3116.596	3124.1292	3191.7809	3193.7103	3209.612	3217.6109
C1CC11C2CCC1C=C2	C1CC21[C@H]1CC[C@@H]2C=C1	
InChI=1S/C9H12/c1-2-8-4-3-7(1)9(8)5-6-9/h1-2,7-8H,3-6H2	InChI=1S/C9H12/c1-2-8-4-3-7(1)9(8)5-6-9/h1-2,7-8H,3-6H2/t7-,8+
