18
gdb 78912	3.45921	1.80924	1.6145	1.272	72.13	-0.224	0.0748	0.2988	887.4292	0.150599	-401.904579	-401.898309	-401.897365	-401.934933	26.594	
C	-0.104227915	 1.5784736785	 0.0710032283	-0.39829
C	-0.016039201	 0.0586955433	 0.0062036667	 0.0324
C	 0.805006848	-0.5040420708	-1.1346033684	-0.076342
C	 2.3148373696	-0.37839376	-0.7673406069	 0.058372
O	 2.5490980669	-1.7264831329	-1.2737769968	-0.299272
C	 1.1949413728	-1.9691714394	-0.7899469307	 0.047995
C	 1.3002890737	-1.7848713578	 0.7462212474	-0.064347
C	 2.1566720224	-0.5665595041	 0.761743309	-0.065572
N	 0.7349290141	-0.4884453566	 1.1669216196	-0.128748
H	 0.8924654886	 2.0318158133	 0.0450478077	 0.118015
H	-0.6772877163	 1.9708022969	-0.7748194797	 0.115886
H	-0.5937425226	 1.8923686407	 0.9966569461	 0.130364
H	-1.023456409	-0.3760655515	 0.0274403039	 0.081781
H	 0.5370707463	-0.3018328886	-2.1685313409	 0.08595
H	 3.0046285082	 0.3692049206	-1.153989427	 0.083154
H	 0.7259910465	-2.8627087259	-1.1980658916	 0.082496
H	 1.3324166293	-2.5987719084	 1.4582675689	 0.098457
H	 2.9216592174	-0.3312419974	 1.4893138643	 0.097701
179.6457	222.1293	274.2466	488.6781	527.4576	559.2567	673.0434	718.6807	746.3609	782.8407	830.8067	852.19	866.5181	869.5574	897.3438	924.8536	929.2012	936.019	974.3802	998.4968	1033.9088	1052.5821	1069.7046	1092.0005	1126.4552	1159.8447	1195.248	1212.5574	1232.4003	1233.3714	1268.0756	1275.2087	1300.8446	1321.1706	1357.0975	1378.7374	1411.0705	1490.4854	1498.1167	3031.5344	3038.3598	3105.9058	3120.375	3138.295	3141.0447	3159.3749	3199.6766	3210.1903
CC1C2C3OC2C2C3N12	C[C@H]1[C@H]2[C@@H]3O[C@H]2[C@H]2[C@@H]3N12	
InChI=1S/C7H9NO/c1-2-3-6-4-5(8(2)4)7(3)9-6/h2-7H,1H3	InChI=1S/C7H9NO/c1-2-3-6-4-5(8(2)4)7(3)9-6/h2-7H,1H3/t2-,3-,4-,5+,6-,7+,8?/m0/s1
