13
gdb 130240	3.21247	1.5058	1.02679	4.9209	66.83	-0.2291	-0.0693	0.1598	1057.7908	0.089895	-486.053908	-486.046312	-486.045368	-486.086269	28.815	
N	 0.015928885	 1.3283932828	 0.1676652971	-0.560456
C	 0.0016456457	-0.0389358039	 0.0357388063	 0.335161
N	-1.1167161893	-0.6785582767	-0.0198474047	-0.165288
O	-1.0393199854	-2.0716723309	-0.0442890297	-0.279294
C	 0.1713573646	-2.7662470926	-0.015467491	 0.453871
N	 0.1715026332	-4.0306950929	 0.0051091322	-0.520506
N	 1.3516109294	-2.0382329405	-0.0247152536	-0.361424
C	 1.2721128601	-0.766931417	 0.003945555	 0.408128
O	 2.369127745	-0.0006756542	-0.0156251056	-0.404912
H	 0.825274022	 1.7963686971	-0.2096758804	 0.275316
H	-0.8673141047	 1.7822170381	-0.0168476787	 0.270869
H	-0.7861049649	-4.3815111259	 0.0084143241	 0.230886
H	 3.1315738994	-0.5994413235	-0.0520818009	 0.317647
53.3051	202.0065	278.8808	311.7992	355.4922	371.1856	421.0285	489.8904	547.894	567.3455	592.2641	621.5206	710.4784	719.1706	789.4374	812.6465	849.1578	894.7935	973.3493	1069.8086	1160.3961	1238.9454	1308.7872	1356.3612	1507.7006	1619.7126	1656.3302	1735.3242	1741.0519	3503.3001	3573.777	3691.202	3735.1146
NC1=NOC(=N)N=C1O	NC1=NOC(=N[C]1O)[NH]	
InChI=1S/C3H4N4O2/c4-1-2(8)6-3(5)9-7-1/h(H2,4,7)(H2,5,6,8)	InChI=1S/C3H4N4O2/c4-1-2(8)6-3(5)9-7-1/h(H2,4,7)(H2,5,6,8)
