15
gdb 26836	3.59463	1.11774	0.85689	6.1896	79.9	-0.1991	-0.0437	0.1554	1265.9648	0.113933	-450.167783	-450.159177	-450.158233	-450.201015	31.311	
N	 0.0882356242	 1.4041403784	 0.0973335592	-0.608224
C	-0.0002406826	 0.0222344929	 0.0191552897	 0.317354
C	-1.1267578982	-0.7970455815	-0.0181388027	 0.195792
N	-2.4510995597	-0.3079149585	-0.0703114398	-0.616685
N	-0.7644817265	-2.1010384527	-0.0424914311	-0.307415
C	 0.5614882955	-2.1222261117	-0.0161855694	 0.228697
N	 1.0602599525	-0.8265402804	 0.0407624267	-0.339058
C	 1.4592533358	-3.2605539711	-0.0478648656	 0.07839
O	 1.1380333333	-4.4265295642	-0.1062971206	-0.276505
H	 0.7966101435	 1.8122367973	-0.5016278378	 0.252448
H	-0.8163616543	 1.8136924979	-0.1100584697	 0.267192
H	-2.8384358312	-0.1773552665	 0.8607993649	 0.246401
H	-3.0431680826	-0.9855376193	-0.540281401	 0.252508
H	 2.0312445068	-0.5679145007	 0.1135966938	 0.268911
H	 2.5358903734	-2.9588240298	-0.0089251366	 0.040193
108.0962	130.517	172.6383	218.4196	243.3857	282.5303	299.495	372.8325	434.1065	508.3581	526.6019	654.2153	679.9185	711.0339	743.3484	797.3459	848.7481	894.4072	1005.9274	1027.5188	1101.3508	1169.0079	1192.4382	1277.0156	1340.5607	1394.3329	1457.029	1513.7096	1543.9568	1620.2171	1651.5809	1672.0811	1790.0348	2812.1322	3484.3065	3512.7682	3566.9459	3604.9943	3647.004
NC1=C(N)N=C(N1)C=O	Nc1c(N)nc([nH]1)C=O	
InChI=1S/C4H6N4O/c5-3-4(6)8-2(1-9)7-3/h1H,5-6H2,(H,7,8)	InChI=1S/C4H6N4O/c5-3-4(6)8-2(1-9)7-3/h1H,5-6H2,(H,7,8)
