18
gdb 96993	2.90756	1.35698	1.11115	1.1901	75.37	-0.2544	0.0197	0.2741	1153.6016	0.146618	-439.063358	-439.054515	-439.05357	-439.097132	32.348	
C	-0.0282822877	 1.3760839747	 0.1647581494	-0.339156
N	-0.1607643086	-0.0722951495	 0.2549861638	-0.344587
C	 0.5930722622	-0.7114991893	 1.0220262533	 0.381658
O	 1.631574059	-0.2981659654	 1.8409489775	-0.284314
C	 2.0586359169	-1.6783079759	 2.090643791	 0.034646
C	 1.4496807129	-2.2210011203	 3.3934175364	-0.234295
C	 0.1987864079	-2.7171723643	 2.602067065	-0.280016
C	 0.8026674603	-2.1855768587	 1.2724463691	 0.273439
O	 0.7390817464	-3.0513499101	 0.1973597677	-0.46382
H	 0.8827374048	 1.7668966957	 0.6328889025	 0.128582
H	-0.0432861192	 1.6703431505	-0.8894250443	 0.126382
H	-0.8941361042	 1.8492031789	 0.6419727742	 0.132117
H	 3.1075739931	-1.8233923018	 1.8356367016	 0.097201
H	 2.0293499608	-3.0327543874	 3.8384015225	 0.113664
H	 1.2768581374	-1.4512442455	 4.1473260085	 0.11975
H	 0.1304071113	-3.8062312319	 2.5623105581	 0.125215
H	-0.7748158436	-2.3109499757	 2.882104588	 0.117247
H	 0.6788577102	-2.5212725641	-0.6064067442	 0.296286
90.5626	94.3308	136.2698	173.2219	239.9714	246.4342	319.0717	382.1908	413.7427	520.2084	619.3084	700.8805	739.1807	756.8093	820.6222	876.9413	894.7817	949.1027	977.9224	1023.0136	1039.0419	1080.3237	1114.9181	1123.9111	1133.0062	1164.5368	1188.298	1217.3092	1239.7195	1270.6909	1310.2596	1362.9141	1384.0386	1440.6649	1465.0232	1485.0175	1492.6186	1498.6897	1839.8704	3018.3676	3073.2999	3078.6802	3082.6065	3093.8676	3123.6813	3129.3934	3141.0841	3791.5494
CN=C1OC2CCC12O	CN=C1O[C@H]2CC[C@@]12O	
InChI=1S/C6H9NO2/c1-7-5-6(8)3-2-4(6)9-5/h4,8H,2-3H2,1H3	InChI=1S/C6H9NO2/c1-7-5-6(8)3-2-4(6)9-5/h4,8H,2-3H2,1H3/t4-,6-/m0/s1
