21
gdb 74982	2.89161	1.37467	1.15448	1.5706	84.52	-0.2315	0.0256	0.2571	1175.2551	0.182368	-387.102584	-387.093943	-387.092999	-387.135481	33.682	
C	 0.179394104	 1.5770723745	 0.0973436702	-0.489057
C	-0.0016757368	 0.0947755649	 0.0070040971	 0.329241
C	 0.1170686892	-0.6654648993	-1.0868939717	-0.188869
C	-0.1079628603	-2.1233858888	-0.8181023353	-0.154813
C	 1.1580450111	-2.9515589475	-0.4949548689	-0.083781
O	 0.945083807	-2.8007883687	 0.9222724663	-0.326746
C	-0.3601370802	-2.1827529119	 0.7204054567	 0.439576
C	-1.472418128	-3.0632650722	 1.2557498132	-0.458151
C	-0.3724812626	-0.7271408337	 1.2249806128	-0.355526
H	 0.983502778	 1.8345355306	 0.7984227287	 0.128211
H	 0.4214908629	 2.0162633199	-0.8742893452	 0.122343
H	-0.7285852955	 2.0641585003	 0.4760917968	 0.123813
H	 0.3747038729	-0.2852317844	-2.0706514927	 0.084458
H	-0.8324116336	-2.6025286724	-1.4824915694	 0.072982
H	 1.1101350023	-4.0046544465	-0.8047629249	 0.090883
H	 2.1148858669	-2.5247282256	-0.8172274409	 0.097453
H	-1.3987159297	-3.1483126034	 2.3453133094	 0.124651
H	-2.4534573602	-2.6418629373	 1.0114974243	 0.11455
H	-1.4121120719	-4.0705305254	 0.8328986119	 0.117319
H	 0.3527853361	-0.6167272087	 2.0409542978	 0.116791
H	-1.3503878115	-0.4277809642	 1.6285098837	 0.094672
96.5043	151.5698	189.5401	232.9714	254.6165	294.5134	353.3078	374.4178	420.598	478.7135	554.8528	643.5279	696.012	836.124	844.4777	872.3576	886.3061	893.7756	937.0035	949.818	1003.467	1015.6884	1038.387	1060.1244	1081.0346	1115.2648	1148.0814	1162.1961	1181.7021	1213.8008	1223.3533	1259.184	1294.5553	1336.6856	1345.3859	1362.2306	1407.7684	1413.0239	1466.5553	1478.083	1483.6778	1488.2533	1492.1318	1520.5045	1713.3821	3000.0327	3004.5966	3016.6401	3031.2643	3049.803	3054.3857	3061.9871	3068.7259	3101.2596	3109.0179	3109.9942	3177.144
CC1=CC2COC2(C)C1	CC1=C[C@H]2CO[C@@]2(C)C1	
InChI=1S/C8H12O/c1-6-3-7-5-9-8(7,2)4-6/h3,7H,4-5H2,1-2H3	InChI=1S/C8H12O/c1-6-3-7-5-9-8(7,2)4-6/h3,7H,4-5H2,1-2H3/t7-,8-/m0/s1
