22
gdb 122077	2.09864	0.84763	0.63176	4.6703	84.33	-0.2335	0.034	0.2676	1820.2805	0.194006	-400.52972	-400.518705	-400.517761	-400.566809	38.668	
C	-0.3575998772	 1.6802859668	-0.4745398144	-0.380873
C	-0.153058506	 0.1675226813	-0.3657084067	-0.181522
C	 0.6288661648	-0.4085883608	-1.5452656694	-0.117759
N	 0.780217777	-1.8547265936	-1.4130969977	-0.296484
C	 1.5572236772	-2.4827933569	-2.4680802789	-0.092774
C	 1.9434767311	-3.9168240378	-2.0424375626	-0.181489
N	 2.7486481676	-3.8539531632	-0.8222180637	-0.515282
C	 0.7912830949	-2.5271308559	-3.7262027216	 0.302383
N	 0.2101523666	-2.5700480423	-4.7239185631	-0.332554
H	 0.6000207967	 2.2113363268	-0.5119403883	 0.114474
H	-0.9154497806	 1.9401065199	-1.380819926	 0.120491
H	-0.9178501236	 2.0659112938	 0.3823097135	 0.115072
H	 0.3795727458	-0.0659520173	 0.5665209059	 0.092674
H	-1.1197891478	-0.344710857	-0.3050620911	 0.112398
H	 0.0869551093	-0.2050826844	-2.4777923728	 0.11975
H	 1.6040507539	 0.1097260868	-1.6326763858	 0.07351
H	 1.253352869	-2.0868118115	-0.5429420865	 0.232224
H	 2.4932217908	-1.9321721916	-2.6960123387	 0.093233
H	 1.0201319198	-4.4593129679	-1.8205520978	 0.135899
H	 2.4336424553	-4.4190982487	-2.8883290875	 0.109042
H	 2.7493356009	-4.7522617419	-0.3528391934	 0.242125
H	 3.7159240847	-3.6380753547	-1.0426516036	 0.235461
54.6643	68.7868	105.8644	131.8861	144.4592	159.4289	232.2035	241.2732	264.1952	296.047	358.5157	404.2891	497.2863	547.6185	610.3181	761.1877	806.5691	825.5318	895.0986	898.9749	910.7721	964.4371	1005.8089	1047.3237	1084.2246	1088.5647	1142.6456	1164.2967	1178.8938	1210.8121	1266.7677	1315.4969	1318.4845	1324.1794	1339.5152	1372.412	1412.2269	1413.5491	1419.5284	1490.2682	1494.1956	1496.3437	1500.1291	1505.7481	1522.6641	1658.5723	2359.5392	2886.1723	2909.1698	3003.4078	3014.6089	3031.8142	3040.437	3066.6188	3096.1193	3099.0816	3106.6171	3495.8646	3507.2475	3589.9739
CCCNC(CN)C#N	CCCN[C@@H](CN)C#N	
InChI=1S/C6H13N3/c1-2-3-9-6(4-7)5-8/h6,9H,2-4,7H2,1H3	InChI=1S/C6H13N3/c1-2-3-9-6(4-7)5-8/h6,9H,2-4,7H2,1H3/t6-/m0/s1
