18
gdb 88414	2.12683	1.17886	0.92159	2.6179	73.66	-0.2516	-0.045	0.2066	1324.0528	0.144458	-439.072699	-439.062909	-439.061965	-439.109168	33.75	
C	-0.8697149657	 1.1475743073	 0.0751585209	-0.402003
C	-0.1398489646	-0.172736533	 0.1123685106	 0.007159
N	 1.2324217876	-0.1988536202	-0.4179877379	-0.353265
C	 1.0056259979	-0.4772964233	 1.0143445001	-0.045912
C	 1.6080850221	 0.5118284731	 1.9864767175	-0.187781
C	 1.4407452593	 0.0911749755	 3.4456347815	 0.143673
O	 0.8184176794	-0.8753717574	 3.7989872381	-0.237801
C	 3.0929874536	 0.7955339151	 1.7298123662	 0.149621
O	 3.7453004881	 1.5412656808	 2.412863558	-0.251475
H	-0.187394983	 1.9873714961	 0.2281147333	 0.128172
H	-1.3447020664	 1.2901586675	-0.900955481	 0.127553
H	-1.6530261028	 1.1843109659	 0.8398536087	 0.124825
H	-0.7670753526	-1.0318633898	-0.1217408759	 0.092823
H	 1.4120302329	-1.0600225956	-0.9261983619	 0.236194
H	 1.0804009766	-1.5093058769	 1.347630196	 0.10695
H	 1.1242508352	 1.4962043274	 1.9155858196	 0.136674
H	 1.9601463708	 0.7572268079	 4.1634698781	 0.116544
H	 3.5262850116	 0.2521982994	 0.866219348	 0.10805
22.6948	69.8935	104.3578	137.8676	181.0407	199.2308	214.8021	326.6475	388.3037	398.6134	508.3612	587.8185	647.221	785.1795	811.7415	858.5902	873.8179	940.8062	986.5287	1007.8893	1043.1978	1061.3636	1089.1656	1118.0278	1158.5797	1203.6476	1211.6158	1249.5527	1268.6177	1278.2775	1394.4794	1402.7873	1410.88	1433.0815	1467.8207	1490.95	1504.4369	1804.5911	1838.2983	2933.8474	2939.697	3025.4658	3038.5719	3101.0997	3109.0157	3126.8905	3143.9666	3510.1939
CC1NC1C(C=O)C=O	C[C@H]1N[C@H]1C(C=O)C=O	
InChI=1S/C6H9NO2/c1-4-6(7-4)5(2-8)3-9/h2-7H,1H3	InChI=1S/C6H9NO2/c1-4-6(7-4)5(2-8)3-9/h2-7H,1H3/t4-,6-/m1/s1
