16
gdb 28678	3.43728	1.10001	0.84509	1.9125	75.94	-0.2235	0.0164	0.2399	1310.4708	0.125503	-396.994907	-396.986338	-396.985393	-397.029715	30.319	
C	-0.5569456412	 1.307993441	 0.2044544921	-0.508221
C	-0.0523372153	-0.0732668952	-0.0389989347	 0.295998
C	 0.8034780526	-0.5983206905	-0.9736368553	-0.168443
N	 0.9592657656	-1.9562635555	-0.8012647632	-0.314523
C	 0.2090772042	-2.2581190483	 0.2300558035	 0.36661
C	 0.080201058	-3.6376582322	 0.8193607218	-0.451974
C	-1.0340929629	-3.7395091911	 1.7595361999	 0.263017
N	-1.9132687284	-3.7674723561	 2.5088357902	-0.310961
N	-0.4239849116	-1.158240956	 0.7325523289	-0.337137
H	-0.2828627953	 1.6789719278	 1.1994046048	 0.134499
H	-0.1285495666	 1.9907138684	-0.5328096147	 0.145172
H	-1.6485397295	 1.3699817399	 0.1196211329	 0.135634
H	 1.3137456134	-0.0705716937	-1.7654735136	 0.108484
H	-0.0549182047	-4.3637707615	 0.0111452738	 0.185546
H	 1.0028129106	-3.9223144541	 1.3410621935	 0.178532
H	-1.0705560088	-1.1509888929	 1.5061105301	 0.277767
19.5109	105.7066	128.0802	178.7164	260.8105	294.8338	375.9976	394.4081	497.6986	563.6495	644.8192	657.6232	689.2799	755.3112	844.6904	946.3875	950.0176	993.4022	1011.8177	1050.9867	1065.257	1173.0365	1205.1324	1216.0296	1286.4898	1310.121	1390.4862	1419.0982	1454.582	1475.53	1480.0596	1495.6678	1533.7406	1628.2014	2364.1669	3023.4542	3036.0131	3070.8041	3083.8201	3125.1231	3247.9661	3640.9689
CC1=CN=C(CC#N)N1	Cc1cnc(CC#N)[nH]1	
InChI=1S/C6H7N3/c1-5-4-8-6(9-5)2-3-7/h4H,2H2,1H3,(H,8,9)	InChI=1S/C6H7N3/c1-5-4-8-6(9-5)2-3-7/h4H,2H2,1H3,(H,8,9)
