17
gdb 113287	2.38252	1.16855	0.90231	2.0386	77.05	-0.2537	-0.0383	0.2154	1298.5615	0.132683	-421.782089	-421.772441	-421.771497	-421.8167	34.852	
O	 0.135594418	 1.2762082631	-0.2868926401	-0.411711
C	 0.0776114739	-0.0799345551	 0.1352545669	-0.112622
C	-1.351410544	-0.5833213691	 0.1004556321	-0.051653
C	-1.9458070682	-1.198485	-1.1141809293	-0.32121
C	-1.712549678	-2.0951337672	 0.110532422	 0.023947
C	-0.6124206083	-3.10833627	-0.0050771717	 0.090075
O	 0.3004488073	-3.0445991287	-0.7924547859	-0.265021
C	-2.8339192081	-2.5011829695	 0.9097008784	 0.223749
C	-3.7568767032	-2.8706379112	 1.5868243623	-0.407999
H	-0.0835832361	 1.2993929071	-1.2241549487	 0.285622
H	 0.730473235	-0.7237311755	-0.4632018546	 0.128306
H	 0.4506639493	-0.0835232348	 1.1644738052	 0.118636
H	-2.028216758	 0.0000131603	 0.7174885918	 0.120923
H	-2.978038311	-0.9917064151	-1.3689004657	 0.138093
H	-1.2827201675	-1.420185661	-1.9448985628	 0.144742
H	-0.7077193654	-3.955910597	 0.7042204488	 0.09756
H	-4.5770923658	-3.1885321864	 2.1817116812	 0.198563
80.3249	128.1144	131.6143	140.5831	173.0513	245.5698	271.001	324.8532	388.1861	417.1257	518.0779	534.851	562.2983	591.2947	664.6902	731.4671	807.9722	891.7016	897.1911	939.1686	1025.0044	1044.8534	1061.8863	1080.9359	1101.992	1149.808	1231.1881	1253.8613	1279.4995	1363.4488	1409.3616	1423.6657	1432.8081	1471.4447	1513.6961	1803.6704	2235.873	2925.3183	3047.4659	3093.8989	3135.2986	3164.8523	3236.1196	3501.7806	3814.4241
OCC1CC1(C=O)C#C	OC[C@H]1C[C@]1(C=O)C#C	
InChI=1S/C7H8O2/c1-2-7(5-9)3-6(7)4-8/h1,5-6,8H,3-4H2	InChI=1S/C7H8O2/c1-2-7(5-9)3-6(7)4-8/h1,5-6,8H,3-4H2/t6-,7+/m1/s1
