21
gdb 114794	3.18263	1.23536	1.11761	1.4592	83.54	-0.2414	0.0186	0.26	1209.3883	0.1837	-387.094354	-387.086061	-387.085117	-387.127452	32.09	
C	 0.2867527943	 1.4880581069	 0.1295015728	-0.380247
C	-0.0242706354	-0.0070742099	 0.0034686098	-0.195182
C	 0.5471813456	-0.6032541495	-1.268680062	 0.160396
O	 1.9944117002	-0.5129959746	-1.3326584457	-0.316205
C	 2.1178687804	-1.8897724138	-1.7550737566	 0.131327
C	 2.9349469842	-2.7481761306	-0.7768076379	-0.27392
C	 1.8776880149	-3.3134810692	 0.1446471823	-0.062506
C	 0.6371893513	-2.9991417141	-0.2336171058	-0.074157
C	 0.6137136669	-2.1456400559	-1.4716093092	-0.158342
H	 1.3673966848	 1.6547276234	 0.1112301787	 0.137146
H	-0.1542345874	 2.0577441936	-0.6961455027	 0.110861
H	-0.1069904159	 1.8960581733	 1.0651905973	 0.108917
H	 0.384445939	-0.5498677569	 0.8626052246	 0.10342
H	-1.1104160623	-0.171293134	 0.0049614795	 0.090549
H	 0.1051469848	-0.1039103783	-2.1454275082	 0.063689
H	 2.4596666314	-1.9552330065	-2.7938457584	 0.069932
H	 3.4981861617	-3.5414173263	-1.2864060874	 0.101605
H	 3.6674624732	-2.1217842771	-0.253537155	 0.120835
H	 2.1261811202	-3.917327292	 1.0110894119	 0.093894
H	-0.2655059554	-3.3083833686	 0.2819718117	 0.093785
H	-0.0216584766	-2.53868655	-2.2693463598	 0.074204
82.971	107.054	150.5679	217.7495	255.7024	347.3368	401.053	448.501	510.9025	665.996	746.9388	757.962	778.3235	815.0574	861.6099	868.3852	925.0157	938.4102	954.221	967.2844	977.5717	1015.8591	1031.8445	1048.0746	1090.8877	1116.5766	1131.788	1161.4275	1180.6393	1217.4309	1250.8815	1270.5204	1283.1539	1312.4529	1319.0465	1334.6633	1359.9404	1382.3498	1405.4994	1422.6252	1466.2093	1476.9729	1497.3405	1508.4134	1674.8107	2972.506	3015.9315	3020.714	3035.1218	3043.0073	3060.2852	3071.2505	3075.5065	3102.0237	3118.6684	3178.6014	3203.5061
CCC1OC2CC=CC12	CC[C@H]1O[C@H]2CC=C[C@@H]12	
InChI=1S/C8H12O/c1-2-7-6-4-3-5-8(6)9-7/h3-4,6-8H,2,5H2,1H3	InChI=1S/C8H12O/c1-2-7-6-4-3-5-8(6)9-7/h3-4,6-8H,2,5H2,1H3/t6-,7+,8-/m0/s1
