23
gdb 65079	2.97068	1.34266	1.19811	0.1385	89.55	-0.258	0.0876	0.3456	1174.0333	0.206579	-351.100083	-351.091622	-351.090678	-351.133089	34.313	
C	-0.0480472896	 1.4536907521	 0.3380987468	-0.474709
C	-0.0164335183	-0.0317464697	 0.0269371822	 0.206965
C	 1.02437653	-0.5285916878	-0.9509156826	-0.303304
C	 1.1663686376	-0.8338717803	 0.5208091895	-0.303287
C	-1.3599417398	-0.6951555168	 0.0190586335	 0.349071
C	-2.3819949567	-0.7812417505	 1.2035517871	-0.257512
C	-3.0616134398	-1.5115391092	 0.0140265796	-0.051071
C	-2.5853949702	-0.344374881	-0.8921218714	-0.257543
C	-1.6943086173	-2.1959312556	-0.2613556711	-0.268881
H	 0.9607403505	 1.878112375	 0.3288662078	 0.110228
H	-0.6470447768	 2.0013073757	-0.3983350326	 0.117206
H	-0.4806874462	 1.6434621218	 1.3269520592	 0.117194
H	 0.7589525579	-1.3447421216	-1.6138796335	 0.108628
H	 1.695159851	 0.2019648194	-1.391113862	 0.106136
H	 1.9337870663	-0.3110866028	 1.0822360013	 0.106137
H	 0.9961601914	-1.8547403688	 0.8447445618	 0.108616
H	-2.0866111212	-1.3978102966	 2.0576751271	 0.085497
H	-2.8390422256	 0.1582131933	 1.5276641216	 0.085918
H	-4.04225633	-1.9879639318	 0.0098892398	 0.069359
H	-3.0579300424	 0.6282947896	-0.7273883804	 0.085921
H	-2.4764839695	-0.5604544135	-1.9590738624	 0.085499
H	-1.523643209	-2.555475681	-1.2805383764	 0.086967
H	-1.3526263524	-2.9229019399	 0.4815495752	 0.086966
51.398	181.0196	182.0779	225.6371	294.7026	323.7783	393.1417	459.3977	513.6445	552.8565	555.0936	782.1157	794.8868	804.8018	816.9024	866.2075	883.6652	919.1543	949.4652	955.0658	957.9288	962.5401	968.6254	998.2389	1038.1564	1065.1425	1078.645	1095.4388	1098.373	1120.3878	1140.9786	1141.1186	1159.358	1161.8401	1179.1411	1191.7948	1237.0968	1237.1138	1253.6942	1321.4066	1394.6163	1413.9797	1464.6924	1490.5709	1493.3558	1497.5335	1498.7013	1508.8883	1553.4187	3024.8299	3037.2404	3040.5101	3048.0187	3086.8134	3098.702	3100.9876	3107.139	3108.4281	3109.3587	3128.1854	3132.3885	3206.4814	3220.8663
CC1(CC1)C12CC(C1)C2	CC1(CC1)[C@@]12C[C@@H](C1)C2	
InChI=1S/C9H14/c1-8(2-3-8)9-4-7(5-9)6-9/h7H,2-6H2,1H3	InChI=1S/C9H14/c1-8(2-3-8)9-4-7(5-9)6-9/h7H,2-6H2,1H3/t7-,9-
