13
gdb 128974	4.03633	1.78302	1.23671	2.6577	74.08	-0.2422	-0.0716	0.1707	905.325	0.094887	-411.834549	-411.828946	-411.828002	-411.864443	22.592	
N	 0.0408810099	 1.3148996475	 0.0092298885	-0.149561
C	 1.2696477004	 1.8728912819	 0.0002364682	-0.148794
C	 2.1471996178	 0.7894955687	-0.0143891928	 0.248011
N	 3.498682824	 0.7081329733	-0.028126147	-0.328696
C	 3.9448449256	-0.5281676926	-0.0393639838	-0.042236
C	 3.0940848098	-1.6804504242	-0.0373929669	-0.026924
N	 1.7814177112	-1.6293053808	-0.0242019614	-0.302152
C	 1.2952340627	-0.3663176128	-0.0124186361	 0.391419
N	-0.0045881171	-0.0286841933	 0.0022415894	-0.31724
H	-0.8363836352	 1.8116251753	 0.0206033098	 0.290103
H	 1.4231786564	 2.9393683645	 0.0046365946	 0.15444
H	 5.0230830109	-0.6700091943	-0.0507555927	 0.114433
H	 3.5517850536	-2.6676475632	-0.0473626499	 0.117197
239.1714	259.0288	468.4725	476.0155	564.5573	607.4839	634.9844	650.0026	698.47	758.0774	774.9714	851.9638	891.7053	935.7306	943.8461	988.7438	1036.3388	1071.7355	1195.4204	1235.2653	1320.7855	1357.4337	1370.8426	1411.3324	1416.7329	1499.2039	1556.9919	1584.5522	1616.6698	3145.436	3164.283	3274.9964	3649.3903
N1C=C2N=CC=NC2=N1	[nH]1cc2nccnc2n1	
InChI=1S/C5H4N4/c1-2-7-5-4(6-1)3-8-9-5/h1-3H,(H,7,8,9)	InChI=1S/C5H4N4/c1-2-7-5-4(6-1)3-8-9-5/h1-3H,(H,7,8,9)
