17
gdb 18836	4.03181	2.10314	1.87457	2.1226	66.11	-0.2261	0.0734	0.2996	764.3968	0.144765	-363.818922	-363.812652	-363.811707	-363.848984	25.647	
O	-0.0412153089	 1.4164737328	-0.0441350379	-0.443933
C	 0.020685149	-0.0008152595	 0.0080550624	 0.1418
C	 0.621195393	-0.5234471571	 1.3448452535	-0.28316
C	-0.5992756631	-0.8023999941	 2.21322784	-0.005719
C	-1.8417475672	-0.3859513911	 1.5385257418	-0.037556
C	-1.4171742284	-0.5138585092	 0.054353978	-0.06417
C	-1.4223408212	-2.0386582243	 0.3091838667	-0.17121
N	-1.5801238346	-1.8508959399	 1.7930199185	-0.155641
H	 0.8570276785	 1.7589571045	 0.0021633383	 0.281462
H	 0.5605705939	-0.4013416383	-0.8639297111	 0.062082
H	 1.2428618683	-1.4138442193	 1.2003031899	 0.106667
H	 1.2541678201	 0.2426075663	 1.8047038422	 0.097619
H	-0.5136524487	-0.7481433501	 3.2928628045	 0.094437
H	-2.6767238182	 0.1525963688	 1.9691769757	 0.09147
H	-2.0566416361	-0.1159954433	-0.7317363226	 0.079125
H	-2.3194864142	-2.53400873	-0.067856208	 0.112563
H	-0.5421724822	-2.6162336461	 0.0008091582	 0.094163
147.5808	298.9339	304.1775	379.7737	421.5812	455.4212	686.2972	716.6057	766.4863	780.4902	825.891	852.0407	883.2981	920.4667	933.7494	957.6739	1006.3624	1012.2168	1052.1558	1054.8059	1077.2523	1120.9831	1162.7312	1181.2427	1198.331	1216.4775	1256.8726	1276.2218	1282.4597	1291.9004	1312.4259	1356.6649	1396.675	1424.4002	1474.6658	1508.9774	2980.7973	3028.2501	3043.8279	3081.8851	3103.4226	3131.3815	3172.6358	3191.7787	3816.3159
OC1CC2C3C1CN23	O[C@H]1C[C@H]2[C@H]3[C@@H]1CN23	
InChI=1S/C6H9NO/c8-5-1-4-6-3(5)2-7(4)6/h3-6,8H,1-2H2	InChI=1S/C6H9NO/c8-5-1-4-6-3(5)2-7(4)6/h3-6,8H,1-2H2/t3-,4+,5+,6-,7?/m1/s1
