16
gdb 83066	2.72628	1.47019	1.24593	4.5089	74.99	-0.2504	-0.018	0.2324	1035.7172	0.125173	-400.755741	-400.74808	-400.747136	-400.787692	29.734	
O	 0.0769783114	 1.3611002932	 0.0512562403	-0.415142
C	-0.0482718416	-0.0139378923	 0.0088056893	 0.10401
C	-1.3647487245	-0.7243847575	 0.007734077	-0.145702
C	-2.6055428547	 0.0976083836	-0.3376964056	-0.287329
C	-2.3464138745	 0.5859941934	-1.74735516	-0.104494
C	-1.2166743859	 0.0894044875	-2.2608451486	-0.154318
C	-0.4827197736	-0.7588313477	-1.2725986437	 0.107245
C	 0.2452949454	-1.9151838804	-1.6974080893	 0.195732
N	 0.8456203891	-2.8466637753	-2.0325673295	-0.34644
H	-0.4677209282	 1.7370529964	-0.6537863025	 0.290759
H	 0.7594646588	-0.4868867008	 0.5567735899	 0.134473
H	-1.4669116338	-1.6187642638	 0.6102895038	 0.117262
H	-3.5210615696	-0.502918489	-0.2854484992	 0.129788
H	-2.7347472447	 0.9303689784	 0.3660266342	 0.132378
H	-3.0152951018	 1.26730611	-2.2604167406	 0.11634
H	-0.8269449117	 0.2767753741	-3.2535884356	 0.12544
136.8401	159.9681	200.8095	224.4121	337.0798	403.2113	473.0966	482.5714	544.7136	594.0507	616.0765	724.0663	747.8876	775.5017	852.8604	864.7207	937.8624	957.1638	970.0848	1008.2054	1042.2859	1078.3593	1103.7752	1152.5294	1185.1781	1209.1616	1243.5017	1307.0199	1329.8375	1341.5364	1386.7603	1448.6009	1474.307	1659.5281	2345.0626	3027.9536	3060.4023	3180.0092	3191.3888	3198.9949	3224.2816	3742.7245
OC1C2CC=CC12C#N	O[C@H]1[C@H]2CC=C[C@@]12C#N	
InChI=1S/C7H7NO/c8-4-7-3-1-2-5(7)6(7)9/h1,3,5-6,9H,2H2	InChI=1S/C7H7NO/c8-4-7-3-1-2-5(7)6(7)9/h1,3,5-6,9H,2H2/t5-,6+,7+/m1/s1
