14
gdb 124364	5.17554	1.03375	0.86631	4.6303	66.74	-0.2617	-0.0332	0.2286	1260.0592	0.101054	-470.038394	-470.030273	-470.029329	-470.072487	28.001	
C	-0.0111484931	 1.5167489511	-0.0946412005	-0.506835
C	-0.0192808011	 0.0234115509	 0.172879526	 0.405045
O	-0.0639956955	-0.4747201178	 1.2678530752	-0.301283
N	 0.0298264179	-0.736604882	-1.0036219559	-0.447665
C	 0.0370316203	-2.1001772031	-1.1283703746	 0.576259
N	 0.0844069426	-2.7276358022	-2.2740390334	-0.373855
C	 0.0695271215	-4.0305182026	-1.8531530793	 0.051789
N	 0.0176598035	-4.2156475356	-0.5642373021	-0.118156
O	-0.0048731306	-2.8896057732	-0.0602619497	-0.18004
H	 0.8980500807	 1.8124993506	-0.6286391076	 0.15031
H	-0.8701323032	 1.8085965782	-0.7079932547	 0.150092
H	-0.0549965865	 2.0387887027	 0.8599670988	 0.165332
H	 0.0651471403	-0.260173734	-1.8926054607	 0.279069
H	 0.0983789033	-4.8705130728	-2.5322870514	 0.149937
53.9691	71.1958	95.4162	151.6436	317.4397	341.2351	369.0373	561.3698	598.7823	611.735	643.4945	772.347	786.9689	880.4627	935.3254	954.4946	981.2936	990.1501	1043.6802	1052.6378	1203.9953	1207.9071	1279.7351	1377.6426	1394.2916	1462.4439	1482.1673	1487.8232	1557.7068	1642.7555	1837.4994	3044.5073	3107.4574	3171.3098	3259.2664	3628.2221
CC(=O)NC1=NC=NO1	CC(=O)Nc1ncno1	
InChI=1S/C4H5N3O2/c1-3(8)7-4-5-2-6-9-4/h2H,1H3,(H,5,6,7,8)	InChI=1S/C4H5N3O2/c1-3(8)7-4-5-2-6-9-4/h2H,1H3,(H,5,6,7,8)
