21
gdb 90955	2.59748	1.69241	1.41173	1.2982	82.33	-0.259	0.0773	0.3363	1028.9478	0.183961	-387.061928	-387.054024	-387.05308	-387.093779	32.307	
C	 0.0346558664	 1.5230369799	-0.0518771715	-0.517631
C	 0.0297040373	 0.0169456046	-0.0329553133	 0.345874
C	 0.6072448253	-0.9516088858	-1.0990735492	-0.282938
C	 0.0126382954	-1.8710185608	-0.0097140497	-0.074939
C	 0.5999454089	-0.9270106011	 1.0862129747	-0.034843
C	-0.3474651618	-0.9216491711	 2.2838789429	-0.286594
C	-1.7142759898	-0.8982712933	 1.5353669099	 0.096938
O	-2.4725980268	 0.2899493332	 1.7378194913	-0.44057
C	-1.2220683924	-0.9258087322	 0.0942716307	-0.034445
H	 1.058548896	 1.9142170895	-0.0483747335	 0.108629
H	-0.4642978601	 1.9025199673	-0.9506244924	 0.116091
H	-0.4971625392	 1.9231997058	 0.8156833308	 0.132003
H	 0.1129889425	-0.9581548046	-2.0757171199	 0.084262
H	 1.6960813023	-0.9644179497	-1.213309883	 0.082582
H	-0.0014483619	-2.9625949922	 0.0113738532	 0.062095
H	 1.6777826347	-0.9329447067	 1.264905824	 0.055548
H	-0.2243449824	-1.8063842658	 2.9178249236	 0.091669
H	-0.236036309	-0.0329958234	 2.9142903354	 0.094364
H	-2.327210295	-1.7799776954	 1.7744027072	 0.059652
H	-2.7646205704	 0.3043217716	 2.6544634501	 0.281115
H	-1.97164772	-0.9262555498	-0.6993874312	 0.06114
132.4395	200.5432	204.8745	284.3799	289.9485	350.7765	399.0379	460.9944	483.0131	631.7616	670.8746	715.7328	779.7347	814.6243	861.8311	882.3769	903.1627	932.6655	969.8103	978.8285	1006.9404	1015.7444	1036.83	1044.6135	1062.7923	1099.4938	1121.9742	1146.8893	1184.6932	1198.2876	1206.7119	1219.3381	1233.9923	1245.2758	1264.3218	1286.936	1310.0707	1338.0355	1386.9422	1408.011	1425.1384	1484.0922	1486.8062	1498.1333	1522.8578	2985.0949	3027.5255	3036.4522	3038.6407	3082.5081	3084.1648	3087.8497	3091.0797	3094.8006	3104.5775	3115.5358	3818.9954
CC12CC3C1CC(O)C23	C[C@@]12C[C@H]3[C@@H]1C[C@@H](O)[C@@H]23	
InChI=1S/C8H12O/c1-8-3-4-5(8)2-6(9)7(4)8/h4-7,9H,2-3H2,1H3	InChI=1S/C8H12O/c1-8-3-4-5(8)2-6(9)7(4)8/h4-7,9H,2-3H2,1H3/t4-,5-,6+,7-,8+/m0/s1
