17
gdb 26025	4.31363	1.01122	0.90918	4.7355	75.43	-0.1979	0.0175	0.2154	1284.5405	0.136963	-418.068635	-418.059903	-418.058958	-418.104462	31.584	
N	-0.028108101	 1.2874122272	-0.1999365992	-0.517854
C	 0.0155068789	 0.0357837586	 0.341967668	 0.404725
O	 0.9462119355	-0.3715361366	 1.0009596948	-0.334939
C	-1.2664569409	-0.7912662336	 0.1176072825	-0.295015
N	-1.0226715377	-2.2076301573	 0.0371005635	 0.050798
C	-1.0389231797	-2.9505292955	-1.1228232912	-0.096692
C	-0.7217916652	-4.248700607	-0.8054398574	-0.167123
C	-0.4977048406	-4.296638803	 0.5992756933	-0.170804
C	-0.6863072409	-3.0265859657	 1.0886679564	-0.077404
H	 0.7809916568	 1.8773812266	-0.0893773273	 0.266776
H	-0.7358236254	 1.5671262973	-0.8560921824	 0.260905
H	-1.9357749741	-0.576040179	 0.9600127362	 0.147736
H	-1.7857911702	-0.4761647014	-0.7918947975	 0.116899
H	-1.2886077146	-2.4879512406	-2.064898614	 0.106209
H	-0.6666046186	-5.0727062809	-1.5001546868	 0.091044
H	-0.2294897857	-5.1634288739	 1.1834425807	 0.091565
H	-0.5833129067	-2.6222219253	 2.0818110703	 0.123174
14.0712	38.543	102.2704	199.1655	279.2435	330.245	372.3432	492.1493	582.508	621.4872	628.0173	654.4114	671.1041	735.4719	788.7533	799.5287	838.9125	847.3707	884.6373	971.2267	989.722	1081.2991	1085.5166	1101.3449	1118.2278	1208.0552	1301.1059	1307.1025	1329.6099	1392.3867	1423.7372	1435.6777	1466.6302	1533.9589	1566.1987	1620.4216	1818.5613	3032.3952	3091.8943	3238.7466	3250.1672	3263.1459	3279.6752	3599.1517	3733.7324
NC(=O)CN1C=CC=C1	NC(=O)Cn1cccc1	
InChI=1S/C6H8N2O/c7-6(9)5-8-3-1-2-4-8/h1-4H,5H2,(H2,7,9)	InChI=1S/C6H8N2O/c7-6(9)5-8-3-1-2-4-8/h1-4H,5H2,(H2,7,9)
