21
gdb 75209	3.39099	1.21555	1.03144	1.099	84.6	-0.2297	0.0309	0.2606	1234.236	0.182775	-387.101125	-387.092439	-387.091495	-387.133869	34.611	
C	 0.6839082848	 1.3370073491	 0.2196198415	-0.47569
C	 0.0119757242	 0.0040109737	 0.0300103387	 0.31058
C	 0.0747505407	-0.6663513158	-1.1230869508	-0.147414
C	-0.6069386807	-1.9805777108	-1.3927614123	-0.336178
C	-1.0045601529	-2.7365229501	-0.1377614939	 0.404882
O	-2.0069562358	-3.7020802761	-0.3300046134	-0.474204
C	 0.0267627233	-3.0078790586	 0.9303489533	-0.351264
C	-1.0845540769	-1.9968179504	 1.1610953462	-0.060868
C	-0.7697920144	-0.5140570872	 1.2160294943	-0.31432
H	 1.4230667497	 1.2970178677	 1.0303262377	 0.121075
H	 1.1920213581	 1.6681097703	-0.6900075122	 0.118181
H	-0.0429670507	 2.1096728089	 0.5029615614	 0.121328
H	 0.6311383437	-0.2362170444	-1.9532628323	 0.075111
H	-1.5226479884	-1.8113818648	-1.9782085993	 0.117625
H	 0.035718069	-2.61157282	-2.0251319998	 0.091895
H	-1.621909631	-4.4266858063	-0.8358211261	 0.27715
H	-0.0484070686	-3.9531226883	 1.4561033869	 0.106879
H	 1.0353371913	-2.6356061079	 0.7809373695	 0.110668
H	-1.8763445059	-2.3290109145	 1.8250153196	 0.091868
H	-0.2231861695	-0.2838463954	 2.1421658879	 0.100741
H	-1.70959219	 0.0541386109	 1.2885692033	 0.111957
92.0709	181.6806	215.6605	269.0239	291.216	316.6776	338.433	386.7061	402.6392	451.7165	484.4803	561.4578	668.6117	706.0856	785.3973	815.0197	850.6313	909.923	924.9078	943.8469	973.2718	1007.7786	1029.6724	1045.4418	1067.3786	1089.0062	1105.9272	1116.2187	1176.7403	1184.3919	1246.0265	1255.1909	1272.7222	1316.8742	1346.459	1377.9085	1391.9274	1413.1997	1417.1357	1473.9312	1478.4595	1481.3076	1492.824	1502.5004	1741.9245	2989.2451	2991.047	3012.0064	3013.5288	3014.0553	3057.5903	3109.9634	3127.9928	3143.8919	3160.2418	3221.04	3787.8146
CC1=CCC2(O)CC2C1	CC1=CC[C@@]2(O)C[C@H]2C1	
InChI=1S/C8H12O/c1-6-2-3-8(9)5-7(8)4-6/h2,7,9H,3-5H2,1H3	InChI=1S/C8H12O/c1-6-2-3-8(9)5-7(8)4-6/h2,7,9H,3-5H2,1H3/t7-,8-/m1/s1
