18
gdb 58982	3.99002	1.01495	0.87424	13.4232	78.52	-0.1282	0.0019	0.1301	1325.6611	0.1472	-439.040257	-439.031182	-439.030238	-439.074152	33.751	
C	 0.0954758732	 1.3468175354	-0.3436411817	-0.346164
N	 0.0507173424	-0.0767332047	 0.1394851676	-0.138977
H	 0.5888901647	-0.6325681991	-0.5313830337	 0.294457
C	 0.7077075289	-0.2273720371	 1.4717261705	-0.345258
C	-1.3158725355	-0.6137719408	 0.0993728092	 0.192292
C	-2.0010070113	-0.8900741664	-1.1061225958	-0.52905
C	-3.289267123	-1.3505005929	-0.7376098143	 0.419208
O	-4.2812284181	-1.7332621277	-1.3186038364	-0.425879
O	-3.303861685	-1.3114416771	 0.7264549184	-0.237155
C	-2.1066159144	-0.8642659336	 1.1774466504	-0.099038
H	-1.9641510632	-0.7907649254	 2.2425878837	 0.102022
H	 1.1345040758	 1.6701990309	-0.4405353042	 0.145777
H	-0.4258211967	 1.385477965	-1.2986642306	 0.19579
H	-0.43955152	 1.9537714243	 0.3864811087	 0.180616
H	 1.7350333901	 0.1336891833	 1.410660704	 0.154063
H	 0.14204065	 0.3652872124	 2.1901743392	 0.183336
H	 0.6710590565	-1.2792074467	 1.7508966451	 0.185206
H	-1.6413783742	-0.8182337096	-2.1200216	 0.068755
56.8323	115.6531	195.3058	216.5714	242.3971	256.2964	331.1553	363.3617	426.4666	471.9611	528.6306	554.0611	597.1509	620.1868	654.8215	734.7116	767.978	884.0634	960.4866	1000.2816	1039.5938	1048.6997	1154.8783	1158.0961	1183.1846	1189.4412	1256.9676	1321.7451	1352.9967	1411.7129	1433.1449	1437.4779	1465.0641	1474.6457	1480.7902	1492.392	1511.3235	1624.1658	1837.7159	3065.1345	3079.2186	3165.6455	3171.8217	3185.9239	3187.412	3248.563	3263.4973	3393.6645
C[NH+](C)C1=CC(=O)O[CH-]1	C[NH](C)C1=COC(=O)[CH]1	
InChI=1S/C6H8NO2/c1-7(2)5-3-6(8)9-4-5/h3-4H,1-2H3/q-1/p+1	InChI=1S/C6H9NO2/c1-7(2)5-3-6(8)9-4-5/h3-4,7H,1-2H3
