17
gdb 98998	5.35868	0.75855	0.67356	5.2586	69.03	-0.2548	0.0183	0.2731	1650.5623	0.134282	-492.354008	-492.343453	-492.342509	-492.391347	34.655	
C	-0.0537808609	 1.3837526041	-0.2359422614	-0.324999
N	 0.1011837919	-0.0374885983	 0.0187224427	-0.369039
C	 0.6148722904	-0.4689927102	 1.2210222843	 0.517293
O	 0.8618190876	 0.2546264512	 2.1546756363	-0.354994
N	 0.772284516	-1.8703435078	 1.2391216346	-0.47756
C	 1.380140503	-2.6088898021	 2.2426824136	 0.543
O	 1.995194714	-2.1990979574	 3.1862430568	-0.36133
O	 1.1740586836	-3.9224345475	 1.9573288109	-0.27585
C	 1.7703810024	-4.8294267318	 2.8897364449	-0.236247
H	 0.8307081924	 1.8237951304	-0.7138640712	 0.127426
H	-0.9242718402	 1.5553043691	-0.8751045282	 0.124682
H	-0.2050435693	 1.8795746219	 0.7229151507	 0.172824
H	 0.1970985847	-0.6403169043	-0.7827150881	 0.239756
H	 0.312210075	-2.4193819134	 0.5299126166	 0.255578
H	 2.853537248	-4.6890375461	 2.928489519	 0.143027
H	 1.3607048817	-4.6796594168	 3.891737122	 0.144916
H	 1.5283917196	-5.8279390813	 2.5250329465	 0.131516
43.4786	58.5889	71.3085	101.4957	127.9228	152.24	182.2897	280.9259	315.8381	358.7003	404.1268	438.4154	542.2998	717.102	747.0502	770.0062	783.2335	935.9844	982.9193	1067.9608	1152.2123	1161.3703	1167.0304	1181.206	1183.5534	1216.8929	1273.3692	1443.0638	1467.7178	1480.9695	1489.4438	1497.9408	1501.5273	1523.923	1551.6551	1811.4291	1884.7694	3022.8729	3052.2407	3092.0281	3127.3051	3157.1404	3159.6742	3626.4058	3635.5067
CNC(=O)NC(=O)OC	CNC(=O)NC(=O)OC	
InChI=1S/C4H8N2O3/c1-5-3(7)6-4(8)9-2/h1-2H3,(H2,5,6,7,8)	InChI=1S/C4H8N2O3/c1-5-3(7)6-4(8)9-2/h1-2H3,(H2,5,6,7,8)
