20
gdb 109255	3.49202	1.12354	0.94838	1.0023	80.5	-0.2225	0.0223	0.2447	1273.3064	0.172441	-403.125189	-403.116847	-403.115903	-403.158207	32.309	
O	 0.0285963495	 1.1885920289	-0.7959333929	-0.407281
C	-0.0771607786	-0.1543120471	-0.366550132	-0.141016
C	-1.4301715671	-0.545765893	 0.1781796495	 0.236742
C	-2.5011841854	 0.2428073215	 0.09535855	-0.169179
C	-3.839032809	-0.1376906052	 0.6651181071	-0.276651
C	-3.9924841196	-1.6341253448	 0.8846717301	-0.000011
C	-3.6476209719	-2.5897688999	-0.2035024702	-0.24887
N	-2.8190863476	-2.5052900805	 0.9998530544	-0.099364
C	-1.4946192501	-1.8981153635	 0.8526543064	-0.245143
H	-0.1436119387	 1.7496668268	-0.0321925027	 0.282907
H	 0.1558835863	-0.76764621	-1.2475792882	 0.124039
H	 0.69781907	-0.3980102148	 0.3820104377	 0.09376
H	-2.4167599296	 1.2053506992	-0.4006108364	 0.090301
H	-3.9912661623	 0.3798801562	 1.6240657093	 0.112808
H	-4.6459168605	 0.2209958815	 0.0122218583	 0.112299
H	-4.7978424295	-1.9076257604	 1.5643308167	 0.08656
H	-4.200532209	-3.5176993619	-0.3237941952	 0.110459
H	-3.2578745944	-2.1646819773	-1.1264541695	 0.113112
H	-0.8590810435	-2.6157762453	 0.3146793766	 0.109128
H	-1.0602115288	-1.8177055706	 1.860268951	 0.1154
71.0792	136.1218	209.7812	225.4188	312.5442	331.3524	359.9805	411.7229	445.4986	521.0314	582.2369	723.1447	748.1597	797.2904	828.8024	862.9733	939.5985	957.9643	975.7553	992.4451	1031.5288	1054.0641	1086.8397	1096.1531	1113.5377	1123.4945	1163.7806	1173.8713	1212.9235	1237.8075	1281.788	1308.0208	1325.0471	1359.3711	1371.1126	1396.4393	1411.7831	1422.3219	1477.4135	1480.8386	1491.6071	1506.2649	1745.9724	2946.1282	2993.5224	2995.322	3021.8146	3028.4729	3031.4679	3096.8771	3113.6751	3170.7855	3181.7874	3808.3189
OCC1=CCC2CN2C1	OCC1=CC[C@H]2CN2C1	
InChI=1S/C7H11NO/c9-5-6-1-2-7-4-8(7)3-6/h1,7,9H,2-5H2	InChI=1S/C7H11NO/c9-5-6-1-2-7-4-8(7)3-6/h1,7,9H,2-5H2/t7-,8?/m0/s1
