17
gdb 38083	2.71726	1.81602	1.24247	1.6579	84.66	-0.1844	-0.015	0.1694	1001.8789	0.139307	-380.797521	-380.790231	-380.789287	-380.829378	28.734	
N	 0.5642370017	 1.4224152429	 0.5693313069	-0.305965
C	 1.2702774291	 2.4103990034	-0.0552775362	 0.003866
C	 1.5627995942	 2.5749177112	-1.3682380927	-0.128267
C	 1.2261895355	 1.7317037284	-2.4819998631	-0.067773
C	 0.5884382062	 0.5448898273	-2.5212163643	-0.116786
C	 0.105702182	-0.2849980295	-1.3897853229	-0.076081
N	 1.0256634133	-1.3984164502	-0.9983860146	-0.137884
C	 1.3333329217	-1.0848147314	 0.2442049221	-0.209998
C	 0.2714809447	 0.09615772	 0.1168823093	-0.012895
H	 0.5676604331	 1.4880382976	 1.5754138719	 0.251612
H	 1.5808381185	 3.1889023578	 0.6357938714	 0.105935
H	 2.1048898878	 3.4830603194	-1.6064528305	 0.077798
H	 1.5317252042	 2.1310174022	-3.4475665902	 0.085771
H	 0.4481974355	 0.0782433952	-3.4943292987	 0.078094
H	-0.9009565102	-0.6643845998	-1.611880828	 0.094469
H	 1.3572298833	-2.1755979237	-1.5586392939	 0.254739
H	-0.6180670005	-0.243935081	 0.6617498735	 0.103363
78.2314	128.7274	300.4699	328.7864	404.4647	421.8344	485.3475	522.7422	591.9712	683.0394	725.8985	760.819	782.2049	797.5793	858.804	906.5342	923.2692	941.632	946.3626	961.4689	998.7391	1013.9558	1128.1988	1160.1898	1224.3013	1244.6436	1278.3313	1285.0502	1340.8854	1359.8117	1389.4897	1436.086	1483.6306	1500.3137	1563.5794	1659.225	1703.5319	3008.4886	3029.6407	3128.1589	3149.603	3165.9892	3192.0851	3536.8863	3617.5451
N1C2C=CC3C4NC23C14	N1C=CC=C[C@H]2N[C][C@@H]12	
InChI=1S/C7H8N2/c1-2-4-7-3(1)5(9-7)6(7)8-4/h1-6,8-9H	InChI=1S/C7H8N2/c1-2-4-8-7-5-9-6(7)3-1/h1-4,6-9H/t6-,7-/m1/s1
