20
gdb 93937	3.07441	1.19689	1.06745	5.6936	75.47	-0.2479	0.0275	0.2754	1206.6967	0.172903	-440.32864	-440.320098	-440.319154	-440.362032	32.086	
C	-0.2792192328	 1.2630733751	 0.2291345427	-0.328782
N	 0.209057763	-0.1053609871	 0.1959473874	-0.084035
H	-0.6420622053	-1.6011119212	 0.9348446904	 0.297622
C	 0.6425076688	-0.571374627	-1.1302819994	-0.151866
C	 1.456597293	-1.8547217939	-0.8385630377	-0.246525
C	 1.6760389831	-1.8447913015	 0.709695179	-0.13724
C	 1.3467464652	-0.3879436643	 1.0788860621	-0.187091
C	 0.7307420071	-2.8319339472	 1.4015804076	 0.406513
O	 1.1018479181	-3.8533892559	 1.9157952886	-0.339994
O	-0.5699432807	-2.4837668797	 1.3723999126	-0.38204
H	 0.48914186	 1.9900453415	-0.0868485912	 0.106345
H	-1.1407263999	 1.3649012505	-0.4372083725	 0.131018
H	-0.5997142503	 1.5189350766	 1.2430979896	 0.132094
H	-0.2254407361	-0.7403562138	-1.7740134655	 0.11612
H	 1.2780460172	 0.1863784513	-1.6195739237	 0.09441
H	 0.9305194154	-2.7558022566	-1.1603977658	 0.132509
H	 2.4146682351	-1.8358475749	-1.3616670787	 0.117465
H	 2.6900295645	-2.1326435981	 0.9835277673	 0.10403
H	 2.2074428597	 0.270864097	 0.8668593869	 0.094775
H	 1.0632923446	-0.2509095709	 2.1267000502	 0.124672
83.7732	113.6474	146.5435	228.2968	250.7009	310.9236	338.6971	383.0534	408.2388	569.5485	617.4245	759.2632	769.5893	786.1719	863.1581	878.5949	913.0913	924.5436	967.5509	992.6637	1040.6495	1067.9944	1088.5296	1147.0161	1166.1274	1184.5	1216.7418	1244.3553	1263.9152	1274.0298	1292.5953	1318.2063	1337.8695	1358.8088	1386.5185	1457.6361	1468.3724	1491.4945	1498.8469	1502.1118	1510.9642	1531.0582	1861.8667	2948.8837	2956.753	2962.496	3074.022	3075.1921	3079.7921	3083.6219	3115.7614	3118.511	3130.0867	3334.7934
C[NH+]1CCC(C1)C([O-])=O	CN1CC[C@@H](C1)C(=O)O	
InChI=1S/C6H11NO2/c1-7-3-2-5(4-7)6(8)9/h5H,2-4H2,1H3,(H,8,9)	InChI=1S/C6H11NO2/c1-7-3-2-5(4-7)6(8)9/h5H,2-4H2,1H3,(H,8,9)/t5-/m0/s1
