19
gdb 14783	6.54052	0.62886	0.60801	4.0978	70.01	-0.2497	0.0327	0.2824	1792.2907	0.16447	-402.221463	-402.211581	-402.210637	-402.258393	33.237	
O	-0.0131591569	 1.3775625463	 0.1430481122	-0.420773
C	-0.009640776	-0.0389704919	 0.2290973338	-0.074176
C	-1.4042625953	-0.533028113	-0.1321647096	-0.162203
C	-1.5226544679	-2.0588502541	-0.0989971331	-0.188945
C	-2.9373757606	-2.5382472333	-0.4469228703	-0.164248
N	-3.0699151985	-3.9870598764	-0.4455414273	-0.272998
C	-3.6349257975	-4.6790621244	 0.5797589504	 0.153559
O	-4.1225580214	-4.1855590251	 1.5746212692	-0.322821
H	 0.857111432	 1.6973345026	 0.3976308343	 0.286017
H	 0.7308060089	-0.4786311815	-0.460096082	 0.08188
H	 0.2519231626	-0.3775425473	 1.2449491781	 0.087941
H	-2.1229175848	-0.0833305434	 0.5635918297	 0.114077
H	-1.6571966959	-0.1535309249	-1.1301705851	 0.104932
H	-0.8049354944	-2.5038153917	-0.8021841211	 0.08783
H	-1.2617573683	-2.4391526421	 0.8961187827	 0.115973
H	-3.6536848335	-2.1641317549	 0.2884708894	 0.150192
H	-3.2348699625	-2.1543588459	-1.4302910744	 0.107306
H	-2.6576453135	-4.5140954487	-1.1989347767	 0.245102
H	-3.6097481764	-5.7724993801	 0.3979532197	 0.071355
18.2671	58.4745	98.0748	116.3072	141.1745	215.9577	262.728	274.0102	358.6033	370.5081	510.0833	539.8831	726.4626	760.9036	825.4763	936.4723	974.1137	1017.9427	1029.8205	1050.0387	1058.9621	1092.9468	1170.75	1205.9633	1221.7485	1236.8642	1293.6602	1298.9028	1317.9538	1338.764	1372.4581	1408.0376	1431.6655	1464.3102	1477.0419	1489.6436	1503.9221	1529.1828	1535.1168	1806.9911	2929.3529	2956.0813	2982.7701	3011.151	3028.4751	3032.9494	3054.5291	3077.4915	3116.4501	3633.1881	3831.1842
OCCCCNC=O	OCCCCNC=O	
InChI=1S/C5H11NO2/c7-4-2-1-3-6-5-8/h5,7H,1-4H2,(H,6,8)	InChI=1S/C5H11NO2/c7-4-2-1-3-6-5-8/h5,7H,1-4H2,(H,6,8)
