18
gdb 16952	3.41893	2.19928	2.00047	1.5988	70.12	-0.2434	0.0118	0.2552	783.1444	0.156361	-347.80588	-347.799422	-347.798478	-347.836063	26.605	
C	-0.1642888954	 1.5646759642	-0.003242116	-0.41555
C	 0.0460493794	 0.0523952424	-0.0048761491	 0.051454
C	 0.9338195872	-0.5067876087	-1.1606633313	-0.242903
C	 1.9773600519	-1.3475599975	-0.3519644559	 0.025038
O	 1.1710518475	-1.8316630584	 0.7304818771	-0.248626
C	 0.8041541009	-0.5422061273	 1.2364794896	 0.003862
C	 2.1564954645	 0.1531065995	 1.3471672653	-0.076831
C	 2.890247603	-0.3509108172	 0.3543763706	-0.078319
H	 0.7907700685	 2.0992058187	-0.002080544	 0.117469
H	-0.721707276	 1.8822576391	-0.8905166362	 0.11634
H	-0.7344183438	 1.8874422179	 0.8756133453	 0.110267
H	-0.9283099709	-0.4447892105	-0.0372961294	 0.079767
H	 0.3595424113	-1.1504730136	-1.8311725908	 0.103003
H	 1.4047909598	 0.2787784796	-1.7575416362	 0.096473
H	 2.4454565239	-2.174272825	-0.884876516	 0.077653
H	 0.2087892729	-0.6374491218	 2.1444304134	 0.074562
H	 2.402158731	 0.9531172506	 2.0317689333	 0.104063
H	 3.8788876343	-0.061222612	 0.0248955502	 0.10228
157.7805	243.0329	275.5185	378.561	461.7467	490.8975	578.7326	682.9972	727.5834	777.7128	812.4743	835.9959	864.1844	911.005	913.8356	925.4019	942.7304	953.7258	983.8922	1034.523	1067.4161	1098.5828	1108.2465	1132.4717	1174.9572	1223.9682	1244.339	1270.1225	1286.3587	1320.0066	1337.9269	1346.9892	1370.7967	1410.2462	1491.0047	1498.1589	1504.4531	1639.9229	3028.477	3051.0948	3062.9131	3091.4502	3105.5992	3110.3615	3121.2008	3129.2614	3215.0567	3240.9915
CC1CC2OC1C=C2	C[C@H]1C[C@@H]2O[C@H]1C=C2	
InChI=1S/C7H10O/c1-5-4-6-2-3-7(5)8-6/h2-3,5-7H,4H2,1H3	InChI=1S/C7H10O/c1-5-4-6-2-3-7(5)8-6/h2-3,5-7H,4H2,1H3/t5-,6+,7-/m0/s1
