18
gdb 65077	2.05575	1.88155	1.16033	2.3026	72.49	-0.246	-0.0273	0.2186	1074.5497	0.146071	-439.045688	-439.036924	-439.03598	-439.078939	33.473	
O	 0.1582504801	 0.9941724919	-1.000512975	-0.463198
C	-0.0162871812	-0.0457766403	-0.0597267296	 0.28782
C	 1.1979111141	-0.8772716167	 0.2597915522	-0.337963
C	 0.6952862462	 0.155722091	 1.2488163384	-0.29097
C	-1.4150449634	-0.6207678134	-0.1124746932	 0.172395
C	-2.5534843416	 0.33161449	-0.3503236727	-0.263967
N	-2.1595463329	-0.6034154837	-1.3975095451	-0.354463
C	-1.7756844898	-1.8211890867	 0.6990058506	 0.129912
O	-1.1191266794	-2.3041027498	 1.5891725826	-0.280226
H	 0.6580688662	 0.6417125232	-1.7437012321	 0.291258
H	 1.0653789215	-1.9198958045	 0.5152292654	 0.144984
H	 2.1012785616	-0.6432164861	-0.2951430967	 0.106474
H	 1.2511619779	 1.0812488009	 1.3417902336	 0.119532
H	 0.2263188009	-0.2136374952	 2.1514547593	 0.139556
H	-3.5238787	 0.1447303216	 0.1015891125	 0.124285
H	-2.2724056921	 1.3752617248	-0.4500108009	 0.143735
H	-1.5859178039	-0.099553759	-2.0709103974	 0.233003
H	-2.7594823042	-2.2447344082	 0.401560718	 0.097834
70.0369	130.3283	210.8719	240.6654	276.2833	317.6215	336.6268	368.7739	388.7164	431.6629	536.4201	550.6496	660.844	774.0812	805.843	869.4757	905.3835	930.4923	936.734	968.0025	985.1875	1000.9216	1050.1309	1060.0892	1087.5033	1093.265	1127.4863	1192.3534	1217.7776	1243.7291	1295.7139	1329.1385	1335.0675	1395.6465	1434.7095	1442.2175	1484.6506	1495.6612	1814.7212	2904.5786	3115.0271	3135.9304	3150.8249	3210.1574	3240.8352	3252.3091	3498.3591	3814.3219
OC1(CC1)C1(CN1)C=O	OC1(CC1)[C@]1(CN1)C=O	
InChI=1S/C6H9NO2/c8-4-5(3-7-5)6(9)1-2-6/h4,7,9H,1-3H2	InChI=1S/C6H9NO2/c8-4-5(3-7-5)6(9)1-2-6/h4,7,9H,1-3H2/t5-/m0/s1
