14
gdb 29205	3.18816	1.44372	0.99986	5.0912	67.77	-0.2537	-0.0572	0.1965	1102.3901	0.101324	-473.902493	-473.894821	-473.893877	-473.934903	28.366	
C	-0.0320417289	 1.5514360669	 0.0215075742	-0.490643
C	-0.0086177873	 0.0511929059	 0.0004799996	 0.09065
C	-0.0363656402	-0.6936777832	-1.1260142	 0.046382
O	-0.0153787956	-2.0245964906	-1.1407592919	-0.214199
C	 0.0399625129	-2.7700070558	 0.0841025687	 0.443296
O	 0.0552752428	-3.9583742579	-0.0231377852	-0.335569
N	 0.0689493234	-2.0417106653	 1.2417523424	-0.439602
C	 0.046370961	-0.7424470908	 1.1971021729	 0.402849
O	 0.0762648876	-0.071193723	 2.3505337874	-0.384645
H	 0.8596872667	 1.9564289068	 0.5107143415	 0.146568
H	-0.0752303192	 1.9502754601	-0.9954313168	 0.129285
H	-0.8987063677	 1.9280372644	 0.5742862312	 0.146579
H	-0.0785076222	-0.2704126712	-2.1252020879	 0.146479
H	 0.1118558266	-0.7382407562	 3.054503064	 0.312569
83.8428	154.2748	207.8161	265.5329	287.3312	389.206	413.1327	477.8973	567.9868	594.414	640.7011	706.9088	763.209	769.8046	791.502	822.2376	945.1955	1023.4397	1073.3803	1093.1482	1225.2817	1257.2221	1304.7685	1362.2905	1422.1797	1474.8089	1483.2058	1504.9397	1594.7327	1715.5309	1887.4248	3039.3663	3097.2123	3119.5311	3187.3819	3729.4462
CC1=COC(=O)N=C1O	Cc1coc(=O)nc1O	
InChI=1S/C5H5NO3/c1-3-2-9-5(8)6-4(3)7/h2H,1H3,(H,6,7,8)	InChI=1S/C5H5NO3/c1-3-2-9-5(8)6-4(3)7/h2H,1H3,(H,6,7,8)
