17
gdb 68556	2.43424	1.91504	1.5443	2.5063	72.59	-0.2378	0.0063	0.2441	926.1768	0.135321	-421.760283	-421.752816	-421.751872	-421.791678	30.209	
O	-0.1020768163	 1.4142976945	 0.0319657826	-0.484784
C	-0.0020852765	 0.0335746464	-0.0110115323	 0.276967
C	 0.3248348715	-0.7993326168	-1.3066837717	-0.284524
C	-0.337354555	-1.946450441	-0.4675612538	-0.186743
C	 0.6006308509	-2.0135715026	 0.736575019	-0.08499
C	 0.8205824522	-0.7281875032	 1.0373954785	-0.168006
C	-1.2999400503	-0.8262893031	 0.0407646409	 0.51454
C	-2.5106263526	-0.780700486	 0.841410505	-0.311644
O	-2.5005997106	-0.4733307428	-0.5791073783	-0.295492
H	 0.7846293189	 1.7890684328	 0.0082627464	 0.283687
H	-0.2800925704	-0.4903415795	-2.1634913293	 0.118864
H	 1.3781150731	-0.9256684599	-1.568328104	 0.089256
H	-0.7067223695	-2.8613951362	-0.9237208037	 0.078768
H	 0.9311954051	-2.9096109342	 1.242623199	 0.106784
H	 1.3657799693	-0.2796051193	 1.8566511025	 0.103062
H	-3.0285961167	-1.7002592958	 1.1081777412	 0.117517
H	-2.7001331831	 0.0728537867	 1.4893511478	 0.12674
172.062	198.5044	208.403	268.5452	366.8418	407.4191	423.1098	533.113	592.5207	602.9794	655.6774	710.7994	722.3213	829.8368	867.1793	894.7318	904.552	926.1772	937.7143	1003.4682	1019.2164	1048.1842	1073.5099	1090.4725	1107.2095	1130.6569	1148.923	1171.8062	1202.5251	1243.9257	1273.0058	1319.3758	1362.9677	1445.8096	1486.8628	1544.4709	1621.2787	3057.5583	3090.7331	3131.7976	3154.7169	3180.2324	3214.0322	3240.5902	3813.0454
OC12CC(C=C1)C21CO1	O[C@@]12C[C@@H](C=C1)[C@]12CO1	
InChI=1S/C7H8O2/c8-6-2-1-5(3-6)7(6)4-9-7/h1-2,5,8H,3-4H2	InChI=1S/C7H8O2/c8-6-2-1-5(3-6)7(6)4-9-7/h1-2,5,8H,3-4H2/t5-,6-,7+/m1/s1
