19
gdb 57763	2.81352	0.72068	0.64256	1.2247	86.74	-0.2549	0.0304	0.2852	1810.4203	0.155186	-385.825729	-385.814736	-385.813792	-385.863724	38.845	
C	 0.1067355815	 1.5847846562	-0.1222290821	-0.383565
C	-0.0285133164	 0.0586730992	-0.0198875895	-0.016973
O	 0.3887644602	-0.5860935409	-1.2216476624	-0.413804
C	 0.6819928622	-0.4667851187	 1.151817446	 0.062098
C	 1.3128595397	-0.8818342497	 2.0899558872	 0.078174
C	 2.0559678278	-1.4212246677	 3.2349951286	-0.326895
C	 2.115972172	-2.9692681576	 3.1917511039	-0.375656
C	 3.4020419416	-0.8428362915	 3.3237434545	 0.344017
C	 4.5133532503	-0.3951647621	 3.4086483433	-0.468253
H	 1.1602469642	 1.8697833991	-0.2079173783	 0.119286
H	-0.4279110131	 1.9380504451	-1.0078367277	 0.124568
H	-0.3057883661	 2.0736448336	 0.7651706665	 0.124647
H	-1.0922604103	-0.1941202033	 0.0677982058	 0.116932
H	 1.3493118781	-0.518898794	-1.2634780276	 0.282963
H	 1.51223267	-1.1373326568	 4.1480652631	 0.138347
H	 2.6386539832	-3.3473349979	 4.0738202627	 0.127739
H	 1.1035874896	-3.3795829008	 3.1696019098	 0.128965
H	 2.6486863505	-3.3025805363	 2.2985550067	 0.138028
H	 5.4916621951	 0.0113045243	 3.4813552696	 0.199382
11.1139	65.0798	86.3583	171.1315	195.4381	208.1952	234.6342	255.9802	285.0436	349.0277	370.9601	437.7296	485.355	533.1707	578.7471	613.5124	631.3015	644.7281	720.7496	832.0883	900.3274	978.4991	1023.9845	1056.6455	1072.8723	1093.1617	1120.1895	1183.5306	1283.4944	1297.7276	1322.7108	1338.3925	1398.7462	1403.299	1418.2232	1487.6646	1488.8765	1491.1238	1496.3379	2241.1837	2362.0306	2998.0974	3036.4148	3040.2233	3052.3212	3114.974	3126.7887	3133.5671	3139.0355	3504.5535	3803.6327
CC(O)C#CC(C)C#C	C[C@@H](O)C#C[C@@H](C)C#C	
InChI=1S/C8H10O/c1-4-7(2)5-6-8(3)9/h1,7-9H,2-3H3	InChI=1S/C8H10O/c1-4-7(2)5-6-8(3)9/h1,7-9H,2-3H3/t7-,8+/m0/s1
