18
gdb 31167	2.1574	1.61383	0.9596	3.2256	76.41	-0.1604	0.053	0.2135	1199.1148	0.149024	-435.283173	-435.273608	-435.272664	-435.317086	35.789	
N	-0.0991567478	 1.3620630519	-0.0918042506	-0.608208
C	-0.1074146354	-0.038099967	-0.0771989828	 0.25712
C	-1.1828755772	-0.9084159643	 0.0033889185	 0.130641
C	-2.6180803539	-0.4916918991	 0.0356279278	-0.1968
O	-2.9180323885	 0.5440697804	-0.9172272089	-0.41744
C	-0.632209953	-2.2340608523	 0.0788280138	 0.145
N	-1.3933974672	-3.4110559755	 0.2457496652	-0.607558
C	 0.734874751	-2.1268975857	 0.0394906473	-0.185586
N	 1.0415280837	-0.7681356325	-0.062845869	-0.311361
H	 0.5662655798	 1.7458772669	-0.7541164229	 0.234632
H	-1.0282606407	 1.6959927854	-0.3286794289	 0.25821
H	-3.2766211903	-1.3600457117	-0.1185069737	 0.087974
H	-2.9050276347	-0.0555592511	 1.0005699152	 0.118551
H	-2.5851651517	 0.2327520032	-1.7666501411	 0.274814
H	-2.2051130181	-3.4310737195	-0.3612052091	 0.233666
H	-0.8436817322	-4.2415293473	 0.0618145254	 0.234622
H	 1.5102366696	-2.8740416027	 0.0567869143	 0.099128
H	 1.9644660566	-0.3781138389	 0.0042826095	 0.252594
87.3451	140.1159	181.8485	196.6264	224.6926	250.0821	281.448	314.9506	381.3429	409.504	445.4445	516.0803	568.7078	594.0691	633.4936	693.4302	742.5879	766.2752	814.205	853.0265	953.4327	1005.6487	1054.2423	1077.8686	1134.299	1157.9779	1209.5147	1245.9316	1302.1105	1353.2844	1364.6515	1414.6164	1450.5284	1511.0837	1553.3003	1588.8209	1632.2438	1658.712	1673.3575	2986.0956	3037.367	3270.4259	3498.4924	3513.5446	3585.64	3602.4033	3687.9877	3794.8997
NC1=C(CO)C(N)=CN1	Nc1c(CO)c(N)c[nH]1	
InChI=1S/C5H9N3O/c6-4-1-8-5(7)3(4)2-9/h1,8-9H,2,6-7H2	InChI=1S/C5H9N3O/c6-4-1-8-5(7)3(4)2-9/h1,8-9H,2,6-7H2
