19
gdb 37054	3.11145	1.74432	1.48472	1.1332	78.71	-0.221	0.017	0.238	953.4562	0.162007	-385.88426	-385.87739	-385.876446	-385.915057	28.863	
C	 0.1822225962	 1.3613843217	-0.147040519	-0.392234
C	 1.4210916097	 0.5303793673	 0.0549212647	 0.421081
C	 2.0162371059	 0.3572599908	 1.4425727643	-0.357588
C	 0.9015604105	-0.3722689498	 2.1801490952	-0.069337
C	-0.1347836597	-0.6710804978	 1.3868345048	-0.182443
C	 0.0830950233	-0.1608461156	 0.0015075001	 0.239525
C	 0.1073125069	-0.9882264104	-1.271686497	-0.324141
C	 1.3278001502	-0.3970918815	-2.0341906451	-0.098433
O	 2.1977488916	 0.1952473415	-1.0617397185	-0.307168
H	-0.1806396692	 1.9632517965	 0.679254587	 0.113379
H	 0.0170759958	 1.7939780082	-1.1285303971	 0.112556
H	 2.9331315415	-0.2432040534	 1.3898776204	 0.120685
H	 2.2830549152	 1.305598431	 1.9233586091	 0.111309
H	 0.9590280191	-0.5932047656	 3.2409917816	 0.093728
H	-1.0326109193	-1.1905322595	 1.7042164954	 0.093779
H	 0.2791458456	-2.0390054703	-1.016721591	 0.110522
H	-0.8009896308	-0.9335890037	-1.8796289023	 0.103171
H	 1.9018663405	-1.1479042365	-2.5844954607	 0.110927
H	 0.9975482871	 0.3650522671	-2.7533560121	 0.100683
186.392	209.9177	256.2269	353.6907	416.7713	468.5947	552.7707	583.5367	622.8155	719.9769	744.9299	781.6007	821.0676	861.7677	894.513	914.1786	931.4112	938.0053	951.8507	954.8746	989.7635	1039.1727	1045.7556	1057.751	1120.1439	1139.0827	1173.9287	1212.8717	1231.0372	1247.4179	1254.9333	1302.2206	1326.3963	1362.7428	1383.8798	1400.121	1467.6663	1480.1349	1495.3315	1527.0337	1651.383	3006.3554	3029.8837	3046.3674	3062.8347	3080.0286	3094.2537	3126.7627	3175.7114	3200.1791	3216.7576
C1C23CC=CC12CCO3	C1[C@@]23CC=C[C@@]12CCO3	
InChI=1S/C8H10O/c1-2-7-4-5-9-8(7,3-1)6-7/h1-2H,3-6H2	InChI=1S/C8H10O/c1-2-7-4-5-9-8(7,3-1)6-7/h1-2H,3-6H2/t7-,8+/m1/s1
