18
gdb 14243	4.02731	1.58988	1.43607	3.0544	71.64	-0.236	-0.0162	0.2198	936.3143	0.153801	-347.801411	-347.793974	-347.79303	-347.833303	28.628	
C	 0.2895643048	 1.5783270983	-0.0940658253	-0.412151
C	 0.0910124705	 0.0739062817	 0.0180509229	 0.050535
C	 0.9283978803	-0.8681047193	-0.8996640963	-0.261856
C	 1.2551024323	-1.7851946407	 0.3293220143	-0.14703
C	 0.6000746473	-0.6974480677	 1.2685693982	-0.046087
C	 2.0103484814	-0.3236605006	 1.8143440901	-0.367596
C	 2.6118128448	-1.449886802	 0.9460650163	 0.412574
O	 3.710227108	-1.9150893339	 0.8441559477	-0.302694
H	 1.3455485882	 1.8583355048	-0.0195011736	 0.116904
H	-0.0755144074	 1.9460154183	-1.059463229	 0.118765
H	-0.2556212991	 2.1120161808	 0.6924360342	 0.117106
H	-0.9723763077	-0.1541708116	-0.1125973753	 0.07734
H	 0.3696984733	-1.3656441554	-1.6944325044	 0.112991
H	 1.8106141745	-0.4024089771	-1.3489530839	 0.111538
H	 0.9551527948	-2.8311198754	 0.2625991963	 0.087225
H	-0.1350196846	-0.9494068809	 2.0327186066	 0.072196
H	 2.3869880891	 0.6840961136	 1.6191066769	 0.12648
H	 2.1389138894	-0.5275757829	 2.8823333644	 0.133759
56.2461	168.8478	233.8768	261.021	334.7873	417.9281	483.8057	503.9222	567.9632	723.0767	743.1932	780.4342	835.7741	885.3215	904.2364	929.9977	957.5143	973.7039	1033.738	1072.8696	1093.8851	1112.6076	1130.7075	1138.194	1187.9432	1207.6903	1227.91	1250.6326	1264.7251	1290.9491	1327.8783	1368.3862	1411.681	1436.8839	1489.3532	1494.505	1503.1956	1884.9556	3027.9543	3039.1793	3057.11	3058.6179	3092.8292	3098.5765	3102.1699	3109.9535	3112.3742	3121.9198
CC1CC2C1CC2=O	C[C@H]1C[C@@H]2[C@H]1CC2=O	
InChI=1S/C7H10O/c1-4-2-6-5(4)3-7(6)8/h4-6H,2-3H2,1H3	InChI=1S/C7H10O/c1-4-2-6-5(4)3-7(6)8/h4-6H,2-3H2,1H3/t4-,5-,6+/m0/s1
