19
gdb 91414	2.65005	1.6868	1.26582	3.1989	74.49	-0.246	-0.0193	0.2267	1029.0037	0.161573	-423.044368	-423.036955	-423.036011	-423.076031	30.147	
O	-0.0619422185	 1.4469058917	-0.0261772103	-0.449182
C	-0.0128677303	 0.0461194108	-0.0069213899	 0.060882
C	-1.4163071861	-0.5929855239	 0.1184610078	-0.237412
C	-1.4467372752	-1.9869158879	-0.530507211	-0.018292
C	-0.0797596597	-2.7144856927	-0.3536585968	-0.245661
C	 0.4129640785	-1.9144227386	-1.5964059589	-0.116954
C	-1.0953032881	-1.8775406686	-2.0380294149	-0.223454
C	 0.7295733339	-0.4866282637	-1.2365444201	 0.376097
O	 1.4559010993	 0.2454417016	-1.8743802164	-0.351862
H	 0.6151720688	 1.7122874339	-0.6691839961	 0.289345
H	 0.593383382	-0.2997912046	 0.851767796	 0.094174
H	-1.7012394593	-0.6485427209	 1.1737321661	 0.106149
H	-2.1341766533	 0.0701613492	-0.3757772193	 0.118761
H	-2.3543627425	-2.5313744544	-0.2620398041	 0.072455
H	 0.4612678859	-2.6065917614	 0.5897966266	 0.104816
H	-0.1601762969	-3.7766086795	-0.597303535	 0.109398
H	 1.1559656678	-2.3360276931	-2.2735703174	 0.087369
H	-1.3488756256	-2.7855647909	-2.5903019369	 0.110659
H	-1.4472014507	-1.0035684271	-2.5931696393	 0.112712
101.8566	180.4324	305.0829	361.2389	374.1218	410.0169	440.8995	457.4729	504.0973	578.3119	663.3929	778.5923	822.8861	840.1725	856.5251	894.272	915.3331	943.8952	988.2677	1018.5067	1046.9521	1056.1441	1083.8658	1118.6668	1131.6146	1157.2666	1197.9618	1226.3384	1245.5255	1255.6702	1280.1463	1287.0975	1312.5324	1330.1645	1353.0839	1386.615	1433.0849	1482.5254	1496.7979	1513.6333	1802.9803	2919.9229	3046.3678	3055.2974	3061.1313	3084.7597	3090.9672	3111.8505	3113.8175	3118.0898	3686.2111
OC1CC2CC(C2)C1=O	O[C@H]1C[C@@H]2C[C@@H](C2)C1=O	
InChI=1S/C7H10O2/c8-6-3-4-1-5(2-4)7(6)9/h4-6,8H,1-3H2	InChI=1S/C7H10O2/c8-6-3-4-1-5(2-4)7(6)9/h4-6,8H,1-3H2/t4-,5+,6-/m0/s1
