21
gdb 41964	2.1476	2.00933	1.72232	1.4442	81.6	-0.2364	0.0133	0.2497	959.44	0.186829	-387.104537	-387.097348	-387.096404	-387.135726	30.1	
C	-0.0375864867	 1.5109532078	-0.023549991	-0.053845
O	 1.2429742889	 2.088362158	 0.1690143999	-0.277117
C	 2.3766583094	 1.2190050894	 0.0054519249	 0.066434
C	 2.7062935593	 0.5586793954	 1.3675527368	-0.198214
C	 1.8753259913	-0.6973578869	 1.677648149	-0.190708
C	 0.3641547189	-0.570571322	 1.4105359935	-0.200826
C	-0.0118559814	-0.0275037714	-0.0016445321	-0.076726
C	 0.9740772086	-0.4450459249	-1.0700965478	-0.081941
C	 2.1450683604	 0.1911798516	-1.0772346158	-0.068854
H	-0.689844745	 1.8945856317	 0.7723803185	 0.093176
H	-0.4498347757	 1.8453622288	-0.9872753475	 0.086987
H	 3.1975924756	 1.8902195154	-0.2656160556	 0.076663
H	 3.7710730867	 0.295353252	 1.3948894532	 0.089699
H	 2.5478324969	 1.3304034682	 2.1293660111	 0.103594
H	 2.2612936241	-1.5275154872	 1.0769875614	 0.101131
H	 2.0283592562	-0.9831467393	 2.7245634304	 0.089615
H	-0.087647205	-1.5600167549	 1.5441161727	 0.094433
H	-0.0994226438	 0.0826767558	 2.1608492704	 0.09684
H	-1.0211709209	-0.3735536102	-0.2482970524	 0.068778
H	 0.7109848347	-1.1991767021	-1.8050478923	 0.088725
H	 2.9247377073	-0.0065096153	-1.8056904173	 0.092155
118.0361	249.3956	296.6076	329.8956	350.8511	403.6524	479.9893	557.8751	613.921	644.1208	724.8711	760.2689	791.9582	846.6105	856.3625	905.1874	930.0012	949.6891	967.293	978.9191	1016.0999	1030.7651	1046.7068	1082.4406	1116.4347	1123.3246	1177.7142	1189.625	1207.7054	1252.5788	1279.7994	1304.4503	1328.832	1337.5613	1355.054	1364.5242	1383.7604	1392.8837	1408.4094	1418.0484	1473.2792	1485.395	1494.2766	1519.6286	1696.1824	2985.4166	3019.7513	3023.2688	3028.6019	3040.1657	3048.4033	3056.0225	3061.8953	3066.5187	3083.4539	3164.9928	3188.9914
C1OC2CCCC1C=C2	C1O[C@H]2CCC[C@@H]1C=C2	
InChI=1S/C8H12O/c1-2-7-4-5-8(3-1)9-6-7/h4-5,7-8H,1-3,6H2	InChI=1S/C8H12O/c1-2-7-4-5-8(3-1)9-6-7/h4-5,7-8H,1-3,6H2/t7-,8+/m1/s1
