17
gdb 72561	2.39368	2.00704	1.52632	3.5763	66.33	-0.2599	0.0078	0.2677	926.0669	0.137316	-459.021124	-459.01381	-459.012866	-459.052655	28.721	
C	-0.0922591043	 1.4988524644	 0.0056250194	-0.484587
C	 0.0111755788	-0.0011074967	-0.0242843132	 0.202234
C	 0.6807077267	-0.682237674	-1.256858793	-0.266553
C	 0.108796588	-2.1252956724	-1.1511474916	-0.241864
C	-0.7604598412	-1.9689210013	 0.1096732426	 0.17944
O	 0.1368857892	-1.9145765733	 1.2495857813	-0.246582
C	 0.6720823138	-0.6582715992	 1.2002622359	 0.455741
O	 1.4987159318	-0.241813131	 1.9551996659	-0.351239
O	-1.273506996	-0.6654166562	 0.0156710939	-0.268968
H	 0.9079329237	 1.929581806	 0.1013698615	 0.146591
H	-0.5558732914	 1.874803878	-0.9101421732	 0.127893
H	-0.6861070752	 1.8250876346	 0.8629118451	 0.143459
H	 0.3510025205	-0.1798264081	-2.168768347	 0.118449
H	 1.7707928112	-0.6390887643	-1.2123093218	 0.129554
H	-0.5113522701	-2.3866929151	-2.0109540722	 0.119651
H	 0.8709323858	-2.8948371176	-1.0195968054	 0.126724
H	-1.5403632912	-2.7005703537	 0.3075355118	 0.110056
147.2346	176.1903	213.2437	267.7238	311.9128	408.3997	489.2418	557.6045	623.7281	647.3301	718.8473	771.9977	831.9382	846.2835	875.41	888.182	904.7733	933.961	974.1022	1027.0213	1063.1331	1111.8305	1132.6422	1152.7178	1215.5496	1216.0355	1255.1474	1306.8861	1330.7561	1343.0527	1370.3205	1416.8463	1475.829	1480.8794	1493.014	1498.9757	1901.5804	3052.8205	3073.2872	3083.6932	3121.2359	3130.144	3132.6291	3139.5656	3161.1914
CC12CCC(OC1=O)O2	C[C@@]12CC[C@@H](OC1=O)O2	
InChI=1S/C6H8O3/c1-6-3-2-4(9-6)8-5(6)7/h4H,2-3H2,1H3	InChI=1S/C6H8O3/c1-6-3-2-4(9-6)8-5(6)7/h4H,2-3H2,1H3/t4-,6+/m0/s1
