17
gdb 51485	4.13062	1.06675	0.9348	4.814	76.47	-0.2393	-0.0068	0.2324	1249.7715	0.136969	-417.970102	-417.962225	-417.961281	-418.003652	29.298	
N	-0.1483213355	 1.3040959649	-0.0258917799	-0.44321
C	-0.1498860928	 0.0462656167	-0.1273134245	 0.134934
O	-0.8941724777	-0.7014575663	 0.7082044201	-0.186934
C	-0.9305519211	-2.1092490619	 0.4574128068	 0.106403
C	-1.245883954	-2.8514001622	 1.7419780324	-0.114995
C	-2.2757092387	-3.6844324532	 1.6000276039	-0.046292
C	-2.8587738301	-3.5738396412	 0.225302943	-0.090527
N	-3.4045330468	-2.2116183346	-0.0199102427	-0.307654
C	-2.0468425862	-2.5572093211	-0.4886046937	-0.085969
H	 0.4833229996	 1.7060690236	-0.7154178654	 0.226644
H	 0.4284497975	-0.548183713	-0.8506373801	 0.076645
H	 0.0465702519	-2.417927847	 0.0541930757	 0.086594
H	-0.6875692151	-2.6608541662	 2.6500694779	 0.114135
H	-2.6867250348	-4.3224698952	 2.3727826623	 0.110124
H	-3.3028136023	-4.4256501606	-0.2774783155	 0.096339
H	-4.0304947712	-2.2449038701	-0.8235029065	 0.232743
H	-1.8534099327	-2.6132232526	-1.5540548939	 0.091021
40.2799	99.659	122.6151	238.8295	317.8843	404.1344	476.2008	481.6505	686.769	700.1541	761.852	807.1925	817.4267	824.0435	868.3364	909.7176	945.6725	950.314	972.5673	1028.0018	1030.9485	1044.4277	1076.4937	1114.1827	1133.5576	1154.6026	1167.0736	1243.8304	1289.231	1307.4205	1335.3621	1359.5677	1394.1601	1416.2	1427.2211	1677.9482	1747.0576	2977.5985	3002.1001	3168.4087	3179.3229	3202.4138	3226.2824	3476.6051	3517.1433
N=COC1C=CC2NC12	[NH][CH]O[C@H]1C=C[C@H]2N[C@@H]12	
InChI=1S/C6H8N2O/c7-3-9-5-2-1-4-6(5)8-4/h1-8H	InChI=1S/C6H8N2O/c7-3-9-5-2-1-4-6(5)8-4/h1-8H/t4-,5+,6-/m1/s1
