19
gdb 104265	2.18588	1.39421	1.15672	5.7553	76.43	-0.2457	0.018	0.2637	1175.7501	0.157823	-419.182293	-419.172671	-419.171727	-419.216828	34.759	
C	 0.0782942651	 1.3602099889	-0.0138892865	-0.253089
O	-0.0677727849	-0.0293646053	 0.1977095103	-0.272492
C	-1.3666042819	-0.5520619896	 0.06346987	 0.416207
C	-2.3535590043	 0.0245791196	 1.0680537872	-0.468048
C	-1.8364659101	-0.6840807521	-1.4210572663	-0.224567
N	-1.3385976038	-2.0775982158	-1.4414105953	-0.303137
C	-1.2478561964	-2.1168770403	 0.0319489977	-0.195547
C	-0.0329416616	-2.7271830878	 0.5724506909	 0.332292
N	 0.8993639078	-3.2425096134	 1.0194778432	-0.335094
H	 1.1520548451	 1.5579482514	-0.0240563327	 0.142107
H	-0.3460161602	 1.6805484362	-0.9760608361	 0.109329
H	-0.3801968125	 1.9556173492	 0.7867737833	 0.114338
H	-2.5491907015	 1.0831038289	 0.8716878379	 0.128244
H	-3.3116553791	-0.5000749887	 1.017813065	 0.121504
H	-1.956200981	-0.0698812296	 2.0835580197	 0.139618
H	-2.9238435034	-0.5762131533	-1.5282239535	 0.096056
H	-1.3409617297	-0.0310251404	-2.1456089852	 0.116972
H	-1.9562671095	-2.7687783219	-1.850173543	 0.229261
H	-2.1093509282	-2.5790694858	 0.5336443635	 0.106046
77.4247	103.9102	120.9662	180.5431	186.9724	241.0626	275.7098	323.9562	376.4547	384.0274	437.6246	548.8023	575.5828	631.226	710.7752	829.6351	890.2549	935.2552	957.6425	989.9915	1029.2648	1062.6513	1107.1866	1142.8762	1163.7234	1179.4333	1183.5106	1218.5425	1236.1818	1273.4284	1337.0059	1355.4792	1390.3844	1406.7393	1474.393	1486.3105	1487.2383	1502.0488	1505.4498	1513.0859	2361.7578	2994.3445	3004.3511	3013.4983	3040.1934	3049.2457	3077.7476	3112.2467	3118.1229	3125.654	3546.5267
COC1(C)CNC1C#N	CO[C@@]1(C)CN[C@H]1C#N	
InChI=1S/C6H10N2O/c1-6(9-2)4-8-5(6)3-7/h5,8H,4H2,1-2H3	InChI=1S/C6H10N2O/c1-6(9-2)4-8-5(6)3-7/h5,8H,4H2,1-2H3/t5-,6-/m0/s1
