15
gdb 26055	3.39973	1.20611	0.92532	4.3669	72.48	-0.2241	-0.005	0.2191	1191.6399	0.114019	-416.846485	-416.838358	-416.837414	-416.880099	29.819	
O	-0.8799553954	 0.6622107459	 0.0669747716	-0.407612
C	 0.0773287283	-0.3773231851	-0.1211866177	-0.16685
C	 0.9796855449	-0.0835177233	-1.2545060678	 0.295317
N	 1.6706714007	 0.1734461925	-2.1435670741	-0.32711
C	 0.865658894	-0.6674302128	 1.1190566509	 0.298359
C	 2.2169358274	-0.783592725	 1.3622024691	-0.225519
C	 2.3749473653	-1.092058171	 2.7406207422	-0.149505
C	 1.1173561694	-1.149786785	 3.2963944395	-0.084035
N	 0.2069335064	-0.9015110837	 2.303885574	-0.296959
H	-0.4001815689	 1.4436100628	 0.3695319664	 0.294391
H	-0.5327246679	-1.2438077634	-0.4096255572	 0.146483
H	 2.9968758961	-0.6688952952	 0.6255214645	 0.122945
H	 3.3054218886	-1.2514765492	 3.2626303587	 0.104746
H	 0.7967061633	-1.3394580181	 4.3082129617	 0.125617
H	-0.7873831722	-0.8081720293	 2.4247052081	 0.269732
35.3205	122.3072	152.9023	216.9762	312.4146	371.2986	435.6658	478.9526	509.3895	590.1018	628.7106	653.0407	733.1765	778.0981	819.6134	870.9525	892.6553	924.0869	995.4943	1039.9211	1060.8689	1118.5643	1142.9654	1232.1074	1260.43	1281.7743	1337.5415	1417.6949	1445.4616	1458.7421	1494.0484	1608.3637	2362.7207	3024.6884	3249.1822	3260.8638	3274.2599	3673.4083	3783.9544
OC(C#N)C1=CC=CN1	O[C@@H](C#N)c1ccc[nH]1	
InChI=1S/C6H6N2O/c7-4-6(9)5-2-1-3-8-5/h1-3,6,8-9H	InChI=1S/C6H6N2O/c7-4-6(9)5-2-1-3-8-5/h1-3,6,8-9H/t6-/m0/s1
