22
gdb 60492	4.22475	0.62863	0.57256	4.1687	81.89	-0.2469	0.036	0.2829	1963.2732	0.192105	-441.514038	-441.503089	-441.502144	-441.55203	38.182	
C	-0.1160909474	 1.4937128241	-0.0697009532	-0.388804
C	-0.0862333996	-0.0288201421	-0.1379279947	 0.15919
C	 0.9479716098	-0.6287504277	 0.818239836	-0.393449
O	-1.4086939815	-0.4710572973	 0.1659673622	-0.269557
C	-1.7032645847	-1.8096252135	-0.1849735406	-0.072105
C	-3.2017074653	-2.005458142	-0.0021644243	-0.163145
N	-3.9509873517	-1.0651238541	-0.8139119422	-0.267551
C	-4.9466374343	-1.4338417992	-1.6588995129	 0.156266
O	-5.3560813576	-2.5662581619	-1.8123118177	-0.328049
H	 0.8615326102	 1.9112871949	-0.3271242178	 0.117179
H	-0.8587569138	 1.8952596631	-0.7645695487	 0.115446
H	-0.3774746913	 1.8234532608	 0.9408510472	 0.12496
H	 0.1579050051	-0.3391754797	-1.1680309312	 0.068282
H	 0.976892239	-1.7201294598	 0.7546505388	 0.118988
H	 1.9488627048	-0.2576444846	 0.5766102847	 0.118131
H	 0.7153469497	-0.3498471618	 1.8510238605	 0.123727
H	-1.4202347658	-2.0013643977	-1.2325525822	 0.09696
H	-1.1611040875	-2.5263117961	 0.4496308686	 0.096006
H	-3.5016181134	-3.0102662221	-0.3066706702	 0.146615
H	-3.4532596372	-1.8793850875	 1.05874019	 0.117189
H	-3.6551693306	-0.1022995	-0.7821031509	 0.253042
H	-5.3592904071	-0.5638141756	-2.2080020613	 0.070678
26.3533	42.7535	62.8079	138.4296	179.8828	212.1357	233.2931	241.5472	263.3211	332.1581	371.5578	442.4224	483.8159	534.1423	583.1074	760.0438	817.9105	868.7256	904.572	927.102	943.9628	991.1173	1031.9681	1076.9376	1114.091	1122.7154	1153.4766	1174.3766	1199.5583	1215.9151	1256.242	1285.3576	1363.5225	1370.8082	1391.8848	1399.7968	1415.6101	1428.2749	1431.9711	1481.7035	1485.2376	1488.4251	1496.1402	1507.6791	1518.2831	1526.5809	1803.9025	2932.1708	2959.6179	2975.0011	3010.7767	3032.7737	3039.1279	3043.6544	3110.1639	3115.0672	3117.7913	3121.1957	3124.8849	3640.5888
CC(C)OCCNC=O	CC(C)OCCNC=O	
InChI=1S/C6H13NO2/c1-6(2)9-4-3-7-5-8/h5-6H,3-4H2,1-2H3,(H,7,8)	InChI=1S/C6H13NO2/c1-6(2)9-4-3-7-5-8/h5-6H,3-4H2,1-2H3,(H,7,8)
