23
gdb 115584	2.64174	1.04198	0.93554	2.7647	81.22	-0.2453	0.0628	0.3081	1404.0273	0.204418	-425.409312	-425.398997	-425.398053	-425.444754	38.117	
C	-0.0087903117	 1.6453082015	-0.1615288843	-0.394573
C	-0.0189143349	 0.1878947795	 0.3190132693	-0.245828
C	-1.3734859023	-0.5152497894	 0.1698592107	 0.274716
C	-2.4666610007	 0.1379703985	 1.0193387293	-0.455045
C	-1.8463773838	-0.8087411458	-1.2781502408	-0.112925
O	-2.0468019807	-2.2080262888	-0.9830878927	-0.308793
C	-1.4073980046	-2.0696465917	 0.3147792065	 0.070925
C	-0.1281835117	-2.8941097851	 0.327692622	-0.079815
O	-0.4434382073	-4.2506328366	 0.0719613027	-0.425149
H	 1.0020788313	 2.0602171701	-0.1081260359	 0.118117
H	-0.3414901399	 1.7229948938	-1.202794814	 0.118888
H	-0.6578722355	 2.2841650472	 0.4438825014	 0.122574
H	 0.7411302967	-0.3650583021	-0.2431300581	 0.101009
H	 0.29053176	 0.1500471875	 1.3717595431	 0.098475
H	-2.6442055061	 1.1760089182	 0.7222654555	 0.118494
H	-3.4123277853	-0.4030774321	 0.9145633256	 0.126641
H	-2.191800512	 0.1334075617	 2.0803690528	 0.1156
H	-2.7757110216	-0.3241951969	-1.5994095754	 0.102233
H	-1.0810867244	-0.6604552565	-2.0523175965	 0.094357
H	-2.0700106302	-2.4402017958	 1.1078502808	 0.078133
H	 0.5873055657	-2.5105193814	-0.4154390925	 0.08394
H	 0.352478603	-2.8528678217	 1.3114339927	 0.106196
H	-0.9840167242	-4.2424966442	-0.7282680621	 0.291829
61.9964	90.6538	112.0052	144.0669	214.7858	243.2663	258.5905	311.4766	317.4397	354.6134	385.2862	476.1273	482.6049	556.3365	644.1668	787.9349	826.8372	877.44	917.0063	932.4452	952.8459	1012.6016	1020.8662	1027.954	1049.5135	1070.0925	1081.8713	1112.0386	1162.8709	1190.0606	1211.82	1216.212	1254.6508	1291.6143	1323.8747	1341.6632	1363.5979	1376.1208	1403.2131	1410.235	1417.4008	1433.6595	1480.8506	1495.5599	1497.952	1499.2101	1505.3195	1514.3395	1526.5326	2983.9436	3002.4467	3021.3264	3022.6997	3031.0195	3037.6124	3055.595	3064.2213	3072.0906	3097.7631	3101.8493	3105.8691	3116.3169	3776.892
CCC1(C)COC1CO	CC[C@@]1(C)CO[C@H]1CO	
InChI=1S/C7H14O2/c1-3-7(2)5-9-6(7)4-8/h6,8H,3-5H2,1-2H3	InChI=1S/C7H14O2/c1-3-7(2)5-9-6(7)4-8/h6,8H,3-5H2,1-2H3/t6-,7-/m0/s1
