19
gdb 95853	2.35654	1.43455	1.13859	2.7371	75.54	-0.2295	0.0175	0.247	1151.8679	0.16088	-419.219222	-419.21066	-419.209715	-419.252335	32.447	
C	 0.0168270146	 1.5437924808	 0.0573257375	-0.402065
C	 0.0139473545	 0.028669616	-0.0476357727	 0.11578
C	 0.7488139346	-0.5022904079	-1.2850641612	-0.170171
N	 0.9076866249	-1.9588581921	-1.2854947088	-0.293564
C	 1.4893756414	-2.4261497648	-0.0366681462	-0.182862
C	 0.7547434787	-1.8736263129	 1.2066622472	-0.027944
O	 0.6497634042	-0.4652134485	 1.146548273	-0.261131
C	-0.5763796921	-2.5118446917	 1.3456266414	 0.256837
N	-1.6108601747	-3.0219828659	 1.4222822259	-0.327938
H	 1.0422839559	 1.9249634254	 0.0862346751	 0.126318
H	-0.4951557053	 1.9854496365	-0.8028217168	 0.121005
H	-0.4945702834	 1.8643409134	 0.9684065042	 0.132857
H	-1.0238123607	-0.3423281335	-0.0655491873	 0.087488
H	 0.2180366526	-0.2020307277	-2.1943539787	 0.108847
H	 1.7497125679	-0.0512423886	-1.3214689892	 0.109891
H	 0.0073578258	-2.4066423072	-1.4330583703	 0.231431
H	 1.502652765	-3.5197859357	-0.0177407897	 0.123422
H	 2.5252944333	-2.070956977	 0.0221966802	 0.120456
H	 1.3270637929	-2.0934478786	 2.1147295464	 0.131344
104.4664	109.5614	195.8038	214.2501	274.4502	299.369	343.3877	416.58	427.866	474.7765	539.3039	619.7891	710.4503	789.5346	795.2403	867.2133	891.1984	914.6532	948.2581	997.9188	1019.6504	1103.3393	1116.9925	1150.6295	1158.6031	1162.7034	1237.7483	1289.7211	1325.7005	1338.4796	1367.6106	1373.3867	1391.6741	1406.2324	1411.4319	1463.9427	1474.9624	1484.3373	1491.4595	1501.2859	2347.6066	2977.4337	3021.0375	3036.1454	3044.3915	3058.3877	3082.6405	3097.2391	3117.4915	3125.7839	3506.2096
CC1CNCC(O1)C#N	C[C@H]1CNC[C@@H](O1)C#N	
InChI=1S/C6H10N2O/c1-5-3-8-4-6(2-7)9-5/h5-6,8H,3-4H2,1H3	InChI=1S/C6H10N2O/c1-5-3-8-4-6(2-7)9-5/h5-6,8H,3-4H2,1H3/t5-,6-/m0/s1
