16
gdb 83477	3.37631	1.10033	0.95924	1.6743	66.91	-0.2475	0.0108	0.2583	1221.5551	0.122772	-474.951569	-474.943192	-474.942248	-474.985155	30.583	
O	-0.1025805507	 1.3623757295	-0.1524684643	-0.430704
C	-0.2130646591	-0.021944846	-0.1491394873	 0.048574
C	-0.4582263041	-0.7982420588	 1.1094190811	-0.054705
O	-1.2531549649	 0.0082598801	 1.9905122658	-0.298913
C	-2.3812337283	-0.0377817719	 1.063964008	-0.156053
C	-1.5283887632	-0.7618658269	 0.029419357	 0.287736
O	-1.9976228724	-1.7730821576	-0.7906797818	-0.219409
C	-2.2417474901	-1.4347075347	-2.0872499864	 0.103076
N	-2.7268900827	-2.2951057884	-2.8668871573	-0.434733
H	-0.2682415761	 1.6467067931	 0.7571460169	 0.30138
H	 0.4579173728	-0.5044684122	-0.8558130569	 0.125001
H	 0.1596006539	-1.577251886	 1.5398070181	 0.126791
H	-3.1821333496	-0.6632639	 1.469037299	 0.134496
H	-2.756379347	 0.959530201	 0.8120893505	 0.119715
H	-1.9680400805	-0.3983277218	-2.3181809367	 0.111963
H	-2.8434559479	-1.8968247493	-3.7964697855	 0.235784
65.5574	121.8112	125.4639	215.8739	248.2731	338.3688	369.1935	417.8437	434.1871	541.3201	653.3045	755.0725	791.0122	826.8659	849.3959	933.8915	951.5418	986.0917	1015.4896	1037.022	1052.6231	1070.3838	1101.1004	1129.1487	1158.6818	1215.41	1263.4444	1274.2983	1291.2915	1315.1157	1387.2195	1411.0231	1467.8488	1508.434	1749.1415	3044.0166	3054.552	3104.5698	3153.9816	3190.947	3519.5652	3750.4919
OC1C2OCC12OC=N	O[C@H]1[C@H]2OC[C@@]12O[CH][NH]	
InChI=1S/C5H7NO3/c6-2-9-5-1-8-4(5)3(5)7/h2-4,6-7H,1H2	InChI=1S/C5H7NO3/c6-2-9-5-1-8-4(5)3(5)7/h2-4,6-7H,1H2/t3-,4+,5+/m0/s1
