17
gdb 113648	3.14876	0.97263	0.93142	2.5898	71.81	-0.2467	-0.0892	0.1575	1334.4321	0.132696	-458.951355	-458.941889	-458.940945	-458.986771	32.69	
C	 0.0860250752	 1.3119559597	 0.2307779495	-0.233189
O	-0.5380897727	 0.1778594677	-0.3442239176	-0.227685
C	 0.2379645739	-0.443358049	-1.3048771651	 0.139005
C	 1.3448810878	-1.3639766042	-0.9127757714	-0.330918
C	 0.0571504844	-1.9466815714	-1.4792462146	-0.188872
C	-0.8498168619	-2.6594142867	-0.5498487073	 0.304974
O	-0.7910864827	-2.635543121	 0.6598977304	-0.298248
C	-1.9563027908	-3.5069280558	-1.1934901831	 0.091598
O	-2.0713543447	-3.6782094303	-2.3785019343	-0.222525
H	 1.0291050915	 1.0454296825	 0.7267566063	 0.116619
H	 0.2930170443	 2.0843286067	-0.5247574607	 0.109028
H	-0.6090805294	 1.7140467018	 0.9702408152	 0.136406
H	 0.3502462439	 0.122159907	-2.2318941826	 0.100064
H	 2.2386664575	-1.4174297361	-1.52360197	 0.12439
H	 1.4770024898	-1.5352764451	 0.1504238979	 0.147977
H	 0.0281175508	-2.3060729017	-2.5003142679	 0.124137
H	-2.6319794169	-3.9621801442	-0.4391443847	 0.107239
43.8694	78.7346	130.089	144.6244	168.2973	201.3557	255.8628	290.638	423.7618	472.2453	527.9571	632.5334	653.2308	762.3469	797.0444	850.8421	945.4332	980.2316	1033.523	1064.601	1085.1004	1103.2622	1139.3286	1163.2091	1171.3951	1182.8327	1210.868	1263.4485	1362.8913	1389.5695	1410.7706	1459.9314	1486.8827	1488.695	1507.3929	1789.9215	1823.575	2927.6572	2990.1614	3046.814	3086.0117	3130.0621	3136.8497	3198.1945	3234.8289
COC1CC1C(=O)C=O	CO[C@H]1C[C@H]1C(=O)C=O	
InChI=1S/C6H8O3/c1-9-6-2-4(6)5(8)3-7/h3-4,6H,2H2,1H3	InChI=1S/C6H8O3/c1-9-6-2-4(6)5(8)3-7/h3-4,6H,2H2,1H3/t4-,6-/m0/s1
