19
gdb 66902	2.40145	2.05153	1.74848	0.2206	84.06	-0.2183	0.016	0.2342	915.6369	0.161373	-348.758036	-348.751015	-348.750071	-348.788816	29.644	
C	-0.042386019	 1.5128504981	-0.0174654373	-0.507713
C	 0.0013258395	 0.0085935117	-0.0029112701	 0.330271
C	-0.216989408	-0.8676744874	-1.2037529565	-0.134959
C	 0.9116126625	-1.8072741912	-1.2874259971	-0.060108
C	 1.6956762719	-1.7137605266	-0.2016530515	-0.08934
C	 1.0767325719	-0.7676524855	 0.8229860132	-0.206918
C	 0.2484469559	-1.7377139229	 1.6602468077	-0.089339
C	-0.9959695946	-1.8389330796	 1.1667031225	-0.06011
C	-1.2051930221	-0.8840830831	 0.067576713	-0.134955
H	 0.8907504495	 1.9346002257	-0.4088755512	 0.119941
H	-0.8611846476	 1.8728692101	-0.6493623766	 0.114645
H	-0.1967701217	 1.9165325237	 0.9900192405	 0.119941
H	-0.6860496869	-0.476707038	-2.1004531312	 0.083156
H	 1.0449822075	-2.5113626381	-2.1005029192	 0.090175
H	 2.5479750696	-2.3444134694	 0.0234011389	 0.093219
H	 1.7812146374	-0.1428270725	 1.378612605	 0.065547
H	 0.684750543	-2.3752286271	 2.4205085822	 0.093217
H	-1.7420986613	-2.5576312822	 1.4851161051	 0.090175
H	-2.1947408876	-0.5017644356	-0.1595205673	 0.083157
189.0096	215.1042	276.7842	326.6402	338.9992	466.0509	560.6667	585.8471	659.173	677.8043	757.4403	761.3652	785.7277	815.2162	866.4353	883.058	891.8346	912.3646	942.8121	960.5963	968.8858	993.7898	1032.9433	1044.7979	1075.2721	1124.0201	1124.3346	1133.6854	1168.7472	1240.1083	1244.5874	1264.3582	1303.6142	1371.3661	1374.5145	1411.7384	1444.4048	1486.5517	1499.3743	1623.2814	1633.9343	3020.7731	3065.9257	3082.0865	3094.9244	3160.939	3170.2978	3187.2446	3189.5883	3211.5853	3213.7801
CC12C3C=CC1C=CC23	C[C@@]12[C@H]3C=C[C@@H]1C=C[C@@H]23	
InChI=1S/C9H10/c1-9-6-2-4-7(9)8(9)5-3-6/h2-8H,1H3	InChI=1S/C9H10/c1-9-6-2-4-7(9)8(9)5-3-6/h2-8H,1H3/t6-,7+,8-,9+
