17
gdb 36628	3.95742	0.89265	0.86456	1.3587	75.98	-0.2196	0.0358	0.2554	1394.5164	0.136451	-417.987302	-417.978367	-417.977423	-418.022664	31.563	
C	 0.10773101	-0.4511291662	 1.0684180149	-0.460957
C	 0.0835769663	 0.3812051803	 0.2019758342	 0.307035
C	 0.0913733293	 1.3757649783	-0.8724134547	-0.305521
N	 1.3415655429	 2.1214828933	-0.9738250317	-0.367149
C	 1.4729939934	 3.296636059	-0.2885974698	 0.510202
N	 0.5386828822	 4.0034352076	 0.2143928918	-0.355438
C	 1.1835216103	 5.2052340331	 0.7485053516	-0.179012
C	 2.7043433502	 4.9712248532	 0.5278955295	-0.108768
O	 2.7617000432	 3.7313509411	-0.2103534553	-0.268393
H	 0.1155697221	-1.1767428746	 1.8437631676	 0.201863
H	-0.105529699	 0.8823719136	-1.8311842956	 0.137093
H	-0.6996314152	 2.113357667	-0.711797261	 0.181427
H	 2.1878143247	 1.573925773	-1.0218492539	 0.254653
H	 0.8272459286	 6.0996538919	 0.2224806688	 0.108035
H	 0.9395177504	 5.337802385	 1.8083188318	 0.110179
H	 3.1895379657	 5.7476099683	-0.0692277242	 0.118258
H	 3.262242885	 4.8404569361	 1.460210696	 0.116494
33.5598	60.7355	73.3392	188.4571	215.3777	277.3022	323.6708	425.8178	531.2563	589.4042	618.1746	664.9403	718.022	733.7175	757.8612	838.9541	918.6295	935.8357	962.939	999.987	1019.9713	1100.6094	1123.0877	1126.6799	1220.2502	1241.8398	1265.1644	1289.1997	1340.0359	1372.2036	1392.5399	1464.2013	1511.8123	1524.7254	1547.3923	1750.7417	2237.2412	3022.2965	3040.4202	3048.1874	3056.038	3101.4962	3103.7012	3505.4528	3621.5888
C#CCNC1=NCCO1	C#CCNC1=NCCO1	
InChI=1S/C6H8N2O/c1-2-3-7-6-8-4-5-9-6/h1H,3-5H2,(H,7,8)	InChI=1S/C6H8N2O/c1-2-3-7-6-8-4-5-9-6/h1H,3-5H2,(H,7,8)
