19
gdb 18960	6.13234	1.38839	1.38269	1.0307	76.22	-0.2097	0.0869	0.2966	988.4857	0.165929	-327.826459	-327.819385	-327.818441	-327.857696	27.936	
C	-0.114409881	 1.6429127662	 0.0588826007	-0.37649
C	-0.1084428891	 0.1160642933	 0.0156102448	-0.121737
N	 0.6787917938	-0.4327047136	 1.1200810103	-0.11955
C	 2.1603436562	-0.5119457235	 0.9123681095	-0.004119
C	 2.282323965	-1.7238505963	 1.8853578581	-0.052105
C	 3.1256090914	-2.5416168297	 0.8889458368	-0.275711
C	 2.1353071468	-1.7845997575	-0.0178487089	-0.070058
C	 0.9787090974	-1.8942047129	 1.047896261	-0.000781
H	 0.8940481366	 2.0467452927	-0.0822273951	 0.112859
H	-0.7499710055	 2.0531280233	-0.731998095	 0.1093
H	-0.4851094609	 1.9960457905	 1.0253101367	 0.124864
H	-1.1334300292	-0.259021744	 0.1310672176	 0.095624
H	 0.2435403325	-0.2265354017	-0.9739346246	 0.075343
H	 2.8105502945	 0.3621616521	 0.847253755	 0.07875
H	 2.3334638096	-1.6607275199	 2.9718043435	 0.079766
H	 4.1812524629	-2.2679655707	 0.7987896253	 0.09506
H	 3.0170742668	-3.6295802889	 0.9321804667	 0.095208
H	 2.0521817212	-1.8201148301	-1.103705892	 0.077261
H	 0.2134520007	-2.6678255794	 1.1400304297	 0.076515
88.6756	177.6188	196.8222	290.3925	360.009	458.4128	541.0284	729.3791	736.8933	801.6438	823.3903	827.2138	843.3396	884.2064	911.9162	913.8087	962.2518	974.4079	1020.9663	1034.7042	1068.9237	1089.7161	1128.4743	1133.7149	1152.5658	1154.1772	1168.9287	1178.5797	1187.4378	1199.0042	1251.5334	1293.1266	1308.3912	1324.1669	1388.0814	1409.3802	1489.8329	1492.2925	1511.0344	1515.4903	2942.9096	3034.092	3037.6501	3043.8792	3091.6095	3096.9784	3098.5661	3102.7108	3116.8744	3119.0553	3128.3328
CCN1C2C3CC2C13	CCN1[C@H]2[C@@H]3C[C@H]2[C@H]13	
InChI=1S/C7H11N/c1-2-8-6-4-3-5(6)7(4)8/h4-7H,2-3H2,1H3	InChI=1S/C7H11N/c1-2-8-6-4-3-5(6)7(4)8/h4-7H,2-3H2,1H3/t4-,5+,6-,7+
