15
gdb 8248	5.82468	1.12126	0.99643	3.4194	67.86	-0.2518	0.0317	0.2836	1123.9462	0.1178	-362.652891	-362.644969	-362.644024	-362.685783	28.85	
O	 0.2701908748	 0.0031426384	-0.0024424263	-0.35445
C	 0.0773682275	 1.1875762576	 0.0166516741	 0.432677
C	-1.1585054592	 2.1212670109	 0.099714859	-0.415139
C	-0.1359441185	 3.2929268537	 0.0171839439	 0.065639
C	-0.0597372454	 4.2306123722	 1.2307311053	-0.357376
C	 1.123618856	 5.0813042564	 1.1903818439	 0.284673
C	 2.1150797936	 5.7573060671	 1.1199737209	-0.435988
N	 0.9163580237	 2.2756021866	-0.0416519748	-0.316874
H	-1.8450687064	 2.032505688	-0.7434663028	 0.135008
H	-1.7144100476	 2.0510254132	 1.0369507192	 0.130883
H	-0.209523475	 3.8849698939	-0.9013659674	 0.098517
H	-0.9659775285	 4.8489793696	 1.259028977	 0.137504
H	-0.0548671361	 3.6281329854	 2.1477972831	 0.135953
H	 2.9830530107	 6.3676742878	 1.0761057755	 0.202044
H	 1.9187147302	 2.3568599192	-0.1287923205	 0.25693
56.1299	86.7626	141.3759	300.2977	348.7617	378.0434	410.9533	474.4914	538.4695	564.4855	630.1352	650.8166	728.8621	823.394	894.2701	925.797	975.2409	1011.3487	1036.0589	1071.9263	1129.2573	1180.7419	1195.5988	1229.3702	1270.5347	1328.5053	1385.4903	1395.3848	1460.6628	1462.7907	1900.1168	2238.3693	3022.7418	3044.9579	3066.1188	3085.6688	3145.1539	3505.1394	3613.8899
O=C1CC(CC#C)N1	O=C1C[C@@H](CC#C)N1	
InChI=1S/C6H7NO/c1-2-3-5-4-6(8)7-5/h1,5H,3-4H2,(H,7,8)	InChI=1S/C6H7NO/c1-2-3-5-4-6(8)7-5/h1,5H,3-4H2,(H,7,8)/t5-/m1/s1
