20
gdb 78045	2.75009	1.32194	1.13709	3.9172	80.1	-0.237	-0.0071	0.23	1190.8621	0.168803	-403.145071	-403.135656	-403.134712	-403.178729	35.32	
C	-0.0855033767	 1.5015756727	 0.0515021198	-0.414642
C	-0.0107343163	-0.0221277576	-0.0530610629	-0.152492
C	 0.8628609444	-0.5650884986	-1.1887332642	-0.066826
N	 1.9411790164	-1.0631437273	-0.1996436471	-0.222481
C	 1.0552173251	-0.6440080118	 0.8685971318	 0.394155
O	 1.2323387503	-0.6892392379	 2.0473067716	-0.311611
C	 1.1723425034	-2.0040517579	-1.1006575802	 0.301515
C	 0.2324148671	-3.0363147928	-0.5092413639	-0.465497
C	 2.0786877601	-2.5639138641	-2.180072095	-0.443144
H	 0.9051805961	 1.9554253173	-0.0516471581	 0.132494
H	-0.7330158967	 1.9139415923	-0.7285176815	 0.122562
H	-0.4912064464	 1.7927476292	 1.024041582	 0.140239
H	-1.0112026171	-0.4570238861	 0.0327484662	 0.101824
H	 1.1707819423	 0.0332871875	-2.0403337178	 0.102214
H	-0.4340553901	-2.634165879	 0.2552068664	 0.135257
H	-0.3851038853	-3.4712253216	-1.3022387553	 0.125614
H	 0.8103630627	-3.8467472486	-0.0535090472	 0.13801
H	 2.6689263428	-3.3974950888	-1.7873197487	 0.131699
H	 1.4830720316	-2.9336688049	-3.0218206403	 0.11927
H	 2.7704468664	-1.8018354019	-2.5453306356	 0.13184
107.6641	162.1987	173.433	188.7251	209.7276	219.6283	245.3094	321.7632	362.0678	421.7662	478.0558	507.3717	609.5716	701.7818	746.4455	785.5872	849.6111	863.2843	929.1416	958.5337	992.9869	1025.9714	1044.3554	1069.2356	1075.259	1103.4183	1117.677	1152.0667	1232.8075	1242.6351	1290.6218	1338.9426	1402.932	1410.2247	1412.8108	1426.1696	1474.7142	1484.7544	1495.0855	1498.3278	1499.5335	1509.4624	1902.7084	3037.4606	3039.2766	3043.4608	3061.1568	3101.7262	3107.1051	3109.2267	3121.1518	3129.3038	3135.4718	3166.1489
CC1C2N(C1=O)C2(C)C	C[C@H]1[C@H]2N(C1=O)C2(C)C	
InChI=1S/C7H11NO/c1-4-5-7(2,3)8(5)6(4)9/h4-5H,1-3H3	InChI=1S/C7H11NO/c1-4-5-7(2,3)8(5)6(4)9/h4-5H,1-3H3/t4-,5+,8?/m0/s1
