18
gdb 99339	7.24497	0.57023	0.53561	4.5056	74.16	-0.2837	0.0025	0.2861	1994.7509	0.145355	-439.143176	-439.132857	-439.131913	-439.180851	34.388	
C	 0.176626945	 1.4260168952	 0.0045935995	-0.371844
C	-0.0804648003	-0.0789606052	 0.0027602602	-0.304721
C	-1.5547955046	-0.4200866802	 0.0156800432	 0.446211
O	-2.4664662856	 0.365200609	 0.0298411729	-0.342188
O	-1.737227682	-1.7652427567	 0.0093848047	-0.251158
C	-3.1008234802	-2.2005484299	 0.0211529898	-0.061145
C	-3.0521273428	-3.7309390055	 0.0106237967	-0.345948
C	-4.3905662279	-4.3146433379	 0.0211674531	 0.249931
N	-5.4547685244	-4.7636874176	 0.029687982	-0.294514
H	 1.2508494168	 1.6288089702	-0.0040914596	 0.115909
H	-0.2725485308	 1.9009925663	-0.87106631	 0.135352
H	-0.2575100103	 1.8961737347	 0.8903563614	 0.135498
H	 0.3650488434	-0.5633461021	-0.8743526281	 0.134989
H	 0.3809214477	-0.5678399177	 0.8691718692	 0.135083
H	-3.608966244	-1.8226808577	 0.9126672946	 0.144364
H	-3.6279160984	-1.8110996846	-0.8542217693	 0.144398
H	-2.515087702	-4.0778670058	-0.8784826812	 0.164892
H	-2.4961181896	-4.0893803644	 0.8833572609	 0.164892
28.2928	49.6824	58.3601	85.4092	163.0728	188.0551	213.5049	281.3165	315.6377	399.09	444.1455	565.1975	577.6594	666.1952	784.6819	810.4428	879.031	963.9008	1004.8212	1034.6169	1075.5352	1087.2148	1106.4871	1108.3161	1201.1543	1231.7403	1278.3469	1296.1687	1306.2658	1374.4932	1416.321	1417.8357	1458.2871	1470.7489	1493.2824	1500.318	1516.3493	1827.8583	2368.9187	3041.9981	3053.4001	3054.3164	3066.2972	3071.3573	3090.9467	3118.2351	3126.8	3131.1624
CCC(=O)OCCC#N	CCC(=O)OCCC#N	
InChI=1S/C6H9NO2/c1-2-6(8)9-5-3-4-7/h2-3,5H2,1H3	InChI=1S/C6H9NO2/c1-2-6(8)9-5-3-4-7/h2-3,5H2,1H3
