18
gdb 68752	2.49729	1.71823	1.24053	3.406	71.85	-0.2438	0.0111	0.2549	1041.1864	0.148289	-439.120023	-439.111505	-439.11056	-439.152733	32.391	
C	-0.0698498993	 1.5346403999	-0.0275932992	-0.487847
C	-0.0148768501	 0.0297444052	 0.0099568608	 0.277111
C	 1.2357550343	-0.7152150474	-0.3539429557	-0.355242
C	 0.7381060723	-0.749291749	 1.0801321535	 0.114161
N	 1.5362844092	-0.1375230433	 2.0938513178	-0.587403
C	-0.114495869	-1.9480784046	 1.386347853	 0.400108
O	 0.0417432474	-2.7543177769	 2.259440529	-0.35394
O	-1.1649560449	-1.9996937984	 0.5170310481	-0.232736
C	-1.2894554028	-0.769268487	-0.2217984248	-0.142059
H	 0.8585479257	 1.9529975105	 0.3692380805	 0.144935
H	-0.2061512878	 1.9045530544	-1.0497805092	 0.123965
H	-0.8979991175	 1.9158248754	 0.5804075859	 0.119489
H	 1.1765887051	-1.6166559154	-0.9562088113	 0.12663
H	 2.1297874095	-0.1184278102	-0.4988522967	 0.129009
H	 0.9942588732	-0.0218584905	 2.9455965271	 0.239869
H	 2.3104015257	-0.7501195123	 2.3355182714	 0.245555
H	-2.1694530158	-0.2327915559	 0.1528515291	 0.116269
H	-1.4572561753	-1.0260596243	-1.2725371192	 0.122128
119.9522	176.8615	194.7682	199.4854	234.8369	281.5603	327.6134	377.2824	450.1312	519.7349	559.047	657.3021	705.6173	720.4856	803.722	833.5819	903.235	923.6715	956.23	991.22	1024.9164	1045.3112	1059.7681	1099.4595	1126.5954	1161.9757	1232.0807	1250.9457	1293.815	1347.1214	1382.0447	1415.3869	1421.4872	1489.1543	1491.4129	1501.6212	1521.8359	1668.6391	1870.4609	3028.6147	3033.6172	3080.4499	3089.5771	3121.8546	3125.9157	3219.6732	3491.3501	3560.0152
CC12CC1(N)C(=O)OC2	C[C@@]12C[C@]1(N)C(=O)OC2	
InChI=1S/C6H9NO2/c1-5-2-6(5,7)4(8)9-3-5/h2-3,7H2,1H3	InChI=1S/C6H9NO2/c1-5-2-6(5,7)4(8)9-3-5/h2-3,7H2,1H3/t5-,6-/m0/s1
