18
gdb 108426	2.74175	1.57073	1.23125	0.301	70.72	-0.2474	0.0146	0.262	1043.9258	0.148938	-439.085856	-439.077962	-439.077018	-439.118593	30.09	
O	 0.1250475673	 1.3652399792	 0.2844470656	-0.418224
C	 0.0673558602	-0.0412533429	 0.1349315314	-0.138338
C	-1.3498425552	-0.5381488533	-0.0402629592	 0.382329
C	-2.3472338985	-0.3775622486	 1.1343078959	-0.280716
C	-2.5773710775	-1.923201335	 1.1441692957	-0.221952
C	-1.6808022144	-2.0613256182	-0.1168730105	-0.06485
N	-2.4189004125	-2.2210652306	-1.3780823792	-0.264005
C	-2.4493751457	-1.0722557056	-1.9136899705	 0.102575
O	-1.863205262	-0.0106063878	-1.2991191804	-0.277052
H	-0.2851421074	 1.745247775	-0.5005718179	 0.29327
H	 0.6770325166	-0.3876988492	-0.7146921312	 0.09603
H	 0.493576407	-0.470140053	 1.0481048478	 0.112445
H	-1.9082978171	 0.0444662676	 2.040450493	 0.118623
H	-3.2244270874	 0.2140211664	 0.8662794061	 0.114224
H	-2.1692520532	-2.4243702082	 2.025109821	 0.107131
H	-3.6058144752	-2.2558871475	 0.9940559678	 0.115756
H	-0.8642446725	-2.7866619328	-0.0602309019	 0.081867
H	-2.9155554424	-0.8350548353	-2.8639265634	 0.140887
78.0742	105.8936	166.6896	282.429	322.6289	362.2183	412.8542	436.3301	579.6792	650.5719	679.1872	739.3215	830.8768	865.9447	885.4892	907.7778	942.2284	957.3463	969.2504	1031.4281	1057.4203	1074.1329	1118.3144	1128.9918	1142.861	1195.4261	1214.3318	1236.2456	1259.1495	1276.3393	1304.3987	1320.6723	1337.5235	1383.3888	1428.7206	1470.9387	1485.5726	1495.1489	1688.0414	2982.7195	3063.5381	3072.3274	3074.5327	3079.9143	3121.1189	3138.6818	3212.964	3806.467
OCC12CCC1N=CO2	OC[C@]12CC[C@H]1N=CO2	
InChI=1S/C6H9NO2/c8-3-6-2-1-5(6)7-4-9-6/h4-5,8H,1-3H2	InChI=1S/C6H9NO2/c8-3-6-2-1-5(6)7-4-9-6/h4-5,8H,1-3H2/t5-,6-/m1/s1
