15
gdb 31899	6.28485	0.91358	0.80286	2.1452	83.43	-0.1976	-0.0111	0.1864	1375.4839	0.112336	-416.810339	-416.801694	-416.80075	-416.843862	31.046	
C	 0.0833447849	 1.3488166698	 0.1018852751	-0.324437
N	-0.0628186855	-0.0807244089	-0.1156835426	-0.400497
C	-1.2892379272	-0.6531907069	-0.0392154451	 0.508048
N	-2.4516627064	-0.0562032867	-0.0255450361	-0.343737
C	-3.3514706575	-1.1041745773	-0.001793747	-0.197789
C	-2.6993798859	-2.2985010562	 0.008028097	 0.167998
O	-1.331513122	-2.0005279972	-0.015964551	-0.233792
C	-3.096998969	-3.6385288486	 0.0384790795	 0.235918
C	-3.4538131693	-4.7900157498	 0.0646914073	-0.418423
H	 1.0858827983	 1.6508916837	-0.2076504443	 0.130246
H	-0.6507085599	 1.8770063357	-0.5090276778	 0.166128
H	-0.0730782438	 1.638990468	 1.1492639331	 0.129941
H	 0.7050600971	-0.6782993589	 0.145999845	 0.259376
H	-4.4171861632	-0.9390251738	 0.0121968713	 0.129459
H	-3.7705261807	-5.8030032228	 0.0872669256	 0.19156
85.6903	106.2067	132.9792	166.4861	224.2861	305.7075	396.6582	453.3395	460.6139	497.8117	553.108	628.588	654.8413	695.2623	753.5379	759.9253	876.5159	965.1975	992.5492	1104.3742	1151.0847	1162.3518	1205.8797	1212.8283	1276.2526	1334.5759	1453.6316	1485.2554	1505.756	1530.3103	1612.4816	1662.3183	2224.7326	3017.6143	3103.9636	3147.2219	3266.5055	3504.1537	3639.2531
CNC1=NC=C(O1)C#C	CNc1ncc(o1)C#C	
InChI=1S/C6H6N2O/c1-3-5-4-8-6(7-2)9-5/h1,4H,2H3,(H,7,8)	InChI=1S/C6H6N2O/c1-3-5-4-8-6(7-2)9-5/h1,4H,2H3,(H,7,8)
