21
gdb 118504	2.2386	0.96735	0.71441	2.9002	75.6	-0.2532	0.077	0.3303	1593.0297	0.179541	-461.317196	-461.306501	-461.305557	-461.354008	36.992	
C	-0.2449460374	 0.1254979274	-0.9598557656	-0.236909
O	-0.1358284069	-0.8638333673	 0.0401368181	-0.24558
C	 0.7305742963	-0.5347494826	 1.1164958304	 0.077266
C	 0.4643581048	-1.5314720913	 2.2414433974	-0.187146
C	-0.9580188437	-1.4570436039	 2.781755978	-0.08532
O	-1.0605632029	-2.3921576585	 3.8461466	-0.421885
C	 2.1865677728	-0.5864958502	 0.6840340421	 0.073032
C	 2.957068985	 0.6178493495	 0.3464992676	-0.182883
O	 3.123855706	-0.0306560796	 1.6070532832	-0.234442
H	 0.6900015007	 0.2635571607	-1.5203438395	 0.111331
H	-1.021309759	-0.2063347623	-1.653688146	 0.129137
H	-0.5408451261	 1.0981891304	-0.5367179356	 0.103846
H	 0.5165007335	 0.4886875423	 1.4721013619	 0.066071
H	 0.6554173667	-2.5477175629	 1.877722683	 0.110592
H	 1.1710940328	-1.3351426265	 3.0540786647	 0.126354
H	-1.167435153	-0.4317992737	 3.1317858274	 0.07837
H	-1.6693843666	-1.6821488777	 1.9757467964	 0.102377
H	-1.9750269964	-2.40856729	 4.1422969487	 0.284616
H	 2.491276388	-1.5371688678	 0.2423017046	 0.099744
H	 3.8052112264	 0.5460657913	-0.3330203073	 0.117933
H	 2.4735351492	 1.5934585427	 0.3855251906	 0.113495
66.2959	80.6928	90.0389	98.7981	133.5444	183.9683	240.174	251.4062	263.8374	336.0849	373.2696	404.9914	493.8858	587.2414	787.9955	854.6994	874.3833	913.0362	958.4315	1017.0452	1054.7619	1071.4816	1100.1333	1123.9069	1141.8819	1154.6777	1160.9845	1176.0405	1183.1991	1209.8142	1243.5069	1246.4283	1280.2293	1302.2552	1314.6761	1343.5929	1380.8887	1447.3325	1459.3801	1478.4137	1483.6324	1490.5742	1510.1986	1525.3298	1530.8768	2949.5208	2958.371	2980.5847	3025.0081	3035.3323	3046.236	3079.8145	3096.6216	3100.4348	3113.3546	3167.1718	3832.7394
COC(CCO)C1CO1	CO[C@@H](CCO)[C@H]1CO1	
InChI=1S/C6H12O3/c1-8-5(2-3-7)6-4-9-6/h5-7H,2-4H2,1H3	InChI=1S/C6H12O3/c1-8-5(2-3-7)6-4-9-6/h5-7H,2-4H2,1H3/t5-,6+/m0/s1
