12
gdb 9453	2.95465	1.80699	1.70263	3.869	55.05	-0.2742	-0.0355	0.2388	812.7986	0.08393	-414.6742	-414.666794	-414.66585	-414.706065	25.941	
N	 0.0590610122	 1.5072700013	 0.1391488582	-0.545281
C	 0.0111601205	 0.0641496785	 0.0323307862	-0.038844
C	-1.4036748786	-0.5557707076	-0.1359606148	-0.088496
O	-1.0197513221	-1.134416643	-1.4205930013	-0.231861
C	 0.2391564168	-0.6038024262	-1.3742106587	 0.425158
O	 1.0937234546	-0.6376685334	-2.1928830583	-0.302559
C	 0.8183708069	-0.5533204723	 1.080787391	 0.277363
N	 1.4640174315	-1.0560385472	 1.8960718598	-0.311764
H	 1.0212535341	 1.8264461777	 0.1973962964	 0.264032
H	-0.3518780618	 1.9352462077	-0.6856709693	 0.252612
H	-1.6875968462	-1.3286262279	 0.577759286	 0.156855
H	-2.1945431378	 0.1865390224	-0.2565341653	 0.142784
111.1867	133.0253	187.4676	231.6008	249.6468	352.5965	431.3818	544.9758	604.4283	670.0602	739.2229	786.4219	827.6214	938.0399	971.1924	994.3684	1062.1995	1105.4551	1153.7639	1236.1487	1329.3801	1362.8352	1513.0204	1660.3272	1949.5169	2364.7797	3086.8854	3160.2101	3499.3589	3584.0761
NC1(COC1=O)C#N	N[C@]1(COC1=O)C#N	
InChI=1S/C4H4N2O2/c5-1-4(6)2-8-3(4)7/h2,6H2	InChI=1S/C4H4N2O2/c5-1-4(6)2-8-3(4)7/h2,6H2/t4-/m0/s1
