18
gdb 14063	3.40877	1.591	1.47232	1.7012	68.22	-0.2254	0.0531	0.2784	945.1115	0.153259	-384.898806	-384.890731	-384.889787	-384.931246	30.562	
O	 0.0677466362	 1.3854184061	-0.0154036413	-0.431937
C	 0.0318172747	-0.0091543425	-0.0290242946	 0.02918
C	-0.4576165857	-0.7117298694	 1.2185322878	-0.052264
O	-0.916510495	 0.1291463382	 2.2516219756	-0.42974
C	-1.3026971212	-0.7189209267	-0.0205295012	 0.296567
C	-2.6440915643	-0.0113711643	-0.2394973451	-0.286362
C	-2.9666783691	-1.0692165043	-1.3389300276	-0.201862
C	-1.7314070253	-1.9076176128	-0.8891059927	-0.306693
H	-0.3721872793	 1.6520602386	 0.8040892126	 0.283893
H	 0.8550682203	-0.431119697	-0.5996279295	 0.096973
H	 0.0041561328	-1.6424814502	 1.546912466	 0.086988
H	-0.1685373314	 0.3183055504	 2.8297802751	 0.294999
H	-3.3081960918	-0.063817486	 0.6274696348	 0.108399
H	-2.573722326	 1.0289486695	-0.5668551905	 0.108158
H	-3.9371310151	-1.5640645757	-1.2643865669	 0.098695
H	-2.8591466112	-0.6704483781	-2.3501649899	 0.107111
H	-1.0339071221	-2.2139172231	-1.6742998781	 0.098454
H	-2.0031130365	-2.7916808228	-0.3028938145	 0.099441
72.34	152.9752	178.1032	240.8903	254.3163	286.2054	425.6434	488.8232	509.8266	619.1537	655.6134	721.0892	786.0319	818.1671	856.1354	871.2509	939.2585	956.3815	990.0262	1043.192	1081.4803	1111.5732	1145.2446	1155.0836	1170.8169	1218.1006	1225.5431	1246.4596	1255.1142	1262.9136	1280.2558	1312.0761	1330.6946	1410.3525	1472.1864	1477.03	1484.0384	1505.0354	3040.391	3057.5568	3069.5752	3085.8689	3102.3333	3103.8841	3125.4364	3143.7543	3740.3813	3794.1517
OC1C(O)C11CCC1	O[C@H]1[C@@H](O)C21CCC2	
InChI=1S/C6H10O2/c7-4-5(8)6(4)2-1-3-6/h4-5,7-8H,1-3H2	InChI=1S/C6H10O2/c7-4-5(8)6(4)2-1-3-6/h4-5,7-8H,1-3H2/t4-,5+
