17
gdb 87024	2.1564	1.55399	1.06649	2.0556	76.75	-0.2419	0.0092	0.2511	1165.0526	0.133388	-417.961701	-417.952245	-417.951301	-417.995675	35.507	
C	 0.3110955523	 1.3086446124	-0.291534935	-0.429704
C	 0.3959046012	-0.1463479124	 0.0761933959	 0.054873
O	 1.6803191777	-0.6627645223	 0.4354126094	-0.30521
C	 0.6609216044	-0.625976295	 1.4630164708	 0.14832
C	 0.8712505653	 0.3190444818	 2.5287476027	 0.287536
C	 1.0679300552	 1.1199640954	 3.4016004341	-0.384097
C	 0.1218997246	-1.9847707199	 1.8651677059	 0.260096
N	 0.450275554	-2.9758215452	 0.9649333569	-0.549439
N	-0.6050002391	-2.0646986756	 2.9093598087	-0.511595
H	 0.8586909551	 1.9265369923	 0.4218652234	 0.145581
H	 0.7275329871	 1.4667919871	-1.291711305	 0.130916
H	-0.7355606009	 1.6293320401	-0.3064355928	 0.132757
H	-0.1823540073	-0.8291292889	-0.5472332061	 0.104517
H	 1.2342521892	 1.8145129135	 4.1875794026	 0.196181
H	 1.2836540945	-2.8073513554	 0.4193632537	 0.268111
H	 0.3052167165	-3.9275220983	 1.2627653714	 0.249146
H	-0.9315945698	-3.0207711496	 3.0631539635	 0.202012
68.8491	145.7251	159.202	176.5115	197.5192	248.9073	346.2108	402.9501	433.7156	458.0375	501.4445	544.852	573.3016	593.9745	634.0113	656.7773	665.06	688.6891	807.1769	861.5997	908.8523	985.2519	1003.9661	1084.3571	1122.1712	1136.0866	1162.0604	1217.8408	1316.823	1405.1207	1424.4058	1436.8647	1485.3178	1492.9717	1612.2596	1732.9808	2247.9763	3043.6772	3107.2544	3108.4796	3147.0152	3450.2682	3502.6847	3564.4755	3686.7184
CC1OC1(C#C)C(N)=N	C[C@H]1O[C@]1(C#C)C(=N)N	
InChI=1S/C6H8N2O/c1-3-6(5(7)8)4(2)9-6/h1,4H,2H3,(H3,7,8)	InChI=1S/C6H8N2O/c1-3-6(5(7)8)4(2)9-6/h1,4H,2H3,(H3,7,8)/t4-,6+/m1/s1
