17
gdb 25872	4.22019	1.00921	0.8209	4.7536	79.13	-0.2011	-0.0174	0.1836	1358.3481	0.136496	-418.067756	-418.058744	-418.0578	-418.101799	32.885	
C	-0.0296010607	 1.4937196914	-0.003764199	-0.493122
C	 0.0247723709	-0.0288362587	 0.0272773734	 0.298024
O	 1.091747917	-0.6160511373	 0.0350273337	-0.329377
C	-1.2496244432	-0.7570221515	 0.0466534759	 0.19597
C	-2.5289465582	-0.2293829496	 0.0469077596	-0.176088
N	-3.408226219	-1.2741751181	 0.0633735966	-0.27591
C	-2.7213208505	-2.4738563309	 0.0644213967	 0.314804
N	-3.4527022769	-3.6742766557	 0.1397589177	-0.608314
C	-1.3821152742	-2.1844278616	 0.0522951335	-0.325134
H	 0.9877159612	 1.8862705988	-0.0061202081	 0.136001
H	-0.557397018	 1.8448088275	-0.8971094124	 0.130793
H	-0.56800618	 1.8813610934	 0.86786484	 0.130746
H	-2.875839762	 0.7909452803	 0.0346962181	 0.127971
H	-4.4082699622	-1.2048876636	 0.1499272507	 0.262788
H	-3.877624885	-3.9267530877	-0.7482008502	 0.246279
H	-2.8510184349	-4.4386254773	 0.4208020582	 0.252925
H	-0.5635675642	-2.8857618295	 0.0340116656	 0.111643
74.5873	112.9814	140.2063	156.363	162.897	300.8251	335.2635	402.5684	507.72	515.8938	574.486	602.7563	651.1545	685.8888	717.711	731.8309	813.5148	843.4359	928.2178	981.8397	995.3041	1043.5538	1093.4231	1134.8995	1152.0828	1230.0516	1271.8967	1360.3152	1381.6331	1429.531	1454.9843	1470.7381	1478.2938	1550.6321	1625.0415	1659.7571	1761.0569	3037.0231	3099.3299	3151.042	3266.5263	3267.4867	3492.5659	3599.3884	3668.0667
CC(=O)C1=CNC(N)=C1	CC(=O)c1c[nH]c(N)c1	
InChI=1S/C6H8N2O/c1-4(9)5-2-6(7)8-3-5/h2-3,8H,7H2,1H3	InChI=1S/C6H8N2O/c1-4(9)5-2-6(7)8-3-5/h2-3,8H,7H2,1H3
