20
gdb 54145	2.40117	1.42261	1.10102	5.3526	75.58	-0.2449	0.0197	0.2646	1177.5994	0.169855	-440.317444	-440.30784	-440.306896	-440.351313	36.738	
C	-0.0970001972	 1.5221925096	-0.0269258407	-0.457143
C	-0.0333192644	 0.003422105	-0.0380035564	 0.309722
C	-1.2764535921	-0.6361015967	-0.630065346	-0.468718
C	 1.3070622366	-0.6329604684	-0.2562820095	-0.347926
C	 0.7050886939	-0.6713958815	 1.1397184827	 0.078578
N	 1.2379517886	 0.1312899842	 2.2275416659	-0.606674
H	 2.2401976631	 0.2642536743	 2.1588348067	 0.24749
H	 0.7987779947	 1.0404028203	 2.3002188053	 0.2484
H	 0.6074391198	-1.2909205646	 3.2771118989	 0.302744
C	 0.2459295555	-2.0363056829	 1.6246400181	 0.427645
O	 0.2454342288	-2.1476805318	 2.9587200657	-0.377473
O	-0.0759445544	-2.9465824377	 0.9009797093	-0.359456
H	 0.8342521823	 1.9857408776	 0.3092124193	 0.10707
H	-0.2920816674	 1.886525748	-1.0411704483	 0.130321
H	-0.9141613319	 1.8854056382	 0.608504295	 0.12155
H	-1.394540677	-0.3108457165	-1.6700049797	 0.111686
H	-1.2219268089	-1.723150699	-0.6054910723	 0.168971
H	-2.173087378	-0.3224113331	-0.0829682147	 0.112639
H	 1.3434025776	-1.587066923	-0.7700777973	 0.144753
H	 2.1682195203	 0.0124346279	-0.4028600419	 0.105819
75.1945	142.6944	187.0898	215.1337	234.8007	270.3135	304.1895	334.7517	372.375	394.5626	430.2461	466.0359	513.7805	580.3004	666.2763	744.9771	795.7117	824.5366	857.6558	878.6292	925.4626	938.7685	974.7081	996.6063	1042.3317	1077.0641	1135.6016	1146.9734	1193.2293	1225.7398	1257.1232	1309.6415	1362.7594	1408.6722	1422.1957	1431.4886	1471.0351	1489.0548	1492.6861	1511.328	1514.3261	1651.441	1841.5042	3025.0135	3031.4465	3083.0966	3088.0426	3109.0565	3124.8874	3164.6289	3223.7015	3467.1096	3525.1415	3606.4252
CC1(C)CC1([NH3+])C([O-])=O	CC1(C)C[C@]1(N)C(=O)O	
InChI=1S/C6H11NO2/c1-5(2)3-6(5,7)4(8)9/h3,7H2,1-2H3,(H,8,9)	InChI=1S/C6H11NO2/c1-5(2)3-6(5,7)4(8)9/h3,7H2,1-2H3,(H,8,9)/t6-/m0/s1
