14
gdb 10110	2.31066	1.63091	1.00261	4.2764	60.21	-0.2712	-0.0169	0.2543	1097.4694	0.106023	-415.874788	-415.866124	-415.86518	-415.909479	28.995	
N	-0.220597087	 1.4537411351	-0.0721618241	-0.520613
C	-0.0469244731	 0.0077551046	-0.0418460398	-0.163948
C	-1.4344258671	-0.6465342852	-0.0102263216	-0.027579
O	-2.1136019028	-0.3082679693	-1.2246403694	-0.188915
C	-3.3791777181	 0.1775266304	-1.1321480452	 0.18046
O	-3.9983203025	 0.510116339	-2.0919370873	-0.255349
C	-1.3497016791	-2.1092059823	 0.1148033334	 0.287496
N	-1.2626630849	-3.254231954	 0.2363544306	-0.302981
H	 0.6555427654	 1.9166928459	 0.1418676043	 0.243751
H	-0.4912029596	 1.7508632056	-1.0041152736	 0.249187
H	 0.5149074497	-0.4181684059	-0.8868129018	 0.124287
H	 0.4765601914	-0.2744003864	 0.8769772147	 0.134403
H	-1.9873128575	-0.2454831852	 0.8482771125	 0.142558
H	-3.743821485	 0.2284880576	-0.0894484525	 0.097242
23.9457	122.2276	140.9722	149.018	213.7942	250.4216	294.6184	364.1019	473.4665	506.6934	551.4542	662.0355	855.0564	888.7431	986.0929	1035.0141	1039.7066	1068.0525	1111.8596	1152.2415	1213.6105	1266.8092	1347.6066	1365.4703	1420.5729	1435.5821	1493.2911	1657.4059	1880.3865	2366.3956	2970.2327	2993.8666	3042.4293	3087.4691	3514.4502	3593.7927
NCC(OC=O)C#N	NC[C@@H](OC=O)C#N	
InChI=1S/C4H6N2O2/c5-1-4(2-6)8-3-7/h3-4H,1,5H2	InChI=1S/C4H6N2O2/c5-1-4(2-6)8-3-7/h3-4H,1,5H2/t4-/m1/s1
