16
gdb 23573	3.11005	1.50089	1.31745	1.6176	71.	-0.2432	0.0112	0.2544	990.9145	0.124924	-437.774446	-437.767436	-437.766492	-437.80579	28.248	
O	-0.0783977281	 1.3868776634	-0.0932115009	-0.398688
N	 0.0819996908	-0.0159507478	-0.0506127431	-0.323175
C	-1.0270760784	-0.5941400653	 0.0979876202	 0.485882
C	-2.5240784344	-0.3339016433	 0.0768547455	-0.016302
O	-2.5682112191	-1.5069642246	-0.8282595456	-0.30589
C	-1.4907516462	-2.0322041701	 0.0436872275	-0.00946
C	-2.2302777547	-2.2360131834	 1.3808823316	-0.05589
C	-1.9943596668	-1.225169337	 2.4756319652	-0.301672
C	-3.0188394092	-0.9322085264	 1.4069727385	-0.050676
H	 0.8256641051	 1.685975744	-0.2382325745	 0.30824
H	-2.9837444767	 0.5636159214	-0.3278223438	 0.106511
H	-0.9155326999	-2.8451455781	-0.3929088479	 0.100573
H	-2.6824231117	-3.1960762394	 1.5936707924	 0.104238
H	-2.3859148977	-1.4803935574	 3.4552870002	 0.116489
H	-1.0658162831	-0.6649365695	 2.5028498029	 0.135555
H	-4.0743977799	-0.8935391966	 1.6432602119	 0.104265
113.1509	190.0058	285.6046	352.7705	374.8852	433.8395	498.2229	603.0408	674.0587	687.572	749.121	784.6986	808.467	832.6025	851.7983	878.4566	914.7729	960.2465	975.2433	1009.108	1042.8071	1084.2467	1093.434	1095.0555	1134.7392	1181.6222	1185.4279	1235.2	1252.0076	1268.7687	1309.7487	1360.6896	1414.2825	1487.5795	1823.2969	3129.3445	3161.0363	3170.3821	3194.2277	3199.8738	3215.0715	3818.7601
ON=C1C2OC1C1CC21	ON=C1[C@H]2O[C@@H]1[C@H]1C[C@@H]21	
InChI=1S/C6H7NO2/c8-7-4-5-2-1-3(2)6(4)9-5/h2-3,5-6,8H,1H2	InChI=1S/C6H7NO2/c8-7-4-5-2-1-3(2)6(4)9-5/h2-3,5-6,8H,1H2/t2-,3+,5+,6-
