13
gdb 127634	3.62058	1.33392	0.98083	2.078	75.94	-0.224	-0.0849	0.1391	1104.8118	0.089437	-448.927306	-448.919382	-448.918438	-448.960276	27.646	
C	-0.0075588294	 1.5169094603	-0.1848251174	-0.329615
N	 0.0267552395	 0.0892526241	 0.0320271765	-0.064905
N	 0.2120662541	-0.7741522864	-1.0197338072	-0.220182
C	 0.2025151919	-1.9820195528	-0.543092849	-0.056998
C	 0.0046837237	-1.9540782811	 0.8816910042	 0.15397
C	-0.1149263304	-0.5256290284	 1.2695682251	 0.404959
O	-0.2878575258	 0.004455954	 2.3474166437	-0.401924
N	-0.1311631335	-3.7841935115	 2.4740555457	-0.198147
N	-0.0648542835	-2.9467895816	 1.7182874213	 0.115891
H	 0.9366943349	 1.8663330814	-0.6125841504	 0.142558
H	-0.8260053046	 1.7862313071	-0.8587554642	 0.142609
H	-0.1646567739	 1.982697973	 0.7891426193	 0.168095
H	 0.330109337	-2.8463248281	-1.1770186076	 0.143689
95.0756	116.0326	138.9878	187.6388	264.6836	293.1868	443.6443	517.1614	544.4266	605.0015	606.9465	725.2454	759.629	787.3436	828.1794	976.5814	1028.3387	1155.5664	1206.7289	1256.6034	1283.19	1386.6185	1444.6267	1458.0573	1484.9501	1511.9735	1560.9351	1795.754	2236.3402	3044.1658	3107.2862	3154.8953	3252.7255
CN1N=CC2=C1ON=N2	CN1N=C[C](C1=O)[N][N]	
InChI=1S/C4H4N4O/c1-8-4-3(2-5-8)6-7-9-4/h2H,1H3	InChI=1S/C4H4N4O/c1-8-4(9)3(7-5)2-6-8/h2H,1H3
