18
gdb 90525	4.47929	1.05466	0.9621	4.5523	76.49	-0.2751	0.0013	0.2763	1242.9951	0.147874	-401.928355	-401.920138	-401.919193	-401.961521	30.704	
C	 0.359404732	 1.6173577137	-0.0149422842	-0.407237
C	 0.079108114	 0.123654572	-0.0414560946	 0.021918
C	 0.9823265347	-0.8046873804	-0.9238459951	-0.2755
C	 1.2263173814	-1.7347334295	 0.2978470614	-0.084943
C	 2.4647971607	-1.3279211019	 1.126695052	-0.019865
O	 1.7205923838	-0.2970860517	 1.8075326718	-0.290645
C	 0.4695459287	-0.7177669415	 1.196610804	 0.104462
C	 2.9620949961	-2.3517877611	 2.0542262728	 0.276472
N	 3.3480058057	-3.1749569052	 2.7676078066	-0.316221
H	 1.38667146	 1.8108705547	 0.3058629716	 0.131485
H	 0.2182234784	 2.0572140101	-1.0076751969	 0.117422
H	-0.3110010482	 2.1351100161	 0.6793426225	 0.121263
H	-0.9760976073	-0.062482836	-0.2717752208	 0.081563
H	 0.4656939684	-1.2827945808	-1.7578326138	 0.113026
H	 1.8897985397	-0.3306828927	-1.3101816259	 0.106605
H	 0.9929356287	-2.7931826549	 0.2122896243	 0.104437
H	 3.3119398633	-0.9226935745	 0.559823926	 0.125786
H	-0.2835065602	-0.9562170965	 1.9509195983	 0.089974
61.7281	130.1253	162.4695	210.9414	262.5399	331.6368	352.4744	469.0208	501.3931	575.3551	685.4344	773.3699	827.3608	870.5971	876.8309	886.8955	946.1721	960.347	964.8637	1005.6691	1041.3846	1083.6634	1103.8864	1126.9155	1163.9148	1199.013	1219.0465	1234.1253	1272.9734	1290.9713	1296.008	1320.5895	1355.2252	1367.7918	1408.0361	1484.1084	1490.5877	1500.4536	2355.192	3034.9384	3035.4794	3041.7176	3057.7187	3088.3741	3099.539	3116.3969	3119.3523	3146.6047
CC1CC2C(OC12)C#N	C[C@H]1C[C@H]2[C@@H](O[C@@H]12)C#N	
InChI=1S/C7H9NO/c1-4-2-5-6(3-8)9-7(4)5/h4-7H,2H2,1H3	InChI=1S/C7H9NO/c1-4-2-5-6(3-8)9-7(4)5/h4-7H,2H2,1H3/t4-,5-,6-,7-/m0/s1
