23
gdb 106411	2.67178	1.33651	1.14356	0.2393	90.68	-0.262	0.0936	0.3556	1225.4745	0.205909	-351.095465	-351.086677	-351.085733	-351.128745	34.959	
C	-0.030470843	 1.5258526962	 0.0507651002	-0.379715
C	 0.0290559804	-0.0023609237	-0.0571602252	-0.315208
C	 0.7332897343	-0.4923786757	-1.2973016878	 0.27558
C	 0.3493398347	-0.2313157058	-2.7949523454	-0.257448
C	 1.6145018216	-1.1378555386	-2.8491437002	-0.135116
C	 2.2187209525	-0.2386007231	-1.7303657522	-0.257436
C	 0.9697296728	-1.9610561014	-1.7225690396	 0.426896
C	 1.4163441949	-3.162798679	-0.9676073591	-0.375852
C	 0.0853803625	-3.1575163608	-1.7255063393	-0.375852
H	 0.9744805507	 1.9600266086	 0.0718534922	 0.119005
H	-0.5626498214	 1.9617725749	-0.8010686698	 0.119034
H	-0.5482660038	 1.8365420917	 0.9632191859	 0.110905
H	 0.537688972	-0.4140374298	 0.8250493848	 0.097941
H	-0.9899004446	-0.4122612666	-0.0430435608	 0.09792
H	-0.5878088356	-0.6740971427	-3.1420567982	 0.089447
H	 0.473669221	 0.7933535587	-3.1572329558	 0.083396
H	 2.119910823	-1.5147667683	-3.7392491816	 0.06797
H	 2.4729588382	 0.7855408306	-2.0187336442	 0.083388
H	 2.9927333864	-0.6880675553	-1.1029348035	 0.089446
H	 2.2228362629	-3.768402097	-1.3702086088	 0.109492
H	 1.3739274985	-3.1503219537	 0.1177357105	 0.108358
H	-0.8262968331	-3.1415811051	-1.1351472982	 0.108356
H	 0.0164354851	-3.7596527842	-2.6265904939	 0.109493
71.4334	132.9703	190.5498	219.2941	246.342	248.9554	340.8162	431.8612	474.3902	598.3775	605.2517	656.9142	755.8192	769.1907	789.839	816.3496	903.1706	909.2202	924.0086	940.3566	958.8745	964.9736	998.7378	1027.294	1043.4942	1057.8339	1060.5096	1078.3441	1081.1096	1110.8166	1154.996	1170.1183	1175.5386	1181.5588	1206.6294	1219.1075	1235.2548	1301.2263	1312.4336	1367.0948	1409.4367	1413.8309	1461.9113	1480.4098	1488.034	1498.7214	1506.0625	1508.6308	1539.5304	3009.4239	3035.0729	3041.187	3043.904	3048.6057	3104.0571	3104.481	3105.9949	3112.2631	3114.5554	3115.655	3117.8512	3189.3243	3203.7902
CCC12CC(C1)C21CC1	CC[C@@]12C[C@@H](C1)C12CC1	
InChI=1S/C9H14/c1-2-8-5-7(6-8)9(8)3-4-9/h7H,2-6H2,1H3	InChI=1S/C9H14/c1-2-8-5-7(6-8)9(8)3-4-9/h7H,2-6H2,1H3/t7-,8+
