20
gdb 68860	2.39802	1.81605	1.36552	1.6289	77.84	-0.2344	0.0769	0.3113	1030.2047	0.171091	-403.127427	-403.119153	-403.118209	-403.159599	32.909	
C	 0.0248941884	 1.5304432689	-0.0608337638	-0.496777
C	 0.1298149947	 0.0287480773	 0.0021341073	 0.294647
C	 0.3540433435	-0.7355816342	-1.3074417227	-0.294198
C	 1.1137775915	-1.9830779435	-0.8838431938	 0.057802
O	 2.4148857456	-1.7083726232	-0.3374086996	-0.268776
C	 1.3313455066	-1.9823093186	 0.5638007692	-0.002369
C	 0.7283069784	-0.7283327911	 1.1416848821	 0.259585
C	 1.3489170739	-0.1269024072	 2.3744536013	-0.505469
N	-0.7422909226	-0.7382641697	 0.9339504523	-0.415134
H	 0.9087272481	 1.9642261417	-0.5409350497	 0.129534
H	-0.8512686859	 1.831784208	-0.6471566724	 0.125884
H	-0.0730380753	 1.9785332812	 0.9324419028	 0.114032
H	-0.5996821779	-0.9963000975	-1.7785919592	 0.108409
H	 0.9399762111	-0.1466378854	-2.0217756465	 0.106596
H	 1.0415730007	-2.900722613	-1.4611033129	 0.094117
H	 1.4223592512	-2.8885546033	 1.1586712397	 0.09271
H	 2.4240435655	 0.0197574221	 2.2270481461	 0.1395
H	 0.9053991028	 0.8405629365	 2.6269219864	 0.115586
H	 1.2167139609	-0.7888303586	 3.2383400765	 0.124794
H	-1.1657536812	-0.0864395304	 1.5936982569	 0.219527
158.7389	190.051	201.58	204.1858	255.3023	345.9111	370.5698	438.3452	466.2912	492.9372	558.7125	651.3949	715.4134	763.7534	819.9474	867.9987	892.3419	905.4671	941.8847	977.1579	999.3288	1026.088	1042.8451	1054.9564	1099.6709	1116.377	1138.5423	1157.5829	1219.9272	1257.1304	1268.7908	1294.7298	1335.0809	1379.0784	1411.2034	1417.9644	1428.1904	1449.5041	1470.6929	1480.4668	1492.2369	1494.8217	1511.9215	3026.1667	3030.2332	3040.9053	3084.7075	3087.2259	3090.8795	3103.4753	3111.5187	3135.522	3155.9019	3468.5413
CC12CC3OC3C1(C)N2	C[C@@]12C[C@H]3O[C@H]3[C@]1(C)N2	
InChI=1S/C7H11NO/c1-6-3-4-5(9-4)7(6,2)8-6/h4-5,8H,3H2,1-2H3	InChI=1S/C7H11NO/c1-6-3-4-5(9-4)7(6,2)8-6/h4-5,8H,3H2,1-2H3/t4-,5-,6-,7+/m1/s1
