17
gdb 36633	6.30643	0.71947	0.65627	5.0863	74.43	-0.258	0.012	0.2699	1629.5169	0.136972	-418.047297	-418.038527	-418.037583	-418.08246	30.137	
N	 0.0719960031	-1.1911813873	-0.0783318308	-0.303803
C	 0.0161595309	-0.0371528284	-0.0641486675	 0.256562
C	-0.0374116893	 1.4224785887	-0.0445450392	-0.332361
C	 1.3610809047	 2.0476135934	 0.0919818454	-0.310769
C	 1.2996059038	 3.5421493025	 0.1110533812	 0.433683
N	 0.2503222508	 4.2518610813	 0.027677478	-0.316623
C	 0.6883507768	 5.6547778408	 0.0904182376	-0.190054
C	 2.2320542871	 5.5771183866	 0.2291641893	-0.11324
O	 2.5063045825	 4.1562340913	 0.230507135	-0.25963
H	-0.5186173681	 1.7796142852	-0.9597098568	 0.169777
H	-0.6755636423	 1.7504527506	 0.781177834	 0.169751
H	 1.8515303739	 1.7019677083	 1.0084874194	 0.151706
H	 2.0086639754	 1.7306558299	-0.7327422504	 0.151715
H	 0.3738912915	 6.1844169642	-0.8146493688	 0.122175
H	 0.2146582981	 6.1556514507	 0.9408796427	 0.122174
H	 2.7715825067	 6.0284541828	-0.6077266767	 0.124471
H	 2.6108535545	 5.9991008494	 1.1638462577	 0.124466
49.8164	61.6324	94.1956	106.9792	216.1686	232.2344	381.0278	395.6322	526.062	596.0655	731.2973	761.2697	778.2893	828.2196	922.471	946.3949	981.9215	999.3055	1035.2816	1038.6982	1059.1002	1121.2627	1187.6458	1201.7336	1217.2632	1247.1103	1293.8058	1301.2407	1337.6247	1372.2291	1421.0837	1459.0347	1475.6107	1503.1337	1527.2141	1740.5893	2364.7117	3045.4252	3053.2411	3060.1864	3072.1966	3074.1903	3084.2339	3108.6139	3112.4313
N#CCCC1=NCCO1	N#CCCC1=NCCO1	
InChI=1S/C6H8N2O/c7-3-1-2-6-8-4-5-9-6/h1-2,4-5H2	InChI=1S/C6H8N2O/c7-3-1-2-6-8-4-5-9-6/h1-2,4-5H2
