17
gdb 76357	2.04717	1.42031	1.19255	0.6872	82.44	-0.2392	0.0209	0.2601	1150.405	0.130977	-384.604474	-384.594234	-384.593289	-384.639407	37.153	
C	-0.1271363708	 1.538466204	-0.054112128	-0.411133
C	 0.0126399932	 0.036853173	-0.0214244583	-0.078757
C	 1.3354689713	-0.6271619623	-0.2290422874	 0.082152
O	 2.4726481865	 0.1421607696	-0.417427733	-0.420693
C	 0.6899438519	-0.680660211	 1.1816085059	-0.094825
C	 1.3532151142	 0.1123690191	 2.1793224322	 0.236341
C	 1.9802919711	 0.7702133631	 2.9692863023	-0.445158
C	 0.1250533818	-1.9279288927	 1.6201329452	 0.248746
C	-0.3596701886	-2.9752844257	 1.9577797683	-0.424334
H	 0.7966205967	 2.0292770945	 0.2545024802	 0.135021
H	-0.3562276692	 1.8659191928	-1.0734979445	 0.126608
H	-0.9362082308	 1.8741751149	 0.6012925247	 0.126268
H	-0.8440546554	-0.5212054398	-0.3874001268	 0.108823
H	 1.3606761439	-1.5778530204	-0.7555858703	 0.117377
H	 2.883974034	 0.3037749404	 0.4425901562	 0.295131
H	 2.4908293893	 1.3525063407	 3.6962633811	 0.203386
H	-0.7821464793	-3.8982646403	 2.2687996122	 0.195048
83.6046	112.6471	134.6937	136.902	154.4729	178.955	230.8954	327.5319	379.738	432.2414	471.4835	568.5507	575.209	581.0046	597.0405	636.0331	648.7572	661.2026	672.0316	773.4213	849.2578	974.2363	1012.6232	1058.1505	1088.4547	1122.9227	1168.3702	1230.4188	1282.9779	1352.0284	1377.6022	1414.8057	1418.2132	1487.4367	1495.7672	2225.1185	2237.5012	3045.4514	3105.5422	3139.8085	3143.7107	3162.6362	3499.6584	3504.1707	3738.7907
CC1C(O)C1(C#C)C#C	C[C@H]1[C@@H](O)C1(C#C)C#C	
InChI=1S/C8H8O/c1-4-8(5-2)6(3)7(8)9/h1-2,6-7,9H,3H3	InChI=1S/C8H8O/c1-4-8(5-2)6(3)7(8)9/h1-2,6-7,9H,3H3/t6-,7+/m0/s1
