16
gdb 97064	3.3978	1.20816	0.91931	2.4661	70.64	-0.2585	-0.0764	0.1821	1230.8845	0.123026	-475.037366	-475.02851	-475.027565	-475.071654	31.18	
C	-0.0714133203	 1.4227166164	-0.0307237195	-0.339695
N	-0.003380123	-0.0282076137	-0.0255126028	-0.294368
C	 0.6386471575	-0.6255393739	-0.9282960434	 0.363607
O	 1.3003797409	-0.0529544894	-1.9837084686	-0.260815
C	 2.1067944965	-1.0389119946	-2.6704600582	-0.130892
C	 1.3970665872	-2.3752400966	-2.4178672804	 0.048318
O	 2.2300371298	-3.494789615	-2.452223712	-0.434872
C	 0.794830342	-2.1191031237	-1.0422408661	 0.259378
O	 0.5821285225	-2.9696408092	-0.2189328073	-0.301159
H	 0.6688732629	 1.905289364	-0.6779702977	 0.130217
H	-1.0726447575	 1.7287758233	-0.3579755579	 0.140956
H	 0.0485870897	 1.7805854331	 0.9963533932	 0.137866
H	 2.1586203964	-0.7428854187	-3.7181938983	 0.134737
H	 3.1160130606	-1.0652462997	-2.2442930523	 0.13363
H	 0.5555241936	-2.4690666731	-3.1280410744	 0.113593
H	 1.9579606412	-4.0556731491	-1.7105646544	 0.299498
61.106	73.7731	161.3597	183.4453	205.6713	255.7596	352.8934	371.7201	387.1921	493.344	591.2973	632.7857	646.7415	759.2137	805.3082	940.3269	1006.7603	1029.3683	1062.824	1077.7376	1124.6439	1138.3435	1177.7994	1199.4251	1236.0395	1262.7195	1339.4915	1394.0897	1410.2869	1431.5307	1483.6771	1495.1455	1519.8158	1770.6091	1856.5914	2946.46	3020.2665	3051.0751	3081.6492	3103.0475	3136.1276	3724.7689
CN=C1OCC(O)C1=O	CN=C1OC[C@@H](O)C1=O	
InChI=1S/C5H7NO3/c1-6-5-4(8)3(7)2-9-5/h3,7H,2H2,1H3	InChI=1S/C5H7NO3/c1-6-5-4(8)3(7)2-9-5/h3,7H,2H2,1H3/t3-/m1/s1
