17
gdb 120371	3.24266	0.97507	0.79297	3.9223	69.95	-0.2474	-0.0206	0.2268	1393.0216	0.136671	-455.186043	-455.177305	-455.176361	-455.220322	31.329	
O	 0.1250506	 1.4282267893	-0.1464690906	-0.418078
C	 0.0786103566	 0.0138300166	-0.0482499904	-0.07069
C	-1.3557510164	-0.5193622688	-0.0275005447	-0.197553
C	-1.4150713088	-2.0502472452	 0.0449899182	-0.131583
N	-0.9164202741	-2.5815743424	 1.3249207557	-0.244405
C	-1.8635141455	-3.2897120022	 1.8044662673	 0.068175
N	-3.0194448604	-3.3622031899	 1.0358419522	-0.340115
C	-2.8491317383	-2.5855846315	-0.1085397512	 0.422981
O	-3.6598220048	-2.396639916	-0.9800144753	-0.36166
H	-0.2066303233	 1.7917273314	 0.6805232994	 0.281657
H	 0.5992766053	-0.3623385271	-0.9363636747	 0.110709
H	 0.6254089516	-0.3532410139	 0.8310337858	 0.113841
H	-1.8908638145	-0.1023910058	 0.8358972816	 0.093776
H	-1.8869704045	-0.1938704877	-0.9277559892	 0.132353
H	-0.8065876144	-2.4695952962	-0.7683225033	 0.127169
H	-1.8138968043	-3.8209184812	 2.7497740066	 0.142572
H	-3.8703278141	-3.8483125294	 1.2684851428	 0.270851
73.971	91.6835	110.6062	151.9803	263.1447	297.0861	306.9715	377.466	498.7478	523.9261	616.644	663.0439	715.0279	782.4719	860.6828	893.6215	929.4186	945.2779	1033.8572	1065.4993	1075.454	1094.7307	1103.7545	1160.0493	1192.3367	1243.2372	1286.6233	1313.3625	1339.6739	1351.9769	1394.8304	1401.7487	1421.707	1481.3624	1514.0537	1676.406	1853.5057	3014.0439	3017.7131	3029.4888	3065.5116	3094.6604	3191.4116	3654.0006	3818.8627
OCCC1N=CNC1=O	OCC[C@H]1N=CNC1=O	
InChI=1S/C5H8N2O2/c8-2-1-4-5(9)7-3-6-4/h3-4,8H,1-2H2,(H,6,7,9)	InChI=1S/C5H8N2O2/c8-2-1-4-5(9)7-3-6-4/h3-4,8H,1-2H2,(H,6,7,9)/t4-/m1/s1
