17
gdb 78203	3.05527	1.27464	1.07303	1.5592	74.3	-0.2478	0.0355	0.2833	1137.7251	0.134227	-421.747732	-421.739118	-421.738173	-421.780688	33.223	
O	-0.1737804673	 1.4031166063	 0.0234789447	-0.417956
C	-0.0667907105	 0.0069382813	 0.062688639	 0.075899
C	-0.4357241655	-0.8055218636	 1.2719224518	-0.161723
C	-1.302604853	-0.8206329021	-0.0031269181	-0.092411
C	-2.4621743876	-0.125825128	 0.7487453966	-0.251178
C	-3.6340370173	-0.9620957287	 0.8987199091	 0.287552
C	-4.5749479898	-1.6941872355	 1.0675043953	-0.418749
C	-1.5567665225	-0.099469019	 2.0579787731	 0.142477
O	-2.0500610653	-0.7824396435	 3.1719077151	-0.430082
H	 0.5330428621	 1.7732219956	 0.5627978473	 0.290936
H	 0.7656873997	-0.3965896955	-0.5149503003	 0.097162
H	 0.2104659877	-1.5683953302	 1.6906953604	 0.090877
H	-1.4471566093	-1.597343565	-0.7439045659	 0.100311
H	-2.7307601402	 0.8602488523	 0.3601004095	 0.116595
H	-5.4288071279	-2.3143895869	 1.1881084192	 0.199777
H	-1.3095536402	 0.9110895688	 2.3926273928	 0.088712
H	-2.6096702629	-1.5066779165	 2.8605556005	 0.281801
93.6905	142.0565	174.4319	227.236	304.268	312.9799	353.1097	384.4143	455.7783	512.5228	588.8042	625.8913	637.3876	651.3398	728.7631	786.2232	813.857	877.694	937.3859	972.5703	1008.1866	1035.8247	1059.0534	1072.6726	1085.7604	1145.5315	1176.5161	1205.559	1236.3149	1261.4707	1288.943	1298.8178	1334.8378	1343.6266	1436.3791	1451.6566	2224.8204	3070.339	3079.4564	3099.1068	3178.6996	3191.0297	3500.8614	3744.5455	3808.2552
OC1C2C1C(C#C)C2O	O[C@H]1[C@@H]2[C@H]1[C@@H](C#C)[C@H]2O	
InChI=1S/C7H8O2/c1-2-3-4-5(6(3)8)7(4)9/h1,3-9H	InChI=1S/C7H8O2/c1-2-3-4-5(6(3)8)7(4)9/h1,3-9H/t3-,4-,5-,6-,7-/m1/s1
