18
gdb 47661	2.04351	1.97067	1.26504	2.1019	73.47	-0.2251	-0.0016	0.2235	1037.5263	0.149502	-439.095948	-439.087947	-439.087003	-439.128707	30.483	
O	 0.8189041923	 0.2894851604	 0.4450899655	-0.33199
C	 0.0805968307	 1.1779696754	 0.1219447735	 0.419143
C	-1.440436405	 1.1767606435	 0.1733934073	-0.285871
N	-1.9698145474	 2.3966405424	 0.7669624177	-0.270687
C	-1.520663205	 2.6992365529	 2.1228157701	-0.221864
C	-0.1300245434	 3.2206109048	 2.4856119232	-0.03615
C	 1.0608362118	 3.3564587779	 1.8933877108	-0.077705
C	 1.546420491	 2.9654407515	 0.5270594107	-0.149103
O	 0.4998498925	 2.4185929831	-0.269900368	-0.241524
H	-1.8422969115	 1.0762326688	-0.8410947951	 0.132199
H	-1.7585741815	 0.3004593489	 0.7456341353	 0.13525
H	-1.7564713478	 3.1762484595	 0.1554802209	 0.227349
H	-2.219425585	 3.4461180819	 2.5247413951	 0.119323
H	-1.6953993794	 1.8011007386	 2.7339459855	 0.128471
H	-0.152911892	 3.5671960884	 3.5203272566	 0.092619
H	 1.8543871574	 3.7976488039	 2.4964454038	 0.094155
H	 1.9245242513	 3.8354683969	-0.0200611261	 0.125077
H	 2.3663940509	 2.2414418013	 0.6147084732	 0.141307
75.8017	106.6337	203.9505	270.7507	318.1869	359.7634	389.7529	421.9706	557.5038	610.1396	662.6561	690.5288	725.9833	778.8065	819.0558	850.157	930.8355	941.4127	998.7231	1021.9331	1047.0219	1073.7832	1121.1563	1155.5082	1201.9103	1246.297	1281.869	1299.0478	1339.8876	1345.5207	1386.1573	1402.3336	1431.6347	1452.7402	1462.6522	1480.0395	1518.0517	1729.483	1845.0464	2999.9813	3026.5265	3031.8329	3047.8992	3076.2733	3102.7169	3103.6756	3133.4207	3546.6223
O=C1CNCC=CCO1	O=C1CNCC=CCO1	
InChI=1S/C6H9NO2/c8-6-5-7-3-1-2-4-9-6/h1-2,7H,3-5H2/b2-1-	InChI=1S/C6H9NO2/c8-6-5-7-3-1-2-4-9-6/h1-2,7H,3-5H2/b2-1-
