19
gdb 99150	2.57818	1.23231	1.00967	0.6401	71.56	-0.2354	0.0029	0.2382	1238.9922	0.157777	-460.171403	-460.161745	-460.160801	-460.206756	34.563	
C	 0.099214488	 0.0333656324	-0.9581273446	-0.24657
O	-0.5335791624	-1.0416757542	-0.2451141815	-0.236293
C	-1.5508660223	-0.6766565358	 0.5871577485	 0.42111
O	-1.8956988189	 0.466786135	 0.718167322	-0.339141
C	-2.1410331015	-1.8795547834	 1.2915636372	-0.33759
C	-3.0006145301	-2.8042423284	 0.4203292419	-0.066611
C	-3.1153519286	-2.6775026418	-1.094886606	-0.34354
C	-2.3421187518	-3.8154416969	-0.4887060377	 0.15185
O	-0.9542253966	-3.9047921661	-0.5748724778	-0.434689
H	 0.874867372	-0.4296717167	-1.5675795784	 0.138915
H	-0.62542132	 0.5555617702	-1.5868912135	 0.14658
H	 0.536164961	 0.7466129636	-0.2559680187	 0.148597
H	-1.31680314	-2.458925651	 1.7253901454	 0.136319
H	-2.7460635719	-1.4812138564	 2.1067698919	 0.135164
H	-3.9023576707	-3.1329217692	 0.9273151521	 0.096624
H	-4.0805595932	-2.8731878822	-1.5494547229	 0.11379
H	-2.5461229936	-1.898745589	-1.5907800298	 0.117169
H	-2.7746920431	-4.8096285669	-0.5341597743	 0.102708
H	-0.5898882366	-3.0110018435	-0.6228296539	 0.295608
47.3802	85.7787	112.4665	122.0552	187.8839	219.5156	275.9909	351.222	414.1643	455.2483	478.7076	562.8299	614.9299	751.7496	780.3905	789.0762	830.1817	877.2373	949.7459	1001.8057	1024.4436	1040.8365	1067.9562	1118.4456	1123.2	1144.1081	1180.1529	1187.6961	1210.7085	1240.675	1288.6562	1325.1636	1357.7407	1379.5617	1455.6305	1471.9594	1475.7132	1480.3868	1490.5282	1498.3347	1838.1897	3039.2783	3058.1416	3124.93	3133.9582	3136.8615	3149.8399	3165.0712	3166.3662	3219.5189	3753.7117
COC(=O)CC1CC1O	COC(=O)C[C@H]1C[C@H]1O	
InChI=1S/C6H10O3/c1-9-6(8)3-4-2-5(4)7/h4-5,7H,2-3H2,1H3	InChI=1S/C6H10O3/c1-9-6(8)3-4-2-5(4)7/h4-5,7H,2-3H2,1H3/t4-,5-/m1/s1
