16
gdb 44975	3.38187	1.31243	1.0931	2.8046	77.59	-0.2453	0.0182	0.2634	1109.0611	0.123913	-400.718917	-400.711154	-400.71021	-400.751229	30.322	
N	-0.1199929064	 1.0431587022	-0.7421667081	-0.530659
C	-0.0762100827	-0.0219101491	-0.0710616432	 0.382475
C	-1.2715744103	-0.8950942029	 0.2805974791	-0.312473
C	-0.6631289563	-2.1282573281	 0.9126063653	-0.118068
C	 0.3523386315	-2.9044992306	 0.1074189192	-0.334655
C	 0.8165223549	-1.8216411143	 1.057075646	 0.236081
O	 1.0765863749	-0.5643238369	 0.4452159622	-0.263686
C	 1.6015651445	-2.0901842877	 2.2193320778	 0.242257
C	 2.2595964742	-2.333178208	 3.1953418046	-0.402161
H	 0.812638181	 1.4459037164	-0.8451216493	 0.227606
H	-1.9145157878	-0.3614234803	 0.98734473	 0.143585
H	-1.8659822256	-1.0949292717	-0.6145075215	 0.143736
H	-1.1870163605	-2.6348112499	 1.7126377838	 0.117183
H	 0.5421032973	-3.9304953227	 0.3994863016	 0.135743
H	 0.4561918684	-2.6954602667	-0.9528037592	 0.133968
H	 2.8422384531	-2.5421109097	 4.0584177817	 0.199069
85.5697	142.2395	159.948	312.0373	409.7204	421.3187	481.6461	526.532	527.6806	579.3615	593.3918	668.3909	693.0204	741.4098	838.4138	850.6838	886.7501	896.5152	932.0101	956.0185	1022.7489	1058.0889	1067.4338	1084.4968	1100.4832	1187.5478	1203.4814	1266.1796	1303.8349	1314.7073	1390.197	1467.6995	1479.6512	1781.6929	2244.1375	3064.3828	3105.7654	3133.6049	3199.6102	3231.9367	3479.6325	3501.6088
N=C1CC2CC2(O1)C#C	[NH][C]1C[C@H]2C[C@]2(O1)C#C	
InChI=1S/C7H7NO/c1-2-7-4-5(7)3-6(8)9-7/h1,5,8H,3-4H2	InChI=1S/C7H7NO/c1-2-7-4-5(7)3-6(8)9-7/h1,5,8H,3-4H2/t5-,7+/m0/s1
