18
gdb 64067	2.46909	1.52662	1.19487	4.5059	72.28	-0.2336	-0.0917	0.142	1094.2155	0.145742	-439.112818	-439.103715	-439.102771	-439.146494	33.844	
C	-0.2558375628	 1.623541404	 0.1443475916	-0.409476
C	 0.0657839375	 0.1343530073	 0.0145576951	 0.14012
C	-1.2314788188	-0.7021007071	-0.099186847	-0.425559
N	 1.0215323152	-0.1072861185	-1.0886691447	-0.34487
C	 1.8078953716	-1.3170533551	-0.8303319148	-0.292381
C	 1.9513088684	-1.3309665892	 0.6815315951	 0.333462
O	 2.7230116683	-1.9534758578	 1.356320512	-0.27222
C	 0.8479264469	-0.3770431104	 1.2232315408	 0.317327
O	 0.6511029501	-0.1329342814	 2.3817900027	-0.295867
H	 0.6648071849	 2.2105065817	 0.1787744437	 0.129233
H	-0.8478691402	 1.9641790483	-0.7115820507	 0.111485
H	-0.8271818559	 1.8070790719	 1.0582254299	 0.136105
H	-1.7851303872	-0.4004461365	-0.9952183632	 0.120278
H	-1.0225960101	-1.7744675497	-0.1748538973	 0.121025
H	-1.873630503	-0.5439843244	 0.7719952517	 0.142188
H	 0.5576050434	-0.1315949819	-1.9886914301	 0.22552
H	 1.3265810519	-2.2655474286	-1.1310984375	 0.121176
H	 2.7866162498	-1.2789586426	-1.3183925174	 0.142455
60.1457	147.2714	194.2553	202.1208	239.6674	283.5151	319.1436	338.3365	357.5247	415.9969	537.536	554.8163	576.1255	679.1969	713.1687	745.1787	870.8444	928.6143	944.8016	968.2257	1007.8786	1030.663	1088.6196	1120.9532	1156.1059	1194.169	1202.6089	1263.4118	1332.2088	1390.3322	1407.6157	1441.7834	1476.371	1479.9994	1485.9432	1499.3061	1507.8645	1849.5193	1870.6515	2940.4151	3028.3875	3041.3618	3074.9506	3097.1578	3111.9754	3116.3342	3133.8509	3546.2362
CC1(C)NCC(=O)C1=O	CC1(C)NCC(=O)C1=O	
InChI=1S/C6H9NO2/c1-6(2)5(9)4(8)3-7-6/h7H,3H2,1-2H3	InChI=1S/C6H9NO2/c1-6(2)5(9)4(8)3-7-6/h7H,3H2,1-2H3
