22
gdb 106801	2.37702	1.47292	1.07584	2.8009	82.5	-0.2247	0.0673	0.292	1209.6956	0.194869	-404.342529	-404.3333	-404.332355	-404.376131	35.706	
C	-0.2249052395	 1.5126941333	 0.0923579251	-0.494536
C	 0.1980909277	 0.0680351933	 0.0062877508	 0.278603
C	 0.632451861	-0.4772845585	-1.3506978827	-0.248997
C	 1.2613742366	-1.8538182673	-1.040305654	-0.218871
C	 1.8284911613	-1.725054488	 0.3915303389	-0.252228
C	 0.9311450615	-0.6935242593	 1.0610926783	 0.331214
C	 1.356357384	-0.1182365569	 2.3801970443	-0.195642
O	 1.3199246585	-1.1608275057	 3.3496387988	-0.417955
N	-0.5067176385	-0.9666686139	 0.800752277	-0.408209
H	 0.5532513294	 2.1770025643	-0.3004457408	 0.12017
H	-1.1302868273	 1.6816964895	-0.5025379162	 0.125135
H	-0.4443340394	 1.8199937558	 1.1192988393	 0.113063
H	-0.2027387591	-0.5469528438	-2.0558922632	 0.097304
H	 1.3718418501	 0.2083663693	-1.7849050994	 0.090124
H	 0.4828645132	-2.6189096518	-1.0539401529	 0.121839
H	 2.0231912747	-2.1410387821	-1.7696142183	 0.08814
H	 1.8393283871	-2.675897423	 0.9306194593	 0.113375
H	 2.8569668782	-1.3409133258	 0.3769273888	 0.08643
H	 2.3742161828	 0.2945611113	 2.2858483131	 0.08696
H	 0.691641053	 0.7101182524	 2.671079978	 0.076471
H	 1.6807188277	-0.8161746064	 4.1719658269	 0.287077
H	-1.0594031029	-0.5118685267	 1.525816929	 0.220532
76.6033	150.9862	195.0578	216.3982	227.6627	261.2006	292.6851	342.9801	362.8357	464.9257	493.5505	553.3662	625.8751	674.4397	734.4119	813.3578	888.2662	893.7755	922.9285	928.283	987.2882	1006.0623	1026.3828	1053.212	1064.9377	1087.5684	1098.6569	1137.4343	1174.7271	1212.366	1240.4487	1253.1139	1263.8263	1284.6662	1293.4018	1345.3125	1349.7396	1378.9889	1418.0097	1428.4188	1470.2519	1480.99	1481.7041	1488.69	1500.0384	1506.9306	1513.7169	2961.0148	2992.5727	3021.7072	3025.025	3027.2066	3067.1481	3073.5981	3083.1676	3094.2518	3100.9406	3119.844	3478.1341	3826.4353
CC12CCCC1(CO)N2	C[C@@]12CCC[C@]1(CO)N2	
InChI=1S/C7H13NO/c1-6-3-2-4-7(6,5-9)8-6/h8-9H,2-5H2,1H3	InChI=1S/C7H13NO/c1-6-3-2-4-7(6,5-9)8-6/h8-9H,2-5H2,1H3/t6-,7-/m1/s1
