15
gdb 52519	2.66444	0.93095	0.74542	5.827	75.08	-0.2533	-0.0781	0.1753	1498.486	0.107797	-457.753479	-457.743376	-457.742431	-457.79103	33.46	
C	 0.0481065496	 1.3645021727	-0.0560386071	-0.506461
C	 0.033122956	-0.0863085841	-0.0227347561	 0.147705
C	-0.0021603144	-1.2931556947	 0.0048368928	 0.01157
C	-0.0043904331	-2.7270200364	 0.0364897693	 0.18315
O	-1.0118490788	-3.4034373729	 0.1131457482	-0.311298
C	 1.3572811708	-3.439731606	-0.0356207267	-0.05407
O	 1.2010309181	-4.8045997604	 0.1160186565	-0.406131
C	 2.0635466195	-3.0614284127	-1.3537566509	 0.133359
O	 2.3065741968	-3.8439627581	-2.2266189667	-0.215361
H	 1.0698762314	 1.7546681808	-0.0953429655	 0.165783
H	-0.4943163148	 1.7338990772	-0.9329217487	 0.173732
H	-0.4417256763	 1.7736463156	 0.8340466143	 0.173048
H	 1.9851721397	-3.0124020716	 0.7675631984	 0.117076
H	 0.2424687342	-4.9627199958	 0.1022867321	 0.301714
H	 2.3434673612	-1.9865784938	-1.4175472697	 0.086183
18.8287	52.5534	76.8692	90.092	155.0021	236.7981	286.7888	318.2558	346.0999	392.6172	427.6248	442.2502	560.0394	645.6569	753.5069	764.1946	887.488	954.3392	1010.6496	1041.965	1053.4035	1171.3761	1192.0538	1239.6307	1338.3821	1403.0279	1408.9406	1420.777	1466.6264	1469.7603	1744.1483	1852.7791	2338.0279	2885.024	2952.8184	3035.7086	3101.2224	3106.3924	3675.6502
CC#CC(=O)C(O)C=O	CC#CC(=O)[C@@H](O)C=O	
InChI=1S/C6H6O3/c1-2-3-5(8)6(9)4-7/h4,6,9H,1H3	InChI=1S/C6H6O3/c1-2-3-5(8)6(9)4-7/h4,6,9H,1H3/t6-/m0/s1
