18
gdb 39586	3.40219	1.55226	1.124	1.89	76.35	-0.2449	0.0071	0.252	1057.9835	0.151308	-401.964689	-401.957856	-401.956912	-401.995811	27.659	
C	-0.0057747033	 1.4657628108	-0.2451600378	-0.258242
C	 1.2920193378	 2.2098718153	 0.1920219352	-0.262162
C	 2.4195430952	 1.1989075232	 0.1182818763	 0.074307
N	 3.8310853386	 1.5303965407	 0.4161312679	-0.30633
C	 4.2805775051	 0.4506106085	 0.9170022008	 0.092663
O	 3.4274894061	-0.588955131	 1.1688101512	-0.256231
C	 2.1345898256	 0.068517222	 1.0944444543	 0.125565
C	 0.9315662767	-0.7052240629	 0.6709942801	-0.149651
C	-0.0536612129	-0.0153481887	 0.0885898926	-0.027537
H	-0.8838539856	 1.9602569929	 0.1887077527	 0.114811
H	-0.1340359347	 1.5647170883	-1.3326351196	 0.119486
H	 1.471142371	 3.0715457496	-0.4568895983	 0.110495
H	 1.1922437534	 2.5890327827	 1.215624577	 0.10566
H	 2.4176049346	 0.7816688225	-0.9020940432	 0.090043
H	 5.3163987022	 0.2528223057	 1.1701566343	 0.135066
H	 1.971937262	 0.4900457198	 2.100798952	 0.092297
H	 0.8447654422	-1.7623896597	 0.8992224639	 0.103839
H	-0.9725884641	-0.5265746598	-0.1893606295	 0.09592
137.0275	201.3323	284.023	350.9477	409.6403	442.3587	539.1899	571.7871	593.5906	688.2298	764.3961	830.1585	849.0536	877.8771	906.8935	958.4502	989.6153	998.6438	1031.357	1037.0096	1069.5476	1087.6371	1122.2274	1152.0724	1199.1531	1206.241	1240.6109	1276.5392	1323.6095	1327.8079	1359.0263	1379.8564	1383.8069	1408.8282	1414.8393	1472.4182	1504.982	1659.3544	1695.633	2953.6155	2972.5615	3009.3063	3036.1982	3049.8064	3095.0196	3152.1097	3188.6836	3213.3636
C1CC2N=COC2C=C1	C1C[C@H]2[N][CH]O[C@@H]2C=C1	
InChI=1S/C7H9NO/c1-2-4-7-6(3-1)8-5-9-7/h2,4-7H,1,3H2	InChI=1S/C7H9NO/c1-2-4-7-6(3-1)8-5-9-7/h2,4-7H,1,3H2/t6-,7-/m1/s1
