20
gdb 82941	2.12374	1.78522	1.44443	2.4569	77.46	-0.2186	0.076	0.2946	1032.4196	0.171597	-403.097587	-403.08937	-403.088425	-403.129772	32.907	
C	-0.106695988	 1.5639853823	 0.0006858852	-0.432099
C	 0.054179041	 0.0559850612	 0.0903805529	-0.077615
C	 1.3019451039	-0.7429895073	-0.2657227138	-0.121553
C	 2.6940950581	-0.1154244835	-0.1540822894	-0.193734
N	 3.0570182442	 0.0029703708	 1.2860721217	-0.092151
C	 2.3790656083	 1.0678603893	 2.0374503255	-0.264775
C	 1.8444593523	-0.3178084752	 2.0637061091	-0.097384
C	 0.7441737284	-0.8011639191	 1.1351122122	 0.368325
O	 0.0852195622	-1.9615658277	 1.5569750277	-0.466148
H	 0.8320182412	 2.0828933326	-0.2065352215	 0.129231
H	-0.785427846	 1.8054734014	-0.8235922027	 0.118418
H	-0.5345274759	 1.9933620767	 0.912806513	 0.121956
H	-0.8370095573	-0.4699492164	-0.2482863703	 0.092736
H	 1.1802883771	-1.587859206	-0.9350914095	 0.097084
H	 3.425453357	-0.7775731937	-0.6269462922	 0.11562
H	 2.7803793711	 0.8598911388	-0.6484461658	 0.10421
H	 2.945149017	 1.4413131411	 2.8880698289	 0.111175
H	 1.8356478832	 1.8355452214	 1.5022648695	 0.110887
H	 1.9750382897	-0.942682465	 2.9434872412	 0.092862
H	-0.6424161974	-1.6988376617	 2.1308379883	 0.282955
135.6793	171.8988	228.0969	249.1031	275.4641	312.2808	369.3448	403.7482	508.6389	547.2531	595.6844	657.8586	687.7062	762.2195	816.87	831.0575	886.4874	900.5939	965.5563	1006.4587	1016.0618	1038.5103	1053.6003	1097.2669	1107.0442	1110.0903	1126.1555	1136.8879	1159.6233	1198.2905	1228.3012	1270.5759	1277.4449	1325.5046	1331.5715	1352.2271	1376.0031	1415.4748	1457.2437	1493.1531	1497.2699	1505.6776	1522.2107	3030.3173	3036.2271	3075.5293	3092.507	3107.0939	3114.3811	3123.3232	3141.4076	3167.3481	3226.1449	3799.6982
CC1C2CN3CC3C12O	C[C@H]1[C@H]2CN3C[C@H]3[C@@]12O	
InChI=1S/C7H11NO/c1-4-5-2-8-3-6(8)7(4,5)9/h4-6,9H,2-3H2,1H3	InChI=1S/C7H11NO/c1-4-5-2-8-3-6(8)7(4,5)9/h4-6,9H,2-3H2,1H3/t4-,5+,6-,7+,8?/m0/s1
