14
gdb 10589	3.11773	1.76625	1.31716	3.0283	65.87	-0.2624	-0.0503	0.212	931.7524	0.102982	-382.490509	-382.482192	-382.481247	-382.523055	29.727	
C	 0.1425095568	 1.5345420461	 0.026458196	-0.440105
C	 0.0420842815	 0.0368427325	 0.1167405361	 0.043878
O	 1.201595947	-0.7278756775	-0.1502888012	-0.257123
C	 0.6917819737	-0.7994217145	 1.1870203091	 0.099951
C	 1.5258029329	-0.1301757196	 2.2568386989	 0.086512
O	 2.3720584115	 0.6949545261	 2.0392094267	-0.242284
C	 0.0815010609	-2.0421102071	 1.5884947756	 0.250188
C	-0.4110866427	-3.0695651883	 1.9710879078	-0.390118
H	 1.0676552714	 1.8955469161	 0.4754586946	 0.167969
H	 0.1252383321	 1.8310875954	-1.0276674567	 0.138102
H	-0.7152603396	 2.0027763736	 0.5198597539	 0.128197
H	-0.8743573127	-0.4019938575	-0.2830150392	 0.109348
H	 1.2761123609	-0.467776221	 3.2845472573	 0.099102
H	-0.8488067737	-3.9824535842	 2.2933296013	 0.206381
123.915	144.2588	154.3568	186.1635	220.712	268.3613	343.7231	460.5098	502.6617	536.8426	563.0521	621.2576	680.3284	745.531	807.2695	871.0682	980.0111	1027.8014	1043.2212	1123.162	1151.051	1207.5724	1315.2783	1394.261	1416.4092	1439.2047	1487.9034	1499.1396	1829.3363	2237.6423	2917.0539	3044.1229	3094.8539	3105.1481	3161.7616	3499.0187
CC1OC1(C=O)C#C	C[C@H]1O[C@]1(C=O)C#C	
InChI=1S/C6H6O2/c1-3-6(4-7)5(2)8-6/h1,4-5H,2H3	InChI=1S/C6H6O2/c1-3-6(4-7)5(2)8-6/h1,4-5H,2H3/t5-,6+/m1/s1
