23
gdb 83223	2.35604	1.54825	1.32367	1.2165	84.31	-0.2428	0.0622	0.3051	1121.5927	0.206259	-388.294387	-388.28529	-388.284345	-388.327221	36.592	
C	-0.6501326237	 1.5340358388	 0.0971671071	-0.428175
C	 0.0039449333	 0.1477809401	-0.0060509222	 0.308829
C	-1.090244273	-0.9222219643	-0.1873110661	-0.418942
C	 1.0277864487	 0.0696055865	-1.1761376515	-0.246773
C	 2.1145354849	-0.9381668177	-0.7368854808	-0.220607
C	 2.1072272961	-0.9161403779	 0.7873538854	-0.0856
C	 2.1847931304	 0.4094020754	 1.479123201	 0.07259
O	 2.6719919121	 1.5205279621	 0.7752093039	-0.418224
C	 0.8282886012	-0.2147224409	 1.2348621017	-0.111487
H	 0.1039513045	 2.3163691107	 0.2232945507	 0.096468
H	-1.2231162943	 1.7670306988	-0.8075932404	 0.109645
H	-1.3403362389	 1.586008133	 0.9469535428	 0.104873
H	-1.6877359866	-0.7174572506	-1.0826425625	 0.106931
H	-0.6568778738	-1.9222135345	-0.2922860255	 0.112647
H	-1.771666033	-0.9440498632	 0.6707567433	 0.105571
H	 0.5428492468	-0.2264179455	-2.1119585441	 0.082426
H	 1.4815383447	 1.0490221284	-1.3329359075	 0.110541
H	 1.8680416018	-1.9518924262	-1.0727105596	 0.095962
H	 3.093793364	-0.690445736	-1.158547642	 0.104539
H	 2.5003961342	-1.7819536053	 1.3100332964	 0.078565
H	 2.5222333718	 0.3699067944	 2.5157212983	 0.082236
H	 2.270901891	 2.3093011712	 1.1545014629	 0.287683
H	 0.2767440677	-0.5486057674	 2.1097329988	 0.070303
127.251	192.9159	198.4348	239.0166	265.0417	275.6698	306.5179	338.8996	375.6009	392.8827	499.4443	566.8386	615.3463	692.9819	739.5855	779.5214	810.266	828.4887	915.2098	933.4745	944.9772	964.0528	1000.2723	1019.4038	1032.3876	1040.587	1071.476	1076.9057	1120.4898	1161.0484	1201.9253	1228.9271	1239.8816	1245.7269	1260.2337	1286.754	1324.4323	1335.1242	1360.2965	1374.8979	1394.3242	1418.0116	1455.441	1480.6487	1485.2307	1493.7085	1503.58	1507.2312	1510.1286	3021.3877	3026.6446	3036.8348	3055.8268	3076.0488	3085.0774	3085.3464	3090.7895	3097.5383	3103.9116	3119.4329	3138.4838	3159.4837	3809.0309
CC1(C)CCC2C(O)C12	CC1(C)CC[C@H]2[C@@H](O)[C@@H]12	
InChI=1S/C8H14O/c1-8(2)4-3-5-6(8)7(5)9/h5-7,9H,3-4H2,1-2H3	InChI=1S/C8H14O/c1-8(2)4-3-5-6(8)7(5)9/h5-7,9H,3-4H2,1-2H3/t5-,6+,7-/m1/s1
