18
gdb 12502	3.58189	1.8919	1.34135	0.2419	83.77	-0.2093	-0.0234	0.1859	949.5587	0.155291	-310.695403	-310.688046	-310.687102	-310.726602	28.812	
C	-0.1177231898	 1.5527290762	 0.0282911308	-0.481286
C	 0.0809870114	 0.0553968496	-0.0145105077	 0.26187
C	 0.0372613499	-0.6067175722	-1.2052645656	-0.174206
C	 0.0770142413	-2.0368616941	-1.4063074487	-0.046953
C	 0.7266984652	-2.924703485	-0.6316121182	-0.088513
C	 1.6382627555	-2.4819195269	 0.4854257782	-0.31129
C	 0.7991537857	-1.7795011982	 1.5213670642	-0.078503
C	 0.1709691937	-0.6173828812	 1.2703533422	-0.09792
H	 0.7469192431	 2.0557381196	 0.4781019706	 0.128267
H	-0.2695416771	 1.9693743242	-0.9706406975	 0.119627
H	-0.9873001867	 1.8176589808	 0.6427235341	 0.125349
H	-0.1666281491	-0.008687601	-2.0919716784	 0.079325
H	-0.4834429666	-2.409821837	-2.2616310688	 0.085982
H	 0.6064888767	-3.9891413014	-0.8131160496	 0.090455
H	 2.1692537185	-3.3315356124	 0.9208049678	 0.098788
H	 2.3914771678	-1.7862596811	 0.0888809829	 0.115563
H	 0.7051872223	-2.2336566519	 2.5044130418	 0.091252
H	-0.3383978618	-0.1217567683	 2.0957576417	 0.082193
138.9216	161.4745	235.6722	304.9623	340.3725	380.4649	415.5864	496.2819	613.2325	638.4504	720.7987	760.7504	782.5902	882.0409	907.9041	930.402	962.3786	975.769	986.9247	1023.1633	1034.8675	1067.5499	1098.1611	1180.3929	1220.4249	1232.1004	1270.4393	1325.1993	1364.5234	1411.6523	1424.0676	1441.4806	1473.2186	1479.7968	1495.5388	1593.2992	1673.1342	1683.146	2998.2366	3020.438	3068.6944	3094.8506	3113.5854	3129.8508	3130.9086	3144.3298	3165.0236	3171.9122
CC1=CC=CCC=C1	CC1=CC=CCC=C1	
InChI=1S/C8H10/c1-8-6-4-2-3-5-7-8/h2,4-7H,3H2,1H3	InChI=1S/C8H10/c1-8-6-4-2-3-5-7-8/h2,4-7H,3H2,1H3
