19
gdb 85337	1.95167	1.65919	0.92926	5.2579	80.07	-0.2559	-0.0376	0.2182	1268.6645	0.158817	-423.092232	-423.083392	-423.082448	-423.125645	33.129	
C	 0.0158055159	 1.5149509019	 0.0687828712	-0.40002
C	 0.0122761856	 0.0012601669	-0.0656758086	 0.128942
C	 0.8552362468	-0.5179341767	-1.2278209379	-0.312188
C	 0.9847660909	-2.0188136755	-1.1595719479	 0.300306
C	 1.2655031538	-2.7621485831	-2.430079409	-0.481698
C	 0.8717385735	-2.6152580262	 0.0339520866	-0.289264
C	 0.7306405931	-1.858965718	 1.2946319127	 0.416319
O	 0.87573151	-2.3514823808	 2.3844220112	-0.342886
O	 0.4813276224	-0.5236824707	 1.1921262935	-0.253032
H	 1.0341616691	 1.8844209229	 0.2224647585	 0.129369
H	-0.3921788469	 1.9782804609	-0.834713895	 0.11778
H	-0.5929712094	 1.821168254	 0.9229105328	 0.136425
H	-1.0193041266	-0.353740178	-0.205140014	 0.089103
H	 0.3907703655	-0.2142441139	-2.1733644495	 0.113935
H	 1.8540861443	-0.0576658945	-1.2114231295	 0.125726
H	 2.1806277786	-2.3845785501	-2.903942466	 0.13806
H	 1.3834095271	-3.8341829472	-2.2568242353	 0.135436
H	 0.4567255537	-2.6120888002	-3.1562378905	 0.13551
H	 0.9753615726	-3.6870984916	 0.1595161767	 0.112176
118.3318	136.6706	151.9103	201.6052	230.7349	256.5374	309.086	434.2568	449.4583	457.7976	498.8463	530.7378	631.9186	736.0903	857.8839	867.6005	893.2286	906.4306	936.7125	997.9184	1033.2572	1039.8092	1092.5431	1129.4392	1155.1583	1175.9332	1232.5188	1262.0243	1306.8949	1357.6494	1388.9591	1402.1413	1411.0814	1413.7121	1462.486	1476.7535	1481.2183	1484.2073	1499.2566	1708.2203	1821.735	2996.2208	3010.3218	3021.1284	3044.8616	3061.9715	3069.3823	3118.2822	3124.0865	3128.9131	3198.8266
CC1CC(C)=CC(=O)O1	C[C@H]1CC(=CC(=O)O1)C	
InChI=1S/C7H10O2/c1-5-3-6(2)9-7(8)4-5/h4,6H,3H2,1-2H3	InChI=1S/C7H10O2/c1-5-3-6(2)9-7(8)4-5/h4,6H,3H2,1-2H3/t6-/m0/s1
