24
gdb 6055	2.76544	1.52424	1.29671	1.0193	81.36	-0.2452	0.0765	0.3217	1128.5917	0.219999	-351.408448	-351.397728	-351.396784	-351.44316	39.927	
C	-0.1611908947	 1.3349458741	 0.1136153089	-0.243013
O	 0.0822842829	-0.0439918218	-0.0283897011	-0.280177
C	 0.7169373401	-0.5100832384	-1.2355593305	 0.376753
C	-0.000799172	 0.0221276228	-2.4861107356	-0.435687
C	 2.1892210359	-0.0664228957	-1.2377129324	-0.427201
C	 0.6072795968	-2.0571532467	-1.095359929	 0.04293
C	-0.8503298811	-2.540786292	-1.0522978387	-0.404958
C	 1.3994061061	-2.8456387014	-2.1482031397	-0.411024
H	 0.7509049561	 1.9446900276	 0.0399856959	 0.101897
H	-0.8894617136	 1.7169676771	-0.6154561453	 0.104422
H	-0.5780813248	 1.4713754338	 1.1153960112	 0.124123
H	 0.1732543119	 1.0936998746	-2.620165686	 0.112078
H	 0.3721915937	-0.4787934704	-3.3836525955	 0.117944
H	-1.0792083963	-0.1437728741	-2.4244875628	 0.12371
H	 2.7214145945	-0.4953862732	-0.3832079361	 0.116432
H	 2.6976425729	-0.3745296994	-2.1548837963	 0.116665
H	 2.2715689035	 1.022719581	-1.1782256933	 0.110358
H	 1.0502839307	-2.2700560206	-0.1135967014	 0.078277
H	-1.3284470156	-2.470440398	-2.0358083246	 0.105793
H	-0.89087117	-3.5918353081	-0.7481789348	 0.104238
H	-1.4344705199	-1.9541603292	-0.3410975123	 0.127886
H	 2.4688318367	-2.6209967612	-2.1264419241	 0.113453
H	 1.2876611381	-3.919562463	-1.9666176965	 0.112506
H	 1.0332434082	-2.652703688	-3.16297871	 0.112598
74.7632	88.4926	183.5068	200.4899	207.8772	239.9194	251.1686	285.3227	296.1188	344.1567	354.1377	373.8857	391.6234	456.9621	485.4872	542.4021	696.4057	813.8078	904.4108	916.1007	928.2703	943.4824	973.0178	999.8206	1083.4759	1095.9565	1138.7069	1178.5792	1182.1178	1193.2074	1211.2655	1219.9746	1285.4875	1345.8323	1365.4656	1393.7993	1396.358	1409.3603	1421.0183	1474.0251	1479.7411	1482.7121	1490.6257	1493.7479	1495.5498	1508.5174	1509.8363	1512.7586	1518.1056	1521.0234	2987.7481	3018.2558	3031.4491	3034.1927	3036.852	3044.055	3050.3798	3089.4297	3096.0724	3101.2849	3107.1741	3113.0713	3114.0502	3121.8881	3128.786	3134.7023
COC(C)(C)C(C)C	COC(C)(C)C(C)C	
InChI=1S/C7H16O/c1-6(2)7(3,4)8-5/h6H,1-5H3	InChI=1S/C7H16O/c1-6(2)7(3,4)8-5/h6H,1-5H3
