17
gdb 125044	2.27748	1.87303	1.03654	4.297	82.59	-0.1932	-0.0225	0.1707	1110.1654	0.138046	-414.202882	-414.194289	-414.193345	-414.236043	32.385	
C	 0.0165360909	 1.5468338696	 0.0100304284	-0.504788
C	-0.0037591578	 0.0454552887	 0.0259398308	 0.185631
C	-1.1521263584	-0.6906077274	 0.0158564064	 0.311822
N	-2.4534922124	-0.1899613178	 0.0814453568	-0.592971
N	-1.1024343855	-2.0660998464	-0.0199774755	-0.289698
N	 0.0321550066	-2.7916396051	-0.01336115	-0.196631
C	 1.1385534379	-2.1247034103	 0.0048525508	-0.052831
C	 1.2667050646	-0.6648383744	 0.0486008979	 0.212591
N	 2.3911122027	-0.0260146075	 0.0880436689	-0.558012
H	 0.905571358	 1.8820738713	-0.5296872758	 0.161632
H	-0.8686010341	 1.9781489655	-0.4709055174	 0.094428
H	 0.0903920672	 1.9671957123	 1.0207486129	 0.135222
H	-2.4900392669	 0.8183973805	 0.0484020074	 0.260081
H	-3.0813067602	-0.5884946549	-0.6068021747	 0.252064
H	-1.9402869949	-2.6009384064	 0.1404096808	 0.267883
H	 2.0439742063	-2.7272716151	-0.000946013	 0.115274
H	 3.1711855759	-0.6857948326	 0.0704921552	 0.198303
76.86	112.385	184.6657	243.1839	290.0064	327.6394	344.7222	410.7242	487.4277	508.4291	549.9993	573.7282	610.6201	673.0211	730.0719	765.7587	824.7087	856.7688	930.7691	938.574	1055.5945	1076.2157	1096.2838	1171.6	1222.7515	1236.8727	1347.6246	1370.8403	1409.3555	1425.0303	1471.0617	1492.7423	1523.1442	1615.08	1639.5633	1664.1934	1690.3956	3020.76	3071.9433	3119.7298	3159.0188	3442.6997	3536.8241	3646.9494	3648.8416
CC1=C(N)NN=CC1=N	CC1=C(C=NN[C@H]1N)[NH]	
InChI=1S/C5H8N4/c1-3-4(6)2-8-9-5(3)7/h2H,1H3,(H4,6,7,9)	InChI=1S/C5H9N4/c1-3-4(6)2-8-9-5(3)7/h2,5-6,9H,7H2,1H3/t5-/m1/s1
