15
gdb 33631	3.17912	1.55169	1.3572	2.9994	79.56	-0.2279	-0.0637	0.1642	965.5861	0.111875	-379.494245	-379.487145	-379.4862	-379.525532	28.471	
C	-0.1230701478	-1.2873224755	 0.0199767989	-0.343283
C	-0.103545857	-0.0837142629	 0.0463519519	 0.047641
C	-0.0544866317	 1.3273637326	 0.0705591048	 0.144886
C	-0.8884079264	 2.3772772587	 0.7411651049	-0.106052
C	 0.0522943545	 3.0329009638	 1.7735904803	-0.189406
N	 1.3034899342	 3.1709613026	 0.9793229821	-0.147482
C	 1.1653405811	 2.3539325847	 0.0188116634	 0.089723
N	 0.8154129061	 2.923844471	-1.2925835744	-0.335037
C	-0.574681935	 2.4091565196	-0.8104851643	-0.077632
H	-0.141477348	-2.3487795201	-0.0015248845	 0.186791
H	-1.9313796829	 2.1782807133	 0.9765291918	 0.108763
H	-0.2320543904	 4.0493287346	 2.062231812	 0.135533
H	 0.1214296926	 2.4245879762	 2.6871322652	 0.123227
H	 1.0341337185	 2.2572253581	-2.0414967826	 0.234293
H	-1.3766916778	 2.3703866233	-1.5410203796	 0.128034
123.8242	149.158	291.7422	379.516	411.4845	507.0551	518.503	528.5697	598.7377	633.1895	645.7931	677.0801	721.07	770.0265	869.439	888.8107	940.4874	952.9256	966.6504	1002.2084	1012.8436	1055.0533	1089.7596	1130.7	1161.7965	1186.7924	1261.1372	1295.8433	1299.6856	1417.0686	1478.4955	1623.5899	2231.3596	3004.9265	3082.2161	3152.4726	3171.4737	3375.5511	3500.4743
C#CC12C3CN=C1NC23	C#C[C@@]12[C@H]3C[N][C]1N[C@@H]23	
InChI=1S/C7H6N2/c1-2-7-4-3-8-6(7)9-5(4)7/h1,4-5H,3H2,(H,8,9)	InChI=1S/C7H6N2/c1-2-7-4-3-8-6(7)9-5(4)7/h1,4-5H,3H2,(H,8,9)/t4-,5+,7-/m0/s1
