17
gdb 31767	5.37988	1.01476	0.87894	4.1794	76.78	-0.2132	0.0377	0.2509	1294.7093	0.137898	-418.004037	-417.996022	-417.995078	-418.037363	29.321	
O	 0.242299658	 1.3372486022	 0.1857881762	-0.413398
C	 0.0157915703	-0.0554784361	 0.3533133307	-0.160631
C	-1.3974534435	-0.4518459178	 0.040285833	 0.211628
C	-2.5136797622	 0.3706667429	 0.0737043139	-0.253488
N	-3.5431423316	-0.4865916561	-0.242445749	 0.020929
C	-4.906397946	-0.8603197343	-0.6745268155	-0.171211
C	-4.334019027	-2.3163329127	-0.9075355448	-0.369608
C	-3.0138178758	-1.7043562888	-0.4691869197	 0.366893
N	-1.7131245077	-1.7579596462	-0.3206115723	-0.41791
H	 0.0174431212	 1.5502438734	-0.7263216309	 0.278732
H	 0.6981393372	-0.6661938816	-0.2562293828	 0.106842
H	 0.2576416913	-0.2639055054	 1.4024724938	 0.122627
H	-2.6312165075	 1.4096061986	 0.3258211524	 0.141554
H	-5.6607773045	-0.7603256016	 0.1096217513	 0.133038
H	-5.2365274123	-0.3444349157	-1.5797029968	 0.134236
H	-4.7536865316	-3.0841780489	-0.2534860131	 0.134426
H	-4.3813350285	-2.6596065419	-1.9435671063	 0.135344
59.7442	82.6659	165.5133	228.3246	251.0897	347.4285	398.1543	504.8868	628.0615	673.509	692.337	733.9489	809.2028	812.8674	829.6422	913.8272	981.3846	1006.772	1055.2623	1071.823	1102.4512	1134.4781	1159.8774	1174.9893	1193.709	1224.9502	1251.1489	1269.0198	1375.5202	1403.6876	1418.1782	1442.3762	1482.7073	1500.6988	1508.4643	1535.3548	1581.6602	2998.7234	3050.5653	3062.9469	3072.7854	3113.2312	3127.214	3293.8464	3805.1353
OCC1=CN2CCC2=N1	OCc1cn2CCc2n1	
InChI=1S/C6H8N2O/c9-4-5-3-8-2-1-6(8)7-5/h3,9H,1-2,4H2	InChI=1S/C6H8N2O/c9-4-5-3-8-2-1-6(8)7-5/h3,9H,1-2,4H2
