15
gdb 34701	4.23016	1.47881	1.41547	2.9645	70.5	-0.2514	0.019	0.2704	912.1199	0.11522	-379.595178	-379.589042	-379.588098	-379.625831	24.63	
N	-0.0291867943	-1.2283873653	-0.065693671	-0.325017
C	-0.0321358804	-0.0723045708	-0.0431991264	 0.270351
C	-0.0153737371	 1.3808578249	 0.0087160658	-0.17121
C	-0.2341152515	 2.1035923064	 1.3743230856	-0.086555
C	 0.9542279652	 1.7240405024	 2.2762435908	-0.035279
C	 2.0804042938	 1.7458191263	 1.3025947515	-0.035279
C	 1.3511787339	 2.1342435415	 0.0037342808	-0.086553
C	 0.7307600123	 3.2426552111	 0.9133653888	 0.006961
N	 1.7227170187	 2.9983952305	 2.0552605629	-0.176858
H	-0.6830946635	 1.7933394777	-0.754376699	 0.127143
H	-1.2228396705	 2.2447587001	 1.8022807444	 0.096357
H	 0.9609623576	 1.202321647	 3.2240821446	 0.112483
H	 3.0286668162	 1.2423096331	 1.4364245358	 0.112484
H	 1.9140698015	 2.3054071804	-0.9097800824	 0.096357
H	 0.454341998	 4.2509293946	 0.6161942678	 0.094616
116.8019	157.4418	373.6241	466.1276	523.1317	643.787	752.8433	773.8664	792.2267	794.9379	810.5501	852.9457	852.9971	895.999	920.1759	955.7708	971.7446	1003.19	1031.4541	1039.1358	1061.7202	1088.7073	1136.1539	1139.4169	1174.6681	1209.7432	1224.9812	1234.0259	1263.2159	1313.7274	1335.1311	1360.4253	2353.0922	3070.4657	3148.6429	3158.2082	3162.883	3200.5675	3211.3514
N#CC1C2C3C4C1C2N34	N#C[C@H]1[C@H]2[C@H]3[C@H]4[C@@H]1[C@@H]2N34	
InChI=1S/C7H6N2/c8-1-2-3-5-4(2)7-6(3)9(5)7/h2-7H	InChI=1S/C7H6N2/c8-1-2-3-5-4(2)7-6(3)9(5)7/h2-7H/t2-,3+,4-,5+,6-,7+,9?
