20
gdb 38965	2.84084	1.74392	1.48473	2.075	76.39	-0.2232	0.0706	0.2937	969.8639	0.175462	-403.140346	-403.133268	-403.132323	-403.17196	28.659	
C	-0.156683548	 1.0490416033	-0.2063147652	-0.061801
C	 0.9802404875	 1.7924585472	 0.5335095676	-0.237127
C	 2.1605788369	 0.7873071729	 0.5729999606	-0.040647
C	 2.7150250785	 0.4019156292	 1.9675616487	-0.234852
C	 1.9731995597	-0.8673986819	 2.3534938093	-0.029855
N	 0.5076540615	-0.7217905868	 2.2418268997	-0.337689
C	 1.264396692	-1.4071130219	 1.1668838352	-0.061921
C	 1.5421847711	-0.5089561928	-0.0312413986	 0.117712
O	 0.4158927524	-0.1218879374	-0.7914460533	-0.26821
H	-0.9539917469	 0.7724699085	 0.4916525956	 0.107004
H	-0.5921341552	 1.6355018951	-1.0218665786	 0.092641
H	 1.2664418629	 2.7050725311	 0.0042183051	 0.094872
H	 0.6638188825	 2.0735157014	 1.5395249399	 0.111421
H	 2.9677635847	 1.1512479611	-0.0655682239	 0.075591
H	 3.7877667312	 0.1852381081	 1.9065425546	 0.097085
H	 2.5856984735	 1.2005626506	 2.705463211	 0.104927
H	 2.3746143234	-1.5176971087	 3.1246197637	 0.083027
H	 0.0525705511	-1.4238261626	 2.8196865661	 0.230912
H	 1.1090655688	-2.470708703	 1.0180854118	 0.0833
H	 2.2228206026	-1.0287175335	-0.7154001695	 0.073611
84.8939	162.4979	216.57	345.9053	378.6621	495.6168	563.6893	657.4723	688.919	744.5521	798.4982	838.759	865.0893	869.88	889.0549	911.9679	949.4283	957.7857	975.0147	991.7214	1032.4229	1077.9713	1091.4443	1102.6131	1122.5714	1127.9701	1165.745	1210.5702	1233.6591	1242.24	1252.3307	1266.9414	1298.6111	1310.8607	1333.0315	1338.8583	1363.0952	1383.1335	1403.0512	1427.2593	1482.7604	1492.3957	1519.6929	3035.2187	3036.7326	3042.2669	3059.4604	3074.6249	3078.4488	3084.5227	3119.0989	3154.1905	3166.9684	3502.2477
C1CC2CC3NC3C2O1	C1C[C@H]2C[C@H]3N[C@H]3[C@H]2O1	
InChI=1S/C7H11NO/c1-2-9-7-4(1)3-5-6(7)8-5/h4-8H,1-3H2	InChI=1S/C7H11NO/c1-2-9-7-4(1)3-5-6(7)8-5/h4-8H,1-3H2/t4-,5+,6+,7-/m0/s1
