15
gdb 28477	3.19276	1.42467	0.99112	2.6758	71.17	-0.2374	-0.0232	0.2142	1125.2191	0.114442	-454.034979	-454.027272	-454.026328	-454.067208	29.109	
C	-0.0711289438	 1.5429667512	 0.0007552496	-0.495156
C	-0.0141343142	 0.0425808112	-0.024747127	 0.155501
C	-0.1309760703	-0.7196125613	-1.1774437782	-0.049383
N	-0.082838464	-2.0574292147	-1.2197351966	-0.310632
C	 0.0907678865	-2.6440510409	-0.0466095212	 0.449619
O	 0.1432341987	-3.9847980849	-0.0569308367	-0.391371
N	 0.2193391799	-2.0467407271	 1.1449737926	-0.451803
C	 0.1653964014	-0.7215673991	 1.1390186214	 0.374082
O	 0.2908139804	-0.0878850868	 2.3167406577	-0.403296
H	 0.8502643186	 1.9734423571	 0.4076655921	 0.138699
H	-0.2156932431	 1.9396653514	-1.007773587	 0.125297
H	-0.892193241	 1.9034170403	 0.6298695984	 0.138695
H	-0.2736279749	-0.2214740288	-2.1349871751	 0.114991
H	 0.271628382	-4.2622251667	 0.8593878444	 0.303281
H	 0.4044488937	-0.7741463809	 2.9895421857	 0.301477
114.8022	130.1395	234.308	265.9605	321.573	360.9021	467.5433	492.8015	539.8169	565.5768	570.9843	592.3004	748.347	777.1645	791.7232	821.9219	982.6145	996.1061	1031.3957	1072.1719	1177.8401	1229.7233	1249.3762	1321.413	1362.1412	1396.7459	1417.1973	1476.8329	1477.5373	1493.0145	1514.0157	1630.6495	1669.9127	3033.7045	3087.3202	3114.8635	3146.2012	3762.3247	3795.2937
CC1=CN=C(O)N=C1O	Cc1cnc(O)nc1O	
InChI=1S/C5H6N2O2/c1-3-2-6-5(9)7-4(3)8/h2H,1H3,(H2,6,7,8,9)	InChI=1S/C5H6N2O2/c1-3-2-6-5(9)7-4(3)8/h2H,1H3,(H2,6,7,8,9)
