17
gdb 47867	2.33988	1.71341	1.14253	5.9463	70.68	-0.2467	-0.0259	0.2209	1072.7258	0.137742	-455.172028	-455.163863	-455.162919	-455.205219	30.366	
N	 0.0109068925	 1.3279287878	 0.1310548193	-0.451458
C	-0.0070141946	 0.074036829	 0.0112744616	 0.255168
O	 1.1155595731	-0.7250044883	 0.0311014864	-0.256433
C	 1.626587338	-1.1594057562	-1.2356471437	-0.090116
C	 0.7449618065	-2.1969276998	-1.9229310876	-0.191818
C	-0.6695963765	-1.6889193759	-2.229896411	-0.17778
N	-1.5106689146	-1.5462882877	-1.0482391023	-0.313992
C	-1.3385573305	-0.6746771962	-0.0114468033	 0.384843
O	-2.1627332146	-0.5205910528	 0.8646698608	-0.348092
H	 0.9784400693	 1.6581878178	 0.1875373671	 0.228948
H	 1.7677554392	-0.2845128416	-1.8871611165	 0.105489
H	 2.6112506809	-1.5780792151	-1.0145566315	 0.124826
H	 1.2320893799	-2.4762381645	-2.8652822369	 0.108592
H	 0.6791313124	-3.0972890489	-1.3028457923	 0.121985
H	-0.6121449151	-0.7407706468	-2.7841272785	 0.123766
H	-1.1743715441	-2.4020525201	-2.8857332902	 0.122338
H	-2.4063905118	-2.0108307606	-1.0375471114	 0.253733
59.9081	97.5328	203.0595	256.132	296.2314	363.3388	372.1331	412.4148	503.2373	532.5959	600.0841	700.1098	725.5061	811.8129	834.3577	898.3215	901.6846	966.2371	985.977	1028.9495	1094.2489	1112.9239	1159.1117	1240.6767	1255.1804	1276.126	1316.9096	1367.6891	1392.0809	1403.106	1422.2746	1456.9463	1471.0498	1495.3806	1504.4631	1747.2944	1795.0892	3001.1918	3004.3457	3036.5372	3088.3859	3099.4566	3104.415	3446.873	3620.1573
N=C1OCCCNC1=O	[NH][C]1OCCCNC1=O	
InChI=1S/C5H8N2O2/c6-4-5(8)7-2-1-3-9-4/h6H,1-3H2,(H,7,8)	InChI=1S/C5H8N2O2/c6-4-5(8)7-2-1-3-9-4/h6H,1-3H2,(H,7,8)
