21
gdb 26381	4.04218	0.90265	0.8134	3.7011	85.05	-0.2135	0.034	0.2476	1478.9646	0.183802	-383.322454	-383.313198	-383.312254	-383.357197	34.456	
C	-0.0313872781	 1.5750258673	 0.0455119884	-0.389888
C	 0.0483267222	 0.0433193093	 0.062305984	 0.056979
C	 0.8098436259	-0.4516049791	 1.2981470058	-0.39233
C	-1.3739916855	-0.5648847378	-0.0348973147	-0.329075
C	-1.4311218282	-2.0493757379	-0.2027893749	 0.296986
C	-1.4992471897	-2.8523400917	-1.3151279649	-0.161342
N	-1.5160954521	-4.1858189905	-0.9734405729	-0.253056
C	-1.4607906381	-4.2031478869	 0.336857936	 0.005311
N	-1.4069652771	-2.9414136811	 0.854582698	-0.29087
H	 0.9672835521	 2.0226493508	 0.0720859076	 0.112647
H	-0.5393407514	 1.9402956306	-0.8532866562	 0.11241
H	-0.5848111606	 1.9487308257	 0.9156684606	 0.110887
H	 0.5993603824	-0.2841082342	-0.8290732768	 0.084154
H	 0.2895454372	-0.1613359831	 2.2204921316	 0.102402
H	 0.9212795751	-1.5397265078	 1.2963828479	 0.11939
H	 1.8135578171	-0.0165532482	 1.3397141394	 0.116901
H	-1.9472448899	-0.2649328551	 0.8543635294	 0.094657
H	-1.8858893361	-0.110503853	-0.8903610836	 0.116069
H	-1.543897239	-2.5375602533	-2.3474825618	 0.101074
H	-1.4604695155	-5.0830887683	 0.9629578154	 0.125506
H	-1.3693500408	-2.6955249857	 1.8296789018	 0.261188
44.3043	75.7087	113.4275	225.2264	251.8738	287.2745	319.5758	326.47	411.8385	419.0704	535.7851	663.1024	685.0093	751.6897	800.9823	815.3765	852.1874	876.421	927.7421	932.7099	950.6023	966.9573	1021.8786	1094.8235	1113.9735	1138.2561	1147.1982	1189.5481	1230.9499	1264.3968	1288.365	1315.3344	1362.8154	1369.6549	1392.2936	1398.5906	1419.0336	1428.7721	1476.9181	1489.4343	1494.4257	1502.2912	1506.0402	1514.2425	1610.5051	3002.8929	3016.8225	3021.53	3028.2785	3067.3796	3085.3228	3092.4631	3101.0426	3109.2356	3240.4017	3248.8819	3662.3382
CC(C)CC1=CN=CN1	CC(C)Cc1cnc[nH]1	
InChI=1S/C7H12N2/c1-6(2)3-7-4-8-5-9-7/h4-6H,3H2,1-2H3,(H,8,9)	InChI=1S/C7H12N2/c1-6(2)3-7-4-8-5-9-7/h4-6H,3H2,1-2H3,(H,8,9)
