19
gdb 106878	1.92308	1.89496	1.14826	2.4438	79.49	-0.2231	-0.0219	0.2012	1117.4866	0.157791	-423.001117	-422.992234	-422.99129	-423.034602	33.089	
C	 0.3330199768	 0.4496079763	-0.7173661549	-0.273281
O	-0.2327509271	 0.2318331046	 0.5733948199	-0.268957
C	 0.516793137	-0.4314960171	 1.4920500425	 0.426235
C	 1.9189433102	-0.8723736447	 1.3600835805	-0.396964
C	 0.9205094067	-1.9963844404	 1.6134146125	 0.166735
C	 0.4573464597	-1.9662390051	 3.0680430233	-0.303414
C	 0.0263302374	-0.4713087167	 2.9329243502	-0.283546
C	 0.6651189498	-3.0325270381	 0.6240165905	 0.050558
O	 0.9863098439	-2.983740908	-0.5485282517	-0.298487
H	 0.5658293757	-0.4964841759	-1.2149774828	 0.161173
H	-0.424649921	 0.9887202202	-1.2884347753	 0.133629
H	 1.2397549636	 1.0635012877	-0.6506980451	 0.119825
H	 2.3227108767	-0.8944221813	 0.354062844	 0.145328
H	 2.6488522821	-0.6476037232	 2.1378452559	 0.112184
H	-0.3884015968	-2.6304709271	 3.2620521115	 0.112836
H	 1.2375067009	-2.1676285427	 3.8099413834	 0.101654
H	 0.4976635415	 0.2513567106	 3.6074004221	 0.105327
H	-1.0568690993	-0.347416528	 2.9818455008	 0.123876
H	 0.0945504521	-3.9049828909	 1.0174188926	 0.065288
97.1316	108.4424	172.2802	217.3675	227.7969	261.0763	274.1848	383.4069	418.0209	489.2925	532.7215	628.6851	676.2143	738.8505	796.8899	807.9199	943.7734	950.4158	970.4473	1005.5616	1037.6333	1074.6163	1094.1445	1116.6629	1169.8288	1183.605	1209.5293	1221.5608	1246.9687	1265.9918	1297.0109	1358.6472	1374.0749	1434.7371	1475.0745	1479.1607	1491.1713	1494.3558	1511.488	1519.7934	1763.5059	2865.0907	3020.4539	3041.114	3050.9745	3086.2856	3098.7159	3100.0939	3125.0234	3140.5942	3213.9485
COC12CC1(CC2)C=O	CO[C@]12C[C@]1(CC2)C=O	
InChI=1S/C7H10O2/c1-9-7-3-2-6(7,4-7)5-8/h5H,2-4H2,1H3	InChI=1S/C7H10O2/c1-9-7-3-2-6(7,4-7)5-8/h5H,2-4H2,1H3/t6-,7-/m1/s1
