18
gdb 30422	3.28422	1.16077	0.87108	2.8571	79.52	-0.1785	0.0399	0.2184	1334.5542	0.14662	-435.29186	-435.281874	-435.28093	-435.327209	35.182	
C	-0.035399933	 1.4093058724	 0.0772064531	-0.315092
N	-0.0517659719	-0.042659433	 0.0560453232	-0.388789
C	 0.5364091514	-0.6516189234	 0.9946974964	 0.5032
N	 0.6324686573	-2.0208164359	 1.154064522	-0.43543
C	 1.4054714451	-2.3233198467	 2.2771641973	 0.320119
C	 1.7136568273	-3.7129819587	 2.7031708806	-0.50506
C	 1.7486276467	-1.1519786552	 2.8321402014	 0.155111
N	 2.4863621217	-0.8646589937	 3.9737567769	-0.594528
O	 1.2118646652	-0.0987561348	 2.0619621607	-0.247371
H	 0.9645225963	 1.8271851762	 0.2638434883	 0.10573
H	-0.3840936027	 1.7833514475	-0.8895185585	 0.111549
H	-0.7036993331	 1.8187003273	 0.8492095995	 0.107689
H	 0.3012848488	-2.6629235609	 0.4570788332	 0.265018
H	 2.2696377206	-4.2581257716	 1.9307089774	 0.131841
H	 2.3195464592	-3.6846728119	 3.610259035	 0.157034
H	 0.7993783772	-4.2814699683	 2.911592649	 0.134122
H	 1.9438691295	-0.3574231426	 4.6673436824	 0.247475
H	 3.3153471445	-0.3138917669	 3.7691042823	 0.247382
44.3311	79.7547	168.2538	176.4057	205.9885	226.8663	241.2528	251.8269	274.1714	373.5855	401.6281	551.5398	614.3368	642.0253	661.0826	731.8468	793.9591	830.6989	938.1732	974.6989	1030.6673	1070.5405	1082.9819	1124.3611	1165.5938	1220.5261	1245.2198	1296.4595	1332.4077	1412.1029	1447.0574	1451.1949	1482.4957	1492.1863	1494.8382	1501.4919	1659.8032	1784.308	1819.1678	2982.9546	3024.4784	3026.0475	3071.3157	3089.9583	3142.0202	3482.7762	3542.1195	3701.0542
CN=C1NC(C)=C(N)O1	CN=c1[nH]c(C)c(N)o1	
InChI=1S/C5H9N3O/c1-3-4(6)9-5(7-2)8-3/h6H2,1-2H3,(H,7,8)	InChI=1S/C5H9N3O/c1-3-4(6)9-5(7-2)8-3/h6H2,1-2H3,(H,7,8)
