20
gdb 7181	2.73288	1.12512	0.84256	4.028	73.31	-0.2742	0.0106	0.2847	1394.2675	0.174387	-386.179251	-386.16935	-386.168406	-386.215039	34.179	
C	-0.0202400333	 1.507821243	 0.0709851049	-0.381866
C	 0.0203411537	-0.021043603	 0.006862082	-0.179512
C	 0.7307431487	-0.5428025235	-1.2464278583	-0.164036
C	 0.7832305849	-2.0659499314	-1.3456734378	 0.104655
C	 1.4275961298	-2.5653626576	-2.6343658158	-0.394434
O	 1.5564320235	-2.5528153547	-0.2234473464	-0.187705
C	 1.1010506567	-3.6183114133	 0.4554515817	 0.170947
O	 1.6993549585	-4.1168007114	 1.3618887125	-0.279971
H	 0.9906378375	 1.9298633882	 0.0802015334	 0.118908
H	-0.5467468603	 1.9294735055	-0.7925676763	 0.113027
H	-0.5322106111	 1.8529246264	 0.9742391462	 0.116659
H	 0.5268891491	-0.4146448493	 0.8947399006	 0.120259
H	-1.0041715106	-0.4167832301	 0.0337462561	 0.091917
H	 0.2253754952	-0.1657847555	-2.1448188108	 0.098812
H	 1.7579420538	-0.157869844	-1.2811541011	 0.110847
H	-0.2359483204	-2.4704935187	-1.2600802328	 0.085282
H	 2.4562361623	-2.2011177771	-2.7124457653	 0.136015
H	 1.449373336	-3.6586970094	-2.6625766955	 0.124274
H	 0.8663289169	-2.2106851105	-3.5041555386	 0.122633
H	 0.116408189	-3.9729218435	 0.0900398414	 0.073288
37.8919	81.1067	105.6428	154.9455	170.5354	218.3961	245.8977	267.8409	320.2807	346.4999	480.099	519.1443	611.51	749.9571	868.5406	876.3781	913.4461	963.4199	1013.3489	1042.4657	1048.3854	1066.6128	1136.6024	1143.903	1176.8043	1219.5963	1273.7233	1297.6099	1332.2421	1362.9884	1378.5546	1403.4108	1412.7284	1416.1269	1441.0225	1474.461	1488.6007	1494.1361	1496.5569	1500.4363	1511.0604	1861.7137	2935.7571	2999.9765	3015.1309	3024.1308	3031.3205	3042.1798	3057.0484	3074.5462	3099.676	3106.0924	3116.1972	3120.4476
CCCC(C)OC=O	CCC[C@@H](C)OC=O	
InChI=1S/C6H12O2/c1-3-4-6(2)8-5-7/h5-6H,3-4H2,1-2H3	InChI=1S/C6H12O2/c1-3-4-6(2)8-5-7/h5-6H,3-4H2,1-2H3/t6-/m1/s1
