20
gdb 74017	2.34151	1.94498	1.24955	1.0527	86.37	-0.2141	0.0202	0.2343	1059.9916	0.172818	-365.9722	-365.964457	-365.963513	-366.004126	31.023	
C	 0.0505330927	 1.4320789641	-0.02609297	-0.497795
C	-0.1659702415	-0.047201458	-0.0003033555	 0.21221
C	-0.2936350308	-0.8968978979	-1.0258068309	 0.151253
C	 0.2514438038	-1.1052771635	-2.4223713569	-0.307765
C	 0.8788529611	-2.4217090813	-1.8270371463	-0.239065
C	-0.1584016944	-2.352501753	-0.6459635087	-0.034651
C	 0.1403578139	-2.3031368807	 0.8402964813	-0.073982
N	 1.3450398454	-1.5391388456	 1.2226181238	-0.338417
C	 0.0091545719	-0.8655867922	 1.2503332395	-0.136365
H	 1.022565502	 1.6947551423	 0.4107322096	 0.130714
H	 0.0150855326	 1.8241655881	-1.0462969075	 0.12178
H	-0.7124018285	 1.9610322997	 0.5597259052	 0.120992
H	-0.5165586389	-1.3352081179	-3.1689271719	 0.105
H	 0.927873675	-0.3483780193	-2.826322241	 0.105918
H	 0.846668366	-3.3113173842	-2.460372993	 0.09528
H	 1.8918249563	-2.2478393851	-1.4614435467	 0.128859
H	-1.0384519251	-2.9698825598	-0.8607756502	 0.069592
H	-0.1908104175	-3.1011218422	 1.4965518488	 0.080038
H	 1.593913395	-1.8083565686	 2.1731792934	 0.225379
H	-0.3901388489	-0.5622119247	 2.214029757	 0.081025
146.5385	170.9706	200.4071	207.7293	240.223	408.1319	502.4533	541.4936	588.3125	680.9221	697.3581	715.4288	799.0446	832.2113	853.1436	871.14	885.2315	918.8166	923.585	993.5432	1045.7213	1050.852	1065.2517	1081.4005	1102.9354	1121.6058	1133.4694	1168.7973	1189.1402	1221.4869	1223.7348	1237.9023	1245.8758	1257.1647	1346.7128	1367.3167	1397.7733	1410.3959	1468.2722	1479.7984	1484.5054	1489.5829	1735.8573	3014.0887	3033.6269	3042.9424	3059.7163	3067.6481	3101.8582	3107.3576	3142.4579	3146.8535	3164.1286	3475.2532
CC1=C2CCC2C2NC12	C[C]1[C]2CC[C@H]2[C@H]2N[C@@H]12	
InChI=1S/C8H11N/c1-4-5-2-3-6(5)8-7(4)9-8/h6-9H,2-3H2,1H3	InChI=1S/C8H11N/c1-4-5-2-3-6(5)8-7(4)9-8/h6-9H,2-3H2,1H3/t6-,7+,8-/m1/s1
