18
gdb 40345	3.58734	1.31882	1.25548	1.3694	75.53	-0.2396	0.0723	0.3119	1064.3278	0.148843	-401.852645	-401.845439	-401.844495	-401.884767	28.143	
C	 0.0758822249	 1.5649384795	 0.0248642247	-0.181599
O	 1.1666268229	 0.6706181784	-0.1997375088	-0.234881
C	-0.1269850018	 0.1098296533	 0.0639916111	-0.12012
C	-0.2754671029	-0.6366535757	 1.3234829092	 0.417333
C	-0.1794407088	-2.0751059312	 1.6829474024	-0.093141
C	 0.6171167285	-1.765695939	 2.9484856966	-0.239769
C	 0.0012290845	-0.3441563842	 2.8542862015	-0.141521
C	-1.4978623185	-0.6276103183	 3.0367448296	-0.1465
N	-1.5120539923	-1.3707471416	 1.7313726239	-0.198286
H	 0.1166851085	 2.1264715532	 0.9571230783	 0.113405
H	-0.2558940369	 2.1304538033	-0.8448272914	 0.118368
H	-0.6006533435	-0.3692517045	-0.7938428643	 0.102943
H	-0.1263841441	-2.9402146018	 1.0349716161	 0.103349
H	 0.4166382737	-2.3422539378	 3.8580231323	 0.096058
H	 1.6884917503	-1.7618949864	 2.7352312954	 0.117256
H	 0.5031270581	 0.5159684673	 3.2924090762	 0.080311
H	-1.8125817854	-1.2102433282	 3.9106219671	 0.097666
H	-2.1311580172	 0.2567958038	 2.9322168902	 0.109128
70.067	136.7728	160.2441	376.5097	393.3383	435.958	515.9042	602.0586	727.8496	751.0132	833.8454	844.2072	866.0084	899.9877	929.1206	931.7665	968.2487	983.3477	994.5922	1003.8127	1042.6385	1083.9549	1095.1731	1126.1716	1147.2998	1154.4225	1165.0175	1173.5463	1193.8814	1225.5437	1254.3418	1275.9347	1280.4126	1317.8873	1361.313	1478.2383	1492.1335	1513.9187	1530.0044	3033.221	3044.8519	3082.9667	3103.5887	3106.0331	3113.1974	3138.7979	3170.6192	3204.5935
C1OC1C12C3CC1CN23	C1O[C@H]1[C@@]12[C@H]3C[C@@H]1CN23	
InChI=1S/C7H9NO/c1-4-2-8-5(1)7(4,8)6-3-9-6/h4-6H,1-3H2	InChI=1S/C7H9NO/c1-4-2-8-5(1)7(4,8)6-3-9-6/h4-6H,1-3H2/t4-,5-,6-,7+,8?/m1/s1
