21
gdb 58898	3.11703	1.2458	1.05055	1.3871	77.84	-0.2484	0.0678	0.3162	1210.8638	0.182764	-424.218521	-424.209672	-424.208727	-424.251826	34.309	
C	-0.0021541384	 1.5411076652	 0.2979341339	-0.413505
C	-0.0598361243	 0.0453877866	-0.0191390466	 0.017107
O	 0.8005606951	-0.6958864798	 0.8410209645	-0.426424
C	-1.4801353688	-0.4965205124	-0.0029289787	 0.337747
C	-2.1201519562	-1.0224704123	 1.2587786262	-0.343744
C	-1.7944153485	-1.9672988336	 0.1262885915	-0.106386
C	-2.9166114075	-2.2416933037	-0.8539389308	-0.095716
O	-3.4939239579	-0.9678981124	-1.1373718664	-0.258279
C	-2.4688132292	 0.0152002123	-1.0433013947	-0.150434
H	 1.0339914791	 1.8904977445	 0.2858975999	 0.123939
H	-0.5723144062	 2.1259003798	-0.4309140937	 0.12492
H	-0.4282951076	 1.7411510959	 1.2888365332	 0.113108
H	 0.3517348508	-0.1178784124	-1.0244727025	 0.088284
H	 0.6473151678	-0.3914898888	 1.741824924	 0.281045
H	-1.4996048361	-1.1014323073	 2.1447223189	 0.095709
H	-3.1612189281	-0.7810620975	 1.4505608633	 0.119372
H	-0.9982145035	-2.6896521825	 0.2550135305	 0.102081
H	-2.5176739135	-2.711305977	-1.768094957	 0.091073
H	-3.7183763542	-2.8773396449	-0.462998073	 0.10769
H	-2.9548917054	 0.961517792	-0.7825839949	 0.106045
H	-1.9521400675	 0.1488031785	-2.0103439974	 0.086366
70.3746	157.2373	194.3319	247.6119	257.9612	301.0535	310.7024	338.4017	404.9934	454.7282	485.7888	646.5549	681.4388	731.981	831.3674	891.9892	911.4316	925.2328	939.459	942.8479	1020.0924	1026.9015	1049.6983	1071.5027	1084.8543	1103.3712	1105.2399	1125.2584	1136.6547	1212.7225	1240.787	1253.7548	1283.3251	1306.7669	1352.4736	1362.5679	1373.4371	1402.4261	1413.218	1419.5605	1482.7248	1492.4929	1495.283	1510.2818	1522.4155	2947.9692	2971.4664	3016.4155	3027.9419	3060.5803	3065.1904	3097.083	3117.5326	3125.937	3197.0737	3214.1638	3809.3371
CC(O)C12CC1COC2	C[C@@H](O)[C@]12C[C@H]1COC2	
InChI=1S/C7H12O2/c1-5(8)7-2-6(7)3-9-4-7/h5-6,8H,2-4H2,1H3	InChI=1S/C7H12O2/c1-5(8)7-2-6(7)3-9-4-7/h5-6,8H,2-4H2,1H3/t5-,6+,7-/m1/s1
