23
gdb 112911	1.92343	1.49702	0.97245	0.9904	82.35	-0.2487	0.0906	0.3393	1337.2202	0.204495	-425.450784	-425.440741	-425.439797	-425.485884	37.264	
C	-0.3285120063	 1.4972572676	 0.2414027859	-0.386033
C	-0.3253115236	-0.0333645547	 0.2016662611	-0.181054
C	 0.7551706779	-0.6349258614	 1.1004745033	 0.117687
O	 0.5571899275	-0.1959288753	 2.4507116533	-0.290436
C	 0.3124377154	-1.334185787	 3.2685686128	 0.231776
C	-0.7880138415	-1.052769089	 4.2674902981	-0.405539
O	-0.0565063323	-2.375223465	 2.398895744	-0.263095
C	 0.7476341421	-2.1802824916	 1.2390115522	 0.093374
C	 0.1973106	-3.0021133718	 0.088936578	-0.419422
H	 0.6234065272	 1.904240529	-0.1185775641	 0.110074
H	-1.1252359963	 1.9068016287	-0.3867504769	 0.108116
H	-0.4779425316	 1.8518778699	 1.2642043195	 0.134763
H	-1.3016901829	-0.4174365696	 0.5194588483	 0.103445
H	-0.162182653	-0.3785584816	-0.8269133517	 0.091564
H	 1.7424213204	-0.2883720611	 0.7636646249	 0.070704
H	 1.2540032897	-1.6022731945	 3.7855159351	 0.057534
H	-1.713263791	-0.8098159741	 3.7394174139	 0.127027
H	-0.9534394834	-1.9282516936	 4.9011427955	 0.12464
H	-0.5050799769	-0.2084793298	 4.9010727916	 0.127688
H	 1.7778151644	-2.5081730204	 1.4598667159	 0.068271
H	-0.8375667968	-2.7319899428	-0.132567789	 0.131007
H	 0.8001955406	-2.8528449607	-0.8120865975	 0.12005
H	 0.2265420105	-4.0646616115	 0.3448738457	 0.127858
50.8725	117.6659	130.542	187.1642	216.1352	224.3064	239.1609	271.9501	316.7022	388.9117	447.8768	492.6597	509.7838	688.5035	706.4091	767.0775	845.7022	864.4399	879.5919	927.9018	962.2162	984.2833	1033.8947	1063.3336	1109.725	1114.4436	1129.5181	1139.5072	1166.9697	1174.1177	1198.0447	1289.8507	1304.104	1336.3409	1354.6928	1373.3407	1389.831	1398.7797	1404.5113	1406.6416	1421.9175	1443.3673	1477.116	1484.2266	1485.6488	1488.2408	1497.2824	1501.9897	1510.8723	2912.9974	2951.2507	3004.0128	3026.4406	3035.3936	3048.3231	3052.3827	3068.8952	3100.4302	3117.4411	3125.9479	3131.5648	3131.9177	3137.6927
CCC1OC(C)OC1C	CC[C@H]1O[C@@H](C)O[C@H]1C	
InChI=1S/C7H14O2/c1-4-7-5(2)8-6(3)9-7/h5-7H,4H2,1-3H3	InChI=1S/C7H14O2/c1-4-7-5(2)8-6(3)9-7/h5-7H,4H2,1-3H3/t5-,6-,7+/m0/s1
