14
gdb 25649	6.39698	0.76662	0.68752	1.7087	81.17	-0.2118	-0.0309	0.1809	1571.3188	0.100241	-436.696793	-436.688252	-436.687308	-436.73273	29.797	
C	-0.0587909474	 1.4155108432	 0.0039211704	-0.513105
C	-0.0023642284	-0.0355469508	 0.0052306072	 0.301144
C	 0.0486401223	-1.2402926908	 0.0068572179	-0.093137
C	 0.1093320605	-2.6460424848	 0.0087132802	 0.204935
N	 1.1712803423	-3.4119627401	 0.0488721292	-0.39787
C	 0.6738492773	-4.689725631	 0.0295328627	 0.312264
O	 1.4807449741	-5.7646328769	 0.0598826199	-0.432542
C	-0.6851957312	-4.6601585329	-0.0221694856	-0.153
O	-1.053852567	-3.3394865934	-0.0357779745	-0.166169
H	 0.9395501995	 1.8442768163	 0.1403036931	 0.161655
H	-0.461382937	 1.7952515334	-0.941684949	 0.159446
H	-0.6977173519	 1.7865370286	 0.8127989755	 0.159635
H	 2.3854564854	-5.4305656288	 0.0944016747	 0.308235
H	-1.4677376185	-5.3950924519	-0.0521946517	 0.148507
6.4641	86.0122	93.9246	251.2575	301.1642	349.489	371.7379	404.0326	473.8698	474.1179	570.0346	659.1805	714.5626	718.5646	757.1958	945.9891	1024.3883	1047.6312	1048.9401	1053.8696	1137.492	1188.0883	1265.5336	1342.4646	1409.5525	1412.8747	1471.0039	1473.152	1567.1084	1681.9919	2363.5356	3029.2054	3090.3111	3097.5768	3313.7958	3804.5059
CC#CC1=NC(O)=CO1	CC#Cc1nc(O)co1	
InChI=1S/C6H5NO2/c1-2-3-6-7-5(8)4-9-6/h4,8H,1H3	InChI=1S/C6H5NO2/c1-2-3-6-7-5(8)4-9-6/h4,8H,1H3
