21
gdb 39014	2.89483	1.6644	1.23664	0.2235	88.16	-0.2265	0.0261	0.2526	1072.8983	0.185752	-349.945908	-349.938599	-349.937655	-349.977294	30.559	
C	 0.0418991972	 1.4185613113	-0.2976764931	-0.295525
C	 1.3600814862	 0.7432432022	-0.0128278051	-0.01945
C	 2.1013760564	 1.0188489663	 1.2983066805	-0.262579
C	 1.2098716129	 0.9479185168	 2.5194757078	-0.26423
C	 0.141028599	 0.1635100706	 2.5054246483	 0.361711
C	-1.1451382186	-0.0216187914	 3.2845880788	-0.322427
C	-1.8184115797	-0.3781048585	 1.9141194	-0.241193
C	-0.3874295261	-0.6026574154	 1.3157268452	-0.058456
C	 0.0746142497	-0.0659826781	-0.0203187024	-0.046561
H	-0.3629391242	 2.0690056535	 0.4710111358	 0.111197
H	-0.1649454517	 1.7431362396	-1.3116010032	 0.103776
H	 2.019644257	 0.6048265162	-0.8647516762	 0.07808
H	 2.9337177208	 0.3055789733	 1.3914280656	 0.107023
H	 2.5708861786	 2.0099254551	 1.2450178292	 0.101422
H	 1.4452310877	 1.5806718041	 3.371550309	 0.080478
H	-1.1178370793	-0.8860627726	 3.9580038783	 0.107413
H	-1.5330519827	 0.8364418799	 3.8401378763	 0.105877
H	-2.5095296732	-1.2239570887	 1.899448838	 0.094158
H	-2.3044276987	 0.4928704805	 1.4677226622	 0.10806
H	-0.1278462373	-1.6678631716	 1.3848193977	 0.076588
H	-0.0851911541	-0.717038123	-0.8752651028	 0.074637
124.9299	193.5935	264.9365	312.9963	369.9111	401.1524	480.2791	571.9657	644.5877	705.6294	745.3891	754.0983	783.7972	833.7722	855.096	883.2904	915.1533	930.6692	952.4798	984.9658	1016.8098	1039.1929	1067.2832	1080.7439	1091.9996	1105.703	1117.0917	1135.8327	1142.225	1196.7372	1217.161	1231.2037	1239.5193	1252.5769	1263.6991	1309.287	1343.5844	1362.7012	1379.0004	1407.9076	1473.3409	1479.9558	1488.7742	1492.0153	1771.7633	2994.7055	3005.6393	3029.6622	3036.7147	3063.1406	3090.6519	3122.1683	3128.5385	3135.2702	3146.8123	3155.0248	3212.7727
C1C2CC=C3CCC3C12	C1[C@H]2CC=C3CC[C@H]3[C@@H]12	
InChI=1S/C9H12/c1-2-7-5-9(7)8-4-3-6(1)8/h1,7-9H,2-5H2	InChI=1S/C9H12/c1-2-7-5-9(7)8-4-3-6(1)8/h1,7-9H,2-5H2/t7-,8-,9+/m1/s1
