14
gdb 54025	2.16387	1.61584	1.03503	4.7478	61.	-0.2626	-0.0268	0.2358	1101.9731	0.100536	-507.230592	-507.221746	-507.220802	-507.264619	31.747	
N	 1.1789926672	-0.4998910004	-0.3550155603	-0.529881
C	 0.0794640248	 0.0232248167	 0.2351281834	 0.436658
O	 0.0364094881	 0.992130949	 0.943968718	-0.330202
N	-1.1595585956	-0.6993909186	-0.1031334554	-0.237594
C	-2.2718833001	 0.0516508193	-0.5296191445	 0.155908
O	-2.2891945288	 1.240512536	-0.6749859288	-0.26642
C	-1.1979970261	-2.1179215731	-0.1029880577	 0.466344
N	-2.4181366639	-2.6507598287	 0.2092579313	-0.535634
O	-0.2351130849	-2.8093413406	-0.378942487	-0.379679
H	 2.0604894173	-0.1429386824	-0.0220133999	 0.26926
H	 1.1246693236	-1.4477008777	-0.7065996128	 0.288287
H	-3.127986734	-0.6023241518	-0.7668702596	 0.106988
H	-3.0500298715	-2.154001767	 0.8152604472	 0.277245
H	-2.4295610162	-3.6570084607	 0.2710103661	 0.278721
66.1252	79.6574	146.0179	222.1443	241.7544	284.4628	407.5108	432.1525	451.586	509.6022	521.2526	549.634	554.5809	628.8207	678.1145	751.0353	770.7994	807.0283	1039.2512	1080.756	1108.5615	1162.6811	1226.3281	1318.7196	1388.3439	1457.4884	1611.0454	1621.568	1779.4167	1828.8777	1886.3855	2993.2992	3527.2369	3593.5825	3688.9776	3715.6101
NC(=O)N(C=O)C(N)=O	NC(=O)N(C=O)C(=O)N	
InChI=1S/C3H5N3O3/c4-2(8)6(1-7)3(5)9/h1H,(H2,4,8)(H2,5,9)	InChI=1S/C3H5N3O3/c4-2(8)6(1-7)3(5)9/h1H,(H2,4,8)(H2,5,9)
