17
gdb 44096	3.77086	1.45478	1.20913	4.3456	71.81	-0.2689	0.0056	0.2745	1022.7466	0.137274	-421.821384	-421.814432	-421.813488	-421.852753	27.714	
O	 0.044892698	 0.0824902448	-0.1549381669	-0.319364
C	 0.0863299136	 1.2655974857	-0.057963215	 0.423922
O	-0.9854740125	 2.1338432441	 0.0838498326	-0.291981
C	-0.0968137699	 3.2677256958	 0.2015725451	 0.487535
C	-0.3073571036	 4.6742844474	-0.3100304943	-0.328249
C	 0.6528055563	 5.1351815155	 0.8440416076	-0.234589
C	 0.5104418923	 3.7417663245	 1.5513344142	-0.08583
C	 1.6946322381	 2.7544861402	 1.3878888022	-0.260153
C	 1.141424761	 2.3744025865	-0.0284529338	-0.290018
H	-0.0305359648	 4.8961229843	-1.3436896257	 0.110103
H	-1.3313013912	 5.0160000751	-0.1332517092	 0.124917
H	 1.6695693062	 5.3438233829	 0.5028641874	 0.111034
H	 0.2992458603	 5.9856421826	 1.4276122922	 0.117883
H	-0.0549210759	 3.7476785844	 2.4828119801	 0.084819
H	 2.6854318253	 3.2144991565	 1.3676604595	 0.115112
H	 1.7115108122	 1.9252953844	 2.0985982049	 0.126232
H	 1.7964206346	 2.4311850353	-0.8971101611	 0.108628
108.5266	175.3625	266.4316	323.6161	395.5968	451.1703	492.0155	648.8471	705.7166	734.7677	774.6994	801.0122	804.9123	881.4998	903.9321	914.7542	954.1416	976.15	1014.786	1018.5026	1068.553	1089.7882	1130.9813	1144.3662	1174.1505	1217.208	1218.1019	1231.6928	1250.3782	1272.1973	1288.9784	1302.1088	1326.2432	1472.6725	1482.748	1494.5875	1935.8552	3059.2931	3067.1583	3073.681	3109.2499	3113.2033	3120.7761	3128.412	3137.3695
O=C1OC23CCC2CC13	O=C1O[C@@]23CC[C@@H]2C[C@@H]13	
InChI=1S/C7H8O2/c8-6-5-3-4-1-2-7(4,5)9-6/h4-5H,1-3H2	InChI=1S/C7H8O2/c8-6-5-3-4-1-2-7(4,5)9-6/h4-5H,1-3H2/t4-,5+,7+/m1/s1
