20
gdb 66684	2.42283	2.04136	1.61744	1.6323	81.84	-0.2096	0.0862	0.2958	953.9513	0.171207	-365.930552	-365.922801	-365.921856	-365.962196	31.306	
C	-0.017953957	 1.4585526283	-0.0266367667	-0.519491
C	 0.0480653561	-0.0362903983	 0.0282456839	 0.30472
C	-0.5977844795	-1.088281385	-0.8744569019	-0.230648
C	 0.4460188399	-2.0753112823	-0.3168751869	-0.002517
C	 1.2750743979	-0.9318405685	 0.3563459307	-0.127945
C	 0.9388654133	-1.5938974238	 1.7036935754	-0.1943
N	-0.2864172769	-2.1748029423	 1.0365901925	-0.192578
C	-1.0508479443	-0.9706083929	 0.5580406816	 0.325065
C	-2.3534743048	-0.5691207967	 1.1694049683	-0.51556
H	 0.6565794314	 1.865300908	-0.7889288592	 0.120269
H	-1.0284451114	 1.8044618017	-0.2691023275	 0.120764
H	 0.2611021462	 1.9056492118	 0.935438317	 0.119687
H	-1.1382059857	-1.0126353154	-1.8090770562	 0.087105
H	 0.8390714284	-2.9853058294	-0.7665317601	 0.074018
H	 2.2691122723	-0.6048035691	 0.0482884378	 0.061977
H	 1.6224049281	-2.404584087	 1.974751443	 0.102637
H	 0.7414631039	-0.9635713446	 2.5773442089	 0.096003
H	-2.2287102264	-0.3206292908	 2.2301984685	 0.121048
H	-2.77200001	 0.3088704808	 0.6673573002	 0.118994
H	-3.0834617316	-1.3817621842	 1.0993989508	 0.130754
170.9976	183.3619	205.9378	215.6129	253.128	349.321	447.7538	538.357	623.1019	634.9639	741.7902	757.4791	793.9156	826.7151	838.3625	868.5247	893.4805	910.7596	929.2867	938.5439	976.5363	1009.3568	1033.9217	1096.0054	1108.2297	1125.7909	1148.4274	1163.838	1165.4143	1186.0426	1208.0034	1222.6362	1260.2525	1276.8054	1351.0248	1409.7939	1415.9744	1444.9906	1474.7017	1486.5179	1493.7258	1497.0441	1506.4109	3017.9553	3026.3772	3039.292	3074.6451	3087.5818	3090.7681	3097.3956	3103.7219	3105.6692	3128.6379	3196.1362
CC12C3C4C1CN4C23C	C[C@@]12[C@H]3[C@H]4[C@@H]1CN4[C@@]23C	
InChI=1S/C8H11N/c1-7-4-3-9-5(4)6(7)8(7,9)2/h4-6H,3H2,1-2H3	InChI=1S/C8H11N/c1-7-4-3-9-5(4)6(7)8(7,9)2/h4-6H,3H2,1-2H3/t4-,5+,6+,7-,8+/m0/s1
