18
gdb 67669	2.53692	1.90848	1.3854	2.3558	75.71	-0.2268	-0.0067	0.2201	980.1084	0.148651	-401.94262	-401.934994	-401.93405	-401.974579	29.614	
C	 0.0189772449	 1.5594312105	 0.0098953959	-0.503291
C	-0.0444069188	 0.0639731527	 0.0000417993	 0.20163
C	 0.0883399229	-1.002685666	 1.0908488018	-0.112798
C	-0.7501743661	-2.0228349442	 0.27059142	-0.178956
C	 0.2922244834	-2.8995233803	-0.4354740477	-0.229256
C	 1.4304287884	-1.8826803822	-0.6938231562	-0.170067
N	 1.1937567138	-0.7273184947	 0.2103086139	-0.131303
C	-1.1223378529	-0.7982207805	-0.6045499096	 0.381835
O	-2.0590216688	-0.5482751083	-1.3134475663	-0.332915
H	 0.7283618086	 1.9070584876	 0.7648393439	 0.134236
H	 0.3474979283	 1.9380140745	-0.9637168546	 0.135653
H	-0.9668781647	 1.9851380305	 0.2191097488	 0.134801
H	 0.1447949587	-0.8662779393	 2.1637690019	 0.111306
H	-1.5930183756	-2.539551381	 0.7282596677	 0.094298
H	 0.6185642402	-3.7182705077	 0.2145379097	 0.108281
H	-0.0949519146	-3.3372000989	-1.3594218265	 0.121087
H	 2.415395447	-2.2948146919	-0.4583523725	 0.1156
H	 1.4531984151	-1.5314954907	-1.7293664394	 0.119857
122.025	152.8134	205.6248	235.7865	238.1893	402.6186	463.8065	542.5883	641.9826	680.2095	736.334	779.702	801.9361	832.7021	864.5641	880.1591	920.3068	943.2068	958.8557	998.6435	1030.1121	1080.7084	1093.2856	1104.8516	1156.8995	1195.1934	1206.3083	1230.1614	1252.4994	1270.6776	1331.7732	1336.372	1390.0841	1424.8932	1479.2948	1489.4857	1490.8638	1509.4499	1862.6501	3041.4464	3046.854	3060.2095	3093.9455	3105.8788	3111.1326	3127.7172	3131.2783	3193.9572
CC12C3C(CCN13)C2=O	C[C@]12[C@H]3[C@H](CCN13)C2=O	
InChI=1S/C7H9NO/c1-7-5-4(6(7)9)2-3-8(5)7/h4-5H,2-3H2,1H3	InChI=1S/C7H9NO/c1-7-5-4(6(7)9)2-3-8(5)7/h4-5H,2-3H2,1H3/t4-,5+,7+,8?/m0/s1
