19
gdb 41698	3.04313	1.78316	1.52063	0.6854	72.89	-0.2366	0.0819	0.3185	927.9988	0.162848	-422.998655	-422.992097	-422.991153	-423.029332	27.382	
C	 0.046833291	 1.5892371885	 0.0325545744	-0.106025
O	 1.4435270628	 1.529381632	-0.3299685819	-0.294076
C	 1.3540130259	 0.1002181815	-0.586807281	 0.130112
C	 2.4714435528	-0.7236225609	 0.0653385626	-0.236965
C	 2.0352805231	-1.1853571903	 1.4572146911	 0.095157
C	 1.354746129	-0.0591376884	 2.2577310485	-0.26542
C	 0.1076411801	-0.5633541481	 1.4969715996	 0.078421
O	 0.747540324	-1.8621373872	 1.3218380843	-0.304442
C	-0.0358091032	 0.0531893655	 0.1076139348	-0.060551
H	-0.11553103	 2.1499761209	 0.9607534433	 0.102873
H	-0.5608968467	 2.0347373086	-0.7659396743	 0.101804
H	 1.3124323092	-0.0788347867	-1.6686535891	 0.075568
H	 2.6862704133	-1.6078437165	-0.5443002197	 0.107407
H	 3.3835468247	-0.1169940063	 0.1098121621	 0.112968
H	 2.7784566943	-1.8162847192	 1.9514603799	 0.075324
H	 1.2933049001	-0.2914106884	 3.3218664765	 0.107575
H	 1.6970118939	 0.963173667	 2.0996976387	 0.12372
H	-0.841004865	-0.6366100881	 2.0365063844	 0.076093
H	-0.8434415993	-0.4301400539	-0.4451148442	 0.080455
167.1927	225.7552	316.9061	363.4925	434.7058	441.9744	522.6747	659.9927	767.1151	790.8196	849.5333	854.7258	860.3705	894.399	918.1734	953.8222	958.8249	990.0546	1007.5618	1029.3594	1068.6345	1080.7493	1099.383	1101.522	1126.6517	1169.9313	1194.7312	1227.8778	1236.2547	1263.9106	1276.4657	1308.6534	1324.1552	1341.1452	1356.0479	1364.1612	1387.0932	1391.4779	1457.4713	1491.9322	1521.0043	3008.021	3015.1892	3040.5087	3055.4094	3064.2589	3075.2177	3086.1523	3090.2163	3096.9342	3153.3849
C1OC2CC3CC(O3)C12	C1O[C@H]2C[C@H]3C[C@H](O3)[C@@H]12	
InChI=1S/C7H10O2/c1-4-2-7(9-4)5-3-8-6(1)5/h4-7H,1-3H2	InChI=1S/C7H10O2/c1-4-2-7(9-4)5-3-8-6(1)5/h4-7H,1-3H2/t4-,5-,6-,7-/m0/s1
