22
gdb 63479	3.04201	1.05664	0.91677	1.6436	88.81	-0.235	0.0488	0.2838	1380.7308	0.190452	-367.165607	-367.154769	-367.153825	-367.201259	40.292	
C	 0.0343846125	 1.4391289881	-0.2719980209	-0.432883
C	 0.0024842735	-0.0430359092	 0.0643142703	 0.265634
C	-1.1465574371	-0.7505278694	-0.6358021159	-0.46213
N	 1.3274117815	-0.7022263736	 0.1072918686	-0.399829
C	 0.5674412788	-0.5438865708	 1.3640639069	 0.293092
C	 1.1892316157	 0.3988684569	 2.3803451832	-0.451033
C	-0.0284331901	-1.7899758292	 2.033599278	-0.443176
C	 0.991049816	-2.6696913286	 2.6015379043	 0.319148
C	 1.8389198188	-3.3917171971	 3.0540679626	-0.452063
H	 0.9047914724	 1.9392891734	 0.1510941962	 0.127088
H	 0.0714919675	 1.5737822031	-1.3588702714	 0.116542
H	-0.8682685713	 1.9412760131	 0.0946930605	 0.111432
H	-1.0967782532	-0.5514537918	-1.712521363	 0.1227
H	-1.1305611017	-1.8350910191	-0.5092773701	 0.115001
H	-2.1162423073	-0.3818526951	-0.2818329081	 0.121776
H	 1.2572553301	-1.6614151558	-0.2278035788	 0.222199
H	 1.7856290154	 1.1725713577	 1.8981113262	 0.129129
H	 0.4191862467	 0.8790720275	 2.9953437218	 0.109314
H	 1.8518133625	-0.162169645	 3.0472397116	 0.132871
H	-0.7120358491	-1.468840457	 2.8313222957	 0.132316
H	-0.6366263727	-2.3662768839	 1.3316110763	 0.12601
H	 2.5847627809	-4.0306545044	 3.4574205562	 0.196861
47.6111	104.8388	132.8005	159.9047	171.7441	185.0558	284.6626	318.339	338.1286	360.7274	381.705	398.6363	445.2833	487.4617	559.0766	620.5787	638.7203	692.8764	734.9007	842.3289	907.6685	926.2313	953.6803	963.3789	988.9952	1027.2775	1052.6053	1068.5848	1103.9615	1152.4356	1169.6279	1224.2335	1277.1903	1313.2536	1335.8342	1407.4628	1411.1558	1423.6084	1426.9111	1463.3084	1476.5274	1484.1439	1485.0922	1503.3255	1508.3165	1519.3011	2236.1874	3019.6444	3028.1337	3033.5726	3037.4945	3083.0857	3086.4103	3090.2017	3096.9799	3121.1682	3143.2116	3157.7055	3479.3595	3506.3054
CC1(C)NC1(C)CC#C	CC1(C)N[C@]1(C)CC#C	
InChI=1S/C8H13N/c1-5-6-8(4)7(2,3)9-8/h1,9H,6H2,2-4H3	InChI=1S/C8H13N/c1-5-6-8(4)7(2,3)9-8/h1,9H,6H2,2-4H3/t8-/m1/s1
