15
gdb 43149	2.42815	2.15765	1.72151	3.2329	62.8	-0.239	-0.0271	0.2119	835.7813	0.114197	-457.7418	-457.735448	-457.734504	-457.772388	25.499	
O	-0.0008872939	 0.0454071237	 0.0772283841	-0.313996
C	-0.0151997673	 1.2338934494	-0.0174138559	 0.449285
C	-1.1714818673	 2.2555378469	 0.0072690377	-0.222628
C	-0.6880407905	 3.0740281599	 1.2268350395	-0.082906
O	 0.765072868	 3.0477357235	 1.1375307783	-0.286721
C	 1.1095317691	 2.2881832435	-0.0353504432	-0.054498
C	 0.6881420655	 3.1173807232	-1.2473822685	 0.036171
O	-0.0566582554	 2.3652437479	-2.2202730175	-0.253564
C	-0.7850408151	 3.0877704861	-1.2178198974	 0.049989
H	-2.1812388528	 1.8561161453	 0.0620679675	 0.102768
H	-1.0281646598	 4.1156710641	 1.2084048995	 0.112694
H	-0.9966109431	 2.6155897965	 2.1724497835	 0.124792
H	 2.1374262112	 1.9428529251	 0.0420513563	 0.103901
H	 1.2728648356	 3.952994567	-1.6159595799	 0.11858
H	-1.4069802142	 3.9043020377	-1.5704775738	 0.116133
161.2616	235.8871	291.8989	348.9452	466.7078	505.5286	599.5679	629.1946	744.6797	796.7901	837.53	855.6343	880.9565	901.3331	916.6813	951.5963	966.7322	1003.5998	1029.9663	1063.8414	1107.4693	1122.5658	1172.4056	1209.0161	1221.8543	1234.7537	1275.7406	1285.4764	1319.4874	1369.737	1409.9471	1523.0271	1915.3377	3029.5267	3074.4796	3154.2438	3161.0113	3168.3332	3183.8947
O=C1C2COC1C1OC21	O=C1[C@H]2CO[C@@H]1[C@H]1O[C@@H]21	
InChI=1S/C6H6O3/c7-3-2-1-8-5(3)6-4(2)9-6/h2,4-6H,1H2	InChI=1S/C6H6O3/c7-3-2-1-8-5(3)6-4(2)9-6/h2,4-6H,1H2/t2-,4+,5+,6+/m1/s1
