19
gdb 52440	5.5072	0.50077	0.48276	5.4516	78.03	-0.2594	0.021	0.2804	2171.3042	0.158799	-419.254876	-419.244596	-419.243652	-419.292296	34.771	
O	 0.7116130419	 1.2336785259	-1.7052805641	-0.324614
C	 0.3289673973	 1.6347527183	-0.625816864	 0.152483
N	 1.0563704138	 1.577043549	 0.52050739	-0.268532
C	 2.4049892366	 1.0307220995	 0.5502352433	-0.172421
C	 3.4736261953	 2.0317334129	 0.0897251602	-0.185692
C	 4.88001988	 1.4285593065	 0.1212124551	-0.180141
C	 5.9439460106	 2.4261379156	-0.3784006907	-0.342194
C	 7.2969511398	 1.8759488588	-0.331924149	 0.256997
N	 8.3596913255	 1.4246871751	-0.2844831267	-0.303025
H	-0.6698784328	 2.0865356717	-0.463860002	 0.078336
H	 0.6676569626	 1.9805054369	 1.3571812277	 0.250541
H	 2.6117056329	 0.6880108925	 1.5693869613	 0.109544
H	 2.41902278	 0.1556556764	-0.1065383913	 0.14335
H	 3.2233091026	 2.3512264298	-0.927955792	 0.133051
H	 3.4346733553	 2.9255652032	 0.7261629254	 0.09478
H	 5.1365742822	 1.1138070175	 1.1395293684	 0.118958
H	 4.9164581366	 0.5280511156	-0.5020121701	 0.129793
H	 5.7248563839	 2.7273682556	-1.4093448071	 0.15776
H	 5.921393236	 3.3403065192	 0.2266020058	 0.151026
35.6444	43.6107	92.8653	105.5545	126.4384	172.4394	257.8518	273.4346	346.4038	399.5207	429.4386	510.2838	570.6745	724.2438	747.2885	815.4326	921.6063	932.6015	974.5267	1025.136	1032.5452	1054.5077	1073.2932	1130.9358	1189.9934	1226.9173	1259.565	1292.5226	1329.7711	1335.933	1347.1155	1392.1697	1412.7854	1428.3753	1467.6513	1471.8903	1488.8859	1506.383	1526.6367	1802.0065	2363.333	2937.5041	3021.9883	3034.1737	3043.6522	3049.1776	3064.2269	3074.5408	3091.4101	3106.3042	3643.3791
O=CNCCCCC#N	O=CNCCCCC#N	
InChI=1S/C6H10N2O/c7-4-2-1-3-5-8-6-9/h6H,1-3,5H2,(H,8,9)	InChI=1S/C6H10N2O/c7-4-2-1-3-5-8-6-9/h6H,1-3,5H2,(H,8,9)
