21
gdb 78956	2.41784	2.04776	1.52082	0.0896	84.69	-0.2331	0.0942	0.3273	982.3576	0.183096	-349.892895	-349.885226	-349.884281	-349.924371	31.811	
C	-0.0352119211	 1.6316072011	 0.0023968404	-0.422339
C	 0.035675695	 0.1130420005	 0.0121968633	-0.016786
C	 1.0726729798	-0.6380281555	-0.8618327453	-0.07864
C	 2.4803317486	-0.2599141996	-0.3382139962	-0.070411
C	 2.6468249399	-1.5280616044	 0.4694896122	-0.114839
C	 2.214405152	-0.2579156377	 1.1676839166	-0.112831
C	 0.7095796193	-0.6437659797	 1.1962159077	 0.335945
C	 0.0364718174	-0.8661182607	 2.5260916168	-0.51558
C	 1.1362145069	-1.7971729549	 0.2018847894	-0.105769
H	 0.9536296765	 2.0707041568	 0.1719981299	 0.117112
H	-0.4074362547	 2.0072467967	-0.9575037711	 0.110715
H	-0.7064872078	 2.0058391593	 0.7837924159	 0.110616
H	-0.9573568591	-0.3246093733	-0.15956291	 0.061753
H	 0.9359193139	-0.8017760955	-1.9305335224	 0.056133
H	 3.240981871	 0.3560386083	-0.7995783076	 0.080965
H	 3.5058446397	-2.1677973659	 0.6210838299	 0.082877
H	 2.767903606	 0.3600006336	 1.8635178023	 0.076606
H	-0.0779630701	 0.0764227445	 3.0757788669	 0.1146
H	-0.9612934097	-1.3013062371	 2.4011461244	 0.111279
H	 0.6228119891	-1.5444009322	 3.1566864474	 0.11709
H	 0.6226944272	-2.7518595245	 0.1129804098	 0.061504
187.2617	196.871	213.1571	235.445	281.9644	294.0972	539.4194	575.8397	593.4847	701.3412	759.8848	780.2583	789.9059	814.8918	840.6176	848.6366	865.4607	882.0169	910.5902	937.9121	989.5398	996.2699	1021.197	1039.0447	1048.0413	1066.1934	1079.4419	1118.4078	1144.5682	1167.8482	1176.4964	1191.2326	1211.5341	1234.8978	1244.2026	1278.9042	1321.8873	1352.0755	1392.1562	1406.0534	1413.2125	1491.014	1491.6826	1496.4809	1499.7009	3015.6445	3017.8525	3025.5249	3077.9325	3086.2818	3088.1758	3097.5241	3113.7362	3139.704	3186.4472	3192.3678	3207.5248
CC1C2C3C4C3C1(C)C24	C[C@H]1[C@H]2[C@@H]3[C@H]4[C@@H]3[C@]1(C)[C@@H]24	
InChI=1S/C9H12/c1-3-4-5-6-7(4)9(3,2)8(5)6/h3-8H,1-2H3	InChI=1S/C9H12/c1-3-4-5-6-7(4)9(3,2)8(5)6/h3-8H,1-2H3/t3-,4-,5+,6+,7-,8+,9-/m0/s1
