19
gdb 72290	3.11064	1.57253	1.31354	1.9131	73.82	-0.2408	0.0763	0.3171	1009.5114	0.161582	-422.993216	-422.985911	-422.984966	-423.024494	30.101	
O	-0.1726858845	 1.4566802974	-0.0531418445	-0.459064
C	-0.006826591	 0.0817470097	-0.0739714681	 0.371654
C	 0.6592269289	-0.672838364	-1.2223761998	-0.34932
C	-0.3608941494	-1.8447680082	-0.9762774746	 0.107906
O	 0.142470214	-3.0538907974	-0.4431212915	-0.262405
C	 1.1037129956	-2.8683470119	 0.585211361	-0.076334
C	 0.6400541125	-1.9117525421	 1.698145485	-0.245302
C	-0.1909890789	-0.7459121951	 1.1844389276	-0.100122
C	-1.1243383145	-0.94977988	 0.0170594963	-0.143579
H	 0.5926744091	 1.8487088133	 0.3812859128	 0.28489
H	 0.4378857833	-0.1819531158	-2.1736286514	 0.110482
H	 1.7313096297	-0.8825824029	-1.1766862472	 0.093541
H	-0.924186104	-2.1263161893	-1.8661925164	 0.088594
H	 1.2935900459	-3.8638062471	 0.9958474638	 0.106062
H	 2.0501070456	-2.5123303943	 0.1539376929	 0.092746
H	 0.0134381075	-2.4654242635	 2.4086399088	 0.107716
H	 1.5181436732	-1.5650163424	 2.2571000479	 0.094588
H	-0.6325080873	-0.1342533551	 1.9681584714	 0.088847
H	-2.1974586657	-0.8193776013	 0.0752478859	 0.089099
161.3119	209.0588	279.8375	316.1688	336.7533	418.9246	438.9047	515.1684	533.4156	631.188	672.5893	726.1837	799.0717	831.2157	882.3672	918.1805	931.8468	945.4383	978.3659	999.2204	1015.1584	1048.0558	1085.8871	1114.7171	1133.1037	1171.0808	1207.4171	1213.5127	1223.0416	1260.0757	1285.3188	1306.398	1309.3263	1328.9448	1372.8465	1375.6657	1420.0552	1460.0308	1486.8337	1498.919	1524.7679	2999.6709	3019.1019	3054.5879	3059.3779	3086.0761	3102.3306	3112.8487	3136.413	3193.6018	3796.0457
OC12CC3OCCC1C23	O[C@@]12C[C@H]3OCC[C@@H]1[C@@H]23	
InChI=1S/C7H10O2/c8-7-3-5-6(7)4(7)1-2-9-5/h4-6,8H,1-3H2	InChI=1S/C7H10O2/c8-7-3-5-6(7)4(7)1-2-9-5/h4-6,8H,1-3H2/t4-,5-,6-,7+/m1/s1
