18
gdb 117519	2.19306	1.11722	0.87192	4.6101	75.2	-0.2536	-0.0022	0.2515	1397.6346	0.146196	-435.275402	-435.265203	-435.264259	-435.311449	35.789	
C	 0.2738004316	 1.2239782214	-0.4320373361	-0.390284
C	 0.0870802372	-0.1734278267	 0.1286527854	-0.052541
O	-1.1396349124	-0.6958404293	-0.3841638263	-0.258816
C	-1.4394130131	-2.0102299371	 0.0269421174	-0.034725
C	-1.6984168798	-2.0699608682	 1.4852884916	 0.28313
N	-1.8769548532	-2.0879949822	 2.6266672448	-0.328753
C	-2.6669113705	-2.4977529034	-0.7492203132	 0.317536
N	-3.6239957954	-1.5277827975	-0.9051013521	-0.526293
N	-2.6851163761	-3.7240539763	-1.0924189136	-0.503589
H	 1.2114663905	 1.6512482578	-0.0654776447	 0.128151
H	 0.3060608136	 1.202156279	-1.5248668144	 0.131078
H	-0.5468029651	 1.876804431	-0.1215610573	 0.131778
H	 0.9148564927	-0.8333505719	-0.1718137587	 0.104028
H	 0.0537778972	-0.1562620341	 1.2267270873	 0.12468
H	-0.6237443111	-2.7073685862	-0.2018535427	 0.14193
H	-3.3011363205	-0.573051423	-0.8556407893	 0.269657
H	-4.3658436087	-1.7057492125	-1.5636191225	 0.254245
H	-3.5545407868	-3.9682671706	-1.5707756755	 0.208788
54.4137	71.7268	93.185	132.6046	144.0969	229.1655	259.5075	322.4261	367.8645	404.8886	463.1062	469.1647	490.521	583.0941	641.2473	689.6511	823.8407	867.076	896.7608	906.8611	983.6339	1042.9703	1106.8827	1126.257	1139.7974	1155.335	1188.1369	1287.1636	1301.6784	1337.7073	1403.4394	1416.0404	1439.0196	1483.9526	1499.7326	1527.0728	1630.1268	1745.1539	2354.0649	2992.006	3035.3522	3043.6367	3048.0008	3124.1765	3125.1879	3454.3274	3576.8888	3693.7886
CCOC(C#N)C(N)=N	CCO[C@@H](C#N)C(=N)N	
InChI=1S/C5H9N3O/c1-2-9-4(3-6)5(7)8/h4H,2H2,1H3,(H3,7,8)	InChI=1S/C5H9N3O/c1-2-9-4(3-6)5(7)8/h4H,2H2,1H3,(H3,7,8)/t4-/m0/s1
