16
gdb 82263	3.19528	1.39539	1.07746	4.7509	76.95	-0.2424	-0.0522	0.1902	1086.5055	0.127045	-396.918189	-396.910537	-396.909593	-396.950337	29.438	
N	-0.0371273642	 1.470734669	 0.1156977381	-0.512326
C	 0.0088973736	 0.019908187	 0.0044215139	-0.084235
C	-1.3963535357	-0.5779886413	-0.063125165	-0.040472
N	-2.1614698136	-0.0898753619	-1.2268872404	-0.334765
C	-1.4999792203	-1.4310747439	-1.2731591662	-0.085309
C	-0.1789714448	-1.3622372769	-1.9570835848	-0.145619
C	 0.6507764041	-0.5542374795	-1.280106713	 0.16864
C	 1.9609110812	-0.1734160791	-1.6691796781	 0.211248
N	 3.0357988338	 0.1738978197	-1.9296166288	-0.341504
H	 0.8979827027	 1.8636008057	 0.0611260439	 0.24199
H	-0.5693439248	 1.8361092547	-0.6697500549	 0.244017
H	 0.5431554732	-0.370242206	 0.8795757277	 0.102061
H	-1.9215282462	-0.8051398567	 0.8568795513	 0.103503
H	-3.1542824641	-0.220715672	-1.0408261626	 0.239253
H	-2.1175573508	-2.3198461234	-1.3243167106	 0.105339
H	 0.0494340458	-1.8600717354	-2.8913313904	 0.128178
107.0893	136.7661	197.4769	270.2693	341.5555	385.6995	455.8397	484.4312	560.6875	618.5418	662.5779	694.8069	808.6328	835.4852	856.3257	879.9426	910.5269	923.3146	965.1583	979.3904	1070.7386	1115.9257	1129.3764	1146.3371	1173.9934	1215.5735	1249.3292	1284.1367	1315.9549	1360.7825	1404.2361	1414.7904	1647.9635	1664.2505	2329.982	3034.0459	3181.1911	3190.0647	3214.7219	3486.4078	3489.2376	3572.9076
NC1C2NC2C=C1C#N	N[C@H]1[C@H]2N[C@H]2C=C1C#N	
InChI=1S/C6H7N3/c7-2-3-1-4-6(9-4)5(3)8/h1,4-6,9H,8H2	InChI=1S/C6H7N3/c7-2-3-1-4-6(9-4)5(3)8/h1,4-6,9H,8H2/t4-,5+,6-/m0/s1
