18
gdb 80067	3.17895	1.80208	1.53079	1.1903	75.24	-0.2102	-0.0008	0.2093	922.3208	0.149187	-401.877118	-401.870372	-401.869428	-401.90779	28.225	
C	 0.0173129433	 1.4368276269	-0.1729472551	-0.327763
N	 0.0118683647	-0.0110119885	 0.0099964244	-0.090323
C	-1.2747906697	-0.5298024153	 0.6341455757	-0.121134
C	-1.3570451614	-1.9659447974	 0.2015932902	-0.037023
C	-0.3056945081	-2.6956395708	 0.5853244763	-0.059962
C	 0.5851398599	-1.9768947458	 1.5602041278	 0.008321
O	-0.2831601175	-1.6679717119	 2.7147673458	-0.292347
C	-0.5842106026	-0.4275560483	 2.1007080259	 0.109001
C	 0.6898381374	-0.413872804	 1.2517790154	-0.04068
H	 1.023794853	 1.7591530672	-0.4598584897	 0.121859
H	-0.663114097	 1.6959711752	-0.9902815967	 0.121215
H	-0.2824143198	 2.0192240161	 0.7174437767	 0.093611
H	-2.1580598322	 0.0767733077	 0.4313618389	 0.066924
H	-2.1752292344	-2.3337743511	-0.4067017127	 0.102418
H	-0.1396018556	-3.7332205887	 0.3211077521	 0.100734
H	 1.488155469	-2.5043765049	 1.8678018711	 0.078737
H	-0.9673510258	 0.3242724799	 2.7920627131	 0.088573
H	 1.6380584167	 0.067247444	 1.4982651209	 0.077839
179.7542	230.5878	297.014	359.5452	386.6491	440.7271	576.8215	625.5835	682.076	719.1688	732.3415	761.7258	799.7541	828.5466	870.2419	919.4489	946.5927	971.8132	983.0602	1003.453	1039.4503	1066.0067	1099.7555	1135.6797	1158.0654	1166.4331	1174.6562	1187.371	1225.0986	1237.8773	1291.5975	1318.4588	1320.2278	1347.956	1383.1427	1451.4268	1490.5646	1501.272	1665.7911	2937.3279	3058.6226	3093.0436	3099.2647	3102.6751	3109.5141	3116.1582	3184.7699	3208.3277
CN1C2C=CC3OC2C13	CN1[C@H]2C=C[C@@H]3O[C@H]2[C@H]13	
InChI=1S/C7H9NO/c1-8-4-2-3-5-6(8)7(4)9-5/h2-7H,1H3	InChI=1S/C7H9NO/c1-8-4-2-3-5-6(8)7(4)9-5/h2-7H,1H3/t4-,5-,6+,7+/m0/s1
