16
gdb 108298	2.74224	1.44064	1.0983	3.8375	64.54	-0.2422	-0.0046	0.2376	1087.916	0.124424	-475.002842	-474.994829	-474.993885	-475.035832	29.761	
O	 0.0086830744	 1.4990115594	 0.0324526177	-0.411609
C	 0.101638766	 0.0901560762	 0.1338934212	-0.157834
C	-1.2580484832	-0.5470609399	 0.0389969101	 0.42466
C	-2.3191579575	-0.4095540128	 1.1505752425	-0.21986
N	-2.7594117106	-1.8172684463	 0.9116152747	-0.318739
C	-1.640167011	-2.0447669896	-0.0417669279	-0.289487
C	-2.1062095412	-1.6889380421	-1.4626323127	 0.488863
O	-2.554359486	-2.2215806318	-2.421730499	-0.317091
O	-1.8351615217	-0.3385922336	-1.2996081611	-0.306721
H	-0.3918842168	 1.694534195	-0.8228492378	 0.299685
H	 0.7586963926	-0.3361640236	-0.6397798605	 0.102511
H	 0.5475199029	-0.1251892307	 1.1102671004	 0.117648
H	-1.8632439216	-0.2412590035	 2.1327222951	 0.114331
H	-3.0984790781	 0.3374169814	 0.9800958586	 0.130209
H	-2.704874497	-2.4069959012	 1.7322416765	 0.235881
H	-0.9871879312	-2.904469937	 0.1066251722	 0.107554
71.1676	128.4937	156.0956	232.9011	314.7945	373.7328	395.82	421.9407	458.6639	646.2252	670.4679	723.2331	794.9996	839.8117	872.5732	917.285	971.2264	982.596	1014.8755	1025.0772	1057.3397	1111.7986	1131.7682	1148.7322	1174.2895	1239.2579	1267.5326	1281.1805	1358.5154	1375.9512	1389.6757	1430.249	1490.3992	1498.4315	1948.3168	2990.8647	3039.2116	3081.5452	3103.0174	3123.3436	3563.7532	3798.7188
OCC12CNC1C(=O)O2	OC[C@]12CN[C@H]1C(=O)O2	
InChI=1S/C5H7NO3/c7-2-5-1-6-3(5)4(8)9-5/h3,6-7H,1-2H2	InChI=1S/C5H7NO3/c7-2-5-1-6-3(5)4(8)9-5/h3,6-7H,1-2H2/t3-,5+/m0/s1
