21
gdb 114048	2.96361	1.22999	1.04436	2.4957	79.43	-0.2322	0.0741	0.3063	1249.3585	0.181367	-424.189958	-424.180591	-424.179647	-424.223653	35.597	
C	 0.0937652229	 1.2345944157	-0.1778128274	-0.241936
O	 0.0041174753	-0.0633944577	 0.3739731495	-0.255381
C	-1.2613255126	-0.6768168035	 0.1730339005	 0.125665
C	-1.5961352339	-1.2474865172	-1.2465811579	-0.328454
C	-1.7462853051	-2.6412805011	-0.6210226456	 0.298837
C	-2.8098278434	-3.633317455	-0.9903521877	-0.498521
C	-0.443835545	-3.0041471916	 0.0322862816	 0.090857
O	 0.808898486	-2.6437851868	-0.4702549532	-0.443973
C	-1.3483842698	-2.0667660037	 0.7769646839	-0.213729
H	 1.0888680773	 1.6204308402	 0.0544612531	 0.131828
H	-0.0407742704	 1.2278704383	-1.2688297903	 0.116174
H	-0.6602939597	 1.9047715571	 0.2615952098	 0.110661
H	-2.0521210557	-0.0049281014	 0.5327346663	 0.076804
H	-2.5255426892	-0.8444945901	-1.6552745222	 0.098797
H	-0.7999294987	-1.1615720469	-1.9917087784	 0.107376
H	-2.6554186437	-4.0107979412	-2.0086244941	 0.125227
H	-2.8009547802	-4.4948542863	-0.3144889459	 0.11922
H	-3.8112516911	-3.1884066267	-0.9515269125	 0.114015
H	-0.4329801937	-4.0127972011	 0.4423542949	 0.091721
H	 0.9766719281	-1.7350018841	-0.1859351704	 0.293338
H	-1.7327464876	-2.2862914967	 1.766838126	 0.081474
105.236	141.6056	160.4528	200.9095	212.2145	244.0207	278.4673	324.1629	390.6798	452.041	470.0848	515.1241	572.0829	660.915	765.1666	797.4434	845.9001	909.1449	954.9883	973.7819	978.8417	1014.0607	1025.6105	1076.3425	1096.9451	1132.0885	1150.8243	1176.8176	1186.5655	1219.2966	1240.0589	1256.4939	1265.2081	1317.8018	1329.2309	1380.9556	1410.9682	1421.0514	1461.1859	1480.1536	1484.4933	1487.78	1491.5755	1498.7274	1509.4732	2985.0823	3010.1068	3017.9905	3037.5113	3056.4794	3075.2368	3093.4591	3112.9755	3120.807	3124.272	3170.5962	3739.4562
COC1CC2(C)C(O)C12	CO[C@H]1C[C@@]2(C)[C@@H](O)[C@@H]12	
InChI=1S/C7H12O2/c1-7-3-4(9-2)5(7)6(7)8/h4-6,8H,3H2,1-2H3	InChI=1S/C7H12O2/c1-7-3-4(9-2)5(7)6(7)8/h4-6,8H,3H2,1-2H3/t4-,5+,6-,7+/m0/s1
