21
gdb 67618	2.69947	1.71517	1.39198	0.1514	85.92	-0.208	0.1	0.308	1048.6611	0.183293	-349.927879	-349.919996	-349.919052	-349.959583	32.341	
C	-0.0857557019	 1.5145996901	 0.0563301549	-0.515585
C	 0.0311427506	 0.0218040315	 0.0229328672	 0.364574
C	 0.1092767319	-0.840225577	-1.2256844127	-0.123565
C	 1.1588435166	-1.9261070608	-1.0811473381	-0.238233
C	 1.0350818853	-2.1598953462	 0.412722541	-0.123565
C	 0.6682652259	-0.8677756597	 1.1255600222	-0.203519
C	-0.3886432197	-1.9312608696	 0.8912383046	 0.364574
C	-1.1415256322	-2.7924139224	 1.8580904821	-0.515585
C	-1.0151498767	-1.0493906355	-0.2235971146	-0.203519
H	 0.8975984774	 1.9957987108	-0.0177770098	 0.116285
H	-0.6961660979	 1.8790206825	-0.7767861681	 0.116053
H	-0.5535426444	 1.860935428	 0.9855358104	 0.116484
H	-0.1199228479	-0.3895183782	-2.1850658348	 0.077095
H	 0.9184101574	-2.8214951175	-1.6664806764	 0.094705
H	 2.1592668338	-1.5826354619	-1.3698042774	 0.094705
H	 1.64800249	-2.8892643762	 0.9308259942	 0.077095
H	 1.1137486549	-0.5269010577	 2.0516064954	 0.076589
H	-1.9284694028	-2.2275764155	 2.3717773397	 0.116484
H	-1.6201810459	-3.6401291144	 1.351831902	 0.116285
H	-0.4728524314	-3.1991210974	 2.6242182984	 0.116053
H	-2.069090423	-0.9483984029	-0.4499216802	 0.076589
172.1437	204.7011	209.2525	234.0857	278.9767	298.6893	411.071	535.7981	567.0138	591.8261	713.2087	737.2665	797.5927	807.1	835.7562	852.0486	897.7663	901.092	924.5932	958.8201	966.5421	986.1457	1005.7054	1038.7423	1058.3951	1066.1726	1100.3795	1109.7668	1123.5524	1170.8482	1195.2596	1221.3247	1259.1132	1272.2652	1283.5214	1309.8603	1409.0383	1411.763	1434.6343	1452.8486	1484.1974	1484.3649	1492.8637	1500.6122	1501.1035	3014.707	3015.6589	3029.8733	3069.3741	3070.7512	3071.1579	3090.6706	3090.698	3174.6728	3177.2443	3191.5828	3192.2759
CC12C3CC4C1C4(C)C23	C[C@@]12[C@H]3C[C@H]4[C@@H]1[C@@]4(C)[C@@H]23	
InChI=1S/C9H12/c1-8-4-3-5-7(8)9(5,2)6(4)8/h4-7H,3H2,1-2H3	InChI=1S/C9H12/c1-8-4-3-5-7(8)9(5,2)6(4)8/h4-7H,3H2,1-2H3/t4-,5-,6+,7-,8-,9+/m0/s1
