21
gdb 101949	2.32032	1.27477	0.91389	3.5109	79.1	-0.2394	0.0707	0.3101	1328.8861	0.182698	-420.331441	-420.321898	-420.320953	-420.366441	34.57	
C	-0.2584921228	 0.1170926436	-0.8917102338	-0.239353
O	-0.1806265681	-0.8310318135	 0.1513268639	-0.249728
C	 0.7369292069	-0.5283558235	 1.188021226	 0.046926
C	 0.4372139545	-1.4761260725	 2.3405601254	 0.010713
C	-0.9540897762	-1.86203561	 2.6675436863	-0.249341
N	-0.026284592	-2.8437587739	 2.0708854114	-0.321794
C	 2.1823770922	-0.6598009273	 0.7353469063	 0.01368
C	 2.9376584162	 0.5189964642	 0.2406296973	-0.251695
N	 3.2510909402	-0.0653934416	 1.554340847	-0.317545
H	 0.6657870411	 0.1643576882	-1.4809858538	 0.121753
H	-1.077872051	-0.1959567975	-1.5431088774	 0.13119
H	-0.4781785388	 1.1236634709	-0.504389158	 0.106393
H	 0.5811551989	 0.5120327554	 1.5332547011	 0.062802
H	 1.1657001877	-1.4095800318	 3.146149892	 0.096683
H	-1.2328705239	-2.0600493343	 3.6986822817	 0.112943
H	-1.7434495538	-1.4625942994	 2.0387839181	 0.11736
H	-0.2398845759	-2.9118457287	 1.077633366	 0.2403
H	 2.431890482	-1.6434677814	 0.3426455869	 0.105655
H	 3.7109666854	 0.3951216686	-0.512056008	 0.123448
H	 2.4232008356	 1.4767662579	 0.2077379478	 0.109887
H	 2.8437943319	 0.5090383366	 2.2905907241	 0.229722
78.2384	86.0273	93.1938	162.603	193.7518	199.8027	282.5963	316.7845	358.2786	437.196	495.008	619.0993	790.9218	825.3732	853.7006	883.4316	922.0668	954.8106	961.6012	977.507	1014.7907	1026.555	1082.4664	1118.6588	1129.9312	1142.7469	1154.0471	1161.3513	1180.8744	1189.0558	1207.4837	1232.5815	1252.3566	1279.7595	1289.3898	1308.0742	1324.1882	1356.9866	1410.4685	1430.8447	1478.6591	1487.0065	1500.3814	1509.8135	1512.0444	2916.16	2987.8994	3052.7263	3104.1602	3115.3184	3118.0111	3128.7094	3132.5841	3190.1161	3206.4462	3475.4138	3494.9065
COC(C1CN1)C1CN1	CO[C@@H]([C@H]1CN1)[C@H]1CN1	
InChI=1S/C6H12N2O/c1-9-6(4-2-7-4)5-3-8-5/h4-8H,2-3H2,1H3	InChI=1S/C6H12N2O/c1-9-6(4-2-7-4)5-3-8-5/h4-8H,2-3H2,1H3/t4-,5-/m1/s1
