19
gdb 114883	3.34469	1.30355	1.01859	1.4595	77.72	-0.2228	0.0198	0.2427	1197.4264	0.160859	-419.175625	-419.167402	-419.166458	-419.20875	30.466	
C	-0.4608455844	 1.141291871	-0.1870155155	-0.2504
O	 0.2520242223	-0.0632503567	 0.0477805631	-0.2345
C	 0.867429107	-0.5580444168	-1.0967816018	 0.009025
C	 1.4492055484	-2.001238884	-0.9348092399	-0.216338
N	 0.7839311551	-2.3623458616	-2.2197856511	-0.090921
C	-0.1492402047	-3.451080951	-2.5334226072	-0.197612
C	-1.3085277719	-2.623818437	-3.190473305	-0.167534
N	-1.2011940434	-1.2468586342	-2.6204544867	-0.349615
C	-0.0231671675	-1.2272245438	-2.1493546325	 0.33889
H	 0.2082634727	 1.9367160002	-0.5491836026	 0.105942
H	-1.2638888507	 0.9893513699	-0.9186216643	 0.148819
H	-0.8902990616	 1.4460808221	 0.7694887708	 0.129369
H	 1.5864631376	 0.1577707852	-1.5215251035	 0.093014
H	 2.53414373	-2.1211347194	-0.93836235	 0.115982
H	 1.0063048378	-2.4883462521	-0.0583379755	 0.122354
H	 0.2825674796	-4.1962252812	-3.2055122005	 0.113051
H	-0.4872614954	-3.955638914	-1.6156655075	 0.102201
H	-1.1869323019	-2.5822335007	-4.2802410446	 0.114238
H	-2.2966189091	-3.041057886	-2.9818602158	 0.114036
81.4451	128.1595	153.9021	217.6037	237.7062	276.3944	351.228	428.7445	549.0643	634.7534	677.158	769.0527	817.8593	861.3058	885.2714	919.6311	976.0875	1007.0587	1041.9147	1069.2323	1093.7727	1125.296	1150.635	1173.3261	1186.7514	1193.6581	1216.2494	1239.4474	1244.0074	1255.3114	1291.4367	1319.2777	1357.3161	1386.5271	1482.956	1489.0544	1493.6145	1499.4228	1511.598	1517.13	1748.8012	2987.7525	2992.6149	2999.2972	3029.931	3039.9178	3062.8279	3092.5148	3100.9384	3115.8975	3128.008
COC1CN2CCN=C12	CO[C@H]1CN2CC[N][C]12	
InChI=1S/C6H10N2O/c1-9-5-4-8-3-2-7-6(5)8/h5H,2-4H2,1H3	InChI=1S/C6H10N2O/c1-9-5-4-8-3-2-7-6(5)8/h5H,2-4H2,1H3/t5-/m0/s1
