23
gdb 120960	3.40545	0.90148	0.88406	1.812	84.93	-0.2544	0.0895	0.3439	1482.7849	0.206678	-388.295971	-388.286918	-388.285974	-388.330142	34.622	
C	-0.3213858079	 1.5655125028	 0.3948011514	-0.37899
C	-0.1037176522	 0.0800006529	 0.0922822017	-0.171758
C	-1.4118293944	-0.7194615454	 0.0691827531	-0.168008
C	-1.2354045163	-2.2127341558	-0.2604455872	 0.00455
C	-0.5570368168	-3.0214314063	 0.8888935451	-0.255151
C	-1.6935935385	-3.7115259629	 1.6137052356	 0.057127
O	-2.7757487548	-2.8315910047	 1.9582251878	-0.256455
C	-2.9047061638	-3.6559259317	 0.7891173465	 0.058052
C	-2.5972402024	-2.9324865942	-0.5043938151	-0.268508
H	 0.6247507135	 2.1159883955	 0.4019860256	 0.108365
H	-0.971921511	 2.0311146824	-0.3540168292	 0.112011
H	-0.7951952628	 1.7036858823	 1.3729042079	 0.11632
H	 0.4019008225	-0.026779881	-0.8773092949	 0.089163
H	 0.583081625	-0.3413315218	 0.8372931575	 0.09521
H	-1.9299245869	-0.625212925	 1.0300490366	 0.116523
H	-2.0755467587	-0.2740639523	-0.6847889423	 0.084013
H	-0.6222140344	-2.2814920405	-1.1659139591	 0.068033
H	 0.1231523577	-3.7853586663	 0.492894271	 0.098323
H	 0.0308169178	-2.3844997342	 1.5570087328	 0.10911
H	-1.4992465159	-4.5074538152	 2.3289920761	 0.089066
H	-3.6895179262	-4.4072600393	 0.8370594023	 0.089408
H	-3.3882530624	-2.2307941728	-0.7888734944	 0.10612
H	-2.5169572812	-3.6743147064	-1.3086455788	 0.097477
78.2976	81.6504	133.4646	183.4422	244.3403	291.2349	316.5294	386.8752	410.0427	443.6412	663.9191	733.0475	758.9987	802.2618	825.8342	860.219	863.9744	901.554	913.629	935.6634	960.3343	979.9522	1031.1442	1035.5278	1050.6819	1087.0336	1102.3972	1136.5131	1146.3313	1198.6336	1229.8053	1235.5676	1263.1142	1280.1047	1308.6381	1316.249	1324.8083	1334.6688	1360.1007	1375.4107	1397.0442	1413.464	1445.535	1475.0885	1487.424	1489.637	1497.8352	1499.5151	1512.3233	3009.4376	3013.8106	3024.893	3029.156	3033.2221	3042.308	3046.2406	3077.0086	3078.2485	3083.9897	3096.7173	3100.0549	3134.5883	3147.8133
CCCC1CC2OC2C1	CCC[C@H]1C[C@H]2O[C@H]2C1	
InChI=1S/C8H14O/c1-2-3-6-4-7-8(5-6)9-7/h6-8H,2-5H2,1H3	InChI=1S/C8H14O/c1-2-3-6-4-7-8(5-6)9-7/h6-8H,2-5H2,1H3/t6-,7+,8-
