18
gdb 127799	2.87997	1.26255	0.98669	5.9235	74.37	-0.2427	0.0074	0.2501	1210.0845	0.148559	-435.263259	-435.254359	-435.253415	-435.297447	31.883	
C	 0.0175477254	 1.4759685566	 0.5277521555	-0.345363
N	 0.0419963497	 0.0450199644	 0.2944215811	 0.000433
N	 0.0475504349	-0.4156443058	-0.9765655564	-0.151673
N	 0.0606857588	-1.7163446105	-0.9263226465	-0.193402
C	 0.0607232385	-2.1012191228	 0.375674014	-0.148112
C	 0.0495114475	-0.9836857645	 1.1837331095	 0.322795
C	 0.0542694793	-0.8548316058	 2.6737104815	-0.340666
C	 1.4389599608	-0.579415238	 3.2924811355	-0.061063
O	 1.9417414734	 0.7187036865	 3.009053798	-0.403926
H	 0.886918292	 1.7704835008	 1.1164870634	 0.161782
H	 0.0362062427	 1.956764453	-0.4499200505	 0.165857
H	-0.8983926404	 1.7658339502	 1.0532366518	 0.133062
H	 0.0627548345	-3.1414548166	 0.6619556681	 0.115962
H	-0.6448503873	-0.0742458008	 3.0025827812	 0.105646
H	-0.3190973148	-1.7963864892	 3.0921375932	 0.125493
H	 1.3871884385	-0.7512855392	 4.3770826871	 0.097034
H	 2.1684483163	-1.2827226611	 2.8796499833	 0.129383
H	 1.4820420602	 1.344784383	 3.5772371401	 0.286759
56.5021	107.8255	144.9776	174.3869	223.8696	240.8258	320.1822	335.2711	420.2064	482.8131	630.2927	704.6235	715.5055	729.5295	844.1226	864.5576	953.3082	983.38	1017.6361	1033.1929	1081.945	1138.6966	1159.5329	1165.3307	1210.219	1266.6964	1275.8639	1309.3122	1340.8291	1366.9836	1398.6545	1410.3748	1436.0944	1467.906	1483.8869	1493.2975	1502.104	1516.4774	1586.6129	3002.1472	3020.4275	3047.7816	3071.9879	3092.0963	3130.3637	3172.1304	3258.9553	3820.2109
CN1N=NC=C1CCO	Cn1nncc1CCO	
InChI=1S/C5H9N3O/c1-8-5(2-3-9)4-6-7-8/h4,9H,2-3H2,1H3	InChI=1S/C5H9N3O/c1-8-5(2-3-9)4-6-7-8/h4,9H,2-3H2,1H3
