21
gdb 65919	3.29567	1.14922	1.12938	0.0967	77.82	-0.2347	0.0681	0.3028	1212.3382	0.182057	-424.191458	-424.182394	-424.18145	-424.226171	33.339	
C	-0.184951359	 1.6625445815	-0.2564109104	-0.459311
C	 0.0295759598	 0.1663486213	-0.1097745174	 0.416562
C	 1.0686372299	-0.4660618516	-1.0745882095	-0.335655
C	 1.8451114493	-0.8145669946	 0.2088451862	-0.066478
O	 0.8642313268	-0.1588277477	 1.0414765588	-0.326495
C	-1.2649972629	-0.6379365216	 0.0048414213	 0.126443
C	-2.2981567872	-0.255882679	 1.0878786211	-0.303074
C	-3.2525883423	-0.0436978113	-0.1039157632	-0.06078
O	-2.2074648589	-0.3465901442	-1.0557363471	-0.300375
H	 0.7747866584	 2.1732779574	-0.3718958449	 0.115239
H	-0.8042930273	 1.8642666791	-1.1349755462	 0.135767
H	-0.6804755409	 2.0806900122	 0.6250504935	 0.121027
H	 0.7075388504	-1.3103226369	-1.6641693327	 0.116182
H	 1.5631717859	 0.2468225213	-1.7360424576	 0.108942
H	 1.9260878865	-1.8841709688	 0.4386349369	 0.101794
H	 2.8366149377	-0.3580843528	 0.3122622144	 0.102925
H	-1.0056852956	-1.7056824808	 0.0145331089	 0.068329
H	-2.5657732988	-1.0579890859	 1.7759606642	 0.113331
H	-2.0607387981	 0.6392358988	 1.6630432688	 0.118643
H	-4.0824404298	-0.7575691817	-0.1744731204	 0.102717
H	-3.6452010437	 0.9707676556	-0.2402735245	 0.104267
51.9308	69.516	85.67	202.9121	226.7793	267.7656	333.984	345.307	438.3858	475.6178	679.372	768.9	787.7142	813.7037	856.6641	882.4533	906.3369	950.4248	970.3421	992.0978	1003.2525	1021.5619	1030.0544	1055.9198	1091.1605	1130.9362	1162.4745	1164.182	1201.6842	1209.5563	1218.4701	1255.6598	1263.1664	1276.6334	1306.0976	1349.7399	1358.5107	1384.7762	1410.4759	1481.2661	1490.9763	1492.6056	1503.1827	1529.5457	1531.4276	3001.2221	3016.2968	3018.8065	3043.9561	3054.8781	3058.4548	3079.9833	3091.9474	3113.9685	3125.9023	3134.3568	3144.9008
CC1(CCO1)C1CCO1	C[C@]1(CCO1)[C@H]1CCO1	
InChI=1S/C7H12O2/c1-7(3-5-9-7)6-2-4-8-6/h6H,2-5H2,1H3	InChI=1S/C7H12O2/c1-7(3-5-9-7)6-2-4-8-6/h6H,2-5H2,1H3/t6-,7+/m1/s1
