25
gdb 117834	1.8639	1.05812	0.79664	0.223	85.3	-0.2565	0.0659	0.3223	1590.3339	0.225801	-426.628205	-426.616272	-426.615328	-426.665357	43.388	
C	 1.3244393503	-0.5819834369	-1.1567923616	-0.413422
C	 0.3794359192	-0.202894804	-0.0104163086	-0.189615
C	 0.8561547509	-0.5847680475	 1.4117534312	 0.329482
O	 2.0906564989	 0.0834178969	 1.7151943091	-0.468489
C	-0.1431184857	-0.0790213483	 2.4743770096	-0.176574
C	-0.387044482	 1.4343158978	 2.4831771949	-0.398042
C	 1.0466223625	-2.1133872562	 1.5236149695	-0.206767
C	 1.5322137884	-2.6147068862	 2.8804377271	-0.089313
O	 1.9401296529	-3.9673040652	 2.7036755275	-0.427118
H	 1.4521004552	-1.6634692716	-1.2577954162	 0.125921
H	 0.9329472313	-0.2093968095	-2.1081347868	 0.118581
H	 2.3166708522	-0.1331825904	-1.0285840052	 0.107204
H	 0.2291714572	 0.8803011113	-0.0331023576	 0.10451
H	-0.6026619403	-0.661303142	-0.1823665835	 0.092584
H	 2.7580936841	-0.2292029332	 1.0960791822	 0.27793
H	-1.090894222	-0.6144017471	 2.3396696437	 0.090378
H	 0.2428034317	-0.3685309801	 3.4569989324	 0.103405
H	 0.5625329727	 1.9739566177	 2.5207697802	 0.135719
H	-0.9379519439	 1.7740476823	 1.6012863793	 0.113565
H	-0.9757987685	 1.7172553866	 3.3613372762	 0.105841
H	 0.1131106385	-2.6231953587	 1.2572818432	 0.098821
H	 1.7930198699	-2.4363248905	 0.7879650703	 0.098799
H	 2.3651327066	-1.9834865688	 3.2219904311	 0.097652
H	 0.7322381046	-2.5464808815	 3.6321698495	 0.085699
H	 2.2371334252	-4.3012689951	 3.5550679023	 0.283249
66.8479	79.3205	102.7802	117.6601	163.8658	209.3131	221.1394	240.5056	271.4774	296.0801	303.4227	343.8898	359.8395	366.7376	415.7673	532.3434	578.5942	736.1403	777.9731	783.6729	797.9516	925.9705	940.5317	984.3449	1021.993	1030.5375	1033.104	1066.2766	1073.9649	1088.8461	1125.0707	1188.8737	1200.9395	1230.9521	1250.3238	1297.1898	1307.4992	1329.4643	1339.0201	1352.6611	1378.1103	1400.3548	1408.072	1419.7306	1456.6883	1475.8781	1478.1013	1486.6128	1502.4254	1504.0474	1509.0308	1511.3122	1534.2329	2984.6695	3018.4577	3028.3049	3030.8457	3033.2701	3036.9443	3043.6432	3073.77	3074.6949	3083.6029	3095.7101	3105.6583	3115.3687	3127.4679	3816.3558	3829.0177
CCC(O)(CC)CCO	CCC(O)(CC)CCO	
InChI=1S/C7H16O2/c1-3-7(9,4-2)5-6-8/h8-9H,3-6H2,1-2H3	InChI=1S/C7H16O2/c1-3-7(9,4-2)5-6-8/h8-9H,3-6H2,1-2H3
