17
gdb 26162	2.62857	1.49198	0.98577	2.1753	71.33	-0.1978	0.0186	0.2164	1163.3227	0.136469	-455.175529	-455.166857	-455.165912	-455.208931	32.609	
C	 0.7730873281	 1.3144526979	-0.6398466731	-0.391791
C	-0.1319662751	 0.4994822167	 0.2792450086	-0.000145
O	-0.8766348666	-0.4937400975	-0.4520107168	-0.429805
C	 0.6159709698	-0.1528407084	 1.4075051645	 0.166024
C	 0.2501266018	-1.2643865954	 2.1119245504	 0.282258
N	-0.864105337	-2.0758507009	 2.100811855	-0.599999
O	 1.2004357865	-1.510050099	 3.0536225592	-0.172364
C	 2.1171141113	-0.5086835608	 2.8766003251	 0.040076
N	 1.8231724791	 0.3133650614	 1.9316981357	-0.31085
H	 1.5420526687	 0.676065066	-1.0901038091	 0.110014
H	 0.1801532943	 1.7713791427	-1.4363062311	 0.11662
H	 1.2883693769	 2.0949727028	-0.0755461466	 0.143536
H	-0.9163436582	 1.1579873407	 0.6754710167	 0.10445
H	-0.2277512152	-1.038892182	-0.9132443326	 0.2772
H	-1.3751748495	-1.957046305	 1.233608921	 0.265962
H	-0.6695883553	-3.0469608614	 2.3077965491	 0.254164
H	 2.9746677604	-0.5230624478	 3.5287950038	 0.144651
54.2423	173.4416	185.7001	236.928	288.2615	307.6144	318.2238	358.866	430.8994	469.2975	517.0375	645.0855	653.2064	723.9436	734.6794	764.1848	792.1377	890.7985	949.9181	1021.1206	1030.3357	1083.1916	1097.3838	1103.2425	1200.0244	1277.5877	1282.8768	1308.0112	1364.3233	1402.7125	1414.4207	1449.2482	1485.5132	1492.7221	1566.7054	1614.2255	1685.5782	3017.699	3037.9575	3110.2096	3137.8055	3284.8865	3526.2365	3630.5466	3783.8205
CC(O)C1=C(N)OC=N1	C[C@@H](O)c1c(N)ocn1	
InChI=1S/C5H8N2O2/c1-3(8)4-5(6)9-2-7-4/h2-3,8H,6H2,1H3	InChI=1S/C5H8N2O2/c1-3(8)4-5(6)9-2-7-4/h2-3,8H,6H2,1H3/t3-/m1/s1
