18
gdb 13264	6.21036	0.86188	0.79444	1.9817	76.23	-0.2431	0.0533	0.2963	1444.7582	0.152545	-347.758846	-347.749695	-347.748751	-347.795425	30.597	
C	 0.0213792888	 1.4421967351	-0.1777077048	-0.496624
C	 0.0367368893	-0.0115517744	-0.0952301751	 0.085594
C	 0.0629884736	-1.2136421539	-0.0271794559	 0.043702
C	 0.0517586034	-2.6707517412	 0.0549913728	-0.372996
C	-1.3645996694	-3.2449705239	 0.1816728129	-0.013524
C	-2.2469153449	-3.1684996977	-1.083375539	-0.070976
O	-2.2574212963	-4.6061416274	-1.2185066775	-0.272101
C	-1.4947131041	-4.7726755681	-0.0073746343	-0.090738
H	 0.6358843933	 1.8926445973	 0.6096841597	 0.147599
H	 0.4098213788	 1.791416489	-1.1408374377	 0.147853
H	-0.9950407453	 1.8366878072	-0.0691166085	 0.147155
H	 0.531450343	-3.0977598209	-0.8366443586	 0.129882
H	 0.6539548425	-3.0024373941	 0.9117838568	 0.126053
H	-1.8417588467	-2.8572462904	 1.0838521818	 0.088176
H	-3.2559178069	-2.7642142859	-0.9358430046	 0.100091
H	-1.7892662247	-2.6734029872	-1.949026583	 0.105549
H	-0.5536328031	-5.31175968	-0.182367762	 0.097454
H	-2.0643752312	-5.3000345135	 0.7684478071	 0.097853
17.2318	46.3753	58.6138	95.7573	212.6692	253.9141	329.7394	370.433	387.3978	491.3605	762.6276	778.8755	868.4729	887.0561	889.5476	973.7669	1036.8519	1048.7392	1053.1676	1057.4871	1096.5672	1136.2008	1158.3651	1163.2763	1167.1694	1239.3541	1267.535	1309.5218	1326.1804	1369.6423	1393.1911	1415.5218	1473.2489	1478.8404	1479.2406	1512.8888	1537.9883	2372.5206	2998.6685	3006.315	3015.481	3025.8866	3035.7807	3041.3166	3054.0208	3086.0803	3086.3364	3092.4239
CC#CCC1COC1	CC#CCC1COC1	
InChI=1S/C7H10O/c1-2-3-4-7-5-8-6-7/h7H,4-6H2,1H3	InChI=1S/C7H10O/c1-2-3-4-7-5-8-6-7/h7H,4-6H2,1H3
