20
gdb 106730	2.62637	1.49715	1.14911	1.685	78.81	-0.2392	0.0202	0.2594	1149.1585	0.17044	-403.161642	-403.152805	-403.151861	-403.194957	33.675	
C	 0.2332588498	 1.5736831909	 0.1270063568	-0.375784
C	-0.1345739495	 0.0989367481	-0.0817754153	-0.273267
C	 0.5830058364	-0.5284283688	-1.243547645	 0.386087
C	 1.9969234484	-1.045944735	-1.1987311056	-0.382799
C	 0.8625856868	-1.9986462224	-1.5438734722	 0.26228
C	 0.522368869	-3.1852528235	-0.6828711411	-0.471595
N	 0.6272502908	-2.147553753	-2.971049472	-0.300402
C	 0.2931926746	-0.995631353	-3.391946512	 0.079947
O	 0.2027208115	 0.0291624897	-2.5080803507	-0.250855
H	 1.3058713417	 1.6875980364	 0.3140577667	 0.119329
H	-0.0173087315	 2.1639279381	-0.758872499	 0.133906
H	-0.3071076565	 1.9939834173	 0.9803173077	 0.112091
H	 0.106210079	-0.4782529911	 0.8182206018	 0.105043
H	-1.2156994433	 0.001370791	-0.2381235252	 0.10921
H	 2.6942842092	-0.7641890233	-1.9808756184	 0.119364
H	 2.4299212876	-1.1494001046	-0.2086773211	 0.115254
H	 0.6676440249	-2.9587277831	 0.377429548	 0.113496
H	-0.517596615	-3.4923984178	-0.831144681	 0.125435
H	 1.163994719	-4.0342538481	-0.9391694363	 0.133556
H	 0.0592716969	-0.7342079077	-4.416946596	 0.139703
82.2745	137.4447	182.3499	193.5546	236.6856	272.7945	323.985	390.0447	425.6345	467.6059	597.3234	611.2164	714.0583	761.2852	788.486	818.038	903.5294	926.2216	939.6938	949.1735	978.9769	991.8811	1020.5884	1042.9402	1098.5104	1106.6315	1134.6558	1186.3754	1213.0155	1286.5698	1309.2112	1337.9203	1360.8134	1400.5954	1409.503	1422.5111	1470.5366	1476.0011	1480.8436	1496.4277	1499.4513	1508.9347	1668.6012	3031.7492	3037.9182	3040.4433	3070.0206	3105.4377	3109.9129	3112.6996	3119.4292	3123.0739	3215.0659	3225.6602
CCC12CC1(C)N=CO2	CC[C@@]12C[C@]1(C)N=CO2	
InChI=1S/C7H11NO/c1-3-7-4-6(7,2)8-5-9-7/h5H,3-4H2,1-2H3	InChI=1S/C7H11NO/c1-3-7-4-6(7,2)8-5-9-7/h5H,3-4H2,1-2H3/t6-,7+/m0/s1
