19
gdb 31155	1.99316	1.75375	0.9928	1.2987	79.62	-0.2039	0.0278	0.2317	1222.8163	0.157349	-423.052812	-423.04299	-423.042046	-423.087837	34.625	
C	 0.1493231417	 1.4113921381	 0.1390411159	-0.251257
O	-0.0717730166	 0.0138572906	-0.0105201232	-0.273857
C	 0.5716293159	-0.5557268182	-1.0744939484	 0.104127
C	-0.023158289	-0.9569644175	-2.2336073241	 0.275664
C	-1.4220989184	-0.8873565802	-2.7222351791	-0.495623
O	 0.9130016407	-1.5536330955	-3.0271739454	-0.186948
C	 2.0989446191	-1.5208342716	-2.3558969546	-0.117986
C	 1.9661967295	-0.9216791993	-1.144504337	 0.164934
C	 3.0107453598	-0.7148757804	-0.0937352145	-0.506118
H	 1.2090532347	 1.6406502375	 0.3085252138	 0.117165
H	-0.192133799	 1.9639454205	-0.7459720347	 0.114419
H	-0.4274912336	 1.7290583408	 1.0106201548	 0.128859
H	-1.5067299091	-0.2951746653	-3.6409284085	 0.132641
H	-1.825811102	-1.8838162113	-2.9357543584	 0.136336
H	-2.042752843	-0.4240690027	-1.95184468	 0.141302
H	 2.9372599726	-1.9685775811	-2.8648263716	 0.128505
H	 3.3022262541	 0.3384092298	-0.0023248207	 0.126526
H	 2.6457188412	-1.0324161036	 0.8887316169	 0.136513
H	 3.9151995014	-1.2863050506	-0.3199635112	 0.124798
58.034	126.1396	140.7511	142.9417	163.5055	193.4446	242.0816	253.5737	312.5186	431.4469	505.5972	562.1659	621.3329	680.4118	730.786	744.8744	756.2496	945.6853	1008.2916	1045.7691	1052.2815	1064.183	1066.4914	1167.9113	1176.6621	1194.6785	1222.5386	1273.194	1313.1988	1399.8613	1418.8819	1426.3845	1475.4959	1479.7732	1481.5673	1488.8347	1492.4095	1497.6931	1506.9828	1611.214	1684.0361	3004.6189	3026.3196	3027.2071	3063.9431	3075.4762	3079.2634	3111.4	3123.3725	3129.3912	3267.5756
COC1=C(C)OC=C1C	COc1c(C)occ1C	
InChI=1S/C7H10O2/c1-5-4-9-6(2)7(5)8-3/h4H,1-3H3	InChI=1S/C7H10O2/c1-5-4-9-6(2)7(5)8-3/h4H,1-3H3
