13
gdb 129615	3.37966	1.32156	0.98264	1.8146	65.05	-0.241	-0.0307	0.2102	1096.2994	0.089126	-448.922789	-448.914833	-448.913888	-448.955758	28.78	
N	-0.1933272709	 1.2585261503	-0.5098617362	-0.595598
C	-0.104530592	-0.0557917555	-0.183420637	 0.404947
C	-1.0583142472	-1.0498033453	-0.0504003839	 0.177635
C	-2.5466221161	-1.0365032894	-0.2451383243	-0.451346
C	-2.9462238827	-0.0493629949	-1.2496302292	 0.267475
N	-3.197810942	 0.775869431	-2.0191849371	-0.315044
N	-0.3877542783	-2.1686143053	 0.3471980573	-0.153119
N	 0.8396964069	-1.980198466	 0.4763703755	-0.037873
O	 1.0794636964	-0.5538020444	 0.1217543411	-0.225587
H	 0.6704771126	 1.7076789666	-0.7720935048	 0.278567
H	-1.0061284348	 1.5422395926	-1.039227675	 0.291187
H	-2.8767421142	-2.0303245817	-0.565217247	 0.185265
H	-3.0867529775	-0.8110315182	 0.6845680606	 0.173493
53.723	123.6616	230.1078	264.2959	311.8761	374.5116	386.3362	405.3079	491.3998	521.9708	573.2889	666.3364	718.8204	742.0533	779.1987	943.1614	949.0975	983.5693	1086.112	1195.8491	1267.0656	1286.0143	1340.9112	1461.8056	1476.6433	1491.6072	1617.7651	1674.3327	2357.2925	3019.3219	3082.0668	3564.3765	3682.0009
NC1=C(CC#N)N=NO1	Nc1c(CC#N)nno1	
InChI=1S/C4H4N4O/c5-2-1-3-4(6)9-8-7-3/h1,6H2	InChI=1S/C4H4N4O/c5-2-1-3-4(6)9-8-7-3/h1,6H2
