19
gdb 125843	2.98144	1.51765	1.10186	3.0882	82.53	-0.2312	0.0345	0.2657	1130.3361	0.160959	-382.067359	-382.059118	-382.058174	-382.100275	31.12	
C	-0.3700999783	 1.6623599216	-0.0437115333	-0.403933
C	 0.072920347	 0.2137347632	 0.0387064025	 0.037289
C	 0.8345218326	-0.4679638687	-1.1967256465	-0.184038
C	 1.0861294422	 0.3675763915	-2.4464129653	-0.398937
C	 1.9863958917	-0.6559018909	-0.2110919842	 0.386429
C	 3.1699604234	-1.1209034203	 0.3338553645	-0.40153
C	 3.0682173437	-0.6992825604	 1.6892063289	 0.013188
N	 1.9252528906	-0.0503127332	 1.9750631503	-0.315452
N	 1.3254378188	-0.0382569184	 0.7775193294	 0.08273
H	 0.4368580075	 2.3116341178	-0.3919336232	 0.13103
H	-1.219840908	 1.7604974064	-0.7268537018	 0.124679
H	-0.6874786911	 2.0144936578	 0.9423353897	 0.141424
H	-0.7426304281	-0.4165716293	 0.4095699736	 0.104557
H	 0.3547831766	-1.4128385106	-1.4724171182	 0.097172
H	 1.5902962509	 1.3086438467	-2.2116176233	 0.128023
H	 1.7236900468	-0.1842713788	-3.1441532492	 0.127974
H	 0.1480216627	 0.5964981269	-2.9626169991	 0.119304
H	 3.9795277441	-1.6615053828	-0.1268536636	 0.102495
H	 3.7990619169	-0.8418549984	 2.472805999	 0.107595
81.1746	119.7134	202.9177	211.5498	249.2555	261.1035	390.4349	467.0892	532.2381	649.5312	676.5691	705.9509	731.8019	767.7009	780.4373	873.9354	952.5173	979.4277	998.9342	1032.9836	1048.3706	1062.9803	1110.6855	1135.3536	1163.5041	1192.5922	1214.9231	1261.3652	1297.4876	1326.5988	1365.5465	1373.0663	1407.8515	1412.4074	1415.3933	1480.2082	1489.726	1495.689	1499.2814	1506.8881	1559.8779	3038.4643	3043.7679	3046.296	3058.3217	3104.6359	3113.3541	3118.627	3129.6165	3237.9603	3276.7437
CC1C(C)C2=CC=NN12	C[C@H]1[C@@H](C)c2ccnn12	
InChI=1S/C7H10N2/c1-5-6(2)9-7(5)3-4-8-9/h3-6H,1-2H3	InChI=1S/C7H10N2/c1-5-6(2)9-7(5)3-4-8-9/h3-6H,1-2H3/t5-,6+/m1/s1
