14
gdb 131161	3.17966	1.12805	0.88496	1.8986	65.73	-0.2356	-0.0415	0.1942	1226.5581	0.100853	-470.008899	-470.000691	-469.999747	-470.043578	28.625	
O	-0.2293933647	 1.3797779521	 0.1897817552	-0.430053
C	-0.0583804807	 0.0518509511	 0.0514308489	 0.296031
C	 0.0530145589	-0.6507472258	-1.129796932	 0.228
C	 0.0512787414	-0.238920716	-2.5642241366	-0.392283
C	 1.4361493518	-0.4169917883	-3.1797683146	 0.154295
O	 1.6823352185	-1.1863895133	-4.0702850103	-0.230733
N	 0.211438352	-1.9316586551	-0.6815982505	-0.223152
N	 0.1886572214	-2.012885846	 0.651136777	-0.116816
N	 0.0235540674	-0.7938440711	 1.103865989	-0.274392
H	-0.2915166225	 1.5592622945	 1.1365861016	 0.31205
H	-0.6672817687	-0.8093104517	-3.1615779053	 0.137182
H	-0.2203786484	 0.8218058705	-2.6090011229	 0.154201
H	 2.2270293655	 0.2088496844	-2.7110298224	 0.095348
H	 0.3299001481	-2.7732745252	-1.2248468171	 0.29032
27.8529	51.0071	151.6607	217.4105	296.4853	357.185	396.5841	460.9789	479.8125	572.8365	656.5667	713.5384	744.8783	763.2668	847.7744	990.0901	1022.4388	1051.7486	1126.2134	1152.9954	1177.7851	1251.9039	1274.7916	1331.0453	1353.0597	1399.7542	1418.6417	1457.3422	1530.8746	1680.1793	1833.555	2896.3805	3043.7264	3099.5543	3643.9132	3795.4728
OC1=C(CC=O)NN=N1	Oc1c(CC=O)[nH]nn1	
InChI=1S/C4H5N3O2/c8-2-1-3-4(9)6-7-5-3/h2H,1H2,(H2,5,6,7,9)	InChI=1S/C4H5N3O2/c8-2-1-3-4(9)6-7-5-3/h2H,1H2,(H2,5,6,7,9)
