19
gdb 127108	3.91964	1.10303	0.87778	3.5819	80.04	-0.2023	0.0431	0.2455	1344.4207	0.15977	-415.419426	-415.409736	-415.408792	-415.4541	34.15	
C	-0.2390239712	 1.3550228603	 0.0055779119	-0.348311
N	 0.137434002	-0.0435349994	-0.0061760054	-0.172183
C	 0.0038748637	-0.7801606176	 1.2421145477	-0.339109
C	-0.0041643534	-0.7512707353	-1.1706477773	 0.51405
N	 0.0834475635	-2.0664158821	-1.2995648732	-0.41135
C	-0.0715388934	-2.2603853621	-2.6466991213	 0.353433
C	-0.0366940753	-3.614624311	-3.2707603709	-0.480763
N	-0.2565361498	-1.1626812749	-3.3542075727	-0.281352
N	-0.2160581333	-0.1885290982	-2.3860917784	-0.300623
H	 0.2735973467	 1.8987163809	-0.7955627696	 0.128143
H	-1.3244332477	 1.5160504174	-0.099133459	 0.12089
H	 0.0804723511	 1.7988249953	 0.9512240727	 0.138195
H	-1.0451662727	-0.8812244754	 1.5596639408	 0.115816
H	 0.4195339376	-1.7777717118	 1.1063960113	 0.172198
H	 0.5574820305	-0.2581404477	 2.0282492072	 0.12042
H	-0.8162572325	-4.2561799946	-2.847485053	 0.133096
H	-0.1877991813	-3.535091476	-4.3485975372	 0.13561
H	 0.92375915	-4.1043863172	-3.0806626515	 0.133752
H	-0.3489524045	 0.7726878591	-2.6430724824	 0.268087
74.6649	116.3329	130.3654	160.4664	171.7625	210.6161	239.4049	328.4098	340.2075	376.275	422.1031	533.7672	591.7455	696.8511	733.1171	755.5751	960.5107	1005.5876	1021.498	1069.4495	1075.171	1088.5718	1129.986	1133.1577	1173.0774	1232.2469	1277.7444	1348.4511	1385.2191	1416.2294	1444.4824	1466.1791	1470.3963	1477.6286	1481.4453	1490.0828	1496.841	1503.7176	1514.7641	1577.2137	1643.0636	2972.4281	2991.2761	3044.0842	3060.8112	3080.4199	3098.7408	3117.9275	3143.1188	3162.4157	3695.3492
CN(C)C1=NC(C)=NN1	CN(C)c1nc(C)n[nH]1	
InChI=1S/C5H10N4/c1-4-6-5(8-7-4)9(2)3/h1-3H3,(H,6,7,8)	InChI=1S/C5H10N4/c1-4-6-5(8-7-4)9(2)3/h1-3H3,(H,6,7,8)
