20
gdb 66227	3.62224	0.80434	0.75765	3.2322	80.3	-0.2807	0.0111	0.2918	1562.541	0.169245	-403.139261	-403.129405	-403.128461	-403.175065	35.393	
C	 0.210370056	 1.5973131221	-0.5107926547	-0.462744
C	-0.0846724571	 0.147714834	-0.1768002467	 0.364295
C	-1.4068021539	-0.3619616931	-0.6906236019	-0.144938
O	-1.3835752689	-0.3302143169	-2.1199771952	-0.233647
C	-2.5826609283	-0.7333454683	-2.7188989626	-0.183156
C	-3.6920770075	 0.2215626725	-2.5069909396	 0.24951
N	-4.5536747483	 0.9712313499	-2.332248246	-0.304217
C	 1.0606764262	-0.8345336013	-0.1217306031	-0.288885
C	 0.3770132441	-0.4025637797	 1.1523594784	-0.313378
H	 1.1881547521	 1.8978382483	-0.1228100308	 0.112143
H	 0.2102639924	 1.7535101833	-1.5934889008	 0.133511
H	-0.5428948258	 2.2642488803	-0.0751031624	 0.118796
H	-1.5878422199	-1.3938571454	-0.3502068496	 0.087417
H	-2.2326660731	 0.2649325782	-0.3206986751	 0.115416
H	-2.3950534226	-0.8142118251	-3.7940198998	 0.16057
H	-2.9126707588	-1.7215944471	-2.3599772685	 0.136659
H	 0.8895560758	-1.8446524193	-0.4781355839	 0.111728
H	 2.0577706146	-0.4577198033	-0.3213422649	 0.114289
H	 0.9050088404	 0.2733832038	 1.8161229373	 0.115342
H	-0.2530044674	-1.1218097228	 1.66562507	 0.111289
38.4137	57.3852	117.5177	165.1596	219.6423	235.9517	294.6829	327.6694	360.1921	378.2915	396.9271	468.932	612.5306	745.8229	783.1939	874.1086	891.1316	911.2398	949.8235	959.8343	973.334	1008.4588	1050.1374	1059.4571	1079.1233	1089.4695	1130.1256	1142.3713	1187.5849	1252.5874	1292.7665	1331.1056	1365.4394	1388.2896	1413.3963	1437.9882	1468.5289	1469.7995	1487.1942	1500.1043	1510.8816	1516.4212	2356.4789	2971.828	2983.7902	3014.0682	3030.8966	3086.9423	3095.4324	3113.6675	3128.9912	3135.0886	3207.4603	3222.0963
CC1(COCC#N)CC1	CC1(COCC#N)CC1	
InChI=1S/C7H11NO/c1-7(2-3-7)6-9-5-4-8/h2-3,5-6H2,1H3	InChI=1S/C7H11NO/c1-7(2-3-7)6-9-5-4-8/h2-3,5-6H2,1H3
