19
gdb 22265	2.36503	1.42145	1.0351	4.2104	76.49	-0.1985	-0.0113	0.1873	1188.7371	0.158219	-456.257602	-456.248203	-456.247259	-456.292488	34.473	
C	-0.3777885994	 1.377029877	 0.1834092158	-0.508895
C	 0.0122569181	-0.029243711	-0.1348004256	 0.196325
N	 0.3927347601	-0.7992622377	 0.8546487381	 0.035615
O	 0.4349268671	-0.5043681669	 2.0885362842	-0.48682
C	 0.0416515443	-0.5880875614	-1.5462276008	 0.324761
O	-0.4796146804	 0.3161341812	-2.4838512058	-0.469174
C	 1.4296447567	-1.1478959274	-1.9797578263	-0.194161
N	 0.9833012871	-2.4794884413	-1.4973861717	-0.326926
H	 1.2861843155	-3.275601288	-2.0475068135	 0.230379
H	 0.7252838167	-1.7386912201	 0.5810242836	 0.270733
C	-0.4348107708	-2.0773028185	-1.656137155	-0.229443
H	-0.1636899591	 2.0402072049	-0.6570946765	 0.135738
H	-1.4457431875	 1.4666460594	 0.4282344709	 0.132151
H	 0.1699504948	 1.6947134734	 1.0745626542	 0.163422
H	-1.348671833	 0.6068434744	-2.1860528265	 0.286408
H	 1.5396272251	-1.0714623165	-3.0692389641	 0.110713
H	 2.3176392662	-0.7489327549	-1.4822462298	 0.115414
H	-1.1132950846	-2.4626805618	-0.8882036808	 0.107826
H	-0.8534131669	-2.2593563848	-2.6548233002	 0.105934
38.3393	69.589	164.7151	179.3685	252.7687	297.6491	329.9184	339.0627	393.147	410.1128	435.0587	525.0732	571.5918	663.9802	770.0161	840.1902	927.6898	959.4419	977.8072	997.5342	1004.4909	1021.7839	1027.6736	1062.6547	1109.1028	1114.3809	1200.0568	1206.6751	1242.1286	1284.4081	1326.807	1346.643	1356.4065	1374.7243	1405.7119	1468.6258	1490.3196	1499.2274	1525.3306	1526.8686	1669.0168	3009.2017	3009.9318	3020.4154	3077.3615	3084.9706	3093.8955	3140.4995	3271.2191	3531.4524	3805.1876
CC(=N[O-])C1(O)C[NH2+]C1	C[C](N[O])C1(O)CNC1	
InChI=1S/C5H10N2O2/c1-4(7-9)5(8)2-6-3-5/h6,8-9H,2-3H2,1H3	InChI=1S/C5H10N2O2/c1-4(7-9)5(8)2-6-3-5/h6-8H,2-3H2,1H3
