21
gdb 107798	2.45742	1.66161	1.30429	0.8312	81.55	-0.2311	0.0821	0.3132	1081.4449	0.181972	-387.031869	-387.023257	-387.022313	-387.064954	33.518	
C	 0.0637524379	 1.3527680979	 0.0745134585	-0.267162
O	 0.0338700025	-0.0566346708	-0.0446660196	-0.297681
C	-1.2318719681	-0.6093602691	-0.0132329798	 0.407536
C	-2.1465092177	-0.5049754972	 1.2469203702	-0.304381
C	-2.6900383119	-1.8624003421	 0.8024797313	-0.069539
C	-2.7230937235	-1.8841946489	-0.7375834345	-0.074644
C	-1.4460739171	-2.1714345036	 0.0065522951	-0.156466
C	-2.2115313553	-0.5337747279	-1.2433227466	-0.029994
C	-3.1811617446	 0.6219729429	-1.465998834	-0.430871
H	 1.1149772764	 1.6465543725	 0.1168198019	 0.127609
H	-0.4068791867	 1.8484769564	-0.7855763649	 0.114092
H	-0.4379017056	 1.6940549736	 0.9911266154	 0.113505
H	-1.5450008958	-0.6054270412	 2.1550109906	 0.102261
H	-2.8289526081	 0.3457919952	 1.3447824369	 0.085946
H	-3.2896582591	-2.5543944365	 1.3792231275	 0.085153
H	-3.348302404	-2.5926848153	-1.2665023247	 0.0811
H	-0.761778503	-3.0061380223	-0.0005944654	 0.093217
H	-1.6068982254	-0.7016291974	-2.1424174932	 0.074415
H	-3.791203905	 0.8251683694	-0.5812517102	 0.118456
H	-2.6587797791	 1.5456043484	-1.7375401018	 0.112883
H	-3.8690992169	 0.3849036458	-2.2859444425	 0.114564
68.844	157.29	184.0595	201.9016	244.3548	281.0894	355.2822	393.4937	486.5024	556.1907	632.9771	674.6256	745.6386	786.4129	793.1426	862.8292	901.3495	915.5628	975.611	978.2984	997.0536	1018.1267	1031.1777	1057.9561	1089.5389	1102.4357	1124.8513	1138.8656	1155.0195	1171.7094	1180.5929	1200.1682	1228.6779	1243.7325	1295.6228	1323.6337	1361.4954	1390.9885	1407.8599	1482.7113	1488.1823	1492.4754	1493.3027	1506.6305	1509.9576	2994.2388	3028.7855	3038.4159	3041.9398	3047.7302	3087.9455	3096.7506	3110.5328	3118.7534	3188.8438	3199.9318	3234.4803
COC12CC3C(C13)C2C	CO[C@]12C[C@H]3[C@H]([C@@H]13)[C@H]2C	
InChI=1S/C8H12O/c1-4-6-5-3-8(4,9-2)7(5)6/h4-7H,3H2,1-2H3	InChI=1S/C8H12O/c1-4-6-5-3-8(4,9-2)7(5)6/h4-7H,3H2,1-2H3/t4-,5+,6-,7+,8+/m1/s1
