16
gdb 125864	3.3079	1.71721	1.20156	3.2848	75.84	-0.2351	-0.0278	0.2072	998.5266	0.127682	-396.96219	-396.955283	-396.954339	-396.993525	26.703	
C	-0.0785923467	 1.5786582937	 0.0159725557	-0.389533
C	 0.0193332088	 0.0428398685	 0.021191752	-0.208256
C	 0.8644799768	-0.5386030483	-1.1125826476	-0.120177
C	 1.8684363919	-1.2800120266	-0.6251360917	-0.038942
N	 1.782538348	-1.2633740015	 0.779628458	 0.056546
N	 2.478372912	-1.7827793985	 1.8118316644	-0.276685
C	 1.7864340689	-1.2997538454	 2.8423436745	 0.016809
N	 0.7070602356	-0.5134125449	 2.5323884107	-0.371835
C	 0.7419285921	-0.5187317699	 1.2145295983	 0.405519
H	 0.9163214557	 2.0306864689	 0.0467110538	 0.13259
H	-0.5893900576	 1.9273140133	-0.8860897756	 0.121759
H	-0.6399361435	 1.9224362038	 0.8884658771	 0.144961
H	-0.9963362715	-0.3729374199	-0.0278904527	 0.127524
H	 0.6641491113	-0.3593806988	-2.1585592555	 0.120989
H	 2.6531678502	-1.8339606559	-1.1160697081	 0.15253
H	 2.0713054878	-1.5234762683	 3.8595689266	 0.126201
134.2545	152.6483	242.93	280.1265	366.3788	486.272	554.1416	672.2213	673.0319	703.4106	714.9848	785.4691	827.4854	892.5856	910.0051	919.7156	981.6925	1027.494	1078.1788	1082.541	1097.4535	1171.6394	1194.0645	1248.8672	1275.7881	1286.1754	1310.8315	1396.3971	1405.3201	1418.0829	1447.4675	1495.6466	1497.1209	1573.803	1639.7228	3024.0503	3046.3946	3121.8108	3129.0447	3245.2327	3260.9981	3274.3685
CC1C=CN2N=CN=C12	C[C@H]1C=Cn2ncnc12	
InChI=1S/C6H7N3/c1-5-2-3-9-6(5)7-4-8-9/h2-5H,1H3	InChI=1S/C6H7N3/c1-5-2-3-9-6(5)7-4-8-9/h2-5H,1H3/t5-/m0/s1
