17
gdb 69149	2.71803	1.67994	1.29393	3.4646	71.94	-0.2378	-0.0343	0.2034	1008.2131	0.135858	-421.821766	-421.814251	-421.813306	-421.853486	29.711	
C	-0.1443120046	 1.4939383417	 0.0347626141	-0.495506
C	 0.0825726631	 0.0104855644	-0.0200017101	 0.414407
O	-0.4298962191	-0.7657053196	 1.0708974994	-0.285176
C	 0.9975763844	-0.7400781605	 0.8626946981	-0.166741
C	 1.5316249538	-1.9291158321	 0.0765060624	 0.421596
O	 2.4760444251	-2.6032763474	 0.4051835605	-0.321337
C	 0.8246460725	-1.980468273	-1.253182462	-0.162305
C	-0.6936774113	-2.0661763506	-1.3215150538	-0.292034
C	-0.026916966	-0.725620082	-1.359991389	-0.110958
H	 0.5533944294	 2.0155651979	-0.6284245351	 0.130786
H	-1.1624359833	 1.7380143163	-0.2874214513	 0.135988
H	-0.007389928	 1.8659648197	 1.0527336161	 0.137689
H	 1.5936109107	-0.3204295789	 1.6683118563	 0.111591
H	 1.3959294099	-2.3815539188	-2.0811908495	 0.1129
H	-1.0880268036	-2.454892901	-2.2539139207	 0.121565
H	-1.2448826704	-2.3381408382	-0.4319778621	 0.15073
H	-0.0412147526	-0.1293461877	-2.2643107131	 0.096803
124.6781	198.3583	203.4148	281.7904	328.1658	384.4599	446.3694	526.2816	562.3167	586.0423	706.6521	747.3265	784.5691	801.4565	847.2907	867.7729	928.4328	955.4804	1011.7752	1017.7837	1043.6779	1075.938	1093.4648	1102.8539	1107.0415	1180.5537	1193.4329	1232.3566	1264.508	1329.851	1355.5942	1408.3309	1441.3327	1475.3244	1483.3362	1495.2959	1831.431	3037.9737	3101.6946	3129.2572	3149.6114	3160.9071	3184.7201	3194.8379	3251.1411
CC12OC1C(=O)C1CC21	C[C@]12O[C@H]1C(=O)[C@H]1C[C@@H]21	
InChI=1S/C7H8O2/c1-7-4-2-3(4)5(8)6(7)9-7/h3-4,6H,2H2,1H3	InChI=1S/C7H8O2/c1-7-4-2-3(4)5(8)6(7)9-7/h3-4,6H,2H2,1H3/t3-,4+,6-,7+/m0/s1
