20
gdb 13933	3.16743	1.83665	1.47557	1.4912	74.58	-0.2348	0.0773	0.3121	952.4255	0.177166	-348.984747	-348.976729	-348.975785	-349.01726	30.395	
C	-0.7010552635	 1.1787834709	 0.0916540897	-0.426651
C	 0.1234112575	-0.0905208326	-0.0430375852	-0.006051
C	 1.4753784144	-0.0711809009	-0.8123928143	-0.240365
C	 2.0271529253	-1.0960812946	 0.2145857633	-0.292576
C	 0.8861007786	-0.6822088611	 1.1714768887	 0.451439
C	 1.1994601176	 0.1524221424	 2.4354543972	-0.348313
C	 0.554198161	-1.0220484914	 3.1937287765	-0.074343
O	 0.2356167172	-1.69588594	 1.9593376994	-0.316416
H	-0.0942893745	 2.0164086222	 0.4533841341	 0.111423
H	-1.1245429097	 1.4750475579	-0.874150554	 0.116044
H	-1.5349730051	 1.0394300258	 0.7889475241	 0.118767
H	-0.5012407314	-0.9014239047	-0.4372782365	 0.08491
H	 1.4624625832	-0.364122538	-1.8640718083	 0.099049
H	 1.9717462646	 0.9009036957	-0.7281841259	 0.09829
H	 1.8781914149	-2.1273717888	-0.1178367841	 0.112563
H	 3.05528442	-0.9804603033	 0.5678245176	 0.092482
H	 2.2589653433	 0.3265256597	 2.6322491265	 0.107289
H	 0.6596064761	 1.0976253841	 2.5128381038	 0.11094
H	 1.2360896712	-1.6125272613	 3.8182796243	 0.100274
H	-0.3445796305	-0.7875874119	 3.7761705032	 0.101243
72.4782	104.3429	207.2137	217.5511	254.4408	333.6793	413.6168	488.5639	502.7465	664.2411	780.3796	787.3299	864.0743	868.2742	882.8477	909.564	945.3265	955.282	976.6428	1029.1852	1039.9572	1091.4615	1148.0329	1154.0431	1169.3587	1174.7119	1192.6183	1221.6535	1242.443	1250.4782	1268.6895	1278.3343	1295.0853	1355.7463	1378.8053	1405.7736	1476.4223	1485.3497	1496.0568	1497.2522	1499.2811	1531.7078	3015.7604	3024.4136	3035.1092	3053.6238	3055.5551	3057.4191	3076.6082	3092.0193	3092.2647	3104.1384	3118.1666	3130.7731
CC1CCC11CCO1	C[C@H]1CC[C@]21CCO2	
InChI=1S/C7H12O/c1-6-2-3-7(6)4-5-8-7/h6H,2-5H2,1H3	InChI=1S/C7H12O/c1-6-2-3-7(6)4-5-8-7/h6H,2-5H2,1H3/t6-,7+/m0/s1
