19
gdb 58013	3.79902	0.80239	0.67079	4.2061	76.01	-0.2445	0.0144	0.2589	1640.0769	0.157771	-456.399436	-456.388833	-456.387889	-456.43733	35.486	
C	 0.2950280236	 1.3717633009	 0.0201510754	-0.346419
N	 0.1141512795	-0.0716023188	-0.0078138394	-0.094848
C	-0.0077529525	-0.7121185761	 1.2883914912	-0.34561
C	 0.0714162814	-0.7129026396	-1.2087596144	 0.427292
O	 0.1792427348	-0.1254303333	-2.2776180478	-0.39554
C	-0.1207133902	-2.2342432632	-1.1904539494	-0.267512
N	-0.1355292392	-2.6968747142	-2.5544979656	-0.27722
C	-0.2905285386	-4.0027089768	-2.8667516731	 0.150652
O	-0.4289880134	-4.8942726759	-2.0518380596	-0.336459
H	 1.2061627837	 1.6328899227	 0.5721720429	 0.12666
H	 0.3734624517	 1.7307823628	-1.0040239737	 0.173334
H	-0.556308976	 1.8549503213	 0.5149789772	 0.126671
H	-0.8684069219	-0.307932513	 1.836494466	 0.134656
H	-0.1406262036	-1.787823484	 1.19486598	 0.157832
H	 0.8904388304	-0.5300108266	 1.8922118964	 0.134655
H	 0.6855962506	-2.7198905325	-0.6260658299	 0.14401
H	-1.0559199507	-2.5005821462	-0.6815417618	 0.144017
H	-0.0225179471	-1.9750212232	-3.2538650094	 0.266708
H	-0.2774643128	-4.1745837043	-3.9609422549	 0.07712
18.0667	52.418	98.8711	124.9156	126.0985	146.9966	238.8364	259.2815	317.8701	327.1433	397.8457	478.3241	572.0942	610.0933	614.1715	753.444	870.5111	978.1196	1009.4972	1036.6764	1067.4485	1083.7934	1130.8213	1167.9373	1180.1336	1223.995	1257.391	1281.4922	1346.8512	1421.894	1434.2607	1444.8181	1479.2251	1482.2139	1497.6062	1501.9619	1504.2085	1514.6659	1550.6589	1745.0525	1796.2724	2943.1577	3014.2842	3021.2649	3021.9671	3046.3101	3059.0725	3068.9688	3170.9149	3176.12	3587.3945
CN(C)C(=O)CNC=O	CN(C)C(=O)CNC=O	
InChI=1S/C5H10N2O2/c1-7(2)5(9)3-6-4-8/h4H,3H2,1-2H3,(H,6,8)	InChI=1S/C5H10N2O2/c1-7(2)5(9)3-6-4-8/h4H,3H2,1-2H3,(H,6,8)
