18
gdb 98228	3.28233	1.05031	0.81505	5.7937	70.93	-0.2503	-0.0291	0.2212	1380.7935	0.144817	-476.263467	-476.253432	-476.252488	-476.299326	35.275	
C	 0.058142097	 1.4254416292	-0.006057165	-0.354292
N	 0.0528112959	-0.0408476919	-0.0292301076	-0.175286
C	 0.0813286389	-0.7720942975	 1.1960562509	 0.400925
C	-0.1731798165	 0.036135969	 2.4609140089	-0.505862
O	 0.2906213631	-1.9547263928	 1.2377981965	-0.281097
C	-0.0764423093	-0.6974776823	-1.2578865262	 0.392814
O	-0.1984587287	-1.8950585335	-1.3864128524	-0.327763
C	-0.0876961166	 0.1694154251	-2.5311151252	-0.156209
O	-0.3010457828	-0.643353199	-3.6405226959	-0.421709
H	 0.6149097623	 1.81419887	-0.8581531267	 0.155066
H	-0.9537241449	 1.8461796433	-0.0264633788	 0.14332
H	 0.5637905106	 1.7810903346	 0.8889083199	 0.148387
H	-1.0216654444	 0.7190529908	 2.3662823427	 0.140005
H	-0.3637971737	-0.6812801468	 3.2584185596	 0.160107
H	 0.7061437945	 0.6276148898	 2.737487235	 0.152282
H	-0.8716253022	 0.9383713948	-2.4521936196	 0.114075
H	 0.8746954876	 0.7028828725	-2.6110968241	 0.116843
H	-0.3356774409	-1.5470196252	-3.2804351518	 0.298394
40.628	58.6878	127.8833	165.7964	200.2209	206.3778	240.6315	337.9506	372.8273	406.9417	454.8687	464.8225	549.8004	570.1719	609.5295	631.1101	773.1054	850.2515	997.9535	1028.136	1048.9035	1100.371	1140.5095	1158.5108	1189.1389	1240.2592	1271.6173	1303.1252	1325.4141	1390.3349	1463.0779	1466.8521	1476.6849	1487.2026	1497.6911	1512.6661	1520.0599	1766.6795	1847.9384	2963.9483	2997.2422	3040.0872	3046.9832	3113.3658	3135.1491	3163.1535	3171.9698	3640.5524
CN(C(C)=O)C(=O)CO	CN(C(=O)C)C(=O)CO	
InChI=1S/C5H9NO3/c1-4(8)6(2)5(9)3-7/h7H,3H2,1-2H3	InChI=1S/C5H9NO3/c1-4(8)6(2)5(9)3-7/h7H,3H2,1-2H3
