21
gdb 30808	2.1711	1.35923	0.8902	0.3547	88.41	-0.197	0.0303	0.2273	1388.0827	0.181249	-387.14746	-387.137447	-387.136503	-387.182672	36.161	
C	-0.0448329342	 1.5172083964	 0.4856648037	-0.367966
C	-0.055402924	 0.0777380769	-0.0592655277	-0.295237
C	-1.4250607348	-0.4896425356	-0.2123273232	 0.259687
C	-2.1772335168	-0.8862973707	-1.2781798262	 0.178661
C	-1.8026864142	-0.8735237436	-2.7283594883	-0.50656
C	-3.4317374337	-1.3312794801	-0.7271177877	-0.366103
C	-3.3558125544	-1.1738797098	 0.6192320567	 0.358863
C	-4.2959154298	-1.441877875	 1.7389934471	-0.491391
O	-2.1355293347	-0.6606479617	 0.9493982645	-0.223586
H	 0.9804380931	 1.8803153946	 0.6072400633	 0.109161
H	-0.5711069691	 2.1956088457	-0.1928727613	 0.118286
H	-0.5415186983	 1.5639187821	 1.4586855914	 0.129612
H	 0.4425414309	 0.0438666798	-1.0334006239	 0.109187
H	 0.5326056098	-0.5635697647	 0.6108887848	 0.112818
H	-1.8513302067	-1.8783020852	-3.164448918	 0.126458
H	-2.4801130541	-0.2395100852	-3.3126325997	 0.126485
H	-0.7876476482	-0.4971641502	-2.8810306667	 0.121754
H	-4.2772788161	-1.7192929971	-1.2755679523	 0.098779
H	-3.8798504923	-2.1635986658	 2.4516380679	 0.13449
H	-4.5275748072	-0.5285954079	 2.2994884041	 0.134178
H	-5.2314378553	-1.8486478626	 1.3484318511	 0.132422
60.3731	114.1183	125.6805	135.9665	187.8519	200.9105	252.5983	281.7306	296.9197	390.1561	467.1848	586.3333	616.0669	641.5604	689.1179	764.9434	793.464	797.1959	962.8524	970.8928	994.9879	1017.9928	1061.4028	1064.268	1064.9455	1083.5007	1149.2981	1181.145	1237.8914	1273.7964	1312.1728	1355.5821	1400.5487	1410.7383	1416.0745	1428.2873	1472.6218	1474.2978	1482.8052	1492.4683	1496.3677	1498.8227	1508.0993	1618.7238	1681.2312	3018.5413	3025.0049	3027.014	3039.3618	3071.5357	3075.2505	3078.6276	3109.3579	3109.8633	3121.2527	3126.9618	3242.313
CCC1=C(C)C=C(C)O1	CCc1c(C)cc(C)o1	
InChI=1S/C8H12O/c1-4-8-6(2)5-7(3)9-8/h5H,4H2,1-3H3	InChI=1S/C8H12O/c1-4-8-6(2)5-7(3)9-8/h5H,4H2,1-3H3
