18
gdb 22754	3.0175	1.0117	0.80236	0.3193	83.67	-0.2464	0.0041	0.2505	1407.3455	0.144716	-401.867289	-401.857726	-401.856782	-401.901844	35.351	
C	-0.395029469	 1.1912628936	 0.0891379786	-0.407877
C	 0.0850057417	-0.2503158336	 0.1591738572	-0.063347
C	 0.9645354353	-0.8168575809	-1.0270543271	-0.186251
C	 1.9589233189	-1.4257314235	 0.0280748283	-0.332364
C	 1.239936367	-0.6051154043	 1.0754037949	 0.396782
N	 1.4901228424	-0.1984048635	 2.2471828386	-0.240469
O	 2.7131083984	-0.7173797886	 2.7133109984	-0.392453
C	 0.3316955483	-1.7133297051	-1.969503482	 0.308232
C	-0.2080681306	-2.4698094135	-2.7332739489	-0.447195
H	 0.4394176838	 1.874005212	-0.1003034851	 0.119025
H	-1.1321142427	 1.3159189813	-0.7106154902	 0.123418
H	-0.8602166036	 1.4882002294	 1.0335118099	 0.134953
H	-0.7595795226	-0.9273962025	 0.3334088748	 0.106052
H	 1.4434641939	 0.014104554	-1.5550431876	 0.107792
H	 1.8254777364	-2.5031195862	 0.1608217044	 0.136101
H	 3.0210999006	-1.21614283	-0.1126156006	 0.134071
H	 2.7818928545	-0.3190670705	 3.5875864815	 0.30688
H	-0.6794845928	-3.1346932881	-3.413758315	 0.196651
53.6435	125.2699	152.8025	186.2793	195.3626	235.0681	292.2513	357.0507	426.1304	447.7587	490.7739	509.2399	578.5231	624.043	627.873	668.7317	777.9406	818.7119	892.1219	957.9426	968.3997	1042.2706	1055.5492	1059.1475	1121.558	1132.6065	1187.6519	1216.5571	1235.7337	1245.3304	1333.3944	1357.9257	1404.5892	1410.8585	1460.4448	1490.9914	1495.6175	1787.3986	2234.1496	3036.7262	3038.3067	3055.2795	3067.0894	3107.8252	3114.2828	3123.3374	3504.5553	3817.8849
CC1C(CC1=NO)C#C	C[C@H]1[C@@H](CC1=NO)C#C	
InChI=1S/C7H9NO/c1-3-6-4-7(8-9)5(6)2/h1,5-6,9H,4H2,2H3	InChI=1S/C7H9NO/c1-3-6-4-7(8-9)5(6)2/h1,5-6,9H,4H2,2H3/t5-,6+/m0/s1
