19
gdb 117142	4.27804	0.76665	0.65811	1.1183	76.59	-0.2492	-0.0144	0.2347	1658.1498	0.157855	-456.371887	-456.361433	-456.360488	-456.408522	35.896	
C	-0.0224378189	 1.4927436282	-0.0213178494	-0.352261
N	-0.006865245	 0.0313298768	-0.0008283413	-0.119764
C	 0.0032336115	-0.6291352376	 1.2280414585	 0.098491
N	-0.0009017943	 0.0046465116	 2.3300813725	-0.476664
C	-0.0006998006	-0.7395686608	-1.1649511399	 0.433851
O	 0.0121458997	-1.9558315569	-1.1306314146	-0.360687
C	-0.0119975015	 0.025375759	-2.4750830847	-0.321211
C	-0.0022698482	-0.9109058207	-3.6759013405	-0.079636
O	-0.0143742193	-0.0881115176	-4.8331007737	-0.42667
H	 0.864681805	 1.8912825693	-0.5215517859	 0.135575
H	-0.9149611255	 1.8719675771	-0.526735858	 0.135565
H	-0.0288491139	 1.8276616229	 1.0147098084	 0.181095
H	 0.014580738	-1.7102106143	 1.0950564614	 0.144239
H	 0.0079143369	-0.6512323002	 3.1082154847	 0.232111
H	-0.89405917	 0.6748345883	-2.5256903944	 0.137355
H	 0.8533960776	 0.6966403989	-2.5282122926	 0.137211
H	 0.8892366355	-1.5516168998	-3.6374534809	 0.106203
H	-0.8774367022	-1.5735652826	-3.6345725356	 0.1063
H	-0.0072886047	-0.6608645816	-5.6051951341	 0.288897
40.2951	69.1572	116.1906	122.3964	134.2737	176.743	271.3189	292.5046	296.9539	319.2344	386.586	437.916	559.2657	574.133	723.3571	817.153	830.4572	832.8246	978.0285	1041.9597	1070.7011	1079.0243	1088.4029	1114.0992	1154.147	1175.7327	1209.913	1249.0479	1303.4337	1305.924	1359.0354	1380.212	1406.3997	1453.0202	1458.7654	1467.6976	1505.2581	1508.3147	1523.14	1712.2671	1772.9582	3004.5453	3034.6306	3038.9324	3047.1977	3078.0487	3107.1322	3147.9685	3166.507	3512.2051	3834.8856
CN(C=N)C(=O)CCO	CN(C=N)C(=O)CCO	
InChI=1S/C5H10N2O2/c1-7(4-6)5(9)2-3-8/h4,6,8H,2-3H2,1H3	InChI=1S/C5H10N2O2/c1-7(4-6)5(9)2-3-8/h4,6,8H,2-3H2,1H3
