17
gdb 55153	3.25668	1.36522	1.26118	2.1118	67.56	-0.2293	-0.0248	0.2045	1058.3271	0.134034	-458.948753	-458.940399	-458.939455	-458.982551	30.595	
C	-0.0469863198	 1.4612306729	-0.127893241	-0.486319
C	-0.2278171442	 0.0117128729	-0.5188240487	 0.37825
O	 0.5076913122	-0.578225609	-1.2697407902	-0.289799
C	-1.4851366549	-0.6620426623	 0.0958010206	 0.098548
O	-2.6183230478	-0.1653294255	-0.6221684303	-0.279304
C	-3.1541661995	-1.2379687361	-1.3648378674	 0.062651
C	-2.2615303896	-1.9410742592	-2.3694426558	-0.356929
C	-2.4152918882	-2.4634435454	-0.9581801528	 0.073458
O	-1.4579640049	-2.0598573528	-0.005647657	-0.24741
H	 0.7710957072	 1.9051260181	-0.6955350668	 0.145773
H	-0.977610832	 2.0105451529	-0.3058537042	 0.158645
H	 0.1685451385	 1.5347458025	 0.9448223304	 0.143988
H	-1.582742507	-0.3740642838	 1.1538559731	 0.096437
H	-4.2267322424	-1.1587085039	-1.4884971133	 0.114862
H	-2.7652420214	-2.4979082111	-3.1535001298	 0.117574
H	-1.313022412	-1.4956203733	-2.642871115	 0.156108
H	-2.8549755343	-3.4247715568	-0.7251565517	 0.113468
39.1476	106.0553	139.7389	185.0743	270.2269	305.6203	367.515	466.503	571.3056	596.6989	741.0433	754.2341	762.6094	793.3926	817.8467	917.2685	945.4921	971.8893	993.6916	1004.1925	1044.7314	1069.0788	1087.962	1095.5925	1132.9246	1163.2425	1195.6292	1222.3754	1295.3393	1344.9208	1373.3038	1379.2864	1393.7992	1462.4811	1467.0538	1472.966	1834.4524	2986.0974	3037.2577	3100.2051	3136.3667	3157.5831	3191.2602	3200.1117	3240.3969
CC(=O)C1OC2CC2O1	CC(=O)[C@H]1O[C@H]2C[C@H]2O1	
InChI=1S/C6H8O3/c1-3(7)6-8-4-2-5(4)9-6/h4-6H,2H2,1H3	InChI=1S/C6H8O3/c1-3(7)6-8-4-2-5(4)9-6/h4-6H,2H2,1H3/t4-,5+,6-
