12
gdb 130308	3.6148	1.76822	1.18932	6.8891	60.92	-0.2498	-0.0282	0.2216	919.4259	0.080222	-464.952205	-464.945815	-464.944871	-464.982918	24.532	
N	-0.0050201649	 1.384718024	 0.1557655488	-0.590377
C	 0.0118266006	 0.022386914	 0.0266846348	 0.454202
N	-1.0450276714	-0.7402447773	-0.0093234123	-0.20357
O	-0.5710892162	-2.0915116866	-0.0285189344	-0.250251
C	 0.7664773852	-2.0336336372	-0.0361433678	 0.551234
N	 1.754184424	-2.8785995803	-0.0558021938	-0.352706
N	 2.8948841953	-2.0744848831	-0.024586473	-0.202943
C	 2.5507947388	-0.8139119362	 0.0134667253	-0.012632
N	 1.1698835108	-0.7273254712	 0.0018237075	-0.114012
H	 0.6725834991	 1.8787149718	-0.4092232609	 0.276268
H	-0.9352014617	 1.7735341414	 0.0729906425	 0.285811
H	 3.2167465303	 0.0313312307	 0.0520971233	 0.158976
170.4402	250.3278	269.5679	319.715	392.1047	560.5096	619.6491	646.4378	668.9082	688.7537	712.5243	753.9474	768.7956	813.6798	918.1012	987.7037	1015.9172	1136.1426	1164.8259	1226.6984	1334.1855	1394.5439	1466.1618	1527.6579	1589.6045	1632.9368	1685.0067	3288.6918	3554.741	3655.0901
NC1=NOC2=NN=CN12	Nc1noc2nncn12	
InChI=1S/C3H3N5O/c4-2-7-9-3-6-5-1-8(2)3/h1H,(H2,4,7)	InChI=1S/C3H3N5O/c4-2-7-9-3-6-5-1-8(2)3/h1H,(H2,4,7)
