19
gdb 113086	2.11065	1.26071	0.95952	3.1872	67.39	-0.2525	0.0407	0.2932	1276.6825	0.157905	-497.260948	-497.251179	-497.250235	-497.296293	35.151	
O	-0.1864005567	 1.1715596785	-0.8650771227	-0.422889
C	-0.0481936083	-0.1395066308	-0.3497259596	-0.070181
C	-1.3879962237	-0.6428030081	 0.1608547565	 0.080906
O	-2.3789122317	-0.6286159356	-0.9067354249	-0.340863
C	-2.5711738841	-2.0708709363	-0.818199167	 0.10057
C	-2.2140818651	-2.7405251066	-2.1356784705	-0.068446
O	-3.0276276033	-2.2181534703	-3.1705500907	-0.424061
C	-1.5773944181	-2.1710859324	 0.3573996421	 0.007215
O	-0.4792492057	-3.0127010718	 0.0854387318	-0.417623
H	-0.91562533	 1.1328158638	-1.4957869648	 0.28947
H	 0.3503711265	-0.8351193488	-1.1009200783	 0.102498
H	 0.6741669674	-0.085856391	 0.472923644	 0.102829
H	-1.7295863233	-0.0185815593	 0.99569464	 0.083411
H	-3.6139639319	-2.2933730572	-0.5636188078	 0.08949
H	-1.1451415538	-2.6085012483	-2.3501384414	 0.102843
H	-2.4128718085	-3.8153498219	-2.0781401276	 0.115517
H	-2.9261126878	-1.2595492931	-3.131925912	 0.288588
H	-2.0504482913	-2.4334360535	 1.309904081	 0.085826
H	 0.0304021993	-3.1276889974	 0.8927532919	 0.2949
48.6798	100.6236	104.8088	167.6405	180.0097	231.9405	264.3784	320.0106	417.357	448.7802	460.6038	495.6523	522.9633	575.9274	810.709	832.9589	845.7975	919.2876	943.7367	1020.2726	1056.6931	1075.5739	1082.8928	1101.4922	1124.1178	1169.4891	1186.0952	1216.1959	1223.9387	1263.1624	1287.4663	1324.0995	1327.7141	1349.2819	1382.0588	1407.3914	1426.9369	1435.7957	1442.6437	1496.1104	1505.162	3010.1531	3017.4886	3028.6352	3036.6985	3051.6815	3070.9913	3088.0579	3788.2174	3791.3296	3832.5193
OCC1OC(CO)C1O	OC[C@H]1O[C@@H](CO)[C@H]1O	
InChI=1S/C5H10O4/c6-1-3-5(8)4(2-7)9-3/h3-8H,1-2H2	InChI=1S/C5H10O4/c6-1-3-5(8)4(2-7)9-3/h3-8H,1-2H2/t3-,4+,5+
