20
gdb 51560	3.42162	0.85883	0.75518	3.1721	83.04	-0.2537	0.0212	0.2749	1555.4533	0.170134	-403.111338	-403.102074	-403.10113	-403.146748	33.685	
N	-0.0108808103	 1.2367424011	 0.1312851452	-0.438108
C	-0.1674150209	 0.0015326641	 0.3346208502	 0.129258
O	-0.8640849241	-0.7422136612	-0.5526886262	-0.185119
C	-0.9435692007	-2.1199841542	-0.2735544825	 0.092846
C	-1.9257710294	-2.5975982699	 0.7664238491	-0.338218
C	-2.1988195351	-2.8149359972	-0.711031015	-0.045616
C	-3.2902163501	-2.0649768703	-1.4064050648	 0.029628
C	-3.6113206281	-2.3642716147	-2.8495774411	-0.268143
C	-4.5784409512	-2.7657330438	-1.7630479167	-0.275935
H	 0.5307874549	 1.6455123716	 0.8900757297	 0.228877
H	 0.2076858746	-0.5786936195	 1.1878190036	 0.089723
H	 0.00684639	-2.6376975299	-0.3813941844	 0.102543
H	-1.65601881	-3.4423682781	 1.3906774744	 0.116098
H	-2.5156387968	-1.833733645	 1.2623129418	 0.127327
H	-2.0541943124	-3.829503444	-1.0745928535	 0.087739
H	-3.3725132406	-1.0251528288	-1.109254255	 0.100256
H	-3.8728815691	-1.536099411	-3.4984040086	 0.116914
H	-3.0483422447	-3.1508485283	-3.3415440354	 0.109024
H	-4.6644055645	-3.8213381273	-1.5260941963	 0.10843
H	-5.5071457517	-2.2143397934	-1.6660866645	 0.112473
49.6838	67.9793	91.995	120.5661	186.0834	275.5405	300.1166	367.244	470.072	568.9499	620.0429	734.0769	792.6771	821.4735	823.6737	833.3291	858.3792	929.3442	942.5455	997.9673	1011.45	1030.1865	1048.9975	1057.905	1066.2826	1077.7005	1090.2251	1128.4074	1138.933	1181.2251	1197.9586	1220.288	1228.032	1252.4163	1287.9599	1317.6424	1384.6936	1417.8265	1447.9169	1469.8077	1484.0653	1509.4067	1746.1409	3035.2951	3124.6751	3129.1224	3131.6137	3133.7914	3138.5637	3170.1265	3207.4677	3222.1671	3223.4324	3516.831
N=COC1CC1C1CC1	[NH][CH]O[C@H]1C[C@H]1C1CC1	
InChI=1S/C7H11NO/c8-4-9-7-3-6(7)5-1-2-5/h4-8H,1-3H2	InChI=1S/C7H11NO/c8-4-9-7-3-6(7)5-1-2-5/h4-8H,1-3H2/t6-,7-/m0/s1
