17
gdb 71466	4.08915	1.25024	1.11871	5.0181	78.43	-0.2462	0.0106	0.2568	1105.2899	0.136788	-380.826601	-380.819014	-380.81807	-380.858402	29.885	
C	 0.0518138487	 1.5225613079	-8.62*^-8	-0.497863
C	 0.0411177113	 0.0243703692	 0.0816323005	 0.311799
C	-1.2746172125	-0.8021909683	 0.2696986892	-0.280221
C	-0.3839061271	-1.8907914088	 0.8538059704	-0.124706
C	 0.6995198513	-0.8993423327	 1.1911516843	-0.177688
C	 0.9346299487	-1.8077030759	 0.0153465323	 0.269392
N	 0.8294702646	-0.7206714945	-0.9555338351	-0.384741
C	 1.8238526988	-2.9148019811	-0.1142999964	 0.185158
N	 2.5323199765	-3.8237034422	-0.2205786449	-0.350017
H	 1.0771845401	 1.8997112336	-0.0382860351	 0.139179
H	-0.4669945557	 1.8593075192	-0.9051429385	 0.126919
H	-0.4558860991	 1.9648343507	 0.862710781	 0.124191
H	-1.9130870891	-0.3660432452	 1.0426132899	 0.114759
H	-1.8666266384	-1.0134660249	-0.6285796996	 0.096548
H	-0.6532052264	-2.7958640335	 1.3816374713	 0.113031
H	 1.3005995466	-0.7152363256	 2.069191711	 0.11914
H	 0.2780975117	-0.9611579176	-1.782373514	 0.215119
133.2774	150.3995	207.1667	278.9537	310.475	429.4046	487.8075	515.3186	537.3859	582.6087	633.2857	738.0489	782.308	822.5502	860.906	876.6664	905.6767	952.8876	978.2587	996.164	1012.5018	1067.7841	1085.3343	1120.4872	1143.4661	1157.4173	1217.3947	1234.3147	1254.1071	1335.572	1356.1307	1382.2357	1421.2942	1482.9223	1489.6219	1494.8103	2349.8378	3032.5228	3035.6758	3099.6729	3104.3611	3121.8794	3212.1995	3234.5978	3417.5077
CC12CC3C1C3(N2)C#N	C[C@]12C[C@@H]3[C@H]1[C@@]3(N2)C#N	
InChI=1S/C7H8N2/c1-6-2-4-5(6)7(4,3-8)9-6/h4-5,9H,2H2,1H3	InChI=1S/C7H8N2/c1-6-2-4-5(6)7(4,3-8)9-6/h4-5,9H,2H2,1H3/t4-,5-,6+,7-/m1/s1
