20
gdb 31336	3.16378	1.2423	0.96505	1.9604	88.42	-0.1923	0.0561	0.2485	1281.4718	0.172461	-366.022046	-366.01343	-366.012485	-366.056514	31.947	
C	-0.1836470888	 1.5875953373	 0.0053491445	-0.357635
C	 0.083957007	 0.0727434981	 0.0463580424	-0.294495
C	 0.7373060796	-0.4544129109	-1.198725578	 0.072057
C	 2.0601777458	-0.7777709589	-1.4169546757	 0.277654
C	 3.5193351399	-1.0333786334	-1.0676134219	-0.384836
C	 3.6471546914	-1.5230134245	-2.56291007	-0.168273
N	 2.2222469883	-1.1902192571	-2.7043568699	 0.018744
C	 1.0376125537	-1.1691955215	-3.3830792356	-0.161894
C	 0.1059750768	-0.7038679308	-2.4668118595	-0.215556
H	 0.7506058142	 2.1452187411	-0.1157335606	 0.112285
H	-0.8329539855	 1.8471089491	-0.8368465998	 0.116632
H	-0.6690086225	 1.9294306418	 0.9259463063	 0.102383
H	 0.7143230633	-0.1574024795	 0.9135312888	 0.09153
H	-0.8655777491	-0.4511654974	 0.2146289317	 0.099376
H	 4.1253966503	-0.1556728283	-0.8262353106	 0.120103
H	 3.7114463363	-1.8106036473	-0.3226877488	 0.121165
H	 4.3092154204	-0.9316970899	-3.2023248748	 0.123131
H	 3.8696890436	-2.5869118233	-2.6877568206	 0.124466
H	 0.9376075531	-1.4597393015	-4.4159594948	 0.115971
H	-0.9432651679	-0.5517574831	-2.6790434832	 0.08719
35.8887	60.4098	149.4833	193.6091	225.4454	281.6132	391.2136	503.989	600.9309	620.776	675.7281	701.2043	711.2733	789.1025	790.7911	810.2115	837.3267	901.3204	965.6871	1027.8858	1043.1749	1054.4946	1079.2834	1090.7955	1139.5071	1154.8529	1177.9807	1220.6953	1235.6992	1276.3615	1290.3974	1335.8539	1362.0012	1405.7591	1413.7492	1443.2876	1472.5013	1483.6598	1491.1331	1495.0519	1506.7665	1523.2453	1622.533	3019.6787	3030.5116	3047.4923	3053.6718	3056.5832	3091.1611	3099.9403	3106.3961	3107.3845	3226.5786	3269.4381
CCC1=C2CCN2C=C1	CCc1c2CCn2cc1	
InChI=1S/C8H11N/c1-2-7-3-5-9-6-4-8(7)9/h3,5H,2,4,6H2,1H3	InChI=1S/C8H11N/c1-2-7-3-5-9-6-4-8(7)9/h3,5H,2,4,6H2,1H3
