19
gdb 96901	3.07553	1.27703	1.05856	3.3007	79.18	-0.2305	0.0232	0.2538	1211.1273	0.158581	-419.173865	-419.164888	-419.163944	-419.207745	33.045	
C	 0.2625687315	 1.414052562	 0.0327068107	-0.338892
N	 0.2825441476	-0.0415785235	 0.0714455015	-0.342954
C	 0.5224516584	-0.676523952	-0.9762890844	 0.511507
O	 0.7608501154	-0.2238838139	-2.2775689189	-0.318053
C	 0.7816442084	-1.5929588833	-2.8047979712	 0.43813
C	-0.1551482605	-1.7680556115	-3.9655876149	-0.479595
C	 2.2103071702	-2.1824373294	-2.8126634639	-0.222527
N	 2.0860451252	-2.5490595796	-1.3705110204	-0.316315
C	 0.6519929181	-2.1357789681	-1.3524662651	-0.245769
H	 1.0924240645	 1.7993838093	 0.6360408598	 0.129955
H	 0.339104277	 1.8362233226	-0.9761606016	 0.124543
H	-0.6627162189	 1.7702468574	 0.4978333689	 0.124127
H	 0.1830323632	-1.1722794346	-4.8206786456	 0.136841
H	-0.1959029701	-2.8164104461	-4.2759613074	 0.123913
H	-1.1647067201	-1.4404214706	-3.7018310476	 0.134277
H	 2.3049673493	-3.0404445197	-3.4891187248	 0.101403
H	 3.0122741814	-1.4683547334	-3.0230045764	 0.118594
H	 2.2010691492	-3.5412269606	-1.2044369219	 0.227535
H	-0.0817511898	-2.8508394848	-0.9813902868	 0.09328
80.4408	90.4729	167.8445	184.3861	213.0848	239.0726	327.4473	355.389	403.531	476.2201	608.818	671.8678	688.0472	776.1098	823.1716	845.2282	915.6378	955.4401	973.397	978.5308	1013.9787	1037.1278	1072.6746	1127.7353	1138.3749	1149.1966	1170.0122	1203.4819	1234.4735	1251.3514	1291.8603	1362.1558	1387.1684	1414.8466	1438.5957	1482.1331	1489.2939	1492.9184	1495.4689	1497.013	1850.3601	3016.6537	3025.5583	3037.1777	3081.9235	3085.5216	3088.5119	3105.0615	3119.4967	3120.83	3554.1367
CN=C1OC2(C)CNC12	CN=C1O[C@@]2(C)CN[C@@H]12	
InChI=1S/C6H10N2O/c1-6-3-8-4(6)5(7-2)9-6/h4,8H,3H2,1-2H3	InChI=1S/C6H10N2O/c1-6-3-8-4(6)5(7-2)9-6/h4,8H,3H2,1-2H3/t4-,6-/m0/s1
