16
gdb 6002	2.46476	1.75394	1.63197	2.6775	67.08	-0.2452	-0.026	0.2192	924.0109	0.125155	-383.722836	-383.713194	-383.71225	-383.757008	34.343	
C	 0.7441576189	 1.1693755939	 0.2118711842	-0.473837
C	-0.325488962	 0.1333655683	-0.0430415226	 0.382509
O	-1.2368580228	-0.0838094008	 0.7143779398	-0.296745
C	-0.1886313592	-0.688997231	-1.3659838674	 0.083011
C	-1.5517289544	-1.241893965	-1.7979006512	-0.411425
O	 0.3422067516	 0.2157201817	-2.336671158	-0.447534
C	 0.7643632133	-1.7737742509	-1.0983474005	 0.336695
C	 1.5564278594	-2.6556748697	-0.8948643675	-0.506162
H	 1.738367952	 0.7369776312	 0.0671570725	 0.14814
H	 0.6472487609	 1.9806122741	-0.5155013931	 0.16056
H	 0.6360605117	 1.5582092397	 1.2247938476	 0.136031
H	-2.2189969866	-0.4087576161	-2.0315086885	 0.1297
H	-1.4377382988	-1.870395383	-2.6854863673	 0.111712
H	-1.9937874639	-1.8326670296	-0.9946416828	 0.149883
H	 0.6539293123	-0.3063334642	-3.0837379491	 0.289013
H	 2.2518893078	-3.4374275384	-0.7104359762	 0.208449
47.6229	126.4647	152.7179	174.4645	211.5999	233.5879	258.9391	312.5308	368.8539	405.9139	466.779	553.4472	584.6638	606.9658	636.0542	666.8162	678.3555	848.8381	934.544	969.5473	1035.7239	1095.3581	1138.1236	1176.2218	1201.1916	1353.4038	1381.258	1397.5236	1457.5668	1468.0095	1479.9254	1483.6148	1827.2702	2223.294	3052.196	3053.9352	3121.0102	3128.6251	3153.234	3159.4507	3497.7906	3813.056
CC(=O)C(C)(O)C#C	CC(=O)[C@@](C)(O)C#C	
InChI=1S/C6H8O2/c1-4-6(3,8)5(2)7/h1,8H,2-3H3	InChI=1S/C6H8O2/c1-4-6(3,8)5(2)7/h1,8H,2-3H3/t6-/m0/s1
