19
gdb 40618	4.18674	1.11035	1.08745	1.7206	79.88	-0.2343	0.0021	0.2364	1191.6257	0.160371	-385.822161	-385.814837	-385.813893	-385.854147	29.643	
C	-0.2215053801	 1.3692863023	-0.1989641927	-0.276328
C	 1.2259822447	 1.1737153031	 0.1681525112	-0.276343
C	 0.3052233541	-0.0204868959	 0.0731621997	 0.007968
C	-0.1091002606	-0.7424527228	 1.3219239282	 0.017252
C	-1.2263748163	-1.8390495821	 1.1619338786	 0.001615
O	-0.19527027	-2.7205258237	 0.6045514089	-0.290698
C	 0.6381161133	-2.091667406	 1.6345085107	 0.001589
C	-0.0637723912	-2.5401424052	 2.9245293485	-0.085209
C	-1.3478977447	-2.366114889	 2.5990661443	-0.08522
H	-0.875430955	 1.8186834463	 0.5415819604	 0.109088
H	-0.4644275593	 1.6328029196	-1.2223539643	 0.113336
H	 1.9771064748	 1.3029079966	-0.6031487284	 0.113333
H	 1.5453759516	 1.4916342994	 1.1555217963	 0.10909
H	 0.4361637369	-0.6673367165	-0.7877201834	 0.098822
H	-0.2297128552	-0.055131211	 2.1652058226	 0.065969
H	-2.1096469574	-1.7179821283	 0.5357179882	 0.078434
H	 1.7101332212	-2.2355316574	 1.5039019378	 0.07843
H	 0.3989482169	-2.8794636962	 3.83918896	 0.109435
H	-2.2532261435	-2.5200411235	 3.1669913534	 0.109435
83.8731	158.0566	171.0645	318.8562	414.8711	450.901	542.9786	615.0221	707.4934	750.3084	779.1444	826.4927	850.4079	863.8136	872.6053	882.3178	899.7492	906.202	925.7548	929.1045	973.2758	993.9835	1035.7616	1058.697	1078.8886	1136.9896	1142.3934	1156.7007	1174.8402	1184.8906	1203.343	1220.3305	1238.8402	1243.1834	1295.9787	1302.4203	1313.2542	1430.5501	1469.9151	1504.3927	1610.4012	3060.6033	3128.1311	3130.0765	3132.5403	3133.655	3170.0575	3206.4618	3221.9419	3233.1415	3260.1848
C1CC1C1C2OC1C=C2	C1CC1[C@H]1[C@H]2O[C@@H]1C=C2	
InChI=1S/C8H10O/c1-2-5(1)8-6-3-4-7(8)9-6/h3-8H,1-2H2	InChI=1S/C8H10O/c1-2-5(1)8-6-3-4-7(8)9-6/h3-8H,1-2H2/t6-,7+,8-
