16
gdb 124141	3.50631	0.9572	0.75902	3.4385	83.42	-0.2306	-0.017	0.2136	1464.8874	0.122941	-400.736245	-400.727085	-400.726141	-400.772689	31.538	
C	-0.042372407	 1.4787748368	 0.0598906356	-0.509385
C	-0.0000810979	 0.0251020767	 0.0566738698	 0.19622
C	 0.0429303463	-1.1806532313	 0.0546923901	-0.112134
C	 0.05628855	-2.5919226222	 0.0491718467	-0.017629
C	 1.1141350959	-3.4500724583	 0.1366778537	-0.039123
O	 0.7007373402	-4.7188258221	 0.0948920844	-0.166466
N	-0.6912942443	-4.7377705876	-0.0256901356	-0.189324
C	-1.0696328657	-3.4851241893	-0.0525123576	 0.289397
C	-2.5106878622	-3.1183016179	-0.1755129194	-0.506276
H	 0.5294173166	 1.8961680937	-0.7765511323	 0.153346
H	-1.0717459963	 1.8430496403	-0.0275202971	 0.153272
H	 0.3767917101	 1.887827835	 0.9860507751	 0.153346
H	 2.1772965067	-3.2928321566	 0.2294477648	 0.156234
H	-2.8316616476	-2.5211897878	 0.6839648606	 0.144034
H	-2.6796923499	-2.5128842257	-1.0717138087	 0.144034
H	-3.125063073	-4.0182790836	-0.2329499815	 0.150453
9.303	80.9453	102.1521	130.1128	249.6829	254.622	306.5771	359.4473	467.1687	485.3796	535.2136	609.3009	688.5696	703.5982	839.8304	898.6801	934.3705	976.2861	1029.9723	1050.5574	1052.4707	1068.6197	1161.8976	1230.8913	1315.0114	1385.8076	1413.2549	1423.5525	1474.4358	1474.4619	1476.9626	1478.1321	1536.8757	1637.4907	2362.1721	3025.7843	3045.2293	3085.1665	3090.2201	3102.0294	3144.572	3268.1866	9.3554	80.9457	102.1517	130.1119	249.6836	254.622	306.5782	359.4484	467.1688	485.3791	535.2138	609.3004	688.5697	703.5971	839.8308	898.6807	934.3708	976.2861	1029.9726	1050.5569	1052.4701	1068.6202	1161.8979	1230.8914	1315.0119	1385.8078	1413.2542	1423.5528	1474.4364	1474.4606	1476.9615	1478.1328	1536.8758	1637.4912	2362.1722	3025.7843	3045.2292	3085.1665	3090.2201	3102.0293	3144.572	3268.1867
CC#CC1=CON=C1C	CC#Cc1conc1C	
InChI=1S/C7H7NO/c1-3-4-7-5-9-8-6(7)2/h5H,1-2H3	InChI=1S/C7H7NO/c1-3-4-7-5-9-8-6(7)2/h5H,1-2H3
