20
gdb 91094	2.68428	1.65096	1.53219	2.6592	77.23	-0.2336	0.0668	0.3004	990.2578	0.173457	-403.11742	-403.110015	-403.109071	-403.148957	30.206	
C	 0.4586782998	 1.4634495168	-0.3642385034	-0.411295
C	 0.1016366602	 0.0518138625	 0.0534465049	 0.159215
O	 0.6077469958	-0.9583292852	-0.8611567627	-0.306917
C	 1.3096946622	-1.6431048939	 0.1923053085	 0.137009
C	 2.8277679711	-1.5404364532	 0.166086334	-0.069228
N	 3.3222290988	-0.1950107111	-0.1915918555	-0.313447
C	 3.2659603594	-0.5846232131	 1.2247893119	-0.031714
C	 2.052206099	-0.0143173152	 1.9517846461	-0.24409
C	 0.815686103	-0.6306069053	 1.2581169518	-0.112346
H	 1.5395721539	 1.5715402907	-0.4683319438	 0.150292
H	-0.0095228134	 1.6899043659	-1.3278241584	 0.117818
H	 0.0831864631	 2.1859014866	 0.3699394035	 0.102191
H	-0.9904866177	-0.0450560435	 0.1315080643	 0.066426
H	 0.9858360838	-2.686682968	 0.2838849472	 0.066981
H	 3.4253113953	-2.4034027457	-0.108961435	 0.083385
H	 4.2757820873	-0.2714577781	-0.5357675561	 0.2326
H	 4.1959034706	-0.7244690698	 1.7680468773	 0.084396
H	 2.0811950072	-0.3147696649	 3.0044678124	 0.098657
H	 2.0495797627	 1.080003794	 1.9271701854	 0.113518
H	 0.1073655979	-1.0254998494	 1.9878509974	 0.076548
128.2828	196.291	224.3464	259.1966	362.3563	386.6894	484.3282	535.7346	646.5872	654.674	734.0285	803.9982	829.2372	854.6031	873.2987	889.4551	906.499	939.2692	965.1052	1001.6207	1017.3422	1030.3466	1080.9801	1096.3436	1116.1801	1124.3953	1153.8541	1169.251	1202.6862	1233.4815	1242.2874	1258.5039	1303.7269	1328.5411	1335.8834	1353.4379	1379.4417	1385.7901	1408.5402	1425.9077	1477.5359	1481.7444	1510.7019	2993.7351	3031.6378	3033.3706	3045.9742	3083.4822	3095.9671	3097.2059	3144.8393	3150.6364	3165.2919	3504.1282
CC1OC2C3NC3CC12	C[C@H]1O[C@H]2[C@H]3N[C@H]3C[C@@H]12	
InChI=1S/C7H11NO/c1-3-4-2-5-6(8-5)7(4)9-3/h3-8H,2H2,1H3	InChI=1S/C7H11NO/c1-3-4-2-5-6(8-5)7(4)9-3/h3-8H,2H2,1H3/t3-,4+,5+,6+,7-/m1/s1
