15
gdb 30468	6.39638	0.89362	0.78797	4.1528	80.99	-0.1959	-0.0326	0.1633	1377.0226	0.113127	-413.024426	-413.015527	-413.014582	-413.058395	31.222	
C	-0.0309652036	 1.384828085	 0.0638926246	-0.336257
N	 0.0007144864	-0.0637203924	 0.0440654919	-0.372888
C	 0.5660135793	-0.6145505341	-0.9528355429	 0.495789
N	 1.1905102905	-0.0608613425	-2.08396736	-0.338135
C	 1.6722783176	-1.0441532011	-2.920053051	-0.173778
C	 1.3738195125	-2.2421131953	-2.3544447934	 0.245123
N	 0.6998846855	-1.9794940461	-1.1570105864	-0.441534
C	 1.653481915	-3.5408393791	-2.8208197403	 0.209237
N	 1.8756202123	-4.6173243063	-3.1900045838	-0.340714
H	 0.975436312	 1.8388274208	 0.0705851832	 0.097462
H	-0.5794462556	 1.8165374306	-0.7915303611	 0.097689
H	-0.5385937884	 1.7233023904	 0.9705531042	 0.129297
H	 1.2616540629	 0.927977777	-2.2402234701	 0.279194
H	 2.1849012754	-0.8316433471	-3.8420266943	 0.167057
H	 0.3487133183	-2.6600446097	-0.5073236306	 0.282456
67.5226	102.3152	135.4217	183.1881	216.4331	222.1235	313.7428	390.5755	448.8579	509.4967	561.5129	619.2662	638.0819	720.6055	722.6616	770.2473	946.6136	998.7686	1074.2776	1108.2138	1120.4272	1157.3251	1233.6756	1273.9121	1355.3066	1408.1443	1425.3104	1449.9476	1496.9649	1505.5354	1645.8273	1784.1816	2337.1901	2937.8775	2974.3386	3097.9283	3293.8219	3702.2725	3707.1272
CN=C1NC=C(N1)C#N	CN=c1[nH]cc([nH]1)C#N	
InChI=1S/C5H6N4/c1-7-5-8-3-4(2-6)9-5/h3H,1H3,(H2,7,8,9)	InChI=1S/C5H6N4/c1-7-5-8-3-4(2-6)9-5/h3H,1H3,(H2,7,8,9)
