17
gdb 70966	4.30081	1.2299	1.12177	2.0181	79.74	-0.2324	0.0166	0.249	1117.6667	0.13402	-384.590334	-384.582414	-384.58147	-384.622331	31.41	
C	-0.0799550658	 1.4976695912	 0.046946927	-0.507935
C	 0.0303255857	 0.00536715	-0.0252460268	 0.267541
C	 0.9412257034	-0.8345488347	-0.9218146022	-0.314009
C	 0.0926430812	-2.0515061267	-0.4448752998	 0.34005
O	 0.4417455174	-2.1525789409	 0.976138262	-0.332393
C	-0.2846966235	-0.9381601332	 1.1530983061	 0.055553
C	-1.0824717205	-1.0414966778	-0.0991809174	-0.246144
C	 0.0222084853	-3.291135485	-1.1562082811	 0.065368
C	-0.0452700949	-4.3160946457	-1.7806307294	-0.316594
H	 0.8520691835	 1.9443596685	 0.4116812757	 0.127679
H	-0.2981957469	 1.9326585003	-0.9348816772	 0.12324
H	-0.8817058821	 1.8026401445	 0.7285326111	 0.121227
H	 0.7717236217	-0.6206613868	-1.9799069631	 0.111179
H	 2.0116376754	-0.891157885	-0.7002712089	 0.104072
H	-0.5359154737	-0.6172535399	 2.1553599719	 0.109289
H	-2.136318258	-1.0103803526	-0.3391316831	 0.1052
H	-0.1014160184	-5.2263744964	-2.3249589547	 0.186679
133.0953	140.3827	205.9217	262.0846	285.5948	421.4735	475.8646	489.6982	543.7902	545.9056	627.7993	635.6304	682.593	755.0578	777.6354	823.6474	875.4556	896.8121	925.7114	971.4316	987.9217	1022.914	1029.2541	1067.4912	1080.5779	1137.1606	1158.0781	1188.7957	1242.901	1294.4894	1312.9502	1400.3745	1424.5073	1484.9638	1489.2269	1499.4951	2242.6412	3023.2195	3049.9047	3085.4646	3091.0682	3117.2329	3203.1914	3216.7751	3501.6471
CC12CC3(OC1C23)C#C	C[C@@]12C[C@]3(O[C@@H]1[C@@H]23)C#C	
InChI=1S/C8H8O/c1-3-8-4-7(2)5(8)6(7)9-8/h1,5-6H,4H2,2H3	InChI=1S/C8H8O/c1-3-8-4-7(2)5(8)6(7)9-8/h1,5-6H,4H2,2H3/t5-,6+,7-,8+/m0/s1
