18
gdb 65405	3.67733	0.84752	0.7786	3.9022	83.63	-0.2711	0.0263	0.2974	1479.8454	0.14545	-364.78541	-364.775746	-364.774802	-364.820267	35.221	
C	 0.0685144666	 1.5333318567	-0.1852276477	-0.460567
C	 0.0084666298	 0.0241226964	 0.004111773	 0.128515
C	 1.2932917522	-0.7995841422	-0.0126550395	-0.302271
C	 0.5286541185	-0.662499385	 1.2681510671	-0.018292
C	 1.0678030441	 0.1343425713	 2.4490088171	-0.393519
C	 1.9215248831	-0.6814505536	 3.3072012595	 0.304086
C	 2.6167363774	-1.3724369639	 4.0019320018	-0.433923
C	-1.1532256711	-0.589583698	-0.5938555389	 0.242158
N	-2.0909132975	-1.0705470457	-1.0719007483	-0.345311
H	 0.9932310083	 1.9461973614	 0.2232124409	 0.125844
H	 0.0346478129	 1.7829870583	-1.2495789813	 0.14269
H	-0.7758347241	 2.0281599239	 0.3040689349	 0.140164
H	 1.2875335321	-1.7530166129	-0.5266320935	 0.140472
H	 2.2117964094	-0.2316569099	-0.1206452327	 0.127733
H	-0.0391658701	-1.5373115982	 1.5680858117	 0.124708
H	 1.6350424569	 1.0041829369	 2.0998759734	 0.132778
H	 0.2304772495	 0.5313947001	 3.0374161409	 0.143402
H	 3.2340044421	-1.9746305253	 4.6215669016	 0.201333
49.9831	98.3457	141.1794	177.2193	192.5167	237.3245	303.9832	335.2849	380.5506	417.3757	468.2005	575.2441	601.4601	625.6167	649.3517	676.367	839.7126	869.0266	877.3455	937.3823	960.3804	977.9844	1042.1004	1077.672	1111.6076	1120.6521	1159.5147	1236.5974	1276.7481	1300.4293	1326.2005	1419.7897	1421.0506	1466.4543	1487.8713	1490.7197	1502.7212	2242.0575	2347.9862	3025.4808	3046.2039	3065.8005	3112.9909	3128.5999	3139.2623	3167.1878	3231.5755	3506.2417
CC1(CC1CC#C)C#N	C[C@]1(C[C@H]1CC#C)C#N	
InChI=1S/C8H9N/c1-3-4-7-5-8(7,2)6-9/h1,7H,4-5H2,2H3	InChI=1S/C8H9N/c1-3-4-7-5-8(7,2)6-9/h1,7H,4-5H2,2H3/t7-,8+/m1/s1
