21
gdb 59074	2.02121	1.33942	1.01156	2.1115	85.2	-0.238	0.049	0.287	1293.5733	0.179322	-387.046509	-387.035976	-387.035032	-387.081788	39.035	
C	 0.5967304932	 0.24199579	-1.3468798326	-0.401924
C	-0.0086944112	 0.1922905454	 0.0582848828	 0.12277
O	-0.0208847813	 1.4860339058	 0.6575606209	-0.432005
C	-1.4003505205	-0.4111147106	 0.049300929	-0.046637
C	-1.6773307019	-1.8927098423	 0.0408173143	-0.034075
C	-0.593070615	-2.9473962188	 0.0482869376	-0.412618
C	-1.9979285238	-1.0697815875	 1.2898467902	-0.235373
C	-1.2235813621	-1.2269612538	 2.4858173855	 0.353892
C	-0.5897118661	-1.3744302487	 3.4982060325	-0.478664
H	 1.5778934612	 0.7234034252	-1.3154920452	 0.123909
H	 0.7101539025	-0.7618539711	-1.7676851868	 0.120221
H	-0.044915555	 0.8175686897	-2.0262375183	 0.102774
H	 0.6401526017	-0.3963873454	 0.7127341083	 0.099425
H	-0.5769549589	 2.0544734588	 0.1130993889	 0.272081
H	-2.1102053433	 0.1917993286	-0.5167959951	 0.076657
H	-2.5593827023	-2.1821599195	-0.5249171885	 0.0899
H	 0.2331484921	-2.6840959504	 0.7118421163	 0.13634
H	-0.996714461	-3.9035160302	 0.3975901895	 0.122441
H	-0.190067158	-3.1049552477	-0.9580968348	 0.117029
H	-3.0507175099	-0.8696846239	 1.4680811914	 0.109679
H	-0.0297837803	-1.4856141435	 4.393215674	 0.194178
66.6365	99.417	133.2124	163.4526	178.2038	239.2378	245.398	272.5006	332.6343	345.7424	385.4414	462.4026	517.2003	574.5992	607.2737	632.0167	652.7726	755.0946	796.6112	825.0666	915.8843	953.4782	966.9199	1009.8955	1036.901	1081.8326	1103.3129	1107.6658	1143.5264	1148.7279	1181.7909	1246.9664	1283.8378	1326.2039	1364.9678	1394.9292	1402.0452	1418.9091	1426.2228	1442.3501	1488.5577	1492.8488	1494.9974	1503.7236	2232.1751	3024.8619	3036.1748	3074.058	3092.9116	3096.3003	3106.6367	3120.5545	3122.2595	3137.0046	3146.722	3505.74	3796.2786
CC(O)C1C(C)C1C#C	C[C@@H](O)[C@H]1[C@@H](C)[C@H]1C#C	
InChI=1S/C8H12O/c1-4-7-5(2)8(7)6(3)9/h1,5-9H,2-3H3	InChI=1S/C8H12O/c1-4-7-5(2)8(7)6(3)9/h1,5-9H,2-3H3/t5-,6+,7+,8+/m0/s1
