25
gdb 58470	2.33654	1.21468	1.10416	1.2391	89.2	-0.2472	0.0671	0.3143	1326.986	0.225463	-389.492427	-389.481167	-389.480223	-389.52761	43.015	
C	-2.1141806206	 0.275255028	 1.8793691126	-0.411561
C	-1.1802551545	-0.5781835443	 1.0049424548	-0.003195
C	-0.9987714973	 0.0497662939	-0.3848137308	-0.392154
C	 0.1667623119	-0.7842200728	 1.6943539267	 0.380951
O	 0.8616699854	 0.4254728348	 1.9115097374	-0.474416
C	 0.3363083105	-1.8594287818	 2.7455801388	-0.408388
C	 1.064493848	-1.9722452079	 1.4120680778	 0.284418
C	 0.6290955534	-3.0630065669	 0.4484416657	-0.457287
C	 2.5670808624	-1.7492663927	 1.4108434797	-0.440834
H	-1.7190856294	 1.2900461927	 2.0041200566	 0.109604
H	-3.1019663035	 0.3685957654	 1.4176055454	 0.113187
H	-2.2469141371	-0.1656192097	 2.873292331	 0.11147
H	-1.6519592773	-1.5598219728	 0.8871406792	 0.069122
H	-0.4668134294	 1.0021118799	-0.3030479732	 0.127423
H	-0.4173369379	-0.6022922855	-1.0433892364	 0.113348
H	-1.9665808221	 0.2361554537	-0.8617275526	 0.102484
H	 0.4485988007	 0.8697310763	 2.65909121	 0.282109
H	 0.9279090834	-1.6101519212	 3.6210388213	 0.103283
H	-0.4952072816	-2.5314354769	 2.9377722755	 0.101203
H	-0.444910233	-3.259792665	 0.4830081371	 0.114244
H	 0.8921577353	-2.8093204098	-0.5850343215	 0.117053
H	 1.1395587695	-4.0018123896	 0.6939135438	 0.113812
H	 3.0867548478	-2.6627019607	 1.7231394518	 0.10536
H	 2.9219240392	-1.4939820308	 0.4053787427	 0.11148
H	 2.8534359062	-0.9367223462	 2.0786232367	 0.127285
79.909	123.8645	182.6406	194.5778	212.371	224.308	248.6579	263.3779	289.4492	304.2919	316.6616	355.7551	373.5343	440.9142	455.0631	515.8494	547.1433	684.8	736.0261	857.2338	911.0127	914.1442	928.5914	930.6548	965.235	971.9236	987.3447	1034.8743	1040.386	1068.9367	1129.6568	1153.886	1156.4993	1196.6701	1227.5218	1303.778	1308.6472	1331.9043	1344.6993	1390.9858	1406.0034	1409.4563	1415.1171	1424.0822	1479.8938	1485.3396	1487.3653	1489.8437	1496.4804	1504.6755	1505.6885	1514.0356	1518.8925	3024.0238	3026.0602	3028.9936	3037.9149	3046.273	3078.125	3081.6685	3092.8329	3100.9089	3105.3879	3113.7182	3116.2825	3118.2443	3145.1206	3202.967	3807.6548
CC(C)C1(O)CC1(C)C	CC(C)[C@@]1(O)CC1(C)C	
InChI=1S/C8H16O/c1-6(2)8(9)5-7(8,3)4/h6,9H,5H2,1-4H3	InChI=1S/C8H16O/c1-6(2)8(9)5-7(8,3)4/h6,9H,5H2,1-4H3/t8-/m0/s1
