20
gdb 118459	2.44978	1.12621	0.8336	7.1795	71.84	-0.2493	0.022	0.2713	1389.6559	0.171699	-477.457857	-477.44837	-477.447426	-477.492571	35.026	
N	-0.9757171119	 0.7557001562	 0.8945391576	-0.509297
H	-0.8249104114	-0.1869854557	 1.237753976	 0.252102
H	-0.9603333241	 0.7034606688	-0.1204591043	 0.253493
H	-2.4555464649	 1.5779455551	 1.1589861361	 0.321429
C	 0.0755051913	 1.6740302647	 1.3777606548	-0.170657
C	-0.3773133701	 3.1365452776	 1.3089808303	-0.217035
C	-1.5118903918	 3.52807002	 2.2909540648	-0.158141
C	-1.3086271099	 4.9691788394	 2.8019374029	-0.064438
O	-2.2470288372	 5.3498115378	 3.7755281633	-0.428914
C	-2.9277019842	 3.3751574347	 1.7069554565	 0.416871
O	-3.2348698329	 2.2065673223	 1.1575335391	-0.380738
O	-3.7469350167	 4.2693811182	 1.7553302314	-0.358009
H	 0.2880867083	 1.4126544121	 2.4200258761	 0.123382
H	 1.0136973042	 1.5517728886	 0.8193253869	 0.105341
H	 0.4981500049	 3.756108089	 1.5385173316	 0.114557
H	-0.6563574533	 3.3885148457	 0.277844545	 0.113916
H	-1.468737199	 2.862789986	 3.1655998234	 0.104003
H	-0.3190947707	 5.0367457412	 3.2689252788	 0.095103
H	-1.3113096702	 5.6538749092	 1.9376924735	 0.090062
H	-3.1012052404	 5.300267059	 3.3206836661	 0.296969
64.0741	81.9846	150.2812	205.7778	239.2806	263.4615	284.9655	328.2874	348.1972	414.6046	471.0644	542.9834	607.1135	630.4259	734.2607	820.7544	854.5909	886.4587	946.876	971.04	1002.581	1053.6654	1063.0865	1102.25	1104.0779	1108.1743	1159.0025	1209.5385	1266.308	1286.2229	1290.5256	1339.1304	1367.813	1388.4003	1396.8629	1414.5425	1455.3783	1481.5148	1494.927	1500.778	1504.2492	1653.421	1807.3928	2969.0575	3005.1291	3009.6704	3027.2339	3053.6363	3060.5365	3073.7748	3076.904	3498.9282	3579.3256	3716.7579
[NH3+]CCC(CO)C([O-])=O	NCC[C@@H](CO)C(=O)O	
InChI=1S/C5H11NO3/c6-2-1-4(3-7)5(8)9/h4,7H,1-3,6H2,(H,8,9)	InChI=1S/C5H11NO3/c6-2-1-4(3-7)5(8)9/h4,7H,1-3,6H2,(H,8,9)/t4-/m0/s1
