16
gdb 15625	3.50265	1.76904	1.28549	4.334	67.55	-0.2665	-0.0366	0.23	956.2314	0.131093	-383.799991	-383.792457	-383.791513	-383.832164	27.39	
C	-0.2307388786	 1.5180120253	-0.0604162382	-0.382794
C	 0.0990031976	 0.0179841244	 0.0441883047	-0.291715
C	 0.8006221016	-0.5023831116	-1.1700072674	 0.18698
C	 2.0456999556	-0.9495066891	-1.3446638446	-0.21763
C	 2.2404466276	-1.3502419117	-2.7761164959	-0.127751
O	 0.9880683589	-1.0930819385	-3.4075725475	-0.225551
C	 0.1045945628	-0.5921063084	-2.4862003862	 0.401392
O	-1.0257808012	-0.301547224	-2.7660021678	-0.351959
H	 0.6815222122	 2.1151452074	-0.1562545936	 0.115528
H	-0.8613637115	 1.7087329793	-0.9318645419	 0.15282
H	-0.7656206016	 1.8543746348	 0.8323960839	 0.117011
H	 0.7107872781	-0.1758440473	 0.9314207518	 0.103974
H	-0.8373830923	-0.5393037327	 0.167622243	 0.127467
H	 2.8271981086	-1.0318614395	-0.5996386388	 0.121979
H	 3.0221504262	-0.7676478591	-3.2804354266	 0.13506
H	 2.487390976	-2.4134775992	-2.8915364148	 0.135191
70.3764	146.8717	200.2544	214.2802	288.9897	325.7483	465.5488	523.2865	615.5768	752.6517	773.3914	796.102	812.0904	850.3198	947.0092	960.8945	1029.2582	1048.1353	1087.5426	1097.4564	1111.4273	1200.6153	1218.4147	1273.7261	1352.1902	1353.7002	1373.4954	1406.2289	1476.4344	1495.4729	1498.016	1511.4443	1713.8792	1858.1741	3022.48	3034.8391	3043.6149	3053.4091	3077.1349	3112.4653	3134.274	3215.7508
CCC1=CCOC1=O	CCC1=CCOC1=O	
InChI=1S/C6H8O2/c1-2-5-3-4-8-6(5)7/h3H,2,4H2,1H3	InChI=1S/C6H8O2/c1-2-5-3-4-8-6(5)7/h3H,2,4H2,1H3
