18
gdb 23609	3.06435	1.05798	0.82583	1.1533	76.95	-0.2467	-0.002	0.2447	1377.1934	0.146347	-439.001273	-438.99249	-438.991546	-439.035459	32.251	
O	-0.1054983799	 1.3623115301	-0.0372987296	-0.389914
N	 0.0470657459	-0.0287627218	 0.0987753972	-0.219984
C	-1.0646951129	-0.6159338096	-0.0076483382	 0.331029
C	-2.5103604855	-0.2735689916	-0.2554183812	-0.164488
O	-2.8335624593	-1.6837391918	-0.2484431695	-0.300454
C	-1.4561652201	-2.079188803	 0.0374900096	 0.04113
C	-0.873478718	-3.0118132429	-0.98036971	 0.020158
C	 0.2906413834	-3.8920528888	-0.5925345196	-0.264025
C	-1.0663309459	-4.5004462112	-0.8212640019	-0.270196
H	 0.7992654434	 1.6783483795	 0.0604681996	 0.310354
H	-3.0072336067	 0.2824186792	 0.5502012221	 0.125683
H	-2.7330215813	 0.2106267204	-1.2145365197	 0.12884
H	-1.3837925253	-2.5229638199	 1.0418434729	 0.091283
H	-0.8777538285	-2.6218529986	-1.9934963406	 0.087658
H	 1.0669847918	-4.0548245	-1.3309377921	 0.11794
H	 0.656661456	-3.8280688785	 0.4267338535	 0.118608
H	-1.6230259519	-4.8479953967	 0.0426280892	 0.118881
H	-1.2277645752	-5.0867084848	-1.7184983215	 0.117496
64.1863	91.8892	122.5497	200.0483	222.2176	300.5426	341.2799	397.7576	429.27	487.6222	606.7665	741.1403	771.3484	831.6411	853.5661	896.5052	929.9531	958.9289	977.4378	998.4086	1011.7044	1039.561	1063.5985	1080.4371	1130.5885	1131.3173	1168.1785	1195.4828	1202.0161	1224.1265	1258.0839	1308.3467	1319.1114	1408.649	1430.0821	1471.7586	1500.2104	1506.1913	1813.1974	2991.0383	3015.4781	3054.6309	3135.5837	3139.728	3156.9278	3214.3238	3228.8698	3816.8244
ON=C1COC1C1CC1	ON=C1CO[C@H]1C1CC1	
InChI=1S/C6H9NO2/c8-7-5-3-9-6(5)4-1-2-4/h4,6,8H,1-3H2	InChI=1S/C6H9NO2/c8-7-5-3-9-6(5)4-1-2-4/h4,6,8H,1-3H2/t6-/m0/s1
