19
gdb 78364	2.65674	1.36381	1.09313	2.0799	76.08	-0.2406	0.072	0.3125	1158.7468	0.158056	-422.965609	-422.956964	-422.95602	-422.998529	33.683	
O	-0.0320453221	 1.2788459628	-0.1450402002	-0.441661
C	-0.06167405	-0.1170019451	-0.047463531	 0.10095
C	-0.4798136291	-0.6801417306	 1.2909544075	-0.146106
C	-1.4384202583	-0.6837720485	 0.0819762303	-0.171555
C	-1.3576646959	-2.1946732812	 0.032997574	 0.369622
C	-2.447971741	-3.1720209645	-0.2784450713	-0.351063
C	-1.2279674696	-3.0837758762	-1.1681511466	-0.312693
C	-0.4557712075	-2.2145932401	 1.2810939929	 0.011148
O	 0.7756722807	-2.8802435955	 1.0823239719	-0.43158
H	 0.7678284334	 1.5887568019	 0.2923130887	 0.285721
H	 0.6826444483	-0.6426258429	-0.6466949075	 0.097252
H	-0.5110071387	-0.0436878835	 2.1676686124	 0.081305
H	-2.3174281143	-0.0722894189	-0.0782257412	 0.096938
H	-2.5532839694	-4.0401074494	 0.3654324296	 0.111075
H	-3.3874380651	-2.7827942278	-0.6580712294	 0.11153
H	-1.3402496739	-2.6361560178	-2.1503923151	 0.11158
H	-0.4957208475	-3.881591446	-1.1119086138	 0.126503
H	-0.9877625309	-2.6247722919	 2.1516582312	 0.07021
H	 1.2804982108	-2.8311179046	 1.9003556575	 0.280825
105.4363	164.4983	200.9992	223.9673	242.2215	295.6827	299.4258	389.8931	450.5107	459.7224	575.2052	633.341	754.5161	782.0162	827.0151	872.6963	888.9123	919.0851	933.7953	963.1338	984.7643	993.9297	1048.0263	1053.7589	1076.0922	1095.3516	1109.2286	1127.0246	1163.3241	1189.6808	1199.5006	1213.2732	1258.471	1277.7257	1298.5441	1328.0655	1383.263	1423.8628	1449.115	1461.5183	1504.181	2992.0622	3093.3675	3120.1853	3130.6961	3178.1583	3198.3083	3200.8315	3221.7735	3805.7209	3816.5812
OC1C2C1C1(CC1)C2O	O[C@H]1[C@H]2[C@@H]1C1(CC1)[C@H]2O	
InChI=1S/C7H10O2/c8-5-3-4(5)7(1-2-7)6(3)9/h3-6,8-9H,1-2H2	InChI=1S/C7H10O2/c8-5-3-4(5)7(1-2-7)6(3)9/h3-6,8-9H,1-2H2/t3-,4+,5+,6+/m1/s1
