16
gdb 37709	2.85811	2.33329	2.14824	1.0289	64.92	-0.2248	0.0738	0.2985	751.588	0.12858	-437.847677	-437.84236	-437.841415	-437.877049	23.381	
C	-0.0026461491	 1.4887018755	-0.0044033548	-0.162431
C	 1.3833263665	 2.1327332566	 0.008704492	 0.156182
O	 2.0859484739	 1.681128434	 1.1628606707	-0.257931
C	 2.3716387239	 0.330777875	 0.8363601441	 0.043625
C	 1.1455525726	-0.6016638209	 0.8038431464	-0.076991
C	 1.1706016416	-0.6247463226	-0.7101452854	-0.076991
C	 2.3975674745	 0.3068816854	-0.7304916048	 0.043624
O	 2.1235164341	 1.6465076408	-1.1072715958	-0.25793
N	 0.086601671	 0.018190058	 0.019495992	-0.118894
H	-0.5752848527	 1.8105680453	 0.8710844862	 0.115754
H	-0.5458558787	 1.7834462287	-0.9077527814	 0.115753
H	 1.3757452325	 3.2244554061	-0.0080670774	 0.095281
H	 3.249702399	-0.0115203599	 1.3819464737	 0.093174
H	 0.8854399915	-1.377736338	 1.5146842637	 0.0973
H	 0.9337472084	-1.4222538225	-1.4052162903	 0.0973
H	 3.2930249509	-0.0514461916	-1.236046809	 0.093175
330.7598	379.2934	450.8783	558.6959	588.348	652.1091	706.2466	728.9279	791.8136	844.9691	859.4104	870.1682	898.2129	908.4806	922.4944	976.9354	989.5016	1027.2516	1041.9144	1048.3356	1062.8023	1091.9042	1121.9892	1187.2659	1211.5134	1247.9436	1251.9871	1265.625	1299.0785	1316.1573	1351.8784	1360.4264	1371.0331	1384.1128	1475.9963	3048.2743	3098.4222	3103.4505	3125.9418	3133.6304	3172.0431	3183.6899
C1C2OC3C4C(C3O2)N14	C1[C@H]2O[C@H]3[C@@H]4[C@H]([C@H]3O2)N14	
InChI=1S/C6H7NO2/c1-2-8-5-3-4(7(1)3)6(5)9-2/h2-6H,1H2	InChI=1S/C6H7NO2/c1-2-8-5-3-4(7(1)3)6(5)9-2/h2-6H,1H2/t2-,3-,4+,5-,6+,7?
