19
gdb 77874	2.01542	1.63178	1.25119	3.0186	76.31	-0.2281	-0.014	0.2142	1115.8238	0.156881	-423.013868	-423.00436	-423.003416	-423.047762	35.141	
C	-0.617782832	 1.2639665611	-0.2015775106	-0.423301
C	-0.3043020208	-0.2013032938	-0.4427615332	-0.076393
C	 0.5130015756	-0.8168782987	-1.5473536359	-0.162362
C	 1.7434171387	 0.0179844508	-1.9483037297	-0.084938
C	 1.6505034496	 1.3160778793	-2.7417347118	-0.424675
C	 2.1747875828	-0.0272539659	-0.4551224795	 0.311484
O	 3.1542423177	 0.344663615	 0.1272415823	-0.323465
C	 0.9973472472	-0.8999447007	-0.0765814514	 0.262658
O	 1.0508698327	-2.00324587	 0.7476571373	-0.449202
H	-1.3596086736	 1.6334433257	-0.9179597562	 0.123867
H	-1.0348373929	 1.3968023815	 0.8026604326	 0.118941
H	 0.2667245093	 1.9001453529	-0.2692570275	 0.136967
H	-1.132828976	-0.8599401278	-0.1822273376	 0.100446
H	 0.12390504	-1.6408938935	-2.1323938823	 0.104742
H	 2.4599307989	-0.6493169438	-2.4494512379	 0.111917
H	 0.9029248943	 2.002825629	-2.3408653879	 0.122709
H	 2.6188906264	 1.8267495404	-2.7335237028	 0.134407
H	 1.3889855689	 1.1134995951	-3.7854988119	 0.119983
H	 0.825341463	-1.7313261568	 1.643977374	 0.296215
98.5564	154.7526	168.4102	172.5474	196.2813	242.148	253.2253	265.6305	349.1062	394.5352	505.0443	571.0059	628.1507	637.3957	721.2679	763.2099	858.5836	874.5167	919.7871	949.519	982.8964	1040.8635	1059.7553	1079.2281	1114.0193	1134.2274	1152.9404	1218.1232	1228.0057	1276.6185	1316.9772	1354.9836	1359.0732	1407.587	1419.2232	1467.7736	1488.3244	1495.0449	1503.5883	1510.3356	1877.1057	3008.8007	3034.3725	3043.1995	3091.1587	3102.0788	3109.8787	3128.1416	3139.6098	3194.7648	3800.219
CC1C2C(C)C(=O)C12O	C[C@H]1[C@H]2[C@@H](C)C(=O)[C@@]12O	
InChI=1S/C7H10O2/c1-3-5-4(2)7(5,9)6(3)8/h3-5,9H,1-2H3	InChI=1S/C7H10O2/c1-3-5-4(2)7(5,9)6(3)8/h3-5,9H,1-2H3/t3-,4+,5-,7-/m1/s1
