15
gdb 25509	4.40611	1.13986	0.90558	4.864	79.23	-0.2354	-0.0283	0.2071	1209.7072	0.115172	-416.890363	-416.882931	-416.881986	-416.923614	27.3	
O	 1.88624729	 4.2133320178	 0.2485335357	-0.266305
C	 1.0647055105	 3.3393161305	 0.1819067329	 0.158221
N	 1.2780548565	 1.9816769977	 0.0164864283	-0.38775
C	 2.4694990535	 1.2539050325	-0.117176727	 0.447189
N	 3.6275484636	 1.9051286085	-0.0900671924	-0.290306
C	 4.7443001541	 1.1848040475	-0.2197312405	 0.004212
C	 4.7682920427	-0.1951692617	-0.3801481574	-0.133499
C	 3.5464380077	-0.8658659298	-0.4068462418	-0.064855
C	 2.3754029344	-0.1391924313	-0.2742231907	-0.213785
H	-0.0278877134	 3.5281184679	 0.2491246444	 0.072706
H	 0.4354675781	 1.4277862522	-0.0122467628	 0.25128
H	 5.6716326677	 1.7523298827	-0.1927424695	 0.116144
H	 5.7083039104	-0.7243554201	-0.4803190479	 0.104041
H	 3.5063251928	-1.9431249961	-0.5296441823	 0.110059
H	 1.4079274315	-0.6309160581	-0.290879079	 0.092649
23.2249	161.0801	167.6619	285.6365	347.1724	417.0321	529.0595	537.7574	590.8904	629.8621	760.7748	789.8269	801.6488	881.0506	883.3116	982.81	997.4967	999.8184	1020.3097	1066.4893	1127.3781	1133.3529	1177.9265	1264.8961	1322.3506	1344.3404	1445.7238	1457.346	1508.0782	1542.1029	1629.6879	1633.1625	1844.5496	2904.2251	3156.1603	3170.1691	3189.3693	3209.0417	3621.8062
O=CNC1=NC=CC=C1	O=CNc1ncccc1	
InChI=1S/C6H6N2O/c9-5-8-6-3-1-2-4-7-6/h1-5H,(H,7,8,9)	InChI=1S/C6H6N2O/c9-5-8-6-3-1-2-4-7-6/h1-5H,(H,7,8,9)
