15
gdb 125245	4.1368	0.95317	0.81523	3.5639	72.36	-0.2668	-0.0229	0.2439	1358.8979	0.112406	-416.829111	-416.820732	-416.819788	-416.863353	29.358	
C	-0.0599697736	 1.4211739574	-0.3146649449	-0.49179
C	-0.0287809388	-0.0512551666	-0.1111139979	 0.446153
C	-0.9052876173	-1.0563480641	-0.3820707241	-0.41613
C	-0.2287953093	-2.2229794775	 0.0673099668	 0.398515
C	-0.6965273916	-3.6540421886	 0.0693096376	-0.444119
C	-1.254177486	-4.0714101208	-1.2178653409	 0.265082
N	-1.7087933638	-4.392087925	-2.2300108466	-0.303984
N	 0.9520627562	-1.9439413062	 0.5635032192	-0.199578
O	 1.0806638985	-0.5645931024	 0.455192749	-0.205511
H	 0.0514567147	 1.9496935848	 0.6375150765	 0.15536
H	 0.75794954	 1.7417302	-0.967854246	 0.15765
H	-1.0062311697	 1.71783569	-0.7701087724	 0.147273
H	-1.8762582192	-0.9841503727	-0.8427451307	 0.135313
H	 0.1458677575	-4.3007565873	 0.3320336161	 0.183283
H	-1.4662074975	-3.7990527112	 0.8374600482	 0.172483
42.7395	91.2053	102.1193	193.2241	262.4466	348.0375	381.2277	388.8407	472.1759	626.6195	647.1459	692.0829	782.5938	815.9154	929.4771	943.312	953.4308	1012.6672	1026.7184	1035.8184	1066.1926	1157.0056	1218.6109	1289.9085	1326.523	1414.273	1447.6772	1455.5938	1473.8888	1489.8349	1525.3927	1645.5189	2368.9757	3041.6846	3046.0067	3099.3902	3103.8513	3143.1134	3279.345
CC1=CC(CC#N)=NO1	Cc1cc(CC#N)no1	
InChI=1S/C6H6N2O/c1-5-4-6(2-3-7)8-9-5/h4H,2H2,1H3	InChI=1S/C6H6N2O/c1-5-4-6(2-3-7)8-9-5/h4H,2H2,1H3
