19
gdb 104081	2.33819	1.52823	1.2957	2.925	76.91	-0.2427	-0.0549	0.1878	1088.6471	0.15867	-423.066711	-423.057858	-423.056914	-423.100061	33.691	
C	 0.0809856786	 1.517687055	-0.0659131529	-0.403609
C	-0.0336359803	-0.0005674679	 0.0866793689	-0.209962
C	-1.4752797581	-0.5507871742	-0.0411128635	 0.308457
O	-2.0561503282	-0.1672258234	-1.2738894069	-0.484202
C	-1.4960516855	-2.0828448916	 0.1518684136	-0.319628
C	-2.0263872367	-2.2700943998	 1.5516678039	-0.049838
C	-2.4902550926	-1.137859305	 2.0998347885	-0.169724
C	-2.3584796059	-0.0437618267	 1.1222829913	 0.333733
O	-2.8811864217	 1.0510627279	 1.1302354589	-0.36252
H	 1.1271162665	 1.8290770888	 0.0083575193	 0.110829
H	-0.292612113	 1.8330284754	-1.0442142098	 0.123369
H	-0.4882403563	 2.0495698995	 0.7006334009	 0.136093
H	 0.5601274233	-0.4922195213	-0.6934867466	 0.105614
H	 0.3824012013	-0.321583726	 1.0503075756	 0.096377
H	-2.5162835269	 0.6660403027	-1.0988370506	 0.290094
H	-2.1706953265	-2.5353600916	-0.5840458997	 0.139847
H	-0.5147544994	-2.5509535709	 0.0182717097	 0.114208
H	-2.0387066998	-3.2425486278	 2.0333013181	 0.119936
H	-2.9583093188	-1.0204643731	 3.0684803411	 0.120924
75.1667	120.8564	182.4668	234.5445	254.7246	301.2328	319.2809	377.8288	420.1245	459.6523	526.5138	624.7311	677.4811	712.4769	753.4998	788.7566	840.9129	893.9826	949.3144	973.7124	992.8555	1007.0267	1046.6089	1093.5243	1104.9004	1125.6661	1144.9391	1208.1077	1230.245	1294.4481	1342.4822	1346.8742	1366.7864	1402.1258	1415.5204	1467.8324	1476.8762	1496.6672	1512.1126	1639.7291	1799.2939	3021.4325	3041.8799	3047.2734	3060.6569	3078.0585	3113.0907	3127.4997	3187.8974	3228.3816	3739.8344
CCC1(O)CC=CC1=O	CC[C@@]1(O)CC=CC1=O	
InChI=1S/C7H10O2/c1-2-7(9)5-3-4-6(7)8/h3-4,9H,2,5H2,1H3	InChI=1S/C7H10O2/c1-2-7(9)5-3-4-6(7)8/h3-4,9H,2,5H2,1H3/t7-/m1/s1
