21
gdb 92512	2.74293	1.45194	1.0984	2.7509	81.77	-0.23	-0.0136	0.2164	1172.5302	0.18365	-387.119095	-387.110673	-387.109729	-387.152375	32.511	
C	-0.521487852	 1.5018167276	-0.0761017719	-0.401824
C	 0.0205282265	 0.0767990489	-0.0695151422	-0.0734
C	 0.8613497704	-0.3628593172	-1.2834959205	-0.251063
C	 1.6919186813	-1.5803775743	-0.8002297674	-0.017733
C	 3.2259087424	-1.480301265	-1.0203338985	-0.230064
C	 3.3741522309	-0.8745466296	 0.4044240342	-0.22737
C	 1.904733016	-1.3208296606	 0.7173027616	-0.107539
C	 0.9274505044	-0.2317764766	 1.1335669117	 0.382937
O	 0.8764709408	 0.3144811593	 2.2075892607	-0.32869
H	 0.2845383328	 2.2226598915	-0.251122844	 0.11695
H	-1.2747822612	 1.6412109268	-0.8571088501	 0.110753
H	-0.9715123279	 1.7378580111	 0.8918518876	 0.136698
H	-0.8208795119	-0.6285725356	 0.035281291	 0.100118
H	 0.2484488778	-0.5965095436	-2.1578683991	 0.104046
H	 1.5289273632	 0.4583200878	-1.5751185629	 0.100631
H	 1.2197681367	-2.5232642191	-1.0860824876	 0.06794
H	 3.6985367668	-2.4630666565	-1.0964388552	 0.103217
H	 3.5637956524	-0.8699328189	-1.8626675305	 0.09798
H	 4.1451571986	-1.3056104518	 1.0449611784	 0.111788
H	 3.4973670443	 0.2115674714	 0.4114627063	 0.112237
H	 1.8542424477	-2.1800774357	 1.3889048183	 0.092387
63.8741	108.6875	183.2199	210.1427	255.5559	314.6627	373.9754	466.9726	524.0639	595.7196	635.0115	717.9262	765.2587	792.8872	860.8868	881.4086	900.8036	922.3221	944.6482	958.8109	993.353	1023.9714	1057.2905	1072.3218	1113.3245	1153.889	1159.6474	1180.2816	1213.1562	1224.7063	1246.3403	1266.5491	1275.612	1278.0048	1293.5777	1312.7098	1343.3772	1353.1121	1406.3981	1482.9458	1491.7128	1494.7	1497.129	1503.6459	1831.7164	2973.4197	3026.3933	3037.9425	3052.8285	3066.9404	3070.9087	3090.3493	3094.8573	3101.6168	3103.8302	3121.1579	3126.3363
CC1CC2CCC2C1=O	C[C@H]1C[C@H]2CC[C@H]2C1=O	
InChI=1S/C8H12O/c1-5-4-6-2-3-7(6)8(5)9/h5-7H,2-4H2,1H3	InChI=1S/C8H12O/c1-5-4-6-2-3-7(6)8(5)9/h5-7H,2-4H2,1H3/t5-,6+,7+/m0/s1
