18
gdb 115171	2.43656	1.51375	1.1153	3.412	68.54	-0.2479	0.0226	0.2704	1121.6127	0.147944	-476.250035	-476.241197	-476.240253	-476.283603	32.599	
C	 0.1957297644	 1.0988306365	 0.4423225629	-0.243895
O	-0.1830025289	 0.1396244731	-0.532382303	-0.249674
C	-1.4197207762	-0.48677336	-0.2884161111	 0.067999
C	-1.8610023449	-1.1532094817	-1.6142778609	-0.18666
N	-1.252180287	-2.4782977649	-1.5468209651	-0.315249
C	-0.7937400044	-2.8011332617	-0.3124872209	 0.393795
O	-0.1004558309	-3.74048807	 0.0239082736	-0.40022
C	-1.2950909704	-1.7144724154	 0.6450022808	 0.035758
O	-0.4432822211	-1.5848868973	 1.7451916186	-0.436096
H	 1.1316606323	 1.5424833168	 0.0943634891	 0.125255
H	-0.5611256112	 1.8943774013	 0.526102921	 0.099643
H	 0.3472702768	 0.641678383	 1.4236962276	 0.142959
H	-2.1618213168	 0.2422462464	 0.0642798835	 0.074296
H	-2.9540782972	-1.2114863127	-1.6901636535	 0.113194
H	-1.4769545839	-0.5773675421	-2.4592811364	 0.133565
H	-1.0209530161	-3.0280739605	-2.358368835	 0.258984
H	-2.3129949345	-2.000471765	 0.9666723229	 0.089905
H	 0.11079871	-2.381869556	 1.7275794659	 0.296441
78.9722	129.8207	167.0835	190.905	246.624	279.2225	304.0457	390.3475	433.3144	451.8702	536.7671	562.086	650.8979	730.3251	781.3215	837.3072	875.6146	971.664	974.9819	1054.7426	1100.6482	1145.6864	1177.0556	1180.5043	1216.8843	1222.6735	1232.6673	1271.5961	1296.8593	1350.4937	1378.3938	1386.7816	1436.8339	1445.5955	1479.7061	1483.3282	1514.6335	1520.3369	1830.0818	2940.9313	2985.372	3010.8866	3028.258	3086.9455	3103.7701	3129.9035	3648.2548	3686.9441
COC1CNC(=O)C1O	CO[C@H]1CNC(=O)[C@H]1O	
InChI=1S/C5H9NO3/c1-9-3-2-6-5(8)4(3)7/h3-4,7H,2H2,1H3,(H,6,8)	InChI=1S/C5H9NO3/c1-9-3-2-6-5(8)4(3)7/h3-4,7H,2H2,1H3,(H,6,8)/t3-,4-/m0/s1
