22
gdb 122429	3.48108	0.80478	0.70987	2.2767	80.6	-0.217	0.0832	0.3003	1654.343	0.192769	-441.438183	-441.428093	-441.427149	-441.474236	36.211	
C	 0.0942528559	 1.4981074762	 0.0862949534	-0.225734
O	-0.0244222987	 0.096659732	 0.0523011861	-0.225018
C	 0.6961800364	-0.5438257068	 1.0844199109	-0.054363
C	 0.5492207015	-2.0496779878	 0.9279822359	-0.159461
N	 1.2343611499	-2.5585888095	-0.2408643295	-0.086621
C	 0.6660197725	-2.3309509812	-1.5916931442	-0.187601
C	 1.1941375756	-3.7299773693	-1.9967817792	 0.140409
O	 2.4483867509	-3.7347594051	-2.6383017069	-0.439635
C	 1.2345500668	-4.0182238431	-0.4729569119	-0.203592
H	 1.1398744284	 1.8237698247	-0.0322320698	 0.104956
H	-0.4965406502	 1.8981724769	-0.7413177657	 0.127306
H	-0.2885728573	 1.9168530409	 1.0308774989	 0.103063
H	 1.7628678695	-0.2698317873	 1.0388166786	 0.090823
H	 0.3100191186	-0.232268728	 2.0702367423	 0.082441
H	 0.9872286717	-2.5279638862	 1.8129741623	 0.101217
H	-0.5298810105	-2.3003029264	 0.9199465963	 0.083147
H	-0.433636032	-2.2761027274	-1.5953045088	 0.09055
H	 1.0661895263	-1.4684352869	-2.1317272687	 0.102825
H	 0.5370823193	-4.3557420409	-2.6015391859	 0.088994
H	 3.031733844	-3.1654589928	-2.123180906	 0.285781
H	 2.1082416143	-4.5566965036	-0.0882967705	 0.098079
H	 0.3160931771	-4.5179758582	-0.1211125875	 0.082434
51.7834	73.8408	90.343	106.4271	214.3919	242.969	257.2901	331.1576	337.6193	382.0255	421.4927	436.5039	549.9947	681.7293	835.3993	858.6189	869.3568	922.0991	957.8784	999.5191	1016.4563	1032.5141	1094.9161	1110.635	1122.9676	1139.1402	1163.1995	1179.0915	1188.6008	1218.7215	1234.6877	1248.1072	1267.0506	1270.9869	1316.7826	1320.6778	1331.8352	1395.6399	1424.9828	1441.7021	1476.2257	1478.7046	1485.4105	1490.0171	1499.272	1519.1661	1523.5282	2914.3574	2952.8322	2958.5643	2970.6996	2988.349	2994.1625	3012.6977	3049.3829	3055.1856	3084.5143	3112.5853	3113.9615	3796.9512
COCCN1CC(O)C1	COCCN1CC(O)C1	
InChI=1S/C6H13NO2/c1-9-3-2-7-4-6(8)5-7/h6,8H,2-5H2,1H3	InChI=1S/C6H13NO2/c1-9-3-2-7-4-6(8)5-7/h6,8H,2-5H2,1H3
