19
gdb 95647	2.32898	1.54724	1.15987	0.5477	72.2	-0.2379	-0.0255	0.2124	1119.4397	0.158759	-460.184524	-460.175625	-460.17468	-460.218024	33.431	
C	 0.0260318107	 1.5460251015	-0.0485671064	-0.407951
C	 0.0439786808	 0.0252774396	-0.0064802874	 0.114407
O	 0.6725553434	-0.4304000168	-1.1956061381	-0.248826
C	 0.6557022782	-1.8356784266	-1.3295895926	-0.09005
C	 1.4385052584	-2.520045234	-0.1902225025	-0.2973
C	 0.8751651985	-2.0556574215	 1.1374651173	 0.348299
O	 0.5357873898	-2.7930015717	 2.0336490877	-0.315973
C	 0.7594871242	-0.5290932682	 1.2424332334	 0.019899
O	 2.0664856703	 0.0358407824	 1.2948807779	-0.429387
H	 1.0466223145	 1.9322760566	-0.0481226046	 0.147455
H	-0.4838428269	 1.8848447475	-0.9535898251	 0.124158
H	-0.501665774	 1.9461482236	 0.8222264843	 0.114504
H	-0.9910963819	-0.3605236912	 0.0284710282	 0.0723
H	-0.3823612191	-2.2091060337	-1.3433679487	 0.096986
H	 1.1085151975	-2.0625226952	-2.2982466182	 0.117744
H	 1.3877751404	-3.6093690994	-0.2556919864	 0.116926
H	 2.4836665379	-2.1981052063	-0.2542439318	 0.138533
H	 0.1732847074	-0.2846265176	 2.138538115	 0.082012
H	 2.4643231	-0.2219261588	 2.132909018	 0.296264
72.9534	123.9114	209.9395	215.8367	257.4419	298.9242	309.9364	324.2829	420.0746	444.9354	491.9517	540.8626	689.4759	714.6608	775.3653	825.8346	884.4652	932.4473	960.9439	992.882	1065.5687	1077.0312	1110.5035	1133.4946	1153.7422	1205.9741	1230.0285	1254.9102	1275.3503	1289.7899	1331.2557	1372.0795	1376.3942	1404.8302	1407.5194	1414.8824	1447.6425	1483.9991	1497.6696	1506.0187	1819.8154	2941.4529	2965.0666	3021.6858	3053.5363	3053.8203	3093.5356	3121.1625	3124.9474	3148.4706	3817.7651
CC1OCCC(=O)C1O	C[C@H]1OCCC(=O)[C@H]1O	
InChI=1S/C6H10O3/c1-4-6(8)5(7)2-3-9-4/h4,6,8H,2-3H2,1H3	InChI=1S/C6H10O3/c1-4-6(8)5(7)2-3-9-4/h4,6,8H,2-3H2,1H3/t4-,6+/m1/s1
