17
gdb 89357	2.6777	1.55518	1.26182	1.8154	68.23	-0.2512	-0.0223	0.229	1032.0695	0.134996	-458.95712	-458.949008	-458.948064	-458.989607	31.117	
C	 0.1009403911	 1.513410442	 0.0688289952	-0.501074
C	 0.0046257796	 0.0220402543	-0.0404601091	 0.281403
C	 0.4836494289	-0.7295757537	-1.300343261	-0.316791
C	 0.4446768106	-2.1977116666	-0.7462823584	 0.163936
O	 1.7168617569	-2.7878132983	-0.6278114192	-0.439472
C	-0.1660316581	-1.8858681244	 0.6369352087	-0.100698
O	 0.6713249245	-0.7470904789	 1.0409450756	-0.344581
C	-1.2381283857	-0.8185877698	 0.3467705493	 0.419338
O	-2.403318135	-0.647315249	 0.5191114552	-0.312999
H	 1.1361087674	 1.8467832666	-0.054465986	 0.134344
H	-0.5031196534	 1.9797921869	-0.7152979989	 0.140385
H	-0.2671672305	 1.8571083701	 1.0385307019	 0.143614
H	-0.1731114701	-0.5718776264	-2.160573754	 0.119196
H	 1.5037923632	-0.4530580979	-1.5806484828	 0.117029
H	-0.1636729344	-2.8761562461	-1.3481170644	 0.102525
H	 2.2096899403	-2.2372197936	-0.0050925295	 0.285001
H	-0.2475910152	-2.6790699752	 1.3766663975	 0.108845
127.0534	143.6848	161.0518	226.8194	280.0424	327.5597	435.5059	469.9847	482.6637	544.0629	634.6413	697.1269	741.8716	747.9898	837.9926	849.2051	888.8132	901.392	940.2215	998.1444	1040.9565	1051.6417	1106.6541	1135.7913	1163.6185	1193.6086	1218.74	1259.1954	1280.9061	1314.7773	1348.9326	1415.4067	1436.7256	1475.1012	1481.4991	1489.2921	1920.8427	3044.6766	3059.6592	3097.0433	3113.1747	3115.641	3128.5786	3160.9061	3767.2752
CC12CC(O)C(O1)C2=O	C[C@@]12C[C@@H](O)[C@@H](O1)C2=O	
InChI=1S/C6H8O3/c1-6-2-3(7)4(9-6)5(6)8/h3-4,7H,2H2,1H3	InChI=1S/C6H8O3/c1-6-2-3(7)4(9-6)5(6)8/h3-4,7H,2H2,1H3/t3-,4-,6+/m1/s1
