20
gdb 81994	2.4154	1.41844	1.28827	1.4009	84.97	-0.2328	0.0537	0.2865	1122.6103	0.169308	-365.93759	-365.928419	-365.927475	-365.970732	35.805	
C	-0.4329085884	 1.5062095203	 0.3766949888	-0.415069
C	-0.1362824746	 0.0234160716	 0.2151625439	-0.028852
C	 0.2905020852	-0.4835134218	-1.1678853428	-0.044419
N	 1.5888901125	 0.1637728226	-1.4808644182	-0.345674
C	 1.5526128687	-1.0530834375	-0.6394294529	-0.08515
C	 1.2351260801	-0.5838680553	 0.803320754	 0.120505
C	 2.241487811	 0.3867335231	 1.4298390528	-0.453634
C	 0.9699235172	-1.710426534	 1.6848078869	 0.270947
C	 0.7549504703	-2.6414416229	 2.4160377417	-0.457813
H	 0.3491827441	 2.1159807745	-0.0810955448	 0.137649
H	-1.3836650116	 1.7558675328	-0.1078619014	 0.111761
H	-0.5193485875	 1.7828038759	 1.4326140881	 0.116571
H	-0.9633364242	-0.5786803142	 0.5981772463	 0.088426
H	-0.3520971221	-0.8435967715	-1.9622093367	 0.090156
H	 1.8573314289	-0.1288698473	-2.4194826435	 0.229924
H	 2.0906804229	-1.9512778954	-0.9162120078	 0.097076
H	 2.4936450605	 1.1753666697	 0.7190673903	 0.139737
H	 1.8326565165	 0.8385923657	 2.3383436024	 0.119889
H	 3.1579188317	-0.1445824918	 1.7044859175	 0.118759
H	 0.5653902087	-3.4609913044	 3.0638331955	 0.18921
117.1335	152.8896	187.9598	213.6243	221.2114	251.3696	285.6584	358.9682	468.3093	480.8533	528.1468	576.0088	614.7283	626.2772	630.5114	724.4789	823.091	841.5425	848.2603	883.0931	936.1064	944.0865	1021.9835	1028.9363	1073.1317	1090.2922	1107.4604	1129.7212	1147.3763	1167.7695	1213.8871	1243.8933	1296.8302	1320.3322	1366.3172	1378.9066	1399.3302	1411.7377	1482.7438	1493.4435	1496.1465	1510.336	2228.3549	3033.7944	3044.3522	3082.3776	3092.6274	3109.7064	3128.7336	3141.6311	3181.4646	3196.3132	3480.8613	3502.6997
CC1C2NC2C1(C)C#C	C[C@H]1[C@H]2N[C@H]2[C@]1(C)C#C	
InChI=1S/C8H11N/c1-4-8(3)5(2)6-7(8)9-6/h1,5-7,9H,2-3H3	InChI=1S/C8H11N/c1-4-8(3)5(2)6-7(8)9-6/h1,5-7,9H,2-3H3/t5-,6+,7+,8+/m0/s1
