23
gdb 118413	1.60199	1.01629	0.65172	1.2356	92.5	-0.2461	0.0481	0.2942	1825.6423	0.201965	-388.270955	-388.259017	-388.258073	-388.309921	40.703	
C	-0.7963607219	 1.5708269623	-0.9520306575	-0.384228
C	-0.9539383438	 0.0795561218	-1.1956291944	-0.034087
O	-1.3310556211	-0.5317089386	 0.0254092248	-0.242445
C	-1.489952417	-1.9419426436	-0.046194146	-0.065483
C	-1.6288930042	-2.4571738537	 1.394599292	-0.177103
C	-0.3936082971	-2.1690982372	 2.2495926789	-0.389363
C	-2.6406470302	-2.3311593761	-0.8738186168	 0.087139
C	-3.5929876443	-2.6522863098	-1.5381182571	 0.067491
C	-4.7435806883	-3.041878304	-2.3407009921	-0.500032
H	-0.4990938254	 2.0777000218	-1.8751175102	 0.112828
H	-1.739189689	 2.004155657	-0.6063051484	 0.126865
H	-0.0338000289	 1.7596520501	-0.1908262632	 0.123218
H	-1.7152460603	-0.11098111	-1.9664710966	 0.0975
H	-0.0073061547	-0.3571227939	-1.5571915393	 0.081431
H	-0.577717463	-2.3817191943	-0.4892524711	 0.081544
H	-2.5167809562	-1.988498843	 1.8326331398	 0.112609
H	-1.8257099405	-3.5335764529	 1.3498253927	 0.103468
H	-0.1925205946	-1.0960968347	 2.287443602	 0.133922
H	-0.5356921208	-2.5303087224	 3.2725703405	 0.108727
H	 0.494883262	-2.6650068048	 1.8420542705	 0.108825
H	-5.2082701816	-3.9537050586	-1.9494902495	 0.149438
H	-5.5082442526	-2.2573142703	-2.342830836	 0.150409
H	-4.4609828465	-3.2336235948	-3.3817052031	 0.147327
33.5178	59.3868	78.3442	87.1424	102.7158	157.6153	171.2474	239.0485	243.2654	262.1922	318.4578	342.5184	400.478	439.7417	517.3093	582.0936	756.623	809.5635	826.0169	890.2811	915.2164	988.9432	1052.3119	1053.4886	1055.4881	1094.7938	1120.0677	1130.3733	1155.8333	1186.1001	1191.2019	1287.1947	1295.8331	1315.6657	1353.2557	1381.8873	1400.735	1406.4789	1414.3571	1434.1774	1476.7255	1477.6028	1479.1073	1483.1506	1495.2005	1500.4474	1509.9169	1529.5529	2363.8775	2932.1693	2960.5395	3010.1365	3027.2973	3035.9765	3043.5483	3046.3798	3083.7477	3087.8778	3089.0985	3102.2429	3117.0785	3120.0432	3129.6562
CCOC(CC)C#CC	CCO[C@@H](CC)C#CC	
InChI=1S/C8H14O/c1-4-7-8(5-2)9-6-3/h8H,5-6H2,1-3H3	InChI=1S/C8H14O/c1-4-7-8(5-2)9-6-3/h8H,5-6H2,1-3H3/t8-/m0/s1
