16
gdb 7766	3.37114	1.95216	1.28826	4.8208	67.44	-0.2609	-0.0442	0.2167	927.7412	0.131224	-383.794596	-383.787364	-383.78642	-383.826022	27.271	
C	-0.0067232631	 1.5127483015	 0.0771348334	-0.400705
C	 0.0016357426	 0.0009404001	-0.0721027497	 0.134911
C	 0.8400212798	-0.5029536831	-1.2455982802	-0.272591
C	 0.9895990282	-1.9944980701	-1.160354061	-0.067951
C	 0.8870790398	-2.6165850544	 0.015733564	-0.180425
C	 0.7391650607	-1.8632705393	 1.2828376829	 0.410704
O	 0.8930985983	-2.3590174227	 2.3693002511	-0.337715
O	 0.4838977607	-0.5311231017	 1.1812276407	-0.251041
H	 1.0093152993	 1.8896668219	 0.2275260638	 0.130396
H	-0.4246536621	 1.980777284	-0.8192798829	 0.119289
H	-0.6125613144	 1.8055484006	 0.9380008509	 0.137223
H	-1.0270703176	-0.3634153178	-0.2058968663	 0.092081
H	 0.3564432733	-0.2133996547	-2.1852366466	 0.120187
H	 1.8298279678	-0.0233688465	-1.2455662473	 0.12879
H	 1.1980439708	-2.5527492465	-2.0690730959	 0.114681
H	 0.9984462458	-3.6877464013	 0.1323779129	 0.122165
125.772	140.8163	232.4968	284.627	324.429	438.872	459.7688	483.3419	555.8416	667.9388	704.882	836.9064	855.1736	889.5376	937.3883	965.8246	1004.6491	1016.497	1085.6667	1124.114	1136.2354	1186.1102	1230.9756	1261.0523	1327.4312	1386.7452	1395.7751	1402.7562	1414.4183	1462.6794	1484.8768	1499.554	1694.3722	1824.6568	2999.8091	3013.5626	3045.6591	3068.5227	3119.2602	3129.6029	3166.8085	3215.434
CC1CC=CC(=O)O1	C[C@H]1CC=CC(=O)O1	
InChI=1S/C6H8O2/c1-5-3-2-4-6(7)8-5/h2,4-5H,3H2,1H3	InChI=1S/C6H8O2/c1-5-3-2-4-6(7)8-5/h2,4-5H,3H2,1H3/t5-/m0/s1
