21
gdb 118261	2.15236	0.92834	0.69273	6.0768	80.48	-0.2342	0.0345	0.2687	1633.1114	0.181261	-420.401978	-420.39121	-420.390265	-420.438877	37.935	
C	-0.2758037693	 1.6166417353	-0.2516812077	-0.404914
C	 0.0243026904	 0.1408098536	 0.0252563112	 0.077662
C	 0.9542040858	-0.4639392496	-1.0728444131	-0.209706
C	 0.3573750683	-1.6562857585	-1.809088665	-0.079235
O	 0.1501622061	-2.7011803634	-0.8655656584	-0.410943
N	 0.5255418757	 0.026194711	 1.3999176148	-0.299212
C	 0.5937295937	-1.3397847802	 1.9114233725	-0.272604
C	 1.1208117507	-1.349201512	 3.279073852	 0.258816
N	 1.5595965687	-1.3633637361	 4.347640244	-0.306506
H	 0.6459889925	 2.211153127	-0.2335467049	 0.113454
H	-0.7291878843	 1.7423883592	-1.2400699317	 0.112117
H	-0.9545035129	 2.0204060988	 0.5030723215	 0.128376
H	-0.923212975	-0.4124671916	 0.0085532271	 0.090163
H	 1.2016038498	 0.3026784021	-1.8158957733	 0.10157
H	 1.9050447854	-0.7752879796	-0.6233127116	 0.105077
H	-0.5935414254	-1.3620840766	-2.2825778087	 0.091555
H	 1.0376664727	-1.9805937482	-2.6110976275	 0.092041
H	-0.2651149741	-3.4435497462	-1.3138834327	 0.291983
H	 1.4387399214	 0.4653089081	 1.4735659953	 0.222112
H	-0.4199431411	-1.7574409812	 1.92630504	 0.152361
H	 1.1917105009	-2.0379967117	 1.3044782762	 0.145831
46.6017	59.4438	104.2021	125.639	144.7495	224.4407	254.3078	262.3021	280.9589	363.0162	390.977	419.8731	457.618	491.7814	585.3805	745.3693	824.1595	851.9249	923.4463	951.1863	982.1547	996.2667	1014.5696	1065.1515	1105.8853	1127.4247	1146.2062	1172.3417	1219.1152	1240.1322	1266.3203	1303.18	1332.2207	1348.2318	1384.5982	1402.1408	1415.4322	1450.9852	1474.9142	1483.8469	1487.5882	1498.3124	1510.2716	1521.7393	2365.4884	2968.0653	2988.41	3000.4616	3025.8019	3029.2043	3038.489	3057.118	3073.9287	3094.633	3126.7521	3507.4112	3832.2256
CC(CCO)NCC#N	C[C@@H](CCO)NCC#N	
InChI=1S/C6H12N2O/c1-6(2-5-9)8-4-3-7/h6,8-9H,2,4-5H2,1H3	InChI=1S/C6H12N2O/c1-6(2-5-9)8-4-3-7/h6,8-9H,2,4-5H2,1H3/t6-/m0/s1
