24
gdb 101866	5.16622	0.50878	0.48474	4.2843	91.17	-0.3095	0.038	0.3474	2290.6032	0.215786	-368.447422	-368.43607	-368.435125	-368.485244	39.999	
C	 0.1297176892	 1.5410430073	 0.1093730089	-0.39311
C	-0.021081018	 0.0196710625	 0.0101625343	-0.166889
C	-1.4747856738	-0.485632528	-0.0801860244	 0.036897
C	-2.1668078177	-0.0105989233	-1.3664021355	-0.393203
C	-1.5033124088	-2.0204427222	 0.0558822973	-0.184495
C	-2.9021924103	-2.6298975295	 0.1977227613	-0.193718
C	-2.8378997136	-4.1532494196	 0.4313793491	-0.340377
C	-4.160169143	-4.760526172	 0.5665942898	 0.256412
N	-5.214198566	-5.2228322988	 0.6708491038	-0.305979
H	 1.1797221035	 1.8190290547	 0.2436796276	 0.114208
H	-0.2295624501	 2.0518030518	-0.7889007169	 0.119901
H	-0.4296895527	 1.9384738635	 0.9639280064	 0.114427
H	 0.539204157	-0.3491879439	-0.8605095689	 0.092873
H	 0.4514556564	-0.438178263	 0.8887119254	 0.091185
H	-2.024019109	-0.0668156701	 0.7770301903	 0.070984
H	-1.6593040711	-0.4135414849	-2.2516519404	 0.11175
H	-3.2130085021	-0.3265925234	-1.4093359319	 0.117261
H	-2.1590068144	 1.0796622274	-1.4468743903	 0.119147
H	-0.9968448807	-2.4680822484	-0.8116524443	 0.095285
H	-0.9074716737	-2.3045330001	 0.9340303976	 0.092705
H	-3.431522507	-2.163631491	 1.0367653852	 0.119051
H	-3.504359138	-2.4397691625	-0.6957945633	 0.124092
H	-2.3157087292	-4.642121019	-0.3996772478	 0.151043
H	-2.260090897	-4.3750771374	 1.3364574864	 0.15055
41.1567	61.4937	82.9638	98.6941	120.7456	189.6435	206.7514	255.655	279.3852	303.8564	374.8374	400.8521	425.0001	492.6342	563.1483	739.7693	772.423	812.3063	848.4602	905.0543	949.5207	969.3215	987.1033	1021.7174	1032.4286	1039.5476	1067.2423	1142.8833	1151.01	1179.2928	1215.5853	1259.5311	1292.3604	1304.9086	1321.1262	1330.6931	1361.2084	1381.3201	1385.6272	1395.6961	1411.422	1414.9872	1468.513	1477.0956	1487.6868	1495.3004	1499.8078	1503.6789	1508.1585	1513.6495	2361.8308	2986.6586	2999.6837	3010.3364	3030.8894	3032.4019	3034.5287	3036.3405	3045.4182	3048.1826	3070.536	3096.7297	3098.6428	3100.6771	3106.9594	3116.1454
CCC(C)CCCC#N	CC[C@@H](C)CCCC#N	
InChI=1S/C8H15N/c1-3-8(2)6-4-5-7-9/h8H,3-6H2,1-2H3	InChI=1S/C8H15N/c1-3-8(2)6-4-5-7-9/h8H,3-6H2,1-2H3/t8-/m1/s1
