17
gdb 77142	2.72827	1.34506	1.0109	12.1153	72.91	-0.1813	-0.0365	0.1447	1167.9405	0.134828	-455.144466	-455.135219	-455.134275	-455.179081	33.319	
C	 0.1067849143	 1.1999947128	 0.6457386848	-0.370361
N	 0.1348212446	-0.1339463912	 0.0819837086	 0.012942
C	-0.9691071439	-1.1519926222	-0.0481100941	-0.112398
C	 0.151514312	-2.140747046	-0.4913095872	-0.353623
C	 1.0766462066	-0.9808830832	-0.2345102946	 0.458046
N	 2.3990821687	-0.8243976751	-0.278954166	-0.581479
H	 2.9870045559	-1.6270411716	-0.4266050829	 0.296587
H	 2.840358254	 0.0273156694	 0.0293524529	 0.288238
C	-1.6648746764	-1.4439610627	 1.3378187884	 0.363856
O	-2.0336521927	-0.4001446353	 1.9122209289	-0.471349
O	-1.7223498426	-2.6423860652	 1.6343214206	-0.451311
H	 1.0570658757	 1.4241808751	 1.1396496183	 0.122639
H	-0.0838397135	 1.9445880149	-0.1338902129	 0.143403
H	-0.7139718223	 1.1797941736	 1.3731721964	 0.226813
H	-1.6853838685	-0.8662905672	-0.8220985753	 0.11029
H	 0.2381291375	-2.9722830188	 0.2107731801	 0.181231
H	 0.1345518606	-2.4935658176	-1.524286756	 0.136474
35.99	97.3413	171.4405	196.9451	235.9991	263.2084	311.7383	315.0387	366.7279	457.3367	524.147	541.4926	594.6103	691.4554	746.7833	805.5989	810.1574	943.5509	962.1793	996.2484	1021.0692	1093.2789	1149.9172	1181.9313	1210.2412	1228.9696	1252.4929	1258.6079	1330.5638	1413.1752	1448.9521	1466.2867	1475.854	1516.0796	1637.2663	1769.5094	1788.7122	3012.6378	3082.6175	3092.0198	3099.6661	3110.196	3147.9855	3602.6241	3724.0924
CN1C(CC1=[NH2+])C([O-])=O	CN1[C@@H](C[C]1N)C(=O)[O]	
InChI=1S/C5H8N2O2/c1-7-3(5(8)9)2-4(7)6/h3,6H,2H2,1H3,(H,8,9)	InChI=1S/C5H8N2O2/c1-7-3(5(8)9)2-4(7)6/h3H,2,6H2,1H3/t3-/m0/s1
