20
gdb 105045	2.671	1.25264	1.15179	3.1888	74.15	-0.2436	0.0706	0.3142	1181.3275	0.169776	-440.23336	-440.224044	-440.2231	-440.267364	35.204	
C	 0.2094996955	 0.9192318506	 1.1441965855	-0.474393
C	-0.0038885613	-0.0430319938	-0.008666434	 0.208928
C	 0.6785073914	 0.2057501351	-1.3031804733	-0.272012
N	 1.115498725	-0.9051053836	-0.4340710775	-0.346012
C	-1.3404765111	-0.746279332	-0.0084260002	 0.351381
C	-1.5254045625	-1.8274962648	 1.0506693378	-0.141996
O	-2.7378542191	-2.5285615332	 0.8832399677	-0.422504
C	-2.5184822156	-0.0833419311	-0.5808907191	-0.224803
O	-1.8540121518	-1.145561537	-1.2881430023	-0.28485
H	 1.1761311386	 1.4242097762	 1.0502439198	 0.117517
H	-0.5705809861	 1.6876207128	 1.1695548094	 0.128629
H	 0.1952457753	 0.4007880006	 2.1093514613	 0.129966
H	 0.199161457	-0.1065531558	-2.224304642	 0.136845
H	 1.310287661	 1.0873740885	-1.3789150982	 0.106475
H	 1.9618892747	-0.6411275216	 0.0654363918	 0.226541
H	-0.6534382716	-2.497130863	 1.0000445826	 0.114691
H	-1.5480264916	-1.3800029605	 2.0503596486	 0.110205
H	-2.7768065588	-2.7535004423	-0.0557755309	 0.291994
H	-3.5055947847	-0.3353244778	-0.2020291435	 0.130065
H	-2.4129791643	 0.9004704928	-1.0349842436	 0.113333
60.7815	118.8072	179.9982	202.4643	231.0997	274.9384	316.3499	348.9826	356.7483	462.823	491.1097	508.9909	538.5484	672.08	792.3976	852.1696	858.3007	905.2419	931.1416	945.2786	977.3597	1003.0847	1045.3753	1069.7701	1091.5025	1122.2623	1130.3819	1150.1502	1171.757	1190.8285	1228.4332	1274.3835	1328.0257	1359.6558	1378.1886	1414.7158	1422.3501	1440.982	1484.3111	1497.8464	1505.8836	1509.9334	1516.2252	2996.1466	3028.2995	3068.6821	3092.6707	3096.2795	3103.1971	3113.755	3192.8079	3212.4775	3488.9253	3767.9841
CC1(CN1)C1(CO)CO1	C[C@]1(CN1)[C@@]1(CO)CO1	
InChI=1S/C6H11NO2/c1-5(2-7-5)6(3-8)4-9-6/h7-8H,2-4H2,1H3	InChI=1S/C6H11NO2/c1-5(2-7-5)6(3-8)4-9-6/h7-8H,2-4H2,1H3/t5-,6+/m0/s1
