22
gdb 105178	2.15693	1.02687	0.79044	1.6557	93.49	-0.2241	0.0466	0.2706	1585.5003	0.191639	-367.178142	-367.166945	-367.166001	-367.216103	39.316	
C	 0.1301108649	 1.4969689397	-0.3661797125	-0.378809
C	 0.0346566538	 0.1056586471	 0.2676613792	-0.247031
C	-1.366213766	-0.4848744315	 0.1671742795	 0.130004
N	-1.7314878176	-1.0229239262	-1.1730936716	-0.37077
C	-1.6161938022	-1.9535759108	-0.0432606892	-0.038461
C	-0.5398528784	-3.0103621134	-0.1095843185	-0.403465
C	-2.3870228473	 0.2370453943	 0.8916585774	 0.030635
C	-3.2305653033	 0.8560708675	 1.4914504464	 0.087284
C	-4.2513457242	 1.5971622356	 2.2186104236	-0.501832
H	 1.1469696667	 1.8931828965	-0.2874396297	 0.106901
H	-0.1379600384	 1.4507984501	-1.4260850351	 0.127332
H	-0.5481808649	 2.2011058878	 0.1250950293	 0.122521
H	 0.7382195822	-0.5677747549	-0.2281069322	 0.102774
H	 0.320698044	 0.1508330765	 1.3253493863	 0.098615
H	-2.7078574351	-0.8176211493	-1.3682410192	 0.233003
H	-2.5509041948	-2.3044173713	 0.39185248	 0.085515
H	 0.3560120512	-2.644592505	-0.614202918	 0.130202
H	-0.2644371595	-3.3520943673	 0.8939179499	 0.11889
H	-0.903687363	-3.8776427937	-0.6715049568	 0.120875
H	-4.9752951604	 0.9234526165	 2.6904889739	 0.147501
H	-3.8052542854	 2.2087569068	 3.010692261	 0.150227
H	-4.8070800222	 2.2702528651	 1.5560214961	 0.148087
16.6566	72.1429	95.3509	103.028	144.9789	202.3023	222.2737	253.6571	271.7273	320.1851	353.9381	394.0135	491.9237	539.8613	571.4588	610.0972	763.4055	801.4216	855.5108	890.4175	967.0232	1002.8458	1041.9575	1051.2931	1053.0884	1070.7412	1093.428	1102.9253	1119.435	1156.3859	1244.9806	1270.6629	1311.3149	1341.8482	1373.7149	1404.512	1407.0389	1414.8705	1452.0218	1473.3649	1477.2788	1479.1318	1489.3296	1495.7409	1500.0881	1510.0511	2358.4042	3024.7565	3035.6186	3039.2257	3039.3328	3083.764	3086.7982	3091.9991	3094.7825	3109.9929	3111.9254	3117.8622	3137.9959	3507.7151
CCC1(NC1C)C#CC	CC[C@]1(N[C@H]1C)C#CC	
InChI=1S/C8H13N/c1-4-6-8(5-2)7(3)9-8/h7,9H,5H2,1-3H3	InChI=1S/C8H13N/c1-4-6-8(5-2)7(3)9-8/h7,9H,5H2,1-3H3/t7-,8-/m0/s1
