21
gdb 100170	2.02879	1.35825	1.1217	2.9396	78.85	-0.2461	-0.0403	0.2059	1245.5508	0.177473	-424.260613	-424.249409	-424.248465	-424.297537	39.19	
C	 0.1611564149	 1.6334041206	 0.1274010047	-0.4178
C	 0.022455847	 0.1112167369	 0.0112620275	-0.182539
C	-1.4278866129	-0.4509284404	 0.055378236	 0.03744
C	-2.1493513022	-0.0570432807	 1.3628311458	-0.45012
C	-2.1761534745	 0.1215449088	-1.143065037	 0.150164
O	-2.1850873529	-0.3678424381	-2.2442823093	-0.265614
C	-1.36335642	-2.0004493429	-0.0081125337	 0.385504
C	-2.6136663203	-2.7538301942	-0.4199134943	-0.486986
O	-0.3505393619	-2.5859810913	 0.2925949972	-0.304673
H	 1.2182148802	 1.910992158	 0.0779040878	 0.126225
H	-0.3503820197	 2.1628504136	-0.6832593378	 0.120925
H	-0.2295574958	 2.0149784065	 1.0755313599	 0.120336
H	 0.4793991334	-0.2287756597	-0.9239475297	 0.121228
H	 0.5771430654	-0.3828741419	 0.8134310343	 0.124688
H	-2.3140889603	 1.0236033078	 1.4072581856	 0.130864
H	-3.1266505721	-0.5411253251	 1.4516183642	 0.126874
H	-1.5494550393	-0.3450021645	 2.2305525155	 0.140534
H	-2.7066685027	 1.0813271083	-0.945276509	 0.081197
H	-2.6754316201	-2.7400642035	-1.5124178545	 0.175036
H	-2.5419119246	-3.7860257225	-0.0749712126	 0.141108
H	-3.5289367717	-2.2894137756	-0.0418758407	 0.12561
44.7498	64.7725	78.7477	138.077	180.8001	200.5624	206.1127	245.9568	286.9521	301.6884	337.1275	355.2631	419.3778	533.4446	571.7504	634.6291	685.275	775.3726	841.0126	919.9806	963.1474	983.1705	995.8429	1022.8054	1046.3995	1082.6539	1135.7696	1174.0583	1218.5389	1237.3646	1313.7798	1360.6028	1379.6016	1400.9219	1414.1628	1431.7798	1466.8839	1471.9912	1477.3592	1494.0562	1500.1826	1503.9687	1511.946	1806.9448	1819.6692	2863.3771	3038.4436	3042.501	3050.7869	3055.1341	3090.8266	3107.1709	3109.5101	3115.1312	3118.7123	3120.8106	3154.1694
CCC(C)(C=O)C(C)=O	CC[C@@](C)(C=O)C(=O)C	
InChI=1S/C7H12O2/c1-4-7(3,5-8)6(2)9/h5H,4H2,1-3H3	InChI=1S/C7H12O2/c1-4-7(3,5-8)6(2)9/h5H,4H2,1-3H3/t7-/m0/s1
