18
gdb 63422	3.19317	1.20046	1.10602	4.4886	77.82	-0.2655	-0.0115	0.2541	1171.2776	0.146146	-401.971932	-401.963017	-401.962072	-402.005642	33.309	
C	 0.1395727439	 1.528552392	-0.0891728944	-0.411282
C	-0.11958521	 0.028406935	 0.0817982104	 0.313254
C	-1.6219828611	-0.2768569749	 0.1540568301	-0.40689
O	 0.4454264189	-0.6475895894	-1.0733930078	-0.288103
C	 1.3282638833	-1.6790732115	-0.6712947068	-0.082205
C	 1.4592520804	-1.5306187611	 0.8299817088	-0.102798
C	 0.6421359406	-0.571558328	 1.239587765	-0.102866
C	 0.7997174292	-3.0119978485	-1.0485468975	 0.271637
N	 0.3993483277	-4.0575425901	-1.3342959317	-0.324636
H	 1.2123035075	 1.7287286525	-0.1493233571	 0.122798
H	-0.333348978	 1.8863709443	-1.0081862126	 0.131343
H	-0.2754730004	 2.0919179072	 0.7524883771	 0.117038
H	-2.1203759657	 0.0872544115	-0.7488326995	 0.130483
H	-1.792434472	-1.3532576267	 0.2353893635	 0.134649
H	-2.0766877069	 0.2143245745	 1.0204653069	 0.115528
H	 2.2901141607	-1.5553737716	-1.1904196771	 0.132528
H	 2.1147309698	-2.1527922435	 1.4237198208	 0.131114
H	 0.501929702	-0.2379948717	 2.260147782	 0.11841
49.7232	129.3875	200.2025	210.04	249.2186	270.3241	331.5682	371.1491	386.2753	488.8801	520.265	581.233	644.3005	753.9648	800.1421	825.61	875.4707	917.0763	928.3399	958.2841	961.6296	1011.5591	1015.3303	1069.0251	1119.3837	1197.053	1199.8945	1244.7651	1296.7975	1349.5334	1357.2428	1395.7544	1415.7586	1475.6025	1480.7551	1495.8916	1504.3765	1694.2676	2353.9502	2998.8269	3039.3269	3044.099	3112.1516	3118.4564	3125.1999	3127.9311	3212.9932	3241.4741
CC1(C)OC(C=C1)C#N	CC1(C)O[C@@H](C=C1)C#N	
InChI=1S/C7H9NO/c1-7(2)4-3-6(5-8)9-7/h3-4,6H,1-2H3	InChI=1S/C7H9NO/c1-7(2)4-3-6(5-8)9-7/h3-4,6H,1-2H3/t6-/m0/s1
