18
gdb 81301	2.79371	1.55697	1.25801	2.1503	73.22	-0.2531	0.0304	0.2836	1031.7395	0.149917	-439.084038	-439.076496	-439.075551	-439.115899	29.833	
O	-0.0619039039	 1.3732403324	 0.0573737754	-0.452731
C	-0.0028365307	-0.0344820675	 0.0251302158	 0.149089
C	-1.427030719	-0.6095937498	-0.1459590135	-0.055467
C	-1.2505369847	-0.434715745	-1.6785505819	-0.241408
C	 0.2709020768	-0.6251446522	-1.3981808571	-0.133227
C	 0.5608307847	-2.0910210714	-1.2501699542	 0.412264
N	 1.5561118984	-2.648463054	-1.7979504341	-0.537939
O	-0.3284958025	-2.7907767174	-0.4804699122	-0.268785
C	-1.3962902457	-2.0930582013	 0.1919480171	-0.088964
H	 0.829776893	 1.7129899902	-0.0725435096	 0.287318
H	 0.6053575135	-0.4308735475	 0.8504419547	 0.074554
H	-2.2450781391	-0.1039359103	 0.3714948404	 0.085132
H	-1.7407097465	-1.1531157185	-2.3397491018	 0.106899
H	-1.4684153419	 0.5840041955	-1.9955086187	 0.123092
H	 1.0178731015	-0.155710823	-2.0366210067	 0.089623
H	 1.5713091588	-3.6445475786	-1.5676073869	 0.217115
H	-1.2562521268	-2.2476844486	 1.26876783	 0.115537
H	-2.3311928958	-2.5810034529	-0.1060039368	 0.117897
112.0993	173.8693	250.0945	293.9549	327.6943	370.6618	431.056	449.0658	513.1137	662.0291	688.3481	780.2623	858.8899	886.3152	890.408	899.7018	925.6729	954.1323	967.2514	1021.741	1069.6065	1075.6079	1100.912	1126.3432	1138.9622	1167.0001	1196.869	1232.2299	1249.7629	1277.432	1295.9655	1315.6177	1323.5413	1340.6613	1422.7223	1433.2858	1491.5422	1516.0274	1755.477	3000.0461	3026.6207	3068.0441	3076.4547	3095.7235	3130.3157	3152.0951	3460.1653	3810.5951
OC1C2CC1C(=N)OC2	O[C@H]1[C@H]2C[C@@H]1[C]([NH])OC2	
InChI=1S/C6H9NO2/c7-6-4-1-3(2-9-6)5(4)8/h3-5,7-8H,1-2H2	InChI=1S/C6H9NO2/c7-6-4-1-3(2-9-6)5(4)8/h3-5,7-8H,1-2H2/t3-,4-,5-/m0/s1
