21
gdb 73720	2.59535	1.85906	1.38244	1.4302	81.64	-0.2321	0.0927	0.3248	1017.013	0.185007	-387.068545	-387.061036	-387.060092	-387.099873	31.148	
C	 0.0095226039	 1.4439436653	 0.0386417663	-0.466691
C	-0.0092856234	-0.073517473	 0.0238405281	 0.307941
C	 1.0766285325	-0.6596737709	-0.8698801632	-0.141409
O	 1.0697138859	-2.0700735905	-0.9951163248	-0.246749
C	-0.2189748634	-2.6200343791	-1.2192155674	-0.089843
C	-1.1642387195	-2.2408651478	-0.0850935377	-0.051784
C	-0.4730835654	-2.236468393	 1.3211856295	-0.24806
C	-0.5109335727	-0.7052144381	 1.3094923381	-0.097676
C	-1.3670819197	-0.7137350637	 0.0364063823	-0.114306
H	 0.9463190774	 1.8264872788	 0.4608049065	 0.11764
H	-0.0903055421	 1.8512081777	-0.9741357086	 0.116405
H	-0.8137182179	 1.8425984345	 0.6394435577	 0.117702
H	 0.9726945741	-0.1954052035	-1.8682183995	 0.080502
H	 2.0728578948	-0.4013976708	-0.4918917957	 0.104156
H	-0.6263453453	-2.2863577606	-2.1895693746	 0.083026
H	-0.067458228	-3.7033270055	-1.2683043309	 0.103344
H	-2.0890714593	-2.8194108324	-0.1297371061	 0.070243
H	-1.1399893942	-2.6365028731	 2.0893417184	 0.096123
H	 0.5014099015	-2.7234761316	 1.3975620976	 0.106919
H	-0.6368588918	-0.0874458457	 2.1920666449	 0.077721
H	-2.2784119674	-0.1716353973	-0.1893434909	 0.074794
185.2937	217.2293	254.251	295.3222	317.1885	366.4665	397.3152	472.6301	526.6616	612.4882	728.452	738.6952	820.2908	844.7722	860.1103	897.9156	918.5183	962.9583	983.6922	1006.759	1031.5155	1035.0971	1057.0305	1066.8949	1084.2643	1120.9081	1128.6295	1153.5255	1194.192	1229.7601	1255.6728	1271.5219	1285.6923	1289.9144	1322.624	1334.7058	1382.2852	1413.462	1415.0744	1439.6365	1487.8206	1489.9862	1494.0549	1497.899	1507.1359	2931.2926	2957.0949	3022.7307	3051.339	3059.9086	3069.0894	3081.8378	3088.4993	3100.5383	3114.4618	3161.6198	3174.1002
CC12COCC3CC1C23	C[C@@]12COC[C@H]3C[C@@H]1[C@@H]23	
InChI=1S/C8H12O/c1-8-4-9-3-5-2-6(8)7(5)8/h5-7H,2-4H2,1H3	InChI=1S/C8H12O/c1-8-4-9-3-5-2-6(8)7(5)8/h5-7H,2-4H2,1H3/t5-,6-,7+,8-/m1/s1
