17
gdb 127415	3.11983	1.75752	1.15951	4.1494	74.44	-0.2093	0.0292	0.2385	1027.2525	0.140164	-414.209506	-414.202103	-414.201159	-414.241485	27.456	
C	-0.1265542859	 1.5203690309	-0.0488062069	-0.342668
N	 0.1663553347	 0.1019508634	 0.0241500225	-0.183653
C	 0.7807558828	-0.5596433856	-1.1454232869	-0.178918
C	 1.3656449362	-1.8908853336	-0.5842106702	-0.188692
N	 1.5308936702	-1.5041725155	 0.8004982849	 0.01567
N	 2.0241791459	-2.0965911939	 1.9268856096	-0.281005
C	 1.5994067748	-1.2505403494	 2.8536997466	 0.025769
N	 0.8387924071	-0.1867931319	 2.4219902207	-0.405798
C	 0.8105128616	-0.4185243493	 1.1259594773	 0.497924
H	 0.7597373944	 2.1209012104	-0.3098443972	 0.115554
H	-0.9019693434	 1.6999717952	-0.7990601938	 0.12824
H	-0.4963478498	 1.8500027143	 0.9238165763	 0.164942
H	 0.0433394885	-0.7275263785	-1.9339925693	 0.126496
H	 1.5902661029	 0.0643124899	-1.5554034534	 0.113223
H	 0.6597293411	-2.7246736101	-0.6792592713	 0.133009
H	 2.3085684575	-2.1688755496	-1.0590618348	 0.139104
H	 1.8472494714	-1.3934331466	 3.8953443559	 0.120803
133.1756	152.7253	180.1333	213.1496	258.546	350.3321	495.3547	597.4481	654.6696	662.9696	755.2197	772.9229	858.453	895.2825	945.6055	981.6215	1018.5996	1097.3987	1116.8089	1161.3571	1172.3188	1199.9052	1214.1907	1245.1604	1273.9377	1292.009	1302.8771	1349.555	1374.3264	1451.4203	1456.3186	1488.514	1503.0031	1506.2185	1526.0075	1555.7746	1632.7344	2977.5668	2983.5895	3034.7324	3081.6182	3094.8299	3110.6993	3140.3959	3255.6037
CN1CCN2N=CN=C12	CN1CCn2ncnc12	
InChI=1S/C5H8N4/c1-8-2-3-9-5(8)6-4-7-9/h4H,2-3H2,1H3	InChI=1S/C5H8N4/c1-8-2-3-9-5(8)6-4-7-9/h4H,2-3H2,1H3
