15
gdb 76043	2.71898	1.21157	1.05948	1.1624	71.95	-0.249	-0.0487	0.2004	1153.3164	0.10862	-457.712753	-457.703642	-457.702698	-457.74653	33.533	
O	 0.0176442963	 1.3498167285	-0.131651205	-0.416262
C	 0.0505779209	-0.0148238492	 0.0316983447	 0.079772
C	-0.3973745083	-0.6764928868	 1.3272021295	-0.393047
C	-0.8197075667	 0.1010103382	 2.4476420221	 0.351102
C	-1.1645483573	 0.7556492089	 3.3948981563	-0.406477
C	-1.2988887382	-0.7256781449	 0.0679612529	 0.283083
O	-2.3903151825	 0.1252906426	 0.0367961622	-0.466972
C	-1.5047180268	-1.9985758824	-0.642545993	 0.093401
O	-2.5356036858	-2.2245416402	-1.2384865336	-0.28645
H	-0.9139932715	 1.6168197521	-0.1128880734	 0.307637
H	 0.8795979399	-0.4806172995	-0.4929579155	 0.120956
H	 0.0996538842	-1.6155654003	 1.5602316933	 0.125351
H	-1.469565576	 1.3338239684	 4.2315252387	 0.202065
H	-3.0338889599	-0.3167939753	-0.5420325644	 0.307107
H	-0.6670445382	-2.72322526	-0.6126654147	 0.098733
78.1568	125.8161	131.828	211.9724	265.3408	305.3793	341.6813	360.0794	396.0317	426.3544	449.5067	595.4652	634.2369	655.6259	662.239	672.0299	757.4829	796.2247	876.9734	1016.3368	1028.6582	1038.0852	1083.4894	1123.5097	1210.7287	1311.0453	1333.9082	1355.3111	1383.9899	1431.1432	1464.9167	1780.8607	2242.0836	2940.5801	3129.9666	3155.868	3505.0721	3678.2161	3722.4694
OC1C(C#C)C1(O)C=O	O[C@H]1[C@@H](C#C)[C@]1(O)C=O	
InChI=1S/C6H6O3/c1-2-4-5(8)6(4,9)3-7/h1,3-5,8-9H	InChI=1S/C6H6O3/c1-2-4-5(8)6(4,9)3-7/h1,3-5,8-9H/t4-,5+,6-/m1/s1
