19
gdb 85525	2.40078	1.66668	1.12528	4.9095	76.16	-0.2342	0.0396	0.2738	1110.1507	0.161791	-419.23423	-419.226133	-419.225189	-419.266979	31.467	
C	 0.2646059394	 1.5515688421	-0.006465129	-0.403362
C	-0.0162054356	 0.0460238352	 0.0289788588	 0.055653
N	 0.48258612	-0.5750594432	-1.1910555609	-0.313897
C	 1.0730529906	-1.7950611048	-1.3660040225	 0.394135
O	 1.4649961749	-2.162175598	-2.4583045389	-0.381371
C	 1.1789638298	-2.6892773789	-0.1358530476	-0.325833
C	 1.1832764598	-1.9539095185	 1.181912477	-0.04232
N	 2.0548717224	-0.7653353293	 1.2557159395	-0.329377
C	 0.5930909882	-0.5994631882	 1.2593624173	-0.031377
H	 1.3432864963	 1.7292202948	-0.011111712	 0.145473
H	-0.1734171772	 2.0118663933	-0.8986160306	 0.115924
H	-0.171829149	 2.0433790273	 0.8684208434	 0.117236
H	-1.1064507488	-0.1023160883	 0.1013124901	 0.083408
H	 0.4402805064	-0.028649465	-2.0396162254	 0.241544
H	 0.3272006758	-3.3816415037	-0.1623808872	 0.126959
H	 2.0811211918	-3.2937643175	-0.2634746758	 0.136916
H	 1.116022255	-2.5815825395	 2.0680570824	 0.088434
H	 2.4243899593	-0.6535242776	 2.1954197659	 0.234468
H	 0.1114399009	-0.3019184102	 2.1882807557	 0.087386
81.9452	104.3101	222.7305	266.2311	317.1717	348.2278	450.7424	468.4376	503.202	509.7343	619.7981	654.262	699.8456	786.7968	828.7789	865.0749	878.7891	934.6353	975.1948	1002.8301	1020.5826	1055.0478	1095.2422	1115.636	1162.4088	1168.4419	1210.2903	1230.3995	1274.479	1329.9686	1346.3169	1357.4579	1382.4325	1403.3979	1418.4911	1451.74	1458.6977	1486.9545	1499.035	1508.6763	1788.4119	2958.0655	3034.9366	3036.3637	3097.6057	3103.5759	3123.4935	3127.3715	3135.2088	3514.8385	3603.792
CC1NC(=O)CC2NC12	C[C@H]1NC(=O)C[C@H]2N[C@@H]12	
InChI=1S/C6H10N2O/c1-3-6-4(8-6)2-5(9)7-3/h3-4,6,8H,2H2,1H3,(H,7,9)	InChI=1S/C6H10N2O/c1-3-6-4(8-6)2-5(9)7-3/h3-4,6,8H,2H2,1H3,(H,7,9)/t3-,4-,6+/m1/s1
