19
gdb 58796	3.48739	1.07555	0.96899	4.0556	76.64	-0.239	-0.0069	0.2321	1262.5367	0.157656	-423.019079	-423.010106	-423.009162	-423.052861	34.021	
C	 0.0757712526	 1.5283035027	 0.1142613213	-0.414914
C	 0.0023725148	 0.014281329	-0.0940038698	 0.004397
O	 0.8334681892	-0.6838860731	 0.8274769038	-0.423821
C	-1.4196961738	-0.4966941647	-0.0451222669	 0.371737
C	-2.0992811348	-0.976094165	 1.1857646593	-0.339324
C	-1.8769967077	-1.9797092255	 0.0536007579	-0.225053
C	-2.8600718102	-1.7168320374	-1.0415957832	 0.430898
O	-3.5367616877	-2.4193230919	-1.7378710657	-0.319465
C	-2.4859470984	-0.209152783	-1.1197988596	-0.436838
H	 1.1140014743	 1.8667546481	 0.0577320541	 0.128442
H	-0.5054891134	 2.0613821593	-0.6441039327	 0.129352
H	-0.3295907664	 1.8030146718	 1.0960760046	 0.113714
H	 0.4155756748	-0.2262173356	-1.0825499833	 0.095169
H	 0.7325666433	-0.2672439058	 1.6898706798	 0.283152
H	-1.4624262965	-1.1745284349	 2.041591602	 0.11839
H	-3.1031221101	-0.6453073745	 1.4379818677	 0.119506
H	-1.2995049886	-2.880256434	 0.2190316727	 0.117931
H	-3.2547425008	 0.5303179674	-0.8774468322	 0.11713
H	-2.0720324704	 0.0134356072	-2.1089624796	 0.129598
65.1125	94.9739	171.8628	241.173	269.3996	289.1725	319.7035	370.0076	435.4067	479.4447	500.843	560.6744	645.9727	684.2275	784.5376	822.7768	887.7913	927.5503	957.4747	972.0744	978.742	1038.6982	1053.7157	1070.4547	1091.3165	1102.0646	1120.1061	1130.1896	1206.8843	1220.4125	1250.0744	1302.6328	1363.7708	1392.7231	1403.2753	1414.212	1456.011	1492.3155	1494.0438	1498.4686	1881.6019	3020.8074	3029.2135	3049.6859	3099.2932	3103.2549	3116.1798	3121.0725	3201.8326	3208.8263	3810.7272
CC(O)C12CC1C(=O)C2	C[C@@H](O)[C@]12C[C@H]1C(=O)C2	
InChI=1S/C7H10O2/c1-4(8)7-2-5(7)6(9)3-7/h4-5,8H,2-3H2,1H3	InChI=1S/C7H10O2/c1-4(8)7-2-5(7)6(9)3-7/h4-5,8H,2-3H2,1H3/t4-,5+,7-/m1/s1
