15
gdb 7338	4.7895	1.11783	0.91668	0.6168	59.59	-0.2433	-0.0645	0.1788	1212.1309	0.116251	-436.966795	-436.957737	-436.956793	-437.001235	30.724	
C	 0.0093333448	 1.3809163249	-0.0393386074	-0.226562
O	-0.0003390926	-0.0285500446	 0.0026239698	-0.220214
C	 0.6290349374	-0.6035357882	-1.100077606	-0.150265
C	 0.5819472955	-2.1117444803	-0.99015716	 0.263824
O	 0.0738564597	-2.7193893307	-0.0803271732	-0.287527
C	 1.254886681	-2.8530259109	-2.1676914395	 0.328406
N	 1.188886191	-4.193520627	-2.0286302208	-0.520595
O	 1.7699859721	-2.2463188833	-3.0887441486	-0.352433
H	 1.0347528096	 1.7820416958	-0.0474726748	 0.109072
H	-0.5178100131	 1.7665471558	-0.9258261413	 0.109072
H	-0.5023900054	 1.7327411945	 0.8589669205	 0.134642
H	 0.1602082278	-0.3171992	-2.058177711	 0.130415
H	 1.6873089329	-0.3020212895	-1.1944723653	 0.130419
H	 0.7331597512	-4.5734139871	-1.2142539532	 0.281151
H	 1.590821118	-4.7952586393	-2.7270227194	 0.270596
63.9302	84.0689	96.6985	137.195	233.9035	279.334	315.5956	339.4429	390.0052	416.5435	526.0759	615.2526	635.0537	728.7729	832.6103	991.8103	1003.9216	1082.5196	1108.6347	1173.6938	1182.8293	1232.0139	1242.8315	1361.237	1414.5803	1454.6151	1486.6049	1488.021	1511.5512	1589.1371	1799.0874	1825.007	2958.2605	2976.3194	2976.351	3021.5592	3123.0153	3594.1897	3736.1495
COCC(=O)C(N)=O	COCC(=O)C(=O)N	
InChI=1S/C4H7NO3/c1-8-2-3(6)4(5)7/h2H2,1H3,(H2,5,7)	InChI=1S/C4H7NO3/c1-8-2-3(6)4(5)7/h2H2,1H3,(H2,5,7)
