20
gdb 82825	2.27274	1.99903	1.47872	2.3441	77.52	-0.202	0.0726	0.2745	982.041	0.171358	-403.086918	-403.078896	-403.077951	-403.118927	32.136	
C	-0.312629237	 1.557165281	 0.0209291158	-0.432213
C	 0.0404305817	 0.0815383569	 0.0199100657	 0.015423
N	 1.0167664655	-0.4365489485	-1.0148456774	-0.168466
C	 2.3118995911	 0.3285466651	-1.0131186187	-0.174493
C	 2.8201609452	-0.398590116	 0.2432096471	-0.045581
C	 2.1543036658	 0.1347636395	 1.5409940476	-0.312701
C	 0.8347472477	-0.5939890761	 1.1650724607	 0.367026
O	 0.1335667583	-1.2566057045	 2.1775744987	-0.483096
C	 1.6053416238	-1.3619937297	 0.0498720634	-0.039707
H	 0.5387715119	 2.2006450963	 0.2599230995	 0.117274
H	-0.6958256832	 1.8562666726	-0.960658226	 0.130601
H	-1.0969559093	 1.756509333	 0.7592985768	 0.115966
H	-0.8760140723	-0.5055155714	-0.1203399626	 0.086748
H	 2.8770187006	 0.0552381057	-1.9102504308	 0.106965
H	 2.2261470683	 1.4194843608	-0.9814083492	 0.096323
H	 3.8664516722	-0.7017665958	 0.2957766627	 0.068973
H	 2.5819614625	-0.357109639	 2.4197761246	 0.108471
H	 2.137167524	 1.2169494169	 1.7070180554	 0.089242
H	-0.0997164811	-0.6143922923	 2.8571743427	 0.277357
H	 1.6155496143	-2.4389778945	-0.1087434061	 0.075888
135.2664	182.8929	192.9585	242.5677	272.8559	339.8383	411.7	440.5016	551.8652	570.84	605.6868	708.8044	771.074	814.7849	861.8404	884.1224	897.1025	927.2805	944.2947	963.266	988.0765	1025.2979	1049.1733	1108.6232	1131.5718	1143.7219	1151.7869	1175.8734	1196.9856	1203.3153	1211.3762	1232.3028	1255.3761	1293.2689	1314.7268	1327.5296	1362.934	1393.8541	1407.2468	1476.3022	1485.9289	1501.5069	1511.3036	3022.1756	3034.2794	3037.4992	3041.5263	3081.4721	3092.824	3098.4089	3100.7351	3114.7544	3129.7988	3796.5586
CC1N2CC3CC1(O)C23	C[C@H]1N2C[C@H]3C[C@]1(O)[C@@H]23	
InChI=1S/C7H11NO/c1-4-7(9)2-5-3-8(4)6(5)7/h4-6,9H,2-3H2,1H3	InChI=1S/C7H11NO/c1-4-7(9)2-5-3-8(4)6(5)7/h4-6,9H,2-3H2,1H3/t4-,5-,6+,7-/m1/s1
