18
gdb 15970	2.95497	1.79866	1.29444	2.8697	72.69	-0.2443	-0.0238	0.2205	976.8136	0.153039	-347.787591	-347.77967	-347.778726	-347.820874	29.181	
O	 0.5951828159	-0.2456437238	-0.0269928758	-0.256121
C	 0.3296893367	 0.9219245699	 0.1077794084	 0.158172
C	 1.2994898296	 2.0596242841	-0.0520275249	-0.139761
C	 0.7557167972	 3.3197806462	-0.8018798253	-0.240533
C	 1.221477709	 4.2301828344	 0.3693566549	-0.297897
C	 1.4963104004	 2.964555729	 1.1906386873	 0.353548
C	 1.0006782871	 2.6845765115	 2.5850935427	-0.325715
C	 2.4813705092	 2.7780120523	 2.3033337189	-0.316776
H	-0.7021084396	 1.2466111939	 0.3846304596	 0.06808
H	 2.2396899657	 1.6746967089	-0.4546374375	 0.088841
H	 1.1964334643	 3.5083215712	-1.7818819399	 0.113205
H	-0.3327129137	 3.2942942905	-0.9102062486	 0.108957
H	 2.1284730981	 4.796859774	 0.1376198196	 0.106688
H	 0.4751663988	 4.9211818369	 0.7708032758	 0.103625
H	 0.5260996934	 3.4991420721	 3.1231486632	 0.115117
H	 0.5887159302	 1.7057394949	 2.8084784232	 0.123483
H	 3.0619107003	 1.8611050941	 2.3247663294	 0.121964
H	 3.0172668772	 3.6552582698	 2.6523599791	 0.115122
47.6531	52.6499	198.6292	246.9851	309.9077	344.8641	438.3662	454.3989	544.7842	728.8143	775.1451	822.2161	853.5305	889.2662	895.4785	928.6101	952.1067	982.3609	1034.0849	1055.803	1061.0362	1080.9677	1129.5284	1153.7035	1189.4294	1210.6602	1238.5316	1244.4732	1267.3578	1271.683	1308.7607	1362.3681	1428.0652	1463.0448	1476.9146	1495.4149	1501.1033	1824.7746	2843.8259	3047.9567	3058.911	3080.9234	3094.5862	3121.92	3124.2929	3125.5935	3200.2803	3214.754
O=CC1CCC11CC1	O=C[C@H]1CCC21CC2	
InChI=1S/C7H10O/c8-5-6-1-2-7(6)3-4-7/h5-6H,1-4H2	InChI=1S/C7H10O/c8-5-6-1-2-7(6)3-4-7/h5-6H,1-4H2/t6-/m1/s1
