13
gdb 125792	3.5663	1.65553	1.13865	1.8338	64.94	-0.2493	-0.0231	0.2263	983.0871	0.09069	-452.736378	-452.729707	-452.728762	-452.767569	25.044	
C	-0.0141045505	 1.5219725975	-0.0187437268	-0.499639
C	-0.0073478038	 0.0318359337	 0.0594927525	 0.277686
N	-0.043743885	-0.6728551276	-1.0581445253	-0.20662
O	-0.0278415602	-2.0789701504	-0.6947784532	-0.24358
C	 0.017568342	-2.069024718	 0.6174287495	 0.483594
C	 0.033945936	-0.8405243457	 1.1858606137	 0.065317
N	 0.0820474776	-0.9989571516	 2.5703743517	-0.329193
C	 0.0910986714	-2.2805736804	 2.7185401699	 0.037229
O	 0.0517446554	-3.0386853476	 1.5387880201	-0.20841
H	 0.8848454957	 1.9337671649	 0.4504760523	 0.150776
H	-0.0528290174	 1.8446493712	-1.0604019131	 0.156272
H	-0.8786095591	 1.9291845604	 0.5147620613	 0.150755
H	 0.1240855378	-2.8595739264	 3.6271212772	 0.165813
139.2853	180.3793	247.0188	265.5036	405.2349	528.8464	606.3466	622.1305	640.7441	690.2603	754.0423	769.1683	807.6419	848.557	904.1968	1013.5093	1024.2482	1063.9607	1124.8617	1235.4466	1320.9211	1411.1189	1424.4757	1478.0647	1479.9169	1510.0761	1526.4091	1558.5665	1635.7596	3047.8825	3107.4466	3146.5045	3289.7879
CC1=NOC2=C1N=CO2	Cc1noc2c1nco2	
InChI=1S/C5H4N2O2/c1-3-4-5(9-7-3)8-2-6-4/h2H,1H3	InChI=1S/C5H4N2O2/c1-3-4-5(9-7-3)8-2-6-4/h2H,1H3
