19
gdb 89698	3.72746	1.21473	1.1057	4.019	80.72	-0.2232	0.0251	0.2484	1147.5419	0.161235	-382.058716	-382.050862	-382.049918	-382.09083	30.973	
C	 0.0600184874	 1.4525338588	-0.0753003301	-0.330353
N	-0.014419713	 0.0104022235	 0.0872616496	-0.062483
C	-1.3854667066	-0.520467233	 0.3179054563	-0.210203
C	-1.1202420945	-1.3695667557	 1.586703369	 0.196848
C	-0.29286997	-0.3603673616	 2.4535173941	-0.270267
C	 0.6981385088	-0.5319094195	 1.2604288317	-0.012272
C	 0.2596081243	-2.0150675536	 1.2186561329	-0.254239
C	-2.2210613504	-2.1341289941	 2.1239068973	 0.159745
N	-3.1002618784	-2.7473522197	 2.5580613116	-0.343806
H	 1.1039430234	 1.748186244	-0.2208557225	 0.123328
H	-0.4955680976	 1.7453902666	-0.9714735102	 0.127783
H	-0.3450017642	 2.0308573921	 0.7751134475	 0.09561
H	-2.1170114094	 0.2729631296	 0.512182352	 0.110452
H	-1.7389541474	-1.1243106773	-0.5237004551	 0.120382
H	-0.7335547664	 0.6214850903	 2.6383628941	 0.111302
H	 0.0583843791	-0.8070755251	 3.3843177407	 0.120356
H	 1.7429656486	-0.2298337003	 1.3114011525	 0.080841
H	 0.6640512257	-2.615867318	 2.0334390999	 0.119115
H	 0.3334071605	-2.5325824267	 0.2609432188	 0.117861
128.0474	144.8141	210.6601	222.112	328.0374	400.7102	478.6545	492.3128	511.9993	547.194	558.212	636.5864	795.414	828.8582	847.531	904.3317	940.4414	967.1524	980.1397	1003.2895	1028.0681	1077.738	1096.532	1157.7524	1159.5757	1167.468	1188.5629	1216.6991	1219.4598	1233.5353	1245.4094	1263.3629	1311.6139	1360.1474	1456.554	1476.8949	1491.9507	1502.3161	1506.3832	1529.0513	2352.849	2939.0132	3027.4233	3063.4358	3074.8333	3077.2559	3084.1032	3105.1149	3135.2057	3143.5121	3155.4706
CN1CC2(CC1C2)C#N	CN1C[C@@]2(C[C@H]1C2)C#N	
InChI=1S/C7H10N2/c1-9-5-7(4-8)2-6(9)3-7/h6H,2-3,5H2,1H3	InChI=1S/C7H10N2/c1-9-5-7(4-8)2-6(9)3-7/h6H,2-3,5H2,1H3/t6-,7+
