16
gdb 69714	3.98528	1.3693	1.25844	4.7477	68.55	-0.2427	0.0211	0.2638	1014.9271	0.123938	-437.857365	-437.849891	-437.848947	-437.889113	29.052	
C	-0.1473534087	 1.4949443821	 0.0508622428	-0.507207
C	 0.1439164563	 0.0315721517	 0.0118767004	 0.402161
O	-0.7212892857	-0.8705503979	 0.7039136796	-0.268826
C	 0.6822702883	-0.9295057479	 0.9916647998	-0.047769
C	 1.3593335939	-1.7851319034	-0.1123444299	-0.245695
C	 0.7986289576	-0.7862113382	-1.166659461	-0.074531
N	 0.0409208789	-1.8907709129	-1.7452461657	-0.313398
C	 0.4117644518	-2.8226666304	-0.7801954778	 0.43494
O	 0.0905561307	-3.9601283933	-0.5905884164	-0.349883
H	 0.7239205027	 2.0723097732	-0.2747529652	 0.129331
H	-0.982566978	 1.7414580652	-0.6148009547	 0.13403
H	-0.415890639	 1.805783195	 1.0638652913	 0.141237
H	 0.982624298	-0.8134930528	 2.0262770067	 0.115115
H	 2.4195080812	-2.0032245601	-0.0109757311	 0.106799
H	 1.4388860067	-0.225509069	-1.8481199241	 0.09336
H	-0.8254468046	-1.8696152414	-2.2660164048	 0.250335
120.21	178.1674	194.4649	286.9098	290.9703	429.2108	476.2201	495.1173	568.6756	639.751	723.1493	741.9253	791.2427	834.5011	859.9239	893.046	899.6815	975.9585	1001.8326	1014.4893	1046.8209	1101.6127	1127.6399	1133.7085	1177.5015	1205.3562	1231.9558	1252.9855	1308.0305	1349.4514	1405.964	1463.1192	1483.0356	1492.289	1902.6363	3033.6315	3096.5685	3112.5365	3122.6781	3157.7362	3191.2579	3590.6477
CC12OC1C1C2NC1=O	C[C@]12O[C@H]1[C@@H]1[C@H]2NC1=O	
InChI=1S/C6H7NO2/c1-6-3-2(4(6)9-6)5(8)7-3/h2-4H,1H3,(H,7,8)	InChI=1S/C6H7NO2/c1-6-3-2(4(6)9-6)5(8)7-3/h2-4H,1H3,(H,7,8)/t2-,3+,4-,6+/m0/s1
