19
gdb 120199	3.91823	0.91237	0.82866	2.652	73.16	-0.2359	0.059	0.2949	1444.3245	0.156964	-460.072319	-460.06327	-460.062326	-460.10682	33.241	
C	 0.0566454647	 1.5199056176	-0.0365877731	-0.385229
C	-0.1515931199	 0.0255473875	-0.2089124521	-0.044541
O	 0.9182635547	-0.4879175379	-0.9853658544	-0.259508
C	 0.8800377793	-1.8635261736	-1.1462500178	 0.188172
C	 0.0858184941	-2.480860043	-2.3447380301	-0.056826
O	 1.0711232982	-1.8939167486	-3.2732575587	-0.307808
C	 1.8870088597	-2.4397932951	-2.1652825999	-0.031094
C	 1.0325034238	-3.7232653787	-2.2706097215	 0.110117
O	 1.0323977615	-4.5961619046	-1.1770275958	-0.426055
H	 1.0054905932	 1.7182058367	 0.4698083171	 0.127394
H	 0.0774071809	 2.0175163826	-1.0100229898	 0.132354
H	-0.7534567326	 1.9513945826	 0.5589120402	 0.113651
H	-0.1817624067	-0.4796301881	 0.7709995633	 0.087746
H	-1.1136911124	-0.1756128779	-0.706716589	 0.089431
H	 0.7899900117	-2.3975801831	-0.1924731718	 0.086507
H	-0.9678289328	-2.4113490659	-2.6168542364	 0.089901
H	 2.9678155642	-2.3129980127	-2.2192288117	 0.098552
H	 1.1429955386	-4.2188658073	-3.2396897355	 0.094287
H	 0.4181697598	-5.3134319105	-1.361148483	 0.292947
62.1173	71.2981	122.6264	229.1944	244.3566	254.3361	307.1911	354.7742	390.5705	449.311	595.9765	671.5279	778.2345	817.8032	830.8715	866.0455	892.4223	901.0549	921.352	961.8555	1059.7623	1071.1436	1111.5438	1127.0619	1148.9559	1151.8064	1181.7362	1187.6807	1205.8154	1209.1215	1244.1238	1271.1538	1296.8285	1302.482	1384.8877	1405.9185	1420.5752	1453.4588	1483.0581	1500.0099	1528.505	2962.2504	2991.4518	3040.0213	3045.957	3073.719	3115.8377	3120.1278	3124.3736	3131.5888	3825.4789
CCOC1C2OC1C2O	CCO[C@H]1[C@H]2O[C@@H]1[C@H]2O	
InChI=1S/C6H10O3/c1-2-8-6-4-3(7)5(6)9-4/h3-7H,2H2,1H3	InChI=1S/C6H10O3/c1-2-8-6-4-3(7)5(6)9-4/h3-7H,2H2,1H3/t3-,4-,5+,6-
