16
gdb 76784	2.4253	1.60041	1.13877	2.3004	66.55	-0.247	-0.0506	0.1965	1064.3195	0.122764	-474.980998	-474.972282	-474.971338	-475.01527	31.707	
O	-0.2415718845	 1.525522388	-0.1885280996	-0.438501
C	-0.0102437832	 0.1487026008	 0.0043696572	-0.002532
C	-1.323918557	-0.7113678281	 0.0791585152	-0.027932
O	-2.4598821419	-0.002147574	-0.3387402605	-0.430268
C	-0.743837387	-1.6310189318	-1.0215747643	 0.229034
C	-0.7477958883	-3.1236368672	-1.0539634804	-0.29693
N	-1.4856401045	-2.3558408903	-2.0498921069	-0.340263
C	 0.3699016248	-0.6466725765	-1.2702208582	 0.299978
O	 1.1473410881	-0.4119016261	-2.1508970831	-0.306956
H	 0.2490858764	 1.7953305905	-0.9750996078	 0.309362
H	 0.667669593	-0.0308272659	 0.8480410984	 0.109144
H	-1.5128887955	-1.1928003219	 1.0445664416	 0.079769
H	-2.1717873078	 0.9146831585	-0.466888097	 0.295598
H	 0.1232663395	-3.6493174986	-1.4349047016	 0.139103
H	-1.2826363659	-3.6257508872	-0.2506272252	 0.127145
H	-2.4772522261	-2.2981940203	-1.8220451178	 0.254247
24.8569	146.3629	176.829	222.0988	230.2105	270.1994	273.9001	399.96	457.0175	526.8694	561.2786	644.4445	728.3559	784.8293	826.0337	852.2539	902.6308	941.3882	986.7926	1007.2318	1056.5814	1117.0219	1131.315	1136.9645	1150.6469	1238.5915	1246.672	1264.2652	1327.5332	1342.6787	1354.4841	1395.7943	1422.4337	1504.1625	1883.5584	3030.149	3050.6552	3103.0737	3195.6199	3486.3122	3704.256	3780.7979
OC1C(O)C2(CN2)C1=O	O[C@H]1[C@@H](O)[C@]2(CN2)C1=O	
InChI=1S/C5H7NO3/c7-2-3(8)5(1-6-5)4(2)9/h2-3,6-8H,1H2	InChI=1S/C5H7NO3/c7-2-3(8)5(1-6-5)4(2)9/h2-3,6-8H,1H2/t2-,3+,5+/m0/s1
