17
gdb 109662	2.5936	1.1306	1.04745	3.6579	66.62	-0.249	-0.0306	0.2184	1208.6175	0.133001	-496.075738	-496.06617	-496.065226	-496.110154	34.789	
O	 0.0255279497	 1.1574812852	-0.5357516413	-0.423196
C	-0.1347710245	 0.0614713382	 0.3498448119	-0.092602
C	-1.4798245128	-0.6229991806	 0.1812441547	-0.124655
C	-1.8171436623	-1.2797706848	-1.1108979531	 0.009518
O	-0.7957514884	-1.3042358207	-2.0747850916	-0.426147
C	-1.5587554482	-2.1590638765	 0.1201076829	 0.243654
O	-0.3941952487	-2.9181374798	 0.1273197554	-0.470141
C	-2.7277908393	-2.824157213	 0.7390358844	 0.111575
O	-3.8077369135	-2.2950672616	 0.8708647964	-0.278577
H	 0.0153286831	 0.7931254807	-1.42791934	 0.291521
H	 0.673620737	-0.6722550501	 0.2403086925	 0.099283
H	-0.0626362186	 0.4721181174	 1.3607663671	 0.119879
H	-2.3298353009	-0.1660138966	 0.6786462487	 0.126209
H	-2.8334679128	-1.2180521844	-1.4901613169	 0.124579
H	-1.0877683433	-1.841106558	-2.8190171858	 0.308042
H	 0.0245510029	-2.79718085	-0.7363443003	 0.289734
H	-2.5311655195	-3.8683867854	 1.062536835	 0.091325
74.9171	118.5111	138.8772	197.7516	214.8318	232.9921	286.9181	302.6533	355.6289	429.377	474.3508	483.3185	579.3648	639.4943	667.4815	741.1904	753.9599	865.9886	968.5523	1032.3268	1050.184	1060.283	1078.4373	1111.8963	1130.3917	1202.7179	1213.6455	1261.0343	1272.3015	1339.6836	1364.8774	1395.9875	1422.0868	1432.5341	1463.8961	1510.7009	1800.9328	2913.872	3027.569	3090.6764	3148.9241	3166.3342	3739.6347	3804.9214	3818.8647
OCC1C(O)C1(O)C=O	OC[C@H]1[C@@H](O)[C@]1(O)C=O	
InChI=1S/C5H8O4/c6-1-3-4(8)5(3,9)2-7/h2-4,6,8-9H,1H2	InChI=1S/C5H8O4/c6-1-3-4(8)5(3,9)2-7/h2-4,6,8-9H,1H2/t3-,4+,5-/m0/s1
