18
gdb 109989	2.31237	1.38067	0.97843	3.6539	72.89	-0.2621	0.0286	0.2907	1216.0669	0.146836	-439.072566	-439.063354	-439.062409	-439.107069	33.238	
C	-0.064719333	 1.3783835006	-0.192887584	-0.253389
O	-0.087109597	-0.0190016348	 0.0641932475	-0.251905
C	-1.3772597033	-0.5757994	 0.0564853635	 0.080664
C	-1.6611503981	-1.3029319425	-1.3036962656	 0.135227
O	-0.9719786456	-0.8243577409	-2.418911924	-0.428773
C	-1.2011556628	-2.6415616404	-0.6567191286	-0.282587
C	-1.3752297134	-1.9779672371	 0.7463784085	-0.197701
C	-0.3726979322	-2.2326270501	 1.7642868066	 0.293316
N	 0.4240366756	-2.4494811567	 2.5731328854	-0.328572
H	 0.9813954512	 1.6885050988	-0.1503160312	 0.140032
H	-0.4759810267	 1.6162630605	-1.1818106781	 0.127759
H	-0.6321084163	 1.9269051689	 0.5717052658	 0.121788
H	-2.1197273318	 0.1417934741	 0.4251057737	 0.076819
H	-2.7248975878	-1.3096578812	-1.5563922423	 0.097788
H	-0.0644952026	-0.6691391446	-2.1255966709	 0.289881
H	-1.7870066664	-3.5399565864	-0.8549201064	 0.120637
H	-0.1493612007	-2.8407028694	-0.8729418236	 0.130367
H	-2.365337619	-2.1858016087	 1.1615559237	 0.128649
62.0388	88.0546	130.4253	175.2832	207.4491	255.8813	315.3703	376.565	403.5652	472.4973	495.6908	551.2356	653.2664	688.5509	766.3149	843.5617	913.6311	947.4226	1038.4609	1048.7229	1061.0439	1099.0938	1134.2747	1167.0237	1181.4873	1192.9925	1216.0088	1238.5112	1264.4124	1272.4692	1325.4866	1347.3438	1380.3599	1440.3259	1479.211	1481.5848	1487.9365	1512.7369	2359.6208	3000.883	3033.3096	3064.0119	3076.0721	3079.8436	3082.5251	3129.7082	3142.8401	3768.2837
COC1C(O)CC1C#N	CO[C@H]1[C@@H](O)C[C@H]1C#N	
InChI=1S/C6H9NO2/c1-9-6-4(3-7)2-5(6)8/h4-6,8H,2H2,1H3	InChI=1S/C6H9NO2/c1-9-6-4(3-7)2-5(6)8/h4-6,8H,2H2,1H3/t4-,5-,6+/m0/s1
