17
gdb 107610	2.5374	1.60159	1.19467	2.6442	67.77	-0.247	-0.0391	0.2079	1057.0325	0.135956	-458.971406	-458.963341	-458.962396	-459.004183	30.458	
O	 0.5294586322	 0.7447639383	-0.6027931289	-0.418355
C	-0.1764761247	 0.2052560705	 0.4962980164	-0.187313
C	-1.3995583076	-0.5527085627	 0.0411272988	 0.281583
O	-2.1177579211	-1.3341913202	 1.0200327562	-0.293251
C	-1.5722155364	-2.0114536894	-0.1130237634	-0.013848
C	-2.6250073666	-2.3246519844	-1.1648058165	-0.250754
C	-3.3560741866	-0.9782062277	-1.3879123849	-0.331607
C	-2.3595545285	 0.0885961322	-0.9330056107	 0.38153
O	-2.2764281411	 1.2272324569	-1.3319296845	-0.338563
H	-0.0702739253	 1.3733273883	-1.0253373325	 0.300424
H	 0.5016031604	-0.4681053126	 1.0289641354	 0.120717
H	-0.4915281652	 0.9853822703	 1.2061880326	 0.108364
H	-0.7584109318	-2.7006901696	 0.0972483933	 0.111187
H	-2.1311460509	-2.6574811316	-2.0839197913	 0.12232
H	-3.2945832312	-3.1254276277	-0.8389586184	 0.122793
H	-3.6567938512	-0.800201541	-2.4214578414	 0.135397
H	-4.2518099945	-0.9020007197	-0.7631668701	 0.149376
94.1259	115.1318	173.8167	219.3371	277.263	379.6415	450.9263	464.0551	511.9638	558.0639	623.2867	678.5304	700.4257	805.8315	853.4326	866.7443	923.6083	978.1896	1004.8541	1047.9629	1064.3989	1086.8315	1093.7084	1166.0292	1198.8495	1231.1184	1269.9029	1310.9297	1315.0619	1331.2073	1382.5348	1427.4663	1448.264	1462.1377	1488.224	1500.7164	1820.389	2991.6017	3054.1992	3066.2752	3086.4403	3099.0496	3129.79	3153.7275	3771.5271
OCC12OC1CCC2=O	OC[C@]12O[C@H]1CCC2=O	
InChI=1S/C6H8O3/c7-3-6-4(8)1-2-5(6)9-6/h5,7H,1-3H2	InChI=1S/C6H8O3/c7-3-6-4(8)1-2-5(6)9-6/h5,7H,1-3H2/t5-,6+/m0/s1
