25
gdb 101325	2.58248	0.87495	0.76723	1.7019	89.56	-0.2554	0.0726	0.328	1674.8847	0.226669	-389.487836	-389.47667	-389.475726	-389.524685	40.533	
C	 1.5629835273	 1.3859225729	-2.6288529617	-0.394175
C	 1.4681981769	-0.1130380641	-2.3293540866	-0.162692
C	 0.2837166721	-0.8292985528	-3.0097927791	-0.002201
C	 0.3940277131	-0.8459065034	-4.5419356788	-0.405568
C	 0.1924224816	-2.2499957419	-2.4895719791	 0.064521
O	-0.1588532004	-2.4327596835	-1.1126806062	-0.27797
C	-1.0451773598	-2.9565678297	-2.1081124197	 0.06893
C	-2.4435290482	-2.3871069073	-2.1713265208	-0.218484
C	-3.2022161318	-2.8434567226	-3.4234623033	-0.386431
H	 1.7398073187	 1.584673999	-3.6905093353	 0.11544
H	 0.6410963794	 1.9049109885	-2.3424822562	 0.113908
H	 2.3858407371	 1.8423102314	-2.0698551802	 0.113748
H	 2.4031868085	-0.6083361906	-2.6265092696	 0.089294
H	 1.3714015903	-0.2611859652	-1.2481019284	 0.116101
H	-0.6321641501	-0.2963186335	-2.7278442684	 0.073362
H	-0.453303013	-1.3698297113	-4.9959465503	 0.118872
H	 0.4163684388	 0.1663857243	-4.9536150753	 0.119826
H	 1.3103099214	-1.355798795	-4.8629078404	 0.114906
H	 1.0310972929	-2.879318034	-2.8046535483	 0.079057
H	-1.0172130743	-4.0480931028	-2.1781182872	 0.08072
H	-2.9821223195	-2.7182295042	-1.2741199553	 0.108868
H	-2.4081537317	-1.2951422361	-2.1197759598	 0.107907
H	-2.7166413878	-2.4875662699	-4.3380268801	 0.12438
H	-3.2528416976	-3.9363384739	-3.4801788694	 0.118972
H	-4.2280194736	-2.4639686244	-3.4195676305	 0.118708
49.8084	75.3029	83.7366	145.1346	173.0989	205.9088	217.701	247.9012	265.0015	293.367	379.0236	405.4893	439.7806	516.7719	540.6558	767.164	772.6163	814.7951	842.9741	849.8911	935.9741	945.3242	977.8107	992.8597	1033.7985	1043.144	1050.8151	1097.4628	1144.6557	1152.2694	1186.0043	1187.6604	1199.7704	1277.9133	1286.2299	1295.5009	1310.5276	1342.6525	1353.343	1379.2098	1405.3764	1409.7134	1414.5259	1419.7126	1484.5188	1489.796	1490.773	1495.4297	1498.107	1502.8255	1505.7896	1510.5003	1513.3733	3012.8905	3029.7949	3031.4065	3032.6369	3035.0398	3036.8899	3051.8309	3064.036	3066.776	3083.8384	3094.8926	3098.2436	3104.5443	3106.8135	3110.687	3116.5486
CCC(C)C1OC1CC	CC[C@@H](C)[C@H]1O[C@H]1CC	
InChI=1S/C8H16O/c1-4-6(3)8-7(5-2)9-8/h6-8H,4-5H2,1-3H3	InChI=1S/C8H16O/c1-4-6(3)8-7(5-2)9-8/h6-8H,4-5H2,1-3H3/t6-,7+,8-/m1/s1
