17
gdb 32113	3.88901	1.10181	0.86404	3.2022	80.96	-0.2126	0.0032	0.2158	1300.8509	0.138204	-418.079842	-418.071586	-418.070641	-418.112704	31.184	
C	-0.0536560199	 1.4755013065	-0.0247049658	-0.323792
N	 0.1251752335	 0.0404630134	-0.0335698865	-0.374551
C	 0.6582954445	-0.6648416292	 1.0131791481	 0.422894
C	 1.2776567873	-0.0293050924	 2.1100181121	-0.237081
C	 1.8148264453	-0.8199329593	 3.1110002734	 0.003705
N	 1.7901631283	-2.1573155908	 3.1237712992	-0.388124
C	 1.19844209	-2.7416257964	 2.0821413978	 0.451797
O	 1.1640217678	-4.0936436962	 2.0846231541	-0.426198
C	 0.6224357424	-2.0660414386	 1.0141921456	-0.336519
H	 0.9104613664	 1.993198715	 0.0378924914	 0.137752
H	-0.5297692752	 1.7752006814	-0.9604761667	 0.129314
H	-0.6813095218	 1.8235415925	 0.8085447101	 0.126222
H	-0.4431513015	-0.4830599554	-0.6774423995	 0.244015
H	 1.3382491602	 1.048355462	 2.1794694179	 0.087095
H	 2.2970546451	-0.3484337716	 3.9644421935	 0.102807
H	 1.6100268144	-4.3573456564	 2.90156404	 0.292938
H	 0.1626517332	-2.6231263145	 0.2057738554	 0.087725
80.7405	161.4909	211.8753	220.0932	242.2418	335.6688	390.6284	465.7946	467.452	536.0068	569.849	609.5973	679.2168	761.599	788.6821	809.5548	851.3369	965.0192	977.2974	998.5932	1089.7356	1127.1354	1156.2067	1174.8083	1201.9089	1270.0822	1330.9358	1349.2763	1379.7197	1461.1409	1471.3408	1483.7092	1516.8072	1526.8953	1558.8129	1616.8814	1668.925	2996.8972	3058.2087	3125.046	3151.863	3189.8348	3220.162	3649.6773	3765.7512
CNC1=CC=NC(O)=C1	CNc1ccnc(O)c1	
InChI=1S/C6H8N2O/c1-7-5-2-3-8-6(9)4-5/h2-4H,1H3,(H2,7,8,9)	InChI=1S/C6H8N2O/c1-7-5-2-3-8-6(9)4-5/h2-4H,1H3,(H2,7,8,9)
