21
gdb 107155	4.05704	0.99316	0.92961	1.4729	83.72	-0.2412	0.0769	0.3181	1340.8936	0.182413	-387.041129	-387.032391	-387.031447	-387.07449	34.204	
O	 0.1719212032	 1.3476978568	 0.2066525172	-0.414978
C	 0.0613713769	-0.0385015937	-0.097695438	-0.172763
C	-1.3597042233	-0.5115095611	-0.1270418804	 0.344476
C	-2.0887788844	-0.9671049371	 1.1151551646	-0.339588
C	-1.9206271401	-1.9358270213	-0.0260922487	-0.194445
C	-2.9204479178	-1.6145654	-1.1198865649	 0.40179
C	-3.2908401923	-2.5074879961	-2.2628626192	-0.339644
C	-4.3358678361	-2.0993625915	-1.2438667967	-0.323454
C	-2.3779244541	-0.1732401699	-1.232936124	-0.37558
H	-0.3047414804	 1.494498439	 1.03063665	 0.280362
H	 0.526589034	-0.1547920802	-1.0832475604	 0.107393
H	 0.6405038829	-0.653285787	 0.6116068374	 0.081593
H	-1.4581179593	-1.1578103215	 1.9793778881	 0.106538
H	-3.0748235892	-0.5768784416	 1.3564613135	 0.108495
H	-1.3824273446	-2.8707305225	 0.0856947717	 0.085889
H	-3.3463547874	-2.0741151281	-3.2567736403	 0.110961
H	-2.9381549376	-3.5341981589	-2.2456336882	 0.110902
H	-4.6869983646	-2.8499304714	-0.5428483636	 0.110678
H	-5.0946914978	-1.3875928517	-1.5533353448	 0.110449
H	-3.0756796467	 0.6417831002	-1.0136144088	 0.094854
H	-1.8986591814	 0.0223293275	-2.1967198946	 0.106074
79.8066	97.304	180.3855	253.6599	276.1187	319.6252	348.4306	390.1905	401.9902	474.81	566.8654	706.9405	772.3164	781.1259	853.7682	857.9755	894.5802	919.703	933.1216	953.9318	959.628	998.1657	1014.9293	1030.9894	1049.524	1054.532	1074.7144	1078.6852	1103.5789	1148.2747	1183.0931	1187.2424	1221.5755	1236.075	1260.396	1298.6753	1360.6538	1385.6668	1404.6015	1430.0201	1463.3234	1479.1111	1493.2321	1503.7848	1508.7228	2963.9317	3039.6163	3059.6405	3092.0491	3102.3392	3118.9286	3124.6249	3169.8234	3189.8453	3197.1913	3212.9177	3807.2083
OCC12CC1C1(CC1)C2	OC[C@]12C[C@H]1C1(CC1)C2	
InChI=1S/C8H12O/c9-5-8-3-6(8)7(4-8)1-2-7/h6,9H,1-5H2	InChI=1S/C8H12O/c9-5-8-3-6(8)7(4-8)1-2-7/h6,9H,1-5H2/t6-,8+/m0/s1
