23
gdb 109895	2.59743	1.38235	1.145	1.0319	85.2	-0.2396	0.0703	0.3099	1209.2605	0.205919	-388.255457	-388.246169	-388.245225	-388.289735	35.213	
C	-0.5490463574	 1.7048566808	 0.0534948917	-0.240346
O	-0.2365945824	 0.3679761624	 0.37511574	-0.234564
C	-1.2793077277	-0.543238698	 0.1296071505	 0.13181
C	-1.3803044956	-1.2183414435	-1.2928960923	-0.028272
C	-0.3295967261	-0.8444583063	-2.3316247877	-0.407355
C	-1.2931356809	-2.622354241	-0.6083880252	-0.029195
C	 0.1129334488	-3.2622215267	-0.5040825136	-0.224074
C	 0.3923688413	-2.4399875781	 0.7897430475	-0.22558
C	-1.074591935	-1.9225904962	 0.7837919686	-0.067641
H	 0.3196403661	 2.3139154576	 0.3165060693	 0.125081
H	-0.7617658579	 1.8405825872	-1.0166232684	 0.108024
H	-1.4199804153	 2.0629479946	 0.6246300874	 0.104615
H	-2.2386589093	-0.0914815057	 0.4233596427	 0.057013
H	-2.3755669226	-1.0648496968	-1.7223275793	 0.064714
H	 0.6768721521	-0.8213244171	-1.9059648008	 0.128212
H	-0.3323412632	-1.5582721912	-3.162829079	 0.111988
H	-0.528017003	 0.147480023	-2.7510319569	 0.109543
H	-2.1294586025	-3.2919634767	-0.8143333889	 0.05667
H	 0.057179139	-4.3368294607	-0.3095836788	 0.094728
H	 0.7918682203	-3.1108600297	-1.3474203511	 0.09429
H	 0.6485351964	-3.0447554402	 1.66235502	 0.094932
H	 1.1352960747	-1.6464364333	 0.6937641462	 0.118054
H	-1.6694355596	-2.1382967946	 1.6723999182	 0.057351
50.1345	108.9707	157.3532	188.8536	223.2819	236.3236	264.4557	333.4432	439.2631	494.5991	540.8143	645.3748	716.3768	770.5932	781.7202	833.6837	874.4198	882.6424	951.1664	972.3503	990.0281	1004.723	1056.7012	1066.5727	1099.1081	1123.6793	1140.6886	1161.16	1163.8469	1183.9063	1204.7819	1227.31	1231.8032	1248.0032	1269.8149	1283.5898	1305.6704	1310.9172	1327.501	1358.3655	1389.2526	1411.4958	1475.7971	1480.3448	1485.8614	1492.838	1496.2849	1504.7511	1511.3864	2973.3507	2981.8131	3028.2511	3033.1915	3044.5536	3054.4481	3070.9616	3085.0758	3091.6965	3096.8642	3099.8497	3110.4916	3116.7886	3128.5616
COC1C(C)C2CCC12	CO[C@H]1[C@@H](C)[C@H]2CC[C@@H]12	
InChI=1S/C8H14O/c1-5-6-3-4-7(6)8(5)9-2/h5-8H,3-4H2,1-2H3	InChI=1S/C8H14O/c1-5-6-3-4-7(6)8(5)9-2/h5-8H,3-4H2,1-2H3/t5-,6+,7+,8-/m0/s1
