23
gdb 112979	4.52464	0.73319	0.69283	1.2649	86.84	-0.2609	0.0775	0.3385	1705.264	0.205635	-388.261154	-388.251515	-388.25057	-388.296335	36.142	
O	-0.0819426365	 1.4701377166	-0.2528100796	-0.422542
C	-0.0046205825	 0.1105307928	 0.1516744881	-0.079576
C	-1.385507661	-0.5047181405	 0.0063544454	 0.025056
C	-1.8410536582	-0.6980247548	-1.4674260805	-0.244107
C	-1.4536131793	-2.2048488198	-1.3727674165	 0.050085
C	-1.3947413845	-2.0505667875	 0.1783260676	-0.269144
C	-2.3862241805	-3.2281984008	-1.9582901915	 0.01839
C	-2.2207957843	-3.6920593041	-3.3851457265	-0.271481
C	-1.9092771557	-4.6312035924	-2.2461319381	-0.272522
H	 0.7979195206	 1.8531620207	-0.1929163371	 0.284922
H	 0.7213856032	-0.445317046	-0.4657629214	 0.079501
H	 0.327060447	 0.0233797307	 1.1997638527	 0.081855
H	-2.0796433254	 0.0512309477	 0.6425613661	 0.071714
H	-2.9209642963	-0.5667390916	-1.584711329	 0.09289
H	-1.3352880263	-0.0867646124	-2.2184058432	 0.103336
H	-0.4473600146	-2.367126389	-1.7763125988	 0.058898
H	-0.5422995105	-2.5014900076	 0.6962549121	 0.090031
H	-2.3122164134	-2.4064024915	 0.6561111794	 0.09639
H	-3.4128685246	-3.1421750737	-1.6069709748	 0.073423
H	-3.1109360603	-3.8764722822	-3.9764804246	 0.10875
H	-1.3880514754	-3.2901555098	-3.9532840558	 0.108487
H	-0.8668993655	-4.861299236	-2.0494811025	 0.107315
H	-2.5864626661	-5.4575002685	-2.0595243015	 0.108331
52.7722	80.2234	111.2368	149.1667	236.2202	250.3853	271.83	288.5279	420.6692	432.6164	475.7258	651.4548	781.938	804.218	822.2649	827.322	864.6178	902.7827	918.9636	934.1283	962.1743	996.1602	1011.1084	1047.9107	1055.9391	1071.1454	1076.6258	1099.5208	1111.7148	1136.8848	1176.769	1197.6564	1209.5707	1222.655	1242.5638	1247.3289	1268.159	1273.6768	1282.8689	1286.7697	1323.2241	1365.8809	1431.1086	1459.1124	1468.6048	1473.874	1496.5408	1504.255	1519.6183	2952.6062	2978.4484	3029.6029	3043.5123	3053.6102	3068.9375	3096.7219	3110.528	3121.2606	3126.4982	3131.9859	3203.9395	3219.3334	3829.7903
OCC1CC(C1)C1CC1	OC[C@H]1C[C@@H](C1)C1CC1	
InChI=1S/C8H14O/c9-5-6-3-8(4-6)7-1-2-7/h6-9H,1-5H2	InChI=1S/C8H14O/c9-5-6-3-8(4-6)7-1-2-7/h6-9H,1-5H2/t6-,8-
