20
gdb 82998	2.55636	1.75764	1.57864	1.4201	76.92	-0.2192	0.0717	0.2909	968.1114	0.173621	-403.10413	-403.096805	-403.095861	-403.13547	29.924	
C	-0.1680878839	 1.522003805	 0.0328435593	-0.451402
C	-0.0218429668	 0.0186081876	-0.0533563823	 0.019787
C	 0.611322872	-0.8016024608	-1.1324879614	-0.072962
C	 1.5607383819	-0.2548774257	-2.18700395	-0.078376
C	 1.3673009271	 1.1632660689	-2.7668430893	-0.09821
O	 2.3206079028	 1.7207711729	-1.8325001068	-0.287712
C	 2.7179975793	 0.3953421334	-1.3905906369	 0.115492
C	 2.4826648826	 0.0563445335	 0.0916190182	-0.199609
N	 1.2274288509	-0.7144609838	 0.2241400617	-0.124806
H	 0.6645016461	 2.0689985523	-0.4074465841	 0.160734
H	-1.0943020476	 1.8350293476	-0.4616705333	 0.116856
H	-0.2512605574	 1.8149216737	 1.0859447763	 0.117723
H	-0.8602126964	-0.4856020681	 0.4299042405	 0.088748
H	 0.1475890177	-1.7570669413	-1.3669873197	 0.086556
H	 1.8155812709	-1.0272402481	-2.9134795341	 0.081019
H	 1.7188696572	 1.2718249234	-3.8001034468	 0.104014
H	 0.3754995891	 1.615299917	-2.6725411847	 0.110378
H	 3.7440018475	 0.1839893263	-1.7130083243	 0.081985
H	 3.2928165146	-0.5855667567	 0.4533695725	 0.108825
H	 2.4764153124	 0.9599638328	 0.7095478652	 0.120962
168.6787	187.4108	249.0555	285.3046	300.3216	377.6188	467.6091	577.7021	654.3771	685.1336	700.4675	732.8769	818.0042	842.1945	872.6262	900.6301	927.7475	979.7762	1003.8576	1022.2182	1039.3454	1065.7447	1071.8519	1099.1794	1132.4792	1160.7081	1171.0515	1183.5211	1214.0225	1227.7638	1258.1366	1309.2648	1331.6117	1336.3117	1345.8993	1358.2497	1391.6358	1419.4045	1437.1986	1486.6949	1505.1599	1516.682	1529.5186	3024.2012	3032.1117	3034.1207	3050.2024	3081.9065	3082.8906	3086.0751	3089.2795	3100.5531	3127.9825	3156.341
CC1C2C3COC3CN12	C[C@H]1[C@H]2[C@H]3CO[C@H]3CN12	
InChI=1S/C7H11NO/c1-4-7-5-3-9-6(5)2-8(4)7/h4-7H,2-3H2,1H3	InChI=1S/C7H11NO/c1-4-7-5-3-9-6(5)2-8(4)7/h4-7H,2-3H2,1H3/t4-,5-,6-,7-,8?/m0/s1
