23
gdb 66929	2.12485	1.88403	1.47453	0.2798	88.68	-0.2386	0.0881	0.3266	1066.003	0.205167	-351.119174	-351.110277	-351.109333	-351.151657	36.067	
C	 0.0349039902	 1.4859943824	 0.1191794517	-0.518755
C	 0.0248917931	-0.0104890831	 0.0005276562	 0.355589
C	-0.9700309642	-0.8769678035	 0.8006185375	-0.129577
C	-1.0795716923	-2.2463803383	 0.1337531174	-0.258072
C	 0.421975323	-2.071265503	-0.2109375544	-0.088093
C	 0.5242201492	-1.037809574	 0.9848253148	-0.139322
C	 0.5001524495	-0.8557116687	-1.1982133522	 0.272541
C	-0.3570796298	-0.8656794602	-2.4649693503	-0.465084
C	 1.9601639812	-0.5556454972	-1.5518975051	-0.443795
H	 1.0178839138	 1.902454516	-0.1284968355	 0.11832
H	-0.7004176302	 1.9469055937	-0.5511965109	 0.118564
H	-0.2083763537	 1.8020765215	 1.1394930983	 0.116947
H	-1.6687782013	-0.4097297281	 1.4843565093	 0.077363
H	-1.2185176382	-3.0292940253	 0.8855527855	 0.094826
H	-1.7900483262	-2.4050708854	-0.6842234696	 0.085907
H	 1.0658312026	-2.9355352197	-0.3714955045	 0.058816
H	 1.1536115336	-0.9664652431	 1.860434178	 0.082604
H	-1.4221370425	-0.9765464948	-2.2486136508	 0.115404
H	-0.2323134593	 0.0721643351	-3.0187867561	 0.109398
H	-0.0600027772	-1.6806045454	-3.1361530987	 0.108973
H	 2.3479073643	-1.3015106228	-2.2552742694	 0.106741
H	 2.0633580094	 0.42645678	-2.0272734801	 0.107782
H	 2.5978969847	-0.5672974263	-0.6622678112	 0.112923
178.2409	184.3659	194.	228.5079	235.101	263.5394	307.2356	363.5637	387.8604	473.3824	539.6096	603.2296	630.0309	754.377	776.7433	823.5901	827.984	878.0176	899.3098	927.7939	946.8879	959.1186	977.2667	997.9592	1012.0095	1034.4681	1066.4633	1092.0246	1095.184	1149.8916	1157.8276	1180.5803	1198.5597	1224.0129	1238.1615	1264.4016	1273.6179	1332.5138	1398.2431	1403.0105	1417.9784	1426.0493	1481.674	1483.1099	1488.7116	1497.0116	1501.7279	1504.7133	1519.747	3019.4569	3021.8474	3027.2158	3039.5601	3077.5235	3080.7173	3085.4278	3086.8844	3089.9031	3099.4034	3116.3332	3117.5138	3182.2978	3214.3655
CC12C3CC(C13)C2(C)C	C[C@]12[C@H]3C[C@H]([C@@H]13)C2(C)C	
InChI=1S/C9H14/c1-8(2)5-4-6-7(5)9(6,8)3/h5-7H,4H2,1-3H3	InChI=1S/C9H14/c1-8(2)5-4-6-7(5)9(6,8)3/h5-7H,4H2,1-3H3/t5-,6+,7-,9+/m1/s1
