20
gdb 37377	2.82847	2.01883	1.83247	1.4199	80.15	-0.2139	0.0886	0.3025	875.3044	0.176271	-365.99505	-365.988973	-365.988028	-366.024935	27.329	
C	 0.0430866404	 1.4803872678	-0.1439669029	-0.267514
C	 1.2913620355	 0.6803722692	 0.0060892665	-0.022277
C	 2.0451123032	 0.6302963787	 1.3049065622	-0.042937
C	 1.3020899509	 0.5982460717	 2.6259832152	-0.066126
C	-0.2049872616	 0.3997554341	 2.5367640629	-0.241934
C	-0.3285583366	-0.5723605739	 1.3457981871	-0.00273
C	 0.8134607402	-1.5791917882	 1.6229966907	-0.211003
C	 1.9464825702	-0.6660791437	 2.0890560118	-0.062025
N	-0.0227069144	 0.0250549548	 0.0232352135	-0.096823
H	-0.2336166616	 2.1400437568	 0.6717863459	 0.112802
H	-0.265986007	 1.8282891539	-1.126118877	 0.109906
H	 1.8918866873	 0.4775889743	-0.8806226975	 0.083399
H	 3.0093086814	 1.129514786	 1.3117276489	 0.080832
H	 1.7265291151	 1.1312669042	 3.4693805594	 0.078908
H	-0.5719771093	-0.0882592326	 3.4483330844	 0.095775
H	-0.7860773361	 1.3170543556	 2.4126209121	 0.09899
H	-1.3134136007	-1.041217953	 1.2825883438	 0.072677
H	 0.5322645873	-2.2759325703	 2.4202794967	 0.09484
H	 1.0535976984	-2.1601128618	 0.7275151953	 0.1067
H	 2.8343130674	-1.0924429435	 2.5408900911	 0.078541
260.2218	321.7985	399.2941	463.4431	475.0805	538.1669	631.1224	667.0325	699.895	770.8279	784.411	829.1629	855.4352	878.6354	891.8083	912.6675	936.2314	965.734	1011.0164	1030.0485	1035.6934	1048.1821	1085.4518	1095.6229	1099.4348	1105.113	1117.0708	1146.1637	1167.7636	1172.1441	1211.9213	1243.5978	1296.6489	1302.8223	1309.2832	1334.4176	1348.3155	1365.0614	1406.5677	1425.1614	1481.4491	1496.0882	1518.8641	3032.0123	3042.8064	3076.9709	3086.0852	3091.3824	3096.2117	3115.7979	3149.4613	3167.1498	3180.5983	3200.4688
C1C2C3C4CC(CC34)N12	C1[C@H]2[C@H]3[C@H]4C[C@H](C[C@@H]34)N12	
InChI=1S/C8H11N/c1-4-2-6-5(1)8(6)7-3-9(4)7/h4-8H,1-3H2	InChI=1S/C8H11N/c1-4-2-6-5(1)8(6)7-3-9(4)7/h4-8H,1-3H2/t4-,5+,6-,7-,8+,9?/m0/s1
