21
gdb 92841	3.46957	1.24145	0.97275	1.7896	85.08	-0.2335	0.0184	0.252	1253.073	0.184218	-387.083233	-387.075156	-387.074212	-387.115543	32.13	
C	-0.0760902144	 1.5664081019	 0.0117699476	-0.40612
C	 0.0362713717	 0.0390523713	 0.0231689612	 0.03067
C	 0.611419074	-0.4780096643	-1.3234363441	-0.235602
C	 1.2086494626	-1.8655573586	-1.2579643922	-0.219732
C	 1.1817391578	-2.5306102852	-0.1147152219	 0.245729
C	 1.9523643074	-3.5808306269	 0.6453252939	-0.163962
O	 1.7421454231	-2.8124966438	 1.8662176271	-0.312586
C	 0.7341343245	-1.9870115552	 1.210059134	 0.094492
C	 0.8430995484	-0.4722687127	 1.2434885228	-0.244652
H	 0.9151320417	 2.0315088376	-0.042827071	 0.115756
H	-0.6545782715	 1.9149016716	-0.8508036721	 0.111438
H	-0.5688101454	 1.9353927769	 0.9170914421	 0.112886
H	-0.9796807636	-0.369505909	 0.1236435169	 0.078522
H	-0.1673158412	-0.4147387575	-2.0957398496	 0.106797
H	 1.4049247157	 0.2060753571	-1.6617617712	 0.106307
H	 1.7358095016	-2.2366369444	-2.1337578793	 0.088258
H	 1.481882205	-4.5723260971	 0.7125334762	 0.103459
H	 3.0142156252	-3.7016935557	 0.402036451	 0.116069
H	-0.268025649	-2.3088282817	 1.5335053849	 0.075659
H	 1.897246461	-0.1833413258	 1.1575794177	 0.101797
H	 0.4476751552	-0.0399532186	 2.169064636	 0.094818
113.2571	169.2571	251.8985	257.9395	277.9713	323.5747	395.1814	413.3678	427.0544	529.0752	642.5747	743.5589	802.7591	825.1262	848.4889	908.162	935.5067	953.7194	958.505	972.9021	1007.6228	1032.4011	1083.8572	1094.2543	1114.2535	1125.5869	1141.4282	1156.5398	1183.805	1253.243	1267.565	1292.3611	1309.3493	1323.0917	1355.3786	1376.1939	1384.4965	1393.8283	1411.7402	1475.0988	1491.6166	1499.0004	1501.1137	1512.3894	1793.3622	2974.5677	2989.8213	2996.7428	2998.6677	3025.1665	3027.5631	3035.1698	3057.7078	3081.8804	3092.3013	3099.5196	3153.8666
CC1CC=C2COC2C1	C[C@H]1C[CH][C]2CO[C@H]2C1	
InChI=1S/C8H12O/c1-6-2-3-7-5-9-8(7)4-6/h3,6,8H,2,4-5H2,1H3	InChI=1S/C8H12O/c1-6-2-3-7-5-9-8(7)4-6/h3,6,8H,2,4-5H2,1H3/t6-,8-/m0/s1
