19
gdb 41730	3.30713	1.69796	1.69559	0.6919	72.42	-0.2417	0.0847	0.3264	894.3053	0.163995	-423.035986	-423.029815	-423.028871	-423.066202	26.47	
C	-0.0131564382	 1.5607446031	 0.0491244766	-0.111768
O	 1.3649633669	 1.977265924	 0.0562354095	-0.272924
C	 2.1150333892	 0.8012256172	-0.2585373714	 0.099729
C	 1.7526899304	 0.3811199706	-1.708459018	-0.251879
C	 0.4983884184	-0.488573961	-1.4249068965	 0.099732
O	 0.9427395372	-1.8187150352	-1.1455197265	-0.272929
C	 1.6950079567	-1.7176267546	 0.077848827	-0.111767
C	 1.4229692966	-0.298951052	 0.5851521126	-0.056235
C	 0.0430566889	 0.0332840916	-0.0387325174	-0.056234
H	-0.4912608928	 1.9044758762	 0.9734130777	 0.106455
H	-0.5445046895	 2.0168769388	-0.7976964372	 0.098071
H	 3.1681466959	 1.0037951438	-0.0617668405	 0.076741
H	 1.5540762669	 1.2684668545	-2.3143095558	 0.109145
H	 2.5182177726	-0.2204834934	-2.2043665484	 0.109144
H	-0.2475084277	-0.5362937327	-2.2187343197	 0.076742
H	 1.3377899537	-2.482342881	 0.7768864582	 0.106454
H	 2.7607602446	-1.9044414542	-0.1138869778	 0.098071
H	 1.5286352081	-0.1571335618	 1.6609147791	 0.076726
H	-0.8233156979	-0.491937944	 0.3638609786	 0.076725
235.964	247.7274	337.3911	378.192	483.6923	508.8275	663.2011	728.0965	752.2619	791.7291	863.3539	874.6554	897.3068	913.509	938.1182	949.7396	957.2971	988.7198	993.5719	1025.6067	1059.4526	1062.9039	1085.0225	1092.1546	1152.567	1179.2892	1186.8745	1203.3664	1236.1782	1256.5044	1273.1713	1287.6763	1302.1956	1320.1091	1330.628	1348.058	1375.4279	1397.3904	1476.9429	1526.9271	1527.8467	3005.7555	3005.9631	3052.8531	3052.9498	3066.9323	3111.5965	3114.1918	3116.4035	3122.5246	3126.8327
C1OC2CC3OCC2C13	C1O[C@@H]2C[C@H]3OC[C@@H]2[C@@H]13	
InChI=1S/C7H10O2/c1-6-4-2-8-7(1)5(4)3-9-6/h4-7H,1-3H2	InChI=1S/C7H10O2/c1-6-4-2-8-7(1)5(4)3-9-6/h4-7H,1-3H2/t4-,5-,6-,7-/m1/s1
