16
gdb 127113	4.06581	1.12659	0.8926	4.7986	69.15	-0.2204	0.0219	0.2422	1256.1891	0.124228	-471.209765	-471.200829	-471.199885	-471.243947	31.203	
C	 0.0476311582	 1.4299191711	-0.0159088859	-0.344045
N	 0.1823392062	-0.0162703907	-0.0519007316	-0.181226
C	 0.1119316489	-0.735884367	 1.2085575131	-0.349981
C	 0.0920817029	-0.6624405078	-1.2293266017	 0.596295
N	 0.0320296748	-0.1314863212	-2.4308381216	-0.479288
C	-0.0020082771	-1.2533421922	-3.2105729346	 0.448569
O	-0.0609713723	-1.1785433573	-4.5416190636	-0.405562
N	 0.0235696719	-2.4103676012	-2.601507516	-0.228857
O	 0.0829037323	-2.000619567	-1.2272478771	-0.243
H	 0.790006419	 1.850141978	 0.6707834936	 0.13129
H	 0.2129518709	 1.8292878513	-1.0153683389	 0.174001
H	-0.9515964704	 1.7306783469	 0.3273841789	 0.129053
H	-0.8982661334	-0.7000728637	 1.6389999505	 0.132222
H	 0.3924685598	-1.777321222	 1.0587526303	 0.172603
H	 0.8064075485	-0.2809590515	 1.9219889161	 0.13384
H	-0.06984821	-0.2404196057	-4.7661743215	 0.314086
70.7419	94.3932	138.0258	160.3854	207.3379	244.6675	354.1098	363.9908	409.2538	413.1967	569.0367	595.878	712.0552	757.0529	784.2133	908.6954	946.8064	1041.7276	1091.0059	1094.3348	1132.6934	1179.546	1218.9909	1245.5261	1295.0121	1404.4988	1448.983	1459.7682	1482.6293	1487.9012	1499.2034	1502.3316	1522.0238	1672.8583	1691.4659	3009.8841	3014.8532	3075.0534	3080.2342	3165.74	3166.7248	3816.9585
CN(C)C1=NC(O)=NO1	CN(C)c1nc(O)no1	
InChI=1S/C4H7N3O2/c1-7(2)4-5-3(8)6-9-4/h1-2H3,(H,6,8)	InChI=1S/C4H7N3O2/c1-7(2)4-5-3(8)6-9-4/h1-2H3,(H,6,8)
