19
gdb 84814	2.45038	1.31053	1.07684	3.2553	80.95	-0.2253	0.0107	0.2361	1198.6298	0.159545	-382.082754	-382.073886	-382.072942	-382.116777	32.684	
C	 0.1895024524	 1.6479176424	 0.0054556025	-0.385594
C	 0.0492891907	 0.1259571501	-0.1056571772	 0.003821
C	 0.8401796745	-0.4896387364	-1.2321953768	-0.068375
C	 1.5587660199	-1.525166452	-0.8134419087	-0.08153
C	 1.3415604893	-1.7677660072	 0.6539375179	-0.216627
N	 0.6067114126	-0.5665095308	 1.075847372	-0.068252
C	-0.2689141108	-0.7209365756	 2.2102120567	-0.302983
C	-1.4176646425	-1.63642289	 1.9827560168	 0.253423
N	-2.292873054	-2.356756122	 1.7548294311	-0.314095
H	 1.2412396587	 1.9257574571	 0.1155965738	 0.124293
H	-0.2155557958	 2.1369602668	-0.8866494	 0.116051
H	-0.3612935861	 2.0348337241	 0.8693510479	 0.113016
H	-1.0226776059	-0.1148887098	-0.2402150884	 0.088414
H	 0.7864473405	-0.1093146631	-2.2448030808	 0.103986
H	 2.2002129679	-2.1530654327	-1.4186956645	 0.106627
H	 0.7650006716	-2.6977953617	 0.812863595	 0.114512
H	 2.2781413992	-1.873092943	 1.2203149126	 0.109907
H	 0.2982364334	-1.0993260269	 3.0682926138	 0.151477
H	-0.6691526057	 0.2544085807	 2.5075388861	 0.15193
63.3249	80.9514	137.0365	233.9128	257.0773	262.0906	342.7942	373.5211	393.8016	507.6356	543.1532	687.8802	718.3501	770.0575	801.0187	873.9977	888.2678	951.4916	966.3548	982.844	1024.566	1045.8507	1099.1232	1120.4702	1140.5947	1160.6089	1201.7137	1207.709	1298.22	1330.8148	1356.2872	1370.3353	1376.8697	1398.2261	1406.3951	1457.7361	1492.3564	1493.7725	1515.6448	1696.7043	2343.7644	2913.0136	2933.4296	3003.2151	3033.8964	3042.904	3081.5517	3099.349	3120.7759	3203.1907	3227.6902
CC1C=CCN1CC#N	C[C@H]1C=CCN1CC#N	
InChI=1S/C7H10N2/c1-7-3-2-5-9(7)6-4-8/h2-3,7H,5-6H2,1H3	InChI=1S/C7H10N2/c1-7-3-2-5-9(7)6-4-8/h2-3,7H,5-6H2,1H3/t7-/m0/s1
