14
gdb 7236	4.47354	1.23963	0.98874	2.3358	65.	-0.2641	-0.0568	0.2073	1111.8651	0.108813	-412.079849	-412.071875	-412.070931	-412.112593	28.487	
N	-0.039646184	 0.5775372167	 1.1111356374	-0.547453
C	 0.1513850996	-0.0452520495	-0.1183891329	 0.251604
N	 1.2303437742	 0.0784587655	-0.7771431708	-0.471149
C	-0.9704972363	-0.9646099916	-0.588476333	 0.374138
O	-1.0557340176	-1.3158732301	-1.7464180467	-0.354602
N	-1.8394750472	-1.3705781468	 0.4003406571	-0.323866
C	-2.9192947627	-2.2159094582	 0.1773446665	 0.103964
N	-3.6326909091	-2.5990507758	 1.1540224455	-0.45671
H	 0.7161124601	 1.2149276521	 1.3307223608	 0.265272
H	-0.9467998797	 1.0052371366	 1.2443709659	 0.258482
H	 1.1782552098	-0.5171835913	-1.6058392908	 0.24356
H	-1.6274847913	-1.1434638835	 1.3628870417	 0.273852
H	-3.0385316045	-2.4637500742	-0.8789200093	 0.144799
H	-4.3826485613	-3.20650125	 0.8286718587	 0.238109
77.1383	131.4957	156.532	183.2025	306.2923	366.0568	397.0887	452.7481	500.4709	557.1591	653.591	703.097	752.7823	821.4286	837.6148	926.3618	933.6991	1073.256	1090.7661	1116.482	1158.2694	1195.1968	1296.6337	1391.7395	1422.46	1500.8212	1625.3018	1728.7115	1733.7611	1794.7144	3126.4388	3472.519	3507.5494	3536.4317	3597.2291	3638.2643
NC(=N)C(=O)NC=N	NC(=N)C(=O)NC=N	
InChI=1S/C3H6N4O/c4-1-7-3(8)2(5)6/h1H,(H3,5,6)(H2,4,7,8)	InChI=1S/C3H6N4O/c4-1-7-3(8)2(5)6/h1H,(H3,5,6)(H2,4,7,8)
