15
gdb 46095	4.85173	0.89385	0.81633	2.8422	75.6	-0.2578	-0.0471	0.2107	1348.8937	0.113628	-416.845086	-416.837134	-416.83619	-416.878563	28.679	
N	 0.131469966	 1.316280038	 0.3252831542	-0.545448
C	 0.0108453263	 0.0749668885	 0.1171497174	 0.433165
O	 1.0351652906	-0.779599575	-0.2242432561	-0.248669
C	 0.5271706179	-2.104355176	-0.3752501424	-0.172662
C	-0.9475452786	-1.9883181876	-0.0866839502	 0.308969
C	-1.8804511622	-3.16725725	-0.0982576346	-0.447219
C	-1.806792562	-3.9340620808	-1.3459905431	 0.265615
N	-1.7281777771	-4.5335600468	-2.3301173475	-0.298533
C	-1.2252784076	-0.7142615596	 0.1918216754	-0.287524
H	 1.1013176854	 1.611237283	 0.2042446788	 0.228107
H	 0.7300350075	-2.4618994232	-1.3930152566	 0.151309
H	 1.0435674139	-2.7748143983	 0.3257654767	 0.131293
H	-1.6388690291	-3.8499688902	 0.728203571	 0.172587
H	-2.9119850642	-2.8365189659	 0.0567913785	 0.172923
H	-2.1795715166	-0.2729687962	 0.4395724286	 0.136088
44.4984	97.7289	183.0408	226.5655	274.1608	380.4682	418.6946	449.5111	496.7259	673.1846	696.6974	704.1434	863.2934	886.0141	895.3199	902.0824	948.3889	958.2771	1030.8833	1033.6729	1092.4913	1173.8061	1195.7391	1212.0018	1263.1479	1324.0821	1358.7487	1390.6008	1453.2114	1500.8893	1707.1382	1764.3028	2366.5532	3012.4228	3023.7247	3048.6834	3089.5732	3251.2552	3485.0546
N=C1OCC(CC#N)=C1	[NH]C1=C[C](CO1)CC#N	
InChI=1S/C6H6N2O/c7-2-1-5-3-6(8)9-4-5/h3,8H,1,4H2	InChI=1S/C6H6N2O/c7-2-1-5-3-6(8)9-4-5/h3,8H,1,4H2
