18
gdb 36367	4.04485	0.91933	0.84683	2.2306	78.67	-0.2337	0.0462	0.28	1383.4805	0.145669	-401.8457	-401.836739	-401.835795	-401.88007	32.873	
C	-0.0385473645	-0.9435655283	-0.8243551057	-0.435589
C	-0.0176170938	 0.110932176	-0.2494597953	 0.322987
C	-0.010083492	 1.3996041347	 0.436520052	-0.332217
N	 1.3318807863	 1.999846214	 0.4020796607	-0.096826
C	 1.658903795	 2.8134035155	-0.7671135852	-0.251307
C	 1.4475834597	 3.4544127103	 0.5594149808	-0.026588
C	 0.2706748122	 4.3496775496	 0.8059716208	 0.045995
C	 0.0640353297	 5.5743794814	 0.018098995	-0.176767
O	-0.7525596012	 4.4205181957	-0.1899207238	-0.22319
H	-0.0557463989	-1.8782002226	-1.327829483	 0.195426
H	-0.7835635532	 2.0452136917	-0.0047204301	 0.151651
H	-0.2790141384	 1.2515497426	 1.4902138002	 0.13148
H	 2.6603206557	 2.6857168556	-1.1679575516	 0.11687
H	 0.8760916138	 2.9721139867	-1.505591394	 0.13212
H	 2.3172092057	 3.7443710447	 1.1493430437	 0.099117
H	-0.1143508857	 4.3418450081	 1.8272868817	 0.103466
H	-0.44262216	 6.4273583742	 0.4657684726	 0.12151
H	 0.7548295195	 5.80637513	-0.7905369889	 0.121862
53.0556	94.1111	108.8391	185.981	219.853	305.6074	335.0887	366.5196	468.067	546.0577	606.0463	620.5263	656.8096	739.8892	802.2604	865.621	899.4675	937.0706	962.2896	1002.8823	1011.122	1030.1377	1072.0308	1101.309	1123.2722	1149.3656	1161.2229	1166.3765	1172.6796	1277.7984	1286.4283	1316.9893	1382.296	1402.1482	1428.5953	1482.9818	1507.409	1525.4782	2243.7157	3001.3131	3042.6227	3089.7389	3094.0953	3104.8622	3107.8206	3182.0367	3194.3703	3506.9628
C#CCN1CC1C1CO1	C#CCN1C[C@H]1[C@H]1CO1	
InChI=1S/C7H9NO/c1-2-3-8-4-6(8)7-5-9-7/h1,6-7H,3-5H2	InChI=1S/C7H9NO/c1-2-3-8-4-6(8)7-5-9-7/h1,6-7H,3-5H2/t6-,7+,8?/m0/s1
