17
gdb 33286	6.20879	0.7111	0.71108	1.1758	100.02	-0.2396	-0.0153	0.2242	1608.7174	0.135569	-347.454535	-347.446446	-347.445502	-347.487475	31.399	
C	 0.0546369249	-3.7278635542	-0.0188790959	-0.617658
C	 0.0372345146	-2.5198669886	-0.012155409	 0.19005
C	 0.0173138739	-1.1609628452	-0.0043267042	 0.339113
C	-0.0003971518	 0.051100403	 0.002615453	-0.141044
C	-0.0206899943	 1.4812746529	 0.0106643108	 0.188226
C	-0.6434020891	 2.4230759428	 1.0995062149	-0.243661
C	-0.0472521674	 3.3713616823	 0.0212694984	-0.099062
C	 1.2085589045	 2.4552817206	 0.001549558	-0.243769
C	-0.6685992529	 2.4347999	-1.0530019537	-0.243665
H	 0.0699625861	-4.7892329737	-0.0248000682	 0.186504
H	-1.7320550465	 2.3951087253	 1.1896554559	 0.100696
H	-0.154794949	 2.4123590643	 2.0768032712	 0.100627
H	-0.0626193045	 4.4601398782	 0.0273707988	 0.080944
H	 1.8319249031	 2.4467353371	 0.8989880282	 0.100681
H	 1.8106060012	 2.4566058478	-0.9103336456	 0.100692
H	-0.2030176756	 2.4347834752	-2.0415259475	 0.100627
H	-1.7590505075	 2.4076633322	-1.1179400251	 0.1007
80.6336	82.0508	224.739	225.0318	413.3366	453.686	454.2024	490.1953	490.5189	548.5558	552.8053	591.6974	591.745	789.6557	791.1549	869.3281	911.2353	941.152	941.42	960.8018	992.7834	1041.9984	1094.5791	1096.5536	1124.898	1125.3633	1162.5017	1163.8365	1232.9812	1233.301	1247.1838	1329.8979	1495.4681	1497.8065	1550.6566	2178.4076	2349.4301	3054.8591	3056.0203	3061.8717	3123.0638	3127.8494	3128.099	3128.5521	3505.8334
C#CC#CC12CC(C1)C2	C#CC#C[C@@]12C[C@@H](C1)C2	
InChI=1S/C9H8/c1-2-3-4-9-5-8(6-9)7-9/h1,8H,5-7H2	InChI=1S/C9H8/c1-2-3-4-9-5-8(6-9)7-9/h1,8H,5-7H2/t8-,9+
