18
gdb 99684	2.64144	1.07233	0.80689	2.3623	71.76	-0.2627	0.0173	0.2799	1378.6411	0.14716	-439.066115	-439.056729	-439.055785	-439.101808	32.539	
O	 0.0426794381	 1.4441559519	 0.1052338615	-0.414083
C	 0.0179236878	 0.0377670576	 0.0889159731	-0.069276
C	-1.418496911	-0.5358459508	-0.0000156716	-0.190489
C	-2.0489871747	-0.0519916863	-1.2326032083	 0.261786
N	-2.5044995801	 0.3437139106	-2.2190811118	-0.323604
C	-1.4379593212	-2.0680076005	 0.0617357111	-0.035177
C	-1.1602991623	-2.7104573664	 1.4414151045	-0.09403
O	-2.4462408763	-3.3547780066	 1.4517306999	-0.266393
C	-2.8141502779	-2.759931739	 0.1905963283	-0.089275
H	-0.2585963661	 1.7622255235	-0.7537428208	 0.300317
H	 0.6225153363	-0.3800985174	-0.7300952509	 0.108562
H	 0.4615438801	-0.2906339519	 1.033745523	 0.126268
H	-1.9918847637	-0.1294869289	 0.8430110642	 0.138434
H	-0.8223230163	-2.476499274	-0.7431420157	 0.101038
H	-0.3356082858	-3.4316048091	 1.4779526918	 0.111603
H	-1.0477844585	-2.0017793302	 2.2739725876	 0.105263
H	-3.6703908739	-2.0798783068	 0.2877670007	 0.112518
H	-3.0445152743	-3.5136486057	-0.5702638367	 0.116538
40.1577	71.707	104.1815	126.5418	164.1973	229.5081	323.1812	364.4383	381.0256	434.4293	517.4096	594.9597	799.8231	826.6706	891.9864	899.8907	970.6044	990.9933	1033.2627	1047.719	1081.8031	1084.5538	1111.4964	1149.5457	1166.4442	1175.524	1207.5177	1263.0342	1264.7033	1314.97	1331.7403	1372.0941	1391.6478	1400.7256	1421.8524	1502.1806	1513.2261	1537.355	2350.2888	2994.1802	3000.9758	3017.7586	3038.561	3052.9432	3064.1822	3086.3327	3089.474	3798.1852
OCC(C#N)C1COC1	OC[C@@H](C#N)C1COC1	
InChI=1S/C6H9NO2/c7-1-5(2-8)6-3-9-4-6/h5-6,8H,2-4H2	InChI=1S/C6H9NO2/c7-1-5(2-8)6-3-9-4-6/h5-6,8H,2-4H2/t5-/m1/s1
