16
gdb 44935	2.76805	1.82866	1.56426	2.2834	67.71	-0.2479	-0.0382	0.2097	891.0645	0.127196	-437.921988	-437.915394	-437.91445	-437.952997	26.33	
O	 0.0182484562	 0.0033856826	-0.0409598037	-0.303747
C	-0.0177646197	 1.2008940801	 0.0022133972	 0.41545
C	-1.2693387298	 2.0962709244	 0.0296795295	-0.324107
C	-0.6853191041	 3.517594072	 0.1528820519	-0.001545
C	 0.6393422283	 3.4136944314	-0.6396884565	-0.271271
C	 1.2063473136	 2.1563577367	 0.010449471	 0.014405
O	 1.5298552644	 2.4369285567	 1.3937114044	-0.23862
C	 0.6572718702	 3.2645578572	 2.0282940229	 0.117683
N	-0.3887059099	 3.8061392106	 1.5639452481	-0.257626
H	-1.8242698885	 1.9575597014	-0.906306871	 0.132458
H	-1.9312233236	 1.8244406051	 0.8553407732	 0.145977
H	-1.360260765	 4.2879935298	-0.2217990082	 0.087392
H	 0.467570958	 3.2486454832	-1.7084292287	 0.114797
H	 1.2801894318	 4.2889107743	-0.5127555222	 0.125031
H	 2.0980434739	 1.7121184989	-0.427758644	 0.108034
H	 0.9781770743	 3.4272054657	 3.0546695763	 0.13569
98.0417	230.7403	318.0677	396.0304	425.3347	476.4475	546.4461	592.2208	673.2665	700.8628	793.5967	836.938	852.5938	895.7373	919.1666	952.172	958.6132	968.5244	1031.9465	1079.0142	1114.2294	1131.4155	1177.6914	1201.5259	1223.4337	1255.6627	1311.2326	1326.7187	1341.196	1362.2382	1396.359	1439.1119	1483.603	1708.4493	1867.4623	3043.9131	3055.9511	3101.2973	3113.7598	3116.9584	3142.4838	3172.3327
O=C1CC2CC1OC=N2	O=C1C[C@@H]2C[C@H]1OC=N2	
InChI=1S/C6H7NO2/c8-5-1-4-2-6(5)9-3-7-4/h3-4,6H,1-2H2	InChI=1S/C6H7NO2/c8-5-1-4-2-6(5)9-3-7-4/h3-4,6H,1-2H2/t4-,6-/m1/s1
