18
gdb 108780	3.36348	1.08076	0.85087	4.6214	77.69	-0.2116	-0.025	0.1865	1320.5216	0.149135	-439.121658	-439.113123	-439.112179	-439.155126	32.032	
O	 0.7926960856	-0.1989072093	 0.6196914769	-0.413132
C	-0.1532026916	 0.4273825408	-0.2328843448	-0.152913
C	-1.5405569295	-0.1825823197	-0.135917776	 0.313755
C	-2.6571812007	 0.4840395979	-0.5419378731	-0.312059
C	-3.9812551865	-0.0956702552	-0.3998504053	 0.372687
O	-5.0123046208	 0.4492006194	-0.7568739711	-0.362699
C	-4.0146397881	-1.4450383413	 0.3371838093	-0.30621
C	-2.7506620575	-2.2697060876	 0.0941691514	-0.182496
N	-1.5729262214	-1.4516611872	 0.35056022	-0.330302
H	 0.5739857334	 0.0339408057	 1.5284707105	 0.295462
H	-0.213451571	 1.5092773845	-0.0622845089	 0.123082
H	 0.227899836	 0.2789644282	-1.250038398	 0.144558
H	-2.581132461	 1.4952757266	-0.924197008	 0.085577
H	-4.1154834874	-1.2261277864	 1.4088759072	 0.122594
H	-4.9066305971	-1.9943972782	 0.0289483014	 0.123818
H	-2.7197051798	-3.1501671811	 0.7422750104	 0.113331
H	-2.7408729424	-2.6222181253	-0.9504440446	 0.111837
H	-0.6741623803	-1.8975748217	 0.4590753427	 0.253108
67.7943	138.4641	152.498	223.1668	236.156	328.676	382.461	436.6617	478.9712	520.3668	584.2944	603.4146	630.5984	715.3663	780.0893	831.5071	895.8763	931.2167	980.6814	1018.1231	1063.5767	1075.4314	1123.5091	1169.2544	1193.6588	1198.7301	1247.0709	1259.1032	1342.6267	1362.5267	1372.9997	1397.2912	1404.2634	1456.5406	1487.5855	1497.3425	1556.3386	1648.8708	1757.0703	2970.2677	3027.3649	3027.8775	3070.2446	3080.965	3115.2379	3197.7107	3611.9836	3811.0388
OCC1=CC(=O)CCN1	OCC1=CC(=O)CCN1	
InChI=1S/C6H9NO2/c8-4-5-3-6(9)1-2-7-5/h3,7-8H,1-2,4H2	InChI=1S/C6H9NO2/c8-4-5-3-6(9)1-2-7-5/h3,7-8H,1-2,4H2
