23
gdb 64285	2.53548	1.55	1.27805	1.7558	83.84	-0.2409	0.0751	0.316	1120.3063	0.206827	-388.297152	-388.288484	-388.28754	-388.329836	34.72	
C	-0.4482021394	 1.5898041632	 0.1145080714	-0.439029
C	 0.0357329774	 0.1378996012	 0.0118805945	 0.288874
C	-1.1926099613	-0.7871043307	-0.1026724739	-0.424071
C	 0.9912907271	-0.0825259724	-1.1932230456	-0.238199
C	 1.780899703	-1.3617554218	-0.8559018739	-0.237919
C	 1.9788367564	-1.2843417155	 0.6567381505	 0.1334
O	 3.0332275814	-0.3621928271	 1.0255288008	-0.29815
C	 2.0962914987	 0.5382589906	 1.6486680209	-0.102204
C	 0.8898658146	-0.3244686201	 1.2201931327	-0.077494
H	 0.3843752139	 2.2968055993	 0.1742022028	 0.112573
H	-1.0441865052	 1.8595277878	-0.7643832403	 0.112575
H	-1.0800397439	 1.7374789198	 0.9977080846	 0.109003
H	-1.7697088682	-0.5567996378	-1.004851447	 0.1107
H	-0.9124699825	-1.8442821476	-0.1473349577	 0.113049
H	-1.856827953	-0.6603592862	 0.7593727362	 0.110915
H	 0.4518260975	-0.1471711474	-2.1430937336	 0.090179
H	 1.6830275192	 0.7635730561	-1.272570375	 0.10387
H	 1.2074380682	-2.2607146787	-1.1092819895	 0.09693
H	 2.7410877239	-1.4279796018	-1.3754637547	 0.108408
H	 2.1209273786	-2.2577530661	 1.1392309572	 0.066241
H	 2.2497806248	 0.596672611	 2.7341981172	 0.096039
H	 2.163127573	 1.5501951695	 1.2319217971	 0.097794
H	 0.2753719356	-0.6847306251	 2.0474741655	 0.066517
102.6563	184.3199	212.3409	224.0976	269.1416	321.0048	334.5539	375.9601	381.8681	462.1012	551.2887	627.4375	723.2706	799.5173	832.1571	859.3175	891.0326	925.5782	934.9441	948.7184	969.3611	994.9453	1024.7517	1027.4956	1030.5747	1057.3496	1069.9022	1142.3329	1166.7948	1172.9577	1211.2078	1237.8898	1246.4719	1251.0454	1288.9104	1318.5354	1330.905	1354.2375	1356.1365	1370.1243	1400.2275	1422.6925	1471.9883	1484.4364	1487.9435	1496.4035	1506.1823	1510.1964	1527.1674	3008.2075	3025.0588	3029.0969	3033.8328	3041.3025	3048.2756	3051.4804	3083.309	3088.3234	3089.7956	3094.4112	3096.9657	3101.5458	3104.5439
CC1(C)CCC2OCC12	CC1(C)CC[C@H]2OC[C@@H]12	
InChI=1S/C8H14O/c1-8(2)4-3-7-6(8)5-9-7/h6-7H,3-5H2,1-2H3	InChI=1S/C8H14O/c1-8(2)4-3-7-6(8)5-9-7/h6-7H,3-5H2,1-2H3/t6-,7-/m1/s1
