19
gdb 91057	3.77986	1.3195	1.24429	1.3633	82.	-0.2273	0.0043	0.2316	1089.3889	0.159923	-385.836879	-385.829349	-385.828405	-385.868733	30.207	
C	 0.1219515097	 1.5593542359	 0.0014304426	-0.392263
C	 0.0698218871	 0.0381965877	 0.0424159338	 0.112514
O	 0.7246112557	-0.4864298321	-1.1421049917	-0.296604
C	 1.3272674074	-1.7000316429	-0.7375521284	 0.092975
C	 2.8078004064	-2.1224577468	-0.9176139099	-0.103056
C	 3.7678581359	-1.2596349681	-0.1575403596	-0.265919
C	 2.9125989145	-2.2331969968	 0.6296931174	-0.165069
C	 1.563439489	-1.569863052	 0.7317157976	 0.246878
C	 0.837849242	-0.5748104593	 1.2236108599	-0.274658
H	 1.1576508689	 1.9091327127	 0.0444592316	 0.120621
H	-0.3290444246	 1.9242312291	-0.9255691427	 0.128034
H	-0.4300643293	 1.9858816755	 0.8451686911	 0.112322
H	-0.985230635	-0.2864771413	 0.0320478954	 0.077649
H	 0.694144354	-2.5628510135	-1.0030541774	 0.076468
H	 3.1480126525	-2.8323160297	-1.6612876765	 0.088755
H	 4.8117688175	-1.5398976134	-0.2634191843	 0.114813
H	 3.5926789478	-0.1934841837	-0.0541707532	 0.122416
H	 3.3323855162	-3.0256593385	 1.2342712126	 0.100933
H	 0.8289536442	-0.1378668628	 2.2143004617	 0.103189
94.2724	183.402	226.4593	245.5276	309.0012	443.9473	480.2719	530.5194	647.6945	679.9762	725.8199	759.1095	812.3757	846.2394	851.3835	886.9956	903.2452	913.8271	984.7002	995.768	1025.9112	1038.2322	1061.8192	1084.4185	1088.5546	1099.4954	1119.1484	1150.9226	1178.0778	1221.582	1250.9723	1272.4902	1305.6203	1338.3619	1357.8712	1382.3951	1400.2031	1480.7481	1483.5213	1494.9988	1726.7503	2945.1834	2963.6343	3038.9714	3113.33	3120.5833	3121.449	3187.697	3202.2684	3210.5881	3211.7317
CC1OC2C3CC3C2=C1	C[C@H]1O[C@H]2[C@H]3C[C@H]3[C]2[CH]1	
InChI=1S/C8H10O/c1-4-2-6-5-3-7(5)8(6)9-4/h2,4-5,7-8H,3H2,1H3	InChI=1S/C8H10O/c1-4-2-6-5-3-7(5)8(6)9-4/h2,4-5,7-8H,3H2,1H3/t4-,5+,7+,8-/m1/s1
