23
gdb 92902	2.018	1.68109	1.24799	1.4847	86.37	-0.2418	0.0208	0.2626	1156.5021	0.206619	-388.311793	-388.302475	-388.30153	-388.345036	36.838	
C	-0.3289080174	 1.5556420984	-0.0629545974	-0.394996
C	 0.021222167	 0.0516720832	-0.0193552354	-0.03952
C	 0.6425475023	-0.3815487166	-1.3268922775	-0.047023
C	 1.8599503036	-0.9105959797	-1.457519481	-0.087946
C	 2.7908774005	-1.1380195943	-0.2929459336	-0.290993
C	 2.394341428	-0.2702178581	 0.9070917849	 0.124336
O	 2.7978479615	 1.0868864949	 0.7140392011	-0.444131
C	 0.8840421048	-0.4015069823	 1.1931179942	 0.014187
C	 0.5028972596	 0.2767965374	 2.512137844	-0.421281
H	 0.5647367497	 2.1837646651	-0.071432669	 0.119264
H	-0.9102257147	 1.780388247	-0.9635436774	 0.107508
H	-0.9317824299	 1.8495286423	 0.8003683742	 0.117916
H	-0.9409506394	-0.4755019267	 0.0662187483	 0.080895
H	 0.028604517	-0.2328409348	-2.2138344225	 0.083203
H	 2.2155798214	-1.201765643	-2.4431478365	 0.08622
H	 2.7860428479	-2.1995593857	-0.0071680825	 0.10968
H	 3.8249966648	-0.9058361579	-0.5740750543	 0.107206
H	 2.9477522439	-0.6006430996	 1.7939843529	 0.075146
H	 2.5847979906	 1.3202957049	-0.1962680189	 0.282174
H	 0.7034908236	-1.4800025119	 1.3081518612	 0.070691
H	 0.7985474049	 1.3290491549	 2.5136876837	 0.135213
H	-0.5746799175	 0.2192692434	 2.699385779	 0.105247
H	 1.0109605678	-0.2104882011	 3.3513052324	 0.107004
116.1551	134.8509	211.5306	227.661	261.9034	276.7301	296.5466	354.4446	371.5907	398.608	443.4863	500.4994	581.6678	655.4243	702.8934	745.6073	811.5925	864.6227	907.0772	918.2622	964.7948	991.7227	1007.5412	1016.1194	1041.1084	1056.9551	1088.5902	1103.6412	1144.4145	1157.9139	1200.993	1223.1027	1275.9288	1305.184	1320.2908	1347.2494	1359.7003	1371.0871	1390.323	1401.2121	1404.6462	1426.0123	1433.1322	1469.5209	1488.1274	1499.4372	1501.0151	1516.4446	1716.9212	2978.6724	3000.1718	3007.2553	3032.9855	3040.3001	3042.2352	3053.1658	3093.2327	3105.9794	3121.3844	3127.7241	3131.157	3158.5529	3798.3116
CC1C=CCC(O)C1C	C[C@H]1C=CC[C@@H](O)[C@H]1C	
InChI=1S/C8H14O/c1-6-4-3-5-8(9)7(6)2/h3-4,6-9H,5H2,1-2H3	InChI=1S/C8H14O/c1-6-4-3-5-8(9)7(6)2/h3-4,6-9H,5H2,1-2H3/t6-,7-,8+/m0/s1
