15
gdb 8169	3.01869	2.64826	1.80725	3.3535	60.69	-0.2512	0.0132	0.2645	744.3248	0.120644	-399.810811	-399.804439	-399.803495	-399.840879	25.897	
O	 0.0550535373	 1.4120390522	 0.035414368	-0.479879
C	-0.0099335645	 0.0426769182	 0.075877188	 0.311341
C	 0.3093139499	-0.8331855465	 1.3316705206	-0.266733
C	-0.3553140221	-1.9151987076	 0.4382270039	-0.019553
C	-1.3344482841	-0.8095808383	-0.0549419898	-0.284836
N	 0.6455361381	-2.0014968443	-0.6604032852	-0.318945
C	 0.8221250838	-0.6749805386	-0.9958870151	 0.367914
O	 1.4265984077	-0.1517758925	-1.9036252433	-0.399227
H	 0.595709892	 1.6298377056	-0.7409448279	 0.29421
H	 1.3544583271	-0.9833803081	 1.6090896657	 0.113243
H	-0.3003104926	-0.556772492	 2.1939844556	 0.114739
H	-0.6750675675	-2.8811992759	 0.8179851472	 0.092692
H	-2.0867406813	-0.5227188611	 0.6828214667	 0.114591
H	-1.7790510507	-0.92907583	-1.0463983999	 0.105522
H	 0.6092540669	-2.7179787709	-1.3704916045	 0.254921
184.5215	263.7638	357.1408	405.6626	448.6229	483.4116	488.4639	547.6636	641.4376	703.4533	743.682	795.2716	847.359	922.327	928.9652	951.3777	978.5595	996.8772	1044.7313	1087.9364	1148.1699	1159.1888	1186.81	1210.8626	1225.0845	1306.5365	1346.909	1392.9857	1418.2234	1477.0224	1518.6041	1856.5433	3062.2357	3074.2049	3132.0384	3143.5104	3166.0526	3618.0892	3692.1246
OC12CC(C1)NC2=O	O[C@@]12C[C@@H](C1)NC2=O	
InChI=1S/C5H7NO2/c7-4-5(8)1-3(2-5)6-4/h3,8H,1-2H2,(H,6,7)	InChI=1S/C5H7NO2/c7-4-5(8)1-3(2-5)6-4/h3,8H,1-2H2,(H,6,7)/t3-,5-
