17
gdb 41321	3.27564	1.78721	1.36965	1.4369	71.99	-0.2377	0.0031	0.2407	938.1149	0.137576	-421.790338	-421.783672	-421.782728	-421.82127	26.954	
C	 0.017573988	 1.4723968612	 0.0299630571	-0.108519
O	 1.4731755427	 1.4856082513	-0.0204846015	-0.342242
C	 1.5281635957	 0.0605562562	 0.0390305214	 0.423389
C	 2.5500519414	-0.6929912523	-0.7930508267	-0.380902
C	 2.7389061528	-1.9562674446	 0.0225002073	-0.061287
C	 2.1320224546	-1.9209629855	 1.2129811486	-0.087982
C	 1.4420367975	-0.6066142323	 1.4368419263	 0.022411
O	-0.0207414945	-0.6487688646	 1.36740092	-0.314795
C	-0.0091941884	-0.0698906251	 0.0538367563	-0.001005
H	-0.3787267268	 1.9478417632	 0.9329332934	 0.114984
H	-0.4074423255	 1.9425929399	-0.8645138349	 0.107
H	 2.2077319572	-0.8928103852	-1.8153484135	 0.113999
H	 3.4772312731	-0.110041284	-0.8817313666	 0.126886
H	 3.3194614467	-2.7943543129	-0.3485165299	 0.103569
H	 2.1389311801	-2.7200110742	 1.945202667	 0.104516
H	 1.7778589825	-0.0492352557	 2.31739421	 0.090443
H	-0.6375742772	-0.6022455953	-0.6625901844	 0.089536
123.62	236.99	258.3978	364.2794	409.6116	476.6168	508.2154	659.9557	717.8282	770.1568	805.9464	839.7444	871.6672	925.2147	947.8261	959.2326	980.1123	985.4351	1005.573	1019.5816	1067.9743	1084.7151	1106.5223	1139.7642	1147.6812	1168.129	1206.4373	1241.9896	1282.5184	1298.179	1319.8012	1344.0386	1353.2167	1379.7787	1478.7688	1501.1689	1665.4428	3019.2752	3027.1975	3054.8283	3058.9331	3086.4049	3096.9896	3183.5993	3209.4183
C1OC23CC=CC2OC13	C1O[C@@]23CC=C[C@@H]2O[C@@H]13	
InChI=1S/C7H8O2/c1-2-5-7(3-1)6(9-5)4-8-7/h1-2,5-6H,3-4H2	InChI=1S/C7H8O2/c1-2-5-7(3-1)6(9-5)4-8-7/h1-2,5-6H,3-4H2/t5-,6-,7-/m0/s1
