19
gdb 17401	4.18177	1.54842	1.48102	1.7298	75.39	-0.2228	0.0827	0.3055	951.6122	0.165867	-327.86467	-327.857176	-327.856232	-327.896143	29.348	
C	-0.1033111418	 1.5169552652	 0.0080005066	-0.405313
C	-0.0207215717	 0.0066679232	 0.0396338231	-0.061585
C	 1.301810588	-0.6951956208	-0.1900350576	-0.365929
C	 0.6715871056	-0.702037324	 1.1706370348	 0.373239
C	 1.2876317603	-0.1632674301	 2.4687598935	-0.249408
N	 0.9117048374	-1.4206404591	 3.2161748354	-0.125975
C	-0.5579644012	-1.5126181945	 3.1351583716	-0.238881
C	 0.2268861515	-1.9154950998	 1.9499335294	-0.115796
H	 0.7958983575	 1.9716187538	 0.4372212376	 0.115957
H	-0.2020011695	 1.8873757115	-1.0183112407	 0.119038
H	-0.9636290501	 1.8840609314	 0.5789372262	 0.116388
H	-0.894743538	-0.5024750126	-0.3615016044	 0.082716
H	 1.3067715925	-1.6197866082	-0.759275158	 0.111514
H	 2.1851100333	-0.0791783039	-0.3357368415	 0.10929
H	 2.3751917373	-0.0607042631	 2.4372986519	 0.112541
H	 0.8520465077	 0.7453712543	 2.9004628264	 0.100877
H	-0.9648244299	-2.2969348467	 3.7666002429	 0.118721
H	-1.146649844	-0.5973175969	 3.1061913104	 0.10863
H	 0.3139971049	-2.9470952795	 1.6210009522	 0.093977
121.3559	163.6872	193.7221	227.1946	366.2427	402.221	453.2184	487.0155	550.1415	739.6572	778.7895	793.6261	833.9827	876.5513	914.7181	925.4268	956.3706	977.8478	1026.9578	1049.7926	1053.3758	1090.7388	1104.7215	1110.7383	1124.3286	1135.4503	1181.8968	1196.9696	1215.0001	1246.7447	1280.3067	1311.1903	1361.8124	1413.7661	1438.9131	1488.6838	1491.255	1492.8466	1504.2392	1508.9413	3025.2125	3033.1636	3087.2961	3092.7662	3096.6426	3097.7372	3114.3131	3128.092	3150.1113	3192.739	3198.85
CC1CC11CN2CC12	C[C@H]1C[C@]21CN1C[C@@H]21	
InChI=1S/C7H11N/c1-5-2-7(5)4-8-3-6(7)8/h5-6H,2-4H2,1H3	InChI=1S/C7H11N/c1-5-2-7(5)4-8-3-6(7)8/h5-6H,2-4H2,1H3/t5-,6-,7+,8?/m0/s1
