18
gdb 28418	3.02148	1.33654	0.93736	3.3002	83.52	-0.2194	-0.0127	0.2067	1235.1617	0.147836	-402.022814	-402.014192	-402.013248	-402.055712	32.76	
C	 0.0369959773	 1.5104331886	-0.045850699	-0.500364
C	 0.0382915841	 0.0037241204	-0.0154579116	 0.267094
C	 0.0616005634	-0.7321545129	-1.1973206223	-0.306773
C	 0.0626610244	-2.123361886	-1.1494684645	 0.34013
O	 0.0845975536	-2.9189112791	-2.2549618329	-0.438981
C	 0.0398870831	-2.7333753689	 0.1037660733	-0.068955
N	 0.0174728838	-2.0430298776	 1.2407230875	-0.310751
C	 0.0163632748	-0.7052002501	 1.2000843244	 0.235387
C	-0.0094196969	 0.0107608201	 2.5266475219	-0.484237
H	 0.9065547956	 1.9244202021	 0.4777219577	 0.135346
H	 0.0541173419	 1.8860918125	-1.0723430387	 0.119405
H	-0.8508529863	 1.9223905284	 0.4477082116	 0.135327
H	 0.0789247227	-0.2181873361	-2.1566246937	 0.084188
H	 0.0987381266	-2.3661923526	-3.0432129281	 0.29756
H	 0.0401267581	-3.8183981509	 0.1704034088	 0.110766
H	 0.8675855015	 0.6562698034	 2.6586009054	 0.122705
H	-0.8916581652	 0.6550855416	 2.6251476204	 0.122691
H	-0.0241867126	-0.7255402529	 3.3310422398	 0.139462
129.494	138.5297	167.376	219.1553	292.1659	319.7402	340.7554	358.6069	473.3854	477.5263	488.5972	559.4597	593.8985	733.1231	756.0144	764.9866	890.4119	933.4842	977.039	1014.7951	1025.0593	1041.9254	1075.0037	1152.6081	1193.9555	1251.27	1282.883	1313.9568	1339.0139	1404.845	1418.4406	1460.1023	1478.3234	1481.2571	1491.7378	1494.2107	1514.52	1619.2743	1645.0641	3023.4644	3027.9495	3069.3073	3078.9772	3111.9715	3142.4864	3144.0643	3161.9022	3820.5341
CC1=CC(O)=CN=C1C	Cc1cc(O)cnc1C	
InChI=1S/C7H9NO/c1-5-3-7(9)4-8-6(5)2/h3-4,9H,1-2H3	InChI=1S/C7H9NO/c1-5-3-7(9)4-8-6(5)2/h3-4,9H,1-2H3
