20
gdb 118805	2.38212	1.07772	0.83771	1.4583	83.49	-0.244	0.0364	0.2804	1439.937	0.167845	-403.077479	-403.067183	-403.066239	-403.112957	37.213	
C	 0.0383321639	 1.3762918542	 0.1832775066	-0.222995
O	 0.0244916689	-0.0303866763	 0.2048284307	-0.238928
C	-1.2368671938	-0.5698265837	-0.1313586574	-0.101861
C	-1.144847398	-2.0779478319	-0.0586501853	 0.300716
C	-0.0156968995	-2.693940049	-0.857577503	-0.465858
N	-1.4865287738	-2.6423147494	 1.2526520799	-0.346233
C	-2.4097639737	-2.867545077	 0.1104825707	-0.315581
C	-3.7187281671	-2.2756903227	 0.1718250979	 0.385417
C	-4.823876408	-1.8018041913	 0.1865700247	-0.44024
H	 1.0478026922	 1.6981400985	 0.4506697054	 0.125883
H	-0.2088845033	 1.7728437811	-0.8147701317	 0.101849
H	-0.6745808726	 1.802598991	 0.9062881947	 0.108329
H	-2.0139731421	-0.214350657	 0.558782982	 0.108242
H	-1.5259485764	-0.2626418938	-1.1521676616	 0.085135
H	 0.9464399897	-2.3368060761	-0.4814115134	 0.146652
H	-0.0370814627	-3.7866898647	-0.7934049554	 0.108554
H	-0.0845235033	-2.4148612859	-1.9145531717	 0.125291
H	-0.9530956285	-3.4925142645	 1.4226269854	 0.231925
H	-2.3944617529	-3.8545329082	-0.3487566822	 0.107012
H	-5.797670629	-1.3793020433	 0.2122097638	 0.196693
77.2724	88.0054	101.4815	146.8063	201.9188	215.331	228.8982	306.6322	344.671	363.1426	397.1219	460.9466	559.4816	589.235	613.5262	657.449	754.3393	818.5313	895.519	954.496	975.0842	988.3502	1006.771	1057.3807	1104.7991	1135.4541	1158.4465	1185.4048	1204.4695	1226.6372	1255.0235	1320.2623	1345.9422	1411.6931	1425.3035	1445.0365	1478.717	1480.6916	1484.146	1499.5753	1506.1371	1520.662	2238.0183	2951.1039	2969.944	3013.7082	3032.0764	3034.256	3099.491	3113.1759	3117.808	3122.0847	3489.4516	3503.6996
COCC1(C)NC1C#C	COC[C@@]1(C)N[C@H]1C#C	
InChI=1S/C7H11NO/c1-4-6-7(2,8-6)5-9-3/h1,6,8H,5H2,2-3H3	InChI=1S/C7H11NO/c1-4-6-7(2,8-6)5-9-3/h1,6,8H,5H2,2-3H3/t6-,7+/m0/s1
