16
gdb 123848	3.57654	1.569	1.13313	0.9256	69.66	-0.2546	-0.0067	0.2479	1017.7209	0.128904	-434.076399	-434.069707	-434.068763	-434.107531	26.12	
C	-0.0040850956	 1.4085382931	 0.0108724485	-0.082257
C	 1.4337959526	 1.9654522882	 0.004514702	-0.333586
C	 2.174858914	 1.2421258791	-1.071321161	 0.280712
N	 3.331477818	 1.563825992	-1.6512136173	-0.294845
N	 3.5024577012	 0.5796605419	-2.5291670094	-0.089415
N	 2.5603333604	-0.3592386372	-2.5745617604	-0.291486
C	 1.7016028132	 0.0502701204	-1.6433982383	 0.254155
C	 0.4113190806	-0.5828002974	-1.222660097	-0.19056
O	-0.0200004949	-0.0130609001	 0.0061161107	-0.248697
H	-0.5360719745	 1.7125765692	 0.9156223576	 0.114694
H	-0.5580568753	 1.798292535	-0.8585866484	 0.095813
H	 1.4248728175	 3.0475828994	-0.1630793136	 0.120835
H	 1.9014922462	 1.7906999028	 0.9807157624	 0.128173
H	 4.3106868222	 0.5429497075	-3.1283865505	 0.292171
H	-0.358915	-0.4496748709	-2.000974508	 0.109926
H	 0.5219296843	-1.6564582428	-1.0462436972	 0.134366
116.6407	224.671	309.127	333.7928	390.3077	462.9552	493.2593	530.2016	691.2208	711.36	727.9532	751.4399	858.6037	945.1148	977.9729	1007.4368	1027.8014	1090.769	1117.3399	1180.1051	1181.8528	1215.1333	1231.0427	1244.2669	1301.344	1340.2405	1355.8221	1395.8487	1423.2384	1453.2003	1473.3178	1488.8438	1499.0768	1535.3739	1575.3378	2964.1851	2977.1166	3036.9901	3082.0215	3086.7159	3099.5158	3673.9201
C1CC2=NNN=C2CO1	C1Cc2n[nH]nc2CO1	
InChI=1S/C5H7N3O/c1-2-9-3-5-4(1)6-8-7-5/h1-3H2,(H,6,7,8)	InChI=1S/C5H7N3O/c1-2-9-3-5-4(1)6-8-7-5/h1-3H2,(H,6,7,8)
