16
gdb 45826	2.66108	1.8642	1.23974	1.0697	70.63	-0.2334	-0.0252	0.2082	977.9473	0.128227	-434.085569	-434.078541	-434.077597	-434.117278	27.1	
O	 0.0791933313	-0.0365953908	-0.3632024196	-0.356703
C	 0.0397713415	 1.1520113878	-0.1374468378	 0.449951
N	-1.1550780229	 1.839643513	-0.0174490908	-0.342088
C	-1.258860275	 3.2204951438	 0.1457342057	 0.100209
N	-0.3126579035	 4.0642255572	 0.1562899153	-0.239525
C	 1.042847721	 3.5792873121	 0.0120831025	 0.000058
C	 1.8499706007	 3.6289739559	 1.3387206457	-0.169284
N	 1.6143002396	 2.1736839243	 1.5041368719	-0.315488
C	 1.2575203582	 2.0315593491	 0.0731569166	-0.136124
H	-1.99593588	 1.2844515163	-0.0877598813	 0.2595
H	-2.2864064694	 3.5643270475	 0.2595706306	 0.12601
H	 1.5074709747	 4.0922209027	-0.8330103294	 0.094708
H	 2.8999092159	 3.9096114131	 1.1787348226	 0.095614
H	 1.4237130495	 4.2499342378	 2.1316885354	 0.116983
H	 2.4046281891	 1.6181830902	 1.8101057456	 0.227972
H	 2.0636228396	 1.6680894698	-0.5751989228	 0.088206
94.469	138.8194	233.8259	320.1668	426.4007	496.4238	528.9437	542.8601	620.3836	668.446	737.6438	803.0326	828.9702	885.2853	938.8227	954.5057	982.8295	1010.8529	1028.2007	1056.2443	1102.3595	1119.9119	1157.4392	1211.0945	1247.0676	1282.6183	1311.4717	1340.6258	1363.0761	1388.2885	1427.5863	1457.5503	1514.2923	1744.3728	1820.1342	3006.9386	3033.889	3080.0891	3086.8332	3139.4108	3542.1849	3610.5729
O=C1NC=NC2CNC12	O=C1NC=N[C@H]2CN[C@@H]12	
InChI=1S/C5H7N3O/c9-5-4-3(1-6-4)7-2-8-5/h2-4,6H,1H2,(H,7,8,9)	InChI=1S/C5H7N3O/c9-5-4-3(1-6-4)7-2-8-5/h2-4,6H,1H2,(H,7,8,9)/t3-,4+/m0/s1
