15
gdb 124218	4.96756	0.98887	0.82896	5.5946	70.37	-0.2434	-0.0362	0.2072	1314.1975	0.113097	-450.097054	-450.088893	-450.087949	-450.130719	29.23	
C	-0.0138722546	 1.5111157763	-0.1359883045	-0.491276
C	-0.0125239934	 0.0268034186	 0.157364911	 0.367213
N	-0.0418062411	-0.5297332947	 1.30464641	-0.505404
N	 0.0257009061	-0.7440616203	-0.9944608621	-0.413681
C	 0.0369771105	-2.1200041298	-1.0709877696	 0.430612
N	 0.0742190499	-2.7172946612	-2.2375413149	-0.197335
O	 0.0751011862	-4.0599976275	-1.9551705562	-0.150275
N	 0.0382303904	-4.2860997361	-0.6126097496	-0.066179
C	 0.0142989868	-3.1136609732	-0.044397687	-0.085584
H	 0.8850813307	 1.7994683857	-0.6919615219	 0.148877
H	-0.8826751094	 1.7877324367	-0.743466821	 0.148854
H	-0.0447064887	 2.0825647112	 0.7922253708	 0.142394
H	-0.0675763345	 0.1722770902	 2.0396356502	 0.222854
H	 0.0480744186	-0.2710549865	-1.883775237	 0.268251
H	-0.0170479376	-2.9747935794	 1.0209274419	 0.18068
65.9094	79.6689	118.6148	181.3132	342.6034	350.3499	370.7374	484.7343	569.798	579.0633	629.3465	723.8379	778.4273	837.4196	911.5018	912.2124	924.0078	954.5015	1009.8977	1038.1016	1064.2935	1072.8108	1142.4746	1201.9173	1326.8637	1402.9218	1439.5635	1478.3617	1480.8098	1498.0336	1534.0872	1646.0777	1723.598	3038.017	3098.0587	3146.5802	3322.8166	3521.1963	3643.5126
CC(=N)NC1=NON=C1	CC(=N)Nc1nonc1	
InChI=1S/C4H6N4O/c1-3(5)7-4-2-6-9-8-4/h2H,1H3,(H2,5,7,8)	InChI=1S/C4H6N4O/c1-3(5)7-4-2-6-9-8-4/h2H,1H3,(H2,5,7,8)
