19
gdb 34307	3.21318	1.42913	1.27622	4.9012	78.51	-0.2349	0.033	0.2679	1045.6087	0.16353	-382.096772	-382.08944	-382.088495	-382.128342	29.641	
N	 0.0530651678	-1.1058156429	 0.0365870402	-0.345916
C	 0.0287044437	 0.0491919127	 0.0124578306	 0.210746
C	-0.0319337216	 1.507909128	 0.0156285487	 0.186364
C	-0.8385945334	 2.1060298914	 1.2051864378	-0.246479
C	-1.108492523	 3.5632274019	 0.7106815505	-0.221249
C	-0.4335449544	 3.5970099042	-0.6808536757	-0.033482
C	 1.0918806194	 3.5242151556	-0.4849246113	-0.166719
N	 1.3145866607	 2.1105788502	-0.0670136025	-0.326101
C	-0.7200125537	 2.1729981116	-1.1993871333	-0.233343
H	-1.7648266001	 1.5502830151	 1.3770843374	 0.119067
H	-0.254011091	 2.0616247778	 2.1279418864	 0.107083
H	-2.1820952369	 3.7524143228	 0.625294273	 0.106918
H	-0.6961522192	 4.3185207159	 1.3853581601	 0.102679
H	-0.7604025829	 4.4173198842	-1.3208517018	 0.072851
H	 1.6338416889	 3.7299123566	-1.4161012237	 0.10787
H	 1.4425045152	 4.2388952557	 0.2684077122	 0.098387
H	 1.7936297286	 2.0468903237	 0.8237051547	 0.224665
H	-0.2218327154	 1.926920988	-2.1388634046	 0.123935
H	-1.7826741025	 1.9306028375	-1.2647951989	 0.112723
142.4105	155.0381	189.9738	341.0739	401.1826	450.4292	502.3967	543.4166	556.275	559.8297	765.8437	776.5642	800.7691	832.9777	851.2078	929.0719	940.0519	955.99	962.1826	975.3147	993.3477	1049.8837	1089.4934	1112.3933	1148.6591	1163.1445	1196.5202	1212.2605	1245.2116	1264.2976	1281.5029	1300.9932	1327.2486	1341.6664	1366.1675	1421.5529	1487.0638	1489.5948	1507.5194	1529.0784	2361.4079	3018.5681	3052.3778	3055.341	3062.1739	3079.0605	3090.3521	3109.9147	3112.1405	3138.1005	3542.54
N#CC12CCC(CN1)C2	N#C[C@@]12CC[C@@H](CN1)C2	
InChI=1S/C7H10N2/c8-5-7-2-1-6(3-7)4-9-7/h6,9H,1-4H2	InChI=1S/C7H10N2/c8-5-7-2-1-6(3-7)4-9-7/h6,9H,1-4H2/t6-,7+/m1/s1
