17
gdb 105564	1.976	1.58466	1.31983	4.9854	75.18	-0.2462	0.0036	0.2498	1080.2113	0.136336	-414.173795	-414.164654	-414.16371	-414.207602	33.097	
C	-0.0366722816	 1.564592768	 0.0687523558	-0.347576
N	-0.023931779	 0.1002448693	-0.0452321669	-0.331224
C	-1.3322387377	-0.5229737048	-0.0073786387	 0.074821
C	-1.2646904315	-2.0836012713	 0.1467271173	-0.204895
N	-1.9737570963	-1.9256983524	 1.4195261667	-0.32691
C	-1.9555996681	-0.5441218987	 1.4146254547	 0.39412
N	-2.2676187953	 0.4004994166	 2.1896129072	-0.540394
C	-2.2513796389	-0.0739137657	-1.0682274168	 0.250679
N	-2.9214051642	 0.2968071769	-1.9348221625	-0.344269
H	 0.9976499402	 1.9175174806	 0.0655328057	 0.121347
H	-0.5834324912	 2.0648941512	-0.7447310579	 0.123983
H	-0.5013349003	 1.8409668226	 1.0167694683	 0.172813
H	 0.4406890404	-0.1716338503	-0.906984059	 0.230449
H	-1.8079479515	-2.6654006014	-0.6018451451	 0.132206
H	-0.2299567952	-2.4277417735	 0.2341469057	 0.125751
H	-1.9658904911	-2.5445524846	 2.2162706603	 0.250785
H	-2.6024782587	 0.0655636774	 3.0942314852	 0.218315
106.1712	119.1817	130.9362	175.2875	193.9531	253.3867	277.3435	375.9737	398.6799	431.5733	544.2281	578.3714	640.704	705.3823	776.8659	797.3213	824.2987	903.92	982.0554	1022.8515	1045.8371	1069.419	1135.5331	1163.7983	1180.3868	1202.5132	1244.0661	1249.2395	1331.1079	1388.9597	1455.8744	1476.1392	1497.7882	1510.812	1523.7626	1804.5956	2341.8149	2994.319	3050.9321	3093.948	3111.4459	3145.5727	3467.8969	3504.4479	3615.6918
CNC1(CNC1=N)C#N	CN[C@]1(CN[C]1[NH])C#N	
InChI=1S/C5H8N4/c1-8-5(2-6)3-9-4(5)7/h8H,3H2,1H3,(H2,7,9)	InChI=1S/C5H8N4/c1-8-5(2-6)3-9-4(5)7/h8H,3H2,1H3,(H2,7,9)/t5-/m0/s1
