17
gdb 27190	3.20298	1.65945	1.23662	0.8238	80.93	-0.1735	0.0248	0.1983	1009.7832	0.138619	-380.830374	-380.823192	-380.822248	-380.861697	29.052	
N	-0.1256836151	 1.371473188	-0.2259226168	-0.605293
C	-0.0712288233	-0.0157735953	-0.0253758836	 0.169681
C	-1.0951974004	-0.8924488931	 0.2812765027	 0.106429
C	-2.4812360493	-1.3849127113	-0.0792849326	-0.187843
C	-2.3784777162	-2.1462106014	-1.3942776834	-0.275116
C	-1.8605344808	-2.7776474565	-0.1269238678	-0.02093
N	-0.5764001305	-2.1901727024	 0.2888052664	 0.0054
C	 0.7444736768	-2.1642802344	-0.0702233132	-0.131913
C	 1.1022163149	-0.8322133591	-0.1722590904	-0.192513
H	 0.7166459263	 1.846360058	 0.0724684731	 0.240487
H	-0.9236723447	 1.8004912346	 0.2227484463	 0.241615
H	-3.4280716933	-1.0933451572	 0.3553153119	 0.098086
H	-3.3032642497	-2.5713867848	-1.7777233708	 0.113355
H	-1.6782835182	-1.812097727	-2.1534567908	 0.132442
H	-2.2099872882	-3.7149901422	 0.2860246146	 0.108945
H	 1.3572938699	-3.051871248	-0.1085164467	 0.113547
H	 2.1109172516	-0.4610376778	-0.2958385189	 0.083622
135.0261	193.4451	216.6908	295.099	376.3634	482.6313	524.0262	629.5421	645.299	688.3103	716.2946	730.3348	752.0564	782.6055	817.2144	826.2055	871.4581	928.5431	981.1018	996.4974	1037.1902	1051.4885	1069.4272	1080.2004	1106.3125	1169.6243	1208.3669	1227.4353	1270.7892	1284.883	1325.6694	1398.376	1435.7448	1473.8045	1475.7461	1631.3675	1657.8755	3112.877	3194.0202	3199.4152	3208.9845	3217.8437	3252.8047	3538.5578	3629.2136
NC1=C2C3CC3N2C=C1	N[C]1[C]2[C@H]3C[C@H]3N2C=C1	
InChI=1S/C7H8N2/c8-5-1-2-9-6-3-4(6)7(5)9/h1-2,4,6H,3,8H2	InChI=1S/C7H8N2/c8-5-1-2-9-6-3-4(6)7(5)9/h1-2,4,6H,3,8H2/t4-,6+/m0/s1
