17
gdb 89918	5.37886	0.86514	0.82352	3.7537	70.01	-0.2664	0.0029	0.2692	1367.7795	0.134393	-458.945052	-458.936518	-458.935574	-458.978711	31.405	
O	-0.2844818887	 1.4627662082	-0.1259247168	-0.426906
C	-0.063034768	 0.0742116227	-0.0453718212	 0.118212
C	 0.4530762961	-0.5158510749	 1.3219356506	-0.345364
C	-0.8620993684	-1.2836861878	 1.4242849379	 0.422062
C	-2.0454763033	-0.3656574823	 1.3943383599	-0.332552
C	-1.3528072629	-0.7286067957	 0.097372551	-0.130774
O	-0.9285917037	-2.6136623033	 1.8517513577	-0.229817
C	-1.3423012923	-2.8387903841	 3.1227468102	 0.148111
O	-1.3877381884	-3.9338345176	 3.5930026469	-0.26814
H	 0.5697446309	 1.9041324744	-0.1707714248	 0.288043
H	 0.5486595267	-0.2826007935	-0.8832623566	 0.082418
H	 1.3132942913	-1.1754791557	 1.1899780978	 0.119817
H	 0.6585302928	 0.2091949649	 2.1157024416	 0.101098
H	-3.0060605685	-0.8531985432	 1.5255467512	 0.126418
H	-1.9835117165	 0.6438618949	 1.7885497184	 0.131577
H	-1.8829300169	-1.2258491341	-0.7042098409	 0.105722
H	-1.6302090402	-1.9091586829	 3.6458705872	 0.090076
64.4559	100.0009	144.5378	217.6467	272.8163	304.0814	357.8118	401.6049	438.5944	520.8403	572.6809	672.6313	777.8669	832.0418	876.2475	946.2882	962.8901	975.8473	981.5805	1032.6368	1049.9393	1064.5272	1088.0279	1111.2781	1160.7689	1173.0426	1214.4408	1227.9632	1248.4359	1274.9539	1328.8448	1376.0112	1418.8953	1423.0334	1471.0262	1497.6101	1869.8147	2981.3038	3021.7399	3051.7787	3120.7107	3127.0907	3203.0074	3217.5616	3816.9719
OC1CC2(CC12)OC=O	O[C@H]1C[C@]2(C[C@@H]12)OC=O	
InChI=1S/C6H8O3/c7-3-9-6-1-4(6)5(8)2-6/h3-5,8H,1-2H2	InChI=1S/C6H8O3/c7-3-9-6-1-4(6)5(8)2-6/h3-5,8H,1-2H2/t4-,5-,6-/m0/s1
