18
gdb 59078	2.15059	1.36545	1.05337	3.4143	72.97	-0.2678	0.0266	0.2945	1200.5726	0.145457	-439.078866	-439.06897	-439.068026	-439.11389	35.577	
C	 0.2211570012	 1.4347823887	 0.2595461546	-0.407376
C	-0.2037239425	-0.0047137727	-0.0380783112	 0.11143
O	-1.5778381427	-0.0858164421	-0.4083106995	-0.443581
C	 0.561929065	-0.5730057917	-1.2126700455	-0.034246
C	 1.9380858744	-1.1245425958	-1.0530663597	 0.073952
O	 2.4775637513	-1.0908879111	 0.2257081722	-0.402039
C	 0.7775195772	-2.0815612712	-1.3545545845	-0.25729
C	 0.356115896	-2.9783488096	-0.3193464137	 0.300186
N	 0.0530474063	-3.719280075	 0.5166191668	-0.349979
H	 1.2763337102	 1.4728254251	 0.5451737114	 0.13636
H	 0.0627792788	 2.0730364353	-0.6155782686	 0.119529
H	-0.3688926719	 1.841953424	 1.0879495928	 0.108116
H	-0.0074864335	-0.6240645289	 0.8460460897	 0.100409
H	-2.1051039507	 0.1635450473	 0.3570256964	 0.285529
H	 0.3481104756	-0.0683291099	-2.1504793912	 0.112097
H	 2.6504856261	-0.9768188918	-1.8642103259	 0.107156
H	 2.923328243	-1.9269332882	 0.4027345177	 0.304697
H	 0.7222840961	-2.4983044625	-2.3545073917	 0.135049
55.3724	97.3369	123.3907	167.7299	239.6749	244.718	260.0203	276.5288	339.3531	389.5855	397.606	474.2643	583.7638	635.7991	666.8587	770.8989	801.5902	853.5861	926.1613	987.491	999.0678	1035.3603	1089.0156	1117.7114	1124.6644	1135.6295	1169.7832	1233.1625	1267.7044	1309.6203	1339.128	1364.79	1377.7546	1402.4288	1433.5051	1461.3022	1495.3052	1503.4136	2350.0233	3031.1928	3032.9052	3102.1463	3106.2552	3121.4028	3156.7452	3171.7234	3801.4476	3823.3602
CC(O)C1C(O)C1C#N	C[C@@H](O)[C@H]1[C@@H](O)[C@H]1C#N	
InChI=1S/C6H9NO2/c1-3(8)5-4(2-7)6(5)9/h3-6,8-9H,1H3	InChI=1S/C6H9NO2/c1-3(8)5-4(2-7)6(5)9/h3-6,8-9H,1H3/t3-,4+,5-,6+/m1/s1
