18
gdb 30060	3.04573	1.37915	1.02408	3.9664	79.84	-0.2083	0.0223	0.2306	1169.7218	0.15022	-398.140275	-398.131946	-398.131002	-398.174309	30.156	
C	 0.1521529624	 1.4785233818	-0.0466110466	-0.345287
N	 0.0387872948	 0.0320619225	-0.0109436318	-0.05168
C	 0.0305842103	-0.8076182817	-1.1091096096	-0.138715
C	-0.1229826997	-2.0717342912	-0.6103322761	-0.096259
N	-0.2098593672	-2.0370147374	 0.7593735197	-0.335661
C	-0.115471806	-0.763456115	 1.0909100966	 0.373057
C	-0.1683347022	-0.2658746299	 2.4797272363	-0.128225
C	-1.2271095588	-0.7969078533	 3.3913193131	-0.225748
N	 0.1679766581	-1.2117953912	 3.5554827086	-0.311852
H	 0.949969419	 1.8228896395	 0.6172175977	 0.151396
H	 0.3963410236	 1.7877511676	-1.0638409706	 0.146226
H	-0.784931237	 1.9607917565	 0.2492114197	 0.147105
H	 0.1378129415	-0.4229473387	-2.1099282986	 0.12502
H	-0.1676822179	-3.0018128606	-1.1560774635	 0.108584
H	 0.1966080309	 0.7452208972	 2.6393598295	 0.08636
H	-1.6201413481	-0.166669365	 4.1848955862	 0.115297
H	-1.9292883419	-1.5020155419	 2.9562563932	 0.129238
H	 0.2910077483	-2.1246438691	 3.1168365761	 0.251143
53.4472	57.1648	165.5751	184.9102	209.8703	295.8632	417.1435	489.4884	628.8602	633.931	712.7358	747.5374	751.1913	835.4747	845.4953	888.5445	937.5734	981.5957	1012.8853	1056.6038	1106.0867	1111.3755	1132.7472	1150.3433	1163.8301	1189.3574	1216.1308	1281.8452	1313.735	1322.5318	1365.0731	1395.3092	1452.2023	1487.5679	1494.5158	1506.607	1514.9899	1527.3934	1563.7005	3042.6763	3105.3254	3107.6805	3138.9347	3143.9923	3203.0787	3247.5608	3275.5124	3472.7953
CN1C=CN=C1C1CN1	Cn1ccnc1[C@H]1CN1	
InChI=1S/C6H9N3/c1-9-3-2-7-6(9)5-4-8-5/h2-3,5,8H,4H2,1H3	InChI=1S/C6H9N3/c1-9-3-2-7-6(9)5-4-8-5/h2-3,5,8H,4H2,1H3/t5-/m1/s1
