18
gdb 69727	3.69989	1.62227	1.42073	1.8514	73.94	-0.2273	0.0728	0.3001	949.5331	0.148539	-401.851413	-401.84463	-401.843685	-401.882179	28.313	
C	 0.0511665403	 1.4877309525	 0.0305022522	-0.472259
C	-0.0737229537	-0.0140196781	 0.0006851094	 0.304417
C	-0.6453069162	-0.7826834987	 1.1423567778	-0.288186
N	 0.8114508163	-0.8236000223	 0.8889144978	-0.155232
C	 1.2026222685	-1.8945427774	-0.0282659001	-0.018176
C	 0.0852335723	-2.2794130846	-1.0596550667	 0.025139
O	 1.0900316898	-2.4902121554	-2.1073285102	-0.317408
C	 1.5210944657	-1.274629376	-1.4230949862	 0.05865
C	 0.0389682977	-0.7497043475	-1.3228857983	-0.10965
H	 0.9107721508	 1.822750742	-0.5604848471	 0.121639
H	-0.8460976121	 1.9633975166	-0.3810187717	 0.119968
H	 0.1881987793	 1.8420468219	 1.0554431053	 0.130191
H	-0.9219543272	-0.248202248	 2.0468586976	 0.118406
H	-1.2339979655	-1.6762792526	 0.9535578273	 0.116034
H	 1.8455537431	-2.6688215249	 0.3866015064	 0.090686
H	-0.727491628	-3.0021295215	-0.9961748981	 0.095736
H	 2.4210011428	-0.7731260188	-1.7790495604	 0.098735
H	-0.4565381837	-0.3726068574	-2.2160217749	 0.081309
182.0474	202.1657	262.0794	355.7604	416.9042	505.1383	530.3105	580.4173	669.2441	754.0753	780.9574	797.4641	843.513	884.117	889.0899	902.101	930.0554	950.7986	979.8987	992.8055	1005.8042	1067.0062	1107.0574	1119.2834	1128.6386	1146.5657	1156.4172	1164.2573	1189.9904	1197.4671	1228.0863	1269.0043	1325.7033	1332.7213	1372.8618	1417.2036	1484.5163	1493.2965	1509.841	3030.5416	3091.9816	3110.6699	3117.2219	3119.5412	3120.5586	3141.0522	3148.1276	3196.7703
CC12CN1C1C3OC1C23	C[C@]12CN1[C@H]1[C@@H]3O[C@H]1[C@H]23	
InChI=1S/C7H9NO/c1-7-2-8(7)4-5-3(7)6(4)9-5/h3-6H,2H2,1H3	InChI=1S/C7H9NO/c1-7-2-8(7)4-5-3(7)6(4)9-5/h3-6H,2H2,1H3/t3-,4+,5-,6+,7-,8?/m1/s1
