20
gdb 5845	3.13954	1.50059	1.32093	1.7153	71.53	-0.2624	0.0183	0.2807	1061.968	0.17386	-386.188291	-386.178203	-386.177259	-386.223234	35.712	
C	 0.0466737987	 1.3541232591	 0.0088651962	-0.238949
O	-0.0303600678	-0.0754094349	 0.0016817109	-0.240775
C	-1.2808632006	-0.5893111427	 0.0109388043	 0.45427
O	-2.2696921908	 0.1005852866	 0.024435501	-0.370445
C	-1.2569006953	-2.1203678151	 0.0025486178	 0.128463
C	-2.7025647121	-2.6361751591	 0.0135514751	-0.398404
C	-0.5270447021	-2.6023531168	-1.2698333409	-0.409028
C	-0.503089015	-2.6156830518	 1.2557162204	-0.409024
H	 1.1099918087	 1.5950381376	 0.0004481414	 0.130624
H	-0.4475009315	 1.7723545238	-0.8718756418	 0.139374
H	-0.4312733127	 1.762568552	 0.9030441654	 0.139398
H	-3.2543657554	-2.2824213835	-0.8608702181	 0.123069
H	-2.7063334205	-3.7307806192	 0.0078545444	 0.104552
H	-3.2376525456	-2.2916358597	 0.9019238053	 0.123088
H	 0.5009649974	-2.234600625	-1.3018207013	 0.128563
H	-0.5038295513	-3.6968818804	-1.2907206591	 0.114433
H	-1.0418170371	-2.2613658068	-2.17414971	 0.118891
H	-1.0006456009	-2.2843846746	 2.1731739869	 0.118901
H	-0.4794986179	-3.7103671158	 1.2645617768	 0.114437
H	 0.5253502817	-2.2480995637	 1.2721165354	 0.128563
37.9026	109.2477	129.555	198.2483	199.263	246.9248	254.4008	285.4381	317.9253	338.3649	361.144	377.2304	493.6489	586.6329	777.698	794.5026	871.5233	941.1013	947.0715	967.9153	1011.7715	1050.0344	1058.6083	1178.7287	1183.5983	1212.2264	1229.1926	1252.3934	1306.1819	1394.9157	1401.2628	1430.7452	1470.8047	1475.5845	1480.2677	1483.407	1489.6369	1496.9645	1497.9697	1502.2308	1521.4917	1812.4836	3033.8002	3035.9112	3045.3733	3049.7634	3099.1386	3101.1024	3116.3504	3123.3607	3124.3175	3126.7878	3128.3925	3155.3744
COC(=O)C(C)(C)C	COC(=O)C(C)(C)C	
InChI=1S/C6H12O2/c1-6(2,3)5(7)8-4/h1-4H3	InChI=1S/C6H12O2/c1-6(2,3)5(7)8-4/h1-4H3
