19
gdb 72428	2.74376	1.57452	1.3157	2.5446	73.93	-0.2351	-0.0124	0.2228	1021.2272	0.160913	-423.06855	-423.060956	-423.060012	-423.10024	31.012	
O	-0.0501094305	 1.3695581676	 0.0200013789	-0.497404
C	 0.027070487	-0.0341935435	 0.0019770136	 0.415183
C	 0.6974046566	-0.6864365926	 1.2383612026	-0.264824
C	 0.1326861101	-2.1390511354	 1.2216890504	-0.227867
C	-0.8180406439	-2.1453616058	-0.0174518465	-0.122663
C	-1.3632136999	-0.7034115486	 0.0103078464	-0.265658
C	 0.1095936316	-2.0940391169	-1.2316789731	 0.425807
O	 0.3828258296	-2.9892884839	-1.9865499197	-0.330039
C	 0.6507175777	-0.652144702	-1.2710958224	-0.388688
H	 0.8456801139	 1.7229610117	 0.0159345448	 0.277744
H	 1.79010441	-0.6553026444	 1.1795884351	 0.094077
H	 0.3963884228	-0.1438664236	 2.1384337519	 0.108465
H	 0.9080625924	-2.9058668467	 1.1491646904	 0.116771
H	-0.4485007582	-2.3467143308	 2.1239658774	 0.112614
H	-1.5240388603	-2.9738240145	-0.0433879345	 0.082996
H	-1.9303296691	-0.4717696599	 0.915977144	 0.106511
H	-1.9616340803	-0.4373683226	-0.8656606683	 0.108456
H	 0.2711671828	-0.142407513	-2.1640751245	 0.13339
H	 1.7444498177	-0.6363915949	-1.3097270167	 0.115127
109.687	223.3771	258.9877	301.8525	335.9022	410.6742	450.275	480.5578	509.7851	574.2536	614.0564	686.014	782.3573	797.8462	837.8714	884.1875	915.6419	933.1204	945.6244	982.6773	996.6033	1035.7234	1058.5538	1082.7291	1139.7772	1160.6553	1184.7964	1201.7661	1225.4775	1248.5096	1256.9369	1274.9752	1304.317	1310.6771	1340.3034	1392.2854	1448.9891	1492.6226	1495.6141	1520.2232	1856.0511	3045.2619	3048.729	3059.204	3063.532	3091.159	3095.497	3110.4262	3113.1876	3134.0578	3809.3724
OC12CCC(C1)C(=O)C2	O[C@@]12CC[C@@H](C1)C(=O)C2	
InChI=1S/C7H10O2/c8-6-4-7(9)2-1-5(6)3-7/h5,9H,1-4H2	InChI=1S/C7H10O2/c8-6-4-7(9)2-1-5(6)3-7/h5,9H,1-4H2/t5-,7-/m0/s1
