20
gdb 91872	2.62829	1.50158	1.06364	3.7667	79.38	-0.2393	0.0083	0.2476	1167.7473	0.172373	-403.170368	-403.16214	-403.161195	-403.20325	31.977	
C	-0.0176556807	 1.5913378099	-0.008600747	-0.408419
C	-0.0331809329	 0.063080984	-0.0914306198	 0.041978
C	 0.9685501444	-0.4859907923	-1.1304242288	-0.241065
C	 0.7780305047	-1.9860437576	-1.2054036647	-0.019899
C	 1.8517415371	-2.9714799721	-0.8537238025	-0.256124
N	 0.7874384916	-2.6605218629	 0.0878196009	-0.080251
C	 1.033484725	-1.8986577761	 1.2354032664	 0.348974
O	 1.7757179409	-2.264115315	 2.1171951621	-0.338392
C	 0.2543806371	-0.5835138257	 1.2910812632	-0.312032
H	 0.9748303185	 1.9572348199	 0.2792653508	 0.119123
H	-0.2766197378	 2.0437787966	-0.9715989257	 0.113879
H	-0.7334966995	 1.9542718144	 0.736192166	 0.119163
H	-1.0336565771	-0.2500865839	-0.4176861184	 0.080708
H	 0.8087721855	-0.0242472109	-2.1098723276	 0.104396
H	 1.9929899579	-0.2415701398	-0.8191928349	 0.106992
H	-0.0150049865	-2.3231393153	-1.8719683832	 0.099418
H	 1.8293375673	-3.970038921	-1.2804979843	 0.126844
H	 2.8430327262	-2.5936296254	-0.616598101	 0.133114
H	 0.8527378869	 0.0838940275	 1.9188723014	 0.128816
H	-0.6801360185	-0.7599726843	 1.8363288172	 0.132776
67.9751	130.4177	231.3103	253.0426	279.7186	364.4392	397.065	420.5542	480.6333	498.9883	587.3572	670.559	702.5558	846.0874	858.4731	893.2759	923.1708	947.7247	956.356	983.3909	1036.6275	1076.6859	1110.4033	1124.8052	1131.0376	1158.6609	1168.4246	1194.888	1208.2831	1265.4793	1294.4189	1307.8974	1355.2858	1369.9975	1381.6225	1411.4616	1419.4633	1460.0715	1481.4034	1498.1573	1498.585	1510.7916	1801.3812	3010.573	3023.8288	3028.0327	3046.5648	3079.4486	3090.4336	3096.802	3101.2687	3111.4891	3114.6626	3201.0579
CC1CC2CN2C(=O)C1	C[C@H]1C[C@H]2CN2C(=O)C1	
InChI=1S/C7H11NO/c1-5-2-6-4-8(6)7(9)3-5/h5-6H,2-4H2,1H3	InChI=1S/C7H11NO/c1-5-2-6-4-8(6)7(9)3-5/h5-6H,2-4H2,1H3/t5-,6-,8?/m0/s1
