18
gdb 88655	3.84695	1.01065	0.8937	3.8416	73.54	-0.2137	-0.0181	0.1956	1296.43	0.145823	-439.039759	-439.031113	-439.030169	-439.073502	32.431	
O	-0.1230197373	 1.391629831	 0.4579162878	-0.41186
C	-0.0357299756	 0.0480761737	 0.0811177823	 0.080385
C	-0.4643412177	-1.0246084602	 1.0652731206	-0.366735
C	-1.3211552863	-0.678758739	-0.1543551306	 0.03385
N	-2.5997835348	-0.0430168164	-0.1033535827	-0.093957
C	-2.9656189032	 0.9903540032	 0.8934974367	-0.278939
C	-4.3353679249	 0.3077435008	 0.9972255143	 0.387844
O	-5.3876808274	 0.5814304034	 1.4892080628	-0.283151
C	-3.7826986059	-0.8808699564	 0.1953326177	-0.286578
H	 0.5744369992	 1.5667996095	 1.0983524734	 0.290814
H	 0.7920296304	-0.1788227015	-0.5909927054	 0.093303
H	 0.0648656597	-1.9711031927	 1.0924378046	 0.11358
H	-0.8002299974	-0.6645118414	 2.0321112751	 0.116914
H	-1.2869279989	-1.4076260365	-0.9603436546	 0.102848
H	-2.4284074	 0.9395627597	 1.8516992296	 0.116061
H	-2.9268011104	 2.0209461558	 0.531047011	 0.140028
H	-4.3549873093	-1.2173914863	-0.6760869823	 0.129798
H	-3.5800443504	-1.7447911369	 0.8504129194	 0.115797
67.2438	85.8059	153.0739	220.2351	264.5485	315.7218	365.3692	435.4867	473.6793	493.0156	536.5808	672.5924	730.9288	763.9997	782.8584	839.3181	913.3618	962.8732	990.3236	1016.7411	1031.9942	1060.5925	1078.5617	1096.4789	1118.1186	1135.4408	1165.8842	1176.9676	1208.2319	1254.1219	1268.5605	1296.1974	1327.7203	1397.4054	1426.6539	1459.3881	1485.8867	1496.1662	1921.4814	2969.9055	3007.4199	3064.0227	3090.6677	3095.0647	3130.6691	3136.7438	3219.9174	3804.8479
OC1CC1N1CC(=O)C1	O[C@H]1C[C@H]1N1CC(=O)C1	
InChI=1S/C6H9NO2/c8-4-2-7(3-4)5-1-6(5)9/h5-6,9H,1-3H2	InChI=1S/C6H9NO2/c8-4-2-7(3-4)5-1-6(5)9/h5-6,9H,1-3H2/t5-,6+/m1/s1
