19
gdb 61922	2.76808	0.9083	0.74105	4.606	76.6	-0.2457	0.0224	0.2681	1520.289	0.158279	-419.182403	-419.172754	-419.17181	-419.217813	34.292	
C	 0.0524070834	 1.4811076363	-0.0078144949	-0.406651
C	 0.0482123033	-0.0581952627	 0.0691003174	 0.01624
N	-1.2755748098	-0.6717553192	 0.1422280217	-0.303878
C	-2.0745631869	-0.3065755977	 1.2991797707	-0.273557
C	-3.2972748426	-1.116091884	 1.3619963919	 0.264446
N	-4.2709665054	-1.7354962495	 1.4064400408	-0.297623
C	 0.7792518878	-0.6314225968	-1.1356092147	 0.087838
C	 0.5084780285	-1.962157559	-1.6854348596	-0.184658
O	-0.0018637898	-0.7798141307	-2.3246800254	-0.246149
H	 1.077393983	 1.86377877	-0.0510965716	 0.121661
H	-0.4737226554	 1.8199360502	-0.9066042223	 0.133225
H	-0.4274348753	 1.9336547314	 0.8647555215	 0.118245
H	 0.6019791164	-0.3663402683	 0.9683321985	 0.09173
H	-1.7760054349	-0.4994068735	-0.7239099421	 0.24278
H	-1.4905809411	-0.5031666838	 2.2074849268	 0.153577
H	-2.3765005349	 0.7538264129	 1.3481278431	 0.136696
H	 1.766024933	-0.1971519852	-1.3042317	 0.093401
H	 1.29059259	-2.4800774595	-2.2378394631	 0.117014
H	-0.2424336394	-2.5865066009	-1.2103399386	 0.135663
60.4868	87.988	97.3707	126.5911	212.4213	240.4482	264.3105	311.2673	388.9423	411.6341	480.7773	526.2192	638.5518	747.0193	789.6732	857.1422	898.4663	946.2229	951.2447	989.9532	1000.1602	1066.1761	1088.0641	1121.8535	1141.2232	1165.0984	1176.5026	1192.0349	1255.0328	1293.1458	1327.5919	1341.654	1395.2203	1402.5115	1433.7066	1482.4893	1488.9246	1496.736	1504.3466	1518.7342	2368.5312	2955.1381	3003.0666	3034.8671	3045.1086	3095.9022	3102.5726	3106.8347	3112.1153	3202.5245	3532.0093
CC(NCC#N)C1CO1	C[C@@H](NCC#N)[C@H]1CO1	
InChI=1S/C6H10N2O/c1-5(6-4-9-6)8-3-2-7/h5-6,8H,3-4H2,1H3	InChI=1S/C6H10N2O/c1-5(6-4-9-6)8-3-2-7/h5-6,8H,3-4H2,1H3/t5-,6-/m1/s1
