16
gdb 91480	2.67632	1.70044	1.27314	5.0462	68.8	-0.2693	-0.0061	0.2631	985.7421	0.125467	-437.871242	-437.863895	-437.862951	-437.902951	28.889	
O	 0.0649726395	 1.3377329659	-0.0930268019	-0.428927
C	 0.053346023	-0.0610622391	-0.0322079022	 0.128009
C	 0.4950059346	-0.6558760433	 1.3483184528	-0.270586
C	-0.8541771978	-1.2749724075	 1.7463787603	 0.064564
C	-1.2638560538	-2.0773358525	 0.4925648387	-0.275666
C	-1.4024412258	-0.6241784819	-0.0138830094	 0.254219
O	-1.8091643466	-0.2260252587	 1.3382861222	-0.330349
C	-2.301550703	-0.2310881242	-1.0779425099	 0.196663
N	-3.0031071259	 0.0518500263	-1.9509766926	-0.329443
H	-0.5285228777	 1.6484200821	 0.603959669	 0.28953
H	 0.6373701788	-0.4216664168	-0.8809908025	 0.107934
H	 1.2977701054	-1.393043742	 1.2714204021	 0.114897
H	 0.809795247	 0.1423131337	 2.0234024936	 0.121361
H	-1.0114183139	-1.6314182083	 2.7621343838	 0.102722
H	-0.5314511951	-2.729105339	 0.0121067619	 0.116322
H	-2.2346948186	-2.5603818748	 0.5968948141	 0.138749
131.3253	142.9759	198.5098	338.2822	433.9515	446.0865	489.7293	508.0447	531.6233	551.3179	631.2238	744.241	818.9661	834.1834	866.6125	898.4796	958.8901	969.7717	992.7274	998.6342	1052.5887	1114.9756	1141.0478	1148.089	1189.8648	1229.3486	1267.0321	1278.7096	1290.1169	1301.3897	1330.6347	1437.679	1479.0901	1496.3231	2364.5589	3074.1616	3082.4822	3104.1603	3129.924	3149.8882	3161.8476	3764.1959
OC1CC2CC1(O2)C#N	O[C@H]1C[C@@H]2C[C@]1(O2)C#N	
InChI=1S/C6H7NO2/c7-3-6-2-4(9-6)1-5(6)8/h4-5,8H,1-2H2	InChI=1S/C6H7NO2/c7-3-6-2-4(9-6)1-5(6)8/h4-5,8H,1-2H2/t4-,5+,6+/m1/s1
