18
gdb 82065	2.54786	1.54776	1.23639	2.1669	71.65	-0.2505	-0.0413	0.2092	1068.9313	0.146837	-439.051544	-439.043022	-439.042078	-439.085097	31.985	
C	 0.1493751079	 1.1877509895	 0.8612794908	-0.481796
C	-0.0172883839	 0.2654513287	-0.3215426453	 0.416869
O	 0.8634025805	 0.113636057	-1.1511266621	-0.328043
C	-1.3127375668	-0.5169236383	-0.3893473145	-0.131762
C	-1.6729057261	-1.3087004404	-1.6891172224	 0.115108
O	-0.92603301	-1.1385541773	-2.8543344768	-0.437646
C	-1.528045279	-2.5854051054	-0.8534332251	-0.048672
C	-0.2273298323	-2.6602304545	-0.1705258134	-0.261145
N	-1.2704196002	-1.7999408532	 0.435840169	-0.155085
H	 1.163079859	 1.5883671956	 0.8923195876	 0.145809
H	-0.5710066856	 2.0114583258	 0.7921326666	 0.149056
H	-0.0770845758	 0.6460794048	 1.7865680196	 0.162351
H	-2.140130739	 0.0913699866	-0.0158007279	 0.093063
H	-2.7227221632	-1.1434621558	-1.9494649053	 0.097539
H	-0.0398974919	-0.8567360919	-2.581324757	 0.298821
H	-2.2225047	-3.4191056762	-0.8661844678	 0.099421
H	-0.0382304775	-3.5429204173	 0.4318379324	 0.128866
H	 0.6589320241	-2.2148298675	-0.6120392784	 0.137245
47.8445	139.158	149.8176	197.6539	245.1867	297.0179	413.2029	433.4042	523.789	553.9324	613.0949	634.5752	733.7843	740.4401	773.7177	826.6521	925.5254	956.5257	962.7566	998.4277	1022.9525	1056.7256	1067.9272	1121.4414	1142.0078	1169.0507	1195.0073	1215.5436	1242.3683	1263.8521	1344.2256	1363.527	1377.4624	1392.4491	1460.1738	1470.2178	1471.5099	1505.4248	1767.6	3035.2633	3061.1448	3079.4863	3097.0193	3127.4658	3155.0321	3167.8887	3213.9238	3700.6508
CC(=O)C1C(O)C2CN12	CC(=O)[C@H]1[C@@H](O)[C@H]2CN12	
InChI=1S/C6H9NO2/c1-3(8)5-6(9)4-2-7(4)5/h4-6,9H,2H2,1H3	InChI=1S/C6H9NO2/c1-3(8)5-6(9)4-2-7(4)5/h4-6,9H,2H2,1H3/t4-,5+,6+,7?/m1/s1
