17
gdb 12367	3.10919	2.10833	1.56423	1.4048	64.47	-0.2485	0.0147	0.2632	855.671	0.142955	-401.010975	-401.003156	-401.002211	-401.043242	28.895	
C	-0.0418879805	 1.550059813	 0.0131810688	-0.383266
C	 0.0995695698	 0.0289005479	 0.0057061104	 0.0248
N	 0.8247523496	-0.3889779073	-1.2052561178	-0.27848
C	 1.5413493368	-1.429734037	-1.1520541038	 0.107702
O	 1.7603059344	-2.2766287835	-0.1168920581	-0.229815
C	 1.0103883188	-2.0158452433	 1.0836930265	-0.08787
C	 0.7797871265	-0.5188882278	 1.2739107783	 0.088357
O	 1.9951078925	 0.1492903634	 1.5794680189	-0.437681
H	 0.9359913183	 2.0281427576	 0.1075199146	 0.122969
H	-0.5032523944	 1.8835530507	-0.9193057645	 0.123672
H	-0.662237448	 1.877629095	 0.8536840118	 0.108002
H	-0.9078396644	-0.4081626203	-0.0472507468	 0.088145
H	 2.1131131776	-1.7587112697	-2.0186183783	 0.128039
H	 0.0567230086	-2.5551137623	 1.0267512004	 0.111533
H	 1.6055212364	-2.4255108466	 1.9021764175	 0.127107
H	 0.1355878861	-0.3677946653	 2.1466380325	 0.093798
H	 2.5571324421	 0.1202658254	 0.7967712997	 0.292989
57.1323	167.8287	218.9349	241.3373	272.43	334.2795	378.5433	428.6022	504.1067	629.0684	702.4819	766.5364	856.757	878.4755	915.2063	960.2381	969.9911	1019.8672	1040.8915	1081.1976	1145.6408	1149.893	1196.9387	1243.7418	1283.2931	1306.1143	1344.3931	1355.5234	1395.1708	1404.0747	1413.5811	1426.0558	1486.4339	1493.939	1496.1268	1722.2105	2999.2561	3033.0113	3045.6839	3062.5962	3115.3477	3118.3112	3133.5894	3153.5281	3801.4386
CC1N=COCC1O	C[C@H]1N=COC[C@H]1O	
InChI=1S/C5H9NO2/c1-4-5(7)2-8-3-6-4/h3-5,7H,2H2,1H3	InChI=1S/C5H9NO2/c1-4-5(7)2-8-3-6-4/h3-5,7H,2H2,1H3/t4-,5-/m1/s1
