24
gdb 13713	5.30739	0.74969	0.70503	0.1092	86.57	-0.2609	0.092	0.3528	1725.4016	0.222597	-314.271811	-314.261755	-314.260811	-314.307236	36.586	
C	-0.2515945217	 1.5833210869	 0.1619399825	-0.379331
C	 0.0764742452	 0.0988354331	-0.0196754793	-0.164737
C	 0.7024216311	-0.5370033496	 1.2259271259	-0.147295
C	 1.0393878539	-2.0240973163	 1.0509880267	-0.210663
C	 1.6619589201	-2.6322387313	 2.2917145193	 0.012885
C	 0.8020215852	-3.1778643475	 3.4100203778	-0.290845
C	 1.6557381147	-4.1157530507	 2.5888460103	-0.004913
C	 1.0316618303	-5.1429987101	 1.6685457485	-0.403067
H	 0.6498047571	 2.1622881035	 0.3924299153	 0.112386
H	-0.6983484582	 2.009455494	-0.7419497935	 0.10926
H	-0.9582688369	 1.7342717533	 0.9857447353	 0.112607
H	-0.8379651698	-0.4488401407	-0.28458698	 0.092052
H	 0.7587865861	-0.0244314593	-0.871409003	 0.092515
H	 1.6160316105	 0.0125530023	 1.4931908374	 0.08861
H	 0.020907556	-0.4203201945	 2.0793400843	 0.09481
H	 0.1255518988	-2.5676641937	 0.7822652407	 0.090471
H	 1.7236475033	-2.1407373262	 0.1985327651	 0.091034
H	 2.561702378	-2.1117271846	 2.6147576837	 0.075163
H	 1.0759975872	-2.9751203321	 4.4398580054	 0.104339
H	-0.2704881089	-3.2083466725	 3.2373808648	 0.103189
H	 2.5527302936	-4.4757286823	 3.0876018997	 0.078269
H	 0.1040682872	-4.7804007001	 1.2167734415	 0.11517
H	 1.7113833536	-5.4181963376	 0.8538768844	 0.113922
H	 0.7882587536	-6.058321944	 2.219658577	 0.11417
56.5686	81.733	99.3814	135.8141	182.4407	216.511	247.1857	277.7881	352.3706	382.0117	435.3267	526.0696	735.3333	759.4292	791.9061	826.6509	859.5657	892.9897	913.3066	930.2348	963.2748	1013.4263	1037.1491	1058.6525	1069.2365	1090.9447	1111.9095	1134.8681	1152.8235	1199.1806	1200.8386	1243.4826	1254.1474	1276.7165	1316.0659	1328.509	1354.1272	1390.2239	1398.859	1413.1089	1418.7572	1430.5949	1479.9968	1486.2986	1493.5359	1494.7479	1499.9898	1501.5699	1507.3159	1513.3297	3003.4568	3006.0911	3015.1191	3027.4762	3028.4273	3029.7022	3045.1056	3062.9365	3083.9354	3094.4922	3099.7465	3103.5697	3116.5533	3119.8755	3132.7952	3203.3537
CCCCC1CC1C	CCCC[C@H]1C[C@H]1C	
InChI=1S/C8H16/c1-3-4-5-8-6-7(8)2/h7-8H,3-6H2,1-2H3	InChI=1S/C8H16/c1-3-4-5-8-6-7(8)2/h7-8H,3-6H2,1-2H3/t7-,8+/m1/s1
