19
gdb 114403	3.26687	1.09063	1.06276	3.6246	75.91	-0.2334	-0.0331	0.2004	1241.951	0.158201	-423.010149	-423.001588	-423.000644	-423.043951	31.967	
C	-0.3594210444	 1.3975852679	 0.2758556181	-0.381848
C	-0.0888044706	-0.096335199	 0.061850505	-0.203301
C	 0.869137748	-0.6524953965	 1.0968722899	 0.166386
O	 0.3408226349	-0.5967698574	 2.4575369236	-0.312193
C	 0.7526176253	-1.9554071962	 2.7242517151	-0.000469
C	 1.1492067422	-2.1651118851	 1.2269128574	-0.129937
C	-0.0616041903	-3.1174181517	 1.0221493727	-0.374002
C	-0.4467356701	-2.910180839	 2.5056040234	 0.411931
O	-1.3159235288	-3.332890276	 3.2065491595	-0.285022
H	 0.5625645293	 1.9830321083	 0.191451428	 0.115083
H	-1.0685219514	 1.7788653405	-0.4643267684	 0.11517
H	-0.7781747092	 1.5713410123	 1.2710376384	 0.142176
H	-1.0341709084	-0.6479622632	 0.0994243013	 0.105994
H	 0.3447737857	-0.2671154588	-0.9325444547	 0.100385
H	 1.8127068996	-0.0869949132	 1.0626570528	 0.077984
H	 1.3943445236	-2.0547293589	 3.603748903	 0.093135
H	 2.1219203668	-2.5289100107	 0.9036909006	 0.087098
H	-0.8145375886	-2.8574638245	 0.2749348705	 0.134058
H	 0.2434968064	-4.155064619	 0.8484604039	 0.137371
53.8732	93.5437	171.8782	188.5427	235.8451	294.9685	415.2506	424.909	497.3592	518.7002	600.3484	741.9749	778.8059	786.8692	830.4158	897.1073	924.3359	957.9083	971.1453	992.8034	1028.9849	1069.4933	1075.6948	1106.655	1114.3809	1156.3016	1173.0633	1202.2563	1233.3295	1267.7037	1283.4394	1300.6182	1325.0904	1347.4795	1406.593	1417.5614	1435.6848	1472.6966	1498.459	1508.1842	1897.9809	2985.7923	3025.4853	3038.6322	3057.5575	3074.0041	3079.5372	3107.5999	3115.9155	3121.2194	3138.4041
CCC1OC2C1CC2=O	CC[C@H]1O[C@@H]2[C@H]1CC2=O	
InChI=1S/C7H10O2/c1-2-6-4-3-5(8)7(4)9-6/h4,6-7H,2-3H2,1H3	InChI=1S/C7H10O2/c1-2-6-4-3-5(8)7(4)9-6/h4,6-7H,2-3H2,1H3/t4-,6+,7+/m0/s1
