17
gdb 69282	2.70425	1.56127	1.15818	5.0242	68.34	-0.2552	0.0048	0.26	1054.334	0.136427	-458.985676	-458.977801	-458.976857	-459.018224	30.397	
O	 0.0157417871	 1.3814166264	 0.0940024263	-0.468427
C	 0.0410397886	-0.0130046886	-0.0264671026	 0.382793
C	-0.5842842947	-0.6396335097	-1.2375520441	-0.341503
C	-1.2999049233	-0.6766559002	 0.1169046225	-0.214835
C	-1.4376634826	-1.9896264684	 0.8220668108	 0.425067
O	-2.4408427219	-2.648781857	 0.8037808998	-0.334611
O	-0.3365736031	-2.4581389672	 1.4720002687	-0.233275
C	 0.6879949419	-1.522593576	 1.8505985825	-0.07692
C	 1.2056009028	-0.7318043513	 0.6561047233	-0.291232
H	 0.6663617256	 1.7456375976	-0.5169057236	 0.285793
H	-1.0264321292	 0.0200281451	-1.9751005031	 0.127514
H	-0.1666491626	-1.5618396644	-1.6277348514	 0.129705
H	-2.1742573494	-0.0423524529	 0.1920968171	 0.132262
H	 0.2875921508	-0.8425992072	 2.6128836241	 0.122542
H	 1.4701583344	-2.1306998859	 2.3100097849	 0.124144
H	 1.7226106469	-1.4039168752	-0.0367913166	 0.115106
H	 1.9280249489	 0.0136125248	 1.0017057715	 0.115874
64.6007	152.7415	234.9671	301.3529	340.107	369.0648	390.79	441.7228	461.3909	561.9539	647.9249	706.1889	752.5232	760.4199	889.8519	909.5161	921.7853	953.7474	990.4783	992.9362	1058.2442	1069.0881	1100.1403	1109.9234	1187.3647	1212.5855	1253.1121	1271.2413	1298.9388	1330.4249	1371.4594	1407.3979	1419.5295	1463.7613	1485.6547	1510.2547	1846.3159	3032.2793	3047.0402	3099.1514	3111.0787	3134.3568	3198.5137	3230.4455	3792.2491
OC12CC1C(=O)OCC2	O[C@]12C[C@H]1C(=O)OCC2	
InChI=1S/C6H8O3/c7-5-4-3-6(4,8)1-2-9-5/h4,8H,1-3H2	InChI=1S/C6H8O3/c7-5-4-3-6(4,8)1-2-9-5/h4,8H,1-3H2/t4-,6+/m0/s1
