17
gdb 36546	3.7177	1.01793	0.89885	5.4667	74.92	-0.2687	0.0049	0.2736	1308.042	0.137308	-418.039978	-418.031584	-418.03064	-418.074261	29.964	
N	-0.0304310291	-0.7977087892	-0.5195427785	-0.318284
C	 0.0468578962	 0.2825289038	-0.1165843877	 0.274238
C	 0.156976963	 1.6533893047	 0.4026758623	-0.293363
N	 1.5143820768	 2.1887411511	 0.2921123258	-0.336969
C	 1.8924273326	 2.5580273789	-0.8576247091	 0.463421
C	 3.2539880428	 3.117571809	-1.2007647409	-0.318634
C	 3.0066672279	 3.8048499542	-2.5522339341	-0.233764
C	 1.8547877184	 2.9674984554	-3.122601357	-0.080719
O	 1.1168081643	 2.5054562646	-1.9733773848	-0.241061
H	-0.5807803247	 2.2713346199	-0.1268243653	 0.15087
H	-0.1215327428	 1.6366249823	 1.4607546318	 0.150499
H	 3.623369707	 3.7725945164	-0.4119161476	 0.142354
H	 3.9602855724	 2.285011053	-1.2993004509	 0.14227
H	 2.6837190623	 4.8395514976	-2.4032250065	 0.123454
H	 3.8796589296	 3.8119999361	-3.2070827073	 0.120595
H	 1.1639917127	 3.5265662048	-3.7566012932	 0.128422
H	 2.2145780006	 2.0926907274	-3.6765764568	 0.126672
34.7392	89.3679	135.8997	212.1701	218.4595	292.0938	373.9828	436.8995	567.4487	614.8015	653.7692	696.5136	805.9427	883.2814	893.1047	921.2964	935.9988	990.945	1018.9019	1027.9136	1083.5445	1099.358	1194.3334	1204.1613	1212.6046	1256.437	1267.4976	1314.4263	1341.1575	1355.0206	1401.1642	1472.36	1472.9482	1497.3426	1523.9046	1776.032	2358.3408	3020.2564	3042.7946	3051.8578	3064.9781	3080.6213	3113.187	3125.2364	3138.1006
N#CCN=C1CCCO1	N#CCN=C1CCCO1	
InChI=1S/C6H8N2O/c7-3-4-8-6-2-1-5-9-6/h1-2,4-5H2	InChI=1S/C6H8N2O/c7-3-4-8-6-2-1-5-9-6/h1-2,4-5H2
