17
gdb 96736	1.98342	1.2717	0.78231	3.5463	79.92	-0.2521	-0.0272	0.2249	1406.6756	0.132882	-417.995604	-417.98553	-417.984586	-418.031594	34.991	
C	-0.0437902811	 1.5127423213	-0.0289154961	-0.348541
N	 0.0465051552	 0.0664414381	 0.0451735771	-0.246074
C	-1.0042354479	-0.6365990417	 0.1439069302	 0.40672
C	-0.9269911699	-2.1517068071	 0.2227183237	-0.491066
C	 0.429711376	-2.676316721	 0.1736482304	 0.35319
C	 1.5207788417	-3.1755343602	 0.1384165224	-0.428888
N	-2.2997516213	-0.0729733164	 0.1872760319	-0.362365
C	-3.5352904759	-0.6749231844	 0.2900716233	 0.159984
O	-3.760463138	-1.8581658483	 0.3672371693	-0.28898
H	 0.9623003327	 1.930034853	-0.1086471193	 0.139356
H	-0.6103808631	 1.8561312489	-0.9089581911	 0.117783
H	-0.5100366733	 1.9535214497	 0.8665020506	 0.117719
H	-1.4344363847	-2.4830450577	 1.1361566367	 0.165025
H	-1.5333756382	-2.5777518793	-0.5849747982	 0.165092
H	 2.4944611293	-3.5970826663	 0.1056507255	 0.191911
H	-2.3255550888	 0.9345303441	 0.1336295824	 0.254555
H	-4.3367055129	 0.0898949273	 0.2939200313	 0.094581
44.29	66.6702	125.0022	127.0003	197.3077	232.0469	259.8705	263.5595	338.1303	343.1719	440.2307	585.0371	612.5715	617.1053	637.4086	645.4473	792.1032	826.4538	939.0171	997.9268	1029.0174	1050.6582	1101.5986	1114.2421	1188.856	1232.8789	1236.0278	1375.2064	1424.9679	1433.8506	1448.4694	1472.9037	1511.7108	1520.7835	1748.5229	1822.5415	2251.7992	2941.9393	2965.8189	3016.0208	3046.8389	3069.5926	3108.4475	3508.6796	3616.6752
CN=C(CC#C)NC=O	CN=C(CC#C)NC=O	
InChI=1S/C6H8N2O/c1-3-4-6(7-2)8-5-9/h1,5H,4H2,2H3,(H,7,8,9)	InChI=1S/C6H8N2O/c1-3-4-6(7-2)8-5-9/h1,5H,4H2,2H3,(H,7,8,9)
