21
gdb 103018	2.24084	1.67524	1.14591	0.5399	89.	-0.2512	0.0472	0.2983	1154.2172	0.182055	-349.870166	-349.861418	-349.860474	-349.90329	34.682	
C	-1.5101429108	-0.5321508433	 0.053797389	-0.379884
C	-0.0625823812	-0.0304770737	 0.0050629673	-0.276541
C	 0.7226098638	-0.5580396244	-1.2119486626	 0.201759
C	 0.1720958042	 0.0511013367	-2.4194723536	 0.258509
C	-0.3238650919	 0.5917374533	-3.3739000025	-0.447435
C	 2.2999930542	-0.6599803381	-1.1373118711	-0.087117
C	 2.1355406974	-1.8760100062	-0.1789147606	-0.250357
C	 1.0960089866	-2.0937822506	-1.3151220246	-0.070279
C	 2.2296118602	-1.6892631245	-2.3025666374	-0.236958
H	-2.0489562795	-0.2650684894	-0.8597684919	 0.13126
H	-1.5488102254	-1.6215959717	 0.1601550207	 0.113728
H	-2.0445780119	-0.095492393	 0.9029702185	 0.11064
H	-0.057010139	 1.0644806386	-0.0458026114	 0.106105
H	 0.4454393933	-0.2946212803	 0.9353458717	 0.098946
H	-0.7506366127	 1.0581224167	-4.2271557616	 0.186065
H	 2.988245746	 0.1810013342	-1.036195133	 0.074534
H	 2.9718658638	-2.5789427481	-0.1703890113	 0.093291
H	 1.7729638133	-1.7019382719	 0.8331826312	 0.095718
H	 0.3900867734	-2.9187396596	-1.4231088034	 0.075415
H	 1.929434152	-1.3153468611	-3.2809424435	 0.114496
H	 3.0680452041	-2.3860258435	-2.37233001	 0.088103
80.0585	141.9323	165.5531	196.7146	223.9951	362.1754	379.5526	483.6858	512.795	529.0576	596.8758	615.0756	634.0174	642.8886	773.9375	795.613	807.4422	891.6179	898.7563	902.1743	957.9966	974.9948	1013.1568	1024.5576	1047.1988	1073.1806	1091.8224	1109.8667	1115.3835	1174.6731	1184.3317	1196.3406	1207.8426	1234.8087	1250.3253	1255.3508	1317.4022	1355.9133	1409.5227	1481.6302	1496.5005	1506.0603	1511.884	1545.9276	2218.6473	3036.9697	3042.9384	3069.1317	3072.101	3087.955	3096.6394	3103.137	3104.9889	3117.9175	3143.6105	3147.3777	3500.8817
CCC1(C#C)C2CC1C2	CC[C@@]1(C#C)[C@H]2C[C@@H]1C2	
InChI=1S/C9H12/c1-3-9(4-2)7-5-8(9)6-7/h1,7-8H,4-6H2,2H3	InChI=1S/C9H12/c1-3-9(4-2)7-5-8(9)6-7/h1,7-8H,4-6H2,2H3/t7-,8+,9-
