18
gdb 47167	2.39092	1.86672	1.10777	3.4666	78.9	-0.2282	0.0095	0.2377	1078.8828	0.150216	-401.978112	-401.97051	-401.969566	-402.010367	29.546	
O	-0.0504895602	-0.0625383733	-0.0602489591	-0.383373
C	-0.0275870802	 1.154409011	-0.0594808118	 0.385258
N	-1.1648823752	 1.9141145453	-0.1529306637	-0.321439
C	-1.2999353183	 3.365776782	-0.018608272	-0.193308
C	-0.1177483449	 3.9815924951	 0.6942670016	-0.26032
C	 1.0384338385	 3.3404063624	 0.6482086894	 0.354402
C	 2.3566635548	 3.2656740298	 1.3900760043	-0.324609
C	 2.3281495863	 1.7199232547	 1.1106696156	-0.228076
C	 1.2378662799	 1.9821245721	 0.0252942489	-0.185836
H	-2.0124190248	 1.3734667683	-0.2430805925	 0.246409
H	-1.4519235275	 3.8347618913	-1.0046614764	 0.119484
H	-2.2137296709	 3.5650861728	 0.554505312	 0.11979
H	-0.2799306876	 4.8946884388	 1.2576903933	 0.097201
H	 3.1764564205	 3.7563458959	 0.8538023932	 0.115735
H	 2.3712874326	 3.600363154	 2.4301788428	 0.114991
H	 3.2576488072	 1.25770355	 0.7762445876	 0.109315
H	 1.9270166346	 1.1539077678	 1.9534060299	 0.124597
H	 1.6846037052	 2.0332940219	-0.9759361728	 0.109778
84.1565	134.5592	224.8903	240.2254	335.0786	472.5626	485.5541	498.5197	550.5071	636.3042	700.1708	727.7714	750.2225	831.0888	844.3582	903.5323	928.9166	973.0533	1007.4314	1021.8968	1055.2745	1092.8041	1123.0883	1125.8016	1194.1349	1210.0617	1236.2707	1247.6672	1257.5729	1282.6572	1311.3308	1341.965	1389.3641	1471.937	1473.9451	1492.2445	1517.0855	1779.3033	1790.8055	2963.8749	3025.924	3038.3937	3044.3521	3082.0264	3101.2057	3141.5552	3180.8895	3615.0801
O=C1NCC=C2CCC12	O=C1NC[CH][C]2CC[C@@H]12	
InChI=1S/C7H9NO/c9-7-6-2-1-5(6)3-4-8-7/h3,6H,1-2,4H2,(H,8,9)	InChI=1S/C7H9NO/c9-7-6-2-1-5(6)3-4-8-7/h3,6H,1-2,4H2,(H,8,9)/t6-/m1/s1
