16
gdb 19467	3.8171	1.91222	1.75577	1.3726	63.69	-0.2469	-0.036	0.2108	795.6165	0.131547	-383.722898	-383.716271	-383.715326	-383.754097	25.182	
O	-0.7100774473	 0.7082742643	 0.5176047953	-0.246334
C	 0.1042920122	 0.9827014798	-0.3299088315	 0.124722
C	 1.2395844999	 1.9522615609	-0.1740543813	-0.079648
C	 1.1510446866	 3.4202064756	-0.7138399758	 0.057933
C	-0.1137202591	 3.9961560308	-0.0450998541	-0.224296
C	 0.1875419069	 3.5079961527	 1.40837307	-0.21676
C	 1.5136997352	 2.7851054189	 1.1013280201	 0.05757
O	 2.193400314	 3.7628506431	 0.2423716397	-0.296096
H	 0.0547642305	 0.5047460573	-1.3363837259	 0.080113
H	 2.163228382	 1.5065128308	-0.5549976138	 0.106907
H	 1.3836082121	 3.6796111183	-1.7462641549	 0.086731
H	-0.1387467876	 5.0837427496	-0.1341980601	 0.112505
H	-1.040896402	 3.5892404111	-0.4573317022	 0.108808
H	 0.3557625166	 4.3351231691	 2.1004185553	 0.107547
H	-0.5731908831	 2.8395026377	 1.8101862246	 0.132155
H	 2.1252376432	 2.4143268601	 1.9225716447	 0.088143
61.1463	198.644	219.9886	321.6397	412.9341	525.9724	666.4798	724.3415	765.065	829.3886	858.7812	867.0321	874.7821	917.3041	941.1728	987.2227	1006.8805	1016.7348	1045.1314	1090.1035	1134.7082	1160.0464	1199.2386	1220.8193	1251.7021	1268.5262	1303.2428	1308.467	1336.6166	1371.3943	1428.9269	1478.596	1499.1395	1817.1127	2856.9445	3069.7411	3078.2432	3087.7536	3120.1914	3129.1122	3137.9348	3153.1441
O=CC1C2CCC1O2	O=C[C@H]1[C@H]2CC[C@@H]1O2	
InChI=1S/C6H8O2/c7-3-4-5-1-2-6(4)8-5/h3-6H,1-2H2	InChI=1S/C6H8O2/c7-3-4-5-1-2-6(4)8-5/h3-6H,1-2H2/t4-,5+,6-
