21
gdb 47921	2.00668	1.70134	1.18493	1.8101	78.44	-0.2374	-0.0153	0.222	1134.3623	0.184298	-424.250096	-424.241669	-424.240725	-424.282999	32.803	
O	-0.0200196231	-0.0400663194	 0.2516898493	-0.322233
C	 0.0075843841	 1.1637761219	 0.1170775454	 0.37619
C	-1.2755754898	 1.9843660906	 0.0385330652	-0.28718
C	-1.3060537921	 3.1132902892	-1.0062703246	-0.207192
C	-1.2273154383	 2.6589708011	-2.4709627873	-0.195131
C	 0.0334665457	 1.8636461613	-2.8286821744	-0.081023
O	 1.2160220088	 2.5163426687	-2.376650254	-0.249695
C	 1.9511499478	 1.8266051321	-1.3884479768	-0.080194
C	 1.3423414983	 1.900737308	 0.0300114082	-0.29177
H	-2.1019107641	 1.2804247682	-0.1022237632	 0.118034
H	-1.4072841282	 2.4333217533	 1.0343824674	 0.121673
H	-2.2324389274	 3.6808881835	-0.8657389626	 0.1015
H	-0.488431756	 3.8158898742	-0.8175409415	 0.114806
H	-2.0990785015	 2.042640608	-2.7280976138	 0.099274
H	-1.2761795371	 3.5502292334	-3.1073012666	 0.106001
H	-0.0203615065	 0.8464973641	-2.4211209231	 0.119337
H	 0.1010421475	 1.7628908939	-3.9198420376	 0.100797
H	 2.0786655119	 0.7683057971	-1.6606988491	 0.111995
H	 2.9412647883	 2.2926022508	-1.3712300076	 0.112437
H	 1.249756943	 2.9490962677	 0.3283590094	 0.108782
H	 2.0348770088	 1.3984825524	 0.7130511471	 0.123594
93.7805	138.3512	202.6887	214.6298	259.3909	335.3756	395.4189	417.9107	479.7622	510.5473	538.3062	618.7154	730.2402	789.1982	812.9145	847.5573	884.0202	921.3279	966.2485	987.5643	1020.09	1045.851	1084.7924	1115.1973	1125.967	1159.9264	1209.8691	1225.4968	1247.7389	1276.4104	1300.5509	1307.5746	1344.1184	1357.095	1383.2248	1388.083	1401.6501	1424.0445	1455.9335	1467.6265	1478.8834	1494.8813	1497.3325	1518.7025	1795.7752	2998.1113	3008.2907	3011.465	3025.2595	3045.9686	3049.681	3051.5668	3070.9157	3079.2279	3081.5731	3096.0496	3108.5197
O=C1CCCCOCC1	O=C1CCCCOCC1	
InChI=1S/C7H12O2/c8-7-3-1-2-5-9-6-4-7/h1-6H2	InChI=1S/C7H12O2/c8-7-3-1-2-5-9-6-4-7/h1-6H2
