21
gdb 72147	2.44537	1.93358	1.73812	1.3594	80.04	-0.2429	0.0783	0.3212	933.826	0.186478	-387.104578	-387.09769	-387.096746	-387.135144	30.202	
O	-0.0579371989	 1.3623359113	 0.0588270021	-0.515488
C	 0.0444794335	-0.0328978707	 0.0396681401	 0.465075
C	 0.8960505333	-0.7528012121	 1.0868410839	-0.297798
C	 0.5208932153	-2.1688211341	 0.602032991	-0.017681
C	-1.0247125657	-2.1112652414	 0.6831651747	-0.220822
C	-1.3471319375	-0.75782771	 0.0001468391	-0.045721
C	-1.210579926	-0.8586225299	-1.5385831953	-0.230102
C	 0.3208759908	-0.7482234799	-1.3450949987	-0.086434
C	 0.9306747578	-2.0975084608	-0.8905327187	-0.219357
H	 0.8145889718	 1.7293528209	-0.119880966	 0.2739
H	 1.9669930703	-0.5348481295	 0.9971975351	 0.079222
H	 0.5732655713	-0.5391168565	 2.1107385797	 0.095201
H	 0.969973776	-2.9992418426	 1.1503058906	 0.056247
H	-1.515101294	-2.9567942557	 0.1892801587	 0.089631
H	-1.3470560636	-2.1079480416	 1.729982051	 0.093775
H	-2.2101492907	-0.2344783124	 0.4139582138	 0.065408
H	-1.5965024047	-1.7605833787	-2.0252710986	 0.081468
H	-1.6193693358	 0.0240306733	-2.0367111044	 0.10215
H	 0.9044878294	-0.2223730985	-2.1044804146	 0.051126
H	 2.0225984495	-2.0847442044	-0.9804858015	 0.08972
H	 0.5621557079	-2.9447130767	-1.478885872	 0.090481
246.0081	268.6361	304.1472	372.3044	403.0253	446.7276	450.7387	539.4195	580.0672	630.9845	749.9338	821.7957	825.3103	865.8208	880.8603	887.7297	922.8714	937.3882	952.8862	954.2019	985.9776	1046.1958	1050.5032	1079.2651	1087.6722	1104.1541	1112.3471	1142.9848	1174.1931	1208.8802	1210.6192	1234.71	1243.9852	1277.2549	1286.2412	1301.9119	1314.1558	1336.8293	1344.4394	1352.8986	1382.0952	1479.2767	1488.6995	1494.051	1515.3099	3031.2049	3034.586	3038.604	3042.3063	3071.4337	3077.2855	3080.1421	3088.4964	3091.9057	3097.0886	3105.6966	3800.081
OC12CC3CC1CC2C3	O[C@@]12C[C@H]3C[C@@H]1C[C@@H]2C3	
InChI=1S/C8H12O/c9-8-4-5-1-6(8)3-7(8)2-5/h5-7,9H,1-4H2	InChI=1S/C8H12O/c9-8-4-5-1-6(8)3-7(8)2-5/h5-7,9H,1-4H2/t5-,6+,7-,8-
