18
gdb 65246	2.84003	1.30097	1.1151	3.692	73.12	-0.2361	-0.0289	0.2072	1148.4276	0.14658	-439.057545	-439.049019	-439.048075	-439.091042	32.451	
O	 0.0364347091	 1.3093682498	 0.4282907239	-0.478053
C	 0.0610052244	-0.0446380663	 0.0864089612	 0.460696
C	 1.0814611415	-0.4466560834	-0.9273459646	-0.303245
C	 1.2528812736	-0.8724868251	 0.5190686365	-0.336669
C	-1.3186697033	-0.6528586549	 0.0630885239	-0.189812
N	-2.1638704692	-0.2106106865	 1.2172503881	-0.340718
C	-3.2914462729	 0.2191175368	 0.3448560139	-0.290084
C	-2.3766024439	-0.0128904644	-0.8698110804	 0.403753
O	-2.4498948405	 0.1983346445	-2.0399768475	-0.278968
H	-0.5399581112	 1.3576536539	 1.2056028938	 0.283307
H	 0.8155443319	-1.1942191612	-1.6664637999	 0.119807
H	 1.7223759025	 0.3463068129	-1.294424639	 0.13106
H	 2.0066892926	-0.3549560599	 1.1008536457	 0.121607
H	 1.1116218766	-1.9178902086	 0.7740795092	 0.104427
H	-1.2685349944	-1.7401205089	-0.0871065001	 0.094406
H	-2.3982286115	-0.9461145225	 1.8725890278	 0.231071
H	-4.1658766451	-0.4453392433	 0.3358224049	 0.127763
H	-3.6300273801	 1.2467817071	 0.5119683325	 0.13965
67.7011	105.3772	122.7435	235.8423	285.7932	325.0748	425.8491	438.9423	493.8653	519.2035	579.0357	660.0733	724.0122	768.704	799.2501	863.8704	906.7254	932.866	942.127	989.5319	992.2784	1009.1955	1030.0519	1052.622	1077.6837	1080.0812	1105.8113	1187.6824	1212.623	1222.9993	1275.9298	1315.9504	1328.6298	1358.4192	1429.4705	1454.8254	1473.0214	1508.2615	1922.0507	3015.3222	3020.9471	3078.9123	3130.1262	3141.4129	3219.8201	3234.6987	3556.9274	3718.9481
OC1(CC1)C1NCC1=O	OC1(CC1)[C@H]1NCC1=O	
InChI=1S/C6H9NO2/c8-4-3-7-5(4)6(9)1-2-6/h5,7,9H,1-3H2	InChI=1S/C6H9NO2/c8-4-3-7-5(4)6(9)1-2-6/h5,7,9H,1-3H2/t5-/m0/s1
