18
gdb 38737	2.47409	2.43106	2.41751	1.1554	71.71	-0.2088	0.0915	0.3003	768.9064	0.153418	-401.939451	-401.934175	-401.93323	-401.9687	24.193	
C	-0.0038815912	 1.4907514182	 0.0145167031	-0.176335
C	 1.4975504397	 1.8257852556	-0.014168632	 0.053894
O	 2.022231757	 1.4474294152	-1.2946865353	-0.266641
C	 1.9752970544	 0.0135769076	-1.300493278	 0.053894
C	 0.5010581543	-0.4246081511	-1.3450248896	-0.176336
N	-0.0139121583	 0.0017635047	-0.0142270882	-0.114078
C	 1.0816318527	-0.3656626956	 0.9102973008	-0.052251
C	 2.0590314097	 0.7882131782	 0.9769701682	-0.078992
C	 2.375230683	-0.4111831321	 0.1256214459	-0.078991
H	-0.4706991924	 1.8370311115	 0.9433132035	 0.099912
H	-0.5536621169	 1.9006059177	-0.836320627	 0.107023
H	 1.7660192618	 2.8662294652	 0.1759028164	 0.075875
H	 2.6139332663	-0.3501108501	-2.1070920884	 0.075875
H	-0.0651986257	 0.0477059729	-2.1515208486	 0.107024
H	 0.4124695195	-1.5130127634	-1.4345760951	 0.099912
H	 0.8574333366	-1.0176716187	 1.7455874884	 0.089155
H	 2.619530139	 1.0596351679	 1.8619704579	 0.09053
H	 3.1876904805	-1.0954891737	 0.3322332181	 0.09053
384.0529	404.1692	507.5069	572.7898	626.7688	631.6202	745.9008	789.3362	793.5268	813.6622	850.7807	855.0907	882.5	882.9464	908.1869	944.9174	957.0679	967.0089	1006.088	1011.8244	1044.4424	1061.0613	1082.7674	1090.8936	1097.4159	1119.8124	1220.4272	1237.2518	1259.2136	1264.8419	1267.6207	1284.4851	1306.4166	1327.0831	1338.5411	1359.2182	1373.2011	1480.3023	1498.8692	3040.3817	3043.5746	3103.2002	3105.9983	3106.2185	3113.2282	3181.9411	3194.1122	3204.4815
C1C2OC3CN1C1C2C31	C1[C@@H]2O[C@@H]3CN1[C@@H]1[C@H]2[C@H]31	
InChI=1S/C7H9NO/c1-3-5-6-4(9-3)2-8(1)7(5)6/h3-7H,1-2H2	InChI=1S/C7H9NO/c1-3-5-6-4(9-3)2-8(1)7(5)6/h3-7H,1-2H2/t3-,4+,5+,6-,7+
