15
gdb 25724	2.82642	1.56334	1.01295	5.784	71.88	-0.2224	-0.0459	0.1765	1100.9853	0.11349	-454.019367	-454.011339	-454.010395	-454.052335	29.301	
C	-0.0233207364	 1.4852246233	 0.1017016071	-0.506289
C	-0.0509218036	-0.0278817799	 0.0278197266	 0.341481
O	-0.102031509	-0.7184213519	 1.053218103	-0.394046
C	-0.0180645138	-0.682978047	-1.2443667836	 0.068949
C	-0.0388179958	-2.0682449159	-1.4377285088	 0.356804
O	-0.0916442226	-2.9785104422	-0.4776133763	-0.396271
N	 0.0021440556	-2.3925345202	-2.7535649575	-0.307349
C	 0.0481682053	-1.2276431557	-3.3813740512	 0.025383
N	 0.0390647359	-0.1694748293	-2.5415434636	-0.352795
H	 0.8873957785	 1.8804723406	-0.3631787238	 0.136926
H	-0.8806239391	 1.9160207757	-0.4285601247	 0.136869
H	-0.0556892364	 1.7954741014	 1.1465438262	 0.153872
H	-0.1113680152	-2.4607592728	 0.3588782175	 0.316744
H	 0.0893000416	-1.1080853634	-4.454237889	 0.146556
H	 0.0680808651	 0.8007600273	-2.804559572	 0.273166
85.0858	109.4884	175.3987	178.1313	323.9626	330.1556	448.4274	474.7291	528.3007	573.3556	645.2945	658.0616	748.9518	755.4587	788.5945	852.3928	941.8312	957.1216	1041.1637	1082.4546	1143.8969	1182.1597	1277.0209	1324.0929	1376.553	1417.6997	1457.4753	1469.752	1478.8556	1493.2151	1545.089	1606.451	1694.4126	3031.1623	3091.2957	3153.1613	3251.3451	3451.0763	3673.1846
CC(=O)C1=C(O)N=CN1	CC(=O)c1c(O)nc[nH]1	
InChI=1S/C5H6N2O2/c1-3(8)4-5(9)7-2-6-4/h2,9H,1H3,(H,6,7)	InChI=1S/C5H6N2O2/c1-3(8)4-5(9)7-2-6-4/h2,9H,1H3,(H,6,7)
