18
gdb 72240	2.61944	1.94247	1.3699	2.5127	70.4	-0.2183	0.0548	0.2731	955.239	0.148564	-439.031734	-439.024228	-439.023284	-439.063007	30.878	
O	 0.0281229435	 1.3732651926	 0.0567104845	-0.472089
C	 0.052325824	 0.0032332626	-0.0059736131	 0.391294
C	 0.8140024254	-0.7961857245	-1.0340983677	-0.239286
N	-0.1633342377	-1.939640161	-0.8370257761	-0.119581
C	 0.3911716732	-2.8991908907	 0.1519146323	-0.161566
C	 0.6102092753	-2.1087023573	 1.4733365939	-0.312037
C	-0.231003579	-0.8621517949	 1.2144168293	 0.316397
O	-0.7086244356	-0.080703999	 2.2695829318	-0.491811
C	-1.0540722038	-1.0443755112	-0.0498196988	-0.222024
H	-0.2719573015	 1.6024783715	 0.9473000178	 0.295809
H	 0.7196147509	-0.38891534	-2.0447136145	 0.119248
H	 1.8648869267	-1.0398364187	-0.8358815915	 0.097141
H	-0.3455340639	-3.6960307265	 0.2955157465	 0.105272
H	 1.3032231224	-3.354554525	-0.2421710693	 0.107787
H	 0.2411252656	-2.648360581	 2.3528723691	 0.09293
H	 1.6631724088	-1.8719416539	 1.6558387001	 0.109027
H	-1.4613782108	-0.5237283652	 2.6758218646	 0.291942
H	-2.1325792236	-1.0219425279	-0.1540754088	 0.091548
212.0597	215.723	261.372	276.1788	358.4901	387.3981	423.9751	455.8149	474.2144	598.6582	630.7289	679.3383	743.3316	767.2427	823.3452	865.687	921.7063	929.1752	943.6608	977.8474	1024.6049	1067.9728	1096.6354	1105.6298	1153.2642	1174.9301	1196.7333	1208.5908	1219.6396	1258.2073	1281.0063	1297.9565	1331.3081	1351.0622	1426.4236	1440.0441	1490.599	1501.625	1520.1649	3027.0606	3037.0127	3052.8001	3075.7832	3088.6943	3106.5671	3179.3035	3753.9235	3798.7814
OC12CN3CCC1(O)C23	O[C@@]12CN3CC[C@]1(O)[C@@H]23	
InChI=1S/C6H9NO2/c8-5-1-2-7-3-6(5,9)4(5)7/h4,8-9H,1-3H2	InChI=1S/C6H9NO2/c8-5-1-2-7-3-6(5,9)4(5)7/h4,8-9H,1-3H2/t4-,5-,6+/m0/s1
