21
gdb 78849	3.22825	1.55669	1.34882	0.1639	84.94	-0.2112	0.094	0.3052	1057.6789	0.183474	-349.923101	-349.915335	-349.914391	-349.954764	31.973	
C	 0.1010722951	 1.578567686	 0.0073063399	-0.393355
C	-0.0010477422	 0.0516091512	-0.0258075054	 0.002711
C	 0.8320588503	-0.6008531272	-1.1181008196	-0.072436
C	 2.2434487657	-0.8771803645	-0.6267276995	-0.080772
C	 1.2385650616	-2.0059755728	-0.7291052399	-0.160116
C	 1.1141457232	-2.0374846393	 0.8230740884	 0.343661
C	 0.9425034098	-3.2638202941	 1.6651489628	-0.516486
C	 2.1159243409	-0.9007801682	 0.915000517	-0.139565
C	 0.6367505567	-0.6407528036	 1.1688438597	-0.126926
H	 1.1450201021	 1.8938746538	 0.1062103999	 0.118091
H	-0.3007091471	 2.0230253206	-0.9096699588	 0.107325
H	-0.4591348624	 1.9958935816	 0.8508528568	 0.107412
H	-1.0543407247	-0.2449612771	-0.1214866291	 0.06765
H	 0.676285911	-0.3648423855	-2.1650303315	 0.077788
H	 3.1409678628	-0.6987892585	-1.20247073	 0.081124
H	 1.2213015721	-2.8608633385	-1.3921912423	 0.080219
H	 1.708306119	-4.0159317826	 1.4413916464	 0.117385
H	 1.0183177264	-3.0215192778	 2.7305334886	 0.1164
H	-0.0370298812	-3.7301533103	 1.5002366054	 0.11642
H	 2.9024196146	-0.7298816905	 1.6378665045	 0.078266
H	 0.3074544664	-0.4359375427	 2.1820090667	 0.075205
154.3761	205.5814	221.1055	227.471	248.1134	323.5257	494.9618	565.9421	607.0974	698.7286	708.6763	741.3381	768.4136	831.3137	852.6323	873.9066	879.2053	909.1103	936.419	948.9512	967.9734	983.7184	1006.2782	1031.0008	1037.8793	1050.9279	1075.0685	1114.8372	1118.5393	1126.3481	1187.0205	1207.7838	1235.731	1272.2024	1278.3205	1302.3877	1342.4001	1384.7236	1405.6893	1412.3241	1447.0933	1484.2459	1496.5186	1498.0782	1499.8898	3014.8838	3016.3542	3028.6974	3070.8347	3090.7863	3093.5347	3102.7431	3171.9582	3177.1277	3193.8047	3199.1103	3211.8763
CC1C2C3C2C2(C)C3C12	C[C@H]1[C@H]2[C@@H]3[C@H]2[C@@]2(C)[C@@H]3[C@@H]12	
InChI=1S/C9H12/c1-3-4-5-7(4)9(2)6(3)8(5)9/h3-8H,1-2H3	InChI=1S/C9H12/c1-3-4-5-7(4)9(2)6(3)8(5)9/h3-8H,1-2H3/t3-,4-,5+,6+,7-,8-,9-/m0/s1
