15
gdb 27454	2.42574	1.66509	1.01535	3.431	83.21	-0.2201	-0.0756	0.1444	1105.0927	0.114119	-416.820089	-416.812542	-416.811598	-416.852266	28.892	
O	-0.0285167675	 1.3527164647	 0.2307445444	-0.425807
C	-0.0174210786	-0.0009379145	 0.0683401921	 0.368633
C	-1.2297661329	-0.6141771064	 0.0679596029	-0.18584
C	-1.5118783041	-2.0258693326	-0.1115016111	 0.236424
N	-2.6886765439	-2.3949485874	-0.4826217009	-0.50742
C	-0.4863391847	-3.0223450506	 0.3036982372	-0.034767
N	 0.7927490084	-3.0043796138	 0.2417686647	-0.232254
C	 1.5666160749	-1.938783381	-0.1488993629	-0.001148
C	 1.2646686691	-0.618767831	-0.1620765924	-0.194063
H	 0.8743497015	 1.6832534034	 0.2669425489	 0.302378
H	-2.1036526977	 0.0189664903	 0.182331403	 0.125943
H	-2.7594098989	-3.4162356509	-0.4771781554	 0.210613
H	-0.9258139044	-3.9416559391	 0.7058143798	 0.12216
H	 2.5890709155	-2.2216672325	-0.3866650854	 0.119718
H	 2.0885261733	 0.0615968014	-0.3736045649	 0.09543
74.3743	180.1548	268.693	323.9066	324.9502	374.6544	443.6648	468.7241	500.4549	557.88	639.8237	691.7385	788.6087	820.32	854.5703	885.4544	907.2352	959.6917	972.5991	989.206	1061.4388	1163.114	1210.044	1248.5321	1295.7313	1364.0889	1408.2111	1427.388	1482.2697	1589.3621	1633.52	1678.5297	1693.7029	3069.5783	3129.7178	3162.2105	3190.076	3425.1061	3833.007
OC1=CC(=N)C=NC=C1	OC1=C[C]([NH])C=NC=C1	
InChI=1S/C6H6N2O/c7-5-3-6(9)1-2-8-4-5/h1-4,7,9H	InChI=1S/C6H6N2O/c7-5-3-6(9)1-2-8-4-5/h1-4,7,9H
