19
gdb 108901	3.0862	0.98787	0.95247	3.5526	79.43	-0.2276	-0.025	0.2025	1353.7207	0.157581	-423.03921	-423.029942	-423.028998	-423.074377	32.855	
C	 0.0389027618	 1.52616799	 0.3067730048	-0.376737
C	-0.0486427723	 0.0643183365	-0.1690909021	-0.29494
C	-1.4265953474	-0.5141579717	-0.0626328899	 0.32426
C	-2.2221601538	-0.9481145152	-1.0385692904	-0.246183
C	-3.5362590748	-1.4149116484	-0.4531446937	-0.008625
O	-3.3556223505	-1.372283652	 0.9454627998	-0.251797
C	-2.142107284	-0.6932643189	 1.2561449692	-0.157569
C	-4.6689725369	-0.4950062021	-0.9171877884	 0.152184
O	-5.2110576794	 0.324709335	-0.2284060649	-0.233744
H	 1.0595076668	 1.9039202209	 0.1965804147	 0.119768
H	-0.6277247212	 2.1676799257	-0.2773375241	 0.128394
H	-0.2405194017	 1.6242451474	 1.3601305183	 0.126064
H	 0.2918233311	-0.0049626768	-1.2075854915	 0.109292
H	 0.6446855771	-0.5438644891	 0.4283090502	 0.111358
H	-2.0057609198	-0.9516713547	-2.0991571296	 0.10738
H	-3.798293214	-2.4410227718	-0.7641567928	 0.099263
H	-1.5632578061	-1.3000309144	 1.968269669	 0.107606
H	-2.3586165829	 0.2691566737	 1.7443128887	 0.118319
H	-4.9429701021	-0.6392504142	-1.9904383372	 0.065707
46.9214	69.2687	111.6284	154.3733	204.1589	238.1913	275.2492	351.264	369.3668	509.0738	606.1498	698.295	764.2411	787.1063	840.4407	841.7955	896.7999	959.8259	969.7997	1003.6617	1023.4831	1037.2519	1069.7798	1103.4964	1136.1714	1205.7158	1213.6388	1253.2582	1268.9144	1322.0993	1345.2963	1353.7862	1387.4948	1410.1696	1415.8401	1481.4689	1498.4792	1505.9796	1516.9097	1716.456	1847.3138	2837.3511	2958.0647	2985.3123	3008.1239	3014.4392	3041.5381	3068.0998	3113.6887	3115.8368	3216.9795
CCC1=CC(OC1)C=O	CCC1=C[C@@H](OC1)C=O	
InChI=1S/C7H10O2/c1-2-6-3-7(4-8)9-5-6/h3-4,7H,2,5H2,1H3	InChI=1S/C7H10O2/c1-2-6-3-7(4-8)9-5-6/h3-4,7H,2,5H2,1H3/t7-/m1/s1
