20
gdb 16664	3.22809	1.99589	1.50064	1.4388	73.61	-0.2548	0.066	0.3208	915.9772	0.178413	-349.003273	-348.995553	-348.994609	-349.034902	30.746	
C	 0.0012487186	 1.573713758	-0.0386424953	-0.434605
C	 0.0940273929	 0.0495986451	-0.0069837703	 0.044755
C	 0.8265328376	-0.5891801819	-1.2130168246	-0.242631
C	 1.2770445849	-1.9624336196	-0.7121394246	-0.033212
C	 2.5622932683	-2.0216618353	 0.067182054	-0.270555
C	 1.2515402419	-1.9313205824	 0.8069720771	-0.038736
C	 0.7959446794	-0.5424465939	 1.2492254401	 0.073787
O	 1.9293787641	 0.2171250114	 1.6686778987	-0.430431
H	 0.9984674118	 2.0263253148	-0.0512696503	 0.120859
H	-0.5269663997	 1.9183621785	-0.9333380285	 0.11743
H	-0.5428427474	 1.965250161	 0.8298495817	 0.105288
H	-0.9232144712	-0.3652027844	 0.0053411426	 0.070386
H	 0.1691296852	-0.6664009137	-2.0840629342	 0.09392
H	 1.682822786	 0.0258254346	-1.5157002946	 0.100291
H	 0.9550436239	-2.8467873728	-1.2505070721	 0.077252
H	 3.0865161275	-2.9705274876	 0.1113213262	 0.101782
H	 3.2046333196	-1.1487557048	 0.0752415427	 0.12674
H	 0.9234385117	-2.7866191892	 1.3857318215	 0.078331
H	 0.0824975568	-0.6213241149	 2.0823689161	 0.058133
H	 1.613198898	 1.076450747	 1.9646702737	 0.281216
84.8199	221.5394	240.8828	268.1959	319.0328	336.7967	380.2529	473.358	534.6045	634.1172	681.3204	770.6491	810.3892	816.5659	895.0283	908.4398	919.698	948.8278	982.9721	1015.1329	1046.5944	1056.7369	1068.0981	1106.4616	1118.2648	1153.1656	1167.4968	1195.5696	1224.2033	1234.5843	1293.2143	1318.1726	1326.1455	1355.3762	1368.8587	1388.5696	1401.0891	1423.4729	1482.1916	1496.0664	1501.56	1507.4427	2985.3226	3012.0166	3022.702	3032.0819	3080.8959	3086.5283	3101.2087	3133.814	3164.4492	3175.5948	3223.6617	3820.0028
CC1CC2CC2C1O	C[C@H]1C[C@H]2C[C@H]2[C@H]1O	
InChI=1S/C7H12O/c1-4-2-5-3-6(5)7(4)8/h4-8H,2-3H2,1H3	InChI=1S/C7H12O/c1-4-2-5-3-6(5)7(4)8/h4-8H,2-3H2,1H3/t4-,5-,6+,7-/m0/s1
