13
gdb 20475	6.48834	1.43065	1.26955	1.642	59.55	-0.2589	-0.0103	0.2487	905.689	0.098024	-394.756512	-394.750152	-394.749208	-394.787741	22.811	
C	 0.8641939513	 1.0307034175	-0.135568644	-0.174086
O	-0.0553116119	 0.2087065797	-0.8502140789	-0.228685
C	-0.4350643554	 0.6586130374	 0.453968776	-0.027589
C	-0.5504573371	-0.387014482	 1.4877013026	 0.318809
N	-1.2681408116	-0.2048569962	 2.5994277611	-0.287032
N	-1.1137233509	-1.3517160641	 3.2477057367	-0.068959
N	-0.3683213856	-2.2753937585	 2.6574520672	-0.192426
C	 0.0050476168	-1.6809004322	 1.5250674361	-0.128862
H	 1.7670818638	 0.5321698983	 0.2133432505	 0.120566
H	 1.0036628535	 2.0355767451	-0.5317939374	 0.123914
H	-1.221751563	 1.4108166208	 0.4753521974	 0.111364
H	-1.5544428424	-1.5173641527	 4.138115308	 0.29542
H	 0.6196708026	-2.1875066633	 0.7996161547	 0.137567
61.6666	177.0038	180.7309	420.4937	455.9214	526.1213	665.3817	722.2649	738.9171	861.0376	887.7198	903.0794	989.7914	1001.5251	1032.0979	1094.4969	1148.8589	1163.1757	1169.4339	1209.1565	1238.7734	1274.5401	1334.3745	1395.4312	1437.7687	1493.8953	1522.1691	1576.8965	3084.4928	3131.4788	3176.4931	3282.9808	3669.2636
C1OC1C1=NNN=C1	C1O[C@H]1c1n[nH]nc1	
InChI=1S/C4H5N3O/c1-3(4-2-8-4)6-7-5-1/h1,4H,2H2,(H,5,6,7)	InChI=1S/C4H5N3O/c1-3(4-2-8-4)6-7-5-1/h1,4H,2H2,(H,5,6,7)/t4-/m1/s1
