17
gdb 32923	4.57033	0.86672	0.75255	1.8024	72.87	-0.1913	0.0373	0.2286	1495.5681	0.136604	-455.173837	-455.165116	-455.164172	-455.208163	31.698	
C	 0.1456374592	 1.4015787771	-0.0961343987	-0.394159
C	-0.1072588553	-0.0396827539	 0.3292762664	-0.127669
N	-1.3563862477	-0.5400478753	-0.2675219261	-0.406283
C	-1.6728021363	-1.8712299961	-0.0742906261	 0.373372
C	-2.7133397363	-2.5699397142	 0.4364941616	-0.208756
N	-2.5083472847	-3.9432630549	 0.2212656457	-0.37862
C	-1.3661004764	-3.9791716625	-0.3699160438	 0.471702
O	-0.6610629041	-5.0379759621	-0.7720479183	-0.403205
O	-0.7785325912	-2.7916463679	-0.607234484	-0.193623
H	 1.0858089116	 1.7663059096	 0.3271029136	 0.122999
H	 0.1975375128	 1.4798231185	-1.1855608005	 0.133329
H	-0.6538866182	 2.06482357	 0.2543104473	 0.113979
H	 0.7015089599	-0.6850247235	-0.0250491603	 0.132898
H	-0.1236666982	-0.1179000789	 1.4284709815	 0.095542
H	-2.1471700942	 0.0492325022	-0.0395025648	 0.237868
H	-3.5948519135	-2.1991484641	 0.9334465134	 0.110904
H	-1.1745645172	-5.8167731339	-0.5225625967	 0.319722
61.7467	63.383	111.3083	245.974	255.3578	326.884	360.2056	394.0959	430.4331	498.6263	640.5363	662.4368	706.9119	738.171	778.3322	791.0619	818.3161	915.6002	992.6929	1012.3707	1065.3292	1124.6689	1132.0671	1157.4676	1225.3176	1264.747	1290.1497	1320.6148	1375.4991	1413.9536	1449.0069	1490.7649	1498.3445	1507.1529	1520.5687	1661.8536	1691.7079	2972.0229	3035.0468	3083.2894	3106.763	3124.6848	3267.0206	3570.6721	3809.2575
CCNC1=CN=C(O)O1	CCNc1cnc(O)o1	
InChI=1S/C5H8N2O2/c1-2-6-4-3-7-5(8)9-4/h3,6H,2H2,1H3,(H,7,8)	InChI=1S/C5H8N2O2/c1-2-6-4-3-7-5(8)9-4/h3,6H,2H2,1H3,(H,7,8)
