15
gdb 45069	2.45373	1.78943	1.17839	5.0753	68.84	-0.2546	-0.052	0.2026	1008.0635	0.113101	-416.810966	-416.80347	-416.802526	-416.843479	28.027	
O	 0.04110502	 0.0335895132	-0.410859544	-0.272597
C	-0.015557071	 1.1704378604	-0.0469982298	 0.381086
C	-1.2597403211	 1.9580304226	 0.3708977707	-0.351813
C	-0.7238064127	 3.235910606	 0.9739456523	-0.020864
C	 0.2362502133	 3.112995402	 2.0974389449	-0.247729
N	 0.7463772514	 3.3716180396	 0.7404252965	-0.09778
C	 1.1992599545	 2.1587810276	 0.0473761393	-0.24722
C	 2.3669595791	 1.541412063	 0.6680534747	 0.317866
N	 3.2803101965	 1.050174916	 1.1766015545	-0.317331
H	-1.8642771116	 2.1480945158	-0.5240169415	 0.150034
H	-1.8681022527	 1.3542441888	 1.0496521563	 0.155839
H	-1.2907637952	 4.1517429522	 0.8446372781	 0.113207
H	 0.3765616236	 3.9361975571	 2.7900245754	 0.138736
H	 0.3975768323	 2.127492937	 2.5317036926	 0.136558
H	 1.4601316137	 2.4302464885	-0.98484116	 0.162009
57.8037	140.84	162.1871	320.4765	385.9426	403.5414	457.5834	510.5357	578.08	633.4304	662.0525	759.9438	785.5457	833.0122	904.479	938.8111	969.7341	1043.7089	1064.9864	1091.5721	1118.9575	1127.4548	1165.8528	1172.8693	1241.7901	1274.6668	1284.4823	1318.9065	1389.9879	1450.4347	1510.9605	1871.6303	2365.4042	3023.566	3049.6901	3101.8703	3105.1674	3165.9387	3201.5949
O=C1CC2CN2C1C#N	O=C1C[C@H]2CN2[C@H]1C#N	
InChI=1S/C6H6N2O/c7-2-5-6(9)1-4-3-8(4)5/h4-5H,1,3H2	InChI=1S/C6H6N2O/c7-2-5-6(9)1-4-3-8(4)5/h4-5H,1,3H2/t4-,5-,8?/m0/s1
