16
gdb 26701	2.26247	1.62782	0.9564	0.7302	68.64	-0.1703	0.0512	0.2214	1170.1116	0.12243	-475.042826	-475.033094	-475.03215	-475.077197	34.703	
C	 0.0503413313	 1.5719216276	 0.0675907659	-0.519738
C	 0.0314658155	 0.0776777193	 0.0237369081	 0.098037
C	 0.0134222845	-0.7279426628	-1.0672943675	 0.328892
O	 0.0183055143	-0.4223034167	-2.3796634429	-0.432844
O	 0.0127848015	-2.0425921833	-0.7479183569	-0.220212
C	 0.0304534335	-2.092534716	 0.6422976095	 0.257029
O	-0.0495664091	-3.3110100385	 1.2208517489	-0.4264
C	 0.0453522748	-0.8369268091	 1.1507702116	 0.051254
N	 0.1433353836	-0.4596963363	 2.5004247097	-0.616075
H	 0.9155292274	 1.9480476681	 0.626365634	 0.131005
H	 0.0971198152	 1.9849508471	-0.9431253282	 0.137411
H	-0.8469333802	 1.9845735135	 0.5478093653	 0.116141
H	-0.1077823478	-1.2389281956	-2.8759514383	 0.30536
H	 0.8133258151	-3.7452122824	 1.1970535735	 0.302706
H	-0.0684876441	-1.2370058513	 3.115005418	 0.244455
H	-0.4748822053	 0.3109389963	 2.7265851392	 0.242978
77.7811	130.3363	169.3296	192.9305	211.4193	220.3638	266.0409	290.6969	317.0483	334.5586	379.3384	543.5208	623.0943	625.5255	632.9359	678.244	735.6777	811.9709	885.5734	990.3654	1065.8183	1108.4418	1153.428	1197.4622	1240.6388	1279.1632	1345.9178	1377.0112	1419.1892	1468.7242	1484.2798	1503.2639	1646.0802	1718.1034	1759.26	3012.3562	3059.4544	3117.1406	3516.2928	3605.4157	3723.9048	3822.5325
CC1=C(O)OC(O)=C1N	Cc1c(O)oc(O)c1N	
InChI=1S/C5H7NO3/c1-2-3(6)5(8)9-4(2)7/h7-8H,6H2,1H3	InChI=1S/C5H7NO3/c1-2-3(6)5(8)9-4(2)7/h7-8H,6H2,1H3
