22
gdb 101361	3.15103	1.00754	0.85388	1.9542	81.38	-0.2309	0.0723	0.3031	1410.7988	0.193976	-404.294602	-404.285114	-404.28417	-404.329127	35.572	
C	-0.1356939191	 1.5061738523	-0.0030106978	-0.397907
C	 0.0132305281	-0.0175677171	-0.1045656821	 0.006685
C	 0.7869460344	-0.4192878447	-1.3606105424	-0.075936
O	 0.0600532023	 0.0254283744	-2.4972739068	-0.423826
C	 0.6863186589	-0.594621398	 1.1425090488	 0.014008
C	-0.0425148341	-0.5614011984	 2.5166921635	-0.198276
N	 0.1758275783	-2.036214584	 2.7434533986	-0.127775
C	-0.5495829281	-2.7075704766	 1.6520146296	-0.236789
C	 0.7654292418	-2.1112164989	 1.3426387802	-0.058607
H	 0.8439357595	 1.9868672393	 0.110255289	 0.106475
H	-0.6050873119	 1.9059665838	-0.9042415729	 0.134843
H	-0.7468645175	 1.7891172113	 0.8600140638	 0.111114
H	-0.9895078273	-0.4548658396	-0.2008671765	 0.079263
H	 1.7938403276	 0.0312109314	-1.3316711206	 0.080352
H	 0.9150438553	-1.5132361303	-1.379775224	 0.08851
H	 0.5664229364	-0.1938668409	-3.2844129469	 0.286551
H	 1.6838385893	-0.1528033183	 1.2468648547	 0.076492
H	 0.4698621885	 0.0200182663	 3.2850998777	 0.110931
H	-1.1013024931	-0.2779646642	 2.5033547519	 0.101074
H	-0.5897704439	-3.7860598885	 1.7717147109	 0.119396
H	-1.4666106427	-2.2615274577	 1.2724916975	 0.112218
H	 1.6358657074	-2.7262191115	 1.1344752138	 0.091208
68.5759	97.2364	145.5713	167.496	230.077	246.1927	262.952	348.6492	390.0572	397.9097	478.8774	553.8163	726.6393	757.7216	782.3914	838.6089	896.0949	928.6616	953.3515	965.0586	991.6839	1010.7291	1042.0278	1061.968	1086.6717	1106.0103	1111.8511	1124.0336	1164.2756	1180.2897	1203.0732	1224.5261	1249.2547	1267.6019	1268.6889	1297.8153	1311.3763	1361.4724	1375.8509	1397.7824	1404.0615	1458.5461	1492.4015	1493.3324	1504.8706	1510.0775	1519.5277	2953.9371	2987.7133	3020.3336	3028.2626	3037.0485	3043.7109	3092.3433	3104.2053	3112.3869	3130.0571	3151.2098	3194.8637	3833.8998
CC(CO)C1CN2CC12	C[C@@H](CO)[C@H]1CN2C[C@@H]12	
InChI=1S/C7H13NO/c1-5(4-9)6-2-8-3-7(6)8/h5-7,9H,2-4H2,1H3	InChI=1S/C7H13NO/c1-5(4-9)6-2-8-3-7(6)8/h5-7,9H,2-4H2,1H3/t5-,6+,7-,8?/m0/s1
