20
gdb 38423	3.74419	1.23623	1.2285	1.1708	76.98	-0.2335	0.0609	0.2944	1099.8922	0.173181	-403.104547	-403.097003	-403.096059	-403.136849	29.746	
C	 0.0003210475	 1.502421852	 0.7836273683	-0.254083
C	 1.1539470936	 0.9358791234	 0.0383022547	-0.011108
C	 2.1573113781	 0.0971730645	 0.81085741	-0.300543
C	 1.289178314	-0.8457879498	 1.6655335597	 0.264702
C	 1.9265622963	-2.1583528984	 2.1718937065	-0.137199
O	 1.7793142349	-1.7695098791	 3.5509669698	-0.273595
C	 1.1603370949	-0.5259474937	 3.1787895	-0.117089
C	-0.0116068357	-0.9564094197	 0.8381986431	-0.231324
N	-0.1600813658	 0.2568266469	 0.0172357625	-0.09532
H	 0.005611049	 1.459676065	 1.8703583228	 0.11773
H	-0.5400564907	 2.3518625491	 0.3764323308	 0.117737
H	 1.4731654912	 1.4000546258	-0.8903905785	 0.091827
H	 2.7610701319	-0.4875667736	 0.1055777012	 0.107519
H	 2.8506915147	 0.6926020069	 1.4133510224	 0.110866
H	 1.3632889599	-3.0727339048	 1.9400262532	 0.098951
H	 2.9783432276	-2.3103735087	 1.8955022599	 0.098877
H	 1.7338823739	 0.3421948094	 3.531060494	 0.097362
H	 0.1325424583	-0.4501072149	 3.5598761519	 0.097069
H	 0.0592982758	-1.8087283824	 0.150941191	 0.107163
H	-0.8989243393	-1.109252388	 1.4615246769	 0.110456
68.788	124.8013	227.9532	308.6213	382.2883	386.6954	399.128	479.3795	651.0783	754.6224	771.2476	828.5961	858.0734	879.7736	908.1511	924.0168	944.0123	981.9776	993.9452	1017.0844	1046.3205	1049.878	1088.2795	1105.7168	1133.7457	1154.9607	1167.1837	1169.3025	1178.2729	1209.0345	1244.1112	1260.951	1300.1472	1313.3074	1314.5509	1344.5321	1383.338	1395.1475	1485.3733	1493.621	1510.0035	1514.4962	1537.4524	2988.8373	3001.4623	3024.5984	3031.4959	3035.0757	3040.5747	3076.5039	3078.6813	3109.2892	3149.3401	3191.6415
C1C2CC3(COC3)CN12	C1[C@H]2CC3(COC3)CN12	
InChI=1S/C7H11NO/c1-6-2-8(6)3-7(1)4-9-5-7/h6H,1-5H2	InChI=1S/C7H11NO/c1-6-2-8(6)3-7(1)4-9-5-7/h6H,1-5H2/t6-,8?/m1/s1
