23
gdb 122197	3.5235	0.81298	0.77615	2.1192	83.21	-0.2485	0.0794	0.3279	1627.3305	0.20418	-425.414752	-425.404561	-425.403617	-425.450465	37.683	
C	-0.166049219	 1.4104544583	 0.1359100043	-0.386215
C	-0.0534594987	-0.1040574365	 0.1020011652	-0.027281
O	 0.6622219929	-0.5307765348	 1.2456168471	-0.266492
C	 0.8397249688	-1.9330704286	 1.3254411864	-0.117354
C	 1.7275464965	-2.200062811	 2.5344543427	 0.424475
O	 2.9418462705	-1.4998289369	 2.3889503493	-0.488321
C	 0.9769369618	-2.0537045708	 3.8959649602	-0.272491
C	 0.8146593663	-3.598036633	 3.9313114372	-0.213822
C	 1.9107804193	-3.705839168	 2.8347531825	-0.271276
H	 0.8262540783	 1.8707362135	 0.1305564495	 0.125526
H	-0.7191174048	 1.7704162087	-0.7366305488	 0.118004
H	-0.6903730836	 1.7362748676	 1.0386374882	 0.128829
H	-1.0540907126	-0.5668042624	 0.0920564613	 0.089702
H	 0.4642263826	-0.4363420595	-0.813157674	 0.0904
H	-0.1310834989	-2.4452490207	 1.4208016039	 0.087482
H	 1.3364281658	-2.3086728556	 0.4156020704	 0.090973
H	 2.7052805968	-0.6248972357	 2.0545365233	 0.279575
H	 1.6708247591	-1.6969571932	 4.6606808906	 0.105443
H	 0.0765494599	-1.4351922087	 3.9098455444	 0.096525
H	 1.0164552964	-4.0966456436	 4.8811506897	 0.100278
H	-0.1656008701	-3.9258406542	 3.5751048168	 0.099921
H	 1.7542618626	-4.4079110528	 2.0103424941	 0.091121
H	 2.9039556301	-3.873663262	 3.2579608857	 0.114999
54.9538	75.4326	112.461	138.3183	170.4291	250.2943	262.9594	307.077	351.3217	419.7127	436.1913	481.2451	508.3606	655.9855	742.8909	790.8377	820.9757	868.4466	896.9729	916.0128	932.2238	958.0226	982.388	1032.8472	1037.7277	1082.355	1141.9475	1156.0375	1164.2207	1189.1083	1197.0255	1205.1422	1244.7612	1257.5443	1265.9098	1282.2743	1298.277	1315.7725	1359.3114	1402.5713	1419.9628	1446.859	1470.3807	1484.4077	1484.677	1498.2208	1503.0299	1508.0482	1533.3476	2957.3807	2968.4638	2988.4781	3002.0682	3045.2547	3054.0147	3062.4387	3068.2962	3104.6153	3117.9754	3119.6327	3122.2327	3129.2044	3769.1517
CCOCC1(O)CCC1	CCOCC1(O)CCC1	
InChI=1S/C7H14O2/c1-2-9-6-7(8)4-3-5-7/h8H,2-6H2,1H3	InChI=1S/C7H14O2/c1-2-9-6-7(8)4-3-5-7/h8H,2-6H2,1H3
