21
gdb 68896	2.38123	1.78791	1.20474	1.6559	83.66	-0.234	0.0075	0.2415	1108.6885	0.182016	-387.105147	-387.096297	-387.095353	-387.137965	34.766	
C	-0.0844859527	 1.5225585622	-0.0386875432	-0.471511
C	 0.0611172182	 0.0174543511	 0.0227278163	 0.329274
C	 0.0657576017	-0.6634940132	-1.3391675875	-0.272854
C	 0.0616807281	-2.1990828736	-1.2562640596	-0.270064
C	 1.0681920679	-2.7048844162	-0.2590728564	-0.092078
C	 1.3814947008	-2.0035270409	 0.8297178101	-0.067216
C	 0.7539917127	-0.682867747	 1.1346936962	 0.314265
C	 1.3356310774	 0.0345850384	 2.3319838115	-0.486266
O	-0.6985670254	-0.6501351204	 1.0385686385	-0.335366
H	 0.732162027	 1.9664006253	-0.6184819784	 0.12008
H	-1.0249022039	 1.7843333722	-0.5366101697	 0.124594
H	-0.0946276521	 1.977127588	 0.9521389427	 0.125979
H	-0.7979613188	-0.3198911591	-1.9207559605	 0.100791
H	 0.9603907259	-0.3241179659	-1.8781352329	 0.103501
H	-0.9383953129	-2.5407828165	-0.9618296012	 0.130469
H	 0.253874983	-2.6230814748	-2.247592567	 0.098165
H	 1.5249660679	-3.6751138949	-0.434102394	 0.091294
H	 2.1043491966	-2.3813801158	 1.5477237794	 0.080578
H	 2.3918044738	 0.2723789772	 2.163332758	 0.121811
H	 0.8008194714	 0.9568539575	 2.5585344384	 0.127507
H	 1.2781283536	-0.6113778834	 3.2152402195	 0.127047
142.3443	155.261	161.6013	178.8978	292.3224	311.5352	330.1614	389.9712	423.3795	454.3286	524.3921	587.6405	655.234	681.6197	711.0354	766.1473	842.6184	882.5157	896.1509	939.0204	976.4225	986.3547	1011.7333	1050.2096	1075.8044	1103.5936	1141.9933	1185.7587	1201.4097	1219.72	1229.0012	1275.8582	1351.4298	1380.197	1404.7209	1415.6813	1422.2416	1440.7062	1470.0426	1476.7268	1480.2484	1485.3874	1499.1763	1513.3589	1714.6642	3018.8931	3029.8234	3035.2853	3038.5133	3058.6999	3071.0849	3092.4856	3094.1191	3137.9141	3151.7567	3153.0445	3175.5131
CC12CCC=CC1(C)O2	C[C@@]12CCC=C[C@]1(C)O2	
InChI=1S/C8H12O/c1-7-5-3-4-6-8(7,2)9-7/h3,5H,4,6H2,1-2H3	InChI=1S/C8H12O/c1-7-5-3-4-6-8(7,2)9-7/h3,5H,4,6H2,1-2H3/t7-,8+/m0/s1
