18
gdb 113346	2.34573	1.17579	0.8917	2.5225	75.64	-0.2503	0.0195	0.2698	1315.5584	0.145995	-439.011554	-439.001867	-439.000922	-439.046212	35.704	
O	 0.0672137724	 1.0162538742	-0.7691456227	-0.417092
C	 0.0631172548	-0.1301476052	 0.0705730721	-0.101611
C	-1.3386656905	-0.6852958495	 0.1979673994	-0.0496
N	-1.8552135353	-1.4811273914	-0.9317749765	-0.398932
C	-1.6892936871	-2.1303366646	 0.3955418159	 0.0762
C	-0.6570399272	-3.2703772216	 0.3936553092	-0.138323
O	 0.2734060993	-3.158211008	-0.6552954466	-0.41101
C	-2.8685936275	-2.4134388997	 1.1721500832	 0.249435
C	-3.8417181409	-2.6874053021	 1.8241348089	-0.403244
H	-0.1810475884	 0.7154749819	-1.6500995159	 0.287626
H	 0.7510159703	-0.9045815032	-0.2824298712	 0.123964
H	 0.4059365156	 0.2128923341	 1.0524746417	 0.11393
H	-2.0421192571	 0.018324576	 0.6389097846	 0.103286
H	-2.8351507767	-1.2803294951	-1.1096267925	 0.247239
H	-0.1037644691	-3.2745944124	 1.3387131144	 0.122624
H	-1.2157899661	-4.2173065681	 0.3341402837	 0.103758
H	-0.2303486615	-2.8170553022	-1.4092226213	 0.290611
H	-4.701811935	-2.9170253331	 2.4034854036	 0.201139
70.2297	118.59	129.7887	148.4133	192.0772	266.0605	281.7426	372.6929	403.2256	451.4801	485.4147	529.1738	535.736	596.4854	616.9489	664.4204	701.3038	829.6576	865.7677	987.9092	1011.7359	1034.3634	1059.4595	1072.9215	1087.2717	1102.8256	1179.8997	1235.7277	1259.297	1267.4279	1312.6697	1360.2131	1390.7444	1411.0955	1443.9198	1467.0413	1510.2625	1514.6805	2233.248	2984.3383	3048.8583	3071.7724	3095.2979	3134.7258	3500.599	3519.6908	3720.2514	3807.146
OCC1NC1(CO)C#C	OC[C@H]1N[C@]1(CO)C#C	
InChI=1S/C6H9NO2/c1-2-6(4-9)5(3-8)7-6/h1,5,7-9H,3-4H2	InChI=1S/C6H9NO2/c1-2-6(4-9)5(3-8)7-6/h1,5,7-9H,3-4H2/t5-,6+/m1/s1
