15
gdb 26772	3.60918	1.1342	0.86904	5.9612	80.7	-0.2074	-0.033	0.1744	1262.0492	0.114179	-413.048482	-413.039865	-413.038921	-413.081815	31.072	
C	-0.0310772992	 1.5218880442	 0.1207993421	-0.519745
C	-0.0040939787	 0.0388487682	-0.0119075863	 0.268213
C	-0.042265115	-0.7882511907	-1.1260529389	 0.210011
N	-0.1625906943	-0.4047344558	-2.464193989	-0.605345
N	-0.0202313456	-2.1008188933	-0.765587011	-0.341343
C	 0.0346437581	-2.1017010858	 0.5594816278	 0.239847
N	 0.0585262039	-0.8287187272	 1.0534162505	-0.346124
C	 0.0682423942	-3.2360404533	 1.4049182516	 0.228849
N	 0.1003579814	-4.138097801	 2.131814091	-0.34418
H	 0.9630907576	 1.9532673556	 0.295614321	 0.138949
H	-0.4274633807	 1.9616673412	-0.7984059906	 0.151993
H	-0.6783262851	 1.8438271347	 0.9441878413	 0.136933
H	 0.5069292043	 0.2988892135	-2.7475581065	 0.246815
H	-0.0873876089	-1.2127678305	-3.0693797593	 0.256199
H	 0.1006958779	-0.5758515299	 2.0275392662	 0.278927
107.4323	125.6421	146.9461	187.9585	244.7508	250.202	328.8111	418.9818	496.4399	539.9983	552.0323	606.0692	642.732	681.1903	717.5252	785.0555	806.2685	999.6935	1036.1512	1060.5127	1109.8169	1210.6747	1252.9169	1337.3715	1410.4412	1433.6887	1471.2624	1483.5965	1494.8711	1532.2543	1632.443	1644.9658	2338.3629	3017.8074	3072.0059	3115.591	3539.743	3631.1003	3655.6484
CC1=C(N)N=C(N1)C#N	Cc1c(N)nc([nH]1)C#N	
InChI=1S/C5H6N4/c1-3-5(7)9-4(2-6)8-3/h7H2,1H3,(H,8,9)	InChI=1S/C5H6N4/c1-3-5(7)9-4(2-6)8-3/h7H2,1H3,(H,8,9)
