16
gdb 76520	3.09415	1.25923	1.23887	3.2432	65.1	-0.2311	0.022	0.2531	1063.0324	0.124069	-474.997239	-474.989168	-474.988224	-475.029978	30.29	
O	 0.0273732072	 1.4077336137	 0.1893391845	-0.42344
C	 0.0462693651	 0.010884655	 0.0467476494	-0.058134
C	-0.519295298	-0.7970191877	 1.2071511164	 0.01011
O	-0.9467055464	-0.1077200391	 2.3394717087	-0.424009
C	-1.300395443	-0.6344628333	-0.0725052188	 0.332175
C	-2.6319049053	 0.1118693502	-0.1698414055	-0.258133
N	-3.4249852944	-0.7070923041	-1.1054619389	-0.259197
C	-2.6756956142	-1.6647372057	-1.4539013746	 0.105108
O	-1.4118053526	-1.7533331044	-0.9554258181	-0.251373
H	 0.883957755	 1.6837211441	 0.5344298726	 0.302195
H	 0.8620023386	-0.4048586599	-0.541188822	 0.110003
H	-0.0832853712	-1.7656796212	 1.4329577562	 0.116613
H	-0.8189775314	 0.8325257462	 2.1499950383	 0.289045
H	-3.1308152841	 0.1773381409	 0.8026638569	 0.133502
H	-2.5210143344	 1.1291570681	-0.5585142513	 0.133577
H	-2.9390771808	-2.4617246328	-2.1396758536	 0.141958
84.4676	152.3545	174.1616	238.8458	283.5311	295.1231	422.6211	477.0628	490.095	541.1619	597.1039	654.8607	792.3104	843.8943	895.8436	908.2617	954.5393	970.8684	984.5317	1056.272	1071.5376	1117.5194	1128.9541	1147.9459	1172.9652	1210.9923	1241.9313	1272.6793	1323.5688	1332.6778	1340.0906	1401.1816	1482.4064	1506.1642	1709.3996	3047.3373	3081.524	3128.6592	3160.1358	3222.4123	3740.4041	3801.5065
OC1C(O)C11CN=CO1	O[C@H]1[C@@H](O)[C@]21CN=CO2	
InChI=1S/C5H7NO3/c7-3-4(8)5(3)1-6-2-9-5/h2-4,7-8H,1H2	InChI=1S/C5H7NO3/c7-3-4(8)5(3)1-6-2-9-5/h2-4,7-8H,1H2/t3-,4+,5+
