19
gdb 13777	3.35735	1.30591	1.05151	3.1313	73.07	-0.2479	-0.0266	0.2213	1160.0386	0.163658	-365.053346	-365.044308	-365.043363	-365.087311	32.604	
C	-0.6529772123	 2.4403728038	 1.3069759065	-0.392863
C	-0.6330511284	 1.3558702234	 0.2205112724	 0.02805
C	 0.4145019506	 0.2734381499	 0.5135796571	-0.393349
C	-2.0148907285	 0.741840995	 0.0866129144	 0.008003
N	-3.0115164109	 1.4526145145	-0.699574441	-0.340674
C	-2.5617053971	 0.1244120386	-1.1734685157	-0.135641
C	-1.7979142242	 0.1168554449	-2.4513870268	 0.172865
O	-1.6672247451	-0.8617892568	-3.1443459714	-0.262232
H	 0.3256139008	 2.9220381732	 1.3974692819	 0.115057
H	-1.3933032255	 3.2114174325	 1.0740130632	 0.126736
H	-0.9036316921	 2.0121751228	 2.285263964	 0.109962
H	-0.3852985825	 1.8386287006	-0.7313898326	 0.083201
H	 0.1948185706	-0.2422288371	 1.4560966864	 0.11342
H	 0.4454414185	-0.4804649074	-0.2794397687	 0.126132
H	 1.4130475472	 0.7122289625	 0.6030195034	 0.117554
H	-2.3596823813	 0.2464797621	 0.9967383072	 0.090128
H	-3.9386562735	 1.3798254964	-0.2906306214	 0.24246
H	-3.2134400705	-0.7371904086	-1.0493799822	 0.103884
H	-1.3570451159	 1.0983772396	-2.7292765668	 0.087309
57.3415	83.454	170.3632	217.231	228.3854	253.3067	313.7909	325.7757	364.1354	462.6592	484.0943	553.3613	774.204	850.0133	896.73	922.5017	932.2244	966.3732	971.2189	996.0389	1042.4652	1075.5198	1133.2035	1153.2341	1190.6838	1209.5547	1230.327	1262.8515	1322.3497	1344.5423	1365.0528	1398.3888	1413.5191	1425.9714	1469.5289	1488.805	1491.5061	1504.4601	1513.1385	1819.2306	2903.2875	3026.0039	3029.425	3044.4715	3084.7976	3091.934	3099.2743	3107.8281	3111.8654	3145.7625	3515.5096
CC(C)C1NC1C=O	CC(C)[C@H]1N[C@H]1C=O	
InChI=1S/C6H11NO/c1-4(2)6-5(3-8)7-6/h3-7H,1-2H3	InChI=1S/C6H11NO/c1-4(2)6-5(3-8)7-6/h3-7H,1-2H3/t5-,6+/m0/s1
