16
gdb 51211	3.85051	1.29371	1.11492	1.8562	70.05	-0.2429	0.0165	0.2594	1070.7737	0.124059	-437.809692	-437.802248	-437.801304	-437.843315	28.115	
O	-0.0333958977	 0.8691513023	-1.3956675572	-0.310496
C	-0.0020566838	 1.4081651551	-0.3126059018	 0.129893
N	 1.0728121635	 1.4333699711	 0.5319912527	-0.434316
C	 2.3535036286	 0.9110519984	 0.2183665607	 0.411565
C	 2.7275800742	-0.2913281488	-0.6621508309	-0.295768
C	 4.0943528472	 0.1984995387	-0.1282318468	-0.096556
C	 3.6680146363	 1.6965573988	-0.1636946214	 0.036678
O	 4.0381696576	 1.9656096087	 1.2239360581	-0.333938
C	 3.4920128737	 0.6148737547	 1.2488152216	 0.02008
H	-0.8712863991	 1.9364274448	 0.1277808373	 0.079049
H	 1.0080850912	 2.0147077107	 1.3550574971	 0.25668
H	 2.3889450704	-1.2689200806	-0.3097918362	 0.107711
H	 2.5382968629	-0.1793101192	-1.7292443201	 0.130101
H	 5.0961618609	-0.1875046166	-0.2995868634	 0.095363
H	 3.8399095892	 2.4646041979	-0.9165642027	 0.104718
H	 3.4574757049	 0.0732957741	 2.194463543	 0.099235
13.1507	155.7206	195.8261	268.1611	365.107	437.2262	518.3506	544.548	654.2834	721.2798	769.5724	817.7892	836.1238	857.0451	885.0915	901.2698	932.3436	997.7515	1029.8515	1054.8368	1062.5119	1089.4272	1123.661	1139.7216	1157.6449	1163.7383	1167.1152	1230.5313	1245.7869	1311.2089	1354.4679	1437.3893	1510.8835	1526.1489	1810.5474	2934.0541	3072.9519	3118.2123	3132.1705	3146.4313	3158.1364	3607.4077
O=CNC12CC3C1OC23	O=CN[C@@]12C[C@H]3[C@@H]1O[C@@H]23	
InChI=1S/C6H7NO2/c8-2-7-6-1-3-4(6)9-5(3)6/h2-5H,1H2,(H,7,8)	InChI=1S/C6H7NO2/c8-2-7-6-1-3-4(6)9-5(3)6/h2-5H,1H2,(H,7,8)/t3-,4-,5+,6-
