12
gdb 27722	2.9229	1.3772	0.93656	6.7744	67.63	-0.2201	-0.0208	0.1993	1129.5077	0.078929	-468.858075	-468.85041	-468.849466	-468.89024	28.332	
N	 0.0511413477	 1.2588863168	 0.1615386576	-0.589848
C	-0.0402132451	-0.0867763532	 0.0429775142	 0.49555
N	-1.1375106759	-0.797157376	-0.0515627455	-0.41378
C	-0.6805985628	-2.0887596828	-0.0813966313	 0.271894
O	-1.5100202582	-3.1261005594	-0.1743464199	-0.402937
C	 0.6859029906	-2.1281128535	-0.0088711914	 0.109876
O	 1.0990069487	-0.7840309513	 0.0731722455	-0.212127
C	 1.6428887108	-3.143735535	-0.0072271484	 0.218022
N	 2.4317450624	-3.9959013092	-0.0075913809	-0.359111
H	 0.9393234621	 1.6802002135	-0.0581157988	 0.282004
H	-0.7707171783	 1.7788366951	-0.0993539793	 0.284407
H	-2.4090416019	-2.774220525	-0.2020794517	 0.316049
130.525	140.0354	231.1044	310.6293	354.5094	378.1726	415.3456	434.9117	447.1038	536.275	555.5161	623.5404	672.0586	719.1755	766.402	833.7498	1035.9115	1073.6227	1137.5642	1201.5954	1329.7421	1408.178	1477.1668	1593.6401	1683.7034	1707.5655	2323.4435	3604.6005	3723.1908	3797.0408
NC1=NC(O)=C(O1)C#N	Nc1nc(O)c(o1)C#N	
InChI=1S/C4H3N3O2/c5-1-2-3(8)7-4(6)9-2/h8H,(H2,6,7)	InChI=1S/C4H3N3O2/c5-1-2-3(8)7-4(6)9-2/h8H,(H2,6,7)
