17
gdb 42960	2.66364	1.88364	1.37054	3.0711	71.01	-0.2381	-0.0338	0.2042	950.4723	0.137544	-421.818701	-421.811745	-421.810801	-421.850152	27.511	
O	-0.0364473602	 0.0001893795	 0.1273034492	-0.320015
C	-0.036348541	 1.198535793	 0.0025260727	 0.414206
C	-1.2675226182	 2.0633180387	-0.180185113	-0.089268
O	-1.2804430092	 3.1415060991	 0.7786247661	-0.244142
C	-0.8198298352	 3.4244166022	-0.5428496033	 0.029202
C	 0.6980405635	 3.4889047374	-0.6349093319	-0.060663
C	 1.4128798468	 4.2098192133	 0.5481055548	-0.222437
C	 1.6823580793	 2.8309609337	 1.216898324	-0.22727
C	 1.1825716993	 2.114305766	-0.0854429938	-0.132309
H	-2.2292929111	 1.627296291	-0.4314067204	 0.115273
H	-1.4517859631	 4.0980729052	-1.1165499508	 0.104979
H	 1.0124931525	 3.7651024211	-1.643969693	 0.07876
H	 2.3275123457	 4.7170661296	 0.2333392497	 0.105294
H	 0.8000162695	 4.9101725152	 1.1184170233	 0.114143
H	 2.7204734247	 2.6209485038	 1.480453797	 0.10799
H	 1.0505858698	 2.6367886702	 2.0839850803	 0.126368
H	 1.9782579169	 1.618225781	-0.642137501	 0.099887
101.4098	179.9177	235.6126	269.2679	433.6012	487.704	559.3606	622.0565	715.2058	742.8337	770.0904	807.6628	854.6101	861.9604	877.7844	916.7182	960.3231	966.6534	1008.2022	1044.0142	1053.0159	1098.454	1120.0921	1183.2465	1191.5688	1225.1781	1240.9215	1241.4814	1266.3626	1275.2702	1284.647	1312.3414	1340.2189	1398.7416	1471.3448	1490.9111	1838.1138	3069.7571	3080.4477	3083.0029	3108.7997	3121.7314	3143.5722	3145.4412	3175.1649
O=C1C2OC2C2CCC12	O=C1[C@H]2O[C@H]2[C@H]2CC[C@@H]12	
InChI=1S/C7H8O2/c8-5-3-1-2-4(3)6-7(5)9-6/h3-4,6-7H,1-2H2	InChI=1S/C7H8O2/c8-5-3-1-2-4(3)6-7(5)9-6/h3-4,6-7H,1-2H2/t3-,4+,6+,7-/m1/s1
