16
gdb 30871	2.42533	1.43944	0.94521	1.3528	68.61	-0.2046	0.0349	0.2395	1215.1124	0.123279	-475.053464	-475.044557	-475.043613	-475.08743	31.662	
C	-0.2469190485	 1.2601388147	-0.0425015321	-0.254957
O	 0.6690579716	 0.1677669136	 0.123595781	-0.264258
C	 0.8826140694	-0.5686464062	-0.9670404882	 0.318334
C	 0.6845459077	-1.8683050923	-1.2749640689	 0.141809
C	 0.0494050742	-2.9405276544	-0.4606302699	-0.49538
N	 1.2107604934	-2.1056975701	-2.5596536478	-0.432213
C	 1.665760176	-0.9558835522	-2.9220289511	 0.468824
O	 2.2545170998	-0.6185883432	-4.0694295262	-0.401179
O	 1.5297986044	 0.0470644461	-2.0428659804	-0.207276
H	 0.1440555171	 1.9894228561	-0.7588558879	 0.140878
H	-1.2219337725	 0.8950245048	-0.3849354932	 0.125691
H	-0.3475505691	 1.7261212098	 0.9385482577	 0.139297
H	-0.8091176996	-3.3761605593	-0.9833667028	 0.133382
H	 0.7554054454	-3.7547481679	-0.2634228278	 0.136536
H	-0.2910657589	-2.5404096137	 0.4973656894	 0.130047
H	 2.2849956998	-1.4210835259	-4.6061519316	 0.320464
69.1488	147.0067	155.4387	157.0243	213.3616	249.3675	291.2076	361.1575	429.1013	462.0262	570.801	629.7155	632.5516	696.7951	746.3914	817.6588	983.581	1022.984	1040.0406	1067.8317	1089.7457	1173.4189	1205.5252	1211.4454	1264.8824	1342.951	1419.4486	1472.5832	1477.4539	1485.2359	1495.4602	1498.1454	1503.9133	1660.9838	1742.7691	3026.3128	3033.8487	3086.0178	3101.2418	3126.2275	3146.939	3805.4498
COC1=C(C)N=C(O)O1	COc1c(C)nc(O)o1	
InChI=1S/C5H7NO3/c1-3-4(8-2)9-5(7)6-3/h1-2H3,(H,6,7)	InChI=1S/C5H7NO3/c1-3-4(8-2)9-5(7)6-3/h1-2H3,(H,6,7)
