22
gdb 57254	2.11515	1.398	1.28048	3.891	85.33	-0.2862	0.0434	0.3296	1178.5236	0.192362	-367.224536	-367.214348	-367.213404	-367.259371	38.755	
C	 0.1695650119	 1.4852757682	 0.1569582491	-0.411496
C	 0.0319697389	-0.0527966987	 0.033199305	 0.013305
C	 0.558643767	-0.6927788024	 1.3394889303	-0.432306
C	-1.4027908586	-0.3886103876	-0.0717976137	 0.285281
N	-2.5256686793	-0.6527207518	-0.1509290449	-0.354599
C	 0.7277611531	-0.5625939458	-1.2565623444	 0.37465
C	 0.2261935141	 0.077319628	-2.5435996969	-0.477749
C	 2.1938005685	-0.9276375081	-1.2234272142	-0.324612
C	 1.1480135115	-2.008522902	-1.3657253797	-0.306053
H	 1.2306239545	 1.7521394581	 0.1634021722	 0.125076
H	-0.3160256916	 2.0069757807	-0.6688794535	 0.137183
H	-0.2827025417	 1.8352383177	 1.0885807435	 0.129153
H	-0.0268681224	-0.3263285779	 2.1862515456	 0.136725
H	 0.4799848822	-1.7813494861	 1.3309486922	 0.13741
H	 1.6011539436	-0.4118379524	 1.5074547861	 0.126521
H	 0.4732293514	 1.1420393346	-2.59891039	 0.119461
H	 0.6865759762	-0.4082000198	-3.4084785341	 0.116829
H	-0.8593881523	-0.0265416228	-2.6428149285	 0.14279
H	 2.7893265638	-0.6644658001	-2.0912088266	 0.114815
H	 2.7393531606	-0.8775646125	-0.2887797326	 0.113199
H	 0.9949782149	-2.6744665288	-0.5255408078	 0.117727
H	 1.0255867036	-2.4892343407	-2.3301061671	 0.116689
33.2071	144.0968	180.3132	205.6305	226.2039	251.7397	290.6135	304.2347	347.8681	371.4921	391.3082	401.5472	462.4426	539.2562	589.5508	640.0616	778.9345	791.8346	882.0807	887.3295	919.6519	946.6649	957.5833	974.7137	1028.8017	1041.3803	1071.0723	1084.2667	1128.2857	1156.5924	1184.925	1187.3652	1229.6505	1298.0407	1337.2124	1398.1036	1418.6132	1423.1658	1464.9678	1482.0039	1489.7402	1496.6499	1501.4689	1503.5521	1512.782	1519.7195	2348.2279	3036.4447	3049.5468	3055.6544	3102.4657	3109.7827	3120.0116	3126.8891	3134.0437	3140.3244	3144.8082	3145.6445	3216.1694	3230.5637
CC(C)(C#N)C1(C)CC1	CC(C)(C#N)C1(C)CC1	
InChI=1S/C8H13N/c1-7(2,6-9)8(3)4-5-8/h4-5H2,1-3H3	InChI=1S/C8H13N/c1-7(2,6-9)8(3)4-5-8/h4-5H2,1-3H3
