18
gdb 68143	3.72758	1.21599	1.08293	4.6436	76.55	-0.2741	0.0306	0.3047	1126.7642	0.149181	-401.96057	-401.952779	-401.951834	-401.992476	31.126	
O	-0.0862476768	 1.3877624215	 0.0088147611	-0.479703
C	-0.0125971652	 0.0021290689	 0.0226238779	 0.405983
C	 0.321317854	-0.8210694123	 1.3120297146	-0.320018
C	-0.4316604773	-1.9356085325	 0.5203113586	 0.21222
C	-1.3404122305	-0.7918665915	-0.0358462643	-0.290544
C	 0.5315662785	-2.188186249	-0.6730856767	-0.258631
C	 0.8450904169	-0.7077424495	-1.04691902	-0.28661
C	-0.9871727649	-3.0918532929	 1.1821477498	 0.169719
N	-1.4279946429	-4.0219153439	 1.7096729825	-0.345751
H	 0.8043146946	 1.7452113103	-0.0751979711	 0.283814
H	 1.3675184521	-1.00770508	 1.569130682	 0.100884
H	-0.2405321934	-0.4722069814	 2.1792963767	 0.123117
H	-2.0653384594	-0.441910122	 0.7000731148	 0.125462
H	-1.8132606812	-0.9478982632	-1.0084417227	 0.10828
H	 1.4145021262	-2.7520927088	-0.3640368967	 0.119376
H	 0.0390959295	-2.7378764967	-1.4781613114	 0.121231
H	 0.5253435195	-0.4438831331	-2.0583112456	 0.11312
H	 1.9079791403	-0.4638952339	-0.9478428995	 0.09805
143.0142	151.2527	243.4179	264.7898	353.5245	375.438	445.0977	487.9572	515.3023	560.3811	562.0519	593.1545	693.6081	825.3564	837.5216	843.5137	954.5055	960.0234	968.7648	995.01	1009.6327	1014.0894	1109.3794	1125.704	1148.587	1176.6058	1196.4838	1220.0903	1232.9867	1243.2743	1248.926	1318.2275	1337.3266	1391.9587	1484.8662	1493.0601	1499.2919	1534.6284	2353.4155	3047.8167	3063.3734	3070.9579	3074.8108	3097.3941	3123.0986	3140.2666	3145.8212	3807.1826
OC12CC(C1)(CC2)C#N	O[C@@]12C[C@@](C1)(CC2)C#N	
InChI=1S/C7H9NO/c8-5-6-1-2-7(9,3-6)4-6/h9H,1-4H2	InChI=1S/C7H9NO/c8-5-6-1-2-7(9,3-6)4-6/h9H,1-4H2/t6-,7+
