16
gdb 19235	3.13294	2.00037	1.55145	5.3941	68.46	-0.2487	0.0291	0.2779	856.9511	0.131414	-342.754519	-342.747177	-342.746233	-342.786057	27.553	
C	-0.1198010781	 1.5764982918	-0.1314389185	-0.412279
C	 0.0202793002	 0.0662918112	-0.0426278121	 0.004522
C	 0.6909689331	-0.6743948112	-1.2110282064	-0.052901
N	 2.0811525578	-0.1716156015	-1.2820220077	-0.318201
C	 1.7415872659	-1.2462822031	-0.3293811587	-0.057218
C	 1.1393862981	-0.5589066636	 0.9087263887	-0.183781
C	 1.9982427991	 0.3420437011	 1.6616328133	 0.303146
N	 2.6681164167	 1.0580496353	 2.2742467351	-0.34049
H	 0.8266969045	 2.0337630436	-0.4273868345	 0.155334
H	-0.8815786314	 1.84309725	-0.8719131092	 0.113904
H	-0.4220451135	 2.0015282102	 0.8306180487	 0.127516
H	-0.9350163697	-0.4019682529	 0.209619116	 0.087652
H	 0.2076602566	-1.1041582485	-2.0794059609	 0.102058
H	 2.5309101282	-0.6072797097	-2.085769168	 0.238032
H	 2.2438869658	-2.2045971634	-0.3504106251	 0.108863
H	 0.6933057169	-1.2819100291	 1.5957688294	 0.123845
116.8037	133.5017	215.0305	224.7763	309.1113	388.8577	511.4639	540.0918	631.5391	683.7417	772.7568	819.6834	843.6511	893.1856	903.1574	955.1392	1000.9645	1027.6238	1068.5787	1095.1141	1107.6618	1117.3496	1136.002	1176.9854	1252.8814	1269.1132	1317.4472	1342.1848	1368.9568	1382.2982	1408.7859	1487.4312	1501.5147	2355.0096	3039.8317	3069.1969	3089.4215	3104.0237	3136.3168	3191.5338	3206.0219	3489.2106
CC1C2NC2C1C#N	C[C@H]1[C@H]2N[C@H]2[C@H]1C#N	
InChI=1S/C6H8N2/c1-3-4(2-7)6-5(3)8-6/h3-6,8H,1H3	InChI=1S/C6H8N2/c1-3-4(2-7)6-5(3)8-6/h3-6,8H,1H3/t3-,4+,5-,6+/m1/s1
