21
gdb 107291	3.20631	1.26414	1.11314	1.4844	81.58	-0.2334	0.071	0.3045	1178.4428	0.183571	-387.031688	-387.023509	-387.022565	-387.064396	32.674	
O	 0.1589000028	 1.3741414455	 0.230307914	-0.415418
C	 0.0603968888	-0.0109561533	-0.0836015436	-0.17816
C	-1.354605448	-0.5061904915	-0.0765524936	 0.338789
C	-2.0277038591	-0.9800301418	 1.1882454427	-0.355871
C	-1.9008493296	-1.939606864	 0.0375192902	-0.125245
C	-2.9220782479	-1.6554534137	-1.0875149402	-0.009462
C	-4.335536865	-1.1117723869	-0.7161252381	-0.243127
C	-3.793514347	 0.3530932871	-0.82212267	-0.244311
C	-2.3848639844	-0.1986773076	-1.1934899036	-0.067057
H	-0.3019454857	 1.5071630791	 1.0655296384	 0.279639
H	 0.5002081028	-0.1100109123	-1.0826947872	 0.105905
H	 0.6685121114	-0.6245812495	 0.6023921994	 0.080395
H	-1.3486466779	-1.1803285138	 2.0128590322	 0.107961
H	-2.9914129739	-0.5969715308	 1.5081149837	 0.113334
H	-1.3494730758	-2.8668486221	 0.1486124743	 0.084299
H	-2.8569364934	-2.3419950447	-1.9318645073	 0.06596
H	-5.0950776592	-1.3451340151	-1.466194124	 0.098782
H	-4.721740828	-1.4157962837	 0.2604377492	 0.099257
H	-4.2545210547	 0.9257437479	-1.6304386428	 0.0999
H	-3.8451729099	 0.9562695144	 0.0883631939	 0.096593
H	-1.9294757965	 0.1716558869	-2.1126389476	 0.067836
83.4859	112.8086	217.9723	266.2017	318.1228	334.1704	379.3768	415.1316	512.9736	662.2119	683.1149	727.6324	795.1018	822.0516	852.7772	874.9092	895.5219	923.5555	951.1114	962.2602	980.8972	983.929	1016.1452	1046.8457	1057.0663	1078.1184	1099.7923	1115.8072	1146.6543	1177.8365	1205.7921	1228.2425	1237.4655	1250.2129	1260.8317	1284.485	1301.8808	1321.462	1362.8579	1397.2314	1428.1107	1474.3471	1486.5693	1498.1201	1506.761	2960.9445	3055.0769	3057.7443	3060.8597	3091.7222	3102.3623	3104.8181	3118.2088	3119.1109	3166.8231	3195.7768	3807.1412
OCC12CC1C1CCC21	OC[C@]12C[C@H]1[C@H]1CC[C@@H]21	
InChI=1S/C8H12O/c9-4-8-3-7(8)5-1-2-6(5)8/h5-7,9H,1-4H2	InChI=1S/C8H12O/c9-4-8-3-7(8)5-1-2-6(5)8/h5-7,9H,1-4H2/t5-,6+,7-,8-/m0/s1
