15
gdb 14006	4.33153	1.4873	1.285	4.0774	66.28	-0.2909	-0.0044	0.2865	950.9209	0.118652	-362.642656	-362.635424	-362.63448	-362.674419	26.646	
N	 0.1709591717	-1.1560860193	-0.3101775915	-0.329585
C	 0.1207821927	-0.0029441274	-0.2456887896	 0.311811
C	 0.0733704192	 1.4417379647	-0.2019504165	-0.217378
O	 0.2898116209	 2.0527961121	 1.0779738025	-0.262365
C	 1.2913047868	 2.2228450076	 0.0972412923	 0.467065
C	 2.7334332633	 1.7292593571	 0.1905268319	-0.315545
C	 3.1181785706	 2.8927335405	-0.7758330872	-0.213072
C	 1.7256668879	 3.5503347308	-0.5238134091	-0.315936
H	-0.71768608	 1.888769165	-0.8010886127	 0.139595
H	 3.1316336411	 1.8705027532	 1.1990461265	 0.127136
H	 2.9329290426	 0.7048466741	-0.1299591906	 0.132249
H	 3.9904196955	 3.4855140854	-0.4992345305	 0.114962
H	 3.2348832409	 2.5525214121	-1.8066105566	 0.118595
H	 1.1648046948	 3.9152172342	-1.3868212356	 0.115221
H	 1.7657948619	 4.3392548598	 0.2327288964	 0.127246
92.2223	131.4093	159.7334	308.0817	354.5196	379.2748	517.7084	575.8708	594.9944	719.3249	778.0306	828.1227	871.6776	917.555	921.9349	967.3571	1013.5828	1037.343	1056.1282	1139.743	1157.0461	1207.6688	1224.9769	1245.283	1266.2799	1278.0018	1331.8656	1457.4574	1467.2148	1480.4047	1510.109	2358.6363	3064.0416	3069.7175	3082.801	3116.2873	3123.4224	3133.7085	3142.5913
N#CC1OC11CCC1	N#C[C@H]1OC21CCC2	
InChI=1S/C6H7NO/c7-4-5-6(8-5)2-1-3-6/h5H,1-3H2	InChI=1S/C6H7NO/c7-4-5-6(8-5)2-1-3-6/h5H,1-3H2/t5-/m1/s1
