20
gdb 63214	2.19808	1.8175	1.40833	1.5222	78.7	-0.2345	0.0254	0.2599	1037.0494	0.170292	-403.157241	-403.148596	-403.147652	-403.190579	33.834	
C	 0.092356043	 1.5251712637	-0.2062283563	-0.408109
C	-0.0253398796	 0.0110456985	 0.0087556829	 0.171902
C	-1.496924726	-0.42150127	 0.0055520476	-0.408095
N	 0.6736749277	-0.6810328583	-1.1068795598	-0.291668
C	 1.5931249557	-1.3749680215	-0.582963879	 0.093661
O	 1.7667675006	-1.3710036597	 0.7581419282	-0.253167
C	 0.7503109453	-0.4862152136	 1.2591599479	 0.411098
C	 1.1399714505	 0.3111634581	 2.4627674005	-0.328682
C	 0.1821756141	-0.8615191518	 2.5905730583	-0.328684
H	 1.138903433	 1.8411935478	-0.1926038989	 0.119681
H	-0.3339869081	 1.7920822647	-1.1768708202	 0.127203
H	-0.4471361821	 2.0790064875	 0.5692292894	 0.108295
H	-1.9470403086	-0.1837728552	-0.9619387565	 0.127201
H	-1.5876026834	-1.4984387807	 0.17078365	 0.11968
H	-2.0646597567	 0.0977867876	 0.7847409873	 0.108295
H	 2.2932624667	-2.005232252	-1.1207314219	 0.137532
H	 2.1498487731	 0.1782520403	 2.8342048465	 0.126389
H	 0.744627523	 1.3151143715	 2.5692775392	 0.120539
H	-0.8644885767	-0.6550254101	 2.784003767	 0.120539
H	 0.5582622783	-1.7704202867	 3.0465794578	 0.126391
32.5477	218.5017	250.9397	264.0276	273.9208	301.6276	312.8805	333.8517	416.4216	523.7945	544.5955	597.8714	634.6965	766.8495	812.9369	835.036	900.1955	930.4018	942.8609	961.0646	964.3997	977.9547	985.6706	1028.9119	1056.3925	1079.7636	1128.4717	1189.4163	1189.4785	1200.8582	1216.7515	1266.2282	1340.7486	1357.2613	1394.3777	1416.6684	1450.8146	1478.1072	1484.7467	1491.4017	1498.6812	1508.0125	1705.9194	3035.8959	3040.9345	3107.3914	3112.0857	3122.5285	3125.8187	3137.0881	3138.8911	3210.5204	3219.3599	3232.9702
CC1(C)N=COC11CC1	CC1(C)N=COC21CC2	
InChI=1S/C7H11NO/c1-6(2)7(3-4-7)9-5-8-6/h5H,3-4H2,1-2H3	InChI=1S/C7H11NO/c1-6(2)7(3-4-7)9-5-8-6/h5H,3-4H2,1-2H3
