19
gdb 87684	2.78193	1.18028	1.00554	2.1707	78.01	-0.2307	-0.0273	0.2034	1256.5283	0.157088	-423.020627	-423.011141	-423.010197	-423.055433	34.431	
C	 0.1159095968	 1.4827617288	-0.4060684778	-0.407002
C	 0.1772450954	-0.0115212079	-0.1894993508	-0.045631
C	 1.4849921214	-0.7224263711	-0.0565198299	-0.338883
C	 0.5937144707	-0.5619094449	 1.1626405917	 0.21209
C	 0.8689895748	 0.1599576337	 2.4971462696	-0.355335
C	 0.3532706302	-1.098857054	 3.2603465286	 0.034661
O	-0.6650673188	-0.8609271692	 4.1999245651	-0.433105
C	-0.0826761565	-1.6782185865	 1.892752641	 0.311138
O	-0.7818974187	-2.6046344954	 1.5803516937	-0.329824
H	 0.9407926972	 1.9921090332	 0.1019238467	 0.120335
H	 0.1817084695	 1.722924029	-1.4726628464	 0.126084
H	-0.8216885973	 1.9018370792	-0.0260203811	 0.127136
H	-0.6217024108	-0.5823999954	-0.657055898	 0.109255
H	 1.5875616651	-1.7222607239	-0.4651235229	 0.130917
H	 2.3931174376	-0.1268107831	-0.0664783268	 0.120218
H	 1.9038448147	 0.4398206302	 2.7017266772	 0.108271
H	 0.2148085046	 1.0175969799	 2.6714608983	 0.123014
H	 1.1823801165	-1.6850338041	 3.6889777832	 0.090365
H	-1.2168646326	-1.6514394485	 4.2273665087	 0.296298
44.4442	107.9276	150.7102	159.9943	187.3472	240.6327	268.7207	328.5656	372.4997	430.8924	528.8936	538.8386	720.4196	731.1703	779.7295	830.6129	879.8681	911.9444	938.2639	953.0632	1003.4108	1056.0449	1066.6193	1091.2628	1119.0577	1130.2275	1159.5083	1188.8942	1194.9478	1221.8411	1248.8581	1312.4172	1334.7717	1386.4101	1408.7925	1426.0245	1480.2216	1481.2245	1490.6728	1502.4166	1869.0883	2970.7981	3032.3796	3070.1668	3096.4727	3103.1825	3123.9015	3127.0192	3141.6676	3214.4546	3796.1498
CC1CC11CC(O)C1=O	C[C@H]1C[C@]21C[C@@H](O)C2=O	
InChI=1S/C7H10O2/c1-4-2-7(4)3-5(8)6(7)9/h4-5,8H,2-3H2,1H3	InChI=1S/C7H10O2/c1-4-2-7(4)3-5(8)6(7)9/h4-5,8H,2-3H2,1H3/t4-,5+,7+/m0/s1
