15
gdb 19273	3.29094	1.94409	1.38808	3.1268	62.28	-0.2242	-0.0261	0.1981	890.4656	0.11771	-399.742623	-399.735042	-399.734098	-399.774923	27.091	
C	 0.0353738577	 1.3077952322	 0.2145306315	-0.245374
O	-0.0418272756	 0.0244986397	-0.3833944892	-0.241559
C	-1.2464862362	-0.6204001116	-0.1378555162	 0.055672
C	-1.3992431385	-2.0287191619	-0.7093528751	-0.103549
N	-0.4470436948	-2.8830851613	 0.004123139	-0.313925
C	-1.7881819537	-2.5997282003	 0.6304133553	-0.191243
C	-1.593988421	-1.24398788	 1.2714242931	 0.414953
O	-1.7702455066	-0.7851613719	 2.3612463629	-0.311591
H	 1.0095943024	 1.7226729654	-0.0516781181	 0.130909
H	-0.7544348668	 1.974419076	-0.1658849695	 0.105084
H	-0.0507190225	 1.2523159648	 1.3064487764	 0.138813
H	-2.1136948357	 0.0061027969	-0.419560753	 0.087439
H	-1.7970024311	-2.2950630886	-1.6796258377	 0.112416
H	-0.5184215054	-3.8217619567	-0.3900237382	 0.242539
H	-2.4694466624	-3.4021801927	 0.8804797489	 0.119417
82.2882	116.9549	164.7051	206.3517	255.8813	358.4834	473.6384	538.9253	633.6928	695.8667	788.6694	828.7994	878.8566	894.7688	971.1988	1002.1743	1031.5853	1055.5932	1095.8377	1107.7564	1168.0106	1179.4555	1191.5039	1239.9807	1282.7282	1313.5007	1351.3685	1389.4415	1481.9217	1487.6888	1510.9581	1895.5006	2936.6249	2984.3431	3059.5384	3128.1415	3204.3149	3215.0215	3466.715
COC1C2NC2C1=O	CO[C@H]1[C@H]2N[C@H]2C1=O	
InChI=1S/C5H7NO2/c1-8-5-3-2(6-3)4(5)7/h2-3,5-6H,1H3	InChI=1S/C5H7NO2/c1-8-5-3-2(6-3)4(5)7/h2-3,5-6H,1H3/t2-,3+,5+/m1/s1
