15
gdb 7104	8.37778	0.80877	0.74773	4.8752	62.45	-0.2748	-0.0378	0.237	1414.6223	0.116099	-399.822183	-399.812972	-399.812028	-399.858245	30.397	
O	-0.1973467796	 1.4870856981	 0.012475591	-0.422526
C	 0.0320854973	 0.0876295311	 0.0025486381	-0.078968
C	-1.3360046066	-0.5803822937	 0.0117252785	-0.283933
C	-1.260581169	-2.0933352986	 0.0025296254	 0.372263
O	-0.2236227437	-2.7049992799	-0.0109595808	-0.265277
C	-2.6288472484	-2.8074850373	 0.011716599	-0.455877
C	-2.530682583	-4.2611803817	 0.0032021864	 0.289283
N	-2.4753002657	-5.4141513022	-0.0033145655	-0.292411
H	 0.6557831884	 1.9306847122	 0.0069298673	 0.292143
H	 0.5913230658	-0.2308982647	-0.888351339	 0.109064
H	 0.6079690927	-0.2406998355	 0.8791755928	 0.109053
H	-1.9058232212	-0.2537914034	 0.8919642655	 0.13833
H	-1.9222335638	-0.2440763995	-0.853970019	 0.138344
H	-3.1932884455	-2.4807373682	 0.8938192028	 0.175246
H	-3.2096371177	-2.4716174066	-0.8562470225	 0.175267
18.5971	49.6634	96.3535	107.7104	199.6156	267.3466	320.0178	368.8544	400.7606	433.0649	468.2087	708.9712	745.2609	868.6359	887.1774	940.0211	1025.5885	1053.5232	1077.5486	1103.6976	1194.0325	1241.0487	1254.6989	1306.0632	1318.6527	1357.1195	1433.6612	1449.9176	1471.0896	1523.7007	1826.7934	2376.5863	2999.425	3026.6005	3027.7214	3042.1789	3061.5604	3076.6587	3833.4405
OCCC(=O)CC#N	OCCC(=O)CC#N	
InChI=1S/C5H7NO2/c6-3-1-5(8)2-4-7/h7H,1-2,4H2	InChI=1S/C5H7NO2/c6-3-1-5(8)2-4-7/h7H,1-2,4H2
