23
gdb 53503	4.00973	0.64071	0.61424	1.254	91.55	-0.2392	0.0541	0.2933	1961.4016	0.201872	-388.275537	-388.263532	-388.262587	-388.314498	41.761	
C	-0.0224136947	 1.5337977343	 0.0460520603	-0.497867
C	-0.0043584161	 0.0779685046	 0.0519248537	 0.112092
C	 0.0088454844	-1.1257562698	 0.053697124	 0.042844
C	 0.0111530476	-2.5837290839	 0.0610433357	-0.414811
C	-1.3956695042	-3.2011274616	-0.106016392	 0.14767
O	-2.0062477479	-2.7920597126	-1.3228384474	-0.431195
C	-1.4023855152	-4.7396324226	 0.0579729872	 0.040581
C	-2.8478837192	-5.2489549474	 0.1355275691	-0.400472
C	-0.6321291545	-5.4629550373	-1.0569737483	-0.408087
H	 0.7427213982	 1.9403444184	-0.6248768818	 0.144226
H	-0.9925767433	 1.9169445712	-0.2894613612	 0.14887
H	 0.1657221003	 1.9409298187	 1.0458522375	 0.144388
H	 0.667650757	-2.9552570098	-0.7388048203	 0.116658
H	 0.4464248752	-2.9536304569	 0.998964315	 0.125235
H	-2.0364343591	-2.77783596	 0.6765731242	 0.092019
H	-1.3782725138	-2.9369225144	-2.0381603408	 0.281204
H	-0.9072838965	-4.9580422798	 1.0148538221	 0.068445
H	-3.3921248016	-4.9827529987	-0.7754229024	 0.130409
H	-2.8784463907	-6.3371161089	 0.2508296226	 0.104771
H	-3.379898435	-4.8055966358	 0.9839761335	 0.109173
H	-0.6622274277	-6.5458565319	-0.9027432264	 0.117229
H	-1.083118327	-5.2639254331	-2.0358975262	 0.113472
H	 0.4216073037	-5.1699166826	-1.099956638	 0.113147
22.1503	44.324	67.4819	84.4671	198.571	208.1247	215.8481	236.896	264.3424	273.8556	284.2935	323.7964	384.0905	396.1245	436.4013	530.8738	609.2807	760.3595	829.4689	868.848	921.7335	952.2879	964.7626	1027.3132	1033.7234	1052.8494	1055.173	1107.8915	1153.9972	1171.7137	1188.5855	1204.099	1286.2477	1312.7003	1351.5031	1363.9458	1377.2646	1396.7668	1414.4973	1416.7365	1427.5065	1469.3667	1479.0585	1479.8071	1488.9262	1495.7828	1508.2894	1515.0086	2375.9097	3001.4443	3006.6686	3025.1267	3030.1918	3032.1432	3036.2091	3049.8902	3084.0564	3085.767	3096.9524	3098.8743	3103.4653	3114.5542	3813.1402
CC#CCC(O)C(C)C	CC#CC[C@@H](O)C(C)C	
InChI=1S/C8H14O/c1-4-5-6-8(9)7(2)3/h7-9H,6H2,1-3H3	InChI=1S/C8H14O/c1-4-5-6-8(9)7(2)3/h7-9H,6H2,1-3H3/t8-/m1/s1
