16
gdb 27210	3.47038	1.60845	1.10832	2.7804	81.94	-0.1731	-0.0109	0.1623	1041.3506	0.128211	-396.973335	-396.966233	-396.965289	-397.00465	27.959	
N	 0.0477751873	 1.4204211385	 0.1503820233	-0.59464
C	-0.0430849065	 0.0309987577	 0.0509029038	 0.145391
C	-1.1596438175	-0.7835356999	 0.0351793783	 0.305922
C	-2.5992988122	-0.8845741303	 0.0447060524	-0.226598
C	-2.9586271885	-2.1826637691	 0.0087024939	-0.111319
C	-1.7289112444	-3.0748808367	-0.0279053303	-0.243007
N	-0.6582082584	-2.0829424161	-0.0072451824	-0.035157
C	 0.6886685671	-2.0000193345	-0.0050636885	-0.016036
N	 1.0935520777	-0.738462408	 0.0254222642	-0.327684
H	 0.9783639216	 1.7311955582	-0.0983613595	 0.249259
H	-0.6458357012	 1.9154586411	-0.3940253002	 0.241351
H	-3.2736500136	-0.0402034503	 0.0809220483	 0.110024
H	-3.9626607068	-2.5817583981	 0.0081774774	 0.105824
H	-1.6684309156	-3.7461823088	 0.8383734834	 0.135193
H	-1.6827415545	-3.6962609666	-0.931727809	 0.133524
H	 1.3383808257	-2.8616515971	-0.0292856249	 0.127952
156.5669	182.1886	235.8069	278.3327	335.1852	461.5729	518.7919	629.0946	634.2432	672.4947	684.7132	723.8547	765.874	795.6481	828.7154	873.6689	932.5208	942.7666	994.2142	1044.4243	1069.1376	1157.4187	1186.3299	1228.3922	1253.3555	1276.0396	1343.7254	1363.4245	1408.8284	1445.5779	1481.5617	1515.0193	1604.8596	1631.1346	1662.0888	3015.4603	3042.4394	3225.694	3247.4064	3252.7875	3539.9983	3636.7887
NC1=C2C=CCN2C=N1	Nc1c2C=CCn2cn1	
InChI=1S/C6H7N3/c7-6-5-2-1-3-9(5)4-8-6/h1-2,4H,3,7H2	InChI=1S/C6H7N3/c7-6-5-2-1-3-9(5)4-8-6/h1-2,4H,3,7H2
