18
gdb 88294	3.07078	1.09194	1.03432	1.2059	74.9	-0.2315	-0.0422	0.1893	1243.2911	0.146116	-439.037943	-439.029086	-439.028141	-439.072067	32.18	
C	-0.3393764717	 1.6674699813	 0.226621842	-0.327548
N	-0.2574451137	 0.3216864241	 0.7905995745	-0.086823
C	 0.3850404684	-0.7063975929	 0.0133575685	-0.237095
C	 1.0409051601	-0.2093921224	 1.2706243586	-0.123854
C	 2.3070772005	 0.5713930566	 1.1353027441	 0.368667
O	 2.6286804594	 1.1810784615	 0.1333476957	-0.337705
C	 3.2152403945	 0.6156811132	 2.3360161164	-0.012377
C	 2.6809644646	 0.9153880959	 3.6814061911	-0.181652
O	 3.0812463391	-0.4009602831	 3.3333438244	-0.214764
H	 0.5235038031	 1.9557515192	-0.383785333	 0.146399
H	-1.2441869034	 1.7101725962	-0.3873731944	 0.126082
H	-0.4517991742	 2.387202237	 1.0436326248	 0.118979
H	-0.0837742681	-1.6870510375	 0.0256687871	 0.122756
H	 0.8735976088	-0.4210749183	-0.9167824626	 0.134435
H	 0.9616842899	-0.8012444239	 2.1758895351	 0.115843
H	 4.2341148425	 0.9161526566	 2.0999467657	 0.11944
H	 3.3226264921	 1.4341311635	 4.3912666284	 0.134832
H	 1.610423088	 1.062011903	 3.8149334236	 0.134386
54.4131	95.7533	173.1344	191.1967	234.9825	250.4236	288.4238	380.104	412.3258	493.1474	567.9892	714.3985	743.1667	805.071	864.3304	882.6795	906.2396	953.2237	1017.9448	1030.1127	1089.6907	1092.2367	1125.3315	1140.6262	1152.8697	1166.9847	1170.2364	1201.7269	1219.2588	1262.4773	1324.1951	1384.9305	1409.9845	1444.7714	1486.8147	1495.675	1511.2204	1521.2424	1770.7626	3026.2446	3091.3201	3095.6058	3099.1199	3105.4529	3143.3251	3172.5183	3184.0657	3189.8439
CN1CC1C(=O)C1CO1	CN1C[C@H]1C(=O)[C@H]1CO1	
InChI=1S/C6H9NO2/c1-7-2-4(7)6(8)5-3-9-5/h4-5H,2-3H2,1H3	InChI=1S/C6H9NO2/c1-7-2-4(7)6(8)5-3-9-5/h4-5H,2-3H2,1H3/t4-,5+,7?/m0/s1
