17
gdb 50918	2.47483	1.15263	0.87733	1.7961	74.33	-0.2621	-0.0323	0.2298	1303.7018	0.134072	-417.990258	-417.981042	-417.980098	-418.025272	32.178	
O	 0.4501364421	-0.4247543996	-0.056101103	-0.23511
C	 0.273671419	 0.762950591	-0.072926191	 0.174409
C	 1.388017443	 1.7879927305	-0.2029892683	-0.280786
C	 0.9399584827	 2.9706996997	-1.0773297291	-0.121679
C	 1.9834022006	 4.0163345691	-1.1227816493	 0.263428
N	 2.8020039593	 4.828313426	-1.2092459473	-0.32492
N	 0.5248373062	 2.4552553688	-2.3800439156	-0.071152
C	 0.4526785526	 3.3520167008	-3.5292415049	-0.232987
C	 1.5142435219	 2.3093556978	-3.4470210583	-0.229466
H	-0.7439275834	 1.2008669799	 0.0441734619	 0.080463
H	 1.6381737656	 2.1502092469	 0.8028432202	 0.145491
H	 2.2761149763	 1.3029486628	-0.615166206	 0.145249
H	 0.0514923651	 3.4286991114	-0.6221091381	 0.138548
H	-0.4142275951	 3.2117560764	-4.1672943145	 0.131368
H	 0.7708264687	 4.3837367237	-3.3973266576	 0.141239
H	 2.5272064473	 2.6593201096	-3.2618313909	 0.141573
H	 1.4371147281	 1.3923591351	-4.0221471581	 0.134333
56.1749	98.7546	102.0475	140.5006	157.2292	229.6657	309.2335	357.4549	440.0304	462.2125	595.7101	609.0073	699.4947	793.4725	825.7827	904.5164	917.8563	988.5514	1032.4599	1045.152	1086.6358	1103.9401	1123.8558	1133.6088	1174.7644	1188.5341	1214.669	1270.3976	1321.0066	1344.009	1356.0633	1431.8201	1452.0063	1488.8409	1516.7995	1845.3295	2344.6505	2872.7086	3025.9896	3039.2954	3110.7321	3114.5797	3117.0813	3197.3824	3210.9179
O=CCC(C#N)N1CC1	O=CC[C@@H](C#N)N1CC1	
InChI=1S/C6H8N2O/c7-5-6(1-4-9)8-2-3-8/h4,6H,1-3H2	InChI=1S/C6H8N2O/c7-5-6(1-4-9)8-2-3-8/h4,6H,1-3H2/t6-/m0/s1
