16
gdb 35324	3.69261	1.18846	1.05632	4.4224	76.52	-0.2407	-0.0132	0.2276	1147.7014	0.1241	-400.743328	-400.735558	-400.734614	-400.776109	29.492	
N	 0.0205158116	-1.0502409335	 0.5777099783	-0.320428
C	 0.0158273154	 0.0595282049	 0.2566288534	 0.272195
C	 0.0241983294	 1.476309232	-0.1770855015	-0.083416
O	-0.7485525965	 2.2804109571	 0.7055765565	-0.294329
C	 0.1038538035	 3.2121377885	 1.3599088551	 0.425116
C	-0.5121036549	 4.5144331287	 1.7880706262	-0.327827
C	-0.1307245072	 3.4770610335	 2.824964463	-0.319976
C	 1.4357860004	 3.0613863534	 0.7437831686	-0.149704
C	 1.4168955332	 2.0743334304	-0.1451309963	-0.115063
H	-0.4278294575	 1.5118176507	-1.1789970672	 0.135966
H	 0.0795476531	 5.4197568422	 1.7050578595	 0.121393
H	-1.5669857853	 4.635649435	 1.5691161267	 0.135604
H	-0.934007713	 2.9133107618	 3.2852079644	 0.138921
H	 0.7269654513	 3.6597713959	 3.4632286071	 0.122077
H	 2.2817946294	 3.6808714048	 1.0101345058	 0.126915
H	 2.2290665672	 1.6997919044	-0.7514118395	 0.132557
49.9545	136.3787	205.1592	267.3255	298.061	370.2142	477.3907	502.4712	574.3318	591.9892	741.3652	760.5768	804.1925	845.224	885.6171	895.1921	921.1962	931.1404	950.4068	973.4469	1014.9761	1047.0645	1070.0206	1072.4033	1125.8405	1191.0755	1235.1622	1292.9012	1310.1176	1354.0637	1402.0304	1450.2939	1490.0608	1678.5555	2355.7658	3000.3447	3134.5745	3137.2196	3221.0115	3222.7816	3235.6147	3250.1951
N#CC1OC2(CC2)C=C1	N#C[C@H]1OC2(CC2)C=C1	
InChI=1S/C7H7NO/c8-5-6-1-2-7(9-6)3-4-7/h1-2,6H,3-4H2	InChI=1S/C7H7NO/c8-5-6-1-2-7(9-6)3-4-7/h1-2,6H,3-4H2/t6-/m0/s1
