16
gdb 49541	2.23745	1.87179	1.19632	3.9764	76.78	-0.2347	0.0161	0.2508	1028.8254	0.123216	-400.657618	-400.649776	-400.648832	-400.690032	29.853	
O	 0.1062895052	 0.0502416973	 0.4810096566	-0.319371
C	 0.1017503934	 1.2385509457	 0.2522444426	 0.136385
N	 1.1204051115	 1.9163593387	-0.3703061788	-0.063141
C	 2.5952699597	 1.6975189344	-0.1959992247	-0.039027
C	 2.7884833347	 2.9349441561	-1.1185955396	-0.226901
C	 1.6640408714	 3.293067704	-0.1070443273	-0.048791
C	 2.5803593812	 2.6978672352	 1.0264638871	-0.180738
C	 1.9876367089	 2.3129561338	 2.2855044149	 0.30276
C	 1.5050992901	 2.0226555818	 3.3476445172	-0.408743
H	-0.7806081138	 1.8906459083	 0.4147692495	 0.07077
H	 3.0415425317	 0.7075809254	-0.250168484	 0.123948
H	 3.7277245629	 3.4808479256	-1.0248180372	 0.109538
H	 2.4655986827	 2.8039265065	-2.150072244	 0.122384
H	 1.0259543299	 4.1748477091	-0.061170986	 0.108358
H	 3.5220777305	 3.2357001823	 1.173260731	 0.10855
H	 1.0711189201	 1.7417019557	 4.2756100828	 0.204018
101.9541	138.7831	166.1663	215.3954	283.4425	426.7548	461.7206	494.1984	573.4371	638.9298	660.1348	682.5261	749.9206	769.74	845.8525	885.5312	892.6833	963.2047	1016.8872	1030.7689	1053.3914	1089.8229	1098.1099	1117.3744	1130.208	1187.314	1208.2651	1227.4275	1246.3335	1358.246	1373.821	1420.3822	1500.2609	1790.7318	2237.3924	2925.0323	3061.9408	3091.8027	3132.5737	3161.1815	3174.0954	3501.7598
O=CN1C2CC1C2C#C	O=CN1[C@H]2C[C@@H]1[C@H]2C#C	
InChI=1S/C7H7NO/c1-2-5-6-3-7(5)8(6)4-9/h1,4-7H,3H2	InChI=1S/C7H7NO/c1-2-5-6-3-7(5)8(6)4-9/h1,4-7H,3H2/t5-,6-,7+
