18
gdb 41999	3.2645	1.56017	1.13603	2.4714	72.42	-0.245	0.0202	0.2652	1064.7581	0.150981	-439.105619	-439.098329	-439.097385	-439.137827	27.939	
C	 0.0048319796	 1.3913088204	-0.3038429142	 0.00887
O	 1.3004486143	 1.8946286053	-0.1108167863	-0.255814
C	 2.1034630615	 0.7444189248	 0.1476401693	 0.003109
C	 3.334694351	 1.0366408002	 1.0226877046	-0.240104
C	 3.4826033078	-0.0095395593	 2.1533312318	-0.208367
C	 2.8114686369	-1.3531167764	 1.8093443199	-0.162856
N	 1.3745800487	-1.1840258159	 1.5537040657	-0.297376
C	 1.1254066972	-0.1930625961	 0.8182991493	 0.397248
O	-0.1301368566	 0.2340286304	 0.5264935092	-0.244674
H	-0.7269543985	 2.1411414729	 0.0055408745	 0.133128
H	-0.1648199939	 1.0923437464	-1.3511915723	 0.103532
H	 2.4184700952	 0.289813193	-0.8070826134	 0.099852
H	 4.2275072918	 1.0502872533	 0.3916278278	 0.10876
H	 3.2191794094	 2.0413128409	 1.4377015661	 0.126428
H	 4.5406539294	-0.164351431	 2.3855994356	 0.101266
H	 3.0055518247	 0.3654416758	 3.0650855344	 0.116172
H	 3.3052794021	-1.8207534469	 0.9434530846	 0.099552
H	 2.9259417695	-2.0506727879	 2.6436569434	 0.111273
60.9368	164.7971	199.421	300.4799	385.7552	404.8216	477.3444	530.1681	656.3856	682.4523	744.0866	779.3446	860.4606	881.3244	931.1183	960.142	1015.0148	1021.4721	1082.7122	1095.1546	1115.9434	1139.0402	1156.9282	1192.3925	1221.018	1232.0804	1263.175	1277.2337	1319.232	1350.7835	1354.3708	1369.951	1382.515	1442.5909	1481.8751	1496.788	1508.1097	1540.8113	1792.1619	2954.4353	2972.87	2988.2873	3044.533	3060.811	3079.8214	3086.4751	3105.0759	3110.4833
C1OC2CCCN=C2O1	C1O[C@H]2CCC[N][C]2O1	
InChI=1S/C6H9NO2/c1-2-5-6(7-3-1)9-4-8-5/h5H,1-4H2	InChI=1S/C6H9NO2/c1-2-5-6(7-3-1)9-4-8-5/h5H,1-4H2/t5-/m0/s1
