14
gdb 98938	4.34861	0.85794	0.71982	5.0043	68.62	-0.2711	-0.0543	0.2167	1482.7932	0.098174	-473.84499	-473.835416	-473.834471	-473.880739	32.038	
C	-0.121367656	 1.2566057364	 0.2072211891	-0.240606
O	 0.0473491911	-0.1413862368	-0.0604649748	-0.273373
C	 0.6937490611	-0.4168678801	-1.2169113288	 0.546145
O	 1.1126610302	 0.3935996526	-1.9927530909	-0.352954
N	 0.7742602684	-1.8056680652	-1.325161485	-0.435639
C	 1.3600066784	-2.5270953696	-2.3647449531	 0.317751
O	 1.889693642	-2.0495944992	-3.3350934524	-0.295777
C	 1.2567590136	-3.9638266546	-2.140105678	 0.186846
C	 1.1878484265	-5.1538742701	-1.9841965499	-0.378975
H	 0.8486428224	 1.7541267606	 0.2804252505	 0.148017
H	-0.7043917644	 1.732400049	-0.5849076194	 0.148103
H	-0.6516718395	 1.3110443308	 1.1577198974	 0.137569
H	 0.3628796612	-2.3326338642	-0.5692770111	 0.274582
H	 1.1353116049	-6.2087002695	-1.8617510936	 0.218311
54.0319	73.4103	91.024	108.2267	174.3446	200.5479	265.5598	303.0348	398.468	436.8061	611.7055	617.911	668.1119	689.9422	735.1171	753.2292	787.6475	908.8612	986.8025	1077.8716	1173.5946	1182.7358	1214.8353	1252.526	1468.443	1480.6539	1496.0146	1516.5658	1794.0742	1874.2347	2226.1189	3055.1654	3131.796	3163.2231	3492.9202	3628.0687
COC(=O)NC(=O)C#C	COC(=O)NC(=O)C#C	
InChI=1S/C5H5NO3/c1-3-4(7)6-5(8)9-2/h1H,2H3,(H,6,7,8)	InChI=1S/C5H5NO3/c1-3-4(7)6-5(8)9-2/h1H,2H3,(H,6,7,8)
