19
gdb 41555	3.23024	1.83466	1.66858	1.921	76.51	-0.2391	0.0824	0.3215	890.257	0.16315	-385.842925	-385.836758	-385.835813	-385.873144	26.646	
C	 0.0039011547	 1.5799405871	-0.0186779947	-0.103524
O	 1.4257602103	 1.5814348011	-0.2734696951	-0.302793
C	 1.413628165	 0.1445146439	-0.5154348527	 0.123238
C	 2.2786943515	-0.7560360192	 0.3424222723	-0.066827
C	 2.2974364786	-0.6291296073	 1.858606314	-0.054026
C	 1.1065071042	 0.1669069817	 2.3804978854	-0.240818
C	 0.184584123	-0.6494026512	 1.4067811108	-0.074295
C	 1.3833449342	-1.6343570955	 1.1890743709	-0.086966
C	-0.0228633357	 0.0401235415	 0.0459737736	-0.056646
H	-0.261722152	 2.1384322309	 0.8856731098	 0.100601
H	-0.5550813954	 1.9925603397	-0.8691796057	 0.095465
H	 1.5526756913	-0.0630191779	-1.5837235348	 0.068484
H	 3.1719774613	-1.1964282789	-0.0863590728	 0.082238
H	 3.2214959088	-0.8125405692	 2.3948834492	 0.0823
H	 0.8884511964	-0.0996617593	 3.4183712765	 0.096671
H	 1.1364239568	 1.2543751856	 2.2897436231	 0.112016
H	-0.7276293934	-1.0449060232	 1.8528954913	 0.068698
H	 1.3805311734	-2.7160727226	 1.2021301721	 0.084998
H	-0.7739126931	-0.4670312272	-0.5638839733	 0.071189
178.1964	255.3798	328.3892	447.2032	520.9874	600.3459	681.0189	709.5257	783.1232	798.9657	813.1442	850.3454	870.7849	897.9942	928.1231	944.6458	964.9114	976.3951	995.1207	1009.7624	1030.9647	1055.8957	1063.9989	1080.6802	1100.236	1115.2816	1150.0143	1170.1473	1192.4884	1226.3236	1231.0112	1250.7181	1286.3506	1293.5896	1323.625	1341.6558	1346.2884	1364.038	1401.2102	1496.6333	1525.164	3008.3924	3024.4254	3058.8418	3061.9515	3081.8496	3110.6861	3117.4355	3169.0815	3178.1121	3203.0096
C1OC2C3C4CC(C34)C12	C1O[C@H]2[C@H]3[C@H]4C[C@H]([C@@H]34)[C@@H]12	
InChI=1S/C8H10O/c1-3-5-2-9-8(5)7-4(1)6(3)7/h3-8H,1-2H2	InChI=1S/C8H10O/c1-3-5-2-9-8(5)7-4(1)6(3)7/h3-8H,1-2H2/t3-,4-,5+,6+,7-,8+/m0/s1
