18
gdb 63447	1.88456	1.76953	1.06996	1.6333	86.55	-0.2366	0.0131	0.2496	1172.8686	0.14321	-364.723365	-364.713387	-364.712443	-364.757394	37.691	
C	-0.0574234218	 1.5278460971	-0.0219856737	-0.442221
C	-0.0485376921	 0.0138622033	 0.013356068	 0.286379
C	-1.2717345667	-0.6392407577	-0.5952751861	-0.470532
N	 1.2659443101	-0.5908863151	-0.2021750972	-0.382669
C	 0.6647944593	-0.6839259276	 1.169405798	-0.093209
C	 1.3246136257	 0.085513179	 2.1984692199	 0.323279
C	 1.8488860287	 0.7180623605	 3.075345961	-0.454961
C	 0.1846088615	-1.9692482723	 1.6159734885	 0.289304
C	-0.1917573117	-3.0463574133	 1.9965681381	-0.460675
H	 0.8568466262	 1.9368362525	 0.4084236202	 0.143741
H	-0.13519989	 1.8715142969	-1.0593162956	 0.119838
H	-0.9148398355	 1.9230363644	 0.5323108785	 0.121319
H	-1.3213356216	-0.4025303335	-1.6642314127	 0.124582
H	-1.2557771087	-1.7246113752	-0.4779656003	 0.131471
H	-2.1873141039	-0.2611462468	-0.1290185042	 0.130277
H	 1.1694397466	-1.5030058006	-0.646087991	 0.237413
H	 2.3219770585	 1.2743185814	 3.8462663448	 0.19696
H	-0.5256033846	-3.994266993	 2.3397706737	 0.199705
116.6196	135.302	154.8574	160.6398	181.801	224.1656	314.1398	350.3871	382.4157	386.7457	471.6861	524.8019	571.3305	586.1564	598.9967	609.5029	619.4658	652.0836	658.6562	730.7797	829.9891	961.448	962.4116	990.6259	1058.5916	1080.7725	1116.632	1150.4802	1268.2785	1330.8871	1368.3431	1411.5001	1421.7453	1477.9015	1483.2177	1498.4005	1504.9275	2232.2702	2240.8617	3034.146	3040.5558	3095.7853	3102.1347	3131.6936	3150.2775	3482.9724	3501.4164	3503.05
CC1(C)NC1(C#C)C#C	CC1(C)NC1(C#C)C#C	
InChI=1S/C8H9N/c1-5-8(6-2)7(3,4)9-8/h1-2,9H,3-4H3	InChI=1S/C8H9N/c1-5-8(6-2)7(3,4)9-8/h1-2,9H,3-4H3
