17
gdb 54466	3.51995	1.36814	1.12661	3.467	72.71	-0.2296	0.014	0.2436	1077.8404	0.136366	-417.95109	-417.943225	-417.94228	-417.983505	30.835	
N	 0.0672079604	 1.1748409946	-0.5022405024	-0.542893
C	-0.0325194256	 0.006578427	 0.2090361122	 0.311924
O	 0.8955658996	-0.4427121213	 0.8587720227	-0.375341
C	-1.3352211037	-0.6973396988	 0.0981783525	 0.21562
C	-1.763799278	-1.6608193768	 1.1862378769	-0.34659
C	-1.5182034074	-2.1901332393	-0.1794167695	-0.025205
N	-2.5542284845	-1.9420896963	-1.2563542372	-0.138532
C	-3.7060842563	-1.1919322383	-0.7118891607	-0.253852
C	-2.4404590083	-0.4723869177	-0.95746438	-0.117417
H	 0.8951786042	 1.7264670025	-0.3406016067	 0.261062
H	-0.754937104	 1.6589321315	-0.8207643325	 0.257733
H	-0.9452766665	-1.8674697235	 1.8678647594	 0.155138
H	-2.7394980641	-1.5997317516	 1.6530779028	 0.118042
H	-0.7497442874	-2.9179790971	-0.4030981249	 0.127415
H	-4.486459731	-1.071658539	-1.4580799101	 0.129144
H	-4.0805977993	-1.3813196987	 0.2868560132	 0.124703
H	-2.320190808	 0.2297656228	-1.7774557958	 0.099049
69.541	151.5901	191.2535	312.2222	331.552	398.2007	453.9356	473.5878	533.5055	574.4628	642.9001	687.9787	733.2151	762.2539	797.1866	846.8662	897.2794	938.9471	975.6932	992.4021	1030.1374	1057.1566	1075.3151	1089.5539	1094.9161	1111.8775	1135.6147	1181.2257	1231.6831	1241.6192	1318.552	1344.663	1416.0698	1469.2011	1517.5097	1618.358	1776.8638	3127.6824	3141.4984	3148.054	3207.8212	3215.8549	3228.1381	3591.932	3721.8492
NC(=O)C12CC1N1CC21	NC(=O)[C@]12C[C@H]1N1C[C@@H]21	
InChI=1S/C6H8N2O/c7-5(9)6-1-3(6)8-2-4(6)8/h3-4H,1-2H2,(H2,7,9)	InChI=1S/C6H8N2O/c7-5(9)6-1-3(6)8-2-4(6)8/h3-4H,1-2H2,(H2,7,9)/t3-,4+,6-,8?/m1/s1
