18
gdb 74153	2.75171	1.47343	1.04583	4.889	81.34	-0.2291	-0.0212	0.2078	1149.6447	0.147525	-401.99247	-401.983891	-401.982947	-402.025958	32.421	
C	-0.0247716032	 1.4815471698	 0.0606068147	-0.506626
C	-0.0022240704	-0.0102547096	-0.0020482748	 0.296481
C	-0.0154813149	-0.7953312309	-1.0903946504	-0.349157
C	 0.0147893065	-2.2284175863	-0.6961915956	 0.400595
O	-0.0186884389	-3.2222096921	-1.3930292583	-0.393769
N	 0.0908750444	-2.2050028636	 0.6859026419	-0.414682
C	 0.049332823	-0.8776282009	 1.2104683632	 0.314831
C	 0.8103521484	-0.5008240867	 2.4665236177	-0.312918
C	-0.6946869245	-0.5554390562	 2.4923314409	-0.315646
H	 0.8710636511	 1.8768539361	 0.5545214536	 0.137884
H	-0.0731568646	 1.9111021977	-0.9422833779	 0.14022
H	-0.8888005098	 1.8484823727	 0.627682205	 0.13661
H	-0.0506287889	-0.4828207061	-2.1245076324	 0.113551
H	 0.019613036	-3.042990378	 1.2375214589	 0.248809
H	 1.3610690882	-1.2955819135	 2.9574774604	 0.126967
H	 1.2955594667	 0.4683885101	 2.5011824415	 0.125186
H	-1.2488091767	 0.375388927	 2.5432783173	 0.126038
H	-1.1696830224	-1.3861084495	 3.0030550643	 0.125626
47.8956	132.6455	192.0795	221.3182	241.6281	311.0922	330.1766	437.9032	517.9652	527.8478	587.7854	599.3871	730.1263	740.4244	774.0459	852.8475	895.1538	928.3428	935.9371	957.7048	997.1877	1010.0691	1061.3389	1062.6483	1073.2604	1137.6634	1192.1251	1207.6493	1262.3285	1318.913	1369.6754	1416.8234	1429.2349	1458.2005	1483.3787	1485.0445	1495.7346	1673.3669	1816.6046	3025.6709	3073.7468	3124.8462	3132.801	3135.9254	3214.105	3229.5571	3237.4488	3668.3367
CC1=CC(=O)NC11CC1	CC1=CC(=O)NC21CC2	
InChI=1S/C7H9NO/c1-5-4-6(9)8-7(5)2-3-7/h4H,2-3H2,1H3,(H,8,9)	InChI=1S/C7H9NO/c1-5-4-6(9)8-7(5)2-3-7/h4H,2-3H2,1H3,(H,8,9)
