23
gdb 90718	3.94148	1.1079	1.01177	0.1342	90.04	-0.2534	0.088	0.3414	1300.6778	0.206315	-351.120904	-351.112302	-351.111358	-351.154429	34.336	
C	-0.5662785873	 1.1055980868	-0.317543853	-0.408734
C	 0.2649489133	-0.1541885038	-0.1125444344	 0.051089
C	 1.7082639247	-0.1184012675	-0.7104317896	-0.245516
C	 2.3028137216	-0.4188067557	 0.6867689317	-0.112155
C	 0.8610099327	-0.3505184304	 1.3156120045	-0.016514
C	 0.9827656415	-1.8244736244	 1.7824980698	-0.329548
C	 2.3514722233	-1.90391885	 1.0816501027	 0.399307
C	 2.899435684	-3.0391042447	 0.2653449172	-0.321804
C	 3.5546235524	-2.6543295194	 1.5719037092	-0.332014
H	-0.0239345461	 1.9950608355	 0.0242707255	 0.110988
H	-0.8092293034	 1.2524927477	-1.3761153182	 0.111387
H	-1.5086709173	 1.0566127054	 0.2398635101	 0.111064
H	-0.3109709839	-1.0271049333	-0.4399938871	 0.063751
H	 1.9354854903	-0.8450228231	-1.4958762878	 0.092192
H	 1.9750087293	 0.8781688909	-1.076605855	 0.090836
H	 3.1395069672	 0.1965514023	 1.0245053687	 0.058203
H	 0.5692784562	 0.3907115234	 2.0618824074	 0.056843
H	 1.0521800289	-1.9322662589	 2.8697892234	 0.095639
H	 0.2026267476	-2.502131769	 1.4179883397	 0.090917
H	 2.3317690176	-3.9639106266	 0.2295233747	 0.108319
H	 3.4221571203	-2.8033227685	-0.6568155987	 0.109711
H	 4.5190075871	-2.156875425	 1.5317713873	 0.108515
H	 3.4308227099	-3.3171801616	 2.4231924718	 0.107522
33.2402	154.0466	218.5577	253.6063	264.0346	303.567	343.607	371.1666	473.3345	551.9451	678.213	765.9581	774.9587	804.8997	843.6097	863.1486	870.9651	889.7852	901.7689	938.7828	973.8939	983.3261	991.4691	1021.4995	1048.25	1063.4426	1073.5669	1100.1579	1123.1039	1138.5251	1157.7273	1187.8326	1208.8865	1217.5625	1248.9715	1258.4762	1266.6363	1270.6754	1287.9238	1300.6999	1359.3148	1383.0573	1406.7474	1463.7741	1476.9128	1482.1637	1494.0903	1497.2543	1500.5705	3018.9831	3029.3564	3033.1006	3042.0022	3073.9907	3078.2116	3085.8009	3087.9774	3092.0519	3096.8644	3115.9364	3120.5906	3193.0081	3208.4462
CC1CC2C1CC21CC1	C[C@H]1C[C@H]2[C@@H]1CC12CC1	
InChI=1S/C9H14/c1-6-4-8-7(6)5-9(8)2-3-9/h6-8H,2-5H2,1H3	InChI=1S/C9H14/c1-6-4-8-7(6)5-9(8)2-3-9/h6-8H,2-5H2,1H3/t6-,7+,8-/m0/s1
