21
gdb 84892	1.95029	1.73172	1.22958	0.5663	88.79	-0.2376	0.026	0.2636	1143.4923	0.182902	-349.944155	-349.935249	-349.934304	-349.977268	34.984	
C	-0.0845986887	 1.5639966116	-0.047512898	-0.411379
C	 0.0483934063	 0.035997118	-0.0156827299	-0.017095
C	 0.6636265719	-0.5006638258	-1.2880753473	-0.036804
C	 1.4997528881	-1.5363633131	-1.3408916075	-0.05852
C	 1.9296427273	-2.3207364404	-0.1298749173	-0.24624
C	 1.0619217517	-2.0027459745	 1.094192881	-0.222451
C	 0.816106606	-0.4813585845	 1.2350981809	-0.186766
C	 2.0731812559	 0.2292114908	 1.468162382	 0.371618
C	 3.1157504017	 0.7918730076	 1.6763401969	-0.506038
H	 0.8947203386	 2.0424345848	-0.1345034287	 0.134661
H	-0.6964526728	 1.8775867001	-0.8996478288	 0.109231
H	-0.5632549111	 1.9362627275	 0.8644919028	 0.109824
H	-0.9698530094	-0.3747961728	 0.0694294419	 0.083823
H	 0.388102857	 0.0160157551	-2.2054286266	 0.07919
H	 1.9126935758	-1.8441662725	-2.2988863195	 0.082578
H	 1.8880443287	-3.3955664527	-0.3461228019	 0.100303
H	 2.9840372907	-2.1019917481	 0.0894957271	 0.121185
H	 0.0853285569	-2.4902258975	 0.9893595563	 0.099079
H	 1.5244813347	-2.3935885369	 2.0053218361	 0.102148
H	 0.1749513041	-0.313297496	 2.1107087992	 0.097898
H	 4.0314017466	 1.2966792295	 1.8607843912	 0.193752
91.6404	141.6349	158.8365	236.8658	282.7255	291.5863	325.4108	406.236	434.3627	479.9738	601.4383	620.3306	628.6265	633.7707	678.2041	755.8697	790.3659	860.0729	875.7964	942.9331	961.2963	989.7932	1003.4943	1033.9172	1065.0322	1083.2131	1122.834	1126.5579	1187.1864	1216.2616	1247.6484	1297.3193	1304.5506	1333.6533	1352.6733	1375.023	1389.2114	1405.698	1424.3754	1472.2922	1489.8943	1494.9063	1500.5282	1723.251	2227.9479	2974.8703	3012.2704	3013.6486	3033.0574	3034.5154	3048.4259	3086.3748	3098.8785	3118.5373	3134.882	3160.0751	3503.9702
CC1C=CCCC1C#C	C[C@H]1C=CCC[C@H]1C#C	
InChI=1S/C9H12/c1-3-9-7-5-4-6-8(9)2/h1,4,6,8-9H,5,7H2,2H3	InChI=1S/C9H12/c1-3-9-7-5-4-6-8(9)2/h1,4,6,8-9H,5,7H2,2H3/t8-,9+/m0/s1
