19
gdb 77944	3.13014	1.36239	1.08945	1.2161	76.47	-0.2531	0.0725	0.3256	1142.2956	0.158373	-422.939286	-422.930979	-422.930035	-422.971605	32.7	
C	-0.1328224627	 1.6257612699	-0.0135371713	-0.447956
C	-0.0374649698	 0.1065004508	 0.0023384535	 0.06381
C	 1.1000031258	-0.6944271692	-0.7348535444	-0.213702
C	 2.0725027572	-0.3834505582	 0.4397159612	 0.152034
O	 2.6490076189	 0.8965142717	 0.4741709034	-0.438713
C	 0.694373391	-0.6942700433	 1.1406855278	-0.241419
C	 0.6489223675	-1.8661606688	 0.152179489	 0.549602
C	-0.1696888045	-3.051373631	-0.0264548574	-0.315986
O	 1.2473811077	-3.1308603468	 0.2825612861	-0.308446
H	 0.8159883465	 2.1123783688	 0.1977413	 0.146862
H	-0.4879292575	 1.9645365673	-0.9937020354	 0.110841
H	-0.8712691891	 1.9562070215	 0.726452152	 0.107638
H	-1.0284881123	-0.311742223	-0.21302591	 0.066814
H	 1.3314758968	-0.7109359261	-1.799812547	 0.079187
H	 2.8358091714	-1.1529882089	 0.6057382758	 0.090656
H	 3.1979022905	 0.951897136	 1.2622931094	 0.286224
H	 0.4661801336	-0.7111006747	 2.2070179476	 0.072771
H	-0.8313392306	-3.3885092197	 0.7699914023	 0.119434
H	-0.4386564206	-3.3891398462	-1.0261041027	 0.120348
168.0134	176.6121	219.7875	243.0603	253.7067	276.3736	333.1901	396.1817	453.743	479.0217	578.5121	708.9629	717.2608	785.4315	822.6606	868.9872	888.926	893.8695	992.5258	1020.717	1059.9198	1072.453	1099.4142	1108.6905	1115.0827	1118.295	1122.664	1140.7951	1176.1715	1192.5334	1212.2621	1235.8801	1266.0339	1321.0694	1402.0851	1423.1037	1458.0608	1480.7342	1496.2627	1512.5199	1562.921	3020.7999	3033.2555	3034.7583	3080.744	3085.2454	3110.5072	3120.637	3170.6404	3182.6547	3824.0452
CC1C2C(O)C1C21CO1	C[C@H]1[C@H]2[C@@H](O)[C@@H]1[C@]12CO1	
InChI=1S/C7H10O2/c1-3-4-6(8)5(3)7(4)2-9-7/h3-6,8H,2H2,1H3	InChI=1S/C7H10O2/c1-3-4-6(8)5(3)7(4)2-9-7/h3-6,8H,2H2,1H3/t3-,4-,5+,6+,7+
