15
gdb 48803	2.21493	1.55825	1.14497	5.3016	72.16	-0.2512	-0.0415	0.2097	1074.6073	0.112438	-416.77807	-416.770128	-416.769184	-416.810958	29.104	
O	-0.0680090245	-0.0161518028	 0.0858198659	-0.269754
C	-0.0157145449	 1.1917966512	 0.0493101829	 0.058792
C	 1.2339525419	 1.9524488465	 0.039716305	 0.220238
C	 1.3565075926	 3.4454659761	 0.2924804902	-0.329222
C	 1.7692837933	 2.9492148617	-1.0364873944	-0.040269
N	 3.1177796439	 2.3751161617	-0.9628556415	-0.309857
C	 2.6234033197	 1.299634778	-0.0359227844	-0.207627
C	 3.3892039906	 1.1720319228	 1.2052260754	 0.315058
N	 3.9837613977	 1.0788918214	 2.191336904	-0.323236
H	-0.9364345529	 1.8151175441	-0.0055747847	 0.076978
H	 0.4005361684	 3.9593333626	 0.3288164065	 0.13697
H	 2.1051986433	 3.7994563511	 0.9949009058	 0.152808
H	 1.3090567035	 3.2410999265	-1.9723546413	 0.126104
H	 3.4169745551	 1.9746653792	-1.8449841706	 0.243392
H	 2.5413327522	 0.3202256299	-0.5148998988	 0.149625
85.3638	126.8838	148.4942	217.8354	267.6381	345.595	444.5934	485.9272	547.4147	562.3792	682.6644	739.452	776.3545	824.159	898.261	941.3836	955.3534	996.4782	1040.9455	1051.6271	1059.9188	1095.7113	1116.9345	1174.2264	1230.7982	1289.6474	1360.5964	1378.8757	1396.44	1435.6573	1478.6519	1791.3588	2362.635	2878.8799	3083.5919	3122.7815	3197.6604	3216.5459	3544.8606
O=CC12CC1NC2C#N	O=C[C@]12C[C@H]1N[C@H]2C#N	
InChI=1S/C6H6N2O/c7-2-5-6(3-9)1-4(6)8-5/h3-5,8H,1H2	InChI=1S/C6H6N2O/c7-2-5-6(3-9)1-4(6)8-5/h3-5,8H,1H2/t4-,5+,6-/m1/s1
