21
gdb 108209	3.04406	1.35385	1.24679	2.6445	77.04	-0.2337	0.0698	0.3034	1102.9221	0.184944	-424.235056	-424.227	-424.226056	-424.26744	32.08	
O	-0.1031692782	 1.4199584845	 0.0484948979	-0.427639
C	-0.0354794348	-0.0003044751	-0.0151128754	-0.183377
C	-1.4491794654	-0.5362729668	-0.0088828935	 0.30896
C	-2.3248468529	-0.1420350541	-1.2282317874	-0.240286
C	-3.5221055557	-1.1418657951	-1.1382712764	-0.222685
C	-3.148603638	-1.9704668799	 0.1060241953	 0.105104
C	-1.621116126	-2.0736422167	 0.000661907	-0.283125
O	-3.3374993116	-1.1476434637	 1.2661168818	-0.283725
C	-2.261015544	-0.1910721473	 1.2574200884	-0.090203
H	 0.7939510803	 1.7658244428	 0.0506947141	 0.289221
H	 0.4829343586	-0.332029513	-0.9294927079	 0.084513
H	 0.5195153073	-0.4080793454	 0.8457861674	 0.084257
H	-2.6330223077	 0.9043008218	-1.1811957496	 0.112432
H	-1.7608247287	-0.2746405486	-2.1574173743	 0.090058
H	-4.483871945	-0.6459787617	-0.9896072329	 0.106697
H	-3.6001218497	-1.7698834468	-2.0315431797	 0.09263
H	-3.7125956184	-2.8930767597	 0.2487143283	 0.069099
H	-1.2739142159	-2.5541812195	-0.9188126982	 0.093989
H	-1.1691573063	-2.5628154271	 0.8679387124	 0.099062
H	-1.6625539839	-0.3058267551	 2.1722096217	 0.087621
H	-2.6619647842	 0.8274830165	 1.2343499711	 0.107397
102.217	166.0584	178.8934	258.4975	326.6228	332.0402	408.6601	434.8726	471.3991	582.2166	636.494	781.598	789.9435	822.2527	876.3155	914.3194	930.3341	936.132	957.7172	973.7931	1008.2559	1025.4164	1041.6982	1062.6075	1089.2626	1136.7515	1167.4583	1176.8616	1204.3477	1216.2354	1231.9649	1260.8189	1267.5811	1289.6715	1306.8169	1319.0853	1332.8553	1348.8416	1392.436	1462.4861	1480.0876	1488.358	1504.8586	1515.8436	1529.9172	2958.2889	2987.1378	3001.0952	3044.5667	3053.5299	3059.242	3064.2905	3098.9502	3110.4814	3113.2894	3117.5953	3831.7119
OCC12CCC(C1)OC2	OC[C@@]12CC[C@@H](C1)OC2	
InChI=1S/C7H12O2/c8-4-7-2-1-6(3-7)9-5-7/h6,8H,1-5H2	InChI=1S/C7H12O2/c8-4-7-2-1-6(3-7)9-5-7/h6,8H,1-5H2/t6-,7+/m0/s1
