15
gdb 12681	2.77363	2.3838	1.5341	3.8591	56.72	-0.2711	0.002	0.2731	821.0405	0.120779	-436.972447	-436.965371	-436.964426	-437.00369	26.794	
N	 0.0713552306	 1.3569616856	 0.3638575514	-0.532506
C	-0.0439041797	 0.0065890244	-0.1588293337	-0.169129
C	-1.4631048979	-0.5838343249	-0.0244181992	 0.114746
O	-2.4159853032	 0.4374122856	-0.1651383737	-0.439877
C	-1.5132418999	-1.5127234592	-1.2432135203	-0.096494
O	-0.657579358	-0.9115076394	-2.2407437788	-0.218464
C	 0.1461324293	 0.0115458328	-1.6796174856	 0.465229
O	 0.8859559466	 0.7220395924	-2.300010602	-0.353577
H	 0.496754749	 1.3716753194	 1.2828157322	 0.244331
H	 0.654747092	 1.9016055393	-0.2665303441	 0.259143
H	 0.6941790337	-0.698702878	 0.2532111466	 0.103519
H	-1.6077961824	-1.1467720734	 0.9088570199	 0.072941
H	-1.9576664814	 1.2459599969	 0.126846416	 0.29213
H	-1.1371425963	-2.5161585773	-1.0159392524	 0.114151
H	-2.5186758624	-1.5785693541	-1.6606830063	 0.143857
106.4557	192.4047	273.1408	290.7179	303.7853	380.5163	513.6916	554.7714	621.5812	635.3779	733.1861	774.8949	831.6545	891.0446	922.0152	946.7031	1000.063	1058.6235	1119.6442	1149.0438	1188.5101	1191.0283	1231.4076	1266.023	1323.136	1375.7414	1383.3884	1403.3061	1442.3741	1504.6174	1649.8382	1875.2284	2985.4895	3001.9994	3052.982	3134.435	3497.1704	3592.8409	3617.1203
NC1C(O)COC1=O	N[C@H]1[C@@H](O)COC1=O	
InChI=1S/C4H7NO3/c5-3-2(6)1-8-4(3)7/h2-3,6H,1,5H2	InChI=1S/C4H7NO3/c5-3-2(6)1-8-4(3)7/h2-3,6H,1,5H2/t2-,3-/m0/s1
