21
gdb 109086	3.59696	1.06691	0.93818	1.5302	84.78	-0.2231	0.0338	0.257	1321.9447	0.183793	-387.089342	-387.080801	-387.079857	-387.122793	32.756	
O	 0.0434226195	 1.4381406526	 0.1701063844	-0.413957
C	 0.0205205296	 0.0287965787	 0.0320330131	-0.174561
C	-1.3899216899	-0.4620582332	-0.0148726289	 0.310345
C	-2.4990934501	 0.2791587933	 0.0472867232	-0.169592
C	-3.7574019743	-0.540738494	-0.0231431915	-0.05578
C	-4.5042446215	-0.5253574549	-1.3923183368	-0.219263
C	-3.7106237647	-1.7943040549	-1.8119133569	-0.21993
C	-3.2138281516	-1.974105449	-0.3453610314	 0.001572
C	-1.6914905252	-1.9457106086	-0.1191950824	-0.330889
H	 0.9617660945	 1.7209751972	 0.1897216102	 0.288298
H	 0.5450521064	-0.2931652178	-0.8860379932	 0.092243
H	 0.5462310789	-0.4657940514	 0.8693958884	 0.091812
H	-2.4994619127	 1.358797396	 0.1386330772	 0.101805
H	-4.3945614977	-0.4056730911	 0.8579006835	 0.064675
H	-5.5752808191	-0.7170051245	-1.2809520825	 0.093963
H	-4.3746022955	 0.3664727966	-2.0111279778	 0.09469
H	-4.2981160031	-2.6164084222	-2.2279789563	 0.093801
H	-2.8912308577	-1.5765414353	-2.5029340494	 0.097782
H	-3.7117741045	-2.7941688907	 0.1752032881	 0.060454
H	-1.146130663	-2.4286911981	-0.9424797208	 0.095402
H	-1.3905579082	-2.4745555087	 0.7969607596	 0.097129
74.6666	120.6979	139.5043	195.174	231.1199	341.5357	362.123	431.9917	459.3356	636.1264	649.4969	719.1732	769.6362	837.2508	862.9153	881.7762	894.5107	921.48	953.624	962.4217	1011.6778	1027.801	1058.7553	1065.4281	1085.8374	1118.3386	1148.4494	1191.7969	1209.032	1216.346	1230.692	1252.4292	1253.8687	1266.5705	1275.3656	1287.1479	1316.1984	1332.1908	1355.3862	1466.0659	1476.0951	1485.9342	1494.7227	1507.2454	1716.0293	2932.6002	2943.2355	2995.8859	3021.8403	3035.5034	3051.3485	3057.9372	3084.9825	3096.9962	3114.653	3208.0196	3838.6254
OCC1=CC2CCC2C1	OCC1=C[C@H]2CC[C@H]2C1	
InChI=1S/C8H12O/c9-5-6-3-7-1-2-8(7)4-6/h3,7-9H,1-2,4-5H2	InChI=1S/C8H12O/c9-5-6-3-7-1-2-8(7)4-6/h3,7-9H,1-2,4-5H2/t7-,8+/m1/s1
