21
gdb 92597	2.16624	1.59264	1.43953	1.0422	76.81	-0.2331	0.073	0.306	1070.8885	0.182979	-424.224763	-424.216241	-424.215297	-424.257528	33.832	
C	-0.8327907994	 1.2358991431	-0.0405039034	-0.419629
C	-0.0008747142	-0.0371448495	-0.0879557588	 0.010442
C	 1.3002551915	-0.052322234	-0.9443889267	-0.289376
C	 2.0716494495	-0.7053439381	 0.2406254235	 0.053734
O	 3.1600956464	 0.0200342059	 0.7764130821	-0.257438
C	 2.6142897424	 1.1169516962	 1.5068245726	-0.095272
C	 1.3155863901	 0.5958088113	 2.1415798271	-0.305735
C	 0.8204012968	-0.4852905086	 1.1576604812	 0.384852
O	 0.208963658	-1.5905826571	 1.7829702379	-0.490404
H	-0.2230578406	 2.1137031398	 0.2017571206	 0.11045
H	-1.3027573926	 1.4250467652	-1.0116559347	 0.116938
H	-1.6309364822	 1.1637570468	 0.706321332	 0.122012
H	-0.6403389992	-0.8822991945	-0.3587497493	 0.087835
H	 1.2615607125	-0.6387052232	-1.8644513118	 0.102605
H	 1.6812169061	 0.9432330657	-1.1882756593	 0.103947
H	 2.3860503065	-1.7384364505	 0.0801491088	 0.079631
H	 3.3624861216	 1.4359368975	 2.2368569519	 0.110634
H	 2.4113366222	 1.9681009086	 0.8387508973	 0.095088
H	 1.535607945	 0.1093346768	 3.0990041562	 0.094795
H	 0.5855884816	 1.3852382426	 2.3334285398	 0.110815
H	 0.7840677079	-1.8947027241	 2.4938805628	 0.274078
74.9128	206.5497	220.589	235.443	273.4763	302.1882	347.1181	403.7787	446.7854	487.2743	557.7664	620.4374	660.0498	732.7381	827.9521	864.84	885.0677	914.3054	924.5104	954.9864	990.6618	1008.8504	1055.5263	1084.9394	1122.7363	1124.5518	1153.4383	1166.883	1181.2171	1210.9235	1218.6113	1248.6163	1256.6001	1278.8299	1324.3991	1340.8483	1353.8157	1391.8237	1399.4011	1409.8685	1476.3346	1480.3	1496.9471	1500.7644	1523.7712	2983.2047	3026.7895	3039.5853	3062.6119	3063.9516	3091.2554	3093.5744	3094.5544	3096.2302	3109.0775	3119.9182	3796.3368
CC1CC2OCCC12O	C[C@H]1C[C@H]2OCC[C@@]12O	
InChI=1S/C7H12O2/c1-5-4-6-7(5,8)2-3-9-6/h5-6,8H,2-4H2,1H3	InChI=1S/C7H12O2/c1-5-4-6-7(5,8)2-3-9-6/h5-6,8H,2-4H2,1H3/t5-,6+,7+/m0/s1
