16
gdb 76015	2.55708	1.23214	1.0792	2.7341	75.58	-0.2672	-0.0144	0.2528	1163.6686	0.1234	-396.937881	-396.928402	-396.927458	-396.972129	33.706	
C	-0.0914775285	 1.5579462398	 0.0188422235	-0.437791
C	 0.0271394661	 0.0511260162	 0.0658287076	-0.046115
C	 1.3344993691	-0.6729618738	-0.2361358339	-0.259619
C	 2.5415052076	 0.0753560978	-0.4083981831	 0.29612
N	 3.5146174698	 0.6949489992	-0.5049020588	-0.332024
C	 0.7137266601	-0.6621351964	 1.2056131056	 0.126635
N	 1.2759451827	 0.0725644268	 2.2940590131	-0.552951
C	 0.1564234105	-1.9369324413	 1.606234962	 0.294757
N	-0.2757836401	-2.9672454819	 1.9030693457	-0.330644
H	 0.8521252503	 2.0625140614	 0.2410066935	 0.145821
H	-0.3918659589	 1.8718096952	-0.9850134243	 0.14654
H	-0.8501619873	 1.9069205554	 0.7253133959	 0.147515
H	-0.8415920243	-0.473363829	-0.3188712143	 0.132442
H	 1.2790639102	-1.599332024	-0.7964551895	 0.155143
H	 2.1176416876	-0.3722020294	 2.6460646282	 0.258841
H	 1.5101663952	 1.021096984	 2.0297144489	 0.25533
107.4917	120.0579	142.1552	157.2373	164.5891	179.93	268.3356	351.7667	380.6685	451.696	499.8124	571.4985	607.1383	610.3531	696.998	771.1607	822.0427	831.9882	953.2756	999.4908	1017.2217	1043.1995	1124.8301	1149.018	1185.1024	1297.2738	1324.1448	1352.7406	1419.4611	1431.6177	1493.1572	1501.4154	1658.7854	2346.5397	2358.5354	3048.1173	3116.8233	3123.3262	3167.5784	3182.5756	3521.7527	3615.4538
CC1C(C#N)C1(N)C#N	C[C@H]1[C@@H](C#N)[C@]1(N)C#N	
InChI=1S/C6H7N3/c1-4-5(2-7)6(4,9)3-8/h4-5H,9H2,1H3	InChI=1S/C6H7N3/c1-4-5(2-7)6(4,9)3-8/h4-5H,9H2,1H3/t4-,5+,6-/m0/s1
