21
gdb 113434	2.44665	1.23782	0.96954	0.3344	79.28	-0.2216	0.0667	0.2884	1304.9019	0.180996	-424.1929	-424.183345	-424.182401	-424.227893	35.631	
C	-0.451897127	 1.5252200707	 0.2486207361	-0.393908
C	 0.0992308816	 0.1353049953	 0.0027234017	 0.152137
C	 0.8924617324	-0.0991078948	-1.3061107149	-0.38518
C	 2.0674556163	-0.3384868823	-0.3667974436	 0.468697
C	 3.173923976	-1.3396967105	-0.4199324128	-0.37869
C	 3.4729275812	 0.1583652127	-0.4670757745	-0.119984
C	 3.9472147159	 0.8148371399	-1.7409029528	-0.076951
O	 3.4283570449	 2.1303782559	-1.9140717759	-0.416924
O	 1.2844576379	-0.1342300855	 0.8068104858	-0.326821
H	 0.3037991665	 2.283794454	 0.0224924082	 0.123251
H	-1.327832329	 1.7066291902	-0.3842277493	 0.115011
H	-0.7553335145	 1.6380136378	 1.2941987995	 0.124349
H	-0.6664907902	-0.6250086518	 0.2010747914	 0.076846
H	 0.5759425861	-0.9610282196	-1.896545616	 0.106569
H	 0.9924372006	 0.7782212699	-1.9479069512	 0.129683
H	 3.4140256513	-1.8666914229	 0.4971975104	 0.122327
H	 3.306966054	-1.9219297311	-1.3275296976	 0.111181
H	 3.8780587867	 0.5763163194	 0.4530671367	 0.088512
H	 5.0476753204	 0.8149136297	-1.7868521518	 0.091727
H	 3.5918020991	 0.2478325967	-2.6081054908	 0.105885
H	 3.69164981	 2.6513863062	-1.1487334987	 0.282284
35.4862	102.253	125.9144	176.8247	237.1628	275.3641	298.3148	372.5935	376.5514	404.7885	439.631	515.6449	594.8613	785.1094	795.866	850.8491	883.3337	912.7815	917.0391	933.7823	966.1059	1009.8639	1029.4237	1061.0091	1075.4638	1092.4137	1106.5205	1116.4997	1140.5624	1190.4187	1210.0316	1242.1799	1248.829	1308.9747	1340.2805	1370.8494	1381.3863	1405.766	1413.4264	1432.0502	1483.1312	1483.8965	1496.3488	1499.5963	1509.6262	2980.2736	3021.8773	3032.7736	3066.3421	3073.1716	3104.2282	3114.2099	3121.0615	3125.0914	3130.6514	3212.9163	3816.494
CC1CC2(CC2CO)O1	C[C@H]1C[C@]2(C[C@H]2CO)O1	
InChI=1S/C7H12O2/c1-5-2-7(9-5)3-6(7)4-8/h5-6,8H,2-4H2,1H3	InChI=1S/C7H12O2/c1-5-2-7(9-5)3-6(7)4-8/h5-6,8H,2-4H2,1H3/t5-,6-,7+/m0/s1
