22
gdb 83266	1.84972	1.81285	1.51086	0.7155	82.15	-0.216	0.0834	0.2994	1084.2966	0.193569	-404.332032	-404.322742	-404.321798	-404.365185	35.775	
C	 0.4059923094	 2.2189179989	 0.5886126093	-0.415419
C	 0.0724747075	 0.7331092106	 0.5829902746	 0.091177
O	 0.1632479157	 0.2354126909	-0.753180309	-0.269771
C	 0.4086756789	-1.1665728843	-0.7055975487	-0.115035
C	 1.1355111866	-1.4235249154	 0.6020271908	-0.104706
N	 2.2686135113	-0.5801841166	 0.9442574553	-0.132158
C	 3.0477840631	 0.1354288368	-0.0610944784	-0.331043
C	 0.9496324075	-0.1908856726	 1.4331066843	 0.293841
C	 0.7536532458	-0.1750945482	 2.9299190012	-0.475543
H	 1.4362747094	 2.4025903088	 0.2770291635	 0.125853
H	-0.2608810072	 2.7542540221	-0.0930347607	 0.126956
H	 0.2676782989	 2.6318769735	 1.5926695828	 0.117876
H	-0.9629787468	 0.6090156286	 0.9510922145	 0.065004
H	-0.5318470656	-1.741624044	-0.7229503353	 0.095261
H	 0.9829936316	-1.4295163891	-1.6013421666	 0.108783
H	 1.1297139185	-2.4322577354	 1.0096586871	 0.085856
H	 2.4737827567	 0.527487931	-0.9077565408	 0.131297
H	 3.5649226642	 0.9678426943	 0.4271802193	 0.1195
H	 3.8155009915	-0.5466635466	-0.4421722215	 0.116363
H	 1.0494388559	 0.7906261803	 3.3560877845	 0.120276
H	-0.2952458834	-0.3492861207	 3.1946505035	 0.114932
H	 1.3682038305	-0.9469617529	 3.3981201604	 0.130701
150.0677	186.7231	197.0502	210.5599	223.0855	238.6984	241.2887	281.7306	332.73	408.5691	496.8397	551.8747	586.4457	677.8394	743.4599	775.9584	842.6823	884.8615	928.0815	976.7161	1011.1239	1033.7921	1059.4463	1095.5426	1120.2709	1129.8182	1141.7316	1160.1579	1176.4087	1181.2415	1235.692	1255.8306	1305.0202	1341.4096	1365.9959	1387.5858	1407.8064	1408.6802	1426.8867	1465.0876	1485.2101	1489.655	1489.9768	1496.4773	1501.186	1510.4157	1522.213	2923.9081	2971.3701	3020.7983	3029.573	3048.9404	3055.8256	3086.7902	3087.3788	3093.8125	3115.6017	3126.658	3129.2965	3137.0135
CC1OCC2N(C)C12C	C[C@H]1OC[C@H]2N(C)[C@@]12C	
InChI=1S/C7H13NO/c1-5-7(2)6(4-9-5)8(7)3/h5-6H,4H2,1-3H3	InChI=1S/C7H13NO/c1-5-7(2)6(4-9-5)8(7)3/h5-6H,4H2,1-3H3/t5-,6-,7+,8?/m1/s1
