17
gdb 50962	2.86333	0.86606	0.72622	3.1681	75.69	-0.2505	-0.0401	0.2103	1521.6119	0.131323	-421.807111	-421.796961	-421.796017	-421.844145	34.502	
O	-0.6984821712	 1.1832031794	 0.9214821389	-0.23618
C	-0.0602771456	 1.1285049864	-0.0991825946	 0.135822
C	 1.3076998215	 1.7650990642	-0.2655270019	-0.287186
C	 1.3166637497	 2.9081123772	-1.2991958446	-0.104698
C	 2.6113750063	 3.7655131241	-1.176560772	-0.373005
C	 2.6218706327	 4.9420135324	-2.0371439555	 0.28586
C	 2.6096338537	 5.9150494487	-2.7425662203	-0.422897
C	 1.164109316	 2.4020048968	-2.7244708791	 0.153536
O	 1.00642257	 1.2435670086	-3.0200326639	-0.24508
H	-0.4448687178	 0.602708022	-0.9963566476	 0.105537
H	 1.6198370921	 2.1379560894	 0.7138373036	 0.118972
H	 2.0098334935	 0.9895303603	-0.5961158554	 0.131796
H	 0.4717747988	 3.5885499201	-1.1179196021	 0.125491
H	 2.7118586361	 4.0796788757	-0.1312992639	 0.14969
H	 3.4831929939	 3.134457856	-1.3921207018	 0.145456
H	 2.6118162969	 6.7764007917	-3.3640600213	 0.205625
H	 1.2205168436	 3.1917906071	-3.5015207285	 0.111261
28.2608	59.4891	92.4733	101.3642	125.7719	211.3321	277.8602	310.9922	342.6981	373.0798	485.1215	526.1121	630.3086	643.9684	657.7676	792.636	879.0158	880.9097	940.8511	961.5791	1006.017	1095.2168	1099.5424	1117.0073	1201.8221	1223.9421	1268.4453	1329.8838	1333.6791	1369.6023	1418.0633	1420.6592	1455.2487	1476.4781	1820.2688	1827.5134	2238.5944	2930.9306	2936.4696	3010.7999	3027.6816	3039.1511	3064.8994	3106.8207	3503.7011
O=CCC(CC#C)C=O	O=CC[C@@H](CC#C)C=O	
InChI=1S/C7H8O2/c1-2-3-7(6-9)4-5-8/h1,5-7H,3-4H2	InChI=1S/C7H8O2/c1-2-3-7(6-9)4-5-8/h1,5-7H,3-4H2/t7-/m1/s1
