17
gdb 47350	2.46869	1.45654	1.14769	1.9295	75.91	-0.2337	0.0156	0.2493	1109.2995	0.137253	-417.972532	-417.964321	-417.963377	-418.005571	31.254	
N	-0.0186237254	 1.2840144089	 0.3929985965	-0.519506
C	 0.0388810807	 0.0530639578	 0.0605596597	 0.33745
C	 1.3138591503	-0.7713132684	-0.0565801315	-0.16321
O	 1.2366043107	-1.8274266931	-0.9969566803	-0.23637
C	 0.1130510357	-2.6447829011	-0.7636001285	-0.081731
C	-1.186827214	-1.8480266549	-0.9641675266	-0.184305
N	-1.1302230497	-0.6663688174	-0.1010623779	-0.288986
C	-1.4163366295	-1.5128588861	-2.3752488595	 0.357073
C	-1.6311101243	-1.2268159779	-3.5224729918	-0.473697
H	 0.9162124367	 1.6618664784	 0.5411558629	 0.21271
H	 2.1346977155	-0.1259421196	-0.3756351349	 0.128411
H	 1.5554685212	-1.1706241674	 0.9439679445	 0.11451
H	 0.162408541	-3.4716992791	-1.4742723996	 0.12765
H	 0.1247902151	-3.046293385	 0.2626005213	 0.099322
H	-2.0167141977	-2.4765575751	-0.6156864992	 0.116877
H	-1.9456878513	-0.0672533186	-0.1288340324	 0.249365
H	-1.8113220052	-0.9698500314	-4.5372334327	 0.204436
72.5381	101.414	174.1769	243.9545	331.3437	405.6224	413.5228	461.862	488.4811	571.6816	609.6219	639.0278	658.7016	687.7005	794.8153	804.0878	830.6848	899.3942	961.6678	975.5747	1024.5305	1077.1524	1115.4689	1150.9132	1182.6049	1251.6496	1285.4629	1321.5011	1355.6933	1373.7004	1408.5479	1436.873	1465.375	1475.4385	1490.128	1719.3255	2233.4587	2958.63	2980.1922	3022.8202	3111.1401	3118.7027	3486.8836	3501.3456	3573.9039
N=C1COCC(N1)C#C	[NH][C]1COC[C@@H](N1)C#C	
InChI=1S/C6H8N2O/c1-2-5-3-9-4-6(7)8-5/h1,5H,3-4H2,(H2,7,8)	InChI=1S/C6H8N2O/c1-2-5-3-9-4-6(7)8-5/h1,5H,3-4H2,(H2,7,8)/t5-/m0/s1
