15
gdb 27748	2.31167	1.46366	0.89711	5.9342	77.18	-0.1896	-0.0176	0.172	1209.7258	0.113364	-453.996499	-453.987998	-453.987054	-454.029379	31.796	
N	 0.0539651235	 1.3506407082	 0.1610400261	-0.59939
C	-0.0316069648	-0.0260198639	 0.0281709269	 0.390076
C	-1.1642072369	-0.8394598209	-0.0478308733	-0.378885
C	-0.6983422849	-2.1714024906	-0.0794699691	 0.30073
O	-1.4299996667	-3.3071337989	-0.1593308043	-0.43207
C	 0.6946786422	-2.1610804105	-0.028501799	 0.127065
N	 1.0637516218	-0.8133941079	 0.0350853005	-0.356225
C	 1.6930259513	-3.1794649335	-0.0296216611	 0.052697
O	 2.8960175344	-2.9456256288	 0.0244254308	-0.35969
H	 0.8638833491	 1.7674901399	-0.2784840356	 0.256171
H	-0.7896716637	 1.8321361784	-0.1147429412	 0.260299
H	-2.188549508	-0.5000896431	-0.0819920052	 0.090244
H	-2.3640681368	-3.0774757768	-0.1721715604	 0.303226
H	 2.0290073861	-0.5438568725	 0.1348954995	 0.27233
H	 1.3036211335	-4.215784099	-0.0811050345	 0.073422
132.921	151.027	211.0184	229.7978	256.7928	295.3497	302.1589	408.5681	426.8767	494.8868	580.6699	617.66	639.2994	684.0845	685.0129	696.8904	738.1683	880.7208	1019.333	1028.3006	1096.5405	1120.1343	1212.848	1258.9567	1280.0795	1383.0515	1401.8306	1487.991	1539.537	1596.7854	1642.4129	1661.9307	1723.7799	2928.6805	3239.7334	3555.2718	3654.6858	3659.6658	3837.4456
NC1=CC(O)=C(N1)C=O	Nc1cc(O)c([nH]1)C=O	
InChI=1S/C5H6N2O2/c6-5-1-4(9)3(2-8)7-5/h1-2,7,9H,6H2	InChI=1S/C5H6N2O2/c6-5-1-4(9)3(2-8)7-5/h1-2,7,9H,6H2
