19
gdb 74001	2.791	1.91939	1.46711	0.9561	82.21	-0.2122	-0.004	0.2082	956.3037	0.160154	-385.834739	-385.827527	-385.826582	-385.866031	29.384	
C	-0.1571911607	 1.395907008	-0.0921025901	-0.485112
C	-0.0012968217	-0.0547329203	 0.2279435373	 0.264413
C	-0.9886810898	-0.9281216611	 0.4825133691	 0.017305
C	-2.2357450375	-1.162337613	-0.3668887452	-0.302336
C	-1.4058263691	-2.3857012901	-0.919608433	 0.129465
O	-0.2263019957	-2.0509511985	-1.7068942632	-0.325491
C	 0.6861427007	-2.1729339187	-0.5539461308	 0.120496
C	 1.2815461438	-0.8218898832	-0.1116142658	-0.317543
C	-0.5307991945	-2.3836882011	 0.3453553074	-0.130791
H	 0.4510944989	 2.0208670619	 0.5749762676	 0.126426
H	 0.1793463047	 1.6135224867	-1.1145804934	 0.127484
H	-1.1969121994	 1.7197788039	 0.0093308105	 0.123117
H	-3.1157205345	-1.552167946	 0.1589617495	 0.105323
H	-2.534888726	-0.3660284367	-1.0526924635	 0.109458
H	-1.9505299375	-3.2361274285	-1.3405987281	 0.077658
H	 1.4074300245	-2.9801690402	-0.7206557028	 0.066011
H	 1.8215498725	-0.3210577967	-0.9235054595	 0.113076
H	 1.9962881387	-0.9603887085	 0.7124321688	 0.104184
H	-0.5916265176	-3.0861838379	 1.1741841751	 0.076858
136.8308	172.1451	231.9835	338.5205	361.1882	406.2484	475.4159	592.9343	608.6663	727.2261	763.2501	800.9046	835.2144	865.0243	886.3046	907.7561	945.6758	951.3126	963.6466	972.8744	1002.0416	1046.3518	1051.6723	1070.2256	1119.329	1155.7151	1166.9503	1199.7117	1210.5574	1233.573	1269.5271	1276.1319	1283.9468	1317.9164	1341.1821	1407.4488	1459.1246	1468.5765	1475.1252	1485.8894	1688.1953	3005.0053	3010.6953	3031.3292	3051.747	3054.7416	3063.567	3066.0495	3105.2009	3108.1753	3130.4608
CC1=C2CC3OC(C1)C23	C[C]1[C]2C[C@H]3O[C@@H](C1)[C@@H]23	
InChI=1S/C8H10O/c1-4-2-6-8-5(4)3-7(8)9-6/h6-8H,2-3H2,1H3	InChI=1S/C8H10O/c1-4-2-6-8-5(4)3-7(8)9-6/h6-8H,2-3H2,1H3/t6-,7+,8+/m0/s1
