15
gdb 128344	2.86276	1.56146	1.01679	3.4627	76.44	-0.2157	-0.0454	0.1702	1105.7146	0.114582	-446.265894	-446.257698	-446.256754	-446.299423	29.375	
C	-0.0202955119	 1.4266462178	 0.0387816622	-0.320671
N	 0.048757516	-0.0133831204	-0.0778654264	-0.325275
C	 0.6405858313	-0.6508861545	-1.0944384628	 0.435283
N	 1.2095553769	 0.0087451888	-2.0737253888	-0.341224
N	 1.7568793148	-0.8033138222	-3.0133133876	-0.087544
N	 1.7869337103	-2.1156892154	-3.0625344616	-0.065279
N	 1.2382795059	-2.794225829	-2.1182290094	-0.293855
C	 0.6216838578	-2.124212773	-1.0595508315	 0.324896
N	 0.0477323179	-2.7049780038	-0.0721082422	-0.549521
H	 0.9817395979	 1.8686810189	 0.0745852165	 0.143401
H	-0.5493022985	 1.8672716025	-0.8137250734	 0.14335
H	-0.5528697729	 1.679898901	 0.9562508547	 0.135971
H	-0.3529647411	-0.6309874854	 0.6137367807	 0.277926
H	 2.2057744479	-0.336980483	-3.7857605474	 0.294601
H	 0.1132249076	-3.7185094024	-0.1830400427	 0.227942
55.9909	96.4881	136.5708	191.432	305.1242	356.0273	433.9309	509.0279	533.3745	533.5715	564.353	624.9663	664.8899	788.6085	816.7507	890.953	959.8592	1070.9009	1082.56	1116.7501	1159.2503	1189.6401	1237.2977	1307.8296	1359.8768	1433.9181	1457.5274	1476.6786	1512.7187	1520.7949	1596.4968	1653.7696	1685.5267	3029.9766	3080.6709	3143.169	3467.8468	3601.0027	3649.7532
CNC1=NNN=NC1=N	CNc1n[nH]nnc1[NH]	
InChI=1S/C3H6N6/c1-5-3-2(4)6-8-9-7-3/h1H3,(H2,4,6,9)(H,5,7,8)	InChI=1S/C3H11N6/c1-5-3-2(4)6-8-9-7-3/h2-9H,1H3
