17
gdb 17090	4.59159	1.63126	1.55545	4.2286	71.69	-0.3047	0.0356	0.3403	867.5807	0.145719	-326.736789	-326.730414	-326.72947	-326.767259	25.455	
N	-0.0646481391	-1.1408561621	-0.116798053	-0.334326
C	-0.0239423689	 0.0130417815	-0.0514826325	 0.26595
C	 0.0370148749	 1.467620501	 0.034597324	-0.140121
C	-0.4573297306	 2.0491903042	 1.4159198888	-0.232743
C	 0.8193009714	 2.8068820961	 1.8251553927	-0.007994
C	 1.2300967143	 3.4987506374	 0.4929262702	-0.234102
C	 1.4844736774	 2.0324890018	 0.0420775814	-0.013389
C	 1.9336103676	 1.767552934	 1.5068883932	-0.228301
H	-0.5388709468	 1.877958499	-0.8004356508	 0.120011
H	-1.3219824525	 2.7048077143	 1.2870439427	 0.110192
H	-0.7263456962	 1.2594226046	 2.1205521753	 0.124853
H	 0.7859743437	 3.3474758484	 2.7706778601	 0.07001
H	 0.4775808253	 4.0853075332	-0.043436239	 0.09268
H	 2.1578592402	 4.0672997275	 0.5810399469	 0.106528
H	 2.1048678786	 1.7799935392	-0.8168410441	 0.081489
H	 2.9356945847	 2.1530205175	 1.704252112	 0.105847
H	 1.8326577059	 0.7540148322	 1.904204512	 0.113417
125.2421	168.3928	324.0381	418.5029	473.8111	519.8799	568.4311	668.4255	809.9182	829.9976	835.8258	856.9389	870.3535	941.2179	950.3553	969.0768	1004.3918	1026.2402	1040.5992	1081.785	1094.939	1110.5888	1115.9157	1174.1331	1218.748	1240.7826	1247.2523	1269.1534	1288.58	1301.5769	1327.2865	1350.7646	1491.3601	1497.8669	1529.5485	2352.4106	3052.3531	3062.2856	3065.2611	3070.8096	3118.7594	3119.2733	3122.6501	3126.2784	3131.4075
N#CC1CC2CC1C2	N#C[C@H]1C[C@@H]2C[C@H]1C2	
InChI=1S/C7H9N/c8-4-7-3-5-1-6(7)2-5/h5-7H,1-3H2	InChI=1S/C7H9N/c8-4-7-3-5-1-6(7)2-5/h5-7H,1-3H2/t5-,6+,7-/m1/s1
