19
gdb 113155	2.31041	1.16238	0.99585	1.112	72.45	-0.2453	-0.024	0.2213	1293.6626	0.154588	-460.157724	-460.147176	-460.146232	-460.193809	36.942	
C	 0.1441450378	 1.0595629235	-0.7930503498	-0.475298
C	-0.0670381874	 0.0867242542	 0.3462275769	 0.301087
O	 0.6487706385	 0.0462534671	 1.3216162144	-0.306169
C	-1.2856963726	-0.8248718806	 0.2766045104	 0.279367
C	-2.1928598243	-0.7298881016	 1.4848091092	-0.46588
O	-1.9220694285	-0.93163552	-1.0031217801	-0.287717
C	-1.2213042255	-2.075593199	-0.5047404621	 0.043534
C	 0.0044609917	-2.5576422498	-1.234030869	-0.120169
O	-0.4283372604	-3.4534292184	-2.2436203617	-0.417751
H	 1.1091403345	 1.5549142996	-0.6807057461	 0.137934
H	 0.0575524187	 0.570189144	-1.764963586	 0.153917
H	-0.6562322605	 1.809933043	-0.7627729927	 0.150251
H	-2.6272574927	 0.2724200606	 1.5625575193	 0.128827
H	-3.0082645524	-1.4526339789	 1.4089506071	 0.129445
H	-1.6164048855	-0.9214135745	 2.3929918953	 0.150189
H	-1.8757117657	-2.8894908044	-0.1875774063	 0.103522
H	 0.5580567208	-1.7064653462	-1.6541585608	 0.096379
H	 0.6626026795	-3.0568568881	-0.5042946254	 0.106219
H	 0.348977394	-3.8325774205	-2.6641208124	 0.292315
53.5928	80.1104	105.4379	140.5665	182.8764	211.7052	237.7175	248.9465	258.1783	331.6509	409.9888	478.9969	509.7673	528.8294	626.47	665.1927	787.9754	899.0696	921.8969	967.5957	1019.5826	1055.7579	1063.3221	1094.2407	1102.0804	1123.8536	1149.5198	1247.6216	1258.2525	1290.9587	1339.2805	1383.9964	1400.6459	1427.574	1457.9706	1464.6395	1481.1933	1488.4256	1500.0357	1506.2179	1801.6028	2975.8451	3024.9614	3040.0041	3044.5017	3102.3058	3113.5971	3114.6788	3140.4725	3164.1005	3832.4943
CC(=O)C1(C)OC1CO	CC(=O)[C@@]1(C)O[C@H]1CO	
InChI=1S/C6H10O3/c1-4(8)6(2)5(3-7)9-6/h5,7H,3H2,1-2H3	InChI=1S/C6H10O3/c1-4(8)6(2)5(3-7)9-6/h5,7H,3H2,1-2H3/t5-,6+/m0/s1
