19
gdb 88779	3.68233	1.15604	1.05527	0.7056	75.71	-0.2277	0.0183	0.246	1192.7318	0.160503	-419.182228	-419.173867	-419.172923	-419.215911	30.821	
C	 0.5607698628	 1.4915208021	-0.4025699149	-0.32849
N	 0.1660436504	 0.1356028446	-0.0348278159	-0.096104
C	 1.2150920748	-0.81060302	 0.3335129581	-0.245804
C	 0.2576382581	-0.2987583565	 1.3547290046	-0.012065
C	 0.6967722656	 0.5786567568	 2.5123096464	 0.055059
C	 0.834673308	-0.2042991975	 3.8525102699	-0.196603
N	 2.22826133	-0.0014141195	 4.279917633	-0.25784
C	 2.7607655096	 0.7174812576	 3.3863355091	 0.117947
O	 2.029272958	 1.1349191646	 2.3220069401	-0.224011
H	 1.4323996502	 1.876660787	 0.1422670402	 0.128266
H	 0.7857248593	 1.5043583721	-1.4735299013	 0.122918
H	-0.2840200209	 2.1674391219	-0.2322786531	 0.118948
H	 1.1152085708	-1.81714482	-0.0645669955	 0.114046
H	 2.2345000699	-0.4366703456	 0.3967595401	 0.119478
H	-0.5729032015	-0.9403916515	 1.6523801542	 0.097671
H	 0.0187483972	 1.4333663329	 2.6112248451	 0.102015
H	 0.1510078401	 0.1621838437	 4.6242636571	 0.120486
H	 0.6404954264	-1.274760206	 3.7225088812	 0.120692
H	 3.7914115213	 1.0544572632	 3.3769792416	 0.14339
61.3327	76.3448	161.3244	198.7962	255.3846	283.4785	379.7302	465.5125	486.9419	613.3564	722.2471	754.0438	808.5618	880.4811	899.5623	937.5092	958.5091	983.247	991.9067	1043.9705	1051.6391	1063.7415	1117.8269	1120.8876	1134.1893	1161.3158	1181.4404	1208.8616	1219.2102	1302.7933	1325.3097	1333.3878	1342.386	1374.0942	1409.9729	1450.4416	1493.0437	1499.3098	1508.3902	1513.8252	1716.0012	3014.0673	3041.3162	3044.7566	3081.6232	3082.0822	3093.6456	3099.1368	3101.48	3186.9641	3217.2034
CN1CC1C1CN=CO1	CN1C[C@H]1[C@H]1CN=CO1	
InChI=1S/C6H10N2O/c1-8-3-5(8)6-2-7-4-9-6/h4-6H,2-3H2,1H3	InChI=1S/C6H10N2O/c1-8-3-5(8)6-2-7-4-9-6/h4-6H,2-3H2,1H3/t5-,6+,8?/m0/s1
