14
gdb 48490	2.50303	1.53229	1.22285	5.8247	62.39	-0.2812	-0.0614	0.2198	1027.7983	0.099237	-473.822841	-473.814457	-473.813513	-473.856898	28.755	
O	-0.6296975552	 0.7215664914	 0.6498537763	-0.213592
C	 0.2305816557	 0.8861830257	-0.1620889874	 0.155737
C	 1.3726613581	 1.9188559132	-0.0379704124	 0.201738
O	 2.5886859579	 1.2023936417	-0.0180454796	-0.28442
C	 3.4813470578	 1.8014809757	-0.9731620698	-0.096628
C	 2.7295654843	 3.0533165174	-1.4366927467	-0.124305
O	 1.3614807758	 2.7003179609	-1.1971833331	-0.261184
C	 1.2548622912	 2.7574093926	 1.1854431119	 0.2977
N	 1.189622963	 3.434802733	 2.1177219074	-0.327923
H	 0.3243676846	 0.3033953825	-1.1008328602	 0.110349
H	 4.4311174121	 2.0287431848	-0.4825479473	 0.136744
H	 3.6519780705	 1.0919068811	-1.7891114931	 0.128281
H	 3.0016100959	 3.9367076654	-0.8467359908	 0.137075
H	 2.8371122183	 3.2720289845	-2.4994390252	 0.140428
59.9378	71.7182	137.14	156.5431	218.4109	304.7524	339.7552	436.0959	519.7226	576.237	679.6769	715.5228	810.1063	880.9725	923.6287	958.2448	1017.4759	1043.3076	1055.5482	1144.0886	1156.4244	1199.5105	1222.2575	1251.1552	1370.8179	1380.4872	1389.2701	1511.5517	1525.9213	1863.9842	2364.6013	2940.145	3040.288	3051.1013	3106.3033	3137.2717
O=CC1(OCCO1)C#N	O=CC1(OCCO1)C#N	
InChI=1S/C5H5NO3/c6-3-5(4-7)8-1-2-9-5/h4H,1-2H2	InChI=1S/C5H5NO3/c6-3-5(4-7)8-1-2-9-5/h4H,1-2H2
