18
gdb 15998	3.806	1.49848	1.22984	2.6719	67.82	-0.2444	0.0585	0.3029	1013.3623	0.153676	-384.897166	-384.889251	-384.888307	-384.929701	29.521	
O	-0.0118130068	 1.3894329222	-0.4146146312	-0.422007
C	 0.1056169088	 0.0203798091	-0.0819129383	-0.063945
C	-1.2569684534	-0.5496432012	 0.2803334391	 0.042306
O	-2.1731153864	-0.3563913453	-0.8353766985	-0.311636
C	-2.3673315995	-1.7824915642	-0.9939261338	-0.135929
C	-1.4609292422	-2.0611452889	 0.2000800009	 0.293961
C	-0.4681511656	-3.1671771776	 0.3939250647	-0.326363
C	-1.6650701573	-3.0416798294	 1.3107637084	-0.325287
H	-0.7182988277	 1.4370546867	-1.071164722	 0.293133
H	 0.5358092726	-0.5647873215	-0.9106284751	 0.083913
H	 0.7914762362	-0.0483126437	 0.7703415159	 0.103214
H	-1.6447153037	-0.0602350653	 1.1836251385	 0.083365
H	-3.4217535664	-2.0626761168	-0.8760551341	 0.106098
H	-2.0064385379	-2.1401636944	-1.9671147749	 0.104143
H	-0.4603543235	-3.974337885	-0.331878647	 0.117631
H	 0.5103040609	-2.9214346589	 0.793749983	 0.121147
H	-1.4962497121	-2.7035567137	 2.3284428613	 0.119274
H	-2.4674154059	-3.7658127522	 1.2094494433	 0.116982
81.3232	113.9119	150.2577	258.9943	271.4994	331.3554	457.8922	476.5341	496.1501	581.7833	774.4611	823.9473	866.4157	878.2795	911.356	950.3845	983.7069	1017.946	1046.9936	1062.4123	1071.4737	1080.5702	1099.9661	1124.385	1153.2407	1188.3005	1214.0586	1244.0514	1278.59	1318.0275	1342.1654	1392.2153	1414.9363	1436.687	1465.6971	1499.7335	1509.8948	1525.1739	2975.5552	3005.64	3021.1852	3048.8137	3065.7942	3122.7076	3126.9367	3200.6254	3215.4427	3778.3837
OCC1OCC11CC1	OC[C@H]1OCC21CC2	
InChI=1S/C6H10O2/c7-3-5-6(1-2-6)4-8-5/h5,7H,1-4H2	InChI=1S/C6H10O2/c7-3-5-6(1-2-6)4-8-5/h5,7H,1-4H2/t5-/m1/s1
