18
gdb 91990	2.7058	1.51741	1.23153	5.3688	75.19	-0.2801	0.039	0.3191	1053.7883	0.149288	-401.95962	-401.951632	-401.950688	-401.991965	30.996	
O	-0.2893490865	 1.1017904828	 1.3266980421	-0.405776
C	-0.0606542131	 0.154845179	 0.2948616711	 0.068133
C	 0.923609431	-0.9654354532	 0.7089939636	-0.244066
C	 0.0739642346	-2.0562106706	 1.3451367116	-0.043054
C	-0.9537082647	-1.6453053999	 2.3721099587	-0.284799
C	-1.364340443	-1.8336033505	 0.9342074715	-0.039782
C	-1.398461943	-0.5994710545	 0.0298977165	-0.166403
C	-2.5884367844	 0.2379360071	 0.1799083135	 0.295214
N	-3.554565465	 0.8648829172	 0.271237766	-0.335309
H	 0.5300457103	 1.5819952002	 1.4812405649	 0.290686
H	 0.2705157813	 0.6685380494	-0.6169126663	 0.086079
H	 1.4294764896	-1.3609041399	-0.1800516316	 0.105315
H	 1.6995019648	-0.5663616699	 1.3725913624	 0.099624
H	 0.4842675484	-3.0585394096	 1.394234812	 0.089227
H	-1.2826116269	-2.4086334384	 3.0686535139	 0.113886
H	-0.9189313034	-0.6409227787	 2.7747665162	 0.145981
H	-2.0218220683	-2.6543558519	 0.6739974246	 0.098999
H	-1.3797971817	-0.9443548186	-1.0116774306	 0.126043
103.3726	148.3553	205.4491	250.2534	290.3326	377.7099	390.4354	403.4188	507.9646	565.0345	646.3739	765.3074	783.1632	817.6847	834.8515	872.7903	920.4387	954.4633	995.6	1037.7416	1040.2509	1073.1884	1075.9785	1095.1669	1111.5383	1141.7183	1202.6386	1208.4066	1229.3441	1287.143	1297.6988	1327.7092	1329.6765	1371.8425	1393.8519	1427.1632	1478.1072	1491.1321	2362.2554	3010.8715	3029.9996	3037.9854	3069.6508	3145.0943	3170.1135	3183.4886	3240.1016	3826.9708
OC1CC2CC2C1C#N	O[C@H]1C[C@H]2C[C@H]2[C@H]1C#N	
InChI=1S/C7H9NO/c8-3-6-5-1-4(5)2-7(6)9/h4-7,9H,1-2H2	InChI=1S/C7H9NO/c8-3-6-5-1-4(5)2-7(6)9/h4-7,9H,1-2H2/t4-,5-,6-,7+/m1/s1
