17
gdb 31401	2.93248	1.35552	0.9376	2.2953	78.93	-0.2315	-0.0481	0.1834	1225.8097	0.138378	-414.24615	-414.237999	-414.237054	-414.279349	30.164	
C	 0.1132658792	 1.5362228151	 0.0073437961	-0.376116
C	-0.0508929819	 0.0198498784	 0.003681918	-0.259959
C	-1.4709781989	-0.4783080877	 0.0134693351	 0.345954
N	-2.4516407561	 0.3727452565	 0.0231861235	-0.331164
C	-3.7582511693	-0.1000639924	 0.0320905825	 0.408932
N	-4.8307072691	 0.5854501151	 0.042099749	-0.563058
N	-3.879345853	-1.5073663245	 0.0295168002	-0.286898
C	-2.7973197563	-2.3036019722	 0.0191577293	 0.109882
N	-1.5780823165	-1.8655197066	 0.0108347192	-0.318352
H	 1.1746144099	 1.8003384192	-0.0003609954	 0.107592
H	-0.36263266	 1.9870549015	-0.8671616414	 0.12888
H	-0.3483906817	 1.9812731484	 0.8923929868	 0.128843
H	 0.4380727937	-0.4321486566	-0.8696626193	 0.129633
H	 0.4521609665	-0.4379859646	 0.865886639	 0.129624
H	-4.5854064779	 1.574204237	 0.0426922047	 0.226283
H	-4.8187255117	-1.8787587484	 0.0358545439	 0.278111
H	-2.9902716669	-3.3748474581	 0.0179652287	 0.141814
69.6346	127.3878	162.5787	185.3687	238.1449	398.1163	408.7762	482.3267	565.9876	584.4489	590.5384	703.8291	768.3646	774.3537	816.294	860.1717	912.3853	976.9286	993.908	1007.5688	1072.2522	1104.8185	1130.4242	1167.0186	1234.7561	1277.5358	1326.0836	1385.6949	1415.6128	1419.4356	1451.6822	1481.199	1491.595	1500.0946	1580.1663	1675.3342	1742.5444	3027.1411	3049.9652	3050.4586	3120.8239	3126.831	3156.7245	3512.419	3613.2781
CCC1=NC(=N)NC=N1	CC[C@H]1N=C([NH])NC=N1	
InChI=1S/C5H8N4/c1-2-4-7-3-8-5(6)9-4/h3H,2H2,1H3,(H2,6,7,8,9)	InChI=1S/C5H9N4/c1-2-4-7-3-8-5(6)9-4/h3-4,6H,2H2,1H3,(H,7,8,9)/t4-/m1/s1
