21
gdb 39040	2.39841	2.10735	1.4166	0.0306	87.43	-0.2321	0.0184	0.2505	989.5272	0.18608	-349.922705	-349.915726	-349.914782	-349.953389	30.384	
C	-0.0871872812	 1.5289248615	 0.1095312112	-0.451953
C	 1.2180526352	 0.7713268474	-0.0577353676	 0.012458
C	 2.3201688664	 0.4190586582	 0.9183410613	-0.306339
C	 2.6718995068	-1.0527658045	 0.7138079747	-0.053944
C	 1.8303556428	-2.0500651652	 0.4006609279	-0.053776
C	 0.3157127097	-2.01136699	 0.2956977057	-0.040279
C	-0.265076585	-0.9274963101	 1.247386918	-0.272232
C	-0.0784685858	 0.029441889	 0.0694406783	 0.36236
C	-0.2679857317	-1.1482246053	-0.8934276618	-0.303364
H	-0.3279565667	 1.9710817352	 1.0728345613	 0.109086
H	-0.4313604893	 2.1121105105	-0.7392871811	 0.111207
H	 1.583265692	 0.794000344	-1.0833409573	 0.083187
H	 3.2135246904	 1.0333185033	 0.7571035909	 0.096654
H	 2.0150048838	 0.6079295077	 1.955620629	 0.110915
H	 3.7277214733	-1.3017893934	 0.800799674	 0.081366
H	 2.2716619766	-3.0333842195	 0.2499741235	 0.081818
H	-0.0905214705	-3.0222672367	 0.3830205902	 0.059109
H	-1.3271055914	-1.0973754135	 1.4568039213	 0.090197
H	 0.260777339	-0.7443103201	 2.1863307871	 0.09696
H	 0.2850210722	-1.126915991	-1.8355220991	 0.095301
H	-1.3135304866	-1.4192180076	-1.0795718273	 0.091271
214.1395	260.7127	332.2612	360.3195	383.0811	402.7375	470.7489	547.1964	565.0518	688.1752	737.9815	793.4809	809.9365	838.2182	849.1214	877.0706	911.6473	918.3037	952.1159	968.9293	999.7693	1010.6216	1029.3708	1066.2301	1085.0353	1098.0419	1115.6478	1153.0089	1161.793	1170.894	1215.5833	1226.7476	1235.4988	1268.0445	1274.0263	1324.9054	1352.1567	1367.2269	1410.1403	1437.0335	1473.8733	1486.33	1495.2289	1515.055	1682.8395	3021.2781	3034.1507	3042.1459	3052.7042	3070.4603	3104.3461	3109.8511	3113.3112	3113.9447	3130.003	3154.6429	3196.4297
C1C2CC=CC3CC12C3	C1[C@H]2CC=C[C@H]3C[C@@]12C3	
InChI=1S/C9H12/c1-2-7-4-9(5-7)6-8(9)3-1/h1-2,7-8H,3-6H2	InChI=1S/C9H12/c1-2-7-4-9(5-7)6-8(9)3-1/h1-2,7-8H,3-6H2/t7-,8-,9+/m1/s1
