16
gdb 133717	2.43064	1.49738	1.184	1.9979	57.01	-0.271	0.0678	0.3388	1040.7543	0.120996	-569.386729	-569.378536	-569.377592	-569.419819	30.833	
O	 0.5093062426	 0.9785435272	-0.6448260855	-0.426927
C	 0.0952326102	-0.1759863456	 0.0247424055	 0.15836
C	-0.0179908949	-0.1910954732	 1.5733225998	-0.259501
C	-1.3050023857	-1.0505126561	 1.4383060267	-0.240931
C	-1.3955993119	-0.6691185886	-0.0669712331	-0.216296
C	-2.3956779905	 0.4224012565	-0.3596564315	 0.294945
F	-2.1322852369	 1.5536725381	 0.3476135561	-0.111459
F	-2.3942194468	 0.7675010739	-1.6524801717	-0.069921
F	-3.6457629735	 0.0555417875	-0.0405838409	-0.077602
H	-0.0304632952	 1.7147298361	-0.3361487965	 0.287094
H	 0.7521363717	-0.9759696135	-0.3271755171	 0.101889
H	 0.8224466236	-0.6084866486	 2.1310705889	 0.106309
H	-0.2388614321	 0.8066982443	 1.9608143153	 0.112108
H	-1.1206355313	-2.118566371	 1.5661842005	 0.114984
H	-2.157794823	-0.7690745726	 2.0575685686	 0.122823
H	-1.5965067061	-1.4770019445	-0.7736028251	 0.104125
76.1483	134.4078	167.4259	224.4885	294.8429	367.6959	401.4338	451.44	492.3956	534.7785	587.1702	636.1479	705.9524	755.4408	792.8951	906.7768	939.1993	963.6937	1001.7695	1040.041	1081.7743	1123.5234	1150.297	1200.8155	1211.7403	1230.5479	1250.9769	1262.1289	1267.7853	1295.1658	1336.6227	1400.7738	1447.3826	1481.0663	1499.769	3069.8369	3076.3111	3081.7317	3097.819	3122.0755	3139.2272	3809.4876
OC1CCC1C(F)(F)F	O[C@H]1CC[C@H]1C(F)(F)F	
InChI=1S/C5H7F3O/c6-5(7,8)3-1-2-4(3)9/h3-4,9H,1-2H2	InChI=1S/C5H7F3O/c6-5(7,8)3-1-2-4(3)9/h3-4,9H,1-2H2/t3-,4+/m1/s1
