22
gdb 120914	3.16692	1.01811	0.90181	1.7139	82.99	-0.2281	0.0701	0.2982	1412.7708	0.193366	-404.296687	-404.287125	-404.286181	-404.331552	35.359	
C	-0.1157026963	 1.5361539866	 0.0441612038	-0.386703
C	 0.1454146323	 0.0407915329	-0.0084314944	-0.040586
O	 0.4068126287	-0.4184731679	 1.3073473318	-0.254865
C	 0.6234764694	-1.8048626293	 1.3842644245	 0.139876
C	 2.0104980979	-2.4160494257	 1.0320069149	-0.211658
N	 2.1013588354	-3.0891226316	 2.376741957	-0.152795
C	 2.1095000588	-2.0245632245	 3.4008945261	 0.031092
C	 2.8506722718	-0.7100287927	 3.2914824947	-0.428785
C	 0.8080678388	-2.3652007793	 2.7835304522	-0.105306
H	 0.7560401118	 2.0661422864	 0.4384719081	 0.12697
H	-0.3314108386	 1.9209596827	-0.9570611304	 0.115892
H	-0.9695319716	 1.7527854382	 0.6922931955	 0.128457
H	-0.7273390614	-0.4912901083	-0.4228752123	 0.088929
H	 0.999797285	-0.1790828814	-0.668903995	 0.091326
H	-0.1770155236	-2.3368707359	 0.8500308504	 0.078183
H	 1.9782447694	-3.1708642852	 0.2440769226	 0.108281
H	 2.8186256066	-1.7101710727	 0.8207008708	 0.10602
H	 2.2325041077	-2.4943380273	 4.3762559022	 0.095023
H	 2.5538801846	-0.1269588778	 2.4209826567	 0.140801
H	 2.6357364719	-0.1041534773	 4.1777991251	 0.121232
H	 3.9329330165	-0.8811774641	 3.2623576714	 0.118335
H	 0.0245734649	-2.8715383758	 3.3390984943	 0.090279
65.7618	83.8913	106.7046	162.1542	212.25	253.0791	275.5494	342.4934	360.635	431.9329	500.3152	604.9309	705.8391	755.9171	772.7047	821.672	861.1238	904.8265	926.3932	973.4092	1002.5578	1012.694	1058.3851	1069.4658	1091.0954	1118.1019	1138.7569	1151.1281	1171.7037	1188.1184	1207.502	1257.088	1270.5252	1295.6786	1299.9558	1361.9468	1378.7955	1404.8077	1412.4082	1438.7855	1447.1056	1483.8397	1489.6298	1498.4579	1499.2479	1511.9843	1527.206	2959.8325	2988.2223	2996.9299	3037.2441	3045.0446	3060.6955	3094.3271	3111.9379	3116.8354	3119.3175	3122.1585	3156.0164	3160.6854
CCOC1CN2C(C)C12	CCO[C@H]1CN2[C@@H](C)[C@@H]12	
InChI=1S/C7H13NO/c1-3-9-6-4-8-5(2)7(6)8/h5-7H,3-4H2,1-2H3	InChI=1S/C7H13NO/c1-3-9-6-4-8-5(2)7(6)8/h5-7H,3-4H2,1-2H3/t5-,6-,7-,8?/m0/s1
