18
gdb 17693	4.72176	1.52278	1.48709	1.6904	72.11	-0.261	0.0956	0.3566	919.7607	0.155069	-347.72922	-347.722418	-347.721474	-347.760563	26.606	
C	 0.2464095653	 1.496342509	 0.0909536484	-0.178776
O	 1.1465126037	 0.4297136064	-0.2085033773	-0.234627
C	-0.2189318292	 0.1026242548	 0.0808755345	-0.089153
C	-0.4677631285	-0.6645242221	 1.332117504	 0.37998
C	-1.8324369916	-0.8547191469	 2.0681193319	-0.258378
C	-0.7872650576	-1.6480602643	 2.9038922187	-0.048077
C	-0.2263675609	-2.191656918	 1.560141957	-0.254225
C	 0.1710631343	-0.4338909626	 2.735359411	-0.256645
H	 0.417139271	 1.9972467913	 1.0425453273	 0.112274
H	 0.0011947628	 2.1525203679	-0.7433225184	 0.113267
H	-0.7844738294	-0.2344006928	-0.7905721522	 0.08683
H	-2.2632960399	 0.0365885468	 2.5334249417	 0.08973
H	-2.5935212086	-1.4420662786	 1.5462134142	 0.089697
H	-0.9715269098	-2.2147282907	 3.8164506808	 0.073451
H	-0.8688783118	-2.8769560361	 0.999634155	 0.08783
H	 0.8153347895	-2.5226601691	 1.5556757702	 0.098898
H	 1.2420390464	-0.6330344013	 2.8184330609	 0.101222
H	-0.1101962256	 0.4857453163	 3.2569998924	 0.086704
65.3787	169.8854	192.5759	384.971	441.8053	541.243	552.224	637.6908	794.9897	802.6242	850.8737	880.2516	901.2936	939.1725	955.8135	962.7662	971.2906	996.7032	1023.2513	1088.3255	1099.7846	1105.6646	1139.1501	1143.5255	1154.2628	1162.6254	1165.0438	1172.9213	1230.1097	1236.1648	1240.2037	1279.0688	1322.9815	1443.7466	1498.0514	1499.4113	1526.6264	1555.7876	3042.4511	3046.7209	3053.1267	3081.7172	3087.705	3108.0009	3113.8274	3115.4767	3119.7179	3170.3711
C1OC1C12CC(C1)C2	C1O[C@H]1[C@@]12C[C@@H](C1)C2	
InChI=1S/C7H10O/c1-5-2-7(1,3-5)6-4-8-6/h5-6H,1-4H2	InChI=1S/C7H10O/c1-5-2-7(1,3-5)6-4-8-6/h5-6H,1-4H2/t5-,6-,7-/m1/s1
