13
gdb 21930	7.01545	1.30138	1.10568	4.4744	55.37	-0.2289	0.018	0.2469	988.1744	0.097008	-431.940321	-431.932888	-431.931944	-431.97306	26.087	
O	-0.1353113544	 1.3875112055	-0.0968144574	-0.426969
C	-0.0164307059	-0.0188176753	 0.0412042922	-0.188764
C	-1.400401133	-0.5815613514	 0.0474575938	 0.37982
N	-1.7416597559	-1.8611226643	 0.0840551251	-0.416762
C	-3.101771608	-1.7955202058	 0.0797405987	 0.412956
O	-3.872213152	-2.8911059243	 0.1108660565	-0.409214
N	-3.6283455361	-0.5850925876	 0.0420130505	-0.289573
N	-2.4994277617	 0.1835412703	 0.0239197949	-0.218723
H	 0.7394327401	 1.7781716903	-0.025462764	 0.302547
H	 0.5516689864	-0.4704810478	-0.7853931708	 0.128611
H	 0.4911827942	-0.2989967205	 0.9764400842	 0.127106
H	-3.2727469387	-3.6462882048	 0.1326211552	 0.309814
H	-2.5506598451	 1.1875399558	-0.0147827387	 0.289151
26.6913	167.343	192.1184	222.5869	364.8475	379.4518	401.1692	530.9944	560.4383	677.8804	692.351	767.4766	783.2706	1025.0244	1042.2885	1063.065	1098.1064	1152.8706	1203.6838	1220.8234	1231.8118	1308.5834	1405.5136	1463.3001	1496.6285	1513.3878	1592.2765	1637.8222	2989.0948	3015.9508	3683.2384	3818.566	3852.9261
OCC1=NC(O)=NN1	OCc1nc(O)n[nH]1	
InChI=1S/C3H5N3O2/c7-1-2-4-3(8)6-5-2/h7H,1H2,(H2,4,5,6,8)	InChI=1S/C3H5N3O2/c7-1-2-4-3(8)6-5-2/h7H,1H2,(H2,4,5,6,8)
