17
gdb 54453	3.37663	1.37287	1.12218	2.4541	72.8	-0.2386	-0.0187	0.2199	1085.6388	0.133868	-421.768161	-421.760118	-421.759174	-421.801044	30.675	
C	 0.0689183748	 1.3236084306	-0.506494944	-0.493321
C	-0.0585917018	 0.0339200682	 0.2852720201	 0.295945
O	 0.8369819084	-0.3685954999	 1.0020070568	-0.327659
C	-1.3232491445	-0.7163235519	 0.1314017181	 0.183909
C	-1.7256224552	-1.7886458022	 1.1299040285	-0.318262
C	-1.402023191	-2.2238072603	-0.2515309546	-0.121029
C	-2.5311956096	-1.8659277136	-1.2630680785	 0.016579
O	-3.6139125544	-1.23784839	-0.5636376947	-0.238197
C	-2.4644146758	-0.4540383071	-0.9062858346	-0.057566
H	 1.0345459251	 1.7852493559	-0.2987162229	 0.143619
H	-0.0186887958	 1.1248879461	-1.5812465649	 0.136201
H	-0.7371728325	 2.0182703616	-0.2427571634	 0.139935
H	-0.9492014454	-1.977199448	 1.8625343821	 0.148278
H	-2.7487816314	-1.8092096212	 1.4808699895	 0.143732
H	-0.5437256749	-2.8340845412	-0.4988154105	 0.119677
H	-2.7532645608	-2.366213087	-2.1971081531	 0.117357
H	-2.6233232953	 0.44471053	-1.4895097938	 0.110801
63.1106	142.285	164.0946	181.6317	345.7851	392.9467	425.9267	464.4419	584.7769	590.4644	637.9976	753.9159	762.1052	805.9401	837.4666	866.0574	925.5503	942.2929	956.2569	980.2453	995.4132	1029.0395	1049.6123	1069.2882	1108.8144	1130.2871	1194.7039	1232.5274	1255.1497	1291.1077	1345.0202	1379.5015	1400.6942	1453.6141	1463.9087	1476.2502	1772.631	3030.5059	3089.8691	3153.8134	3154.9136	3188.9374	3203.7964	3214.6127	3254.0314
CC(=O)C12CC1C1OC21	CC(=O)[C@]12C[C@H]1[C@H]1O[C@@H]21	
InChI=1S/C7H8O2/c1-3(8)7-2-4(7)5-6(7)9-5/h4-6H,2H2,1H3	InChI=1S/C7H8O2/c1-3(8)7-2-4(7)5-6(7)9-5/h4-6H,2H2,1H3/t4-,5+,6+,7+/m0/s1
