15
gdb 16865	3.79996	2.00972	1.52284	4.0982	61.05	-0.2439	0.0313	0.2752	818.4397	0.121035	-399.824879	-399.818222	-399.817278	-399.855966	25.132	
O	-0.1757752107	 0.2678528886	 1.0271478616	-0.373278
C	-0.1079823169	 1.2810170497	 0.358319388	 0.393757
C	-1.2934346424	 1.7728715253	-0.4671144612	-0.352814
C	-1.2750560551	 3.2431999364	-0.7972967122	 0.050451
O	-0.9571732829	 4.1344654076	 0.2816567908	-0.250515
C	-0.0081075525	 3.9769245662	-0.7710199853	 0.054074
C	 1.2748240581	 3.2567824216	-0.4301694644	-0.188541
N	 1.041990154	 2.0161764959	 0.2844058883	-0.306488
H	-1.3133108623	 1.1962219641	-1.4013278183	 0.134304
H	-2.1974225498	 1.5011188263	 0.0851893395	 0.146275
H	-2.0758030269	 3.598325426	-1.4459273042	 0.099773
H	 0.1230329535	 4.8506782318	-1.4090706782	 0.100195
H	 1.8248076833	 3.0854898271	-1.3691536651	 0.11505
H	 1.9027983793	 3.90906111	 0.1893284979	 0.127357
H	 1.7887666613	 1.6515898934	 0.8571235929	 0.250401
82.2974	147.118	322.2292	336.63	441.8741	503.8041	516.4871	587.5772	644.4969	746.4558	775.5471	834.7914	901.9984	914.6865	981.9351	991.1277	1044.5765	1094.664	1117.0504	1154.4853	1226.0245	1265.6833	1287.6491	1331.1553	1340.4648	1368.9276	1412.9956	1453.6435	1479.6313	1499.7439	1524.8459	1795.1486	2980.713	3037.1588	3041.7693	3097.371	3108.2635	3120.8096	3616.5878
O=C1CC2OC2CN1	O=C1C[C@H]2O[C@H]2CN1	
InChI=1S/C5H7NO2/c7-5-1-3-4(8-3)2-6-5/h3-4H,1-2H2,(H,6,7)	InChI=1S/C5H7NO2/c7-5-1-3-4(8-3)2-6-5/h3-4H,1-2H2,(H,6,7)/t3-,4+/m1/s1
