15
gdb 18176	4.67343	1.6117	1.30439	4.6091	72.98	-0.2517	-0.0423	0.2094	914.3592	0.120988	-325.545176	-325.538663	-325.537719	-325.575805	25.235	
N	 0.0614826924	-1.1359821291	-0.0048689114	-0.339087
C	 0.0088777386	 0.0212874374	 0.007066194	 0.195672
C	-0.0198491683	 1.4428599401	 0.0077830691	 0.225217
C	-1.1276147043	 2.1999655938	 0.0800854253	-0.169743
C	-0.8054616485	 3.6734951308	 0.0235320924	-0.267926
C	 0.7230510937	 3.7145902194	 0.0137639955	-0.043137
C	 1.458523968	 3.130259219	 1.1906965379	-0.276095
C	 1.2232107854	 2.2788223821	-0.039595397	-0.141922
H	-2.1338073333	 1.8127211616	 0.1842381229	 0.121431
H	-1.2312200108	 4.1280472811	-0.8811578718	 0.124399
H	-1.2395810843	 4.2176137171	 0.8721847202	 0.125277
H	 1.2166093365	 4.4879744978	-0.5616685741	 0.097685
H	 2.4695090745	 3.4831311073	 1.362799527	 0.120936
H	 0.904788829	 2.882416277	 2.0906910606	 0.120586
H	 2.0623164815	 1.9605245747	-0.6459646806	 0.106708
135.9764	166.3552	280.6595	352.0839	437.8966	510.7384	558.6438	653.0692	711.7105	782.921	809.4289	840.7364	851.2714	901.2883	957.5163	988.1452	1006.8915	1057.6776	1074.8554	1097.9572	1103.6782	1167.0571	1185.5145	1205.9511	1266.0987	1318.2837	1359.6686	1377.0414	1467.0178	1481.1654	1657.8219	2338.3484	3018.4933	3046.7481	3128.3184	3184.5575	3191.2823	3215.4947	3219.0527
N#CC1=CCC2CC12	N#CC1=CC[C@H]2C[C@@H]12	
InChI=1S/C7H7N/c8-4-6-2-1-5-3-7(5)6/h2,5,7H,1,3H2	InChI=1S/C7H7N/c8-4-6-2-1-5-3-7(5)6/h2,5,7H,1,3H2/t5-,7+/m0/s1
