20
gdb 100613	2.19546	1.28454	0.90351	3.0668	86.65	-0.2262	-0.035	0.1911	1362.3033	0.168778	-399.340972	-399.330013	-399.329069	-399.377716	37.467	
C	-0.1775129221	 1.6520834382	-0.1055412611	-0.3774
C	-0.0535717413	 0.1323380208	 0.0559837525	-0.178443
N	-1.3299572023	-0.575540788	 0.0745848685	-0.104358
C	-2.0624159856	-0.7036405138	-1.1748769698	-0.328415
C	-2.0414280268	-0.7759572091	 1.2324945539	 0.330479
N	-3.278804528	-1.0967581168	 1.2208069135	-0.314984
C	-3.9936240882	-1.4054591318	 2.4387672266	-0.340709
C	-1.2776397486	-0.6315689536	 2.4696840883	 0.23139
N	-0.7412235517	-0.5263224425	 3.4891886586	-0.354812
H	 0.8164589014	 2.1092453093	-0.1361913284	 0.124972
H	-0.6983379393	 1.9143750398	-1.0313863023	 0.124887
H	-0.7277216687	 2.0898771244	 0.7328829602	 0.132594
H	 0.5391716076	-0.2848518593	-0.765820806	 0.113469
H	 0.4842280392	-0.099971831	 0.9785908485	 0.146795
H	-2.6493435657	-1.623830854	-1.1616524319	 0.152904
H	-2.7610804536	 0.1272765444	-1.3391416471	 0.130967
H	-1.3446713044	-0.7353918554	-1.9979634586	 0.120666
H	-4.3476087388	-2.4429843049	 2.3991915772	 0.130392
H	-3.413219424	-1.2758062209	 3.3624065603	 0.129341
H	-4.8865864191	-0.7723748459	 2.4989797271	 0.130265
57.55	58.9072	118.2439	124.6843	149.9902	165.5446	205.9115	224.7765	254.104	335.4533	380.6441	420.1205	435.1403	511.2869	610.5404	701.9676	720.4218	790.917	893.5367	991.0736	1071.4146	1082.3636	1108.6603	1132.4985	1149.515	1153.3593	1189.2581	1291.4452	1316.8856	1392.8021	1409.6467	1427.6705	1446.673	1457.558	1479.1372	1484.6994	1486.7727	1491.3294	1502.9104	1507.9787	1518.0882	1691.7206	2338.0452	3000.1805	3017.8207	3039.7067	3044.1818	3064.9253	3071.6432	3093.8032	3096.5982	3114.0489	3121.2812	3139.4019
CCN(C)C(=NC)C#N	CCN(C)C(=NC)C#N	
InChI=1S/C6H11N3/c1-4-9(3)6(5-7)8-2/h4H2,1-3H3	InChI=1S/C6H11N3/c1-4-9(3)6(5-7)8-2/h4H2,1-3H3
