16
gdb 123669	3.10958	2.22464	1.48489	3.409	73.85	-0.2174	-0.0329	0.1845	854.4816	0.128325	-396.844365	-396.838166	-396.837222	-396.874679	25.369	
C	-0.1179869111	 1.5204802956	-0.0799929518	-0.154559
C	 1.4490519236	 1.6763061614	 0.0417715917	-0.06774
N	 2.0281659218	 2.1781598074	 1.3008693836	-0.316418
C	 2.5052202315	 1.0170623711	 2.1404598237	-0.238991
C	 1.6558411611	-0.1156194227	 1.5937472011	 0.03818
C	 1.3447470615	 0.2184037631	 0.3174128772	 0.151112
N	 0.0113446017	-0.0294436003	 0.0306075943	-0.081718
N	-0.5270648438	-0.7047348581	 1.1367062548	-0.214465
C	 0.4540796492	-0.7897806991	 2.019955635	-0.052452
H	-0.6432459998	 1.9040226756	 0.7928573895	 0.149352
H	-0.5876013735	 1.8111781538	-1.019349319	 0.133106
H	 1.9367752651	 2.0649468917	-0.8551596488	 0.088608
H	 2.7503516115	 2.8713715197	 1.149350473	 0.219944
H	 3.5862071666	 0.8437461195	 2.0370232244	 0.106812
H	 2.3019993971	 1.2128075699	 3.1982683034	 0.119608
H	 0.2760812575	-1.3199191388	 2.9482749479	 0.11962
159.2894	269.2832	315.6033	387.292	495.5696	545.6218	625.535	675.7571	718.8822	736.3965	776.5995	849.8922	870.9086	921.8718	933.4269	988.7134	995.58	1008.0465	1018.9998	1065.7482	1111.7611	1122.7683	1170.2681	1196.5892	1204.4534	1241.4153	1282.9533	1305.9581	1355.9015	1368.1544	1420.531	1440.787	1459.6232	1517.7163	1599.075	2989.9441	3063.7635	3073.6652	3092.5094	3183.9646	3211.2225	3555.9917
C1C2NCC3=C2N1N=C3	C1[C@H]2NC[C]3[C]2N1N=C3	
InChI=1S/C6H7N3/c1-4-2-8-9-3-5(7-1)6(4)9/h2,5,7H,1,3H2	InChI=1S/C6H7N3/c1-4-2-8-9-3-5(7-1)6(4)9/h2,5,7H,1,3H2/t5-/m1/s1
