23
gdb 78353	2.51147	1.3445	1.06641	0.2563	90.58	-0.2374	0.0964	0.3338	1271.2174	0.205168	-351.119502	-351.110339	-351.109394	-351.15278	36.152	
C	-0.0916602863	 1.4246387357	 0.0408879895	-0.423196
C	 0.0319035784	-0.0829501283	 0.1038073845	-0.001665
C	 1.3798217181	-0.6801102389	-0.2086414738	-0.068882
C	 0.8383245254	-0.6788277587	 1.2274729602	-0.151896
C	 0.7470052753	-2.190592673	 1.1860173081	 0.37908
C	 1.0792763613	-3.1330484901	 2.3002194091	-0.345246
C	-0.3355500554	-3.0569442795	 1.76483027	-0.324084
C	 1.3476199505	-2.2201553584	-0.2458118156	-0.07509
C	 0.5964512473	-2.9189296484	-1.372907386	-0.408264
H	 0.8279167708	 1.9100041631	 0.3859966273	 0.113558
H	-0.2824236416	 1.766091532	-0.98254606	 0.116102
H	-0.9123564363	 1.783237488	 0.6717502827	 0.115628
H	-0.8616190106	-0.6193015691	-0.2127491689	 0.076634
H	 2.1730132338	-0.0701392161	-0.6265256183	 0.076992
H	 1.166979409	-0.0897661727	 2.0769009643	 0.078423
H	 1.6671537497	-4.016513195	 2.0687034524	 0.106651
H	 1.2765236679	-2.715349207	 3.2828458613	 0.108242
H	-1.0946593142	-2.5878701858	 2.3829716503	 0.108113
H	-0.6973723111	-3.8916769641	 1.1725083692	 0.108103
H	 2.3716320834	-2.6081422142	-0.1954352142	 0.072648
H	-0.427627928	-2.5458049208	-1.4709126662	 0.11606
H	 1.1030972714	-2.763366521	-2.3318506415	 0.112136
H	 0.5410464215	-4.0002106277	-1.2017035844	 0.109951
117.3663	168.2881	194.0159	205.1844	216.4244	219.966	274.2878	350.0638	396.6727	454.7196	551.3467	573.3366	716.51	777.6853	789.6038	845.5973	859.3223	893.3803	906.657	924.6981	940.1585	980.4796	1004.2791	1013.8337	1047.0309	1047.7146	1072.4693	1083.5479	1100.5443	1117.0143	1138.334	1149.352	1186.1859	1198.2486	1226.2112	1241.301	1278.685	1304.7668	1357.8942	1388.7583	1407.9705	1416.0535	1427.8878	1461.7684	1492.3943	1494.6817	1495.5181	1502.9439	1504.721	3025.509	3026.3024	3033.8114	3087.6296	3088.8087	3089.2926	3102.7456	3112.9917	3116.1334	3121.6982	3161.9503	3173.0016	3193.4564	3209.3015
CC1C2C1C1(CC1)C2C	C[C@H]1[C@H]2[C@@H]1C1(CC1)[C@H]2C	
InChI=1S/C9H14/c1-5-7-6(2)9(3-4-9)8(5)7/h5-8H,3-4H2,1-2H3	InChI=1S/C9H14/c1-5-7-6(2)9(3-4-9)8(5)7/h5-8H,3-4H2,1-2H3/t5-,6-,7+,8+/m0/s1
