13
gdb 128566	7.26829	0.89477	0.80075	5.9124	69.02	-0.2577	-0.0528	0.2049	1326.1717	0.089093	-452.739295	-452.73138	-452.730436	-452.772348	27.62	
C	 0.0175692369	 1.4222054465	-0.0484933693	-0.25728
O	 0.007372456	-0.0151554471	-0.0098349951	-0.264676
C	 0.5786215637	-0.6567143386	-1.0106227953	 0.571947
C	 0.7161684645	-1.9971852245	-1.2338275144	-0.500993
C	 1.4133354408	-2.0270936437	-2.4677168796	 0.31674
N	 1.6782855118	-0.8247431057	-2.9514940489	-0.207349
O	 1.1357733118	 0.0499339252	-2.006185212	-0.212707
C	 1.8310623421	-3.1844110139	-3.1895231378	 0.258973
N	 2.1530658629	-4.1457895934	-3.7447086646	-0.319591
H	 1.0431222254	 1.8004463446	-0.0532584971	 0.15486
H	-0.5119639778	 1.7878427342	-0.9320962701	 0.154851
H	-0.4972632197	 1.7368021128	 0.8579785015	 0.154943
H	 0.3791962215	-2.8164256463	-0.6255407873	 0.150281
70.3162	138.5739	141.7464	172.3608	245.381	322.522	446.4496	516.0324	553.5159	598.8682	687.6651	717.9357	725.7289	785.8119	943.1637	988.1426	1023.5174	1049.8563	1175.4553	1182.307	1205.613	1325.7589	1451.9862	1463.6787	1487.1417	1496.3591	1507.7887	1658.2368	2367.6958	3051.0862	3128.6326	3171.4918	3306.3562
COC1=CC(=NO1)C#N	COc1cc(no1)C#N	
InChI=1S/C5H4N2O2/c1-8-5-2-4(3-6)7-9-5/h2H,1H3	InChI=1S/C5H4N2O2/c1-8-5-2-4(3-6)7-9-5/h2H,1H3
