18
gdb 61940	2.20727	0.9327	0.68663	6.0743	77.6	-0.2633	0.0116	0.275	1581.6975	0.146882	-398.147477	-398.137509	-398.136565	-398.18361	34.564	
C	-0.0827884361	 1.4651009594	 0.0389612395	-0.397769
C	-0.0178600985	-0.0641740441	-0.0002815154	 0.06533
C	 0.7842383448	-0.5144437784	-1.2414384077	-0.348421
C	 0.8166499507	-1.9680491543	-1.3878161094	 0.255707
N	 0.8262473945	-3.1212524721	-1.4656930398	-0.304592
N	 0.6460155526	-0.5988689133	 1.190826182	-0.312598
C	-0.1379216403	-0.4703642761	 2.4167017061	-0.269991
C	 0.5401386296	-1.1260061181	 3.5374050663	 0.261384
N	 1.0625499865	-1.6538837374	 4.4216017081	-0.292016
H	 0.920349517	 1.8861489305	 0.1564211064	 0.136927
H	-0.5247308648	 1.8529341166	-0.8836210993	 0.125068
H	-0.7014721442	 1.8217119273	 0.8664960908	 0.12732
H	-1.0456323787	-0.4576532296	-0.1060946932	 0.084012
H	 0.3423523222	-0.0790493171	-2.1430383296	 0.15641
H	 1.8120581782	-0.1431801596	-1.161971888	 0.165638
H	 0.8590140004	-1.5819955056	 1.046588447	 0.249741
H	-0.2541713108	 0.588873349	 2.670623757	 0.160205
H	-1.157490653	-0.8907274971	 2.3405944294	 0.137644
45.9719	76.0025	97.9294	124.038	159.0237	235.7501	272.033	334.2739	386.3186	394.3532	413.7768	453.4931	560.4171	571.9402	775.5557	853.8597	894.52	927.8336	953.5825	975.4391	1009.9254	1090.6821	1115.0365	1142.8288	1174.5904	1244.5775	1250.1888	1311.2504	1351.3845	1382.6817	1395.8194	1412.5849	1455.8627	1488.6769	1495.2919	1504.9407	1525.4456	2359.5811	2371.2502	2930.3695	2941.526	3044.5959	3053.8291	3066.7758	3099.885	3117.5192	3122.8779	3507.704
CC(CC#N)NCC#N	C[C@@H](CC#N)NCC#N	
InChI=1S/C6H9N3/c1-6(2-3-7)9-5-4-8/h6,9H,2,5H2,1H3	InChI=1S/C6H9N3/c1-6(2-3-7)9-5-4-8/h6,9H,2,5H2,1H3/t6-/m0/s1
