16
gdb 71197	2.60021	1.74274	1.4123	3.8533	68.08	-0.2444	-0.0304	0.214	945.2625	0.123219	-437.814473	-437.806873	-437.805929	-437.846653	29.07	
O	 0.1737657912	 1.4038627199	 0.0956299683	-0.470685
C	 0.0086713127	 0.0394499533	 0.0215574602	 0.33233
C	 0.5557793282	-0.8279520248	-1.1444024841	-0.320406
C	-0.4827308447	-1.8558570426	-0.7024728899	-0.016226
C	-1.3218917423	-0.8454794242	-0.0247402801	-0.138387
N	-0.5988988079	-1.8551786407	 0.8014192842	-0.140383
C	 0.3491505399	-0.8024835478	 1.276226639	-0.057467
C	 1.7824892999	-1.180840116	 1.5384681239	 0.138896
O	 2.2834670068	-2.2297627578	 1.220378909	-0.245456
H	 0.0826419982	 1.7821779846	-0.7855484173	 0.291419
H	 0.2768923675	-0.3991596799	-2.1127148816	 0.10077
H	 1.6148057869	-1.0991322016	-1.1409799175	 0.12382
H	-0.7727258868	-2.7726077548	-1.1964601749	 0.108598
H	-2.3841253872	-0.6507425279	 0.0380169278	 0.106415
H	-0.0749547622	-0.3278377883	 2.1687638293	 0.105061
H	 2.3762555898	-0.3849331215	 2.0455158237	 0.0817
80.7793	145.5156	225.8225	271.597	295.9304	369.4044	421.3828	505.7527	615.3119	675.3949	725.5359	774.5541	832.8238	841.4468	879.8374	928.1738	946.1021	962.7909	973.2077	1018.1337	1068.6449	1077.3152	1104.16	1127.4352	1145.6586	1181.4953	1205.273	1250.2136	1300.1575	1344.3889	1358.4425	1390.5148	1418.722	1496.325	1823.9403	2861.8823	3047.5375	3053.2398	3108.0442	3204.4709	3221.4863	3807.8311
OC12CC3C1N3C2C=O	O[C@]12C[C@@H]3[C@H]1N3[C@H]2C=O	
InChI=1S/C6H7NO2/c8-2-4-6(9)1-3-5(6)7(3)4/h2-5,9H,1H2	InChI=1S/C6H7NO2/c8-2-4-6(9)1-3-5(6)7(3)4/h2-5,9H,1H2/t3-,4+,5-,6+,7?/m1/s1
