20
gdb 31514	3.13053	1.03744	0.83192	1.6252	85.16	-0.1717	0.0481	0.2197	1439.5804	0.16983	-403.196012	-403.185714	-403.18477	-403.231958	36.776	
C	 0.2457022879	 1.5183488428	 0.2080486618	-0.363035
C	-0.0912127154	 0.0498524036	-0.1116974655	-0.300624
C	 0.5732674779	-0.4710161426	-1.3467945983	 0.331503
C	 0.0570768732	-0.7661498587	-2.5927761072	-0.381602
C	 1.1405800814	-1.2007309841	-3.407236816	 0.264035
O	 1.1043961775	-1.6009307384	-4.7174999652	-0.457399
C	 2.2955568038	-1.1673916192	-2.6596281936	 0.217647
C	 3.6962498676	-1.5245057808	-3.0209707829	-0.5136
N	 1.9217463343	-0.7158207588	-1.4036362004	-0.360241
H	 1.3210966808	 1.6562597845	 0.3623460522	 0.108587
H	-0.0550148105	 2.1726125158	-0.6155750922	 0.124565
H	-0.2672525568	 1.8495812353	 1.1168681088	 0.11019
H	 0.1739003678	-0.5755761903	 0.7524617352	 0.09973
H	-1.1735012256	-0.0548040813	-0.2389229767	 0.112298
H	-0.9804826411	-0.6800691493	-2.8824795996	 0.079979
H	 0.1955202253	-1.5461109972	-5.0238669609	 0.293128
H	 4.3865346513	-0.67607801	-2.9221941677	 0.118025
H	 4.0950960745	-2.3426530572	-2.4063527259	 0.117922
H	 3.7234794813	-1.8518071529	-4.062798614	 0.149356
H	 2.5574201549	-0.5978813011	-0.6340330519	 0.249539
39.1288	73.6752	116.3622	148.5095	194.5804	219.5494	245.8247	285.2169	304.1369	357.8696	440.1671	484.9307	582.0201	642.2228	667.6421	689.0619	749.117	782.4416	792.6254	949.8129	988.4262	1031.1353	1062.2867	1072.1053	1081.3413	1107.7577	1179.1102	1241.8833	1274.8285	1298.9283	1338.4633	1357.3997	1407.3938	1414.3397	1460.4736	1480.2486	1483.574	1492.9709	1496.2182	1502.8468	1510.6095	1558.0263	1685.3164	3004.2451	3006.5176	3033.4506	3043.1132	3071.6698	3102.2726	3113.1071	3124.6309	3228.3082	3676.1521	3852.5491
CCC1=CC(O)=C(C)N1	CCc1cc(O)c(C)[nH]1	
InChI=1S/C7H11NO/c1-3-6-4-7(9)5(2)8-6/h4,8-9H,3H2,1-2H3	InChI=1S/C7H11NO/c1-3-6-4-7(9)5(2)8-6/h4,8-9H,3H2,1-2H3
