19
gdb 83843	2.18701	1.87558	1.33614	2.5441	76.9	-0.2308	0.013	0.2438	1030.3412	0.161115	-419.192334	-419.184302	-419.183358	-419.225	31.079	
C	-0.3035157306	 1.4970461139	-0.0406679828	-0.428344
C	-0.0048849811	 0.0157403448	-0.0362572588	 0.01393
C	 0.6758055045	-0.6638824113	-1.1849909139	-0.117963
N	 1.3392304864	-0.5469979733	 0.1240110228	-0.122897
C	 2.4925030246	 0.3601944838	 0.1906463421	-0.167079
C	 3.1804556234	 0.4460269666	-1.1602534321	-0.089054
O	 2.2716839996	 0.8967347775	-2.177108801	-0.248667
C	 1.1414281211	 0.1453363968	-2.352741595	 0.379402
N	 0.4917567149	 0.1493498384	-3.4380320263	-0.52138
H	 0.3811372944	 2.0683593302	-0.6709755862	 0.137707
H	-1.3166700166	 1.6590869021	-0.421147565	 0.136484
H	-0.2605947029	 1.9065897849	 0.9750664717	 0.123398
H	-0.7560873061	-0.5757293184	 0.4852629997	 0.097914
H	 0.361566538	-1.666430167	-1.4593654572	 0.118351
H	 2.2053651131	 1.3649746222	 0.5211609258	 0.112097
H	 3.1986228661	-0.0347025427	 0.9307407343	 0.113895
H	 3.9974224498	 1.1709553929	-1.1513856126	 0.122565
H	 3.5874422019	-0.5325480917	-1.4465723181	 0.119291
H	 0.9608838993	 0.7443897902	-4.1244811173	 0.220349
66.7968	141.3099	202.7265	238.9193	314.1495	374.25	422.9699	477.3937	497.0698	530.9862	681.0648	687.7947	742.8854	788.7687	810.4202	905.2523	916.0758	945.3493	975.2092	1006.9215	1059.4635	1068.4397	1108.2003	1121.8889	1128.1767	1162.8027	1181.2227	1250.1582	1284.2213	1312.9246	1323.0802	1367.5684	1381.5474	1412.5248	1422.8467	1424.4332	1490.8114	1499.738	1502.9441	1516.4803	1750.2487	3024.2375	3029.3569	3037.7528	3065.7004	3100.2884	3108.817	3110.6639	3133.7077	3153.0706	3461.6401
CC1C2N1CCOC2=N	C[C@H]1[C@@H]2N1CCO[C]2[NH]	
InChI=1S/C6H10N2O/c1-4-5-6(7)9-3-2-8(4)5/h4-5,7H,2-3H2,1H3	InChI=1S/C6H10N2O/c1-4-5-6(7)9-3-2-8(4)5/h4-5,7H,2-3H2,1H3/t4-,5-,8?/m0/s1
