23
gdb 110933	2.58899	1.03245	0.88961	1.2212	85.97	-0.2478	0.0749	0.3227	1442.9603	0.205663	-388.253763	-388.244067	-388.243123	-388.288569	36.541	
C	 0.0767968841	 1.7159714575	 0.1018904216	-0.377949
C	 0.228668277	 0.2061281955	-0.1139629427	-0.202245
C	 0.6803983025	-0.5267253377	 1.1480307247	 0.057438
C	-0.2574526444	-0.6658849141	 2.3990484055	-0.26952
C	 0.0508268455	-2.1695335302	 2.4430176328	-0.062865
C	-0.3841456174	-2.8685505144	 1.1882221408	 0.031121
C	-1.6735646655	-2.6325396456	 0.4403662449	-0.117832
O	-2.6435622801	-3.5135489276	 0.9988481961	-0.423904
C	 0.8820478207	-2.0508800317	 1.1527108067	-0.13772
H	 1.022023473	 2.165902534	 0.4261288359	 0.1126
H	-0.2349321962	 2.222288352	-0.8169377293	 0.109957
H	-0.6719078945	 1.9334513237	 0.8715946258	 0.117401
H	-0.7174310016	-0.2061533782	-0.4812974476	 0.095301
H	 0.9657448269	 0.021219838	-0.9070811462	 0.093103
H	 1.6166654919	-0.06574539	 1.4855183863	 0.071595
H	 0.1151744138	-0.1211697743	 3.2687142794	 0.100808
H	-1.3102612897	-0.3976442517	 2.2593296773	 0.096496
H	 0.2817033417	-2.7216494044	 3.3459949225	 0.08351
H	-0.1578491829	-3.933416123	 1.2221173058	 0.092799
H	-2.0024192923	-1.5886866686	 0.5256864631	 0.08572
H	-1.5221380598	-2.8413826534	-0.6313644918	 0.083373
H	-3.4634876066	-3.4010538102	 0.5088965203	 0.283349
H	 1.8252747939	-2.5300110558	 0.9123074079	 0.077464
72.2951	83.0235	136.1968	170.679	218.7219	241.6695	273.6554	276.5886	399.8498	406.7694	478.2886	568.745	690.3404	751.8163	779.256	803.072	829.1767	899.4171	938.18	952.5442	972.4561	997.0988	1017.4363	1027.0814	1058.0074	1065.7042	1078.3999	1103.1696	1135.991	1138.2121	1189.1983	1198.2796	1241.9143	1256.8246	1268.7446	1271.8584	1297.5671	1303.4372	1331.4077	1356.6206	1397.1366	1411.0382	1425.3539	1480.0717	1484.7855	1492.8418	1500.1323	1507.3085	1526.7692	2967.6396	3019.2931	3021.8458	3025.5641	3029.2046	3045.3384	3065.2214	3096.7261	3101.4736	3105.9232	3123.6298	3159.2935	3183.2978	3825.9917
CCC1CC2C(CO)C12	CC[C@H]1C[C@H]2[C@@H](CO)[C@@H]12	
InChI=1S/C8H14O/c1-2-5-3-6-7(4-9)8(5)6/h5-9H,2-4H2,1H3	InChI=1S/C8H14O/c1-2-5-3-6-7(4-9)8(5)6/h5-9H,2-4H2,1H3/t5-,6-,7+,8-/m0/s1
