18
gdb 126490	2.10995	1.4889	0.93728	4.8867	74.96	-0.231	-0.0211	0.2099	1271.4354	0.147353	-435.23341	-435.224206	-435.223262	-435.267813	32.839	
C	-0.1775894582	 1.5273380133	 0.0629020665	-0.382627
C	 0.1244424813	 0.0200964984	-0.019363129	-0.309716
C	 0.7414652631	-0.52340989	 1.2301094721	 0.275194
N	 2.0099846878	-0.7995340997	 1.3397199491	-0.14225
O	 2.2050650473	-1.2584378985	 2.606977558	-0.172225
N	 1.0228230458	-1.2638902198	 3.3259274985	-0.186268
C	 0.1148365101	-0.8243030934	 2.4898364456	 0.329134
N	-1.2216632273	-0.7471392256	 2.7889441821	-0.385115
C	-1.6440185273	-0.9325588262	 4.1702194525	-0.324242
H	 0.7426849719	 2.0975904134	 0.2160477109	 0.141721
H	-0.6491061386	 1.8752726241	-0.8604955777	 0.12613
H	-0.8535887043	 1.7644572979	 0.8919237249	 0.111889
H	-0.8001158391	-0.5327898396	-0.2271456071	 0.117029
H	 0.8068979933	-0.1751147623	-0.8508077217	 0.138484
H	-1.7224110535	-0.038028232	 2.2768100703	 0.248208
H	-1.2154247539	-0.1857387395	 4.8524363364	 0.130564
H	-2.7336388504	-0.8794881879	 4.2154297576	 0.125365
H	-1.325636278	-1.9196609427	 4.514146401	 0.158725
72.8033	109.5881	145.6984	165.2391	173.9399	224.0408	287.4013	320.5394	453.0948	464.9644	522.8312	611.7783	641.1858	765.6019	777.1198	798.364	911.0517	950.7798	976.5678	1036.7887	1076.5371	1079.5506	1107.1859	1150.0306	1184.149	1256.805	1290.0324	1357.4796	1408.4368	1414.9762	1456.8516	1479.3015	1481.2058	1494.8139	1501.315	1506.85	1520.9732	1585.0571	1649.6233	3012.743	3035.0116	3038.0459	3091.2881	3096.0532	3110.9312	3124.4882	3137.4649	3623.7646
CCC1=NON=C1NC	CCc1nonc1NC	
InChI=1S/C5H9N3O/c1-3-4-5(6-2)8-9-7-4/h3H2,1-2H3,(H,6,8)	InChI=1S/C5H9N3O/c1-3-4-5(6-2)8-9-7-4/h3H2,1-2H3,(H,6,8)
