18
gdb 113623	3.08862	1.11589	0.90203	3.4327	81.56	-0.2548	-0.0395	0.2153	1316.6672	0.145386	-401.913254	-401.903751	-401.902807	-401.947877	34.342	
C	 0.4543912614	 1.3944750061	-0.1137397613	-0.388874
C	 0.1796383096	-0.1080993614	 0.020443125	-0.196403
C	 0.6182371869	-0.6757890295	 1.3533778393	 0.014446
C	 0.9063681144	-2.1446214086	 1.5245511858	-0.267875
N	 1.9665495475	-1.1624044077	 1.5749599279	-0.081914
C	 3.0668275961	-1.0630139467	 0.7468878507	 0.243919
O	 3.4262246359	-0.0358917278	 0.206756962	-0.335168
C	 3.8270083999	-2.3001190538	 0.6465280831	 0.268442
C	 4.4664801109	-3.3112285236	 0.5238128324	-0.432577
H	 1.5262321883	 1.5911959831	-0.04603852	 0.161764
H	 0.089409205	 1.7694038824	-1.0745036476	 0.112222
H	-0.0534464967	 1.9580761959	 0.6768539652	 0.110355
H	-0.8959290641	-0.3028992756	-0.0822643065	 0.103974
H	 0.6761842584	-0.6555166168	-0.7887153446	 0.109058
H	 0.2082457229	-0.1583748985	 2.2209178157	 0.104935
H	 0.6717129099	-2.6461698192	 2.4597098038	 0.128301
H	 0.849186804	-2.7721945709	 0.6378662606	 0.132802
H	 5.0425663897	-4.1973706472	 0.4120364885	 0.212592
59.0459	113.0327	130.4814	148.9999	230.0109	233.5647	263.313	289.0101	395.6834	452.8656	540.1629	578.1498	653.2656	692.6819	710.2053	763.8814	784.5249	818.7798	924.191	963.78	996.7498	1065.946	1072.0896	1124.5842	1128.6035	1163.43	1184.501	1198.0262	1293.4444	1343.0119	1391.9443	1411.5195	1443.8714	1479.208	1498.5823	1514.0372	1517.541	1745.9367	2222.9972	3024.086	3038.8722	3066.4869	3102.312	3103.148	3111.426	3141.2777	3191.76	3496.0315
CCC1CN1C(=O)C#C	CC[C@H]1CN1C(=O)C#C	
InChI=1S/C7H9NO/c1-3-6-5-8(6)7(9)4-2/h2,6H,3,5H2,1H3	InChI=1S/C7H9NO/c1-3-6-5-8(6)7(9)4-2/h2,6H,3,5H2,1H3/t6-,8?/m0/s1
