16
gdb 75811	3.27591	1.29174	1.0839	0.7897	66.18	-0.2613	0.0044	0.2657	1106.3727	0.123195	-474.985796	-474.977394	-474.97645	-475.019538	30.116	
O	 0.1967854274	 1.2679992858	-0.2670290098	-0.424719
C	 0.1642911613	-0.1142921865	-0.0357466154	-0.082437
C	 0.1316463194	-0.5639325183	 1.4125738651	 0.396199
N	 0.885006146	-0.3683520406	 2.3932971995	-0.553401
O	-1.075713229	-1.2169569606	 1.2892346433	-0.273475
C	-1.2389143391	-0.7550266451	-0.088519222	 0.341704
C	-2.4966999922	 0.0402865834	-0.4446933678	-0.127508
O	-2.81473692	-0.8928657461	-1.5031196437	-0.271974
C	-1.7240443385	-1.7607381146	-1.1343296741	-0.135755
H	 0.8367601782	 1.6488366715	 0.3455523606	 0.307168
H	 0.9052528685	-0.6531535697	-0.6427889306	 0.105858
H	 0.5159921109	-0.7778337235	 3.2529575473	 0.236319
H	-3.2510116943	 0.0466833576	 0.3513085694	 0.116323
H	-2.3251993444	 1.0556658015	-0.8137447632	 0.133568
H	-1.0452127366	-1.9606371686	-1.9719138604	 0.113558
H	-2.0663502576	-2.7090176561	-0.7013501883	 0.118572
67.8935	83.8416	129.6442	197.0938	258.0493	285.6076	357.205	433.6109	475.5479	546.9474	685.1621	791.239	835.1367	871.917	882.0927	913.9778	955.042	977.3405	1022.4629	1030.029	1099.1596	1134.2153	1148.4336	1165.7868	1172.4685	1217.2	1242.5245	1296.6964	1304.0766	1351.6834	1381.7036	1400.7303	1495.6757	1521.3105	1835.0204	3009.7879	3016.4548	3033.2675	3067.4132	3097.2138	3480.8131	3805.0303
OC1C(=N)OC11COC1	O[C@H]1[C]([NH])OC21COC2	
InChI=1S/C5H7NO3/c6-4-3(7)5(9-4)1-8-2-5/h3,6-7H,1-2H2	InChI=1S/C5H7NO3/c6-4-3(7)5(9-4)1-8-2-5/h3,6-7H,1-2H2/t3-/m0/s1
