21
gdb 80962	2.26808	1.37315	1.32928	2.2519	83.89	-0.2441	-0.0248	0.2193	1147.2211	0.181136	-387.056245	-387.04711	-387.046166	-387.089813	34.66	
C	-0.2301587998	 1.5623098118	 0.1128490809	-0.448487
C	 0.0012750536	 0.0599563844	 0.0315871346	 0.019838
C	 1.1806815115	-0.5442772898	-0.7912242217	-0.086786
C	 2.1493618949	-0.0915612733	 0.3367155678	-0.276864
C	 0.9106984611	-0.694701921	 1.077488975	 0.324476
C	 0.6841719915	-0.8209162529	 2.5605235664	-0.524422
C	 1.0006939972	-1.8655630384	 0.0466300687	-0.101843
C	-0.1545682907	-2.7883741743	-0.210314192	 0.117127
O	-1.207564064	-2.7888522002	 0.381905999	-0.252776
H	 0.6777257223	 2.1469294174	 0.280023585	 0.116047
H	-0.6881715634	 1.9246589774	-0.8143282184	 0.118387
H	-0.926261044	 1.7926404027	 0.9270240633	 0.121998
H	-0.9557662447	-0.4377964995	-0.1347662172	 0.089901
H	 1.344791664	-0.485474763	-1.8683332054	 0.073666
H	 3.0862670496	-0.6493666309	 0.4261144624	 0.087904
H	 2.3269165687	 0.9784412739	 0.4435829095	 0.096102
H	 0.6413023521	 0.1651970202	 3.0359134846	 0.117927
H	-0.2581995097	-1.3399785422	 2.7587974208	 0.142247
H	 1.4922375464	-1.3862893132	 3.0381105311	 0.115283
H	 1.9187588485	-2.46724037	 0.0884962645	 0.077018
H	 0.0372676849	-3.536441219	-1.0162681689	 0.073255
92.5563	150.5492	165.8405	189.6928	207.2198	212.7879	322.5818	340.3871	379.9007	461.6589	561.6074	624.2341	702.1969	753.1159	776.8644	803.1229	846.2285	893.6319	935.4721	1002.9538	1009.5447	1022.3009	1023.9087	1068.061	1097.079	1108.355	1123.7298	1139.3472	1175.6867	1196.6851	1216.4052	1221.244	1248.621	1311.1241	1387.4108	1407.8178	1410.3643	1427.6613	1438.8604	1487.513	1494.1728	1496.9924	1500.4526	1533.8691	1810.5219	2846.1452	3020.0272	3029.4621	3034.1351	3058.8702	3089.0998	3091.6703	3092.393	3101.9641	3111.9841	3117.0306	3136.2803
CC1C2CC1(C)C2C=O	C[C@H]1[C@H]2C[C@]1(C)[C@H]2C=O	
InChI=1S/C8H12O/c1-5-6-3-8(5,2)7(6)4-9/h4-7H,3H2,1-2H3	InChI=1S/C8H12O/c1-5-6-3-8(5,2)7(6)4-9/h4-7H,3H2,1-2H3/t5-,6+,7-,8-/m0/s1
