21
gdb 95202	2.17667	1.83965	1.32054	1.8172	77.22	-0.2507	0.0767	0.3275	1059.0147	0.183938	-424.215078	-424.206741	-424.205797	-424.247475	33.44	
C	 0.0441100407	 1.5897684109	 0.0111629153	-0.392446
C	 0.0775511059	 0.0587340752	 0.0032555614	-0.014881
C	 0.7361624313	-0.5159287314	-1.248937558	-0.050004
C	 2.2126765344	-0.3631648699	-1.557816887	-0.314043
C	 1.6658979022	-1.6975048808	-1.1271000862	 0.080652
O	 2.0082448711	-2.1603558767	 0.1569332639	-0.272811
C	 0.9545904975	-2.014257272	 1.1091857918	-0.1158
C	 0.6876060405	-0.5226197805	 1.3032273426	 0.113458
O	 1.8929818777	 0.1245344797	 1.6947717617	-0.44217
H	 1.0548029433	 1.996530893	 0.0873814404	 0.132487
H	-0.4185400461	 1.9755437747	-0.9029987958	 0.1053
H	-0.5307140336	 1.9634696382	 0.865633399	 0.108758
H	-0.9604751393	-0.3050614598	-0.0076408948	 0.071072
H	 0.0859576953	-0.5215765383	-2.1195281265	 0.088715
H	 2.5100025356	-0.2363251994	-2.593183883	 0.111637
H	 2.8304564277	 0.1700006777	-0.8446822084	 0.12089
H	 1.6044339343	-2.5036316299	-1.8548193879	 0.092118
H	 0.0474669006	-2.5434957194	 0.7841500735	 0.095631
H	 1.3219917804	-2.4703316638	 2.0324521094	 0.113786
H	-0.0279196237	-0.3703764871	 2.1208083156	 0.077794
H	 2.6118506142	-0.3936923305	 1.3115569231	 0.289855
109.5469	188.062	215.1113	241.9836	253.2276	362.5648	393.0246	412.234	454.6815	476.5624	595.7494	638.1491	699.6524	770.0637	804.4504	823.099	882.429	909.8799	952.1389	978.5418	1015.7433	1031.4806	1056.0091	1062.6203	1083.8211	1098.9799	1127.2682	1139.3571	1172.791	1204.5935	1238.1731	1247.1377	1284.6541	1322.3768	1344.5339	1348.954	1388.1904	1398.3285	1406.609	1415.9638	1431.7971	1480.149	1491.0297	1494.4589	1500.8907	2991.5912	3006.6429	3034.2821	3037.6987	3097.5049	3098.3064	3122.2047	3129.8872	3136.3673	3141.835	3226.0223	3769.9992
CC1C2CC2OCC1O	C[C@H]1[C@H]2C[C@H]2OC[C@H]1O	
InChI=1S/C7H12O2/c1-4-5-2-7(5)9-3-6(4)8/h4-8H,2-3H2,1H3	InChI=1S/C7H12O2/c1-4-5-2-7(5)9-3-6(4)8/h4-8H,2-3H2,1H3/t4-,5+,6+,7+/m0/s1
