19
gdb 93768	3.02938	1.3112	0.94232	5.3679	82.36	-0.2109	-0.0032	0.2077	1239.4685	0.161087	-419.263184	-419.254304	-419.25336	-419.29652	33.531	
C	-0.0483533128	 1.4630521164	 0.0579191979	-0.340645
N	 0.0172251599	 0.0361899594	-0.1948994765	-0.122105
C	-1.2217844249	-0.7115490913	-0.0644570425	-0.156876
C	-1.1521631667	-2.0446184645	-0.8067738044	-0.313842
C	 0.1195006154	-2.7785196969	-0.4658062606	 0.3503
N	 0.071622807	-4.151841095	-0.5587607158	-0.567994
C	 1.2073341192	-2.0770159302	-0.0875144877	-0.281332
C	 1.2335723307	-0.6113358047	-0.009189449	 0.415168
O	 2.2729042974	 0.0078971572	 0.1794310758	-0.414046
H	 0.9573939939	 1.8692587613	-0.0393006571	 0.164373
H	-0.7164103243	 1.9451885999	-0.6645767747	 0.110762
H	-0.4187958911	 1.6857053519	 1.0703376988	 0.109611
H	-1.4609616962	-0.8965469009	 0.9969948371	 0.103079
H	-2.0361725425	-0.1043742616	-0.4732754235	 0.107508
H	-2.0254525835	-2.6532806237	-0.5471154628	 0.112266
H	-1.1849641876	-1.8752582126	-1.8920415572	 0.126351
H	-0.6364269567	-4.5456500937	-1.1585426569	 0.253268
H	 0.9549514838	-4.637527105	-0.6023818227	 0.257487
H	 2.1567056388	-2.5577868963	 0.1198099119	 0.086667
98.8793	132.6136	155.9293	203.4881	249.8959	318.4988	356.3245	387.8241	415.8645	468.938	506.594	537.9131	580.698	691.5589	739.0858	758.7529	833.6668	863.4131	924.4548	1005.0879	1059.5952	1078.7318	1108.1449	1154.1063	1177.0827	1220.5203	1243.8868	1288.5275	1292.0433	1341.1104	1358.3742	1423.2369	1427.8042	1455.231	1468.5099	1496.2268	1503.8069	1529.8267	1647.8691	1698.0469	1741.5749	2954.561	2988.7803	3014.7877	3058.76	3063.6697	3069.314	3164.0027	3193.5458	3574.8161	3683.176
CN1CCC(N)=CC1=O	CN1CCC(=CC1=O)N	
InChI=1S/C6H10N2O/c1-8-3-2-5(7)4-6(8)9/h4H,2-3,7H2,1H3	InChI=1S/C6H10N2O/c1-8-3-2-5(7)4-6(8)9/h4H,2-3,7H2,1H3
