25
gdb 118841	2.50168	0.8243	0.69674	1.3636	90.33	-0.255	0.0788	0.3339	1757.2777	0.226892	-389.481657	-389.470361	-389.469417	-389.518515	41.192	
C	 0.1293179094	 1.5879538196	-0.1056381354	-0.380533
C	 0.2336490892	 0.0602104142	-0.1120442221	-0.164805
C	 0.4415392427	-0.5239411454	 1.29396481	-0.250216
C	 0.6347420504	-2.036151005	 1.3243109333	 0.342315
C	-0.5567226113	-2.8381432896	 0.8253142988	-0.459632
C	 2.0118243057	-2.5931327234	 1.0347320506	-0.318571
C	 1.4448452669	-2.684511896	 2.4321238226	-0.031435
C	 2.071994764	-1.9371199611	 3.5797493515	-0.110623
O	 3.1244840551	-2.7466686365	 4.0947819703	-0.419965
H	 1.0373959332	 2.0460002969	 0.3027087939	 0.111666
H	-0.0169630558	 1.9831113995	-1.1158072604	 0.110444
H	-0.7133130156	 1.9256806899	 0.5083615437	 0.112555
H	-0.6730798156	-0.3607586443	-0.5616050635	 0.098273
H	 1.0667235567	-0.2514270282	-0.754955654	 0.098481
H	 1.3109007087	-0.0293852738	 1.7412298506	 0.090002
H	-0.4186274867	-0.254366527	 1.9241860467	 0.088457
H	-0.7751316139	-2.6295521847	-0.2273046808	 0.117262
H	-0.3717154587	-3.9129674977	 0.913595241	 0.112917
H	-1.4590727614	-2.6066943787	 1.404480888	 0.110611
H	 2.0996409791	-3.5010619882	 0.4470946953	 0.105226
H	 2.8200508064	-1.8850688696	 0.8760203659	 0.104957
H	 1.0964985512	-3.669086631	 2.7350822788	 0.084526
H	 2.4583710042	-0.9624367859	 3.2473773653	 0.081995
H	 1.315684415	-1.7399324431	 4.3575323331	 0.083256
H	 3.4840635012	-2.3060079211	 4.8705112569	 0.282836
59.1554	76.2898	93.6041	116.1029	182.8169	215.3114	239.9947	248.5847	269.8643	307.0264	319.9878	366.3508	423.4886	450.6076	568.8225	716.0705	746.8569	832.7108	871.7626	884.5174	896.8791	928.6333	948.2595	992.8499	1032.0117	1049.7431	1061.2313	1068.7277	1075.7846	1108.2415	1133.6277	1152.6613	1170.6627	1237.8434	1256.1119	1276.312	1302.7434	1303.546	1332.4585	1344.6277	1393.9604	1409.397	1411.5465	1419.4279	1469.1925	1478.0365	1492.9028	1495.5523	1496.4785	1498.8135	1508.8884	1510.5252	1520.5621	2961.0171	2996.5294	3001.662	3023.5479	3026.073	3028.0753	3050.5886	3068.8066	3085.9616	3094.8775	3099.9744	3102.166	3122.5749	3135.4507	3204.9425	3823.8692
CCCC1(C)CC1CO	CCC[C@@]1(C)C[C@H]1CO	
InChI=1S/C8H16O/c1-3-4-8(2)5-7(8)6-9/h7,9H,3-6H2,1-2H3	InChI=1S/C8H16O/c1-3-4-8(2)5-7(8)6-9/h7,9H,3-6H2,1-2H3/t7-,8-/m0/s1
