21
gdb 77552	2.77617	1.26472	1.06318	3.0281	84.93	-0.242	-0.0245	0.2175	1228.2066	0.180941	-387.061702	-387.052402	-387.051458	-387.095713	35.03	
C	-0.1340337632	 1.5723258628	 0.0734031618	-0.445563
C	 0.0379347164	 0.0626064548	 0.0197255135	-0.025143
C	 0.8718533981	-0.6444198059	-1.1087800304	 0.319561
C	 0.589605607	-0.6345670073	-2.5872198152	-0.51205
C	 2.1747386996	-0.163893392	-0.3882212305	-0.311972
C	 1.239576432	-0.6583350992	 0.7436855922	 0.247507
C	 0.9114400835	-1.8874103052	-0.164756311	-0.30491
C	 1.5002296282	-0.6844075683	 2.2066156163	 0.028416
O	 2.4911473386	-0.2440295325	 2.7365545235	-0.250601
H	 0.7969134708	 2.1226878262	-0.0798813529	 0.126488
H	-0.8428973565	 1.8977049534	-0.6964925376	 0.121232
H	-0.5439300917	 1.879803498	 1.0414138168	 0.124107
H	-0.9257799823	-0.4276620499	 0.2046243363	 0.065156
H	 0.6145383673	 0.3853032518	-2.9866856154	 0.122304
H	 1.3342114703	-1.224002695	-3.1333297453	 0.122576
H	-0.3978988085	-1.0567073463	-2.8044686982	 0.118711
H	 3.0701795844	-0.7659961035	-0.5621384272	 0.097074
H	 2.4134860022	 0.89902568	-0.4188941923	 0.101334
H	-0.0384817005	-2.3980170788	 0.0180007518	 0.092837
H	 1.7303498174	-2.5949960714	-0.3191483543	 0.098131
H	 0.6855780972	-1.1505748716	 2.8105320582	 0.064806
61.5132	146.4355	167.695	187.4828	200.4758	212.9285	303.6255	347.3161	409.1189	459.802	543.9559	576.3585	625.4402	700.3182	732.8712	785.915	832.4837	914.1266	973.0833	994.639	1007.5798	1021.6151	1037.2298	1091.3307	1104.2434	1110.6637	1142.3385	1146.0008	1158.0906	1177.3752	1193.8768	1212.871	1293.3177	1342.087	1403.7183	1410.2702	1422.7259	1424.6354	1487.7131	1488.3953	1491.6584	1494.0628	1510.2184	1549.0172	1813.2489	2847.4249	3025.7279	3026.9331	3036.431	3048.644	3070.954	3090.8806	3093.7244	3094.8628	3116.4737	3121.4469	3140.7423
CC1C2(C)CC1(C2)C=O	C[C@H]1[C@@]2(C)C[C@@]1(C2)C=O	
InChI=1S/C8H12O/c1-6-7(2)3-8(6,4-7)5-9/h5-6H,3-4H2,1-2H3	InChI=1S/C8H12O/c1-6-7(2)3-8(6,4-7)5-9/h5-6H,3-4H2,1-2H3/t6-,7-,8+/m0/s1
