15
gdb 46336	3.28395	1.33061	1.2188	3.1402	60.85	-0.2663	-0.0098	0.2565	1031.3192	0.113377	-494.91209	-494.90467	-494.903725	-494.944759	26.768	
O	-0.1508121283	 0.0743919395	 0.19211712	-0.321988
C	-0.0708315369	 1.2414372203	-0.0082319686	 0.407286
O	-1.0585188416	 2.1128281978	-0.3904662508	-0.241054
C	-0.1321892223	 3.2451989255	-0.4637303589	-0.124517
C	 1.0112294774	 2.3476196139	 0.0575045423	 0.196717
C	 1.6369971076	 2.6012123448	 1.444696287	-0.182056
O	 2.9401202472	 3.0607269019	 1.1263992147	-0.226955
C	 3.2969932039	 2.3254643599	-0.0093643123	 0.010453
O	 2.1156857262	 2.2072685308	-0.7985120496	-0.286421
H	 0.0005069808	 3.5780039304	-1.4941683607	 0.139767
H	-0.4640275347	 4.0616679535	 0.1806699208	 0.126842
H	 1.1251239307	 3.3651021537	 2.0315768175	 0.135279
H	 1.6735632879	 1.6609287572	 2.014249487	 0.128677
H	 4.0551167752	 2.8742220149	-0.5735786834	 0.131334
H	 3.660823387	 1.319628416	 0.258588105	 0.106637
64.0485	131.3098	164.7917	265.3398	275.8839	359.2019	441.1606	624.6619	715.2477	734.3721	755.0372	823.3024	904.128	913.0968	963.474	978.1476	1028.6615	1084.9021	1108.9451	1137.8506	1148.7882	1162.4043	1190.0669	1200.0482	1243.7314	1282.043	1350.7904	1361.186	1429.305	1503.2817	1511.1383	1542.8318	1942.3317	2969.7387	3004.7426	3077.001	3103.0065	3124.3871	3146.3854
O=C1OCC11COCO1	O=C1OC[C@]21COCO2	
InChI=1S/C5H6O4/c6-4-5(2-8-4)1-7-3-9-5/h1-3H2	InChI=1S/C5H6O4/c6-4-5(2-8-4)1-7-3-9-5/h1-3H2/t5-/m0/s1
