17
gdb 58073	1.8143	1.71749	1.12077	4.419	74.49	-0.272	-0.0024	0.2695	1138.7152	0.13333	-417.970979	-417.961069	-417.960125	-418.005216	36.69	
C	 0.0897252439	 1.5224053555	 0.1841604505	-0.410495
C	-0.0252570139	 0.0116320366	 0.0015874409	-0.001393
N	-1.4246819454	-0.3565109785	-0.2305261763	-0.536259
C	 0.7457986853	-0.4672959561	-1.2889806834	 0.044272
O	 0.0999593345	 0.0406170183	-2.4320460374	-0.440261
C	 2.1481870721	-0.0487815579	-1.2769652942	 0.326525
C	 3.301290653	 0.2811713753	-1.2372827995	-0.404502
C	 0.6951317224	-1.9612825567	-1.2969065352	 0.268619
N	 0.5899198438	-3.1119131349	-1.2718151219	-0.347086
H	 1.1306628632	 1.8181225349	 0.3238871917	 0.144601
H	-0.3063788241	 2.0451855438	-0.6901104019	 0.140101
H	-0.4760778103	 1.8351269378	 1.067630092	 0.115882
H	 0.4245036811	-0.5011035133	 0.8627595452	 0.095824
H	-1.5859070857	-1.3403575077	-0.0394660298	 0.256543
H	-2.0447672227	 0.1831788369	 0.3614148979	 0.243016
H	-0.8460441556	-0.0084059789	-2.1968657345	 0.295366
H	 4.3232340085	 0.5717732751	-1.2180977342	 0.209248
96.0365	126.8176	138.0401	169.5535	213.6985	251.8902	291.4008	306.7728	346.7346	394.4146	495.8571	503.309	525.6074	577.7371	592.8408	648.5609	651.3579	682.9455	723.4861	859.4184	920.0424	987.7404	1000.8679	1023.8235	1082.1907	1134.9074	1158.7178	1266.5927	1348.0186	1381.4404	1412.572	1431.3499	1490.2059	1499.9815	1650.4153	2249.3634	2347.9661	3009.7536	3048.9349	3119.8965	3146.7503	3498.922	3513.5748	3600.092	3604.7121
CC(N)C(O)(C#C)C#N	C[C@@H](N)[C@@](O)(C#C)C#N	
InChI=1S/C6H8N2O/c1-3-6(9,4-7)5(2)8/h1,5,9H,8H2,2H3	InChI=1S/C6H8N2O/c1-3-6(9,4-7)5(2)8/h1,5,9H,8H2,2H3/t5-,6-/m1/s1
