23
gdb 105512	1.76965	1.59571	1.10622	2.6212	81.09	-0.2536	0.0689	0.3225	1242.2627	0.204319	-425.409898	-425.39956	-425.398616	-425.444889	38.971	
C	 0.0785436129	-1.0510567925	 1.7456687744	-0.427305
C	 0.0630855932	-0.370766739	 0.375310529	 0.058445
O	 1.1056150825	-0.8908693415	-0.4520835705	-0.437194
C	-1.3018626196	-0.4274770928	-0.3409673393	 0.353436
C	-2.4095315949	 0.201380064	 0.4994127831	-0.14324
O	-2.0356905454	 1.5359642822	 0.8167975736	-0.426415
C	-1.3053586906	 0.1216793508	-1.8021242425	-0.261918
C	-2.1060259899	-1.1286414677	-2.2547865224	-0.21192
C	-1.7658687905	-1.8108500609	-0.9015799932	-0.279085
H	 1.0994518397	-1.0581570533	 2.1372660582	 0.1221
H	-0.5568937437	-0.5253464233	 2.4630846226	 0.126595
H	-0.2698364541	-2.0900900096	 1.6801726905	 0.105871
H	 0.3183937557	 0.6858998756	 0.5020146803	 0.107133
H	 1.042250146	-1.8516211856	-0.4381480303	 0.275362
H	-3.3519231751	 0.1822178704	-0.0704831083	 0.08423
H	-2.5720668781	-0.3939571486	 1.4117807302	 0.084176
H	-2.7555409778	 1.9453939271	 1.3049175616	 0.288524
H	-1.7672856651	 1.1011327755	-1.9448121725	 0.098329
H	-0.2957342335	 0.1358936683	-2.2149976269	 0.116929
H	-3.1760044759	-0.9336968427	-2.3655784175	 0.098899
H	-1.7598617789	-1.6351118619	-3.1586655279	 0.096542
H	-0.9407094071	-2.5229291477	-0.9965726226	 0.07957
H	-2.5818670297	-2.3099397868	-0.3695955297	 0.090935
68.9832	101.7659	123.1098	209.8599	212.0714	246.7314	260.9262	287.3823	307.102	355.408	376.1868	432.1551	476.8825	580.0546	630.292	707.3742	792.9713	852.204	879.9394	912.4094	935.4044	945.3461	962.8572	998.1884	1047.0478	1067.3675	1077.216	1094.3199	1148.8028	1186.1911	1190.4529	1212.4316	1244.5363	1259.1228	1266.0374	1271.3287	1288.0955	1305.2491	1331.1805	1365.2962	1396.3909	1421.3478	1453.2168	1472.6701	1483.9339	1492.2269	1496.7382	1505.1673	1526.2007	2967.8905	2994.5604	3023.9379	3042.8968	3059.9056	3068.34	3075.396	3085.284	3100.0461	3108.1811	3121.5497	3137.3105	3807.9111	3834.381
CC(O)C1(CO)CCC1	C[C@@H](O)C1(CO)CCC1	
InChI=1S/C7H14O2/c1-6(9)7(5-8)3-2-4-7/h6,8-9H,2-5H2,1H3	InChI=1S/C7H14O2/c1-6(9)7(5-8)3-2-4-7/h6,8-9H,2-5H2,1H3/t6-/m1/s1
