22
gdb 22391	4.07696	0.76429	0.69653	0.6786	86.56	-0.2375	0.0162	0.2537	1670.2539	0.192694	-404.305905	-404.295722	-404.294778	-404.34296	36.785	
C	-0.2135009016	 1.5036069984	-0.0050471996	-0.468249
C	-0.0069815762	 0.0129331076	-0.0613288576	 0.356708
C	 0.0503043142	-0.7935875457	 1.2117520403	-0.304851
C	 1.2957644588	-0.5240490862	 2.0622318737	 0.06474
C	 1.4389784317	 0.7952516397	 2.8778460785	-0.218908
C	 2.0858025576	-0.0304969111	 4.0213610307	-0.215169
C	 1.4573005016	-1.304921587	 3.3970170339	-0.231891
N	 0.1427057627	-0.6487092642	-1.1461145353	-0.165455
O	 0.116906848	 0.1839113675	-2.2804725561	-0.402113
H	 0.7440224219	 2.0313090975	-0.0871573386	 0.142572
H	-0.8315098019	 1.8336280662	-0.8427454698	 0.146959
H	-0.6799431668	 1.8010417251	 0.9364304958	 0.119813
H	-0.8447319003	-0.5853492007	 1.8154019263	 0.09403
H	 0.0252655343	-1.8541482967	 0.9411261735	 0.114528
H	 2.1880158539	-0.6702791528	 1.4425201166	 0.07902
H	 2.0179609474	 1.6123228604	 2.4404015183	 0.095576
H	 0.4597604797	 1.1853395621	 3.1764017074	 0.09643
H	 3.1769865098	-0.0395759498	 3.9459846346	 0.102794
H	 1.8119623114	 0.2214889692	 5.0484273135	 0.095689
H	 0.4817400672	-1.5291091682	 3.8421910832	 0.09743
H	 2.0506962496	-2.2225201981	 3.3821779248	 0.09658
H	 0.1866412771	-0.4553947031	-2.9968145941	 0.30377
25.5179	41.6128	82.0136	111.8759	158.6578	274.5327	298.9918	346.4388	356.3012	402.0221	431.1862	534.842	636.5216	650.6479	760.9062	788.0277	821.3621	877.5726	903.2012	934.288	959.1502	972.0885	980.8906	1010.2736	1036.4784	1068.3909	1111.2257	1134.9426	1195.9039	1214.5244	1254.601	1259.2499	1263.8974	1276.0683	1278.3839	1304.1908	1331.2482	1376.6055	1396.5596	1399.8381	1468.6625	1476.082	1478.7411	1484.7354	1486.474	1509.7573	1725.4921	3005.1085	3037.6736	3040.0199	3042.5143	3048.5343	3057.9579	3080.5868	3095.6237	3099.2323	3104.2089	3116.4906	3140.1135	3823.8193
CC(CC1CCC1)=NO	CC(=NO)CC1CCC1	
InChI=1S/C7H13NO/c1-6(8-9)5-7-3-2-4-7/h7,9H,2-5H2,1H3	InChI=1S/C7H13NO/c1-6(8-9)5-7-3-2-4-7/h7,9H,2-5H2,1H3
