21
gdb 118320	2.29873	0.95074	0.74314	1.7967	80.99	-0.2513	-0.052	0.1993	1605.6209	0.178263	-424.265317	-424.254312	-424.253368	-424.302546	37.953	
C	 0.0342844264	 1.6362016873	-0.0145811293	-0.380246
C	 0.0198607983	 0.1060200202	-0.0558679755	-0.185678
C	-1.3983939942	-0.4749173998	-0.0148197736	-0.186043
C	-1.4250360807	-2.0054465372	-0.0537363185	-0.176411
C	-0.8572676835	-2.6170943956	 1.2261203456	 0.152287
O	-0.3762150958	-3.717579844	 1.3057966986	-0.247067
C	-2.8612290735	-2.563298872	-0.2037709877	 0.356828
C	-2.9609726566	-3.9777038428	-0.7298183061	-0.484622
O	-3.8210242166	-1.8939975338	 0.0917162323	-0.286724
H	 1.0560384776	 2.0256482809	-0.0527085836	 0.115818
H	-0.5166777892	 2.0589425894	-0.8618281878	 0.118712
H	-0.4326545314	 2.0116740595	 0.9024450358	 0.11876
H	 0.5275021078	-0.2431591332	-0.964832811	 0.100463
H	 0.6085935883	-0.2869502449	 0.784354898	 0.100485
H	-1.9227511816	-0.1363126188	 0.8868668275	 0.116918
H	-1.9851680694	-0.0881042808	-0.8549569245	 0.110296
H	-0.8252383245	-2.4070137802	-0.8790901091	 0.107206
H	-0.9573411522	-1.9638083506	 2.1219055381	 0.095479
H	-2.2246981498	-4.6222056293	-0.2402023335	 0.16512
H	-3.9723082942	-4.3610026105	-0.5893989249	 0.143267
H	-2.7224732953	-3.9777142538	-1.8005206306	 0.14515
60.3892	66.4442	86.0781	98.3023	128.3344	166.018	225.934	245.3408	290.4103	312.3559	313.9175	413.5162	542.3904	585.3499	617.4117	733.8936	784.6269	846.8551	903.4177	939.0911	966.8942	1006.5482	1023.9723	1058.7804	1101.7906	1131.0094	1152.9513	1173.5487	1232.5106	1254.0432	1301.9994	1327.5094	1351.1137	1386.4793	1395.2611	1412.8736	1418.3398	1466.7882	1473.9661	1482.1587	1491.4383	1499.1941	1509.0778	1800.337	1830.8724	2882.7731	3010.9668	3031.8617	3036.55	3037.6439	3041.8854	3049.6057	3081.0837	3099.7148	3104.3475	3106.4819	3156.0794
CCCC(C=O)C(C)=O	CCC[C@@H](C=O)C(=O)C	
InChI=1S/C7H12O2/c1-3-4-7(5-8)6(2)9/h5,7H,3-4H2,1-2H3	InChI=1S/C7H12O2/c1-3-4-7(5-8)6(2)9/h5,7H,3-4H2,1-2H3/t7-/m0/s1
