16
gdb 19088	3.38098	2.42493	1.83294	3.2922	63.09	-0.2456	0.0875	0.3332	756.9977	0.13231	-383.714786	-383.708589	-383.707645	-383.744895	24.648	
C	 0.1828095959	 1.3896382749	-0.4212653735	-0.275673
C	 1.3429706546	 2.1353303608	 0.2029725736	 0.055369
O	 1.2600259862	 2.4442607759	 1.5960787588	-0.246319
C	 2.2467289176	 1.500278401	 1.1737446795	 0.055373
C	 2.0736795239	 0.0609646597	 1.6097873248	-0.275677
C	 0.7760115847	-0.5875527331	 1.1771369397	 0.055373
O	-0.4444349781	 0.0246073454	 1.6000109546	-0.246319
C	-0.1277475096	 0.0474993252	 0.2063656515	 0.055369
H	-0.7142867646	 2.021619446	-0.3935334703	 0.126817
H	 0.4129820475	 1.225774344	-1.4825450818	 0.108001
H	 1.7343588996	 2.9525460676	-0.4054156886	 0.088218
H	 3.2699104641	 1.873545812	 1.2439939462	 0.088216
H	 2.9041373138	-0.5247057139	 1.1932829487	 0.108002
H	 2.1672518456	-0.0031759257	 2.7016119511	 0.126816
H	 0.7691623458	-1.6765167461	 1.2497617395	 0.088217
H	-0.7663910969	-0.5975171938	-0.3996464739	 0.088218
146.2709	283.88	332.9408	344.3357	404.9265	498.8525	593.9909	723.5119	771.4264	814.0221	824.4581	869.3559	898.0948	950.9993	969.6655	971.2912	1044.5734	1052.8232	1063.412	1137.3421	1150.8702	1166.1964	1249.246	1266.5416	1295.3806	1307.6132	1351.8484	1374.6261	1383.6042	1413.4435	1461.436	1461.6969	1467.9895	1512.3367	3019.6488	3020.3553	3055.18	3055.5713	3084.6424	3086.5034	3096.2413	3100.3901
C1C2OC2CC2OC12	C1[C@H]2O[C@H]2C[C@H]2O[C@@H]12	
InChI=1S/C6H8O2/c1-3-5(7-3)2-6-4(1)8-6/h3-6H,1-2H2	InChI=1S/C6H8O2/c1-3-5(7-3)2-6-4(1)8-6/h3-6H,1-2H2/t3-,4+,5+,6-
