18
gdb 28438	3.00591	1.36926	0.95187	0.8008	83.79	-0.2185	-0.014	0.2045	1228.0109	0.147438	-402.026958	-402.018082	-402.017137	-402.060732	32.985	
C	-0.0766080546	 1.50241924	 0.0475972368	-0.467267
C	-0.0292568615	-0.0026674695	-0.023343008	 0.30389
C	-0.0676405818	-0.6878650469	-1.2381054067	-0.162094
C	-0.0207989416	-2.0759183806	-1.241306151	-0.152499
C	 0.0633998307	-2.7430342516	-0.0262212401	 0.295624
O	 0.1089916723	-4.1062463499	-0.0374547	-0.438474
C	 0.0978993342	-1.9882455406	 1.1583281828	 0.210569
C	 0.1890583406	-2.6696810186	 2.5013950909	-0.523046
N	 0.0520421055	-0.6555726545	 1.1440451435	-0.360057
H	 0.8164619639	 1.8939138285	 0.5456937836	 0.134294
H	-0.1417356571	 1.9499555386	-0.9474437302	 0.114016
H	-0.9396733211	 1.8345379106	 0.6339034747	 0.13429
H	-0.1335339767	-0.1411838525	-2.172626779	 0.094594
H	-0.048070628	-2.6486867756	-2.1617170557	 0.109178
H	 0.1657987951	-4.4294752662	 0.867166942	 0.299128
H	 1.1017816227	-3.2736460687	 2.5952965872	 0.128103
H	 0.2032519564	-1.9108165444	 3.2842773716	 0.151635
H	-0.666874889	-3.3332176082	 2.6851145876	 0.128117
50.9291	127.9302	152.9249	208.4408	280.4771	317.178	322.5451	359.7845	464.35	472.0461	497.8977	582.3254	597.721	716.4324	764.0934	779.2921	858.1441	942.3326	968.6159	977.0912	1041.1434	1050.5714	1061.6012	1135.6504	1171.1968	1243.4767	1278.2448	1295.701	1361.5979	1395.1505	1410.73	1438.2482	1476.8584	1482.9525	1489.5827	1496.8449	1505.2625	1628.2519	1644.7503	3006.7076	3037.3016	3053.3408	3095.3957	3120.0884	3144.4903	3181.2663	3199.5936	3831.4006
CC1=CC=C(O)C(C)=N1	Cc1ccc(O)c(C)n1	
InChI=1S/C7H9NO/c1-5-3-4-7(9)6(2)8-5/h3-4,9H,1-2H3	InChI=1S/C7H9NO/c1-5-3-4-7(9)6(2)8-5/h3-4,9H,1-2H3
