19
gdb 70874	2.43759	1.60633	1.40055	2.0188	75.72	-0.2308	0.0723	0.3031	1030.2589	0.157621	-422.975701	-422.96692	-422.965975	-423.008371	34.269	
C	-0.1160793351	 1.5151210075	-0.0402536934	-0.529826
C	-0.0134770802	 0.0284807139	 0.0196390549	 0.252426
C	 0.0075348082	-1.0642064098	-1.0395519157	-0.190778
C	 1.3014552728	-1.6679482889	-0.4972975421	-0.303187
C	 0.9158159137	-0.9635992461	 0.836007235	 0.340787
O	 1.8661766634	-0.4942052216	 1.7297838927	-0.477641
C	-0.3624119536	-1.7183651167	 1.3213500338	-0.372617
C	-1.0279059196	-1.0739079983	 0.1081039764	 0.35376
O	-2.3792772343	-0.9256758156	-0.1320196475	-0.465955
H	 0.7962652869	 1.9697134305	-0.4415631254	 0.122809
H	-0.952809464	 1.8104116776	-0.6817457404	 0.130017
H	-0.2912974456	 1.9423783907	 0.9532327685	 0.127794
H	-0.3225747735	-0.9727131862	-2.0671286898	 0.08444
H	 1.4216232238	-2.7584569881	-0.4851349688	 0.079153
H	 2.1825213256	-1.198818122	-0.9453821329	 0.102585
H	 2.2606779973	-1.2488936221	 2.1812861109	 0.280358
H	-0.3165079954	-2.8122668863	 1.399047054	 0.076064
H	-0.7382758045	-1.2827670796	 2.2512691204	 0.105812
H	-2.7035667558	-1.7272569189	-0.5576408607	 0.284001
163.8959	172.61	184.5544	187.7841	226.7111	295.5462	345.2462	373.1774	416.15	466.7126	545.4652	574.2704	632.2291	684.5283	733.7313	759.8947	856.3861	898.821	919.5674	935.134	968.3786	1052.1176	1065.8486	1077.3091	1116.7079	1131.3906	1140.5534	1183.2957	1195.3023	1229.3075	1239.4218	1277.7168	1294.804	1356.0266	1373.5573	1413.7185	1479.9671	1483.3485	1493.7673	1498.495	1525.7193	3014.7758	3022.7871	3027.298	3086.6163	3090.9933	3099.3688	3101.0806	3191.1768	3787.8263	3796.5639
CC12C3CC1(O)CC23O	C[C@@]12[C@H]3C[C@]1(O)C[C@@]23O	
InChI=1S/C7H10O2/c1-5-4-2-6(5,8)3-7(4,5)9/h4,8-9H,2-3H2,1H3	InChI=1S/C7H10O2/c1-5-4-2-6(5,8)3-7(4,5)9/h4,8-9H,2-3H2,1H3/t4-,5-,6+,7+/m1/s1
