21
gdb 104225	2.6031	1.29149	1.18188	2.2254	78.75	-0.2449	0.0617	0.3066	1175.5021	0.181502	-424.197177	-424.187908	-424.186964	-424.230781	36.051	
O	-0.1042517651	 1.4300324096	-0.0121957081	-0.437982
C	-0.0024919251	 0.0103417755	 0.09714157	-0.136194
C	-1.4243855058	-0.5340077596	 0.0102061125	 0.36094
O	-2.2157294787	 0.0681245517	 1.0069670656	-0.489866
C	-1.9931068113	-0.5477949369	-1.4459645736	-0.278108
C	-1.6681238992	-2.0683294343	-1.5344054408	-0.316586
C	-1.4866985042	-2.066926397	-0.011345719	 0.332852
C	-0.7895877741	-3.0499330271	 0.885029559	-0.347815
C	-2.2878911918	-2.8733389318	 0.9652306419	-0.309626
H	 0.7359231171	 1.8203230904	 0.243240589	 0.293856
H	 0.62293337	-0.4101389789	-0.7032500009	 0.092532
H	 0.4344178504	-0.2772780528	 1.0640728754	 0.092407
H	-1.9367508275	 0.992886579	 1.0408659546	 0.282779
H	-3.0679309678	-0.3583788611	-1.422943616	 0.109584
H	-1.5207056362	 0.1191528606	-2.1702844005	 0.099318
H	-2.4540299952	-2.7148593799	-1.9327479389	 0.10026
H	-0.7410946139	-2.274846908	-2.0790580339	 0.09758
H	-0.4001822411	-3.9579665126	 0.4350751875	 0.108178
H	-0.1899502433	-2.6689902763	 1.7060828747	 0.108965
H	-2.6934282584	-2.3483989391	 1.8227372852	 0.130862
H	-2.9192751887	-3.6636441113	 0.5712526362	 0.106063
88.9417	122.5346	158.6433	231.4825	259.9014	267.2311	304.4829	354.3944	414.6956	451.0247	463.969	522.5608	580.6843	725.3178	751.743	783.2531	868.4021	889.3314	911.2104	921.2194	946.981	955.7503	993.6665	1038.5577	1052.6509	1069.0899	1074.8982	1120.5002	1156.0172	1186.32	1189.1499	1207.0033	1231.7045	1238.3505	1262.0131	1269.9128	1300.0025	1350.5248	1418.8284	1447.0821	1462.5004	1477.5334	1496.0464	1504.1622	1507.4628	2990.1635	3031.0788	3046.07	3071.7327	3095.6237	3120.0063	3129.1345	3132.741	3199.5389	3222.4658	3761.685	3842.2224
OCC1(O)CCC11CC1	OC[C@@]1(O)CCC21CC2	
InChI=1S/C7H12O2/c8-5-7(9)4-3-6(7)1-2-6/h8-9H,1-5H2	InChI=1S/C7H12O2/c8-5-7(9)4-3-6(7)1-2-6/h8-9H,1-5H2/t7-/m0/s1
