18
gdb 88706	3.49732	0.97319	0.83735	1.6685	79.68	-0.2496	0.0188	0.2684	1394.658	0.145576	-401.862666	-401.853491	-401.852546	-401.897257	33.775	
C	-0.2672525535	 1.5349278321	 0.042637339	-0.395888
C	-0.0169700235	 0.0462597092	 0.0691827939	 0.008952
N	 1.3333238253	-0.4227217354	-0.2736672081	-0.345284
C	 0.817990663	-0.6535010768	 1.0887239216	-0.076302
C	 1.5411390098	 0.0644376172	 2.1773316817	 0.090865
O	 0.9125834129	 0.0997043884	 3.458471233	-0.249782
C	 2.1358663373	-0.645666979	 3.3354125436	-0.168222
C	 2.0625755058	-2.0737387574	 3.4904919657	 0.343557
C	 2.0360614445	-3.267069471	 3.634752859	-0.429708
H	 0.6063451201	 2.0937571348	 0.3848563947	 0.126447
H	-0.4931619822	 1.8647905429	-0.9769209514	 0.120795
H	-1.1182660148	 1.7962786841	 0.6801742683	 0.125335
H	-0.8487268216	-0.5491904199	-0.3068495435	 0.086438
H	 1.3014313973	-1.2825524046	-0.8134870123	 0.236079
H	 0.509803975	-1.660700665	 1.3583041801	 0.09902
H	 2.0246080898	 0.9940247866	 1.8792611335	 0.10563
H	 2.9889448968	-0.1768279212	 3.8256335558	 0.11816
H	 2.0065523282	-4.320492355	 3.7675309354	 0.203907
41.4719	99.6759	142.3981	183.6239	213.8128	250.5839	316.9524	395.6574	429.513	523.0961	553.4958	612.9737	628.4711	671.5932	774.3487	806.7356	853.4037	863.1202	932.6003	969.7953	997.7318	1010.7492	1037.4599	1074.9947	1110.3157	1140.6591	1157.7899	1222.8056	1254.03	1268.1753	1279.6416	1331.8091	1398.1751	1412.2086	1444.3746	1483.6675	1493.3956	1511.4614	2238.3639	3039.6492	3100.3904	3103.6325	3108.5974	3122.6605	3133.4934	3144.2044	3501.6605	3515.0357
CC1NC1C1OC1C#C	C[C@H]1N[C@H]1[C@H]1O[C@H]1C#C	
InChI=1S/C7H9NO/c1-3-5-7(9-5)6-4(2)8-6/h1,4-8H,2H3	InChI=1S/C7H9NO/c1-3-5-7(9-5)6-4(2)8-6/h1,4-8H,2H3/t4-,5+,6-,7+/m1/s1
