18
gdb 41286	2.9075	2.08534	1.8398	2.7365	74.53	-0.2336	0.0672	0.3008	838.7503	0.150939	-401.848457	-401.842452	-401.841508	-401.878321	26.491	
C	 0.0886810121	 1.5125807008	-0.1454908283	-0.173471
O	 1.5464001571	 1.51848428	 0.0338523275	-0.345676
C	 1.5172379419	 0.2078685125	 0.5947961637	 0.430161
C	 1.7812248337	-0.3112441078	 1.9931995435	-0.308412
C	 0.9951858938	-1.543664629	 1.4381916069	-0.069062
C	-0.4460729571	-0.9572249066	 1.2611350067	-0.300386
C	 0.0390273653	 0.0125735838	 0.1749190644	 0.195734
N	 0.505768519	-0.8598096863	-0.9533516132	-0.339438
C	 1.5973433221	-1.2032359975	-0.0437560397	-0.075731
H	-0.3967491144	 2.169059089	 0.5869061721	 0.104513
H	-0.1913839504	 1.7933495292	-1.1634118667	 0.118945
H	 2.8372161702	-0.5368702615	 2.1681495835	 0.105315
H	 1.3590601424	 0.215614311	 2.8538436806	 0.09809
H	 1.1247375309	-2.530068351	 1.8792405652	 0.072863
H	-1.1992404784	-1.6713003083	 0.9153065709	 0.093853
H	-0.8043644828	-0.4825926443	 2.1782101842	 0.10782
H	-0.1321342099	-1.6233292054	-1.1761633675	 0.208209
H	 2.4678420344	-1.7623940688	-0.3920221238	 0.076673
261.7263	333.8338	381.9765	454.7379	495.7589	514.5038	610.4398	685.1812	700.7388	753.3968	803.0638	836.0558	860.5256	907.895	924.5937	937.4373	946.5536	958.995	1001.2574	1019.3675	1031.8329	1070.3416	1104.8339	1118.673	1134.2078	1145.0843	1180.0467	1185.1028	1190.2	1241.913	1255.6288	1269.9004	1299.1651	1304.0569	1333.0391	1367.3404	1487.5098	1495.6407	1508.1068	3027.1298	3050.0216	3054.2437	3097.8057	3103.762	3108.0702	3110.1037	3140.3743	3452.5001
C1OC23CC4CC12NC34	C1O[C@@]23C[C@H]4C[C@@]12N[C@@H]34	
InChI=1S/C7H9NO/c1-4-2-7-5(4)8-6(1,7)3-9-7/h4-5,8H,1-3H2	InChI=1S/C7H9NO/c1-4-2-7-5(4)8-6(1,7)3-9-7/h4-5,8H,1-3H2/t4-,5-,6-,7-/m1/s1
