17
gdb 7746	3.44607	1.75178	1.18665	3.6804	71.56	-0.2373	0.0186	0.2559	998.1823	0.143459	-363.920051	-363.912283	-363.911339	-363.952478	28.675	
C	 0.1031733822	 1.5246662482	 0.0469915624	-0.471838
C	-0.0220198134	 0.0288392724	-0.0372395312	 0.306726
C	-0.0159635045	-0.6300030195	-1.1941286244	-0.145228
C	-0.1379335479	-2.1163996238	-1.320640975	-0.200754
N	-0.2656894547	-2.7788176758	-0.0369280459	-0.317938
C	-0.2842093035	-2.2157007561	 1.2044913605	 0.397896
O	-0.3970383236	-2.8887949408	 2.2129921071	-0.381144
C	-0.1569211834	-0.6999019663	 1.2731380124	-0.412357
H	 0.9792538898	 1.8131654999	 0.6418560067	 0.127805
H	 0.1964679682	 1.9804838766	-0.9420726717	 0.122693
H	-0.7691395882	 1.9648959548	 0.5468740984	 0.127794
H	 0.0820311708	-0.0921683587	-2.1331718483	 0.088108
H	-1.0065389314	-2.3600352054	-1.9534040997	 0.118235
H	 0.7394496896	-2.511303317	-1.8577601666	 0.118235
H	-0.3530953012	-3.7847292303	-0.0266239289	 0.24562
H	 0.699093567	-0.4837205152	 1.9267128915	 0.138068
H	-1.0292241058	-0.334348943	 1.8318361726	 0.13808
67.4411	111.6641	185.1342	252.8004	298.1708	431.8539	449.7816	478.4813	526.6839	527.6933	659.5049	726.6758	811.3976	849.5623	927.8678	952.0907	962.5684	1029.6804	1054.0574	1069.8709	1132.3663	1168.1518	1217.8747	1247.8402	1308.5409	1343.5872	1384.9155	1401.4251	1415.6002	1450.5	1478.0257	1490.1119	1492.1589	1529.3201	1763.5357	1790.9973	2969.8146	2978.3022	3016.309	3022.3916	3042.6964	3064.5559	3113.7057	3165.4839	3609.8572
CC1=CCNC(=O)C1	CC1=CCNC(=O)C1	
InChI=1S/C6H9NO/c1-5-2-3-7-6(8)4-5/h2H,3-4H2,1H3,(H,7,8)	InChI=1S/C6H9NO/c1-5-2-3-7-6(8)4-5/h2H,3-4H2,1H3,(H,7,8)
