20
gdb 37134	3.56543	1.57414	1.47759	1.3732	80.79	-0.1993	0.0687	0.2681	979.905	0.173517	-365.92832	-365.921417	-365.920473	-365.959001	29.702	
C	 0.0337594191	 1.4716503834	-0.0554818208	-0.252561
C	 1.2749230156	 0.6757862843	-0.0203881471	-0.095313
N	-0.0890957691	 0.0060457329	 0.0447604198	-0.184449
C	 0.2589190595	-0.6327256895	-1.2996561555	 0.290714
C	 0.6639235802	 0.2438532667	-2.4493197612	-0.40541
C	 1.6490054108	-0.031590992	-1.3405631191	 0.236319
C	 2.6468825435	-1.166743251	-1.4554765078	-0.289472
C	 1.7959080664	-2.3747785406	-1.9545444514	-0.221212
C	 0.3611004721	-2.1363743248	-1.3951771542	-0.276818
H	-0.2545080864	 1.9587889213	 0.8724931191	 0.122495
H	-0.2949566963	 2.002059215	-0.941853558	 0.119021
H	 1.9350851907	 0.6718071767	 0.8419158996	 0.09411
H	 0.8464545836	-0.288285025	-3.3769458573	 0.121245
H	 0.2550655858	 1.2333401526	-2.6121393051	 0.116595
H	 3.5011082487	-0.9668174182	-2.1112210727	 0.099142
H	 3.0524429198	-1.3813402763	-0.4592820203	 0.104158
H	 1.7752622687	-2.3920453312	-3.0495193448	 0.105067
H	 2.211517544	-3.3358620223	-1.6391913956	 0.101245
H	 0.2713019968	-2.5407579457	-0.381366837	 0.116533
H	-0.4080833133	-2.6152301963	-2.0103066304	 0.098592
208.6221	216.0821	296.6558	311.1685	467.3406	488.079	510.4761	592.587	604.895	695.0727	713.9418	755.7992	810.984	834.3487	857.6706	892.9218	904.8551	931.7073	954.2348	966.0923	996.9078	1028.3478	1039.0627	1052.9675	1067.8066	1110.5318	1132.5941	1183.795	1202.0701	1209.6858	1227.8607	1233.5695	1255.5949	1313.2115	1321.0501	1335.5466	1364.4024	1381.0366	1472.4329	1487.3206	1491.8141	1506.6268	1525.4374	3031.6386	3041.6783	3047.9377	3070.0694	3081.9161	3099.2895	3121.6126	3143.4901	3151.8882	3203.8704	3218.4938
C1C2N1C13CC21CCC3	C1[C@H]2N1[C@@]13C[C@@]21CCC3	
InChI=1S/C8H11N/c1-2-7-5-8(7,3-1)9-4-6(7)9/h6H,1-5H2	InChI=1S/C8H11N/c1-2-7-5-8(7,3-1)9-4-6(7)9/h6H,1-5H2/t6-,7+,8+,9?/m1/s1
