15
gdb 52545	4.10063	0.7309	0.6274	6.8381	75.36	-0.2527	-0.0391	0.2136	1718.2887	0.110663	-453.983384	-453.973262	-453.972317	-454.021682	33.836	
C	 0.1319680128	 1.4304215133	 0.1375361242	-0.505901
C	 0.0529250006	-0.0125054844	-0.0140058948	 0.170365
C	-0.0269795195	-1.2088290865	-0.1412581543	-0.091842
C	-0.1863224685	-2.6446956201	-0.3133189285	 0.298357
O	-1.2201181873	-3.1602008862	-0.6579932428	-0.302828
N	 1.0036095572	-3.3286804005	-0.0492664602	-0.402126
C	 1.1739900597	-4.7267183309	 0.0220089963	 0.467343
N	 2.5154827482	-5.0641917806	 0.1348716396	-0.573244
O	 0.2768797036	-5.5286568602	 0.0437581507	-0.327029
H	 0.7930562847	 1.8667378911	-0.6190397762	 0.160892
H	-0.8551028359	 1.8913193434	 0.029157446	 0.166987
H	 0.527088018	 1.7014199286	 1.122365015	 0.160685
H	 1.7875123292	-2.7501821611	 0.2125188124	 0.257766
H	 3.1963667621	-4.4937933608	-0.3438085679	 0.252518
H	 2.6727048651	-6.0574437352	 0.0504240406	 0.268059
9.2743	44.6313	73.489	88.457	164.6265	202.5926	303.3565	381.2165	392.1985	403.1093	415.7858	547.2793	563.3915	586.9396	618.162	743.7694	780.1154	880.6277	941.1423	1048.4869	1051.8064	1093.0593	1111.061	1210.7204	1319.3239	1410.7697	1470.5136	1473.8191	1502.3763	1626.9897	1789.1761	1862.466	2350.8952	3033.1419	3096.4893	3101.7189	3572.5535	3621.8255	3688.2212
CC#CC(=O)NC(N)=O	CC#CC(=O)NC(=O)N	
InChI=1S/C5H6N2O2/c1-2-3-4(8)7-5(6)9/h1H3,(H3,6,7,8,9)	InChI=1S/C5H6N2O2/c1-2-3-4(8)7-5(6)9/h1H3,(H3,6,7,8,9)
