19
gdb 39734	3.71979	1.53997	1.34074	0.9012	87.18	-0.2039	-0.0325	0.1714	1009.1576	0.159883	-348.632847	-348.625879	-348.624935	-348.663744	29.487	
C	-0.2113905919	 1.3648331422	-0.318577149	-0.342129
C	 1.2023410881	 0.9189864257	 0.0376766048	-0.340063
C	 0.0913445122	-0.0769606985	-0.0961792619	 0.371709
C	-0.3134329375	-1.0667164702	 1.0324644075	-0.138138
C	-1.2764053321	-2.2814425689	 0.6821893611	-0.05524
C	-2.1666583724	-2.3386990814	-0.5740108352	-0.262897
C	-1.3305405347	-1.4616889302	-1.5003668535	-0.086648
C	-0.0925901889	-1.3018654467	-0.9867440226	-0.063779
C	 0.1310394709	-2.2454538913	 0.2134058521	-0.103291
H	-0.7808179375	 1.8942170475	 0.4390422868	 0.112704
H	-0.3963087873	 1.7045839696	-1.3327392418	 0.114522
H	 1.9588427519	 0.9512125402	-0.7389949006	 0.117626
H	 1.570591701	 1.1544407937	 1.031614171	 0.110389
H	-0.0862481242	-0.8965561299	 2.0827788281	 0.08651
H	-1.5476946577	-2.8616616789	 1.5630564446	 0.077053
H	-2.3354849935	-3.3839473601	-0.8716674908	 0.107908
H	-3.1551820386	-1.8770686754	-0.4599400198	 0.109403
H	-1.8143818488	-0.683035377	-2.0835418671	 0.096742
H	 0.9461176111	-2.9384762704	 0.3740427463	 0.087621
148.8911	232.2253	246.1306	332.1068	406.4269	461.297	558.082	636.1278	713.365	742.1515	767.1379	797.6874	802.9424	830.9837	861.7606	893.4361	905.4475	931.0857	944.3923	959.9498	982.8786	992.2672	1017.6891	1047.1243	1061.0773	1071.1828	1078.3852	1095.9993	1176.6145	1182.3793	1191.9825	1217.9714	1253.9301	1273.3889	1287.8097	1366.715	1376.0865	1455.8834	1472.4005	1499.1647	1580.9265	2995.9647	3049.1354	3121.9126	3124.1026	3125.8395	3134.0692	3162.3433	3196.9256	3200.8665	3216.0523
C1CC11C2C3CC=C1C23	C1CC21[C@H]1[C@H]3C[CH][C]2[C@@H]13	
InChI=1S/C9H10/c1-2-6-7-5(1)8(7)9(6)3-4-9/h2,5,7-8H,1,3-4H2	InChI=1S/C9H10/c1-2-6-7-5(1)8(7)9(6)3-4-9/h2,5,7-8H,1,3-4H2/t5-,7-,8-/m0/s1
