25
gdb 59997	2.2897	1.03103	0.82836	1.3591	89.16	-0.2606	0.0718	0.3324	1545.6621	0.227104	-389.486596	-389.475714	-389.47477	-389.522416	40.897	
C	-1.7245549494	 1.6059167098	-1.3319465429	-0.399036
C	-1.8848139319	 0.0850637722	-1.3395497118	 0.133505
O	-1.1693986572	-0.4977103971	-2.4313000887	-0.428406
C	-1.4858863702	-0.543545561	 0.0030060616	-0.205977
C	-1.5573746179	-2.0816554044	 0.0592395498	 0.018784
C	-0.9805213766	-2.5951639285	 1.3874186258	-0.39754
C	-2.9665990148	-2.6093007179	-0.1531664751	 0.040682
C	-3.5058801903	-2.8634771659	-1.5400157063	-0.273542
C	-3.1775676614	-4.023677563	-0.6343969416	-0.283806
H	-2.0038063597	 2.0221893638	-2.303673802	 0.121524
H	-2.3514979143	 2.0672251999	-0.5617966429	 0.114153
H	-0.6839827615	 1.8875190026	-1.1252568249	 0.103036
H	-2.931102158	-0.1588883655	-1.5497082367	 0.09898
H	-0.2341052389	-0.300680584	-2.3056445523	 0.274412
H	-0.4587775359	-0.2277737127	 0.2428667426	 0.074996
H	-2.1213833302	-0.1172960261	 0.7918809608	 0.089977
H	-0.9356562307	-2.4661294093	-0.7595697198	 0.072041
H	-0.9895260889	-3.6887133422	 1.4228018291	 0.113926
H	 0.0518602965	-2.2584361641	 1.532081415	 0.10314
H	-1.569018329	-2.2313454776	 2.2384289527	 0.108154
H	-3.6876578644	-2.2511294917	 0.5803793153	 0.070527
H	-4.5505377924	-2.6471309527	-1.7375119639	 0.10356
H	-2.8419814029	-2.6629941287	-2.3736134682	 0.134121
H	-2.2965763287	-4.613488838	-0.8684046464	 0.107722
H	-3.9950066812	-4.5993946581	-0.2142382795	 0.105065
65.6381	92.5579	113.1241	157.4765	213.3259	231.9111	241.1082	282.6613	291.1428	313.4222	323.5118	438.535	445.9731	494.5694	539.1408	746.97	805.6673	826.9663	833.4446	889.2889	900.5709	937.9212	946.5304	975.4387	999.1353	1036.9725	1056.6559	1061.8662	1083.3972	1095.6946	1139.1767	1147.8043	1152.6451	1188.416	1201.4752	1226.8379	1246.7277	1295.4549	1318.6833	1330.9228	1355.7537	1388.8362	1401.8489	1408.9139	1425.1715	1428.128	1472.6595	1474.0319	1491.7856	1495.0939	1496.3434	1500.9489	1508.7619	2988.1896	3019.9303	3022.3522	3024.0563	3036.8164	3064.88	3087.1909	3094.1341	3103.7339	3113.1491	3116.7016	3125.4662	3133.9776	3204.711	3223.1151	3791.8934
CC(O)CC(C)C1CC1	C[C@@H](O)C[C@@H](C)C1CC1	
InChI=1S/C8H16O/c1-6(5-7(2)9)8-3-4-8/h6-9H,3-5H2,1-2H3	InChI=1S/C8H16O/c1-6(5-7(2)9)8-3-4-8/h6-9H,3-5H2,1-2H3/t6-,7-/m1/s1
