19
gdb 46665	2.73497	1.75176	1.31123	2.8906	79.93	-0.2283	-0.0172	0.2111	1008.8325	0.161663	-385.848262	-385.841273	-385.840329	-385.879699	28.753	
O	 0.0198132989	 0.0225216402	 0.2350322108	-0.312815
C	 0.0122507824	 1.2152654147	 0.0786037511	 0.271842
C	-1.2667430497	 2.1069942086	 0.0043546347	-0.306097
C	-0.8298886988	 3.5920087656	-0.2114398823	-0.303149
C	 0.5815291155	 3.4346145457	-0.8057401057	 0.021761
C	 1.9885523359	 3.8577761631	-0.2530106215	-0.088582
C	 1.6357795992	 3.1228548831	 1.0644694006	-0.25232
C	 1.1475227729	 2.1845527311	-0.1043777066	 0.237407
C	 2.5155889093	 2.4726712154	-0.7873837504	-0.306807
H	-1.8490457393	 1.7378031998	-0.8481802848	 0.1363
H	-1.8868727409	 1.9473206034	 0.8910318105	 0.12985
H	-1.5087854999	 4.1180861925	-0.8868331429	 0.103078
H	-0.8404053535	 4.1394011133	 0.7336342433	 0.11286
H	 0.5449872312	 3.3546148711	-1.898269459	 0.070483
H	 2.4924962874	 4.8205462811	-0.3571624943	 0.075931
H	 2.470528198	 2.7332159767	 1.651637014	 0.102493
H	 0.8811932305	 3.5700205864	 1.7108560154	 0.102601
H	 2.5473878194	 2.3437285959	-1.8721169133	 0.101674
H	 3.4111079414	 2.0762719722	-0.3043334795	 0.103491
86.8404	171.2919	301.4673	351.2701	474.0679	511.2944	545.8063	592.8455	605.9507	626.5096	766.2089	793.339	806.1072	879.4461	884.4612	930.6489	948.3802	960.5021	992.4314	1011.8437	1023.1441	1065.192	1072.9012	1112.7692	1123.7193	1140.0677	1156.0604	1181.1161	1204.41	1214.0935	1231.2431	1238.14	1269.6993	1292.8135	1306.9268	1395.6815	1447.4364	1488.4894	1508.2581	1543.5728	1841.9477	3036.88	3047.4244	3060.4153	3067.5891	3075.6938	3093.3748	3094.1843	3111.8771	3130.9525	3145.2802
O=C1CCC2C3CC12C3	O=C1CC[C@H]2[C@H]3C[C@@]12C3	
InChI=1S/C8H10O/c9-7-2-1-6-5-3-8(6,7)4-5/h5-6H,1-4H2	InChI=1S/C8H10O/c9-7-2-1-6-5-3-8(6,7)4-5/h5-6H,1-4H2/t5-,6-,8-/m0/s1
