12
gdb 23685	3.71784	1.9386	1.2742	3.1807	60.33	-0.2222	-0.0391	0.183	845.5908	0.085295	-422.69612	-422.690067	-422.689123	-422.726373	23.291	
F	 0.0765292697	 0.0310874234	 0.0025037496	-0.053665
C	-0.063387409	 1.3472334302	 0.0112457895	 0.435286
C	-1.2683993486	 1.9693676968	 0.0307342173	-0.353525
C	-1.2407745678	 3.393149009	 0.037804305	-0.028256
C	-0.0779569273	 4.1041052274	 0.0258346957	-0.258405
C	 1.2143481794	 3.450587981	 0.0049349071	 0.436146
O	 2.3178890539	 3.9616664778	-0.0071843577	-0.388843
N	 1.1014991024	 2.0303460499	-0.0009049275	-0.427396
H	-2.1822414804	 1.3948676239	 0.0400588329	 0.124513
H	-2.188349045	 3.9223345892	 0.0533665615	 0.120978
H	-0.0643756616	 5.1861823941	 0.0313333162	 0.120472
H	 1.9748926443	 1.5200250871	-0.0153350298	 0.272694
171.6399	222.7848	345.8265	436.2293	517.1116	522.1872	540.6505	621.8468	684.8404	736.8759	749.8264	788.1856	853.6847	933.5165	998.7832	1027.9994	1067.2148	1148.9252	1209.217	1258.4742	1332.5059	1439.493	1497.4283	1595.8787	1683.817	1795.8488	3182.8051	3224.715	3248.3243	3603.4114
FC1=CC=CC(=O)N1	Fc1cccc(=O)[nH]1	
InChI=1S/C5H4FNO/c6-4-2-1-3-5(8)7-4/h1-3H,(H,7,8)	InChI=1S/C5H4FNO/c6-4-2-1-3-5(8)7-4/h1-3H,(H,7,8)
