18
gdb 34653	3.31091	1.16058	0.89356	5.2259	88.16	-0.2369	-0.0583	0.1786	1280.8915	0.149952	-364.849569	-364.841473	-364.840529	-364.882891	30.594	
N	 0.0606579909	-1.222096201	 0.1623537893	-0.340177
C	 0.0085773445	-0.066964585	 0.097965799	 0.214214
C	-0.0296609998	 1.3690959409	 0.0180311357	 0.136244
C	-1.2512474796	 1.9446909163	 0.0154125677	-0.131135
C	-1.5639518698	 3.408664497	-0.0565173047	-0.258073
C	-0.5981514039	 4.3309164887	 0.7051614224	-0.214963
C	 0.7735198587	 4.5207577862	 0.0526006232	-0.257186
C	 1.631057157	 3.2989445906	-0.1016427753	-0.06371
C	 1.2940613435	 2.0024546738	-0.0930507957	-0.108918
H	-2.1055563868	 1.2761734535	 0.0720419381	 0.118099
H	-1.6103313555	 3.7143809077	-1.1128549284	 0.127609
H	-2.5782212943	 3.5557963068	 0.3306854307	 0.115978
H	-1.068009375	 5.3158298932	 0.8010792606	 0.104182
H	-0.4679982763	 3.9471631573	 1.7232588778	 0.115969
H	 0.6547407957	 4.9933962224	-0.9342793875	 0.119381
H	 1.3390385229	 5.2535961241	 0.6436401891	 0.114338
H	 2.6897440926	 3.5116682564	-0.2373981133	 0.101076
H	 2.1036569851	 1.2867201211	-0.2033697885	 0.107074
38.1248	157.8018	164.7232	247.8058	326.7856	346.1344	384.7997	467.3147	549.5508	582.8799	606.8309	661.2776	772.8775	784.7158	834.1905	884.6471	897.1691	920.1209	966.9908	1016.4927	1064.4435	1075.6462	1104.0209	1141.4677	1172.2621	1257.7997	1283.152	1295.3407	1362.9703	1375.3293	1392.3853	1400.3119	1453.7942	1462.6559	1471.7269	1491.157	1662.9014	1709.3786	2337.8727	2995.3185	3001.5583	3028.019	3042.1349	3062.7755	3080.0536	3141.6019	3171.1328	3172.9703
N#CC1=CCCCC=C1	N#CC1=CCCCC=C1	
InChI=1S/C8H9N/c9-7-8-5-3-1-2-4-6-8/h3,5-6H,1-2,4H2	InChI=1S/C8H9N/c9-7-8-5-3-1-2-4-6-8/h3,5-6H,1-2,4H2
