19
gdb 119187	1.90837	1.22511	0.84426	0.7123	78.89	-0.2582	0.0253	0.2835	1409.3915	0.155232	-422.96822	-422.957809	-422.956865	-423.004004	37.243	
C	 0.0657864108	 1.5089205605	-0.1242916115	-0.429509
C	 0.0978665947	 0.0164491864	 0.0768375349	 0.039564
O	 1.3696758443	-0.6299209187	 0.11705697	-0.286993
C	 0.5539330359	-0.6755706323	 1.3109125279	 0.15306
C	 1.1052714738	 0.0593918849	 2.518615207	-0.273904
C	 2.31434486	-0.6500787996	 3.1232144489	-0.072613
O	 2.7441917942	 0.1287530964	 4.2298999559	-0.422758
C	-0.022621005	-1.9739708142	 1.5951439635	 0.317267
C	-0.5106896644	-3.0419027966	 1.8540880926	-0.440971
H	 0.8282771372	 2.0221617237	 0.4631665299	 0.134705
H	 0.2419786347	 1.7397329494	-1.1802028896	 0.133991
H	-0.9179119024	 1.9075506916	 0.1452870785	 0.129067
H	-0.6426328014	-0.5301392061	-0.5105239425	 0.095988
H	 1.4044900444	 1.0719763668	 2.2408268643	 0.115853
H	 0.3218129218	 0.1419283886	 3.2799633581	 0.11748
H	 2.0337052272	-1.6680458082	 3.4314842172	 0.100242
H	 3.1010732935	-0.7369590286	 2.3590019856	 0.103661
H	 3.5125093156	-0.3004516469	 4.6169676398	 0.28696
H	-0.938967155	-3.9886053472	 2.0740995494	 0.19891
66.5548	85.3705	123.8994	139.7833	164.2658	174.5074	252.1029	275.9781	341.4361	371.7892	411.2868	494.0244	548.192	580.4394	620.6457	660.2725	719.8612	781.3586	818.493	909.6258	975.292	995.073	1031.3697	1072.9071	1083.6536	1129.0025	1170.439	1213.7711	1243.6718	1256.2225	1307.573	1321.1719	1360.6346	1407.0231	1450.0122	1460.2714	1473.7463	1486.8702	1502.2989	1530.8303	2233.7807	2985.5226	3019.0578	3042.4074	3056.4037	3090.5253	3102.7681	3117.3733	3145.4556	3501.1018	3832.9138
CC1OC1(CCO)C#C	C[C@H]1O[C@]1(CCO)C#C	
InChI=1S/C7H10O2/c1-3-7(4-5-8)6(2)9-7/h1,6,8H,4-5H2,2H3	InChI=1S/C7H10O2/c1-3-7(4-5-8)6(2)9-7/h1,6,8H,4-5H2,2H3/t6-,7+/m1/s1
