21
gdb 9307	3.93469	0.94849	0.80255	0.6874	78.97	-0.2416	0.0349	0.2765	1490.2865	0.186253	-366.276991	-366.266595	-366.265651	-366.313666	35.608	
C	-0.0790782744	 1.7563275714	 1.3783687761	-0.380105
C	-0.0465952997	 0.2858192438	 0.9571600138	-0.148917
C	 0.9666991233	-0.5396009035	 1.7599820604	-0.142667
N	 0.8966113568	-1.9380811606	 1.3858183052	-0.301373
C	 1.9401988028	-2.5866797439	 1.0815974884	 0.405262
C	 3.3807655279	-2.1271555756	 1.0471450796	-0.487389
O	 1.8602470613	-3.8925817455	 0.7293263607	-0.242076
C	 0.5553863493	-4.466499655	 0.725876144	-0.224254
H	 0.8975469126	 2.2343345622	 1.2405274426	 0.111213
H	-0.8094602111	 2.3215717521	 0.7915507245	 0.112569
H	-0.3500154757	 1.8611333039	 2.4351446483	 0.11343
H	-1.036205244	-0.1687064621	 1.0792621414	 0.104516
H	 0.1986758421	 0.2044688132	-0.1091119467	 0.092979
H	 1.9684374848	-0.0968857994	 1.6416080869	 0.079518
H	 0.7160013137	-0.4573126098	 2.8279253557	 0.099031
H	 3.719100445	-1.8399044665	 2.047148729	 0.143733
H	 4.0175311471	-2.9309822989	 0.6780497649	 0.141062
H	 3.4977511715	-1.2553663797	 0.3974626976	 0.143324
H	-0.1010247554	-3.9418807002	 0.0256332759	 0.130027
H	 0.6907274018	-5.5052367614	 0.4199391458	 0.120096
H	 0.1025720204	-4.4144560647	 1.720232636	 0.130018
28.0412	72.2744	92.54	105.1771	173.1823	195.5198	236.5806	247.4899	290.1705	339.1029	437.7929	478.5291	581.0649	633.9103	754.6108	818.1892	892.4107	900.6807	971.1353	1045.2771	1053.8887	1074.2902	1112.1603	1128.7758	1170.2605	1181.1529	1221.5681	1266.541	1293.4506	1319.5147	1332.454	1392.7939	1405.6111	1413.6446	1468.419	1474.6977	1480.3143	1486.9554	1491.5559	1500.039	1500.2194	1501.9752	1515.2927	1751.0675	2974.0314	3008.1943	3028.1126	3032.1022	3041.3559	3053.9013	3066.9427	3095.4528	3102.7885	3111.0082	3114.0551	3142.7682	3154.6571
CCCN=C(C)OC	CCCN=C(C)OC	
InChI=1S/C6H13NO/c1-4-5-7-6(2)8-3/h4-5H2,1-3H3	InChI=1S/C6H13NO/c1-4-5-7-6(2)8-3/h4-5H2,1-3H3
