19
gdb 92059	2.85828	1.5713	1.10398	3.2001	77.26	-0.2258	0.0301	0.2559	1113.2556	0.160724	-419.195579	-419.187504	-419.18656	-419.228113	31.782	
C	-0.2278442792	 1.509738453	-0.0378469016	-0.401596
C	 0.0924852254	 0.020683651	 0.0175995908	-0.052041
N	 0.9647738586	-0.3667866991	-1.0980630887	-0.314922
C	 1.1374129799	-1.7906527618	-1.1602905619	-0.034213
C	 2.521913418	-2.3468460034	-0.882897377	-0.313658
C	 1.4578011501	-2.3801752223	 0.179137394	 0.102437
O	 1.5634119734	-1.5037342554	 1.2763218074	-0.25299
C	 0.808957926	-0.3597944871	 1.305873762	 0.442513
N	 0.7359891733	 0.3455005856	 2.3519834309	-0.524041
H	 0.6945873086	 2.095589878	-0.0430208161	 0.133503
H	-0.7968345269	 1.7377715682	-0.9460818912	 0.099591
H	-0.815813001	 1.8044464354	 0.8312465785	 0.148479
H	-0.8585479111	-0.5463189739	 0.0023542574	 0.079885
H	 0.6315501233	 0.0162186046	-1.9732773284	 0.226807
H	 0.4706455622	-2.3623631778	-1.8068939049	 0.086281
H	 2.8137663105	-3.2882612646	-1.3349245413	 0.114263
H	 3.307774613	-1.6112082865	-0.7612930959	 0.133384
H	 1.0285289188	-3.334738112	 0.4664601072	 0.106658
H	 1.2703816575	-0.0892969019	 3.1070219489	 0.219657
79.056	140.9385	216.4243	283.8043	313.142	354.0803	423.3191	465.5589	473.7475	523.1544	632.8836	662.2395	735.7683	789.2239	822.9397	851.1197	903.8229	912.0309	949.7838	1024.4919	1032.4929	1054.8428	1059.3456	1084.4343	1124.1893	1131.0259	1153.1309	1181.0796	1185.9012	1254.2185	1285.7753	1326.0001	1346.0188	1389.7083	1407.9641	1418.0464	1454.5636	1481.5559	1494.0487	1499.9474	1756.0495	2906.4759	3042.4213	3085.339	3116.8963	3141.0397	3155.114	3157.6269	3241.3332	3464.1594	3561.4234
CC1NC2CC2OC1=N	C[C@H]1N[C@H]2C[C@H]2O[C]1[NH]	
InChI=1S/C6H10N2O/c1-3-6(7)9-5-2-4(5)8-3/h3-5,7-8H,2H2,1H3	InChI=1S/C6H10N2O/c1-3-6(7)9-5-2-4(5)8-3/h3-5,7-8H,2H2,1H3/t3-,4+,5-/m1/s1
