21
gdb 93499	2.64533	1.35592	1.0841	2.6461	78.18	-0.2437	-0.0223	0.2213	1189.5643	0.182496	-424.268601	-424.259267	-424.258323	-424.302796	35.124	
C	 0.0173841509	 1.5862516357	 0.0017326865	-0.409702
C	 0.0182648171	 0.0549004672	-0.0039570025	 0.032071
C	 0.663735726	-0.5118266691	-1.2791450561	-0.215746
C	 0.6788648977	-2.0567900609	-1.2915221071	-0.301877
C	 1.3221380753	-2.579227657	-0.0184322638	 0.369208
O	 2.2990395379	-3.2944218821	-0.0135848113	-0.310008
C	 0.6916033134	-2.0479570562	 1.262807881	-0.331986
C	 0.7209471941	-0.5067897726	 1.2535479144	 0.127212
O	 2.0565971372	-0.0215577481	 1.3685035609	-0.442887
H	 1.0418844934	 1.9663339188	 0.0368335082	 0.135855
H	-0.4709189294	 1.9843180045	-0.8934240927	 0.107957
H	-0.5141781304	 1.9772608083	 0.8757745615	 0.110991
H	-1.0240104207	-0.2963242249	 0.0368064508	 0.066451
H	 0.1366650135	-0.142563454	-2.1648812633	 0.103959
H	 1.693304017	-0.1395790685	-1.3526197607	 0.110195
H	-0.3549177499	-2.4260056634	-1.3362330752	 0.112855
H	 1.2214257394	-2.4532729542	-2.1527447392	 0.118491
H	-0.3514199016	-2.3838717834	 1.3146090657	 0.117421
H	 1.231448487	-2.4432933971	 2.1265827301	 0.123045
H	 0.1987127527	-0.1342789722	 2.143169347	 0.082702
H	 2.6617496092	-0.6600784406	 0.9773004859	 0.293792
57.8232	103.5355	163.0936	193.8034	217.697	266.7949	311.4436	355.8426	385.9111	475.695	499.9129	520.0177	614.8339	714.9105	739.3629	787.1017	855.1504	892.5345	942.8351	959.9668	993.0654	1009.6059	1021.4726	1068.602	1092.2133	1125.3737	1173.7101	1193.482	1211.2563	1242.0049	1267.9183	1319.2339	1323.3493	1338.1253	1352.9267	1361.9539	1396.2675	1409.2214	1424.5934	1459.0562	1474.968	1491.1976	1495.7257	1506.5319	1809.5897	2990.2552	3020.5287	3028.5658	3032.8975	3037.518	3042.906	3076.9994	3099.7831	3108.8481	3112.2087	3122.0102	3814.0928
CC1CCC(=O)CC1O	C[C@H]1CCC(=O)C[C@H]1O	
InChI=1S/C7H12O2/c1-5-2-3-6(8)4-7(5)9/h5,7,9H,2-4H2,1H3	InChI=1S/C7H12O2/c1-5-2-3-6(8)4-7(5)9/h5,7,9H,2-4H2,1H3/t5-,7+/m0/s1
