21
gdb 70092	2.11747	1.86945	1.44138	1.7798	82.28	-0.2406	0.0045	0.245	1046.7556	0.180985	-387.092552	-387.083572	-387.082627	-387.125205	35.635	
C	-0.1229324471	 1.4900142496	 0.1109225608	-0.495732
C	 0.1154226533	 0.0080030334	-0.0115522068	 0.388181
O	-0.4658695075	-0.789523096	 1.03065873	-0.305315
C	 0.9782336238	-0.7803412096	 0.8894815688	-0.073585
C	 1.4860150627	-1.9471050437	 0.1118279968	-0.108385
C	 0.9678979463	-1.9282973873	-1.1171920518	-0.097066
C	 0.0987757165	-0.7065404485	-1.3880939437	 0.174616
C	-1.3330594098	-1.1068325501	-1.7877056251	-0.423218
C	 0.7401639154	 0.1562956345	-2.4912377715	-0.432041
H	 0.6228161935	 2.0683028334	-0.4420989384	 0.124361
H	-1.1124215405	 1.7600442189	-0.275766665	 0.125726
H	-0.0835365409	 1.7840510301	 1.1625018618	 0.129506
H	 1.5164599804	-0.3575538277	 1.7332981512	 0.089929
H	 2.1385117254	-2.7075790269	 0.5228626372	 0.101421
H	 1.1110796735	-2.692615982	-1.8748453575	 0.096532
H	-1.8037667521	-1.6813863032	-0.9873729442	 0.138895
H	-1.9446007968	-0.218997403	-1.9843877969	 0.110418
H	-1.3285912202	-1.7136704498	-2.6993721282	 0.108041
H	 0.8319095282	-0.4212587208	-3.4172232795	 0.11436
H	 0.1321734986	 1.0398049391	-2.7118261423	 0.115757
H	 1.7433282174	 0.4887892599	-2.2064836157	 0.1176
128.8191	197.4548	222.8719	231.493	266.8185	268.5174	297.4547	328.037	384.1324	446.1216	485.9741	589.7346	593.477	635.7241	747.6274	770.2948	830.3491	853.8486	901.7269	947.0774	952.139	961.4557	977.2617	1007.1612	1023.0006	1063.8627	1102.8657	1129.0822	1178.126	1183.1358	1231.8604	1274.0973	1287.4462	1368.6707	1392.0271	1405.7512	1416.3055	1436.1347	1481.0483	1485.7805	1491.8445	1493.8896	1504.0504	1511.3203	1664.7209	3028.0641	3032.2645	3036.5291	3091.6672	3097.5957	3100.0646	3104.6087	3125.8061	3132.0686	3153.1462	3176.8178	3213.8293
CC12OC1C=CC2(C)C	C[C@]12O[C@H]1C=CC2(C)C	
InChI=1S/C8H12O/c1-7(2)5-4-6-8(7,3)9-6/h4-6H,1-3H3	InChI=1S/C8H12O/c1-7(2)5-4-6-8(7,3)9-6/h4-6H,1-3H3/t6-,8-/m0/s1
