18
gdb 83566	3.11942	1.29856	1.18131	3.2675	73.82	-0.2388	0.0219	0.2607	1096.2291	0.148963	-439.083928	-439.076075	-439.075131	-439.116402	30.202	
O	 0.0795193646	 1.3140797255	-0.124102993	-0.42821
C	-0.0003798468	-0.0681808341	 0.0699607145	 0.142817
C	 0.0051486538	-0.6796027444	 1.5169955251	-0.075576
C	-1.0405425236	 0.1898871366	 2.2423473255	-0.208094
C	-2.1536673159	 0.1911842231	 1.1380788231	-0.207947
C	-1.4296281741	-0.670589176	 0.0824467118	-0.065065
N	-0.8568741152	-1.7467163934	 0.9421023385	-0.044326
C	-0.4521381378	-2.9918287717	 0.5683373055	 0.124532
O	 0.4740733562	-3.6033817469	 1.058682324	-0.331639
H	 1.0061688919	 1.5729240109	-0.138884108	 0.293206
H	 0.6618577602	-0.6350661823	-0.5946889913	 0.091443
H	 0.9087617036	-0.9986207566	 2.0306122596	 0.102912
H	-1.3683665076	-0.2690363456	 3.1763315173	 0.111767
H	-0.6570476543	 1.1909268323	 2.4469944437	 0.109316
H	-3.0798235507	-0.2813403565	 1.470011392	 0.107978
H	-2.373105685	 1.1908525552	 0.760464032	 0.120838
H	-1.9577125618	-0.9637407836	-0.8241093918	 0.086847
H	-1.1205531875	-3.4215828124	-0.2062005486	 0.0692
76.0102	184.8399	243.2748	251.9168	265.7889	280.0196	383.3039	454.3602	598.2846	626.8968	727.7961	762.1812	808.4237	843.307	854.145	907.5062	927.9369	989.6773	991.9143	1025.5625	1033.6918	1076.6967	1122.3353	1148.143	1153.7483	1186.5366	1208.4101	1255.5087	1259.8627	1270.8658	1281.6883	1315.6334	1336.1482	1396.4683	1423.7199	1436.2533	1472.8233	1495.483	1783.8154	2919.1494	3047.4616	3079.2626	3086.4872	3128.0515	3133.6705	3143.4987	3162.4765	3826.0226
OC1C2CCC1N2C=O	O[C@H]1[C@H]2CC[C@@H]1N2C=O	
InChI=1S/C6H9NO2/c8-3-7-4-1-2-5(7)6(4)9/h3-6,9H,1-2H2	InChI=1S/C6H9NO2/c8-3-7-4-1-2-5(7)6(4)9/h3-6,9H,1-2H2/t4-,5+,6+
