19
gdb 109413	2.23955	1.51213	1.10203	2.5914	77.32	-0.2218	-0.014	0.2078	1178.144	0.157287	-423.009516	-423.000287	-422.999342	-423.0436	33.722	
C	 0.195444208	 1.3137628943	 0.2158647964	-0.245287
O	-0.2866560966	 0.0425159868	-0.1866141061	-0.25063
C	 0.506596818	-0.557941028	-1.1718701632	-0.056822
C	 1.8902194109	-1.1889506557	-0.7982134545	 0.408288
O	 2.9406980449	-0.7132666954	-0.4629197622	-0.332506
C	 1.4389322659	-2.5493661804	-1.211993038	-0.235192
C	 0.1507761539	-2.8728882873	-0.4547700775	-0.319254
C	 0.050481112	-1.951658638	-1.6168952866	 0.322666
C	-0.7617840682	-2.2256591188	-2.8489591302	-0.502462
H	 1.2094261179	 1.251516003	 0.6291880012	 0.138251
H	 0.2058057769	 2.0213889851	-0.6276344112	 0.106447
H	-0.4880692793	 1.6853926948	 0.9824319806	 0.127067
H	 0.6550696249	 0.1188361674	-2.0319587271	 0.082589
H	 2.0304065723	-3.3252900776	-1.6822154768	 0.110739
H	-0.2068331615	-3.8842089083	-0.6228519237	 0.122839
H	 0.0064376966	-2.5076520917	 0.5560871039	 0.137425
H	-1.7942155255	-1.8840153184	-2.7143409037	 0.137498
H	-0.3502847051	-1.7100072119	-3.7232478888	 0.124432
H	-0.794147306	-3.29700117	-3.0705759925	 0.123911
81.3268	104.016	153.837	181.3894	207.0704	242.0612	261.6313	340.8618	376.0247	491.4289	512.8273	582.5657	651.3307	735.5261	779.2009	858.1191	935.8184	947.5277	993.6303	1004.8637	1025.2177	1054.431	1078.7255	1105.6829	1133.6811	1153.8716	1178.1469	1189.417	1235.9742	1242.3508	1289.6863	1353.4907	1404.4238	1427.2823	1480.2226	1485.485	1486.9191	1498.3399	1501.6954	1513.3333	1871.6308	2954.1302	2986.6743	3029.449	3059.3441	3092.082	3103.6462	3123.9452	3129.5058	3195.8836	3215.1823
COC1C(=O)C2CC12C	CO[C@H]1C(=O)[C@H]2C[C@@]12C	
InChI=1S/C7H10O2/c1-7-3-4(7)5(8)6(7)9-2/h4,6H,3H2,1-2H3	InChI=1S/C7H10O2/c1-7-3-4(7)5(8)6(7)9-2/h4,6H,3H2,1-2H3/t4-,6+,7-/m1/s1
