19
gdb 41035	3.29564	1.7715	1.49507	1.6272	80.19	-0.232	0.0643	0.2963	932.7818	0.160717	-385.749514	-385.742922	-385.741978	-385.78003	28.205	
C	-0.0156081824	 1.5042346129	 0.1517026474	-0.180476
O	 1.3368104237	 1.5793178221	-0.3584839622	-0.278808
C	 1.4850576846	 0.1593541348	-0.4576079714	 0.018806
C	 0.9764852984	-0.3578875228	-1.8698996809	-0.362202
C	-0.307305294	-0.8108611074	-1.1341375047	 0.271197
C	-1.8226229868	-0.7519947854	-0.7535215199	-0.322959
C	-1.0198907534	-1.0869440214	 0.589981937	-0.164442
C	-0.206738443	-2.0945161018	-0.2496270089	-0.239137
C	 0.0101301171	-0.0207822227	 0.1370597278	 0.296959
H	-0.070760757	 1.9512142678	 1.1532585238	 0.103863
H	-0.7417693258	 2.0125915439	-0.4986417411	 0.098429
H	 2.4483030874	-0.1899709256	-0.0768630891	 0.081026
H	 0.878666014	 0.4882012242	-2.5533771031	 0.119408
H	 1.5384132539	-1.1601022403	-2.3550517524	 0.102816
H	-2.3048962871	 0.226313071	-0.8051023974	 0.102042
H	-2.4872871258	-1.5404738598	-1.1205272193	 0.096653
H	-1.4631198462	-1.2497244995	 1.5762287405	 0.072076
H	-0.7370758448	-2.9752378932	-0.6213240549	 0.089431
H	 0.7856662375	-2.3534049468	 0.1284596289	 0.095316
180.2764	245.4235	308.8595	393.1728	453.6365	484.9982	542.1781	580.3076	704.3121	743.339	790.7396	816.5496	832.9969	874.6197	922.9636	937.5671	962.6762	972.9947	1004.6895	1006.4817	1046.8698	1067.1932	1079.7719	1092.2618	1120.2259	1129.2735	1152.1549	1166.5752	1178.0797	1186.6129	1206.3183	1221.0894	1231.2886	1258.113	1279.1244	1296.2382	1361.5884	1469.2006	1495.4536	1518.7407	1532.3669	2992.9678	3031.9642	3047.5855	3050.1951	3061.2985	3072.0224	3077.5792	3115.8357	3122.8872	3127.0247
C1OC2CC34CC(C3)C124	C1O[C@@H]2C[C@@]34C[C@@H](C3)[C@@]124	
InChI=1S/C8H10O/c1-5-2-7(1)3-6-8(5,7)4-9-6/h5-6H,1-4H2	InChI=1S/C8H10O/c1-5-2-7(1)3-6-8(5,7)4-9-6/h5-6H,1-4H2/t5-,6-,7+,8+/m1/s1
