19
gdb 70116	2.47381	1.50112	1.1418	2.9424	81.18	-0.2401	-0.0246	0.2154	1123.7033	0.15877	-385.899655	-385.891241	-385.890297	-385.93301	32.123	
C	-0.0337950717	 1.5250606942	 0.0929133653	-0.483518
C	 0.0412741611	 0.0167857077	 0.0489796235	 0.318497
C	-0.8014889566	-0.7940370612	 1.0083575132	-0.32755
C	 0.7106092697	-0.8089337012	 1.1426707775	-0.118756
C	 1.383485232	-1.9323348522	 0.437029602	-0.075492
C	 1.1976522603	-1.8751182692	-0.8847432415	-0.114728
C	 0.418203971	-0.6374952261	-1.2967398414	-0.17519
C	-0.7954966949	-0.960273887	-2.1528944034	 0.157525
O	-0.9410149543	-0.6042130837	-3.2940548874	-0.254121
H	 0.9025290215	 1.9784572076	-0.2511316489	 0.123045
H	-0.8395286445	 1.9022740521	-0.5474900481	 0.128507
H	-0.2255335746	 1.8819492421	 1.1096257556	 0.117086
H	-1.3644614068	-0.2251769779	 1.7418481129	 0.113293
H	-1.2817619057	-1.711309178	 0.6866461723	 0.116213
H	 1.1676615839	-0.3477533534	 2.0116169583	 0.090965
H	 1.9357887466	-2.7082805051	 0.955273588	 0.104586
H	 1.5464177343	-2.6024195657	-1.6084484576	 0.108796
H	 1.040567624	 0.0382731091	-1.8975400235	 0.095494
H	-1.5722290154	-1.568670882	-1.6385234269	 0.075349
46.4002	128.6599	201.6196	235.6667	269.8275	293.3245	395.8062	429.6505	467.5138	538.0167	585.3811	736.2475	762.9736	779.7215	845.7106	875.7617	931.64	949.9474	952.164	976.2485	1017.4661	1055.4937	1061.8108	1070.8496	1078.0205	1093.863	1123.3932	1148.2039	1217.3847	1260.8189	1271.8212	1301.6276	1361.8721	1394.1005	1419.6874	1428.4866	1480.1837	1489.0099	1500.0085	1657.3096	1823.1944	2885.725	3024.0756	3027.0463	3086.1816	3100.9156	3126.7669	3166.8694	3188.7353	3213.5054	3215.3237
CC12CC1C=CC2C=O	C[C@]12C[C@H]1C=C[C@H]2C=O	
InChI=1S/C8H10O/c1-8-4-6(8)2-3-7(8)5-9/h2-3,5-7H,4H2,1H3	InChI=1S/C8H10O/c1-8-4-6(8)2-3-7(8)5-9/h2-3,5-7H,4H2,1H3/t6-,7+,8+/m1/s1
