16
gdb 106865	2.07522	1.6275	1.10704	4.2224	70.62	-0.2613	0.0104	0.2717	1104.1517	0.123553	-437.847175	-437.838691	-437.837747	-437.880846	30.985	
O	 0.6241268794	 0.2256815863	 0.6893403153	-0.397949
C	-0.1751976342	 0.2376273816	-0.4740832823	-0.178389
C	-1.5021026373	-0.4478791187	-0.2805980724	 0.39447
C	-2.1952031339	-0.7358271516	 1.0057314517	-0.380931
C	-1.9109885655	-1.8936113027	 0.049381399	 0.070035
C	-2.8202442826	-1.7539847917	-1.1727918199	-0.13142
O	-2.4311592625	-0.3665470295	-1.3567963243	-0.314689
C	-1.1463344756	-3.0397272034	 0.3956431417	 0.207653
N	-0.5345367665	-3.9861117987	 0.6619217078	-0.351031
H	 0.270765267	 0.8763151235	 1.3042193706	 0.293889
H	-0.3803670725	 1.2561351673	-0.8397932154	 0.118097
H	 0.3949739035	-0.2750918977	-1.2548997619	 0.138229
H	-1.558529095	-0.7432360758	 1.8832821317	 0.145818
H	-3.2216340343	-0.4140031806	 1.1591301419	 0.1282
H	-2.4953522747	-2.3614890702	-2.0221949292	 0.135275
H	-3.8969596954	-1.8680718781	-1.0101571342	 0.122744
50.2607	110.6881	171.0937	211.2741	256.1492	318.4077	374.7949	411.7434	457.217	549.8709	562.3396	587.8155	718.1459	765.6232	821.5589	933.129	968.6565	987.5645	1015.729	1047.7255	1076.7988	1092.4311	1133.7993	1152.898	1187.5612	1212.8245	1286.597	1335.0827	1390.7601	1397.6782	1413.5728	1480.2278	1495.599	1517.2387	2345.777	2989.7836	3044.2155	3083.425	3103.8594	3121.7252	3228.5858	3823.4432
OCC12CC1(CO2)C#N	OC[C@]12C[C@]1(CO2)C#N	
InChI=1S/C6H7NO2/c7-2-5-1-6(5,3-8)9-4-5/h8H,1,3-4H2	InChI=1S/C6H7NO2/c7-2-5-1-6(5,3-8)9-4-5/h8H,1,3-4H2/t5-,6-/m1/s1
