18
gdb 123899	3.44831	1.53301	1.10437	3.2669	77.53	-0.1982	0.0359	0.234	1074.0682	0.153179	-398.160125	-398.15304	-398.152096	-398.191473	28.486	
C	 0.0011686256	 1.5456815392	-0.02646686	-0.204367
C	 1.4542643608	 2.0550696573	 0.0153124678	-0.162515
N	 2.1990651201	 1.6299786939	 1.2148890868	-0.406234
C	 1.885075417	 0.3175941545	 1.5772546122	 0.365007
C	 0.9076600807	-0.4978398423	 1.0391838602	 0.172905
C	-0.0509264422	 0.0032250728	-0.0009386058	-0.340084
C	 1.0744772213	-1.7237894633	 1.724310677	-0.119605
N	 2.0597922512	-1.6787777046	 2.615119113	-0.236368
N	 2.551869978	-0.4176326368	 2.5009381616	-0.30038
H	-0.5406365132	 1.9462234989	 0.8395621689	 0.099076
H	-0.4941785726	 1.9319923048	-0.9234336062	 0.097684
H	 1.9944969894	 1.6811157957	-0.8637947379	 0.11728
H	 1.4871813676	 3.146977294	-0.0286554856	 0.104459
H	 2.0816370837	 2.2843796706	 1.9806118838	 0.233693
H	-1.0737796356	-0.3331415989	 0.2033034702	 0.106942
H	 0.204138902	-0.3887013979	-0.9955698735	 0.107038
H	 0.5047103343	-2.6359302922	 1.6123160074	 0.101314
H	 3.3468555618	-0.1441891156	 3.0523094101	 0.264155
112.7141	218.51	306.0109	309.2919	384.2079	439.1635	459.3888	517.5067	612.6297	676.226	690.0462	708.5157	775.1134	864.7344	868.9677	891.0924	942.8102	960.8919	997.7058	1065.1363	1101.5219	1109.1646	1189.433	1211.1363	1220.1478	1241.5942	1281.6963	1317.7235	1329.85	1365.8442	1388.0398	1406.9808	1449.2736	1451.7759	1479.6864	1485.5904	1497.462	1554.6051	1638.9565	3003.682	3024.0375	3031.1614	3055.7965	3079.9349	3093.7244	3231.1102	3520.0092	3677.1344
C1CNC2=C(C1)C=NN2	C1CNc2c(C1)cn[nH]2	
InChI=1S/C6H9N3/c1-2-5-4-8-9-6(5)7-3-1/h4H,1-3H2,(H2,7,8,9)	InChI=1S/C6H9N3/c1-2-5-4-8-9-6(5)7-3-1/h4H,1-3H2,(H2,7,8,9)
