21
gdb 69955	3.3889	1.39777	1.2281	1.1584	80.64	-0.2511	0.0793	0.3304	1090.4565	0.184434	-387.074981	-387.067258	-387.066314	-387.106667	32.11	
O	-0.1161636782	 1.4353049181	-0.0926042765	-0.471961
C	 0.0358232936	 0.0564535133	 0.0848362513	 0.407324
C	-0.0541579352	-0.8453481259	-1.1158918548	-0.358911
C	-1.1658817172	-0.8415537259	-0.073699015	-0.087822
C	-1.1603402987	-1.9007414204	 1.0177158217	-0.021667
C	-0.7587791665	-3.3566113526	 0.6330295123	-0.226233
C	 0.679600178	-3.0961514953	 1.1680128529	-0.23563
C	 0.2100268738	-1.7333052449	 1.7618561202	 0.007722
C	 0.8539006839	-0.4150042433	 1.2888427756	-0.315812
H	 0.6769588948	 1.7681898939	-0.526161485	 0.279529
H	-0.2953979795	-0.3594939892	-2.0556244618	 0.109316
H	 0.6072050263	-1.6998827651	-1.2103324497	 0.110044
H	-2.1111869408	-0.4117074079	-0.3851141592	 0.089284
H	-2.062124537	-1.8150743541	 1.6291284698	 0.064102
H	-1.2971396418	-4.1118414418	 1.2113211001	 0.096319
H	-0.8469127927	-3.6104708778	-0.4263664664	 0.098553
H	 1.0533874837	-3.8203502242	 1.8962481327	 0.09381
H	 1.4362010162	-2.9954302145	 0.3842744744	 0.09698
H	 0.1355552127	-1.7713995959	 2.8508051466	 0.069584
H	 1.9209200435	-0.5332152012	 1.0611729753	 0.089719
H	 0.7695271111	 0.3583313448	 2.0598593555	 0.105752
147.2088	163.0223	261.1812	277.0211	341.5577	377.4072	408.3001	483.286	564.405	634.3992	678.7204	733.8265	756.8605	803.7859	863.1254	872.2114	901.8501	916.8673	933.5462	949.6604	975.9908	981.7067	1039.3047	1061.5686	1066.9837	1077.74	1091.8836	1129.1891	1173.2603	1197.7753	1220.8257	1245.3661	1252.1583	1265.5522	1274.5333	1285.2072	1303.4311	1330.9348	1336.3037	1352.0697	1401.9182	1474.4601	1480.9513	1493.0441	1501.9529	3024.7469	3050.9413	3057.9345	3063.7686	3070.9723	3080.9767	3095.5992	3114.4916	3128.6852	3174.2108	3215.1851	3797.1423
OC12CC1C1CCC1C2	O[C@]12C[C@H]1[C@H]1CC[C@H]1C2	
InChI=1S/C8H12O/c9-8-3-5-1-2-6(5)7(8)4-8/h5-7,9H,1-4H2	InChI=1S/C8H12O/c9-8-3-5-1-2-6(5)7(8)4-8/h5-7,9H,1-4H2/t5-,6-,7-,8+/m0/s1
