13
gdb 25417	5.21516	1.0549	0.87742	5.2674	72.69	-0.2615	-0.0786	0.1829	1197.5958	0.091089	-452.821603	-452.814486	-452.813542	-452.85364	25.974	
O	-0.0937862557	-0.0313441743	 0.0006626608	-0.274219
C	-0.0321278751	 1.1769855094	 0.0096333664	 0.091529
C	 1.2151702274	 1.9439925516	 0.0018356136	 0.078506
C	 1.2167502192	 3.3137647868	 0.0128166282	 0.00061
N	 2.3849080139	 3.969494211	 0.0050134185	-0.340634
C	 3.6656076196	 3.3284075145	-0.0144693722	 0.459753
O	 4.6558441659	 4.016726819	-0.0200184301	-0.356363
N	 3.6463462536	 1.9391622885	-0.0254037816	-0.314755
C	 2.504920877	 1.3173610934	-0.0176300928	-0.009164
H	-0.954045651	 1.8028493814	 0.0250320837	 0.070222
H	 0.3076650806	 3.9084346316	 0.0277678489	 0.157124
H	 2.4224982554	 4.980035808	 0.0127061486	 0.280922
H	 2.5290548893	 0.228306409	-0.026632592	 0.15647
82.3441	161.8043	186.9285	299.5236	410.0902	411.7041	491.9083	500.5195	620.815	657.6093	733.064	804.8648	816.7439	820.1337	949.7118	1011.1337	1025.176	1043.1525	1094.0062	1216.6235	1265.9911	1351.4624	1425.7592	1441.0705	1482.1363	1572.2113	1689.8331	1792.3148	1829.7505	2865.1593	3149.9911	3178.9697	3601.0162
O=CC1=CNC(=O)N=C1	O=Cc1c[nH]c(=O)nc1	
InChI=1S/C5H4N2O2/c8-3-4-1-6-5(9)7-2-4/h1-3H,(H,6,7,9)	InChI=1S/C5H4N2O2/c8-3-4-1-6-5(9)7-2-4/h1-3H,(H,6,7,9)
