14
gdb 5097	3.40346	2.02313	1.27801	1.4023	61.02	-0.1709	0.0495	0.2204	890.0441	0.107713	-415.865553	-415.857563	-415.856618	-415.897339	29.769	
N	 0.0515940212	 1.4060683171	-0.1172115388	-0.618296
C	-0.0058938663	 0.0085633784	-0.0585741265	 0.167742
C	-1.069298673	-0.8378784063	-0.035296946	-0.129408
O	-0.6212588654	-2.1535857048	-0.0572122194	-0.183899
C	 0.7244498463	-2.1189375644	-0.082415963	 0.326666
N	 1.3937036011	-3.3334783838	-0.1598035115	-0.600496
C	 1.164963928	-0.8294928449	-0.0889189986	 0.082183
O	 2.4765553175	-0.4076263013	-0.0309877391	-0.459784
H	 0.8616052334	 1.7595903261	 0.3785748177	 0.246293
H	-0.783288035	 1.8551621303	 0.2356299566	 0.243953
H	-2.1365028606	-0.7094744342	-0.0153473173	 0.116601
H	 0.9922754389	-4.0370532444	 0.4495745622	 0.252896
H	 2.3768835958	-3.2112215858	 0.0491420472	 0.256645
H	 2.729320728	-0.067739952	-0.8973685134	 0.298906
149.5544	183.6697	214.073	229.2436	284.5415	307.7705	345.682	378.3476	549.6785	569.6327	575.4376	622.5648	679.8992	741.377	753.5067	788.7204	799.1814	1007.5422	1080.4693	1141.4457	1155.8972	1231.4546	1269.4384	1334.5308	1389.3935	1494.3441	1624.0029	1633.8734	1659.87	1723.9341	3295.4545	3523.4525	3527.1221	3622.1332	3622.8487	3770.281
NC1=COC(N)=C1O	Nc1coc(N)c1O	
InChI=1S/C4H6N2O2/c5-2-1-8-4(6)3(2)7/h1,7H,5-6H2	InChI=1S/C4H6N2O2/c5-2-1-8-4(6)3(2)7/h1,7H,5-6H2
