18
gdb 76478	3.25227	1.06219	0.99208	4.9593	74.02	-0.2358	0.038	0.2738	1253.8872	0.145818	-439.084211	-439.075	-439.074056	-439.118292	34.088	
C	-0.0683874619	 1.5566444132	-0.0195388623	-0.416949
C	 0.0388107981	 0.0479821492	 0.0209937837	-0.136471
C	 1.3915311854	-0.6528973849	-0.1513992838	 0.002949
O	 2.5690829273	 0.0953509308	-0.2303001734	-0.414743
C	 0.7064532674	-0.6514944597	 1.1720093112	 0.386966
C	 1.2382532396	-0.0759028203	 2.4928551198	-0.469414
C	 0.6902988225	-1.3825976882	 3.1301803063	 0.431242
O	 0.6626406827	-1.8709099966	 4.2262374586	-0.358028
N	 0.2200562352	-1.8059695057	 1.9049999094	-0.396066
H	 0.8516423573	 2.0219393661	 0.3432692711	 0.133767
H	-0.2437623097	 1.9121678643	-1.0411079045	 0.116017
H	-0.897687371	 1.912440828	 0.6006128129	 0.125576
H	-0.7978328171	-0.4868339833	-0.425052535	 0.086568
H	 1.3954819514	-1.5852234124	-0.7187744399	 0.086537
H	 2.6300131378	 0.4724721724	-1.1148808422	 0.292264
H	 2.3219576684	 0.0340720635	 2.5463336307	 0.148612
H	 0.7508115534	 0.8338338724	 2.8475653002	 0.132283
H	-0.2080253869	-2.6711355986	 1.6106145772	 0.248888
54.5312	152.8018	161.2242	178.0804	221.7332	257.1349	321.9876	326.7587	397.1853	495.8023	498.3325	558.7058	576.6734	602.8378	774.4967	796.8522	856.5859	924.1355	972.9446	1002.2011	1029.7606	1044.3043	1085.0641	1127.8774	1136.8094	1156.8919	1169.2231	1191.446	1247.5346	1266.9046	1291.8266	1366.1469	1384.0547	1412.7168	1459.1079	1491.904	1499.6451	1515.7171	1899.9511	3032.4324	3082.4753	3089.826	3090.5796	3114.1383	3129.6507	3150.3758	3613.1537	3796.1513
CC1C(O)C11CC(=O)N1	C[C@H]1[C@@H](O)[C@]21CC(=O)N2	
InChI=1S/C6H9NO2/c1-3-5(9)6(3)2-4(8)7-6/h3,5,9H,2H2,1H3,(H,7,8)	InChI=1S/C6H9NO2/c1-3-5(9)6(3)2-4(8)7-6/h3,5,9H,2H2,1H3,(H,7,8)/t3-,5+,6+/m0/s1
