22
gdb 101368	3.35125	0.98593	0.87964	2.4899	82.21	-0.2251	0.0706	0.2957	1421.236	0.193944	-404.301652	-404.292213	-404.291269	-404.33604	35.836	
C	 0.0105622059	 1.6014312109	 0.0033143723	-0.379878
C	-0.0614363093	 0.0760602116	-0.1018045731	-0.191285
C	 0.7883616004	-0.4872393201	-1.2469557083	 0.127509
O	 2.1646110444	-0.1222732089	-1.1067198782	-0.438031
C	 0.6609282846	-2.0001828414	-1.3885228461	 0.000504
C	-0.7078024688	-2.6348530353	-1.8487979537	-0.254528
C	 0.0326732434	-3.2640918452	-3.0336746316	-0.044032
N	 0.5940234193	-2.1278719918	-3.8043473892	-0.329469
C	 1.3197745967	-2.6450726635	-2.6181647435	-0.062519
H	 1.0482902226	 1.9302039102	 0.1031991961	 0.125536
H	-0.4007651441	 2.0750554848	-0.8947927576	 0.11594
H	-0.5549033018	 1.9693042413	 0.8649063988	 0.105062
H	 0.2747082148	-0.3806153442	 0.8420297166	 0.076963
H	-1.1017820189	-0.2438193053	-0.2384072709	 0.100062
H	 0.4787918201	-0.0296503719	-2.1929622683	 0.105567
H	 2.4773183876	-0.492552921	-0.2731313329	 0.270852
H	 1.005992492	-2.4869733451	-0.4675436835	 0.058065
H	-1.0943731548	-3.3610519024	-1.1310743792	 0.100901
H	-1.5008288557	-1.9349377936	-2.1255550832	 0.105763
H	-0.165829674	-4.2144806204	-3.5134933524	 0.090669
H	 1.0568093799	-2.5174958229	-4.6250944826	 0.22735
H	 2.3362317657	-3.0062930656	-2.7099871197	 0.089
75.9904	96.0063	127.3329	173.7927	226.6072	256.1739	304.803	347.2082	405.1178	416.0667	487.203	585.4057	700.9299	779.0093	804.2314	828.4848	852.3112	898.0395	924.6319	953.9625	972.2156	987.9029	995.9564	1033.126	1058.0193	1083.4492	1101.5567	1110.2571	1126.4035	1145.0976	1169.5839	1200.8819	1249.3439	1255.0811	1270.1773	1300.4778	1321.1957	1331.5641	1372.2931	1384.8101	1398.2425	1406.8712	1426.1927	1476.7348	1481.8323	1495.7707	1509.5978	2991.7654	3024.4632	3037.4442	3049.084	3062.6078	3069.176	3101.5555	3121.0839	3121.6724	3184.5551	3199.1373	3474.2705	3787.0241
CCC(O)C1CC2NC12	CC[C@@H](O)[C@H]1C[C@H]2N[C@@H]12	
InChI=1S/C7H13NO/c1-2-6(9)4-3-5-7(4)8-5/h4-9H,2-3H2,1H3	InChI=1S/C7H13NO/c1-2-6(9)4-3-5-7(4)8-5/h4-9H,2-3H2,1H3/t4-,5-,6-,7+/m1/s1
