15
gdb 34559	3.93384	1.30551	1.2368	1.3408	74.93	-0.2361	-0.0395	0.1966	1020.5428	0.11341	-420.583049	-420.576145	-420.575201	-420.614345	27.482	
C	 0.0985502454	-1.1580559435	 0.0678318172	-0.407888
C	-0.0160087776	 0.0405783602	 0.00680112	 0.190096
C	-0.0835678591	 1.4422380064	-0.0807350678	 0.23196
C	-1.1356434838	 2.2792468778	-0.061341665	-0.221181
C	-0.5135958839	 3.6673273695	 0.0149642358	 0.136322
O	-0.0193390879	 3.8222244425	 1.3670552094	-0.273819
C	 1.1424943338	 2.9831592547	 1.4010918329	-0.0837
C	 1.1355680183	 2.377921663	-0.0372611005	-0.106694
O	 0.6586495234	 3.5242513388	-0.7545472272	-0.225729
H	 0.1804792109	-2.215317704	 0.1235151169	 0.19587
H	-2.1843556197	 2.0403154507	 0.0368475615	 0.125151
H	-1.0948669802	 4.5423441336	-0.2650400957	 0.101932
H	 2.0331520932	 3.5980773414	 1.5643650882	 0.115771
H	 1.0561834819	 2.2290282542	 2.1888558312	 0.116947
H	 2.0796612852	 2.010629585	-0.4307392868	 0.104961
116.6352	153.0602	294.2862	360.0023	469.7521	491.4145	540.1109	589.9513	617.0957	646.5271	664.9937	754.4621	826.817	843.5467	856.2448	878.8002	896.0688	941.3465	979.0983	1035.9803	1045.6717	1063.7883	1180.7273	1193.8653	1235.4247	1245.3855	1274.439	1305.8921	1329.8283	1352.6466	1513.07	1641.0662	2221.3926	3044.9314	3097.4603	3163.4785	3167.6175	3246.3706	3501.9634
C#CC1=CC2OCC1O2	C#CC1=C[C@H]2OC[C@@H]1O2	
InChI=1S/C7H6O2/c1-2-5-3-7-8-4-6(5)9-7/h1,3,6-7H,4H2	InChI=1S/C7H6O2/c1-2-5-3-7-8-4-6(5)9-7/h1,3,6-7H,4H2/t6-,7-/m0/s1
