17
gdb 44221	4.05005	1.24487	1.14728	2.1675	74.14	-0.253	0.0217	0.2747	1089.203	0.137293	-417.957354	-417.950021	-417.949077	-417.989386	28.707	
N	 0.3248017422	 0.9360904628	-0.5608972836	-0.544112
C	 0.0809404196	-0.1903739954	-0.0706583738	 0.436573
O	 0.9307772171	-1.1180619236	 0.5178199547	-0.26654
C	-0.1855569422	-2.0256379083	 0.7885306782	-0.003436
C	-1.1647781197	-1.0276973735	 0.1094742215	-0.165774
C	-1.4040604017	-2.0595617273	-1.0413149991	-0.317634
C	-0.4204842487	-3.0189592389	-0.3476090277	 0.347585
C	 0.5540692944	-3.9854106244	-0.8913399405	-0.293405
N	-0.6680349517	-4.4513304549	-0.2058676423	-0.362571
H	 1.3196385181	 1.1612125835	-0.5056647551	 0.229498
H	-0.1995355101	-2.3487738108	 1.8305454137	 0.092975
H	-2.0254057401	-0.5653967318	 0.5859345599	 0.109492
H	-2.4224578134	-2.4536282114	-1.0474890913	 0.127339
H	-1.1434852752	-1.7152053274	-2.0438495854	 0.125418
H	 0.5763593319	-4.1802163116	-1.9599943971	 0.127397
H	 1.5136353796	-4.079752124	-0.3895064742	 0.123895
H	-0.44450861	-4.758010993	 0.738888842	 0.2333
68.8914	171.7293	221.3222	311.7955	336.6175	414.6816	461.3299	556.831	649.6589	747.0235	785.1313	834.7454	859.2165	873.9045	887.2297	912.0182	936.2106	945.801	977.8308	1001.789	1004.0224	1046.3788	1059.4512	1124.4759	1136.2431	1163.8854	1183.3485	1233.0446	1246.7437	1260.4736	1276.0709	1293.8896	1321.266	1413.942	1477.9832	1512.9975	1825.1694	3074.6305	3106.3745	3108.9953	3131.1101	3153.6533	3195.5863	3476.5617	3484.768
N=C1OC2C1CC21CN1	[NH][C]1O[C@H]2[C@@H]1C[C@]12CN1	
InChI=1S/C6H8N2O/c7-5-3-1-6(2-8-6)4(3)9-5/h3-4,7-8H,1-2H2	InChI=1S/C6H8N2O/c7-5-3-1-6(2-8-6)4(3)9-5/h3-4,7-8H,1-2H2/t3-,4-,6+/m0/s1
