21
gdb 89056	3.88167	0.76038	0.70965	2.2787	80.35	-0.2461	0.0836	0.3297	1670.6049	0.18044	-424.175816	-424.166105	-424.16516	-424.211783	34.931	
C	 0.4546502789	 1.6006188746	-0.0572505822	-0.398516
C	 0.2412570902	 0.1036463002	-0.0104895636	-0.028876
C	 1.4046069764	-0.8291603203	 0.2762922542	-0.324798
C	 0.2995474751	-0.639963026	 1.2897252603	 0.131163
O	 0.5520774998	 0.1086108725	 2.437808468	-0.251767
C	 1.2064508825	-0.6259133776	 3.4547553876	-0.076805
C	 1.4382499055	 0.2892349675	 4.6241034829	 0.082399
C	 2.5247646768	 0.0429856782	 5.5783952759	-0.181699
O	 2.6291430974	 1.0782940207	 4.6025265125	-0.22767
H	 1.1492772297	 1.9199477632	 0.722692998	 0.135442
H	 0.8587352342	 1.9064281863	-1.0281306355	 0.112442
H	-0.4874003675	 2.1372966724	 0.0988105636	 0.116306
H	-0.4962695057	-0.2709930827	-0.7157647632	 0.084304
H	 1.4791894351	-1.7708730908	-0.2567790634	 0.107892
H	 2.3553096408	-0.3594045353	 0.5078175019	 0.120823
H	-0.3960646112	-1.4665998637	 1.4462496272	 0.07878
H	 0.5835170689	-1.4807942867	 3.7702231295	 0.089365
H	 2.1687914197	-1.0221265285	 3.0986896133	 0.099793
H	 0.5525838886	 0.824864827	 4.9667240264	 0.101377
H	 2.4198167696	 0.37330253	 6.6107118792	 0.11689
H	 3.189961795	-0.8074738409	 5.4308159577	 0.113156
46.0008	49.9584	103.8179	137.5921	187.6946	219.6462	275.5751	338.4947	391.8556	427.5826	505.7222	574.9936	755.8468	798.1922	834.6009	863.6419	889.422	921.5582	949.938	984.8658	999.7715	1026.3917	1059.4424	1092.4136	1106.5669	1118.0639	1146.195	1154.8926	1160.4781	1175.4992	1189.408	1195.6662	1251.7424	1267.5905	1293.0171	1357.5992	1382.6826	1413.4098	1419.5917	1461.5119	1484.9806	1494.3832	1500.2231	1506.6069	1532.3413	2958.0724	3016.5597	3035.2871	3079.3471	3081.3675	3092.6984	3115.516	3122.5569	3128.9035	3142.1476	3166.9426	3217.2918
CC1CC1OCC1CO1	C[C@H]1C[C@H]1OC[C@H]1CO1	
InChI=1S/C7H12O2/c1-5-2-7(5)9-4-6-3-8-6/h5-7H,2-4H2,1H3	InChI=1S/C7H12O2/c1-5-2-7(5)9-4-6-3-8-6/h5-7H,2-4H2,1H3/t5-,6+,7+/m0/s1
