23
gdb 65216	3.13933	1.17809	1.14553	0.0956	89.57	-0.2338	0.0318	0.2655	1228.3209	0.206739	-351.159259	-351.150432	-351.149488	-351.192636	34.958	
C	-0.2067876789	 1.4791398284	 0.3440215413	-0.46503
C	-0.0509711587	-0.0084656905	 0.0790779484	 0.396356
C	 1.0281677409	-0.4232653815	-0.8941003469	-0.314368
C	 1.2103583708	-0.6680495251	 0.5868488621	-0.314379
C	-1.3249912767	-0.8510386728	 0.0964948978	-0.047465
C	-2.0756836077	-0.781905607	 1.4636183999	-0.275914
C	-3.2967459621	 0.0531341801	 1.1684280883	-0.053343
C	-3.4572325018	 0.2687666337	-0.1357968791	-0.053346
C	-2.3739104105	-0.3811792954	-0.9600727805	-0.275931
H	 0.7659188358	 1.9796173044	 0.3064815203	 0.107446
H	-0.853740348	 1.9584628334	-0.3982522838	 0.117662
H	-0.6400576048	 1.6728530121	 1.3309348933	 0.117643
H	 0.8451106064	-1.28186782	-1.5320975918	 0.105909
H	 1.625291012	 0.3531555295	-1.3610319618	 0.105125
H	 1.9305519943	-0.0569098735	 1.1209379476	 0.105126
H	 1.1499559396	-1.6911020716	 0.9438500771	 0.105922
H	-1.0280312125	-1.883418279	-0.110745133	 0.060549
H	-2.3648499679	-1.7821132142	 1.8143158396	 0.099607
H	-1.4464179106	-0.3574028829	 2.2551926133	 0.103062
H	-3.9663631628	 0.4027433178	 1.9471640093	 0.08635
H	-4.2775939253	 0.8209034163	-0.5821102882	 0.086349
H	-1.933229433	 0.2967767092	-1.700992462	 0.10306
H	-2.7764634885	-1.2289506114	-1.531250321	 0.099608
83.5924	84.6218	201.0823	221.7754	266.6938	307.7316	340.283	391.4223	412.7512	497.3174	647.0415	729.2651	741.0505	786.8802	787.7529	863.6747	869.4319	902.077	930.4687	953.6069	961.467	966.5605	978.6904	981.7708	1022.617	1045.4735	1069.3475	1074.6539	1080.2848	1127.1068	1130.7379	1172.8569	1178.3811	1188.3723	1243.3073	1281.9854	1306.0517	1326.39	1330.2103	1375.2878	1390.929	1427.3186	1469.2229	1478.9909	1491.5863	1498.0272	1499.3665	1509.6747	1689.1827	3008.4428	3010.142	3031.208	3044.5297	3045.1384	3056.0281	3093.4797	3100.3417	3123.6579	3128.3226	3175.5674	3200.3732	3201.4997	3214.674
CC1(CC1)C1CC=CC1	CC1(CC1)[C@H]1CC=CC1	
InChI=1S/C9H14/c1-9(6-7-9)8-4-2-3-5-8/h2-3,8H,4-7H2,1H3	InChI=1S/C9H14/c1-9(6-7-9)8-4-2-3-5-8/h2-3,8H,4-7H2,1H3
