12
gdb 23973	5.93458	0.94964	0.81865	5.3473	80.63	-0.2421	-0.0484	0.1937	1276.0306	0.078671	-394.547656	-394.54022	-394.539276	-394.579747	27.426	
C	 0.0206247354	-1.1955919213	-0.003610567	-0.379135
C	 0.0103693762	 0.0072273307	 0.0028501394	 0.208215
C	-0.0230725673	 1.4223900061	 0.0107585955	 0.135384
C	-1.1486346667	 2.2301732972	 0.0310009992	-0.163019
N	-0.6847293309	 3.5102061796	 0.0310970403	-0.279097
C	 0.6863441576	 3.4444460562	 0.0113018688	 0.257271
N	 1.1134316061	 2.1986850508	-0.001337853	-0.329936
C	 1.4890542668	 4.6147763224	 0.0060332644	 0.229046
N	 2.1034939926	 5.5956844179	 0.0024408171	-0.326982
H	 0.0403732609	-2.2573675142	-0.0094643288	 0.195897
H	-2.1991252023	 1.9941932552	 0.0446888804	 0.160846
H	-1.2382783283	 4.3521633994	 0.0433984538	 0.29151
116.3505	118.7289	204.3142	210.9012	456.284	486.7551	499.6777	530.232	583.6409	590.3074	595.8977	671.9135	677.5343	694.4062	733.4025	793.7828	997.3011	1020.9977	1124.1285	1228.8556	1275.6603	1371.4022	1433.0131	1517.7021	1559.9509	2244.2451	2351.9851	3286.6413	3502.9806	3653.7074
C#CC1=CNC(=N1)C#N	C#Cc1c[nH]c(n1)C#N	
InChI=1S/C6H3N3/c1-2-5-4-8-6(3-7)9-5/h1,4H,(H,8,9)	InChI=1S/C6H3N3/c1-2-5-4-8-6(3-7)9-5/h1,4H,(H,8,9)
