21
gdb 36731	3.89373	0.8014	0.77486	1.2631	85.16	-0.2495	0.0365	0.2859	1568.8576	0.181959	-387.059416	-387.049989	-387.049045	-387.095136	34.661	
C	 0.6837743753	-1.134583152	 0.2678397785	-0.421386
C	 0.4647929436	 0.0456400562	 0.2354859948	 0.284274
C	 0.1661926327	 1.4722767353	 0.2059680679	-0.213497
O	 1.3266574011	 2.1982527544	-0.1416052568	-0.264021
C	 1.1152645242	 3.607186202	-0.2388906055	 0.157547
C	 1.0919879243	 4.2931883345	 1.1562563825	-0.224041
C	 2.4977562079	 4.9290895937	 1.3501974013	-0.195922
C	 3.3603714552	 4.3603429479	 0.206643881	-0.194274
C	 2.3502021752	 4.187762675	-0.9369450502	-0.222381
H	 0.8839884914	-2.1770887901	 0.2932440712	 0.198907
H	-0.639892417	 1.6669411253	-0.5231175784	 0.115826
H	-0.2231878696	 1.7812501508	 1.1902511987	 0.117315
H	 0.1889105487	 3.7879446208	-0.8039427497	 0.05644
H	 0.3003899024	 5.046131735	 1.2131413316	 0.097048
H	 0.8773488822	 3.5498321942	 1.9291202429	 0.107126
H	 2.429963125	 6.0185160967	 1.2553202921	 0.097259
H	 2.9170465452	 4.7229003956	 2.3383679332	 0.097679
H	 4.2032791707	 5.0062480865	-0.0534909132	 0.090308
H	 3.7624817117	 3.3803618643	 0.4838998725	 0.115261
H	 2.6900403109	 3.5374267925	-1.7460087813	 0.107308
H	 2.0945104091	 5.1645263915	-1.3656828231	 0.093222
29.5034	58.0763	116.8028	126.6938	206.4013	284.9088	334.2372	359.7003	439.9896	525.828	582.9796	606.5283	672.1616	705.3127	795.8222	849.0891	864.1489	899.2976	908.6745	933.8355	980.6406	989.0749	1017.9192	1032.7229	1046.7668	1094.1639	1115.1631	1191.9219	1200.8612	1224.7245	1250.9259	1254.9523	1296.2511	1314.2019	1341.4076	1348.9948	1356.3543	1372.4774	1429.2967	1472.7597	1477.3933	1492.0188	1503.3145	1509.8839	2247.6506	2950.404	2973.5168	2988.5228	3037.896	3040.7232	3052.4434	3058.0113	3084.4721	3097.8102	3105.9121	3112.625	3506.6379
C#CCOC1CCCC1	C#CCOC1CCCC1	
InChI=1S/C8H12O/c1-2-7-9-8-5-3-4-6-8/h1,8H,3-7H2	InChI=1S/C8H12O/c1-2-7-9-8-5-3-4-6-8/h1,8H,3-7H2
