13
gdb 130802	8.13863	0.66527	0.615	2.377	87.48	-0.2529	-0.0835	0.1694	1662.236	0.090457	-415.60785	-415.600039	-415.599095	-415.641425	26.996	
O	-0.1593827714	 0.0080662041	 0.0006719545	-0.230522
C	-0.0360693524	 1.2129101044	 0.0086463409	-0.002526
C	 1.2239867714	 1.9007547643	-0.0001175461	 0.152024
C	 2.2770955321	 2.5012644316	-0.0072747312	 0.001105
C	 3.4985149436	 3.1873684181	-0.0157649472	 0.225719
C	 4.8163082127	 2.7381280108	-0.0341272745	-0.312624
C	 5.5931738162	 3.9059749166	-0.0338496373	-0.010278
N	 4.8355244618	 5.0068379844	-0.016769521	-0.193823
N	 3.5817340761	 4.5545344024	-0.0061171262	-0.272559
H	-0.9163975698	 1.8872378333	 0.0236221745	 0.100356
H	 5.1388514994	 1.7105618652	-0.0457310602	 0.130486
H	 6.6686212627	 3.9986384982	-0.0452774139	 0.127073
H	 2.8142620476	 5.2066301464	 0.0076362976	 0.285568
69.353	73.1714	116.9059	201.6679	253.56	418.1893	495.6838	509.7531	544.9917	679.5842	703.2141	708.7181	827.0463	906.4615	930.9986	964.4587	1014.7106	1053.5285	1085.1688	1157.1745	1262.6673	1291.316	1363.6582	1420.8802	1430.1795	1460.4069	1585.8101	1754.4523	2300.6401	2919.1747	3255.6681	3284.6039	3662.4128
O=CC#CC1=CC=NN1	O=CC#Cc1ccn[nH]1	
InChI=1S/C6H4N2O/c9-5-1-2-6-3-4-7-8-6/h3-5H,(H,7,8)	InChI=1S/C6H4N2O/c9-5-1-2-6-3-4-7-8-6/h3-5H,(H,7,8)
