16
gdb 73741	2.10818	1.76358	0.97178	6.2565	84.38	-0.2087	-0.0186	0.1902	1159.8479	0.12342	-400.776476	-400.767347	-400.766403	-400.810789	33.047	
N	 0.0043405599	 1.3075603701	 0.0313934139	-0.597814
C	-0.0254415918	-0.036066239	 0.0081603228	 0.310787
C	-1.151389458	-0.8184499058	 0.0045217574	-0.027789
C	-2.4677797823	-0.3099285629	 0.0128441425	 0.189571
C	-3.5750022008	 0.1690753782	 0.0190106039	-0.419748
C	-0.7752182107	-2.2391977888	-0.0106563743	 0.29439
O	-1.5061212369	-3.2031036661	-0.0182462918	-0.341403
C	 0.7660757612	-2.3055205175	-0.0169989415	-0.329855
C	 1.2484120852	-0.8447368377	-0.0047199833	-0.317922
H	 0.8688437591	 1.8152638362	-0.02439033	 0.266158
H	-0.859751768	 1.8249441153	 0.0035772919	 0.272886
H	-4.563388727	 0.5560979026	 0.0257974275	 0.18611
H	 1.104901922	-2.8713690396	 0.8550277495	 0.132589
H	 1.0983166208	-2.8549821191	-0.9019350575	 0.132329
H	 1.8526487711	-0.5889240405	-0.8836851485	 0.123904
H	 1.8592288961	-0.6053436655	 0.8740648375	 0.125807
72.4027	88.6605	119.9512	124.8857	192.2177	312.1485	417.2156	442.5623	494.5034	527.8201	532.0423	558.9317	587.4663	652.8982	655.4017	674.9057	683.7184	844.4294	940.1081	1008.831	1011.3548	1025.3711	1155.0677	1168.2515	1236.4609	1267.8613	1269.491	1314.8859	1439.1295	1461.4054	1484.9813	1617.542	1670.2431	1805.8513	2215.3819	3028.8203	3057.9348	3069.0544	3110.3066	3502.5689	3599.9664	3732.0552
NC1=C(C#C)C(=O)CC1	NC1=C(C#C)C(=O)CC1	
InChI=1S/C7H7NO/c1-2-5-6(8)3-4-7(5)9/h1H,3-4,8H2	InChI=1S/C7H7NO/c1-2-5-6(8)3-4-7(5)9/h1H,3-4,8H2
