14
gdb 54393	2.71525	1.39058	1.29924	3.1561	63.7	-0.257	-0.0227	0.2343	1015.8792	0.099308	-473.792662	-473.784519	-473.783575	-473.826014	29.592	
N	-0.1111738555	 1.2689074392	 0.2884255768	-0.536806
C	 0.0704499129	-0.0497495238	 0.0264105119	 0.265937
O	 1.1405436281	-0.5871759169	-0.1772798196	-0.359217
C	-1.2071371774	-0.833858808	-0.0361454285	 0.210575
C	-1.5628783646	-2.2051911687	 0.5767743569	-0.253917
C	-2.8968761464	-1.6126298312	 0.0608535358	-0.080782
O	-2.4589058874	-0.2819831026	 0.5666037032	-0.342554
C	-2.1573859899	-1.1996575465	-1.2384724507	 0.444646
O	-2.2818936738	-1.0819798131	-2.4074440766	-0.290548
H	 0.6918690219	 1.8751363566	 0.3191139208	 0.270144
H	-1.0291604634	 1.6432450975	 0.4596415784	 0.280558
H	-1.1631186802	-3.1043733223	 0.1053079752	 0.135173
H	-1.4931818003	-2.2137086327	 1.6653290922	 0.131468
H	-3.9238360242	-1.9091373074	 0.2591113743	 0.125323
47.076	132.0496	173.5586	185.5161	252.6211	352.0156	456.2486	471.7808	517.9607	572.6437	652.5912	663.118	779.368	781.5272	809.9424	835.3606	917.5412	942.805	1003.2008	1030.3684	1096.4149	1100.2231	1168.0931	1198.5319	1204.3223	1245.0758	1414.389	1478.7183	1613.2997	1800.866	1947.0977	3082.1824	3162.7997	3165.2974	3599.1283	3737.2866
NC(=O)C12CC(O1)C2=O	NC(=O)[C@@]12C[C@@H](O1)C2=O	
InChI=1S/C5H5NO3/c6-4(8)5-1-2(9-5)3(5)7/h2H,1H2,(H2,6,8)	InChI=1S/C5H5NO3/c6-4(8)5-1-2(9-5)3(5)7/h2H,1H2,(H2,6,8)/t2-,5+/m1/s1
