16
gdb 8356	6.21484	1.07182	1.06756	1.9973	76.15	-0.2327	0.0239	0.2566	1169.9281	0.129275	-346.510813	-346.503031	-346.502086	-346.54468	28.131	
C	 0.0032034369	 1.4023462208	-0.0373217379	-0.517877
C	-0.0023568538	-0.0512352065	-0.0080558349	 0.392285
C	-0.0046712944	-1.2558390026	 0.0093713394	-0.395581
C	-0.0163769945	-2.6844824466	 0.0531542284	 0.355697
C	 0.8126414629	-3.6561491104	 0.9469710452	-0.249302
C	 0.0586571685	-4.4757448828	-0.122753374	 0.020557
C	-1.2251549354	-3.6637063272	 0.1546509607	-0.249295
O	 0.4490115046	-3.4698435995	-1.1363173147	-0.339942
H	 0.6954363728	 1.8134192227	 0.7055098211	 0.153045
H	 0.3136055613	 1.7703552903	-1.0213407976	 0.158352
H	-0.9928038745	 1.8082617186	 0.1705613055	 0.153068
H	 1.8918891615	-3.5896454179	 0.8086678123	 0.113037
H	 0.5143715836	-3.7606348845	 1.9930910567	 0.09709
H	 0.1679374629	-5.5244115222	-0.3938150561	 0.098743
H	-1.7112080268	-3.7688957267	 1.1277583322	 0.097085
H	-1.9279270158	-3.6037988957	-0.6765221762	 0.113038
16.1242	103.6375	104.1642	301.3195	318.1071	453.4763	485.5349	489.6912	542.9771	604.8719	722.0963	795.6875	874.6613	916.3843	939.1218	949.2217	985.6973	1051.7546	1054.604	1055.9858	1079.3828	1088.8118	1114.1657	1162.8271	1217.9855	1236.6632	1238.3871	1350.5078	1412.7839	1465.4289	1474.1365	1476.2408	1509.1821	2367.7938	3028.6851	3061.1379	3069.5341	3091.0734	3092.4991	3136.3067	3151.0997	3155.5228
CC#CC12CC(C1)O2	CC#C[C@@]12C[C@@H](C1)O2	
InChI=1S/C7H8O/c1-2-3-7-4-6(5-7)8-7/h6H,4-5H2,1H3	InChI=1S/C7H8O/c1-2-3-7-4-6(5-7)8-7/h6H,4-5H2,1H3/t6-,7+
