12
gdb 130860	3.96223	1.19053	0.91546	1.4204	67.69	-0.2673	-0.1117	0.1556	1143.2271	0.076639	-472.61467	-472.607459	-472.606515	-472.646877	25.867	
O	-0.0614961823	-0.0194395876	-0.0389163776	-0.232321
C	-0.0083598767	 1.1776470083	 0.0383278998	 0.11874
C	 1.255081219	 1.9731481393	-0.0342693207	 0.333049
C	 1.2590671061	 3.321408371	 0.0571992975	-0.337215
C	 2.5241165425	 4.0303233772	-0.0221443061	 0.37648
O	 2.6797792712	 5.2363155634	 0.0440265079	-0.340772
C	 3.6595880627	 3.0936354221	-0.200266875	-0.05312
N	 3.6082756349	 1.8117714861	-0.2824246603	-0.032321
O	 2.3544492933	 1.2182519041	-0.1964877183	-0.252039
H	-0.906798308	 1.8155116351	 0.1728932331	 0.107147
H	 0.3319150499	 3.867188303	 0.1878343126	 0.146347
H	 4.6612591074	 3.509059838	-0.2738635529	 0.166027
90.2986	147.0896	191.4088	235.1104	389.4443	421.2237	471.6467	513.306	570.3484	671.8036	744.6704	747.1825	897.4665	913.2489	946.073	959.4504	1003.8437	1019.4139	1154.7976	1244.0578	1309.4244	1387.4267	1426.295	1621.2519	1658.7017	1767.8033	1824.0614	2920.3775	3184.4291	3209.1147
O=CC1=CC(=O)C=NO1	O=Cc1cc(=O)cno1	
InChI=1S/C5H3NO3/c7-3-5-1-4(8)2-6-9-5/h1-3H	InChI=1S/C5H3NO3/c7-3-5-1-4(8)2-6-9-5/h1-3H
