15
gdb 76029	2.64612	1.246	1.07813	4.0226	75.36	-0.2412	-0.0014	0.2398	1145.8981	0.110371	-416.756588	-416.747203	-416.746259	-416.790514	34.235	
N	 0.1492912625	 1.4365723256	-0.017053384	-0.507258
C	 0.0408083328	 0.0154456714	 0.0128118568	-0.027832
C	-0.461825761	-0.6880101315	 1.2604965761	-0.293366
C	-0.9915133969	 0.0663365201	 2.3559185	 0.304921
N	-1.4476426732	 0.6711565021	 3.230949668	-0.338861
C	-1.2996392582	-0.7079098591	-0.0550875876	 0.142208
O	-2.382291592	 0.1637812731	-0.112718907	-0.439024
C	-1.4313625517	-1.9635209683	-0.7364919475	 0.287169
C	-1.5365120537	-3.0201025337	-1.3023215677	-0.416316
H	 0.1980739041	 1.7587327538	-0.9789299947	 0.245626
H	-0.6729721863	 1.8655966265	 0.3968867039	 0.259698
H	 0.8638045316	-0.4930062242	-0.4782739031	 0.124705
H	 0.0305291893	-1.6133795642	 1.5367915301	 0.148951
H	-3.1115189255	-0.2081287187	 0.3979796447	 0.304502
H	-1.6330422916	-3.9484695728	-1.8094998779	 0.204876
98.598	123.0128	146.1036	160.9692	195.9652	257.8815	316.9129	354.717	398.6087	456.3702	486.2191	553.8407	592.3133	631.3132	645.0388	687.3669	720.2244	801.3381	822.9688	905.705	986.7309	1024.2359	1103.832	1126.0776	1192.0206	1242.6567	1283.9657	1346.0391	1353.9486	1454.76	1669.4172	2228.9919	2349.4662	3172.2676	3183.4385	3498.8874	3503.1656	3581.5535	3790.5158
NC1C(C#N)C1(O)C#C	N[C@H]1[C@@H](C#N)[C@]1(O)C#C	
InChI=1S/C6H6N2O/c1-2-6(9)4(3-7)5(6)8/h1,4-5,9H,8H2	InChI=1S/C6H6N2O/c1-2-6(9)4(3-7)5(6)8/h1,4-5,9H,8H2/t4-,5+,6-/m1/s1
