23
gdb 42068	1.94439	1.75758	1.06601	0.048	93.06	-0.233	0.0209	0.2539	1217.6289	0.208854	-351.166813	-351.158386	-351.157442	-351.199312	34.191	
C	-0.1353242177	 1.5877041652	 0.0112181385	-0.183619
C	 1.2694134557	 2.2333040701	 0.0102083971	-0.239308
C	 2.0805176266	 1.8399050355	 1.2120868621	-0.029094
C	 3.0653456694	 0.9401185882	 1.2629982723	-0.052309
C	 3.6381421427	 0.1241054765	 0.1287800146	-0.241767
C	 2.8196332568	-1.1734304009	-0.1886791956	-0.241772
C	 1.8159765224	-0.9997253857	-1.3035378223	-0.05231
C	 0.5788102612	-0.504353976	-1.2253555821	-0.029093
C	-0.1065143611	 0.0420624079	-0.0051415851	-0.239305
H	-0.6913846124	 1.9183420368	 0.8974909767	 0.092229
H	-0.6900707164	 1.9544776888	-0.8615589043	 0.09223
H	 1.7853519498	 1.950708537	-0.9124648953	 0.105397
H	 1.1461556129	 3.3235005524	-0.0102602143	 0.094242
H	 1.7808748563	 2.3130250392	 2.1472662611	 0.077354
H	 3.5036617506	 0.7335898751	 2.2384680231	 0.080669
H	 3.7186886165	 0.7212371845	-0.7854954838	 0.108216
H	 4.6592219726	-0.1662633874	 0.398119788	 0.096182
H	 3.5199298392	-1.9638003304	-0.4791364712	 0.096182
H	 2.3329679315	-1.5155719055	 0.7305864128	 0.108218
H	 2.175148728	-1.2940095322	-2.2887831134	 0.080667
H	 0.0060747398	-0.4298702425	-2.1498098693	 0.077354
H	 0.3883879332	-0.3098320592	 0.9051497153	 0.105399
H	-1.1414811876	-0.3209361074	 0.0296608851	 0.094237
140.1741	172.1131	190.3496	216.5316	300.2923	308.967	365.6734	393.2828	546.0807	546.6527	573.8933	589.3339	723.127	766.6207	800.1723	811.2073	854.5344	871.3839	946.9938	961.3908	994.0087	994.0331	1014.0231	1018.2074	1032.0747	1063.3654	1082.861	1099.8781	1176.1318	1195.7469	1225.2766	1251.7878	1287.4444	1296.8495	1302.3533	1330.9251	1332.2358	1349.5701	1362.9872	1374.005	1428.8332	1434.4931	1480.4687	1485.3796	1491.4851	1495.2944	1500.7282	1723.2598	1724.6282	3016.1801	3025.2411	3031.8216	3034.5194	3041.147	3056.5102	3076.3256	3076.7462	3083.8618	3087.0912	3117.1418	3117.2529	3142.4785	3142.9039
C1CC=CCCC=CC1	C1CC=CCCC=CC1	
InChI=1S/C9H14/c1-2-4-6-8-9-7-5-3-1/h1-2,7,9H,3-6,8H2/b2-1-,9-7-	InChI=1S/C9H14/c1-2-4-6-8-9-7-5-3-1/h1-2,7,9H,3-6,8H2/b2-1-,9-7-
