22
gdb 122840	6.78389	0.51101	0.48726	2.6474	82.28	-0.2426	0.0348	0.2774	2306.6491	0.191662	-441.516061	-441.504487	-441.503543	-441.555264	38.688	
C	-0.1477824981	 1.5349062797	-0.0280533185	-0.384675
C	-0.0517137248	 0.018586612	-0.0415694112	-0.028413
O	-1.3560282708	-0.5170657781	 0.047635722	-0.249242
C	-1.3758963146	-1.9279331235	 0.0514242082	-0.042683
C	-2.8268543532	-2.3755223129	 0.175802002	-0.335014
C	-2.9387311119	-3.8913424687	 0.3006716527	 0.418853
O	-2.0735013675	-4.567891426	 0.8313328634	-0.378419
N	-4.0878617713	-4.4221126004	-0.2102370648	-0.31459
C	-4.3994587936	-5.8355851022	-0.1321960158	-0.333258
H	 0.8487217937	 1.9813932905	-0.0965280002	 0.113948
H	-0.7460602393	 1.8892253603	-0.8724338376	 0.123899
H	-0.6209680545	 1.8809992945	 0.8953322611	 0.125406
H	 0.4401999986	-0.3295966195	-0.9660963172	 0.084166
H	 0.5641784223	-0.3384881715	 0.8011630752	 0.087507
H	-0.9294766953	-2.3254951527	-0.87552834	 0.089212
H	-0.7934338604	-2.3362917571	 0.8890014408	 0.1151
H	-3.2545926622	-1.9234638225	 1.0793481672	 0.137525
H	-3.4095889508	-1.9992201741	-0.6720421265	 0.104437
H	-4.7557447116	-3.8010369285	-0.6351582735	 0.244907
H	-4.5366164988	-6.2695404573	-1.1289035515	 0.124527
H	-3.5562895747	-6.324809016	 0.3566719389	 0.172134
H	-5.3070770612	-6.015093346	 0.4553829655	 0.124671
24.9346	42.6164	83.3742	85.9245	102.7142	127.6782	163.8035	219.8579	247.73	277.7952	346.9808	432.6045	450.2397	504.174	627.9001	720.0661	811.3434	822.6899	883.8043	920.9234	1032.564	1047.3509	1075.4516	1105.1928	1148.9387	1155.0379	1165.0922	1174.1685	1185.3184	1219.0276	1236.2963	1294.5185	1297.1289	1344.9423	1390.8905	1407.8958	1437.8717	1450.9256	1469.7756	1483.5588	1493.4297	1499.8304	1500.5684	1517.5793	1538.0227	1560.7838	1773.8588	2951.1077	2967.9758	2977.2455	3025.7656	3025.8955	3035.9962	3043.6478	3077.0795	3079.7562	3118.157	3119.5301	3153.7835	3650.9565
CCOCCC(=O)NC	CCOCCC(=O)NC	
InChI=1S/C6H13NO2/c1-3-9-5-4-6(8)7-2/h3-5H2,1-2H3,(H,7,8)	InChI=1S/C6H13NO2/c1-3-9-5-4-6(8)7-2/h3-5H2,1-2H3,(H,7,8)
