21
gdb 60071	2.31394	1.12053	0.96441	4.7263	83.12	-0.2713	0.0229	0.2942	1362.1396	0.181662	-383.266297	-383.256372	-383.255427	-383.301223	36.688	
C	-0.1227403305	 1.6258462484	 0.2266282877	-0.401219
C	 0.0160039032	 0.106642338	 0.0564127679	 0.033816
C	 0.7732484162	-0.5138172367	 1.2379109318	-0.394368
C	-1.3450322124	-0.5945370296	-0.1198744191	-0.274589
C	-2.1381868912	-0.1780252938	-1.352862311	 0.1401
C	-3.6279577292	-0.3117584936	-1.3526878621	-0.269369
N	-3.0124729202	 1.0164707279	-1.329819855	-0.32171
C	-1.442542556	-0.3706908673	-2.6121549719	 0.296531
N	-0.8694840365	-0.5608007296	-3.5981146201	-0.347949
H	 0.8603029163	 2.0916052693	 0.3467705744	 0.12028
H	-0.6055544302	 2.092631969	-0.6364714276	 0.138182
H	-0.7107402951	 1.868916645	 1.1212310668	 0.10421
H	 0.6000787306	-0.0796589682	-0.8545992044	 0.105542
H	 0.2280075888	-0.3650670727	 2.1780170155	 0.111585
H	 0.9164192343	-1.5909041217	 1.102007969	 0.115584
H	 1.760735561	-0.0564301688	 1.3529203186	 0.117966
H	-1.184583654	-1.6788433685	-0.1657155348	 0.118743
H	-1.9754783668	-0.4100118169	 0.7609347057	 0.094833
H	-4.1466961737	-0.560503163	-2.2728377042	 0.143525
H	-4.0783346	-0.7065003308	-0.4455571954	 0.125614
H	-3.0200456548	 1.3974931235	-0.3866059117	 0.242694
59.5126	91.1716	135.364	200.0201	234.5971	236.3015	267.17	312.1824	323.969	373.5117	424.8935	450.0113	575.3847	592.0527	710.5788	810.2561	841.2939	888.8916	907.3106	932.6047	951.666	970.3234	980.3702	988.2635	1070.881	1124.4192	1137.7802	1155.2409	1196.7997	1247.6561	1251.0219	1300.9165	1330.3326	1360.9285	1374.9379	1392.8952	1402.6591	1424.3837	1471.0968	1490.669	1495.6253	1505.9578	1507.6144	1514.3758	2356.2047	3011.5638	3018.6939	3022.9808	3030.3738	3059.1799	3088.5713	3094.3411	3104.9348	3113.9109	3114.7414	3208.3525	3502.5044
CC(C)CC1(CN1)C#N	CC(C)C[C@]1(CN1)C#N	
InChI=1S/C7H12N2/c1-6(2)3-7(4-8)5-9-7/h6,9H,3,5H2,1-2H3	InChI=1S/C7H12N2/c1-6(2)3-7(4-8)5-9-7/h6,9H,3,5H2,1-2H3/t7-/m1/s1
