17
gdb 28020	5.87405	0.8784	0.7714	3.2868	80.92	-0.2123	0.0337	0.246	1446.3337	0.135447	-380.888442	-380.879392	-380.878448	-380.923148	32.761	
C	 0.8705004373	 1.3264362948	 0.6922454064	-0.498325
C	 0.271825979	 0.0797597059	 0.1317036624	 0.338413
N	 0.5905252197	-0.4819650998	-1.0151085812	-0.347046
C	-0.2059503217	-1.6020824817	-1.126123051	 0.277003
C	-0.1020658991	-2.4922249368	-2.3344470723	-0.471607
C	-1.0078716537	-3.6354599848	-2.3049751912	 0.320423
C	-1.7553679734	-4.5761824787	-2.2774533519	-0.464063
C	-1.0168892991	-1.7192927146	-0.0316568164	-0.173584
N	-0.7024151337	-0.6375073357	 0.7667366849	-0.285368
H	 1.3588250507	 1.1482805426	 1.6574064552	 0.130892
H	 1.6193045983	 1.697347532	-0.0084793013	 0.157989
H	 0.1189987687	 2.1104137073	 0.8417898341	 0.130889
H	-0.2913798938	-1.8969320123	-3.2378841303	 0.14611
H	 0.9329820577	-2.8462217101	-2.433244718	 0.146121
H	-2.4115062417	-5.4106288813	-2.263356528	 0.19307
H	-1.7615510959	-2.4462012978	 0.2428080462	 0.138233
H	-1.1188637992	-0.419893679	 1.6562956925	 0.260851
38.4806	64.3779	112.957	193.2894	257.0873	298.7747	333.5706	384.6596	457.5425	515.1871	608.4369	640.5148	651.8594	685.9236	698.0429	740.7084	744.9544	956.3085	960.1478	970.7685	1007.0393	1048.9405	1062.2257	1110.4946	1213.8055	1240.8982	1241.9377	1337.688	1382.0731	1411.9218	1441.085	1464.2312	1482.8782	1500.2573	1573.7264	1613.6182	2241.356	3014.8951	3029.5735	3036.7501	3078.2303	3149.2013	3287.3069	3506.302	3664.2491
CC1=NC(CC#C)=CN1	Cc1nc(CC#C)c[nH]1	
InChI=1S/C7H8N2/c1-3-4-7-5-8-6(2)9-7/h1,5H,4H2,2H3,(H,8,9)	InChI=1S/C7H8N2/c1-3-4-7-5-8-6(2)9-7/h1,5H,4H2,2H3,(H,8,9)
