18
gdb 67720	2.5001	1.78256	1.1485	2.6743	89.07	-0.2134	-0.0274	0.186	1086.1082	0.148181	-364.807169	-364.79934	-364.798396	-364.83929	30.428	
C	 0.0527362509	 1.5721963133	-0.2887067314	-0.493766
C	-0.0060502415	 0.0810249084	-0.2144024884	 0.2987
C	-0.7963303616	-0.7429384665	-0.9286979399	-0.237453
C	-0.6091613536	-2.1542679088	-0.5952274602	 0.37797
C	-1.2277729375	-3.2072037573	-1.1375159394	-0.431016
N	-0.1667085145	-2.2181276622	 1.9148881743	-0.180799
C	 0.2107484585	-1.0057921916	 2.102360501	-0.003726
C	 0.8427719691	-0.7131026382	 0.751596744	-0.215422
C	 0.4170988821	-2.1984089858	 0.5148257321	-0.10468
H	 1.0657778731	 1.9163184737	-0.5343621296	 0.129951
H	-0.6334342288	 1.9656377751	-1.0432789566	 0.129477
H	-0.2037124391	 2.0302410888	 0.675339064	 0.131819
H	-1.5167901533	-0.4106372475	-1.6695953333	 0.094219
H	-1.976851657	-3.0868676899	-1.913336755	 0.103366
H	-1.0141574063	-4.220252021	-0.8154334175	 0.111413
H	 0.0552657283	-0.4124777972	 3.004454535	 0.113231
H	 1.9053014349	-0.4479463986	 0.7497925191	 0.086424
H	 1.1950695063	-2.9544702948	 0.3926818519	 0.090291
131.4661	153.9313	179.7562	241.2845	290.7726	323.6637	408.9923	559.5333	571.7582	605.9508	649.8084	705.5995	816.2071	874.7521	897.1878	902.0073	913.1106	939.4819	949.0168	962.3337	984.3228	1020.5655	1022.3724	1062.1613	1163.5893	1191.2154	1200.5532	1241.4108	1254.7757	1301.4438	1305.9331	1338.9844	1413.794	1455.5206	1477.1093	1485.9232	1646.7978	1668.9534	1707.456	3015.5433	3053.6626	3060.2449	3095.0919	3112.698	3123.7052	3149.0348	3182.0614	3232.4955
CC12C=C3CN4C1C2C34	CC1=CC(=C)[C@@H]2[N][CH][C@H]12	
InChI=1S/C8H9N/c1-8-2-4-3-9-6(4)5(8)7(8)9/h2,5-7H,3H2,1H3	InChI=1S/C8H9N/c1-5-3-6(2)8-7(5)4-9-8/h3-4,7-8H,2H2,1H3/t7-,8+/m1/s1
