16
gdb 34762	3.93166	1.08295	0.99882	1.266	81.67	-0.2364	0.0231	0.2595	1199.7205	0.122591	-363.489587	-363.481357	-363.480413	-363.522335	31.671	
C	-0.0052210062	-1.2262135478	 0.0970075348	-0.451765
C	 0.0113856043	-0.0231488597	 0.0954808232	 0.353434
C	 0.019382588	 1.4114548562	 0.0771916806	-0.215088
C	 0.5306974642	 2.2450830401	 1.1970762983	-0.03792
C	 1.6710436617	 1.5396571154	 1.9518774052	-0.216708
C	 2.3828241782	 1.4880811276	 0.5576937767	-0.176247
N	 1.2586315443	 2.2233427276	-0.1206585327	-0.145647
C	 2.3370632177	 2.3366667705	 2.9607533436	 0.291635
C	 2.8920131738	 3.0052177275	 3.7917514851	-0.421182
H	-0.0275006561	-2.2881642226	 0.0956871084	 0.204959
H	-0.8035437615	 1.8558300927	-0.4774032866	 0.127369
H	-0.0028344827	 3.1197892891	 1.5547745668	 0.11244
H	 1.3875698982	 0.5647527765	 2.3611886725	 0.120624
H	 3.2836078299	 2.1000238737	 0.5219539038	 0.131913
H	 2.5806120934	 0.4950332002	 0.1480891852	 0.124924
H	 3.3830142428	 3.5902008929	 4.5294375251	 0.19726
83.8173	134.9434	172.0999	198.8285	312.0239	369.5956	455.3983	516.4999	558.8196	594.579	615.2563	622.3255	638.3665	671.1067	735.8224	759.1878	789.1057	869.5002	921.0144	956.4962	1023.1093	1046.181	1065.546	1084.2442	1103.2854	1181.7563	1218.9165	1224.4637	1279.6617	1304.2561	1359.7511	1393.5773	1487.5701	2231.9389	2238.4322	3053.7427	3077.249	3140.5584	3147.4804	3169.0662	3501.2763	3504.3888
C#CC1C2C(CN12)C#C	C#C[C@H]1[C@H]2[C@@H](CN12)C#C	
InChI=1S/C8H7N/c1-3-6-5-9-7(4-2)8(6)9/h1-2,6-8H,5H2	InChI=1S/C8H7N/c1-3-6-5-9-7(4-2)8(6)9/h1-2,6-8H,5H2/t6-,7+,8-,9?/m1/s1
