17
gdb 76279	2.40962	1.61978	1.09084	1.5027	70.9	-0.2629	-0.016	0.2469	1095.1	0.136915	-455.202327	-455.193852	-455.192907	-455.235458	31.912	
C	 0.1930064755	 1.5948949597	 0.0471597399	-0.386371
C	-0.0126934344	 0.0729753564	-0.0000617864	-0.100289
C	 0.7096715684	-0.6010714218	-1.18825388	 0.025398
O	 0.9112378578	 0.2222207673	-2.304229459	-0.430507
C	 2.0380925221	-1.0647676189	-0.5873510187	 0.380971
O	 3.0494236856	-1.3029230604	-1.2050564504	-0.370446
N	 1.8481982558	-1.1465037766	 0.774298656	-0.36322
C	 0.6364294707	-0.5881904861	 1.2131046165	 0.380229
N	 0.1514970713	-0.5723834946	 2.3824749341	-0.524655
H	 1.2560013131	 1.8533915681	 0.079439092	 0.120989
H	-0.2343247186	 2.0599721263	-0.8428002653	 0.139979
H	-0.2894511345	 2.0007114338	 0.9389750065	 0.136345
H	-1.0816314855	-0.1472830186	 0.0064162286	 0.111008
H	 0.1614270119	-1.5168583822	-1.4706132781	 0.105195
H	 1.7586323406	-0.0471747471	-2.6860472608	 0.298327
H	 2.5611051112	-1.5013812127	 1.3960204667	 0.263632
H	 0.7514916291	-1.0480986025	 3.0587414284	 0.213415
68.6894	138.4674	230.5513	247.6355	252.2592	261.1638	360.8463	394.1059	478.8593	535.3737	609.0911	627.5282	647.5089	688.5433	747.5736	806.6823	879.7664	883.9402	912.9359	1045.2848	1070.7392	1102.3293	1113.7306	1171.4961	1229.3267	1243.6611	1286.2788	1343.0681	1353.2326	1368.5364	1385.2256	1403.4947	1423.5296	1492.9451	1495.9977	1766.8384	1848.8422	2951.4754	3050.9358	3096.0037	3125.2258	3145.8909	3456.8585	3610.6536	3745.4598
CC1C(O)C(=O)NC1=N	C[C@H]1[C@@H](O)C(=O)N[C]1[NH]	
InChI=1S/C5H8N2O2/c1-2-3(8)5(9)7-4(2)6/h2-3,8H,1H3,(H2,6,7,9)	InChI=1S/C5H8N2O2/c1-2-3(8)5(9)7-4(2)6/h2-3,8H,1H3,(H2,6,7,9)/t2-,3+/m0/s1
