16
gdb 111941	3.32618	1.19637	0.9157	5.5854	74.35	-0.2255	-0.0924	0.1331	1237.7323	0.123773	-437.901265	-437.892681	-437.891737	-437.935313	30.706	
C	-0.0125821527	 1.5423741391	-0.055395999	-0.319724
N	-0.0142967376	 0.0996018275	 0.1499915069	-0.267328
C	-1.3088588761	-0.5454002454	 0.0316614935	-0.13969
C	-1.8518278166	-0.7350175685	-1.3740043289	-0.07903
C	-2.2229305846	-1.9945416538	-1.6604273863	-0.182602
C	-1.9888407307	-2.8861429035	-0.5108721002	 0.290158
O	-2.2477634143	-4.0574643726	-0.3838214406	-0.299731
C	-1.303005614	-1.9962236456	 0.5662736197	 0.287278
O	-0.8344898917	-2.3878897961	 1.5960002189	-0.263451
H	 1.0089680851	 1.9162895516	 0.053910687	 0.132477
H	-0.3925704537	 1.8782665682	-1.0354299347	 0.098936
H	-0.6247841565	 2.0167835316	 0.7194609163	 0.132702
H	 0.6659063996	-0.3540903693	-0.4496208344	 0.225071
H	-2.0191303247	 0.0324021322	 0.6404831663	 0.125553
H	-1.9030055331	 0.0943005976	-2.0725896426	 0.128142
H	-2.6265836184	-2.348454763	-2.601201092	 0.131238
50.2242	80.1354	161.977	206.4887	241.5267	306.0076	334.9847	351.3436	503.9515	552.7465	645.7564	688.8097	705.8119	736.2605	768.7948	872.2798	966.2873	1003.2958	1021.6982	1036.9375	1110.6928	1141.4163	1154.2323	1177.5142	1216.4072	1243.5534	1328.5758	1370.3957	1459.0863	1489.9946	1494.1617	1519.0671	1624.9046	1820.3128	1869.2257	2956.0352	3012.0327	3061.5992	3112.1611	3182.7344	3216.6195	3534.2288
CNC1C=CC(=O)C1=O	CN[C@H]1C=CC(=O)C1=O	
InChI=1S/C6H7NO2/c1-7-4-2-3-5(8)6(4)9/h2-4,7H,1H3	InChI=1S/C6H7NO2/c1-7-4-2-3-5(8)6(4)9/h2-4,7H,1H3/t4-/m0/s1
