19
gdb 55463	3.34991	1.15617	1.03901	3.0262	73.62	-0.2341	0.0307	0.2648	1220.5808	0.161193	-456.351963	-456.343517	-456.342573	-456.385312	32.451	
N	 0.3232228813	 0.6101272457	-1.08097277	-0.526577
C	-0.0157466195	 0.0127929265	 0.1102001247	 0.326319
N	 0.5179271542	 0.1548616013	 1.2604109145	-0.520264
C	-1.2375553816	-0.8860401439	 0.0058855899	 0.181777
O	-2.3812172008	-0.0769074204	-0.1087383349	-0.251265
C	-3.5658466399	-0.8614845615	-0.187516861	-0.076538
C	-3.489251842	-1.8156891365	-1.381531465	-0.207998
C	-2.1799505933	-2.6017598215	-1.2917432051	-0.07837
O	-1.0761747559	-1.7149420426	-1.1285280098	-0.268584
H	 1.2411511862	 1.0215256184	-1.1473883946	 0.245263
H	 0.0032588359	 0.1332460831	-1.9108027279	 0.260473
H	 1.3159909829	 0.7937862919	 1.2212051131	 0.198249
H	-1.299017267	-1.5030364041	 0.9166902093	 0.082853
H	-3.698120599	-1.4317867638	 0.7473202965	 0.094971
H	-4.3972700219	-0.1581530436	-0.2768342277	 0.114865
H	-4.3466884065	-2.497755333	-1.3895573501	 0.101414
H	-3.5036636419	-1.2358888085	-2.3104297759	 0.113239
H	-2.2149221855	-3.3024381968	-0.4413880118	 0.097394
H	-1.9820432855	-3.1787651807	-2.1985429441	 0.11278
52.1974	120.0286	198.9115	261.3789	286.4601	350.601	402.9074	447.8371	470.3359	495.1578	519.0164	603.5864	651.7479	698.2883	865.0533	877.8968	900.1366	909.425	952.3403	972.8558	1020.6795	1032.1295	1067.2248	1119.4383	1134.6321	1170.0558	1178.498	1239.7271	1262.0533	1302.2065	1362.4747	1370.259	1373.9619	1408.4069	1415.0129	1450.8782	1469.2698	1496.4226	1507.1279	1632.3244	1745.024	2968.892	2977.2422	2988.5081	3043.0544	3090.0706	3095.7224	3100.7435	3435.7741	3572.8848	3688.6327
NC(=N)C1OCCCO1	NC(=N)C1OCCCO1	
InChI=1S/C5H10N2O2/c6-4(7)5-8-2-1-3-9-5/h5H,1-3H2,(H3,6,7)	InChI=1S/C5H10N2O2/c6-4(7)5-8-2-1-3-9-5/h5H,1-3H2,(H3,6,7)
