16
gdb 21152	3.36293	1.84925	1.21804	5.7055	68.46	-0.2016	0.0233	0.2249	975.5566	0.13134	-376.098666	-376.090398	-376.089454	-376.131854	29.07	
C	 0.1250091575	 1.4615699772	 0.0932771251	-0.343255
N	-0.1939682694	 0.0530696594	-0.0791033395	-0.385612
C	 0.5289766344	-0.7021566321	-0.9826387317	 0.332495
C	 0.6942704014	-2.0727616968	-1.1074902062	 0.231341
C	 0.1645999921	-3.1709993975	-0.2460215176	-0.515804
N	 1.4604875664	-2.3001186068	-2.2125216948	-0.240661
N	 1.7836333696	-1.180782756	-2.7820428158	-0.14698
N	 1.2176270113	-0.1913573397	-2.0313837628	-0.245552
H	 1.1827950005	 1.6489024364	 0.3349088467	 0.124212
H	-0.1249443724	 2.0183273826	-0.8171535054	 0.134575
H	-0.4921103113	 1.8674642625	 0.8971396772	 0.139951
H	-0.3543210816	-0.4390933665	 0.7874321717	 0.250806
H	-0.9308017741	-3.2253613197	-0.2653435214	 0.126652
H	 0.5545339674	-4.1252842225	-0.6066538276	 0.151749
H	 0.4682598142	-3.0613128997	 0.8032329086	 0.114171
H	 1.3454067239	 0.7686632592	-2.3033686064	 0.271912
58.6087	93.5882	167.1109	196.0375	251.7203	281.086	338.7088	465.1522	492.9947	564.2842	648.1882	703.5052	731.1745	771.1239	977.6887	1024.2268	1026.6062	1066.98	1072.0361	1144.7482	1160.069	1241.4018	1275.2165	1320.2116	1391.2683	1415.5656	1463.5812	1468.3523	1485.1213	1490.2422	1495.1508	1520.7086	1548.7549	1650.6225	2983.8096	3014.7874	3059.1105	3060.5991	3127.1883	3128.3145	3602.1978	3673.9005
CNC1=C(C)N=NN1	CNc1c(C)nn[nH]1	
InChI=1S/C4H8N4/c1-3-4(5-2)7-8-6-3/h1-2H3,(H2,5,6,7,8)	InChI=1S/C4H8N4/c1-3-4(5-2)7-8-6-3/h1-2H3,(H2,5,6,7,8)
