23
gdb 88180	3.18797	1.16304	1.01758	0.3328	93.41	-0.2178	0.032	0.2498	1303.219	0.207439	-351.170597	-351.16184	-351.160896	-351.203716	34.865	
C	-0.1016645041	 1.5320274862	-0.0754109099	-0.414154
C	 0.0179500133	 0.0263195242	 0.0171186544	-0.046003
C	 1.3209294016	-0.6795894242	-0.2377614371	-0.337266
C	 0.7275683748	-0.6736188282	 1.1681271437	 0.348429
C	 1.403956788	 0.142045934	 2.2633404743	-0.286847
C	 2.1837652332	-0.7705407183	 3.2213120986	-0.210832
C	 1.2548521528	-1.7986908326	 3.8827163692	-0.245467
C	 0.3365229791	-2.4418643545	 2.8758291609	-0.087456
C	 0.1285107091	-1.9416973232	 1.6563044736	-0.094132
H	 0.8094803416	 2.037919658	 0.2552357473	 0.115803
H	-0.2885038776	 1.8396885486	-1.1104586427	 0.116073
H	-0.9304984692	 1.9065578936	 0.5358813246	 0.1173
H	-0.8660265465	-0.4986983415	-0.3395835602	 0.079665
H	 1.3166512435	-1.6089887333	-0.7973585504	 0.106997
H	 2.2035038445	-0.0673117581	-0.4001772711	 0.106237
H	 2.0733595025	 0.8925728748	 1.8325013675	 0.089782
H	 0.6410297138	 0.6900391044	 2.8338624423	 0.095772
H	 2.9608672422	-1.2998695097	 2.6558494587	 0.101207
H	 2.6948463335	-0.1729805146	 3.9837062188	 0.087257
H	 1.8466173764	-2.5698150055	 4.3921260232	 0.098658
H	 0.6609243707	-1.3173037673	 4.6747979027	 0.103411
H	-0.1637268907	-3.3610112803	 3.1708299286	 0.079557
H	-0.5215585926	-2.4686077326	 0.959805803	 0.076008
78.8017	157.6637	185.5906	203.3001	253.4756	325.4149	362.1593	420.5947	448.6	476.314	538.9954	651.0878	710.5629	745.0702	796.5857	858.0025	870.5578	893.2814	914.4736	920.0214	963.0749	988.0945	997.5967	1026.3504	1040.7137	1065.7189	1076.1551	1105.3983	1131.5787	1157.9174	1179.2777	1195.9885	1234.1651	1265.3696	1295.0566	1322.1278	1367.7412	1370.0882	1375.2939	1403.5802	1418.3445	1438.1155	1474.7305	1482.9744	1488.4885	1492.202	1497.6333	1503.4032	1714.4658	2990.6287	3008.6789	3024.6055	3029.4427	3040.3273	3071.8197	3074.2454	3085.0867	3105.8101	3118.7655	3125.8953	3131.9611	3160.5316	3205.2108
CC1CC11CCCC=C1	C[C@H]1C[C@]21CCCC=C2	
InChI=1S/C9H14/c1-8-7-9(8)5-3-2-4-6-9/h3,5,8H,2,4,6-7H2,1H3	InChI=1S/C9H14/c1-8-7-9(8)5-3-2-4-6-9/h3,5,8H,2,4,6-7H2,1H3/t8-,9+/m0/s1
