19
gdb 74409	2.99676	1.57555	1.32404	1.7029	79.64	-0.2099	-0.0104	0.1995	1050.7142	0.158576	-385.876764	-385.868747	-385.867802	-385.908673	32.298	
C	-0.036793271	 1.4994893006	 0.0732935497	-0.506197
C	-0.0462321626	 0.0160113007	-0.0424659916	 0.365246
C	-0.0252211585	-0.7948229617	-1.0968864952	-0.258282
C	 0.0465599067	-2.2368811983	-0.5237415694	 0.319041
C	-0.4588726367	-3.3725204184	-1.3800708954	-0.50067
O	-0.7474290163	-2.055100711	 0.6694940956	-0.258451
C	 0.0158662467	-0.9541037278	 1.1749319708	-0.108675
C	 1.4326270038	-1.5827860855	 1.1913451105	-0.090405
C	 1.4533590201	-2.3799233863	 0.1290594119	-0.108569
H	 0.8665650543	 1.8480006055	 0.5927593153	 0.126623
H	-0.0673991942	 1.9814198891	-0.9077144233	 0.128009
H	-0.8911917498	 1.8623261531	 0.6588203374	 0.129648
H	 0.0054494144	-0.5463983353	-2.1490938922	 0.099718
H	 0.1630858635	-3.4827025533	-2.2740244414	 0.117214
H	-0.4340596236	-4.3137960178	-0.8240093447	 0.129431
H	-1.4880432058	-3.1836267693	-1.6973914473	 0.130281
H	-0.3827061108	-0.5875110016	 2.1209294799	 0.073788
H	 2.2178012766	-1.3455689489	 1.8948765739	 0.106877
H	 2.2613347632	-2.9753157237	-0.2729606544	 0.105372
149.7743	185.4655	196.4929	239.9494	290.5584	326.5357	450.3888	470.9514	545.7561	581.8148	641.1811	657.5035	710.1266	763.4631	793.3692	828.5929	858.4662	870.9104	877.7031	903.9656	915.0979	998.3978	1025.6948	1061.6678	1093.7506	1107.3862	1145.518	1155.5051	1212.9023	1260.1188	1273.1804	1306.6139	1328.8602	1411.1738	1414.6319	1478.2886	1481.8457	1485.6143	1495.8461	1635.4475	1712.3626	3009.6933	3043.2965	3054.97	3108.1268	3114.6897	3122.1262	3122.1905	3219.1801	3222.5779	3247.1411
CC1=CC2(C)OC1C=C2	CC1=C[C@]2(C)O[C@H]1C=C2	
InChI=1S/C8H10O/c1-6-5-8(2)4-3-7(6)9-8/h3-5,7H,1-2H3	InChI=1S/C8H10O/c1-6-5-8(2)4-3-7(6)9-8/h3-5,7H,1-2H3/t7-,8+/m0/s1
