18
gdb 30165	3.83113	1.33879	1.1165	1.4411	78.3	-0.1795	0.025	0.2045	1110.3187	0.150415	-401.96743	-401.959983	-401.959038	-401.999386	29.433	
C	 0.1743322379	 1.4736050447	 0.0616453312	-0.395498
C	-0.0300817062	-0.0388013465	-0.0410183831	 0.047838
C	 0.7325213666	-0.6422082334	-1.2836598766	-0.369469
C	 1.9089771944	-1.2169605128	-0.5793908506	 0.305251
C	 1.7565969746	-1.261187224	 0.7625928064	 0.249347
N	 0.5094721229	-0.7494097216	 1.1726787055	-0.417257
C	 2.8972458185	-1.9470557921	 1.2855515325	-0.3379
C	 3.6432033968	-2.2636689635	 0.1834961	-0.012668
O	 3.0496080163	-1.8410650177	-0.9725097093	-0.198362
H	 1.2417448019	 1.7142778237	 0.1140715044	 0.128284
H	-0.2499459568	 1.9844281384	-0.8090986726	 0.118789
H	-0.3159435608	 1.8773720764	 0.9545820795	 0.11305
H	-1.0999163989	-0.2533798209	-0.1183980196	 0.083893
H	 0.1253467039	-1.4042478398	-1.7903841321	 0.114965
H	 0.9605331524	 0.1346372372	-2.022835384	 0.110207
H	 0.5564432552	-0.1264865791	 1.9720814325	 0.221827
H	 3.1488139778	-2.1763854829	 2.3090319071	 0.107948
H	 4.5927534536	-2.758414486	 0.0620306588	 0.129756
75.4989	180.1588	255.7488	277.4043	345.5865	401.8755	455.0071	605.5278	618.4356	656.2056	707.6768	718.5624	739.9664	800.5731	811.9447	852.7685	917.2575	927.8025	938.7911	1041.6633	1056.9122	1083.7603	1101.6836	1137.1932	1169.0694	1198.0839	1266.0115	1274.5443	1319.7707	1344.6813	1373.5167	1403.5808	1403.9903	1490.6595	1493.5514	1496.184	1506.5359	1511.2054	1674.0474	3006.8781	3026.0765	3044.7645	3057.4338	3095.4558	3105.5797	3254.0498	3282.0185	3519.0338
CC1CC2=C(N1)C=CO2	C[C@H]1Cc2c(N1)cco2	
InChI=1S/C7H9NO/c1-5-4-7-6(8-5)2-3-9-7/h2-3,5,8H,4H2,1H3	InChI=1S/C7H9NO/c1-5-4-7-6(8-5)2-3-9-7/h2-3,5,8H,4H2,1H3/t5-/m0/s1
