15
gdb 33597	3.99674	1.51236	1.37574	3.4484	73.48	-0.2473	0.0081	0.2555	928.4094	0.115021	-379.59385	-379.587653	-379.586708	-379.624424	25.067	
N	 0.1017998886	-1.0744192233	-0.0585448675	-0.351808
C	 0.026437039	 0.0811621406	-0.0373420251	 0.139029
C	-0.0758604825	 1.4955499302	 0.0206222908	 0.252569
C	 0.1014311031	 2.4312312169	-1.2130406849	-0.136316
C	 0.9946193414	 2.5636655176	-0.0273364318	-0.078902
N	 0.0243042843	 3.5473368644	 0.6009389912	-0.179485
C	-0.7612388858	 3.6072109474	-0.7308403756	-0.011047
C	-2.0138220751	 3.066488572	-0.02164918	-0.249587
C	-0.9700413082	 2.4046182157	 0.889415655	-0.072031
H	 0.2990143443	 2.0370812879	-2.2007659843	 0.120393
H	 2.0645273083	 2.5167177486	 0.1264672568	 0.124295
H	-0.7481845146	 4.5373935699	-1.297251172	 0.096133
H	-2.5462167173	 3.863691082	 0.5031688867	 0.127014
H	-2.7095218003	 2.4343948396	-0.5767893182	 0.118262
H	-1.1571032351	 2.1194577206	 1.9231456491	 0.101479
141.3261	164.4634	391.6634	467.3247	520.979	536.1598	595.1262	724.1186	776.9721	786.6448	807.6293	879.3123	882.7532	915.414	924.803	950.564	962.8652	996.0327	1012.9422	1017.5338	1067.4699	1093.9235	1139.1527	1160.4586	1191.7391	1208.6886	1234.8867	1248.9102	1282.4164	1302.7527	1392.0847	1475.4408	2342.1222	3071.7511	3128.4418	3134.9654	3138.7509	3202.8675	3217.0009
N#CC12C3C1N1C3CC21	N#C[C@]12[C@@H]3[C@H]1N1[C@@H]3C[C@@H]21	
InChI=1S/C7H6N2/c8-2-7-4-1-3-5(7)6(7)9(3)4/h3-6H,1H2	InChI=1S/C7H6N2/c8-2-7-4-1-3-5(7)6(7)9(3)4/h3-6H,1H2/t3-,4+,5+,6-,7+/m1/s1
