15
gdb 126829	4.7706	1.14896	1.00934	4.1885	74.74	-0.2486	-0.0858	0.1628	1165.5985	0.112161	-446.217391	-446.20945	-446.208505	-446.250414	28.909	
C	-0.0402129145	 1.463600221	 0.024047297	-0.38528
C	 0.0644297938	-0.0572648418	-0.0619278198	-0.131703
N	 0.7430014867	-0.5250830951	-1.2778430404	 0.01889
N	 0.0182363911	-0.4260176878	-2.436383395	-0.03084
N	 0.5891686563	-0.7521702277	-3.5068209694	-0.16047
C	 1.9070642156	-1.2588131639	-3.3897689479	 0.42523
N	 2.3270234543	-2.1362793008	-4.1987781996	-0.456732
N	 2.6941960012	-0.6667054489	-2.367755082	-0.203363
N	 2.095067132	-0.3560669233	-1.304815458	-0.034969
H	 0.9537887239	 1.9184355023	 0.0278518786	 0.146786
H	-0.6073420991	 1.8589882911	-0.8225809399	 0.148459
H	-0.5537790843	 1.747167125	 0.9470549964	 0.133041
H	 0.6335112841	-0.4666646772	 0.7751157843	 0.144119
H	-0.9217832815	-0.5255703838	-0.0705551527	 0.1455
H	 3.3022146403	-2.3560258292	-3.9803031014	 0.241331
72.2023	87.3075	161.4831	217.2771	333.5542	402.3737	416.331	456.6699	524.7111	574.6424	681.2357	715.2455	784.3543	793.6754	840.2084	892.9305	933.1719	964.7164	1015.1717	1059.0876	1105.3101	1186.371	1277.4376	1302.8572	1347.4124	1389.5907	1411.5564	1475.4328	1490.5916	1498.8289	1504.1339	1582.6748	1740.0819	3050.9138	3085.6769	3124.1738	3127.7702	3147.1736	3458.7239
CCN1N=NC(=N)N=N1	CCN1N=N[C@@H]([NH])N=N1	
InChI=1S/C3H6N6/c1-2-9-7-5-3(4)6-8-9/h4H,2H2,1H3	InChI=1S/C3H7N6/c1-2-9-7-5-3(4)6-8-9/h3-4H,2H2,1H3
