22
gdb 76641	2.91036	1.10998	0.93174	1.4883	83.26	-0.2151	0.0715	0.2866	1358.5975	0.19314	-404.292509	-404.282682	-404.281738	-404.328142	35.473	
C	-0.0354230015	 1.567473406	 0.7026607719	-0.416547
C	 0.003944141	 0.1252668351	 0.2422099668	-0.003475
C	 0.3745992106	-0.2910091394	-1.1498424944	-0.031745
C	 0.7492035203	 0.6958178404	-2.2216353954	 0.145459
C	 1.3939992729	 0.1417308804	-3.5165351534	-0.299276
C	 0.193523402	 0.797704299	-4.2242149001	-0.061652
O	-0.4197014211	 1.1371028633	-2.9621713726	-0.295631
N	 1.2371619764	-0.6205143844	-0.010090548	-0.1128
C	 2.5414938835	 0.0050127373	 0.158274191	-0.313488
H	 0.6613923717	 2.2180482718	 0.1719022682	 0.121082
H	-1.0410357665	 1.9723250339	 0.5506107577	 0.132957
H	 0.1917952268	 1.6353648658	 1.7724139731	 0.120256
H	-0.7506139043	-0.4880879326	 0.7356973879	 0.088574
H	-0.1376577693	-1.1602941803	-1.5653971698	 0.082498
H	 1.2884154998	 1.5581335421	-1.8144731167	 0.067915
H	 2.3837762318	 0.5244467525	-3.7691799543	 0.10865
H	 1.4044454324	-0.9490949566	-3.5660805879	 0.114188
H	 0.4370811376	 1.6922014179	-4.8125783037	 0.099002
H	-0.4453286097	 0.1421869468	-4.826770816	 0.105837
H	 2.597768734	 1.0798900004	-0.0629443128	 0.10155
H	 2.860516947	-0.1363771949	 1.1962676897	 0.123409
H	 3.2642600746	-0.5094721445	-0.4835067312	 0.123237
37.0106	85.8867	114.6084	154.1467	168.5105	200.739	263.5057	286.4919	358.429	461.7567	483.8513	556.4267	721.6889	759.5347	784.2835	834.1038	872.085	943.6138	963.0302	996.3055	1010.136	1023.8351	1047.528	1084.5916	1112.4906	1135.9321	1152.4153	1166.1897	1170.1215	1187.1838	1207.2612	1220.4491	1255.6019	1276.5307	1316.599	1346.4591	1355.3213	1400.5194	1417.1173	1446.1214	1460.6288	1484.7269	1489.0376	1494.9468	1505.2642	1507.8667	1533.0148	2995.2361	3011.0937	3035.5676	3041.7199	3057.5694	3065.6719	3076.5731	3084.6417	3094.8378	3095.1056	3098.2685	3133.3644	3134.939
CC1C(C2CCO2)N1C	C[C@H]1[C@@H]([C@H]2CCO2)N1C	
InChI=1S/C7H13NO/c1-5-7(8(5)2)6-3-4-9-6/h5-7H,3-4H2,1-2H3	InChI=1S/C7H13NO/c1-5-7(8(5)2)6-3-4-9-6/h5-7H,3-4H2,1-2H3/t5-,6+,7-,8?/m0/s1
