20
gdb 84849	2.59063	1.76745	1.3338	2.1029	79.33	-0.2394	0.0321	0.2715	1027.547	0.173265	-403.151292	-403.143681	-403.142737	-403.183008	30.769	
C	-0.8873295852	 1.2914439707	 0.1093558065	-0.384868
C	 0.0519329379	 0.0856599695	-0.0433832856	 0.041404
N	 0.8514213764	 0.2897700442	-1.2431475982	-0.268727
C	 2.1037099036	 0.2411999443	-1.3815803169	 0.114199
O	 3.1416036791	-0.0082338021	-0.5391290751	-0.234587
C	 2.9094929785	-0.2830268364	 0.8409615141	 0.129082
C	 1.8328546677	-1.3667616319	 1.0919548335	-0.266972
C	 0.7978611665	-0.2203922475	 1.2608279258	-0.015539
C	 1.9848929374	 0.7481092899	 1.5320154832	-0.255581
H	-0.3240832542	 2.1981094138	 0.3535764206	 0.116686
H	-1.4202108177	 1.4704623678	-0.8271136788	 0.127567
H	-1.6180370167	 1.117087366	 0.9055454722	 0.106742
H	-0.5782974072	-0.7909991646	-0.2606000691	 0.087189
H	 2.5290533477	 0.4268928382	-2.3685608733	 0.118353
H	 3.905913856	-0.4411523731	 1.2558887598	 0.086441
H	 1.6686120331	-2.0958226188	 0.2943411957	 0.111473
H	 2.0255201912	-1.8967970837	 2.0284465603	 0.103626
H	 0.0721493499	-0.3386505029	 2.0705090264	 0.065778
H	 2.2180293965	 0.8324441152	 2.596580909	 0.104537
H	 1.9526456293	 1.7487501515	 1.0947944899	 0.113197
111.9255	216.5671	245.8458	300.555	323.6006	368.8329	393.456	458.9843	515.5708	605.2743	734.1173	785.6945	795.8275	832.3495	873.5427	893.3774	930.2898	945.4409	963.3145	978.5001	1021.9835	1044.5741	1074.1383	1107.7315	1132.9969	1143.2078	1159.4524	1180.7945	1222.7536	1256.2847	1276.8198	1284.8243	1320.879	1351.0978	1372.4708	1391.4295	1402.7477	1442.9185	1461.0903	1485.8875	1488.8268	1499.3055	1751.5047	2979.5418	3038.1651	3056.926	3060.4496	3070.4225	3100.2486	3105.9353	3116.8828	3120.4589	3127.667	3130.9327
CC1N=COC2CC1C2	C[C@H]1N=CO[C@@H]2C[C@H]1C2	
InChI=1S/C7H11NO/c1-5-6-2-7(3-6)9-4-8-5/h4-7H,2-3H2,1H3	InChI=1S/C7H11NO/c1-5-6-2-7(3-6)9-4-8-5/h4-7H,2-3H2,1H3/t5-,6-,7+/m1/s1
