20
gdb 37130	3.10049	1.65999	1.63812	1.4946	80.64	-0.2369	0.0952	0.3322	949.3339	0.174836	-365.95978	-365.953029	-365.952084	-365.990399	29.065	
C	 0.0269521762	 1.4505692918	 0.0441349963	-0.284207
C	 1.3515593636	 0.7338879113	 0.0550423965	-0.136626
C	 0.0243728926	-0.0554068981	 0.063238066	-0.136625
C	 0.3644588409	-0.6062157867	-1.3103813462	 0.240887
C	-0.3028108532	-0.4715666014	-2.6608331684	-0.280254
C	 0.857037923	 0.0171006205	-3.5853727002	-0.201457
C	 1.8485460049	 0.8078901778	-2.6741188798	-0.280254
C	 1.6606241679	 0.1646363151	-1.3183870035	 0.240888
N	 1.655733711	-1.3025795736	-1.3417253933	-0.39567
H	-0.2532280026	 1.9313852406	 0.9777104036	 0.111624
H	-0.2999405268	 1.9910453774	-0.8404945588	 0.110557
H	 2.0579528666	 0.8574733481	 0.8692500821	 0.084363
H	-0.4140245528	-0.6126420536	 0.8845149696	 0.084363
H	-0.7571356143	-1.3943396063	-3.0344641205	 0.101946
H	-1.095722591	 0.2827063431	-2.5957554477	 0.099187
H	 1.3706965833	-0.8509394062	-4.0034603741	 0.122951
H	 0.4936345226	 0.6194483832	-4.4231251208	 0.090528
H	 2.8728155378	 0.7644686754	-3.0568813833	 0.101946
H	 1.5649401614	 1.8650579286	-2.6121834906	 0.099187
H	 1.8872499192	-1.682376717	-0.427853427	 0.226665
187.0944	231.2108	264.3544	395.3899	438.5474	523.0446	555.2987	593.8781	649.9792	724.9886	735.4916	782.8138	827.353	859.239	867.2929	902.9687	908.4459	941.3455	979.7522	995.7602	1017.3772	1058.2195	1067.3589	1071.2155	1074.022	1099.627	1105.8414	1179.1345	1179.6628	1203.1933	1227.4969	1252.9431	1255.1237	1289.7077	1328.2603	1338.9056	1340.2814	1373.854	1400.1435	1480.6191	1489.2891	1492.3607	1503.1261	3039.0109	3039.7957	3065.0594	3079.9364	3082.2185	3110.2353	3118.3207	3157.0906	3166.1507	3191.6931	3502.7677
C1C2C1C13CCCC21N3	C1[C@H]2[C@@H]1[C@@]13CCC[C@@]21N3	
InChI=1S/C8H11N/c1-2-7-5-4-6(5)8(7,3-1)9-7/h5-6,9H,1-4H2	InChI=1S/C8H11N/c1-2-7-5-4-6(5)8(7,3-1)9-7/h5-6,9H,1-4H2/t5-,6+,7+,8-
