15
gdb 128704	4.8123	1.09575	0.89757	3.1695	74.46	-0.231	-0.0677	0.1633	1236.1877	0.112511	-453.923631	-453.915704	-453.914759	-453.95637	29.203	
C	 0.024275486	 1.3846237405	 0.2293562299	-0.238601
O	-0.0297500157	-0.0442641367	 0.1713296249	-0.256447
C	-1.2279518265	-0.5946505506	-0.0759607481	 0.446251
N	-2.2561032629	 0.1623942186	-0.2471169001	-0.190878
O	-3.4764793046	-0.486289343	-0.5019446873	-0.297914
C	-3.6084131102	-1.8598724992	-0.5730138292	 0.407497
N	-4.7387368122	-2.392717978	-0.8067533925	-0.529522
C	-2.4047601046	-2.6491013117	-0.3694059156	-0.112132
C	-1.2372160235	-2.0422651122	-0.1260775868	-0.166299
H	 1.066179986	 1.6285993587	 0.4365484723	 0.136551
H	-0.2929540769	 1.8218958145	-0.7215605648	 0.146341
H	-0.6261722153	 1.7636616324	 1.0226610018	 0.146341
H	-5.4581924622	-1.6765224164	-0.9202910414	 0.228385
H	-2.5206107749	-3.7238397099	-0.4274301239	 0.144396
H	-0.3057017723	-2.5707451169	 0.0342408708	 0.136033
75.0826	138.667	194.3387	219.0239	299.7374	352.0337	390.3718	454.7102	537.6057	556.8613	624.3724	743.1831	771.8105	806.523	846.3601	879.0447	938.3614	1018.5257	1024.5561	1044.6932	1087.5871	1157.2697	1178.1905	1218.1488	1308.0279	1340.1257	1435.7846	1477.4223	1492.4901	1498.9667	1621.7155	1680.2694	1732.2767	3045.5235	3118.1216	3158.4978	3211.4407	3231.3572	3477.7414
COC1=NOC(=N)C=C1	COC1=NOC(=C[CH]1)[NH]	
InChI=1S/C5H6N2O2/c1-8-5-3-2-4(6)9-7-5/h2-3,6H,1H3	InChI=1S/C5H6N2O2/c1-8-5-3-2-4(6)9-7-5/h2-3,6H,1H3
