21
gdb 71013	3.66452	1.45733	1.31308	1.4056	83.04	-0.2345	0.0808	0.3153	1060.6696	0.183899	-387.039308	-387.031843	-387.030899	-387.070501	31.702	
C	 0.0165988617	 1.5420969929	 0.0679364458	-0.487333
C	-0.0629953452	 0.045780938	-0.0383109439	 0.431605
C	 0.2909859402	-0.7650094805	-1.358303827	-0.375734
C	-0.3789002609	-1.8851190493	-0.5161675439	 0.287977
C	-0.6972022088	-3.3828834926	-0.2964121808	-0.35363
C	-0.2517415094	-3.1536678609	 1.2052460415	-0.293543
C	 0.5836049845	-1.9531169523	 0.6502023369	 0.15326
O	 0.6932368018	-0.5830183148	 1.0464615092	-0.332157
C	-1.3625711355	-0.7865533663	-0.0035814039	-0.29007
H	 1.0526457323	 1.8813464063	-0.0261564258	 0.128151
H	-0.5769852101	 2.0151198463	-0.7193635494	 0.116625
H	-0.3629563819	 1.8755801446	 1.038808058	 0.128827
H	-0.2792934933	-0.3902325127	-2.2111799891	 0.097281
H	 1.345425976	-0.8921416002	-1.6171001621	 0.097294
H	-1.7218904874	-3.7123796162	-0.4781224902	 0.10506
H	-0.0083913181	-4.0534233198	-0.8176187363	 0.110091
H	-1.089251642	-2.8567538367	 1.8373608468	 0.116111
H	 0.3035789643	-3.9568787016	 1.6932238763	 0.099172
H	 1.578145802	-2.3245845218	 0.3714259085	 0.071063
H	-1.8423699048	-0.8975761694	 0.970641873	 0.096987
H	-2.0906962555	-0.5048069132	-0.7683027537	 0.092962
202.1079	205.7087	262.7361	268.1353	364.6309	411.8116	472.0241	523.8469	547.1436	615.2628	655.399	688.3125	783.743	787.8745	826.4932	852.2064	881.6197	905.0785	934.4187	970.8639	982.3198	1016.3273	1030.9777	1063.6409	1092.0788	1111.4129	1130.1434	1161.013	1167.7744	1184.2011	1204.8214	1213.3311	1230.9454	1247.3716	1280.8191	1296.2502	1335.2118	1392.3458	1416.1277	1473.7099	1479.7493	1482.162	1491.7077	1493.4878	1516.5042	3014.106	3040.9182	3057.8839	3063.7505	3066.4187	3081.0639	3110.6697	3118.0812	3118.4133	3123.8259	3129.3477	3144.0675
CC12CC3(CCC3O1)C2	C[C@@]12C[C@]3(CC[C@@H]3O1)C2	
InChI=1S/C8H12O/c1-7-4-8(5-7)3-2-6(8)9-7/h6H,2-5H2,1H3	InChI=1S/C8H12O/c1-7-4-8(5-7)3-2-6(8)9-7/h6H,2-5H2,1H3/t6-,7-,8+/m0/s1
