18
gdb 57150	2.50997	0.9354	0.74781	3.8247	83.2	-0.25	-0.0671	0.1829	1525.1852	0.14587	-401.898336	-401.888497	-401.887553	-401.934805	33.833	
C	 0.2588852901	 1.5724812545	 0.0413937822	-0.385378
C	 0.0205944121	 0.0447233156	-0.0188104891	-0.185439
C	 0.5882045239	-0.5082147909	-1.2435004973	 0.107049
C	 1.0935424943	-0.9566960494	-2.2465014444	 0.001133
C	 1.6598514745	-1.4740733184	-3.4660875398	 0.022876
O	 2.6278045266	-2.1977252596	-3.5172686385	-0.227612
C	 0.5588619971	-0.6398895032	 1.2405721417	 0.031515
C	 0.9453752119	-2.0686682137	 1.2695851878	-0.253706
N	 1.9708012359	-1.0120365254	 1.3750282272	-0.316407
H	 1.3284020499	 1.7944346667	 0.0824969024	 0.140889
H	-0.1664023703	 2.0703603678	-0.8331950096	 0.12995
H	-0.2122360286	 1.9820797883	 0.9393866971	 0.127462
H	-1.0657972225	-0.1240799859	-0.0485969836	 0.123461
H	 1.1289250175	-1.1513498675	-4.3845715732	 0.101635
H	 0.1405435296	-0.2031483148	 2.1461146871	 0.096871
H	 0.7917879138	-2.6531823397	 2.1719881782	 0.1203
H	 0.8839170145	-2.630370909	 0.3417142072	 0.12669
H	 2.4373568998	-0.9179775056	 0.4738257746	 0.238711
32.2745	63.79	84.7742	127.0705	192.575	218.8727	245.3836	267.8799	361.3544	420.381	506.2517	567.9876	669.101	728.2972	811.6713	859.6265	912.9791	956.9519	990.5829	1004.2723	1021.2902	1074.0166	1090.5289	1115.3827	1154.2542	1175.6586	1197.3079	1266.1707	1293.1475	1315.0876	1339.5252	1399.0871	1415.5059	1422.3163	1493.0225	1498.3031	1509.3502	1767.29	2319.018	2921.1285	3003.0248	3048.0062	3113.5884	3118.5568	3125.1745	3131.7039	3201.521	3478.2935
CC(C#CC=O)C1CN1	C[C@@H](C#CC=O)[C@H]1CN1	
InChI=1S/C7H9NO/c1-6(3-2-4-9)7-5-8-7/h4,6-8H,5H2,1H3	InChI=1S/C7H9NO/c1-6(3-2-4-9)7-5-8-7/h4,6-8H,5H2,1H3/t6-,7+/m0/s1
