17
gdb 56049	4.35092	0.91019	0.85785	1.6594	72.36	-0.236	0.0252	0.2613	1378.5928	0.135495	-455.167855	-455.158656	-455.157712	-455.203174	32.24	
N	 0.0023760964	 1.2150669365	-0.2386761076	-0.519166
C	-0.0584547103	-0.0792136786	 0.1969674289	 0.411437
O	 0.8823823671	-0.6464616071	 0.7087175118	-0.34402
C	-1.4477266566	-0.7275993496	 0.045853478	-0.295885
N	-1.3384010735	-2.1637939829	-0.1063563016	-0.318937
C	-1.2618799812	-2.8547128167	 0.9348338985	 0.491113
C	-1.0889103374	-4.3274101319	 1.2321829214	-0.376837
C	-1.182385233	-3.8654391432	 2.7012341762	-0.075669
O	-1.3459278768	-2.4825001634	 2.2630343331	-0.257548
H	 0.8935254712	 1.6824014705	-0.1983327212	 0.259717
H	-0.7210829199	 1.618012646	-0.8077729213	 0.257158
H	-2.0262798793	-0.4321119418	 0.9342724199	 0.135852
H	-1.9584045034	-0.3162542936	-0.8316558784	 0.101505
H	-1.8966928789	-4.9683042064	 0.8753270123	 0.136078
H	-0.1281053077	-4.7405155791	 0.9219714934	 0.145664
H	-2.0563706583	-4.2039351676	 3.2630632791	 0.120528
H	-0.2767342485	-3.976322931	 3.3014959374	 0.12901
40.9638	58.808	109.8577	153.3475	199.5142	209.1864	315.8937	376.6017	493.0397	539.0216	550.2585	620.6142	706.1218	744.0471	790.4124	837.3992	906.5009	963.0783	1001.2676	1016.0549	1058.6428	1084.0763	1113.1325	1144.518	1158.569	1199.9175	1237.4796	1269.9148	1292.7527	1352.9511	1384.1735	1465.3364	1478.1191	1519.4389	1617.6516	1810.0294	1840.6504	2995.807	3059.73	3065.9334	3090.2713	3121.0734	3147.4833	3600.8133	3735.1243
NC(=O)CN=C1CCO1	NC(=O)CN=C1CCO1	
InChI=1S/C5H8N2O2/c6-4(8)3-7-5-1-2-9-5/h1-3H2,(H2,6,8)	InChI=1S/C5H8N2O2/c6-4(8)3-7-5-1-2-9-5/h1-3H2,(H2,6,8)
