19
gdb 75639	2.01086	1.87545	1.19095	2.877	78.79	-0.2202	0.0173	0.2375	1104.0125	0.157382	-419.173664	-419.164129	-419.163185	-419.20754	35.321	
C	 0.314877062	 1.2815012813	 0.0503627444	-0.349247
N	-0.3258564715	-0.019969652	-0.0136740984	-0.13665
C	-0.0678070191	-0.966673086	-1.0419959801	 0.290475
N	-0.0501995707	-0.9394362779	-2.3052558868	-0.564267
C	 0.0929140602	-2.082790065	-0.0510455318	 0.288818
O	-0.2815584224	-3.3943921142	-0.2019406286	-0.451306
C	 1.1641995674	-1.7071565766	 0.95016324	-0.372606
C	-0.1916547278	-1.0414797473	 1.0436952715	 0.259752
C	-1.1078597198	-1.0642479371	 2.2254314965	-0.486362
H	 1.3760076194	 1.2274780247	 0.3380919743	 0.115634
H	 0.2498178965	 1.760513154	-0.9307617175	 0.130195
H	-0.2066928093	 1.9214783575	 0.7682061078	 0.130407
H	-0.2135905913	 0.00399471	-2.663719953	 0.214516
H	-1.0597189469	-3.4161204915	-0.7709514943	 0.298852
H	 1.3427827854	-2.4886847628	 1.684214138	 0.128195
H	 2.0546851951	-1.1620011119	 0.6484067294	 0.116872
H	-0.8384862411	-0.3008308469	 2.9649237771	 0.124999
H	-2.1418456279	-0.8845854343	 1.9144234522	 0.128079
H	-1.0581691281	-2.037804604	 2.7224394491	 0.133645
107.1001	138.3872	154.386	176.0112	196.209	224.1806	251.5063	319.7699	363.4982	398.9489	485.703	555.2094	619.4085	656.4889	697.2801	784.8082	796.0833	861.382	883.1524	929.3162	958.8265	986.4877	1073.2558	1082.9635	1101.0303	1146.1119	1149.7798	1208.3498	1237.7346	1314.3382	1333.335	1372.8027	1416.4677	1425.5272	1450.1964	1477.2261	1483.2321	1497.2468	1507.9171	1509.4619	1789.1366	2987.6532	3027.5871	3075.9139	3088.2738	3109.7495	3111.9101	3113.414	3197.9986	3450.9056	3798.8409
CN1C(=N)C2(O)CC12C	CN1[C]([NH])[C@@]2(O)C[C@@]12C	
InChI=1S/C6H10N2O/c1-5-3-6(5,9)4(7)8(5)2/h7,9H,3H2,1-2H3	InChI=1S/C6H10N2O/c1-5-3-6(5,9)4(7)8(5)2/h7,9H,3H2,1-2H3/t5-,6+/m1/s1
