23
gdb 99984	2.64138	1.08761	0.94882	2.8336	85.85	-0.266	0.0294	0.2954	1370.5015	0.20409	-384.490199	-384.479056	-384.478112	-384.525932	41.224	
C	 0.1556770963	 1.5600871694	 0.0212689339	-0.407987
C	-0.0271843422	 0.0394918362	-0.0344259112	-0.190332
C	-1.4877477894	-0.4760688515	 0.0356951275	 0.279173
C	-2.2095385576	 0.040650148	 1.2939192733	-0.440787
C	-2.2697394597	-0.055241808	-1.2215210406	-0.433337
C	-1.4126747786	-2.0399952345	 0.0755385852	-0.14599
N	-0.7123807338	-2.5350538547	 1.2659500551	-0.502833
C	-2.7520374781	-2.6561636324	-0.0619137543	 0.266767
N	-3.7875244783	-3.1692192682	-0.1167116804	-0.341497
H	 1.2176657786	 1.8103540566	-0.0646047465	 0.116946
H	-0.3656090734	 2.0739907008	-0.7923037286	 0.117211
H	-0.2005946621	 1.9810955332	 0.9662386202	 0.119517
H	 0.4194062247	-0.3354789936	-0.9657531831	 0.086351
H	 0.5359698903	-0.423202366	 0.7810846689	 0.120552
H	-2.3708583287	 1.119942327	 1.2322631283	 0.123987
H	-3.1926456777	-0.4293638512	 1.4046103642	 0.130428
H	-1.6280124907	-0.1519688104	 2.2013705655	 0.118128
H	-1.7928588846	-0.4355848058	-2.1321950303	 0.111662
H	-3.2979018271	-0.4274575366	-1.1992084924	 0.139755
H	-2.3161745822	 1.0339492018	-1.3005135616	 0.119968
H	-0.8280947167	-2.3556540583	-0.7970748083	 0.123216
H	-1.3061370814	-2.4348450821	 2.0835822916	 0.244275
H	-0.5282356275	-3.5286931497	 1.1684486938	 0.244828
65.7528	76.1089	140.3061	205.4721	215.212	230.5206	245.0795	271.0365	294.4438	304.5	339.3853	349.5332	392.0504	420.3877	454.8359	594.5623	615.7882	741.0406	787.835	824.0925	870.4904	934.0389	943.856	970.3114	1002.7277	1031.0447	1048.3043	1085.097	1108.5736	1167.8225	1209.3306	1244.8156	1254.6512	1308.2407	1343.9021	1369.1455	1391.8006	1399.7518	1413.2018	1426.4286	1485.3655	1487.6581	1490.5508	1508.053	1509.3476	1513.5071	1515.4585	1661.0912	2338.0833	3011.5655	3032.5604	3035.7536	3040.9767	3041.8417	3082.5358	3101.325	3102.7579	3104.755	3110.792	3116.3243	3120.121	3503.5708	3579.8876
CCC(C)(C)C(N)C#N	CCC(C)(C)[C@@H](N)C#N	
InChI=1S/C7H14N2/c1-4-7(2,3)6(9)5-8/h6H,4,9H2,1-3H3	InChI=1S/C7H14N2/c1-4-7(2,3)6(9)5-8/h6H,4,9H2,1-3H3/t6-/m0/s1
