18
gdb 128765	3.25722	1.09442	0.8512	4.1012	75.54	-0.2411	0.0035	0.2446	1350.7135	0.147693	-435.261093	-435.251881	-435.250937	-435.295989	32.115	
C	-0.1580596665	 1.4028438422	-0.2422533556	-0.223813
O	-0.1487231782	 0.0037492865	-0.4084154154	-0.234139
C	-1.1666579188	-0.6367388199	 0.3421402938	-0.181306
C	-1.1053686303	-2.1106816881	 0.1100454043	 0.22273
C	-0.9327617701	-2.8148739977	-1.0648438504	 0.267165
C	-0.7376019499	-2.3945829571	-2.4826312736	-0.517069
N	-0.9793239669	-4.1062697433	-0.6512253459	-0.222054
N	-1.1671289584	-4.2104561475	 0.6795717307	-0.127508
N	-1.2403043455	-2.9965283775	 1.1395303733	-0.257982
H	 0.6516347549	 1.8095455055	-0.8525851803	 0.128093
H	-1.1111168406	 1.8482615229	-0.5696749062	 0.104543
H	 0.009360607	 1.6877179774	 0.8079132131	 0.110989
H	-1.0457520725	-0.4486501019	 1.4194587086	 0.118406
H	-2.1512241504	-0.2290028466	 0.0519956159	 0.096824
H	 0.0965944517	-2.9290703289	-2.9498950499	 0.134644
H	-1.6320145668	-2.5803918259	-3.0888108527	 0.13736
H	-0.5143048636	-1.3277118823	-2.509198142	 0.167527
H	-0.8742763752	-4.9457523578	-1.1992527576	 0.275589
51.7355	89.8454	123.5187	133.3113	229.4773	248.735	262.81	329.4541	378.0088	421.0187	582.2585	672.6537	697.7762	734.9	793.1159	979.9561	996.7781	1022.6036	1035.516	1067.9865	1084.8463	1145.4186	1182.9113	1211.4831	1225.3277	1247.9999	1266.1642	1310.9936	1375.1412	1413.52	1419.058	1475.3713	1480.6793	1484.9522	1498.5236	1501.9384	1515.6112	1525.7725	1631.807	2944.5729	2972.5499	3010.3063	3018.6756	3032.2207	3084.2814	3117.2368	3151.9803	3648.9608
COCC1=C(C)NN=N1	COCc1c(C)[nH]nn1	
InChI=1S/C5H9N3O/c1-4-5(3-9-2)7-8-6-4/h3H2,1-2H3,(H,6,7,8)	InChI=1S/C5H9N3O/c1-4-5(3-9-2)7-8-6-4/h3H2,1-2H3,(H,6,7,8)
