19
gdb 74141	2.47287	1.49493	1.16934	6.0919	81.86	-0.2119	0.0015	0.2134	1129.5474	0.158959	-419.248058	-419.238909	-419.237965	-419.281212	35.485	
C	-0.008819193	 1.5227830765	 0.0122224925	-0.414431
C	-0.0052377221	-0.0115928394	 0.0371618311	 0.265731
C	-1.4228349598	-0.5875572265	-0.0700749568	-0.399781
O	 0.7567592001	-0.4708206889	-1.0875514355	-0.253464
C	 1.8263150375	-1.2308756995	-0.6732410306	 0.386335
N	 2.5993285307	-1.72463989	-1.551230169	-0.546727
C	 1.8081994115	-1.2779438656	 0.7864378314	-0.363671
C	 0.7527879145	-0.572227842	 1.2306403303	 0.342917
N	 0.2852403236	-0.3806994636	 2.5038061938	-0.594254
H	 1.0115138476	 1.9081273902	 0.0803413282	 0.133415
H	-0.4500985678	 1.8721790998	-0.9247029271	 0.138691
H	-0.599085681	 1.9370145155	 0.8369650023	 0.103187
H	-1.8984252268	-0.2307359518	-0.9874159433	 0.132039
H	-1.3844402526	-1.6790057987	-0.0981748237	 0.135629
H	-2.0371906325	-0.2836818761	 0.7828992398	 0.109224
H	 3.3382669155	-2.2566910593	-1.0952596223	 0.210157
H	 2.5442503044	-1.8065040422	 1.375381559	 0.095652
H	 0.9182310377	-0.5890216839	 3.2606043752	 0.261157
H	-0.2805858375	 0.4370705755	 2.6686278046	 0.258193
99.3663	170.5903	204.0452	225.4186	240.4539	276.8991	317.1498	362.3594	384.4053	435.3567	498.6579	545.338	595.078	634.6994	669.2062	707.6144	741.2681	785.2218	834.7744	896.8356	930.8759	951.4672	1012.1842	1014.8548	1070.5676	1091.1379	1190.0199	1200.5657	1234.0264	1260.3106	1352.3419	1395.4207	1399.692	1423.1092	1471.4912	1482.3319	1493.8907	1504.0962	1645.5185	1706.1906	1738.5964	3037.7755	3047.1668	3109.4413	3121.1813	3131.0682	3133.6418	3230.4277	3504.846	3581.2971	3684.5164
CC1(C)OC(=N)C=C1N	CC1(C)OC(=C[C]1N)[NH]	
InChI=1S/C6H10N2O/c1-6(2)4(7)3-5(8)9-6/h3,8H,7H2,1-2H3	InChI=1S/C6H10N2O/c1-6(2)4(7)3-5(8)9-6/h3,8H,7H2,1-2H3
