17
gdb 13202	5.0123	1.34513	1.09536	2.6004	66.69	-0.2369	0.054	0.2908	1084.9144	0.142317	-401.022915	-401.014374	-401.013429	-401.05689	28.799	
C	-0.0934295327	 1.3151834597	 0.000438557	-0.228728
O	-0.0270485022	-0.1108966872	 0.0530897278	-0.258245
C	 0.6131989135	-0.6040804743	 1.1456050114	 0.496156
O	 1.113553384	 0.072792324	 2.017887559	-0.425381
N	 0.597332411	-1.9599544818	 1.1271532982	-0.133402
C	 0.393734892	-2.9107984197	 0.028466185	-0.162196
C	 1.1632668574	-3.9708316277	 0.8691957286	-0.242258
C	 1.437887299	-2.8565494842	 1.9220468691	-0.15732
H	 0.9081596101	 1.7531377433	-0.0168987415	 0.136358
H	-0.6270219335	 1.5530332989	-0.920585298	 0.12677
H	-0.6323669081	 1.7127766848	 0.8645725759	 0.137545
H	-0.6571722486	-3.1309774292	-0.1829280004	 0.117655
H	 0.8839396008	-2.6125433884	-0.9046142477	 0.117068
H	 0.5393080147	-4.7865127513	 1.2356961306	 0.11807
H	 2.0501858886	-4.3870833417	 0.3915073752	 0.117302
H	 2.4790804707	-2.5235342078	 1.9921230134	 0.120742
H	 1.0611660933	-3.0421452674	 2.9324200664	 0.119862
66.3065	94.184	128.7821	135.8564	157.6536	175.0359	316.0122	436.6981	553.7108	753.8635	782.4465	787.9206	845.1445	893.9744	935.0684	959.3215	1023.8454	1140.4507	1144.1777	1172.8987	1182.9021	1188.2043	1200.651	1214.6712	1230.9156	1270.3153	1300.1497	1343.0904	1415.6595	1480.5989	1483.2933	1492.8986	1506.4934	1513.8716	1536.9544	1805.8915	3035.7601	3042.3826	3047.5272	3079.2575	3083.0185	3093.8048	3119.8532	3148.0282	3150.2708
COC(=O)N1CCC1	COC(=O)N1CCC1	
InChI=1S/C5H9NO2/c1-8-5(7)6-3-2-4-6/h2-4H2,1H3	InChI=1S/C5H9NO2/c1-8-5(7)6-3-2-4-6/h2-4H2,1H3
