16
gdb 123656	4.06775	1.57265	1.23893	2.9491	74.33	-0.1852	0.0264	0.2116	971.3531	0.129219	-396.915868	-396.909481	-396.908537	-396.946386	26.385	
C	 0.0053673031	 1.4853095883	 0.0988315981	-0.301883
C	 1.3116721834	 0.7294639741	-0.0051627849	 0.008477
N	 2.0761082999	 0.3564710643	 1.1845805968	-0.418026
C	 1.1908911057	-0.4201047438	 1.9719604267	 0.200588
C	 0.0393608587	-0.7295566408	 1.2886297293	 0.378984
N	-0.6758022685	-1.556066478	 2.0865443724	-0.340517
N	-0.0476036114	-1.7950682233	 3.2603730395	-0.231861
C	 1.0965789582	-1.0976674733	 3.200176485	-0.136746
C	-0.0210229347	-0.0326691326	-0.0123664448	-0.20565
H	-0.2812369945	 1.9260756006	 1.0473809012	 0.120153
H	-0.290734718	 2.0493847955	-0.7792313909	 0.115518
H	 1.8977633826	 0.8422017481	-0.9106087948	 0.100832
H	 2.4969778779	 1.148019889	 1.6567274248	 0.234939
H	-1.5621347552	-1.9980464691	 1.9156635424	 0.269716
H	 1.7793845427	-1.1280579461	 4.0356167158	 0.105036
H	-0.4086597298	-0.505883593	-0.9069426565	 0.100441
151.0906	264.4226	362.1936	420.1155	440.0033	468.4629	590.9629	659.2058	677.0097	709.6431	739.4137	787.887	808.6158	844.3976	857.6	939.0681	979.2924	984.2012	1035.385	1053.7983	1092.199	1103.5811	1136.7699	1166.1669	1193.1722	1242.7214	1268.1164	1335.4481	1353.9678	1364.7474	1411.8257	1462.8715	1467.8536	1571.0527	1607.5731	3130.1765	3164.7898	3176.4928	3222.7451	3250.4294	3544.1648	3680.9637
C1C2NC3=C(NN=C3)C12	C1[C@H]2Nc3c([nH]nc3)[C@@H]12	
InChI=1S/C6H7N3/c1-3-4(1)8-5-2-7-9-6(3)5/h2-4,8H,1H2,(H,7,9)	InChI=1S/C6H7N3/c1-3-4(1)8-5-2-7-9-6(3)5/h2-4,8H,1H2,(H,7,9)/t3-,4+/m0/s1
