17
gdb 51128	4.31391	1.04566	0.97604	3.8712	72.75	-0.2296	0.0024	0.232	1221.8907	0.134799	-421.767596	-421.759809	-421.758865	-421.80039	29.804	
O	 0.0724124736	-0.0131086484	-0.173852644	-0.267592
C	 0.0992969724	 1.1758821096	-0.2612020946	 0.148041
O	 1.0668577065	 1.9235247485	 0.3259270593	-0.225159
C	 0.9609527724	 3.3107392373	 0.1868522506	 0.420753
C	 1.1050523219	 4.0217162772	-1.1274720576	-0.361608
C	 2.0832958073	 4.2935426379	 0.0003794649	-0.13986
C	 1.506929377	 5.1630857791	 1.1571109504	-0.047379
C	 0.0762960079	 5.5881437093	 0.9619691035	-0.301985
C	 0.3771860314	 4.1652584128	 1.3489439571	-0.121578
H	-0.630422082	 1.7901451689	-0.819273184	 0.088712
H	 1.5344755529	 3.397044833	-1.905526162	 0.129551
H	 0.3935910866	 4.7514988558	-1.4976061966	 0.121511
H	 3.1396855587	 4.0941355538	-0.1169411859	 0.112044
H	 2.1414016873	 5.6035238169	 1.9145739499	 0.100181
H	-0.3207122489	 6.1896386186	 1.7748134315	 0.121245
H	-0.3308392849	 5.8606358746	-0.0052549803	 0.117203
H	 0.0269161799	 3.7088152251	 2.2652520676	 0.105922
61.6056	138.8544	141.6372	297.2295	343.9419	379.4894	425.9117	482.7124	545.3579	703.6166	734.1745	767.0408	817.9928	856.8115	897.4896	904.463	956.4571	972.8755	991.3956	1027.2336	1033.4385	1049.5902	1057.6282	1069.3869	1096.9005	1106.9253	1156.184	1169.5201	1203.642	1258.2591	1288.4397	1314.1922	1376.7762	1417.0678	1477.5443	1510.6169	1870.5496	2978.2683	3122.701	3135.6211	3196.1401	3200.3443	3208.0327	3210.3333	3215.6188
O=COC12CC1C1CC21	O=CO[C@]12C[C@H]1[C@H]1C[C@@H]21	
InChI=1S/C7H8O2/c8-3-9-7-2-6(7)4-1-5(4)7/h3-6H,1-2H2	InChI=1S/C7H8O2/c8-3-9-7-2-6(7)4-1-5(4)7/h3-6H,1-2H2/t4-,5+,6-,7-/m0/s1
