17
gdb 126916	3.26045	1.05076	0.83391	3.2647	71.45	-0.2266	0.0114	0.2381	1368.1	0.137009	-451.313641	-451.304857	-451.303913	-451.348059	31.747	
C	-0.0692101982	 1.5193306851	 0.1687586139	-0.393736
C	-0.1838421154	 0.0237171331	 0.4400770533	-0.114041
N	 1.0933811762	-0.5104949753	 0.9509210781	-0.420129
C	 1.0917778405	-1.8886906307	 1.2423351251	 0.178332
C	 1.2616783089	-2.4145530883	 2.5040690236	 0.378951
O	 1.4691152776	-1.8266153476	 3.689647248	-0.425089
N	 1.1858542536	-3.7464092261	 2.3373398962	-0.241259
N	 0.9783368401	-4.0539861869	 1.019127269	-0.136156
N	 0.9224041508	-2.9290005363	 0.3743316788	-0.235517
H	 0.6800421602	 1.7237167227	-0.6049527774	 0.116656
H	-1.0238544744	 1.9212105857	-0.1825248571	 0.122002
H	 0.2248731716	 2.0595954778	 1.0737277215	 0.119987
H	-0.9459343817	-0.1660793864	 1.2043241907	 0.106751
H	-0.5073889674	-0.5050959439	-0.4682783223	 0.114446
H	 1.8347326528	-0.2864296457	 0.2929946181	 0.232978
H	 1.5074612122	-0.8761874318	 3.5022029092	 0.310692
H	 1.2675363726	-4.4792095053	 3.0228208414	 0.285132
55.7792	67.2372	122.2274	226.3513	254.1637	295.5642	332.2327	384.9663	492.2479	517.0104	535.391	681.6223	708.8117	734.4721	761.4988	807.9823	853.4856	925.5742	999.4496	1006.151	1068.4027	1138.4582	1168.6669	1185.8737	1230.3087	1287.4988	1304.3391	1345.2837	1377.3313	1409.6913	1421.4095	1468.5643	1494.2036	1498.5285	1522.2738	1572.6889	1676.4491	3001.1955	3033.104	3057.9256	3101.1712	3118.2644	3497.7898	3667.2245	3731.1859
CCNC1=C(O)NN=N1	CCNc1c(O)[nH]nn1	
InChI=1S/C4H8N4O/c1-2-5-3-4(9)7-8-6-3/h2H2,1H3,(H3,5,6,7,8,9)	InChI=1S/C4H8N4O/c1-2-5-3-4(9)7-8-6-3/h2H2,1H3,(H3,5,6,7,8,9)
