20
gdb 114439	3.86926	1.21543	1.13074	2.5429	76.92	-0.2228	0.0731	0.2959	1135.9266	0.173397	-403.103457	-403.095814	-403.09487	-403.135542	30.493	
O	-0.0843107305	 1.462918982	-0.0207148457	-0.420844
C	 0.0098407058	 0.0497922272	 0.0894558907	-0.097106
C	-1.3978485387	-0.5300623955	 0.0060415371	 0.028215
C	-2.0672814343	-0.2520810597	-1.3714912627	-0.254798
C	-1.9118237397	-1.5614605346	-2.1363336386	-0.011601
C	-1.1093101908	-2.5403546994	-1.3778391435	-0.057003
C	-1.3875079837	-2.0653041254	 0.0730319591	-0.073096
C	-2.8174167898	-2.6098327277	-0.1560104451	-0.169176
N	-2.5721210441	-2.8043203534	-1.6264808207	-0.153628
H	 0.8061920423	 1.824344496	-0.0459023978	 0.28733
H	 0.6293249141	-0.3716403562	-0.7196499634	 0.088156
H	 0.4724360536	-0.2433836008	 1.0455911296	 0.084458
H	-1.9887464609	-0.1071967653	 0.8266936843	 0.077578
H	-3.1189789123	 0.0337575342	-1.2674635944	 0.105474
H	-1.567494329	 0.570606103	-1.8894493984	 0.116777
H	-1.8798852216	-1.5491556268	-3.220536829	 0.091997
H	-0.3211520953	-3.1829709951	-1.7524521477	 0.087665
H	-0.8122760585	-2.4929452287	 0.8952885937	 0.065479
H	-2.9858829655	-3.5920092083	 0.2917485681	 0.107939
H	-3.6590713614	-1.9533269753	 0.0951005043	 0.096183
102.5052	152.0055	203.3445	264.405	339.0425	385.1859	414.9329	479.3444	680.8814	692.4614	747.336	779.6192	826.9996	846.9676	885.1072	909.984	924.8207	955.8885	976.8257	1008.3503	1020.7806	1056.6861	1058.9589	1077.6001	1110.9321	1122.212	1164.2029	1190.0242	1203.0749	1210.5524	1247.9389	1257.2669	1275.0792	1285.8611	1292.5129	1313.4167	1337.4433	1362.3539	1398.5294	1457.4146	1494.1907	1514.4466	1519.3332	2959.7201	2989.0683	3031.9072	3043.6235	3058.1779	3095.3338	3099.6405	3106.1337	3167.8187	3181.0452	3833.1352
OCC1CC2C3C1CN23	OC[C@H]1C[C@H]2[C@H]3[C@@H]1CN23	
InChI=1S/C7H11NO/c9-3-4-1-6-7-5(4)2-8(6)7/h4-7,9H,1-3H2	InChI=1S/C7H11NO/c9-3-4-1-6-7-5(4)2-8(6)7/h4-7,9H,1-3H2/t4-,5-,6+,7-,8?/m1/s1
