18
gdb 15073	2.1998	1.99872	1.12478	2.7918	68.56	-0.2457	-0.0255	0.2202	1065.1442	0.151127	-384.918503	-384.909467	-384.908523	-384.952936	31.384	
C	 0.5472742249	 0.9858277771	-0.5817786831	-0.237517
O	-0.3295283718	 0.1915809227	 0.1883933642	-0.251006
C	 0.2826821362	-0.5171417501	 1.2468904862	 0.015285
C	-0.8711816203	-1.0523534471	 2.092063845	 0.150904
O	-0.7502202353	-1.4384673586	 3.2243516157	-0.248803
C	 1.1729123329	-1.658426519	 0.7823587979	-0.003912
C	 2.6704333408	-1.479103512	 0.6711178636	-0.276711
C	 2.0927735257	-2.3263665171	 1.7719021065	-0.260706
H	 1.2766039923	 0.3821650237	-1.1368716169	 0.119842
H	-0.0693199897	 1.5404903718	-1.2930603694	 0.13011
H	 1.0969633131	 1.7039889542	 0.0463948661	 0.105622
H	 0.8739501599	 0.1606307218	 1.8867147198	 0.085352
H	-1.8467262915	-1.0604143386	 1.5577166622	 0.092508
H	 0.6981357432	-2.2971098752	 0.0424583651	 0.094946
H	 3.1818515798	-1.9708621635	-0.1489366399	 0.117382
H	 3.0858067043	-0.5128029815	 0.9388054065	 0.114773
H	 2.1034627354	-1.9362291302	 2.7831754006	 0.13304
H	 2.2051376301	-3.4025750184	 1.7114647998	 0.118891
62.3304	83.6777	93.9223	177.166	194.366	204.4614	307.8643	346.8355	420.0481	465.4683	570.754	767.3945	826.9315	833.5247	924.6788	948.6479	967.5058	1033.5549	1062.2268	1080.3533	1087.8252	1135.1864	1156.0188	1173.7844	1184.5388	1197.2899	1220.0772	1228.059	1284.7593	1325.8705	1388.621	1411.5554	1473.2685	1480.4938	1487.0328	1505.8797	1510.6902	1840.2624	2897.3291	2959.7056	2984.5945	3048.4574	3117.3196	3130.376	3143.914	3148.5848	3211.9469	3231.8538
COC(C=O)C1CC1	CO[C@@H](C=O)C1CC1	
InChI=1S/C6H10O2/c1-8-6(4-7)5-2-3-5/h4-6H,2-3H2,1H3	InChI=1S/C6H10O2/c1-8-6(4-7)5-2-3-5/h4-6H,2-3H2,1H3/t6-/m0/s1
