14
gdb 34789	2.46857	1.5177	1.10974	4.3474	73.37	-0.2698	-0.0152	0.2546	1069.253	0.099581	-399.448109	-399.440478	-399.439534	-399.480352	29.014	
C	-0.1285279505	-1.2998070146	-0.0537600592	-0.41842
C	-0.0645323064	-0.099733508	-0.0226940167	 0.293517
C	 0.0015404477	 1.3414817963	 0.0084783352	-0.217072
C	 0.1420678989	 2.1283442104	 1.3535648041	 0.024258
C	 1.5906372023	 1.6165542022	 1.5242559225	-0.274676
C	 1.3834358825	 2.0965612259	 0.063461586	 0.329364
O	 0.6656372513	 3.2780145292	 0.5768299458	-0.32205
C	 2.3480127766	 2.2647101027	-0.9945156478	 0.184724
N	 3.1230852634	 2.3646567224	-1.8456511803	-0.335595
H	-0.1834732204	-2.3603609731	-0.085980841	 0.209384
H	-0.6897866702	 1.823487724	-0.685036295	 0.13297
H	-0.6226084064	 2.3300514475	 2.0999544351	 0.123904
H	 2.2394680121	 2.2592077	 2.117697397	 0.133056
H	 1.748235389	 0.550799975	 1.6887925041	 0.136635
94.8859	168.6575	175.2776	213.1209	410.7956	426.6886	505.1141	520.3169	563.6377	577.1103	631.5534	655.4047	667.1195	732.9085	840.9698	906.2241	926.9056	957.4257	968.8949	1053.315	1073.0977	1099.7017	1144.4934	1209.0004	1216.0853	1227.2948	1267.3716	1352.6509	1486.8974	2236.9123	2360.6246	3096.1216	3107.4205	3157.2125	3180.4253	3499.4745
C#CC1C2CC1(O2)C#N	C#C[C@H]1[C@H]2C[C@@]1(O2)C#N	
InChI=1S/C7H5NO/c1-2-5-6-3-7(5,4-8)9-6/h1,5-6H,3H2	InChI=1S/C7H5NO/c1-2-5-6-3-7(5,4-8)9-6/h1,5-6H,3H2/t5-,6+,7+/m0/s1
