18
gdb 33134	3.19709	1.07505	0.81273	2.7269	75.52	-0.1841	0.0566	0.2406	1394.8695	0.14698	-439.104697	-439.095215	-439.09427	-439.139383	34.394	
C	-0.1785023951	 1.5282502578	 0.0195076881	-0.39285
C	-0.0651036397	 0.015328664	-0.0191152478	-0.042316
O	-1.3730446427	-0.5334478596	 0.0384415447	-0.295203
C	-1.4468203778	-1.8944411564	 0.0127612535	 0.231281
C	-0.4674089733	-2.8626973699	-0.0592059657	-0.203798
N	-1.1127734012	-4.0785717113	-0.0499321198	-0.261118
C	-2.4774558086	-3.9012230253	 0.0245445283	-0.157713
C	-2.7094363796	-2.5479836931	 0.0653618586	 0.204702
O	-3.9202863143	-1.9248701146	 0.1429201858	-0.458516
H	 0.815908022	 1.9821439427	-0.0232592982	 0.119146
H	-0.7625306096	 1.8931135927	-0.830126921	 0.129299
H	-0.6688977159	 1.8548562113	 0.9408864343	 0.12931
H	 0.4326109553	-0.3200994804	-0.9416525244	 0.099965
H	 0.5265924085	-0.3582504508	 0.830383428	 0.099982
H	 0.6046966786	-2.7920027911	-0.1141427596	 0.117357
H	-0.6541838152	-4.9686410744	-0.0985128985	 0.259884
H	-3.1627672717	-4.7309830582	 0.0432550259	 0.12082
H	-3.7439527098	-0.9772523734	 0.1539755578	 0.299766
59.7741	88.169	126.9288	191.4501	243.6693	270.331	282.6691	315.3379	346.8241	396.3665	546.8192	595.6832	610.8939	641.6417	697.8329	721.0128	783.2925	827.5883	898.6654	932.459	1062.9219	1081.7506	1129.6031	1153.957	1188.7368	1188.7565	1244.6359	1293.6443	1296.2772	1365.8099	1402.6908	1428.5964	1467.4053	1480.6999	1484.1342	1501.4379	1528.2243	1600.5699	1670.5874	2981.4349	3012.4822	3046.1854	3121.3355	3122.9757	3279.0796	3282.7576	3714.0941	3808.7641
CCOC1=CNC=C1O	CCOc1c[nH]cc1O	
InChI=1S/C6H9NO2/c1-2-9-6-4-7-3-5(6)8/h3-4,7-8H,2H2,1H3	InChI=1S/C6H9NO2/c1-2-9-6-4-7-3-5(6)8/h3-4,7-8H,2H2,1H3
