17
gdb 128155	2.17883	1.59598	0.96503	3.9698	72.2	-0.1993	0.0115	0.2108	1206.2336	0.136679	-451.296183	-451.287126	-451.286182	-451.330702	31.865	
C	 0.0803969768	 1.0389764456	-0.40385068	-0.313095
N	 0.0023316332	-0.3888944273	-0.1038431372	-0.402122
C	-1.2782630974	-0.9087108796	 0.1026504679	 0.262519
C	-1.6352899214	-2.2176731246	 0.3769560146	 0.301503
N	-2.9900455041	-2.1771095753	 0.4442594436	-0.225143
N	-3.4604602404	-0.9391300646	 0.2201249227	-0.141807
N	-2.4175093618	-0.1724822808	 0.0103259076	-0.263521
O	-0.9428954575	-3.3517299973	 0.6018320779	-0.27313
C	-0.0549434603	-3.7244676807	-0.4637750506	-0.263147
H	 1.1293635746	 1.3028328112	-0.5600792946	 0.113897
H	-0.4730006029	 1.2447033363	-1.3228382939	 0.146765
H	-0.3401018779	 1.67779915	 0.3847430359	 0.124296
H	 0.6330432277	-0.6494758669	 0.6440487888	 0.237379
H	-3.6211190275	-2.9345686807	 0.6527143	 0.282315
H	-0.6245005305	-4.0185116063	-1.3526850173	 0.128569
H	 0.6137992228	-2.8974255125	-0.7218104191	 0.147154
H	 0.5206424867	-4.5750231666	-0.0961674565	 0.137567
49.3028	107.9333	150.279	168.8938	188.8384	222.2079	303.9137	332.5787	434.9378	517.8634	555.2881	635.3241	657.6656	712.4662	757.8308	796.2538	995.9595	1028.1825	1076.531	1087.2601	1145.1212	1158.3913	1180.6282	1202.6871	1236.6821	1267.4902	1348.4321	1367.4266	1456.3739	1464.6411	1473.4181	1485.6482	1487.0046	1508.5326	1515.3572	1547.9536	1658.4545	3010.6103	3027.7678	3091.1623	3100.3644	3131.692	3147.0265	3548.4095	3654.4951
CNC1=C(NN=N1)OC	CNc1c([nH]nn1)OC	
InChI=1S/C4H8N4O/c1-5-3-4(9-2)7-8-6-3/h1-2H3,(H2,5,6,7,8)	InChI=1S/C4H8N4O/c1-5-3-4(9-2)7-8-6-3/h1-2H3,(H2,5,6,7,8)
