19
gdb 75109	3.2079	1.21721	0.96888	2.705	85.57	-0.2325	-0.027	0.2055	1242.8024	0.15923	-385.932423	-385.923917	-385.922973	-385.965643	32.59	
C	 0.0877455974	 1.4709724835	 0.7119803668	-0.485359
C	 0.0030497745	 0.1119290145	 0.0611038352	 0.298089
C	-1.1243886671	-0.6229574301	 0.0970301222	-0.17878
C	-1.3370406821	-1.9134338272	-0.6432288863	-0.351351
C	-0.4613345858	-3.1012237379	-0.2238149023	 0.395581
O	-0.874261597	-4.2301088216	-0.1860503834	-0.294479
C	 0.9865977359	-2.7447459127	 0.1446785956	-0.358487
C	 1.6217383231	-1.6347338917	-0.6427427884	-0.087065
C	 1.1968945852	-0.3611867142	-0.6410149176	-0.128625
H	 0.8674184999	 1.5000918755	 1.4823639194	 0.129022
H	 0.3493191217	 2.2391208777	-0.0267864454	 0.126662
H	-0.8608495236	 1.7557870322	 1.1741190834	 0.123049
H	-1.9771957831	-0.2449644739	 0.6553011536	 0.091331
H	-2.3779451797	-2.239198864	-0.6058755681	 0.123105
H	-1.0756258805	-1.7665339132	-1.7036922409	 0.14084
H	 0.9109849724	-2.4343538168	 1.1992011773	 0.143454
H	 1.5751638475	-3.6631831402	 0.1161239412	 0.124596
H	 2.5109044411	-1.892020561	-1.2116805148	 0.100744
H	 1.7922197404	 0.3889718711	-1.1595054074	 0.087673
58.2706	146.2753	173.8213	252.799	298.6795	337.0826	353.9374	374.3769	483.0045	504.1167	571.0542	611.2361	692.9475	730.1403	773.6673	859.5553	865.4581	922.9285	954.3884	990.9229	1000.8178	1012.7178	1068.9115	1090.7407	1143.8546	1169.8396	1201.2566	1242.4314	1250.4208	1302.0749	1307.4539	1357.9854	1412.1252	1437.283	1446.7045	1450.6363	1478.7855	1493.4139	1653.7066	1701.7975	1828.9786	2990.8966	2993.648	3021.5608	3070.9738	3114.9225	3116.1449	3117.8379	3133.6656	3157.5598	3169.9969
CC1=CCC(=O)CC=C1	CC1=CCC(=O)CC=C1	
InChI=1S/C8H10O/c1-7-3-2-4-8(9)6-5-7/h2-3,5H,4,6H2,1H3	InChI=1S/C8H10O/c1-7-3-2-4-8(9)6-5-7/h2-3,5H,4,6H2,1H3
