13
gdb 131277	5.53018	1.29825	1.05142	4.1161	65.08	-0.2015	0.0284	0.2299	1026.6616	0.093006	-448.950391	-448.943477	-448.942533	-448.981517	26.329	
O	 0.0825109265	 1.3021158738	 0.180998961	-0.421963
C	 0.0708743237	-0.0284159016	 0.0123546976	 0.42029
N	 0.0928080543	-0.677174756	-1.1137031756	-0.452332
C	 0.0670415299	-2.0164028628	-0.7132020752	 0.196577
C	 0.0302435477	-2.1036834163	 0.6653964298	 0.4538
N	 0.0021414297	-3.4045714839	 1.0177747664	-0.35968
N	 0.0228350253	-4.1943566507	-0.1032659183	-0.232995
C	 0.0605958809	-3.3618996824	-1.1447464838	-0.123331
N	 0.0313812765	-0.8150697354	 1.1558713477	-0.462827
H	 0.1108520449	 1.6858908861	-0.7050077186	 0.318661
H	-0.0193308089	-3.8434425806	 1.9200537266	 0.272248
H	 0.0811577186	-3.7707826386	-2.1433731811	 0.114276
H	 0.0111647909	-0.4760261216	 2.1012413437	 0.277275
149.917	190.4252	295.9503	334.6637	372.0769	386.6955	418.8351	547.6577	586.2342	655.8113	711.1756	754.0565	782.9492	846.6808	876.4702	969.8175	1003.2205	1056.0231	1172.5355	1196.015	1240.1944	1264.6085	1354.3433	1408.1916	1475.3697	1506.2102	1555.7253	1623.6997	1646.5726	3254.7657	3688.2406	3698.0908	3801.5829
OC1=NC2=C(NN=C2)N1	Oc1nc2c([nH]nc2)[nH]1	
InChI=1S/C4H4N4O/c9-4-6-2-1-5-8-3(2)7-4/h1H,(H3,5,6,7,8,9)	InChI=1S/C4H4N4O/c9-4-6-2-1-5-8-3(2)7-4/h1H,(H3,5,6,7,8,9)
