18
gdb 71366	2.992	1.98404	1.5964	3.0767	74.28	-0.2399	0.0762	0.3161	881.9239	0.15076	-401.877876	-401.871626	-401.870682	-401.907985	27.548	
O	 0.1088443696	 1.3484403245	 0.1020104496	-0.483765
C	 0.0656021687	-0.0210834717	 0.0499605263	 0.436998
C	 0.6822296157	-0.9720822064	 1.0855166191	-0.294925
C	 0.0314009168	-1.8899672526	 0.0200375256	-0.079736
C	-1.2158716267	-0.9352397075	-0.0308326218	-0.092958
C	-1.7186806108	-0.8800416486	-1.4639573153	-0.062287
N	-1.2749189021	 0.3555360244	-2.1770810895	-0.367161
C	-0.4528701872	-0.8909753608	-2.2277330832	-0.062287
C	 0.5798595535	-0.9507530525	-1.1143575775	-0.092957
H	-0.3691908324	 1.6315290451	-0.6942837299	 0.289653
H	 1.7736934171	-0.986706801	 1.1469006302	 0.093094
H	 0.227604216	-0.973350053	 2.0797948994	 0.093094
H	 0.0138533472	-2.9781719552	 0.0065408139	 0.076347
H	-1.9246798327	-0.9306359775	 0.7976890965	 0.066446
H	-2.6231159151	-1.3803044925	-1.7898837723	 0.092094
H	-1.7985683711	 0.4416010215	-3.0461633913	 0.229813
H	-0.3259638628	-1.4001454977	-3.1759604905	 0.092093
H	 1.6432401564	-0.9614609286	-1.3551588494	 0.066446
245.4696	271.3284	400.9131	432.5614	449.008	532.5788	593.5898	664.2171	724.9065	730.2	754.0805	812.176	815.4929	861.5458	894.3875	913.5645	927.522	960.1842	983.8301	993.7664	1017.5893	1028.1539	1047.8309	1083.9095	1112.7898	1113.4713	1142.8967	1148.6089	1188.5575	1193.3083	1204.9639	1250.7583	1267.2109	1294.6478	1347.8326	1360.5578	1390.8353	1428.9577	1523.1705	3052.5385	3112.3367	3114.8127	3115.2734	3135.1818	3175.3002	3185.9975	3486.4921	3690.5603
OC12CC3C1C1NC1C23	O[C@@]12C[C@H]3[C@@H]1[C@H]1N[C@H]1[C@@H]23	
InChI=1S/C7H9NO/c9-7-1-2-3(7)5-6(8-5)4(2)7/h2-6,8-9H,1H2	InChI=1S/C7H9NO/c9-7-1-2-3(7)5-6(8-5)4(2)7/h2-6,8-9H,1H2/t2-,3+,4-,5+,6-,7-
