15
gdb 47760	2.13482	1.7829	1.23784	4.8822	66.74	-0.2882	-0.0194	0.2688	1017.8408	0.114394	-453.958936	-453.951244	-453.9503	-453.991652	28.026	
N	-0.0834270829	 1.2816816347	 0.1628036797	-0.484166
C	-0.000937771	 0.0353333673	-0.0053225721	 0.374993
O	 1.1764918945	-0.6425915417	-0.1084745736	-0.24755
C	 1.2048441249	-1.7847498809	-0.9785612046	 0.014926
O	 0.1288986569	-2.6408682582	-0.7994178352	-0.211624
C	-1.0957018264	-1.9739511432	-1.0414527081	-0.119106
C	-1.2591627933	-0.8332097095	-0.0139486218	-0.210081
C	-1.4964906052	-1.3800799034	 1.3257844783	 0.290259
N	-1.7004868223	-1.8204712348	 2.3739219203	-0.31482
H	 0.8470443752	 1.7050648472	 0.1592487155	 0.234163
H	 1.2440254989	-1.4146312773	-2.0162414957	 0.105629
H	 2.1142360382	-2.3291752759	-0.7257861155	 0.145715
H	-1.1142234363	-1.5505181849	-2.0574927518	 0.116048
H	-1.8924619622	-2.7125924223	-0.9469019162	 0.147218
H	-2.0996732991	-0.1872046571	-0.280050419	 0.158398
77.4615	134.0472	142.6657	225.8968	368.694	391.3579	416.4336	464.646	525.2604	622.2825	684.9737	772.8486	833.4135	872.9175	924.7223	956.0359	981.2979	1025.406	1065.0646	1092.12	1152.6527	1198.7702	1246.0177	1263.4303	1310.7378	1321.8264	1339.4232	1401.0275	1455.9443	1495.0755	1517.6263	1763.0954	2364.0592	2972.8367	2995.5767	3094.6715	3129.1234	3143.5752	3470.1001
N=C1OCOCC1C#N	[NH][C]1OCOC[C@H]1C#N	
InChI=1S/C5H6N2O2/c6-1-4-2-8-3-9-5(4)7/h4,7H,2-3H2	InChI=1S/C5H6N2O2/c6-1-4-2-8-3-9-5(4)7/h4,7H,2-3H2/t4-/m1/s1
