22
gdb 96668	2.7453	1.08082	0.97101	0.8693	85.46	-0.2389	0.034	0.273	1383.9234	0.190608	-404.345818	-404.335027	-404.334083	-404.38221	38.716	
C	 3.9791884935	-3.7867748931	 0.2741715897	-0.328728
N	 2.5850162704	-3.4123288269	 0.1770813917	-0.276533
C	 2.1766571937	-2.7046034479	-0.7882136458	 0.389128
C	 2.9615390638	-2.1326319287	-1.9500291752	-0.485955
O	 0.8692554761	-2.3452364334	-0.9035857384	-0.301569
C	-0.0578107603	-2.7899283996	 0.0786965296	 0.476125
C	 0.0425111916	-2.0667504069	 1.3997610959	-0.459007
C	-1.3962217033	-3.1266199256	-0.5131683799	-0.323358
C	-0.4838694378	-4.224886709	-0.003067568	-0.292663
H	 4.623367633	-3.4318800284	-0.5422060825	 0.098969
H	 4.3936963417	-3.409146605	 1.2170140816	 0.123538
H	 4.0597710986	-4.8798594012	 0.3146741521	 0.124104
H	 3.4281357516	-2.9306416204	-2.5350359887	 0.142123
H	 2.2984411111	-1.5620752049	-2.5997254856	 0.141528
H	 3.7602322349	-1.4748961013	-1.5950937108	 0.142408
H	-0.0378485335	-0.9846415084	 1.2501424294	 0.115185
H	-0.771018224	-2.3784669439	 2.0613324836	 0.112203
H	 0.9931756009	-2.2892661685	 1.8879819956	 0.142278
H	-2.2837410611	-2.8737878255	 0.0565707781	 0.10984
H	-1.4980480159	-3.0205264159	-1.5870624821	 0.118045
H	 0.011171741	-4.848169194	-0.7376220227	 0.118142
H	-0.737355596	-4.7330329416	 0.9208084324	 0.114199
63.9388	68.9306	80.2005	105.726	153.5542	209.9763	262.1124	293.9254	303.5852	322.5835	403.6378	429.6431	460.7977	580.9363	629.6457	734.8881	765.6465	812.2771	867.9885	932.0155	938.0883	960.7498	1021.8234	1039.8277	1052.0613	1066.8071	1073.2666	1116.0379	1134.3781	1144.3028	1159.4325	1185.396	1265.8373	1297.825	1350.1257	1395.7078	1409.5216	1448.3888	1455.6719	1478.4838	1479.1807	1479.712	1496.5582	1500.0453	1506.9378	1513.3138	1757.1378	2997.5124	3039.8526	3051.5714	3059.9028	3064.6255	3106.0626	3112.4994	3135.7798	3136.3681	3142.5245	3156.3556	3220.4389	3234.9973
CN=C(C)OC1(C)CC1	CN=C(C)OC1(C)CC1	
InChI=1S/C7H13NO/c1-6(8-3)9-7(2)4-5-7/h4-5H2,1-3H3	InChI=1S/C7H13NO/c1-6(8-3)9-7(2)4-5-7/h4-5H2,1-3H3
