15
gdb 20285	4.17959	3.08776	2.83504	1.9082	64.44	-0.2188	0.0671	0.2859	589.1626	0.122591	-325.449064	-325.444513	-325.443569	-325.477312	20.492	
C	 0.025355637	 1.4876415805	-0.0490498273	-0.070566
C	-0.3055648804	 0.7186578461	-1.3097919797	-0.089445
C	-0.0384374471	-0.0223593755	-0.003735377	-0.075403
C	 1.3843242382	-0.3639561206	-0.4838845111	-0.013312
C	 1.1141467618	 0.3668002648	-1.8291484788	-0.083455
C	 2.1156088807	 1.4360842854	-1.3365236128	-0.051429
C	 1.4842860086	 1.9052543026	-0.0828426523	-0.062501
N	 2.3743716828	 0.709125623	-0.0370219104	-0.158178
H	-0.7280448944	 2.0821891503	 0.4499084764	 0.090563
H	-1.2236594195	 0.8277282634	-1.8741742136	 0.087955
H	-0.6976079895	-0.5946918993	 0.6366805304	 0.089074
H	 1.7697955816	-1.3781533353	-0.4160224065	 0.078294
H	 1.2405253118	-0.1159553304	-2.7941014174	 0.074525
H	 2.9047704348	 1.934222162	-1.8897035289	 0.091089
H	 1.8416279436	 2.7722112431	 0.4592584489	 0.092788
547.8387	560.7744	683.6976	716.07	745.596	768.0742	787.0411	798.2484	817.132	832.8436	874.9584	897.8147	913.3812	922.3667	948.2335	971.9956	996.5249	1020.104	1044.8064	1052.75	1054.4909	1070.5793	1154.0544	1173.0656	1203.231	1226.6692	1236.6964	1241.7706	1276.6906	1315.9306	1331.848	1379.7335	3146.2352	3155.1377	3166.1953	3180.7542	3191.0628	3191.9352	3214.7966
C12C3C1C1C3C3C2N13	[C@H]12[C@@H]3[C@H]1[C@H]1[C@@H]3[C@H]3[C@@H]2N13	
InChI=1S/C7H7N/c1-2-3(1)6-7-4(1)5(2)8(6)7/h1-7H	InChI=1S/C7H7N/c1-2-3(1)6-7-4(1)5(2)8(6)7/h1-7H/t1-,2+,3-,4+,5-,6+,7-,8?/m0/s1
