20
gdb 84079	2.28171	1.65491	1.02935	3.8429	83.18	-0.219	0.0053	0.2243	1204.4556	0.17087	-399.371847	-399.36221	-399.361266	-399.406294	34.994	
C	-0.0509875262	 1.5591538289	 0.0036712625	-0.378319
C	 0.0590583945	 0.0330362328	 0.0118695155	-0.044291
N	 0.8141582515	-0.4751330941	-1.1435061009	-0.304122
C	 1.7844255576	-1.1676616525	-0.6804685203	 0.359744
C	 2.7998181333	-1.8590570232	-1.531601445	-0.496345
N	 1.8422547837	-1.2470006295	 0.7199832304	-0.119204
C	 2.8162933202	-1.9233397133	 1.5424936621	-0.361395
C	 0.7855097591	-0.501791001	 1.2422709451	 0.354475
N	 0.4676113737	-0.2838596003	 2.4544365375	-0.566077
H	 0.943220875	 2.0160106221	-0.0039406589	 0.114957
H	-0.5893814316	 1.8932647982	-0.8866052186	 0.123573
H	-0.5800731887	 1.8945624612	 0.8990491458	 0.138155
H	-0.9519392111	-0.3932121989	-0.0169335255	 0.113754
H	 2.5612031534	-1.6649229729	-2.5770769554	 0.15941
H	 3.8119886247	-1.4947423511	-1.3241033128	 0.138148
H	 2.7960089042	-2.9413363083	-1.3610306988	 0.138509
H	 3.5355925578	-2.4478026871	 0.9137511535	 0.143
H	 3.36318099	-1.211748054	 2.1740944533	 0.139407
H	 2.3319223708	-2.6580437277	 2.1975044025	 0.140463
H	 1.1040224981	-0.7405220593	 3.1092734279	 0.206158
78.0183	100.0052	149.3317	165.7422	209.6936	224.4753	252.1748	298.6825	318.2392	409.5955	533.0045	578.2883	610.6313	651.5789	714.0992	738.4748	846.3	876.5245	918.9836	1006.0546	1014.8861	1058.8719	1083.9135	1123.9657	1128.1279	1153.5142	1187.9765	1246.0982	1271.109	1315.7841	1343.5283	1395.5559	1400.8494	1426.4705	1460.3401	1475.3429	1484.9509	1487.7248	1489.8325	1495.3989	1523.3187	1703.6608	1742.3117	3014.8789	3028.3991	3038.3219	3046.1891	3061.5899	3093.2203	3120.5327	3135.4533	3150.507	3158.9682	3461.7087
CC1N=C(C)N(C)C1=N	C[C@H]1N=C(C)N(C)[C]1[NH]	
InChI=1S/C6H11N3/c1-4-6(7)9(3)5(2)8-4/h4,7H,1-3H3	InChI=1S/C6H11N3/c1-4-6(7)9(3)5(2)8-4/h4,7H,1-3H3/t4-/m1/s1
