18
gdb 96732	2.30459	1.46228	1.01122	1.3946	77.45	-0.233	-0.008	0.2249	1201.14	0.147033	-435.257112	-435.247743	-435.246799	-435.291987	33.025	
C	-0.5690801843	 1.8409176025	-0.3103715013	-0.319354
N	-0.6860426129	 0.4026818018	-0.1526216181	-0.286191
C	-0.0415660443	-0.3470710316	-0.9506150667	 0.38189
N	-0.3465582631	-1.7432104246	-0.8861292079	-0.326039
C	 0.5316657299	-2.7418514562	-0.5545795157	 0.154213
O	 1.7381455674	-2.6516178267	-0.4969858618	-0.307352
N	 0.760044756	 0.0848963714	-1.9972869047	-0.106255
C	 1.9196527119	-0.5372896552	-2.6059763539	-0.240738
C	 2.044961228	 0.7491729406	-1.8514771622	-0.225626
H	 0.37441445	 2.2207629105	 0.1053216314	 0.119159
H	-0.6090156136	 2.1497874248	-1.3644113565	 0.120169
H	-1.3842607666	 2.3262077885	 0.2327178939	 0.119274
H	-1.3005746098	-1.9013564847	-0.5897470325	 0.262939
H	-0.0059065081	-3.6872082356	-0.348186716	 0.092353
H	 2.3241280605	-1.4268205983	-2.1390868588	 0.174404
H	 1.9203895423	-0.5142098771	-3.6925530854	 0.120604
H	 2.1558646975	 1.6930550555	-2.3774831421	 0.126116
H	 2.5225966392	 0.6983243544	-0.8765031016	 0.140433
49.8845	82.6008	137.5448	181.6395	213.3748	227.1968	256.0749	277.1894	351.7584	467.7374	580.8574	608.4018	648.7839	702.6897	829.3175	873.293	953.8713	981.5546	1031.6378	1045.4327	1063.0712	1111.3131	1124.2291	1150.0192	1157.6895	1168.2222	1181.2235	1184.9813	1256.279	1404.8048	1435.3387	1439.8113	1480.9249	1486.6427	1489.9143	1500.1742	1518.5355	1725.2474	1809.0358	2953.1453	2994.275	3045.0232	3098.7502	3111.0886	3120.108	3200.5449	3235.276	3593.6605
CN=C(NC=O)N1CC1	CN=C(NC=O)N1CC1	
InChI=1S/C5H9N3O/c1-6-5(7-4-9)8-2-3-8/h4H,2-3H2,1H3,(H,6,7,9)	InChI=1S/C5H9N3O/c1-6-5(7-4-9)8-2-3-8/h4H,2-3H2,1H3,(H,6,7,9)
