20
gdb 33236	6.09103	0.70721	0.64123	2.2326	82.67	-0.1872	0.0529	0.2401	1760.928	0.171375	-403.17791	-403.168612	-403.167668	-403.212696	34.194	
C	-0.061860035	 1.5050941856	-0.0603635109	-0.383478
C	 0.0114352439	-0.0220275112	 0.0132686369	-0.188638
C	 0.7477491887	-0.5062886428	 1.2533383974	-0.042783
O	 0.7672310509	-1.9231191948	 1.2379209228	-0.273473
C	 1.3930145528	-2.5180957332	 2.2864137633	 0.356696
C	 2.0181181967	-1.9394378556	 3.3733872095	-0.219423
N	 2.4953468258	-2.9751338066	 4.1534058311	-0.249497
C	 2.1841592214	-4.1761773776	 3.5810024035	-0.059949
C	 1.4963435946	-3.9312543503	 2.4152820298	-0.276297
H	 0.9378262676	 1.9527068441	-0.0886896926	 0.116281
H	-0.5952656127	 1.8290654575	-0.9584520764	 0.118038
H	-0.5868499503	 1.9226727652	 0.8059872511	 0.116269
H	-0.9966833572	-0.4518637644	 0.0164344412	 0.10905
H	 0.519114129	-0.421936239	-0.8718358272	 0.10906
H	 1.7789757812	-0.1182393861	 1.2709180865	 0.092533
H	 0.2477781868	-0.1490864295	 2.1680743451	 0.092543
H	 2.1635415981	-0.9119312272	 3.6562990716	 0.112083
H	 2.9971588327	-2.8564615995	 5.0143008344	 0.258949
H	 2.4736441518	-5.1058389245	 4.0437224831	 0.116409
H	 1.1061408233	-4.6611750603	 1.7245221198	 0.095625
54.6312	84.3923	111.0669	144.6713	237.0726	292.4089	318.1306	336.6758	386.6993	498.9574	620.7592	626.9316	678.2365	721.6143	741.7168	770.7311	812.9625	896.2036	906.8726	914.2983	980.8636	1043.8851	1064.7661	1083.4656	1112.0176	1146.7219	1171.4089	1192.2118	1266.8434	1279.7395	1315.1548	1315.3784	1338.0772	1408.4991	1415.6363	1440.6271	1479.9119	1492.6413	1501.9587	1508.1881	1523.7566	1536.4273	1619.7608	2965.9922	2996.1784	3032.0961	3040.4834	3073.163	3100.3902	3109.2594	3255.2698	3273.944	3285.5445	3699.7843
CCCOC1=CNC=C1	CCCOc1c[nH]cc1	
InChI=1S/C7H11NO/c1-2-5-9-7-3-4-8-6-7/h3-4,6,8H,2,5H2,1H3	InChI=1S/C7H11NO/c1-2-5-9-7-3-4-8-6-7/h3-4,6,8H,2,5H2,1H3
