18
gdb 98615	4.01503	1.04257	0.95722	2.7066	72.81	-0.2428	-0.0203	0.2225	1258.8505	0.146866	-438.997592	-438.989065	-438.988121	-439.031905	31.076	
O	-1.4622375627	 1.6555352937	-1.083063407	-0.3979
C	-1.8307199663	 0.3024038694	-1.1206509687	-0.174267
C	-1.2934242042	-0.4159846945	 0.1091703578	 0.326749
O	-0.6718419871	 0.136524866	 0.9827844257	-0.28404
C	-1.5820359693	-1.9082416887	 0.1385370988	-0.038091
C	-1.7834659136	-2.6653692072	 1.4663313359	-0.065718
C	-3.1368619211	-1.9230461141	 1.5317411513	-0.176702
N	-3.0718837389	-2.3307629825	 0.0412257396	-0.166957
C	-2.5591911825	-3.676620348	 0.5918650472	-0.170752
H	-1.8727679914	 2.0952953489	-1.8330383245	 0.293799
H	-2.9225367033	 0.1455132594	-1.1308381611	 0.132622
H	-1.4423666466	-0.2247798051	-2.0106519327	 0.10756
H	-0.97436946	-2.4085079451	-0.6270505717	 0.09348
H	-1.0570408871	-2.8491922901	 2.2618611313	 0.082993
H	-3.9591669494	-2.4039971328	 2.0671838964	 0.10398
H	-3.1309980644	-0.8454841992	 1.7042529906	 0.123667
H	-2.0035183552	-4.2655139793	-0.1432675639	 0.103297
H	-3.3432569671	-4.269458131	 1.0696990051	 0.106278
38.4172	77.2869	134.288	197.9002	234.908	275.5936	378.0606	453.9686	516.0854	605.1222	731.4423	769.2101	782.3425	816.775	876.6478	904.3531	913.3376	943.1582	1001.8523	1030.5205	1055.3568	1085.6052	1105.231	1124.5035	1146.3879	1162.0793	1194.8567	1200.2413	1224.0754	1234.574	1247.8877	1254.8612	1284.1897	1390.5195	1444.1287	1489.1433	1515.5378	1553.3829	1822.5912	2951.202	2984.7161	3024.6026	3051.3059	3064.3221	3081.3089	3119.9053	3135.2835	3837.8486
OCC(=O)C1C2CN1C2	OCC(=O)[C@H]1[C@H]2CN1C2	
InChI=1S/C6H9NO2/c8-3-5(9)6-4-1-7(6)2-4/h4,6,8H,1-3H2	InChI=1S/C6H9NO2/c8-3-5(9)6-4-1-7(6)2-4/h4,6,8H,1-3H2/t6-/m1/s1
