17
gdb 68144	3.88104	1.22606	1.09979	4.8731	73.06	-0.244	0.017	0.261	1098.6974	0.137612	-417.99207	-417.984408	-417.983464	-418.023852	30.518	
O	-0.0802837132	 1.3922395517	-0.0168573654	-0.474495
C	-0.0114006614	 0.009582366	 0.0244045415	 0.375371
C	 0.3263228621	-0.8117731715	 1.3179968841	-0.328512
C	-0.3929091873	-1.9197467832	 0.4879508967	 0.20684
C	-1.3341644971	-0.7966061087	-0.0378775372	-0.272878
N	 0.4778320902	-2.1424075972	-0.6989685918	-0.330101
C	 0.8328105624	-0.7313380443	-1.0348209859	-0.232337
C	-0.8923441317	-3.132223698	 1.0980315406	 0.193178
N	-1.2812903221	-4.0922355191	 1.6106608057	-0.341015
H	 0.8140688138	 1.7501232375	-0.0389444307	 0.286358
H	 1.3733322214	-0.9897925579	 1.5792323974	 0.097564
H	-0.2466806298	-0.4738970438	 2.1822365204	 0.125233
H	-2.0577210243	-0.4697208841	 0.7084437643	 0.127074
H	-1.7990619873	-0.9660036378	-1.0099409504	 0.122915
H	 1.3033577992	-2.6643088713	-0.420219092	 0.229671
H	 0.5286401894	-0.4759791082	-2.0548852635	 0.119158
H	 1.9050658658	-0.52794956	-0.9273157237	 0.095975
145.5944	151.3852	252.2769	289.2342	350.9334	390.0004	461.4819	497.837	518.6043	560.8859	571.6876	592.4036	688.056	816.7753	852.387	861.4506	949.5862	959.4948	981.4122	1010.1499	1016.6776	1064.8508	1106.2691	1118.2414	1161.0247	1168.6445	1187.5667	1229.6191	1273.0252	1281.0746	1340.2298	1391.0735	1413.4483	1475.9397	1507.1183	1529.9929	2361.9196	3026.855	3061.16	3076.3871	3089.3762	3141.634	3163.6271	3512.6427	3804.62
OC12CC(C1)(NC2)C#N	O[C@@]12C[C@@](C1)(NC2)C#N	
InChI=1S/C6H8N2O/c7-3-5-1-6(9,2-5)4-8-5/h8-9H,1-2,4H2	InChI=1S/C6H8N2O/c7-3-5-1-6(9,2-5)4-8-5/h8-9H,1-2,4H2/t5-,6-
