19
gdb 86366	2.12233	1.3197	0.91009	3.4973	73.3	-0.2684	0.0007	0.2691	1299.9239	0.157469	-460.174816	-460.165376	-460.164432	-460.210219	34.078	
C	 0.0746678344	 1.5387125326	-0.007630744	-0.413919
C	 0.1056476166	 0.0186891442	 0.0130827413	 0.010834
C	 1.0463440771	-0.74360319	-0.9674182331	-0.290375
C	 1.3302889533	-1.7652505311	 0.1705373653	 0.154271
O	 2.6077890795	-2.291284393	 0.3597573179	-0.433379
C	 0.8099574896	-0.7089816882	 1.1917068693	 0.048218
O	 1.933607026	 0.0460438528	 1.6646793982	-0.20758
C	 2.1063522032	 0.1978547907	 2.9944407702	 0.17369
O	 3.0397661431	 0.7779852533	 3.4582409596	-0.272721
H	 1.0780744389	 1.9535189231	 0.1193570757	 0.135571
H	-0.3256759347	 1.9000929549	-0.960294892	 0.122073
H	-0.5589797402	 1.9378358379	 0.7920184898	 0.116714
H	-0.9118897306	-0.3801255813	-0.0640820568	 0.084468
H	 0.6256975723	-1.1221460663	-1.901031462	 0.104958
H	 1.9419661422	-0.1554933448	-1.1922831515	 0.11026
H	 0.6415828109	-2.6134565712	 0.1196420979	 0.098466
H	 3.1916679313	-1.5530279719	 0.5727192109	 0.292179
H	 0.2072706058	-1.0441343778	 2.0420973935	 0.080101
H	 1.2943309313	-0.2668385938	 3.5849251097	 0.086172
25.8273	94.1389	137.807	169.246	224.9055	256.2163	277.624	364.1259	382.6843	426.6753	463.0048	591.1435	602.757	699.6143	763.5185	883.1876	900.6725	943.5792	977.6803	996.2011	1042.5013	1066.9646	1089.7556	1140.0463	1158.428	1168.4766	1185.3519	1218.2873	1248.4111	1261.2313	1299.4135	1329.6998	1365.1852	1367.258	1413.375	1434.4445	1442.4282	1486.2263	1497.5035	1501.7189	1866.6099	2962.4789	3035.7345	3042.652	3054.0821	3057.8709	3076.6729	3098.8482	3119.3614	3123.0873	3786.1285
CC1CC(O)C1OC=O	C[C@H]1C[C@@H](O)[C@H]1OC=O	
InChI=1S/C6H10O3/c1-4-2-5(8)6(4)9-3-7/h3-6,8H,2H2,1H3	InChI=1S/C6H10O3/c1-4-2-5(8)6(4)9-3-7/h3-6,8H,2H2,1H3/t4-,5+,6-/m0/s1
