18
gdb 62246	5.29888	0.57393	0.5329	2.5582	77.89	-0.2613	0.0207	0.282	1985.3703	0.14433	-439.036589	-439.026032	-439.025088	-439.074187	36.076	
O	-0.0896962456	 1.423509688	-0.0694333771	-0.419084
C	 0.0060821214	 0.0001643599	-0.0083527339	-0.062911
C	 0.6115039772	-0.5872862996	-1.2964431055	-0.205745
C	-0.1825086438	-0.1722432734	-2.5268609079	-0.082812
O	 0.4460105191	-0.7569484814	-3.6678786384	-0.184451
C	 0.1194315065	-0.2397845888	-4.8670097387	 0.126373
N	 0.5535863419	-0.7729823901	-5.9254278298	-0.438688
C	 0.7494665092	-0.4420153062	 1.1732181422	 0.287626
C	 1.3994136282	-0.7773845634	 2.1270235523	-0.425588
H	 0.7896746024	 1.7802254883	 0.0997961665	 0.288775
H	-1.0339149791	-0.3406306518	 0.0791515679	 0.122224
H	 1.6489099646	-0.2498943446	-1.3994564948	 0.116278
H	 0.6349167052	-1.6791831617	-1.2219323875	 0.129283
H	-1.220363837	-0.5275663611	-2.4542807416	 0.108875
H	-0.2036001652	 0.9199965586	-2.6126104575	 0.122417
H	-0.5203071077	 0.6519119592	-4.8003040621	 0.084357
H	 0.2309596101	-0.2470871696	-6.7349637597	 0.228529
H	 1.9565900626	-1.0796561223	 2.9795072256	 0.20454
25.1108	57.8279	80.939	108.439	135.87	183.8637	227.7454	273.1261	304.7639	371.554	438.0236	564.472	573.2955	635.1194	640.729	679.3116	799.4459	823.0061	881.9776	985.4797	1003.9228	1045.3265	1069.2978	1089.3029	1115.6013	1142.6407	1214.0308	1268.5144	1280.9558	1308.9487	1323.1629	1362.6343	1405.8386	1420.1035	1435.4914	1484.5226	1521.0175	1748.5691	2235.5993	3000.718	3017.4379	3027.5812	3051.2544	3065.2344	3101.6675	3501.533	3518.0364	3804.4441
OC(CCOC=N)C#C	O[C@@H](CCO[CH][NH])C#C	
InChI=1S/C6H9NO2/c1-2-6(8)3-4-9-5-7/h1,5-8H,3-4H2	InChI=1S/C6H9NO2/c1-2-6(8)3-4-9-5-7/h1,5-8H,3-4H2/t6-/m1/s1
