15
gdb 133718	2.61299	1.39012	1.14325	2.7819	53.91	-0.2464	0.0587	0.3051	1052.5989	0.10947	-585.422948	-585.414695	-585.413751	-585.456605	30.181	
O	 0.2927857601	 1.3313590406	-0.2393590663	-0.423868
C	 0.1148706248	-0.0324916504	 0.0095743683	 0.132341
C	 0.1592700555	-0.5053987553	 1.4917428397	-0.20194
N	-1.3078737617	-0.7112051495	 1.4571806382	-0.312635
C	-1.3453127109	-0.6087678246	-0.0071185569	-0.200287
C	-2.471900119	 0.2683263821	-0.5250645547	 0.317489
F	-2.4705772817	 1.4913879447	 0.0400788875	-0.092343
F	-2.3813670998	 0.4330094539	-1.8505654551	-0.07122
F	-3.6656904944	-0.2833791385	-0.259780745	-0.082363
H	-0.3837468716	 1.8223527288	 0.2405378857	 0.292413
H	 0.800193593	-0.5527156846	-0.6604567542	 0.106561
H	 0.754401829	-1.4169665675	 1.6330801726	 0.100661
H	 0.4885099164	 0.2490097902	 2.2144560681	 0.112235
H	-1.6579475413	-1.5746651938	 1.8525070656	 0.230047
H	-1.4114396285	-1.5577125562	-0.5563687534	 0.09291
58.1127	80.8342	172.6737	241.0081	291.1019	370.7634	396.2683	431.7746	464.6655	526.6454	578.5956	673.0667	705.9354	800.0742	824.9157	940.91	952.4393	999.901	1048.9154	1070.8649	1131.9911	1148.3447	1168.6306	1205.6251	1218.7831	1261.7197	1280.5124	1321.8643	1342.8011	1375.819	1417.3646	1456.1566	1514.274	3011.948	3017.1744	3068.1333	3110.4632	3559.6419	3811.0998
OC1CNC1C(F)(F)F	O[C@H]1CN[C@H]1C(F)(F)F	
InChI=1S/C4H6F3NO/c5-4(6,7)3-2(9)1-8-3/h2-3,8-9H,1H2	InChI=1S/C4H6F3NO/c5-4(6,7)3-2(9)1-8-3/h2-3,8-9H,1H2/t2-,3+/m0/s1
