22
gdb 60261	3.80584	0.88545	0.76034	1.4198	83.28	-0.2474	0.0219	0.2693	1545.9559	0.194494	-404.372671	-404.363088	-404.362144	-404.408062	35.016	
C	-0.0670648829	 1.5777990903	-0.2913917546	-0.383403
C	 0.0343633949	 0.0626345805	-0.0626494861	 0.040614
C	 0.7502868927	-0.6123791679	-1.2420606848	-0.388971
C	 0.7350723099	-0.3013145467	 1.2609014695	-0.182899
C	-0.0733857478	-0.0677204181	 2.5453466619	 0.008384
C	 0.6157181099	-0.6597260958	 3.8091902821	-0.125855
O	 0.691111822	 0.4509266912	 4.7353782707	-0.221789
C	 0.1911308121	 1.5102779447	 4.0574499281	 0.121692
N	-0.2508641723	 1.3625056265	 2.8809489317	-0.26201
H	 0.93359461	 2.0196804787	-0.3769355962	 0.102848
H	-0.6018724426	 1.7912601567	-1.2233555524	 0.098703
H	-0.5791443584	 2.0752237914	 0.5333438144	 0.148358
H	-0.9867840099	-0.3443111781	-0.0156405183	 0.068642
H	 1.7886702069	-0.2674972884	-1.3182471289	 0.111071
H	 0.7691079008	-1.7023944668	-1.1342061376	 0.104332
H	 0.2553294391	-0.37679318	-2.189863401	 0.109897
H	 0.987535339	-1.370708363	 1.2368035868	 0.089403
H	 1.6889231236	 0.2385996741	 1.3403151533	 0.096056
H	-1.0707033886	-0.5055473473	 2.4088908296	 0.087316
H	 0.0509044003	-1.4637280887	 4.2869535067	 0.12038
H	 1.6353352211	-1.0071116918	 3.6116447092	 0.115248
H	 0.2092323402	 2.4425476185	 4.6116259561	 0.141981
44.5654	58.4679	122.0628	171.392	224.355	256.5094	288.7915	300.341	389.6026	425.8533	437.681	586.0424	730.5218	804.6894	847.8046	876.5889	897.8138	932.6683	961.1766	961.9824	968.3758	972.8901	1000.1731	1034.0896	1092.9874	1133.5758	1142.7551	1171.2743	1197.1458	1224.2555	1257.9454	1294.8468	1318.0917	1331.8124	1361.9466	1370.7841	1383.3441	1389.4241	1401.9172	1425.4736	1472.5492	1489.3981	1494.6239	1504.2824	1514.3958	1517.501	1709.134	2990.4126	3002.5594	3014.5244	3021.8219	3027.5266	3046.2135	3047.9051	3082.8384	3089.4751	3097.8024	3102.8456	3143.606	3211.6695
CC(C)CC1COC=N1	CC(C)C[C@H]1COC=N1	
InChI=1S/C7H13NO/c1-6(2)3-7-4-9-5-8-7/h5-7H,3-4H2,1-2H3	InChI=1S/C7H13NO/c1-6(2)3-7-4-9-5-8-7/h5-7H,3-4H2,1-2H3/t7-/m0/s1
