13
gdb 127529	4.01225	1.17847	0.91622	3.0975	73.05	-0.2387	-0.0703	0.1684	1178.2055	0.089401	-448.939296	-448.931132	-448.930188	-448.973646	28.095	
C	 0.1523073462	 1.4012391183	-0.0366937129	-0.330312
N	 0.0939729779	-0.0434928059	-0.0045461319	-0.04197
N	 0.1325645776	-0.790520363	-1.1363194244	-0.258173
C	 0.0602040605	-2.0093239182	-0.7196239599	 0.306435
O	-0.0258042775	-2.1301042004	 0.6406383744	-0.224444
C	-0.004452326	-0.827644068	 1.1323204589	 0.456872
N	-0.0606437634	-0.4364656494	 2.3281818498	-0.603307
C	 0.0627644583	-3.1734951893	-1.521025408	 0.2709
N	 0.0634238626	-4.1379859861	-2.1604919337	-0.317509
H	 1.0877622473	 1.7351574453	-0.493275866	 0.155115
H	-0.6921270155	 1.8044709706	-0.6018035237	 0.155142
H	 0.1025366934	 1.7417745957	 0.9977043241	 0.186352
H	-0.1299331015	-1.2076429796	 2.9845852832	 0.244898
21.243	107.0656	151.7383	173.1389	255.213	292.8039	445.8452	490.0838	547.6251	613.9945	673.4724	689.7209	702.6146	733.3792	833.0711	962.8967	1008.7821	1061.2377	1147.5502	1157.6369	1280.0786	1350.7628	1415.8872	1455.4269	1484.6262	1509.1305	1616.5841	1801.377	2355.2333	3052.2496	3120.2943	3167.0547	3564.7191
CN1N=C(OC1=N)C#N	CN1N=C(O[C@@H]1[NH])C#N	
InChI=1S/C4H4N4O/c1-8-4(6)9-3(2-5)7-8/h6H,1H3	InChI=1S/C4H5N4O/c1-8-4(6)9-3(2-5)7-8/h4,6H,1H3/t4-/m1/s1
