18
gdb 48855	2.92528	1.40199	1.11514	3.4778	72.57	-0.2502	-0.0284	0.2217	1105.8787	0.149053	-439.072398	-439.064637	-439.063693	-439.104727	29.826	
O	-0.4759589272	 0.6759934936	 0.7598546757	-0.267729
C	 0.1775403441	 1.0144400622	-0.1948158626	 0.140123
C	 1.3890385867	 1.8858955994	-0.1335827128	 0.168147
C	 1.9779793169	 2.1536135884	 1.246864309	-0.186352
O	 2.2376261852	 3.5184502232	 1.5158715897	-0.229186
C	 3.0003793318	 4.1289633262	 0.496960304	-0.094105
C	 2.1771376811	 4.2629352347	-0.7891539865	-0.235849
C	 1.5184552794	 2.956347627	-1.1866528028	-0.034987
N	 2.2644681547	 1.7148816569	-1.3250577472	-0.364183
H	-0.0781983412	 0.6992990786	-1.2302003345	 0.08883
H	 1.2566363426	 1.8175648627	 1.9946848971	 0.145544
H	 2.9022359558	 1.5630271871	 1.3717712794	 0.094677
H	 3.2906018894	 5.1159483318	 0.8665870599	 0.119417
H	 3.9304773192	 3.5601385981	 0.316867325	 0.084698
H	 1.3884151534	 5.0054605465	-0.6247117541	 0.124021
H	 2.8055544878	 4.6335377588	-1.6086629915	 0.111522
H	 0.7143377008	 3.054169105	-1.9143276894	 0.102262
H	 3.2360524294	 1.8361581998	-1.0441796783	 0.233149
99.0731	141.1902	227.9217	251.4241	325.8214	376.3098	392.4055	447.003	523.7421	567.1483	663.1859	753.5093	781.7143	843.3961	895.6321	937.6107	976.5196	1000.1238	1019.4504	1046.9337	1054.5026	1098.771	1137.1156	1163.1992	1189.8523	1241.5341	1263.5762	1304.1749	1325.9996	1351.9255	1366.3494	1378.5133	1412.7188	1421.1249	1439.0433	1475.055	1493.9129	1504.4182	1820.7182	2899.662	2943.8422	2953.8821	3031.7127	3075.2867	3093.5777	3113.9773	3118.1997	3484.052
O=CC12COCCC1N2	O=C[C@]12COCC[C@H]1N2	
InChI=1S/C6H9NO2/c8-3-6-4-9-2-1-5(6)7-6/h3,5,7H,1-2,4H2	InChI=1S/C6H9NO2/c8-3-6-4-9-2-1-5(6)7-6/h3,5,7H,1-2,4H2/t5-,6+/m1/s1
