19
gdb 93160	2.02143	1.74761	1.25136	1.4888	76.59	-0.2336	-0.0197	0.2139	1081.886	0.16005	-423.048445	-423.039834	-423.03889	-423.081972	32.547	
O	 0.0971468117	 1.5001241403	-0.0312606413	-0.420258
C	 0.0639164929	 0.0800887836	 0.0169939913	 0.022187
C	-1.4050067755	-0.350384016	 0.1829522935	-0.277093
C	-2.3719416627	 0.1510689985	-0.8654261575	-0.033091
C	-2.2580657004	 0.0824535599	-2.1926704636	-0.046929
C	-1.1132910384	-0.4881667975	-2.9949443596	-0.261905
C	 0.2987179301	-0.0011004178	-2.5752628269	-0.278585
C	 0.6793270361	-0.5749091924	-1.2265140143	 0.339084
O	 1.387753867	-1.5506215233	-1.1113543481	-0.312946
H	 1.0149475496	 1.7802834577	 0.0446020264	 0.290553
H	 0.629130244	-0.3062445225	 0.8758627332	 0.08681
H	-1.4199497569	-1.4480353733	 0.2297294919	 0.127959
H	-1.7309039766	 0.0058932046	 1.1647942094	 0.115276
H	-3.2777945189	 0.6019312495	-0.4681007145	 0.090474
H	-3.0815854568	 0.4802438033	-2.7812370553	 0.089297
H	-1.1249145068	-1.586620344	-2.9525802212	 0.125729
H	-1.2551963247	-0.2280166083	-4.0481308775	 0.109845
H	 1.0345704845	-0.348669596	-3.304586535	 0.113527
H	 0.3025989619	 1.0912729235	-2.534302411	 0.120063
55.109	114.4733	148.7977	245.2135	292.6567	324.9831	344.5151	394.9634	463.1904	492.747	566.2549	674.9169	703.8658	739.4939	814.5221	850.8804	871.9191	919.6416	955.4897	997.2722	999.7506	1037.6691	1069.8385	1101.6086	1146.0846	1210.0195	1215.519	1237.3495	1271.1628	1286.7491	1328.9209	1336.7355	1374.5991	1375.9007	1395.7116	1429.0072	1468.2606	1470.4997	1487.1705	1723.6438	1803.3278	3010.1776	3013.5558	3024.7558	3060.7223	3076.7255	3079.4713	3123.1154	3141.1984	3165.3757	3818.5045
OC1CC=CCCC1=O	O[C@H]1CC=CCCC1=O	
InChI=1S/C7H10O2/c8-6-4-2-1-3-5-7(6)9/h1-2,6,8H,3-5H2	InChI=1S/C7H10O2/c8-6-4-2-1-3-5-7(6)9/h1-2,6,8H,3-5H2/t6-/m0/s1
