17
gdb 66426	2.73437	1.58213	1.26171	2.2719	72.54	-0.2084	0.0529	0.2613	1038.2859	0.133179	-421.705718	-421.697481	-421.696537	-421.737814	32.584	
C	-0.0382740459	 1.4917308729	 0.012604064	-0.522073
C	-0.0016566698	-0.0024641554	 0.0027301343	 0.379967
C	 0.8913949176	-0.9695871631	-0.7664091485	-0.240247
C	 0.889060711	-0.9797250472	 0.7616923037	-0.240227
C	-0.2680132939	-2.0393801764	 0.7571858445	 0.296443
O	-0.6953525234	-2.948007304	 1.6883162942	-0.451564
C	-1.1512444734	-1.0597920583	-0.0060635767	-0.268434
C	-0.2656493408	-2.0291956136	-0.7794702304	 0.296445
O	-0.690136351	-2.9254042083	-1.7238517068	-0.45156
H	 0.9778051261	 1.9016885654	 0.0166914641	 0.119401
H	-0.5533949089	 1.8851673235	-0.8714646701	 0.122977
H	-0.5557804397	 1.8734074194	 0.9004273226	 0.122978
H	 1.7163868488	-0.7661377751	-1.4388013884	 0.084241
H	 1.7120050268	-0.7852245806	 1.4392213447	 0.084243
H	-0.0880750744	-3.6971924755	 1.6915644136	 0.286277
H	-2.2301232534	-0.9824203146	-0.0072230526	 0.094859
H	-0.0823251756	-3.6740710792	-1.7357858121	 0.286273
176.9034	186.2958	207.46	234.9813	276.7953	306.9449	366.2729	398.7347	430.2528	535.6708	599.0172	678.7618	713.0809	768.851	783.4224	812.5428	829.18	862.0854	901.8345	940.0895	950.7125	1001.6895	1045.4538	1061.4519	1094.665	1097.1223	1171.8658	1179.7271	1235.1419	1276.7162	1318.8808	1400.9857	1406.3289	1431.5674	1481.6804	1483.3362	1496.5581	3019.5973	3080.8337	3091.1594	3176.1433	3187.0183	3213.0015	3773.7428	3774.3108
CC12C3C1C1(O)C2C31O	C[C@@]12[C@H]3[C@@H]1[C@@]1(O)[C@@H]2[C@@]31O	
InChI=1S/C7H8O2/c1-5-2-3(5)7(9)4(5)6(2,7)8/h2-4,8-9H,1H3	InChI=1S/C7H8O2/c1-5-2-3(5)7(9)4(5)6(2,7)8/h2-4,8-9H,1H3/t2-,3+,4+,5-,6+,7-
