19
gdb 63766	2.89387	1.37628	1.14363	0.8744	81.4	-0.2473	0.046	0.2933	1122.2972	0.156968	-385.826281	-385.817368	-385.816424	-385.859127	35.23	
C	-0.3182271235	 1.5534498403	-0.0054761522	-0.467997
C	-0.0048047799	 0.0656465172	 0.0008008029	 0.402444
O	-1.1969927503	-0.6932347591	-0.183077071	-0.476344
C	 1.1510692365	-0.4902451583	-0.9142820593	-0.301923
C	 1.733130634	-1.2131119022	 0.3077544915	-0.065153
C	 2.1552767795	-0.2109013528	 1.3604641697	-0.218802
C	 2.7678313069	 1.0561217299	 1.0679460095	 0.327957
C	 3.3319288844	 2.0950975151	 0.8412972363	-0.450544
C	 0.6876749752	-0.5747013827	 1.2118884051	-0.091851
H	 0.5724124958	 2.1559410323	 0.1799093993	 0.140768
H	-0.7276844139	 1.8492129392	-0.9805690898	 0.099845
H	-1.0675551696	 1.781140147	 0.7591575197	 0.121028
H	-1.6262391202	-0.3690021736	-0.9825627409	 0.273402
H	 0.7447498697	-1.1694400094	-1.6653033577	 0.103133
H	 1.8127561921	 0.2411309464	-1.3871131222	 0.104378
H	 2.1240377186	-2.2229727039	 0.3203877574	 0.091503
H	 2.5826511792	-0.6918253214	 2.2384151675	 0.117646
H	 3.8211536949	 3.0160738141	 0.6417975259	 0.194535
H	 0.1412699707	-1.0006923381	 2.0451758581	 0.095977
120.9248	134.5444	208.397	233.65	271.7937	288.1864	363.8646	384.163	399.0786	452.2124	552.7629	588.8357	634.0919	639.2206	649.7094	752.8346	783.4346	843.6148	849.5	921.9875	958.9045	977.1191	984.4927	991.0042	1020.7403	1074.3654	1116.6215	1131.6134	1161.1189	1198.2654	1226.2007	1256.5381	1273.1941	1330.0104	1389.2298	1405.5847	1411.6223	1467.5647	1488.8387	1498.7751	2228.2895	3020.7697	3058.8575	3090.9122	3126.2919	3127.183	3140.7991	3179.563	3191.2624	3503.1209	3799.4569
CC1(O)CC2C(C#C)C12	C[C@@]1(O)C[C@H]2[C@@H](C#C)[C@@H]12	
InChI=1S/C8H10O/c1-3-5-6-4-8(2,9)7(5)6/h1,5-7,9H,4H2,2H3	InChI=1S/C8H10O/c1-3-5-6-4-8(2,9)7(5)6/h1,5-7,9H,4H2,2H3/t5-,6+,7-,8-/m1/s1
