19
gdb 15269	3.64402	1.22402	1.10331	1.0841	68.1	-0.227	0.0636	0.2905	1131.3485	0.163853	-402.14335	-402.133845	-402.132901	-402.177729	33.726	
C	-0.7378475095	 0.9654771143	-1.492402132	-0.325427
N	-0.2162419035	-0.1382842905	-0.6951786494	-0.096952
C	 1.1781273535	-0.1287106168	-0.2617619248	-0.050611
C	 2.1479581701	 0.9777035088	-0.6197537604	-0.08281
O	 2.5257304638	 0.930370597	-1.9905790373	-0.417221
C	 0.0702458437	 0.0201488723	 0.7368885913	-0.049351
C	-0.1979102394	 1.2910208403	 1.5144882397	-0.082747
O	-1.53871247	 1.345810179	 1.9811242445	-0.419588
H	-0.4700333995	 1.9762897753	-1.1544894983	 0.104602
H	-0.3685482669	 0.856796318	-2.5153110051	 0.141948
H	-1.8311731036	 0.8945720558	-1.5132032842	 0.115079
H	 1.6444170327	-1.1155709158	-0.3277972898	 0.081684
H	 1.7183734318	 1.9701458659	-0.4728606316	 0.110371
H	 3.0277307282	 0.9062919416	 0.0396447049	 0.095102
H	 2.8892517594	 0.0557931518	-2.1657524241	 0.283445
H	-0.197599666	-0.8628169811	 1.3176192883	 0.097651
H	 0.4263889749	 1.2973777553	 2.4147239444	 0.117517
H	 0.0588128024	 2.1909711595	 0.9407168148	 0.090559
H	-2.1175726321	 1.3029970493	 1.2130341792	 0.28675
70.8105	97.0759	123.0414	144.9913	222.3827	263.8646	289.2154	305.7158	331.056	343.4866	503.1275	544.0933	582.6017	746.204	785.0687	842.4782	990.2597	1010.0584	1053.3609	1066.3137	1068.5802	1109.2141	1135.6852	1153.2725	1162.2954	1178.2144	1224.8164	1234.9552	1339.933	1347.1539	1360.7466	1394.77	1413.1891	1421.4562	1450.1661	1463.4943	1483.8699	1493.2785	1513.5282	1518.6452	2978.9119	2997.4416	3017.9127	3058.4785	3062.698	3068.8775	3104.7888	3113.2601	3114.8653	3807.6912	3815.7452
CN1C(CO)C1CO	CN1[C@@H](CO)[C@H]1CO	
InChI=1S/C5H11NO2/c1-6-4(2-7)5(6)3-8/h4-5,7-8H,2-3H2,1H3	InChI=1S/C5H11NO2/c1-6-4(2-7)5(6)3-8/h4-5,7-8H,2-3H2,1H3/t4-,5+,6?
