15
gdb 60699	3.75488	0.6643	0.61163	4.2193	74.44	-0.267	-0.0699	0.1971	1773.4243	0.107967	-457.749481	-457.739445	-457.738501	-457.786743	33.421	
C	 0.0118116677	 1.5333833705	-0.068213381	-0.479856
C	-0.0183933143	 0.0266717904	 0.0802660017	 0.255447
O	-0.0572617827	-0.5355150421	 1.1522903916	-0.266393
C	 0.0026446968	-0.7238136728	-1.1657215366	 0.012492
C	 0.0303462843	-1.3583413057	-2.1926762445	 0.089462
C	 0.038893712	-2.1192919308	-3.4450177369	-0.118194
O	 0.0700036452	-3.5043586324	-3.2670878069	-0.400451
C	-1.1986582621	-1.7057145033	-4.2594172771	 0.14334
O	-2.0004602886	-2.5268107401	-4.6169467333	-0.239085
H	 0.9137971794	 1.8403547069	-0.608692584	 0.148494
H	-0.8468187682	 1.8714669078	-0.6585079464	 0.146635
H	-0.0082929573	 1.9965217135	 0.919180067	 0.148643
H	 0.916860271	-1.7956614717	-4.0327617443	 0.136387
H	-0.7804261101	-3.8300376654	-3.6045531371	 0.302231
H	-1.3001091531	-0.6268407848	-4.4805914822	 0.120849
22.3844	60.6675	78.2489	117.9206	149.7196	187.0825	261.843	307.8305	378.425	409.84	491.7793	501.2181	601.3871	623.0005	680.7423	752.011	833.6598	960.8702	1008.7279	1041.7791	1043.2072	1144.9134	1227.7194	1235.3531	1323.8109	1382.0004	1386.8462	1425.8072	1460.2312	1468.4201	1773.8474	1827.4149	2319.3189	2951.0902	2969.7583	3039.2735	3103.351	3153.8644	3686.7223
CC(=O)C#CC(O)C=O	CC(=O)C#C[C@@H](O)C=O	
InChI=1S/C6H6O3/c1-5(8)2-3-6(9)4-7/h4,6,9H,1H3	InChI=1S/C6H6O3/c1-5(8)2-3-6(9)4-7/h4,6,9H,1H3/t6-/m1/s1
