15
gdb 18584	3.83957	2.15035	1.70626	1.9502	59.84	-0.252	0.0017	0.2538	764.7843	0.120886	-399.79688	-399.790544	-399.7896	-399.827436	24.614	
O	 0.5477254916	 1.0825993171	-0.6092932237	-0.433447
C	 0.121724033	-0.1196646241	-0.0414172063	 0.154425
C	 0.1273005492	-0.2743930562	 1.5209936224	-0.292379
C	-1.3320117129	-0.784224985	 1.4649248824	 0.078485
O	-2.2887645122	 0.094309271	 2.1113683767	-0.217501
C	-2.6308080917	 0.9822076746	 1.1531782365	 0.118478
N	-2.2103413926	 0.8363930695	-0.0390581702	-0.286471
C	-1.4114518823	-0.4018037432	-0.0406776401	-0.05936
H	-0.1995301427	 1.6938635596	-0.55477401	 0.291161
H	 0.6839596479	-0.9264634868	-0.5218995547	 0.089485
H	 0.8651266907	-0.96549862	 1.9335214649	 0.110828
H	 0.208743569	 0.6831421156	 2.0406686219	 0.117084
H	-1.5313355403	-1.8027595882	 1.7932172403	 0.096449
H	-3.2757893652	 1.7857610377	 1.4924138935	 0.148112
H	-1.7968495215	-1.1018687617	-0.7857747536	 0.084652
91.2847	220.3825	347.4348	398.4794	405.2466	494.3943	581.2429	666.1675	733.0271	806.4792	851.6654	872.5761	913.1297	924.6434	976.3637	1003.5708	1042.8082	1056.6483	1107.5135	1125.3416	1162.2763	1178.6379	1240.6292	1261.0079	1272.3037	1300.2194	1316.1799	1339.0801	1360.2656	1440.0609	1465.7606	1672.7657	3058.4071	3071.7281	3080.1318	3125.793	3138.2448	3213.998	3746.9156
OC1CC2OC=NC12	O[C@H]1C[C@H]2OC=N[C@@H]12	
InChI=1S/C5H7NO2/c7-3-1-4-5(3)6-2-8-4/h2-5,7H,1H2	InChI=1S/C5H7NO2/c7-3-1-4-5(3)6-2-8-4/h2-5,7H,1H2/t3-,4+,5-/m0/s1
