21
gdb 42045	2.9031	1.48964	1.09618	1.992	78.04	-0.2468	0.0762	0.323	1141.9185	0.18524	-424.218136	-424.210343	-424.209399	-424.250574	30.909	
C	 0.0355486279	 1.3763258162	-0.4642039036	-0.249398
C	 1.2548848155	 1.7287038041	 0.4336174814	-0.245675
C	 1.5007427289	 0.2226350518	 0.6506936837	 0.137352
O	 1.7680317453	-0.1132784442	 1.9961738452	-0.244662
C	 1.5914431203	-1.4681189354	 2.3224291159	 0.014594
O	 0.3023657238	-1.7709561584	 2.7738806629	-0.226457
C	-0.7089894821	-1.8097545594	 1.7783086582	-0.079768
C	-0.9755002535	-0.4600883015	 1.0991494984	-0.213374
C	 0.0849872229	-0.0902927435	 0.0629381038	-0.026321
H	-0.889134972	 1.9250172114	-0.2688593747	 0.100956
H	 0.2575421978	 1.4478291385	-1.5316087253	 0.102004
H	 2.0651121178	 2.3081372567	-0.0132419963	 0.100109
H	 0.9609340063	 2.200036439	 1.3742549937	 0.117846
H	 2.2960121034	-0.1738075739	 0.0024804766	 0.066029
H	 1.8636746894	-2.1077477829	 1.4628524468	 0.071016
H	 2.2537914407	-1.6770632023	 3.1662819761	 0.111997
H	-0.4591632888	-2.5682157081	 1.0159282511	 0.08379
H	-1.6070807993	-2.1512560356	 2.3016040472	 0.107165
H	-1.9525938574	-0.5089366643	 0.6006519516	 0.095438
H	-1.0500823639	 0.3087725429	 1.8765119618	 0.113032
H	 0.093102527	-0.854726831	-0.7214557944	 0.064328
70.5727	155.8857	241.1569	273.5392	314.9259	370.3056	425.7576	445.5507	567.8929	614.1963	677.8715	757.1126	774.276	858.5598	876.4285	945.3802	962.575	975.6119	991.1758	1001.2953	1024.7772	1073.1841	1095.7337	1123.1622	1138.1748	1174.5884	1184.4612	1231.4882	1238.1941	1249.2984	1263.4687	1276.036	1301.655	1309.4554	1337.0938	1347.7388	1378.742	1391.8775	1411.1442	1448.8477	1469.7195	1478.7891	1492.8605	1496.9875	1505.0756	2935.5214	2958.4906	2986.9919	3022.7363	3038.3789	3061.7738	3072.2593	3076.8787	3081.261	3097.3163	3107.1204	3129.5738
C1CC2OCOCCC12	C1C[C@H]2OCOCC[C@@H]12	
InChI=1S/C7H12O2/c1-2-7-6(1)3-4-8-5-9-7/h6-7H,1-5H2	InChI=1S/C7H12O2/c1-2-7-6(1)3-4-8-5-9-7/h6-7H,1-5H2/t6-,7-/m1/s1
