12
gdb 42543	4.71677	1.23613	1.15131	3.2719	64.08	-0.2592	-0.0461	0.2131	1001.486	0.076873	-435.429995	-435.423303	-435.422359	-435.461297	25.32	
O	 0.060570458	 0.0672088445	 0.01565345	-0.308214
C	 0.0024884662	 1.2561553377	-0.0446761069	 0.497695
C	-1.1036882946	 2.2773852966	 0.0574337217	-0.31094
C	-0.1017520743	 3.2013996908	 0.8047321621	-0.184016
C	 1.0342921479	 2.414646137	 0.0516387637	-0.100354
O	 0.7826469102	 3.1684575063	-1.1713832126	-0.315194
C	-0.47644363	 3.5259569305	-0.5971842926	 0.407852
C	-1.2564086139	 4.5856675466	-1.1513770922	 0.211567
N	-1.9013250882	 5.441961666	-1.5836605847	-0.327282
H	-2.1666740191	 2.1635720069	 0.2124156072	 0.146453
H	-0.1923429412	 3.7069513818	 1.7536365514	 0.154097
H	 2.082604839	 2.2977835155	 0.3064669029	 0.128336
114.5177	151.9521	215.5385	403.1383	486.435	496.3035	537.8629	558.0832	670.5561	753.2254	762.7532	794.4438	825.2638	867.2766	925.4429	946.0796	981.1518	1009.3063	1059.7042	1093.874	1113.6262	1174.0537	1207.7452	1252.8828	1391.8824	1909.3679	2362.9576	3190.3349	3239.0753	3248.5397
O=C1C2C3C1OC23C#N	O=C1[C@H]2[C@H]3[C@@H]1O[C@@]23C#N	
InChI=1S/C6H3NO2/c7-1-6-2-3(6)5(9-6)4(2)8/h2-3,5H	InChI=1S/C6H3NO2/c7-1-6-2-3(6)5(9-6)4(2)8/h2-3,5H/t2-,3+,5+,6+/m1/s1
