19
gdb 55033	3.18795	1.068	0.86937	4.3329	76.73	-0.2314	0.0249	0.2563	1340.0984	0.159494	-419.192896	-419.183692	-419.182748	-419.229111	33.932	
N	 0.1562297483	 1.1671927769	 0.3954305979	-0.521894
C	 0.062099412	-0.0553971208	-0.2024858827	 0.400889
O	 0.8969091149	-0.4857474352	-0.9709153206	-0.363016
C	-1.2174735261	-0.820954324	 0.0911924745	-0.139329
N	-1.0860443798	-2.0391537407	 0.8995279029	-0.324239
C	-1.9135163274	-0.9353634547	 1.4067773999	-0.03313
C	-1.4565325335	-0.2848968996	 2.6747797818	 0.014592
C	-2.1914754653	 0.9288491743	 3.2101315857	-0.278438
C	-2.2998808338	-0.3979050204	 3.9179052072	-0.284808
H	 1.0014981936	 1.6975500602	 0.2569667882	 0.258654
H	-0.4921603903	 1.4545228135	 1.1082854844	 0.269024
H	-1.8490836572	-0.8764597898	-0.7947718951	 0.109665
H	-1.6505829966	-2.7913064336	 0.5159337485	 0.237332
H	-2.9972022134	-1.0469937115	 1.3417414831	 0.07927
H	-0.381673399	-0.3121710996	 2.8181479996	 0.106708
H	-1.6157250518	 1.7182423851	 3.6814645453	 0.116283
H	-3.0595229473	 1.2801734966	 2.6611549495	 0.116321
H	-3.2407557048	-0.9335580479	 3.8429389738	 0.115447
H	-1.7949228425	-0.5171959988	 4.869521536	 0.120669
7.958	70.7713	137.3899	193.953	267.3807	278.3101	301.1059	338.1161	457.5539	495.9751	606.9017	610.7023	726.4066	754.2777	800.1155	826.9171	846.2849	903.0375	912.3806	939.8541	959.5027	998.1587	1044.8353	1060.8778	1080.9343	1103.5608	1134.592	1150.7779	1190.8751	1200.1209	1221.4239	1252.2478	1264.6534	1320.6969	1349.0522	1424.3171	1469.0837	1478.2502	1508.3025	1617.0608	1805.6131	3086.8688	3114.6835	3126.8124	3134.387	3170.7777	3206.4805	3224.0007	3514.6089	3591.3293	3729.6795
NC(=O)C1NC1C1CC1	NC(=O)[C@H]1N[C@H]1C1CC1	
InChI=1S/C6H10N2O/c7-6(9)5-4(8-5)3-1-2-3/h3-5,8H,1-2H2,(H2,7,9)	InChI=1S/C6H10N2O/c7-6(9)5-4(8-5)3-1-2-3/h3-5,8H,1-2H2,(H2,7,9)/t4-,5-/m0/s1
