23
gdb 115348	3.11626	1.07956	0.91405	2.3449	81.56	-0.2454	0.0692	0.3146	1369.5642	0.205259	-425.428552	-425.418394	-425.417449	-425.463584	37.546	
C	 0.2942074217	 1.6233809606	 0.3880299777	-0.237562
O	 0.5324354215	 0.303670796	-0.0405750547	-0.247489
C	 0.6319589766	-0.6320509331	 1.0110080569	 0.152677
C	-0.7141375205	-0.9622985078	 1.7178854158	-0.239118
C	-0.6272648569	-2.4665951122	 2.0855122516	-0.25282
C	 0.7915746126	-2.9131342091	 1.6591956558	 0.138892
O	 0.8880870004	-4.2723506238	 1.2708650084	-0.440447
C	 1.1525815263	-1.9838110039	 0.4870643213	-0.057264
C	 0.5055274983	-2.4073567438	-0.8368898856	-0.385484
H	 1.0751945214	 1.9716708146	 1.0832766926	 0.101032
H	 0.3049483592	 2.2601659311	-0.5001701145	 0.125431
H	-0.6807516844	 1.733033244	 0.8857183814	 0.105935
H	 1.3439680255	-0.2462439018	 1.7613714501	 0.05814
H	-0.88368948	-0.3275782698	 2.5914386142	 0.095147
H	-1.533371685	-0.7735869463	 1.0177248174	 0.111969
H	-0.8144902411	-2.6564176366	 3.1468940197	 0.088159
H	-1.3563581545	-3.0536072207	 1.5190172037	 0.110485
H	 1.4938497933	-2.7117793716	 2.485329464	 0.060507
H	 0.65633245	-4.816210593	 2.0297715561	 0.281032
H	 2.2379777001	-1.945662372	 0.3485160809	 0.072154
H	-0.5861748729	-2.4482770467	-0.7675325012	 0.108428
H	 0.7592950732	-1.6930790277	-1.6226402847	 0.12404
H	 0.8577393353	-3.4000208563	-1.1245354671	 0.126153
76.6896	93.8554	123.8544	182.5526	202.3692	211.0404	261.1861	264.9284	332.6119	343.3548	420.0294	472.0213	554.5367	602.618	652.2273	793.0162	826.378	851.7853	937.7257	982.6537	997.5708	1018.4053	1027.333	1046.6725	1097.8326	1129.2273	1146.0971	1164.6457	1183.4127	1199.3992	1227.8976	1252.4759	1257.3125	1270.6808	1279.0753	1318.5712	1342.5423	1373.415	1386.2337	1395.5721	1407.8334	1441.0901	1480.5884	1484.54	1489.4144	1496.2103	1501.9803	1511.0329	1511.4952	2939.0206	2953.8503	2971.3002	3020.4622	3046.1046	3048.8696	3054.4252	3059.9528	3083.2577	3105.0903	3110.6742	3118.0839	3140.0334	3822.9903
COC1CCC(O)C1C	CO[C@H]1CC[C@@H](O)[C@H]1C	
InChI=1S/C7H14O2/c1-5-6(8)3-4-7(5)9-2/h5-8H,3-4H2,1-2H3	InChI=1S/C7H14O2/c1-5-6(8)3-4-7(5)9-2/h5-8H,3-4H2,1-2H3/t5-,6-,7+/m1/s1
