12
gdb 131919	4.1544	1.32169	1.00269	1.8037	65.12	-0.2824	-0.11	0.1724	1054.7091	0.079473	-468.768245	-468.761618	-468.760674	-468.800134	23.76	
O	-0.0636593163	-0.0049689966	 0.0039093501	-0.349728
N	-0.0203518372	 1.2172129416	 0.0067948187	 0.384781
O	 0.9983724306	 1.8938170907	 0.0021947524	-0.349729
C	-1.3008780081	 1.9334465592	 0.0171212308	 0.223429
C	-1.3352075329	 3.3223901173	 0.020921616	 0.004753
N	-2.496594391	 3.9751289162	 0.0302775015	-0.246945
C	-3.5972687486	 3.2178859776	 0.0356233748	 0.097718
N	-3.6663911126	 1.8836634159	 0.0326549133	-0.246945
C	-2.5023294344	 1.2357102663	 0.0232794143	 0.004753
H	-0.4159203303	 3.8981367327	 0.016320414	 0.167232
H	-4.545861889	 3.7484589082	 0.043254025	 0.143449
H	-2.5117471753	 0.1510451419	 0.0205517292	 0.167232
56.3777	169.2763	243.7685	391.3047	400.9648	413.5102	521.6971	629.2442	735.9613	743.1301	767.7159	870.4679	973.4246	1010.4117	1042.7277	1047.2802	1126.8598	1174.3289	1207.4179	1253.4872	1354.5057	1397.6802	1433.1023	1471.367	1594.1769	1607.0419	1659.1812	3178.9505	3204.4577	3204.6249
O=N(=O)C1=CN=CN=C1	O=N(=O)c1cncnc1	
InChI=1S/C4H3N3O2/c8-7(9)4-1-5-3-6-2-4/h1-3H	InChI=1S/C4H3N3O2/c8-7(9)4-1-5-3-6-2-4/h1-3H
