21
gdb 106291	3.62637	1.1581	1.08606	1.3205	82.85	-0.226	0.012	0.2381	1218.7551	0.181872	-387.062413	-387.053717	-387.052773	-387.095271	34.859	
C	 0.0933488258	 1.5184455494	 0.1650458076	-0.381549
C	-0.0655977949	 0.0081309199	-0.0484275096	-0.297138
C	 0.6654186433	-0.5102739506	-1.2698683423	 0.309917
C	 2.2325027804	-0.420059389	-1.4279424065	-0.276697
C	 1.9505960898	-1.4896005145	-2.5201365152	 0.371527
O	 3.0110979776	-2.247791951	-3.0070652446	-0.486773
C	 0.8463857748	-2.0472147174	-1.5502212508	-0.325051
C	 1.072181502	-0.6757220945	-3.4929447778	-0.180862
C	 0.2337730655	-0.0389043927	-2.674623929	-0.114312
H	 1.1455017392	 1.7885429509	 0.302858819	 0.121323
H	-0.2823029212	 2.0862625848	-0.6926800196	 0.116796
H	-0.4563459916	 1.8509672495	 1.0508509561	 0.111841
H	 0.2971646165	-0.5248120992	 0.8392704798	 0.094232
H	-1.1315214403	-0.2414522566	-0.1380332257	 0.095452
H	 2.6586907291	 0.5301768429	-1.7561323474	 0.094352
H	 2.7748745546	-0.82384059	-0.5667934617	 0.094553
H	 2.6664332217	-2.8715524283	-3.655006939	 0.2781
H	 1.2649300212	-2.5942528706	-0.6988636045	 0.092277
H	 0.0006375517	-2.5812406004	-1.9912649792	 0.084173
H	 1.1649741102	-0.6594580597	-4.570520673	 0.097968
H	-0.5724753055	 0.6474635371	-2.8960840465	 0.09987
86.0873	156.1603	191.2397	233.7601	282.2411	319.7581	378.6365	406.2542	470.9615	540.5756	552.5528	599.8263	633.9253	689.1835	711.9527	779.7409	860.2284	873.8444	901.2373	915.5109	933.2243	974.219	994.5123	1024.3648	1050.9088	1060.4121	1069.5285	1107.7907	1143.8384	1162.7239	1187.5257	1202.7296	1240.5624	1301.2837	1308.3069	1345.522	1362.9984	1374.5255	1411.4022	1475.0672	1484.0285	1498.2755	1506.43	1518.2955	1632.4376	3014.8621	3034.5844	3038.915	3047.7725	3052.408	3102.4506	3105.5452	3111.9001	3122.9845	3205.9651	3234.582	3805.8347
CCC12CC(O)(C1)C=C2	CC[C@@]12C[C@@](O)(C1)C=C2	
InChI=1S/C8H12O/c1-2-7-3-4-8(9,5-7)6-7/h3-4,9H,2,5-6H2,1H3	InChI=1S/C8H12O/c1-2-7-3-4-8(9,5-7)6-7/h3-4,9H,2,5-6H2,1H3/t7-,8-
