19
gdb 40197	3.06301	1.60952	1.29465	2.1069	75.06	-0.2375	0.0749	0.3124	1025.4044	0.160738	-422.994941	-422.987568	-422.986623	-423.026769	29.327	
C	-0.0592555344	 1.515853959	-0.0940576799	-0.333044
C	 1.1525387907	 0.6490462823	 0.2019354483	-0.341832
C	-0.198153026	 0.0359343673	-0.0878123484	 0.451372
O	-0.9212362462	-0.5471104958	 0.9736386723	-0.288684
C	-0.8165142576	-1.959395361	 0.7962321655	-0.110266
C	-0.8775257048	-2.1848817018	-0.7161992799	-0.101663
C	-2.2245275035	-1.8699915239	-1.3993620771	-0.075785
O	-1.7319506487	-0.6157075001	-1.9143909672	-0.288409
C	-0.4360126139	-0.8179057924	-1.3088388811	 0.029517
H	-0.5066100512	 2.0471094718	 0.738308373	 0.128501
H	-0.119497323	 2.0306619084	-1.0464802541	 0.125193
H	 1.9366202234	 0.575784046	-0.5448354752	 0.111365
H	 1.4922529729	 0.6097742245	 1.230782133	 0.120716
H	 0.1374905323	-2.3320692789	 1.2002940158	 0.094226
H	-1.6372503552	-2.4255237727	 1.3486622577	 0.110534
H	-0.3655749536	-3.0867331697	-1.0502162064	 0.083849
H	-2.5139928208	-2.5542042462	-2.206141707	 0.099804
H	-3.0749238968	-1.7308609961	-0.7202895168	 0.106751
H	 0.3704890264	-0.7697803707	-2.0465252123	 0.077852
99.896	161.8753	212.7013	289.591	338.2424	373.8407	480.1051	574.8938	668.4621	764.8075	793.0827	822.3895	862.6966	883.6104	890.8696	918.3987	947.5597	967.2108	1003.07	1009.5416	1026.8863	1029.1966	1054.5023	1077.2861	1084.7751	1127.899	1166.0399	1187.3874	1195.9068	1230.5856	1240.6797	1281.1433	1298.9926	1329.7398	1351.503	1386.0114	1396.7714	1453.6763	1494.7378	1508.5827	1519.8896	2984.453	3014.1052	3058.0418	3066.5863	3089.3548	3120.1946	3128.9461	3140.0989	3217.0254	3231.9161
C1CC11OCC2COC12	C1CC21OC[C@H]1CO[C@@H]21	
InChI=1S/C7H10O2/c1-2-7(1)6-5(3-8-6)4-9-7/h5-6H,1-4H2	InChI=1S/C7H10O2/c1-2-7(1)6-5(3-8-6)4-9-7/h5-6H,1-4H2/t5-,6-/m1/s1
