20
gdb 16765	3.8686	1.50388	1.40857	1.7814	73.65	-0.2546	0.0898	0.3444	996.7336	0.17825	-349.007592	-348.999901	-348.998957	-349.039506	29.773	
C	 0.2393318688	 1.3212392623	-0.3449885526	-0.388333
C	-0.1056324783	-0.1671186839	-0.2362811985	-0.173512
C	-1.5532321743	-0.4427353197	 0.2113110841	 0.0251
C	-2.6131547655	-0.0801211013	-0.874116724	-0.255707
C	-2.9713330722	-1.3952411657	-1.5341444359	 0.057732
O	-1.8292026704	-2.1672130966	-1.9385520822	-0.256421
C	-2.4867735299	-2.5050382696	-0.7071298425	 0.057746
C	-1.7996710542	-1.9504840291	 0.5223968974	-0.266615
H	 1.2836326568	 1.4605638359	-0.6418715136	 0.112368
H	-0.3807425701	 1.8354803224	-1.0869679843	 0.114902
H	 0.0954611432	 1.832188634	 0.6142070188	 0.109046
H	 0.0720010865	-0.6713167507	-1.1916095931	 0.119767
H	 0.5730251265	-0.6318651326	 0.4907545856	 0.087148
H	-1.7377742048	 0.1496037591	 1.1144264615	 0.067535
H	-3.5182314929	 0.3450624613	-0.4232976961	 0.09835
H	-2.2389519711	 0.6541977117	-1.5940855059	 0.108802
H	-3.8382353707	-1.4758070424	-2.1859544906	 0.089114
H	-2.9623586451	-3.4828977864	-0.6895888055	 0.089407
H	-0.8692480701	-2.4788532686	 0.7549830565	 0.106055
H	-2.4681836022	-2.07619208	 1.3831270309	 0.097516
99.1771	131.409	215.2059	241.784	313.8842	365.028	409.0048	424.6459	663.8281	730.1539	778.5468	800.3501	818.5075	863.4176	910.1852	911.7238	935.5539	954.3588	1006.9735	1026.7235	1033.348	1064.5647	1097.3149	1132.2312	1144.0416	1197.5002	1233.6977	1241.4946	1271.3999	1292.7624	1316.7258	1326.6345	1335.2708	1368.6155	1385.8617	1412.419	1444.4448	1475.1123	1486.4939	1495.6377	1500.0425	1508.5443	3022.7292	3025.0283	3028.3256	3033.2427	3045.6355	3077.0149	3077.9912	3083.9068	3100.5091	3100.5872	3134.8817	3148.0755
CCC1CC2OC2C1	CC[C@H]1C[C@H]2O[C@H]2C1	
InChI=1S/C7H12O/c1-2-5-3-6-7(4-5)8-6/h5-7H,2-4H2,1H3	InChI=1S/C7H12O/c1-2-5-3-6-7(4-5)8-6/h5-7H,2-4H2,1H3/t5-,6+,7-
