15
gdb 10625	2.62738	1.80291	1.26975	4.8703	62.48	-0.2889	0.0006	0.2896	973.4342	0.11684	-399.784137	-399.775597	-399.774652	-399.817429	29.997	
C	 0.0572506967	 1.495818485	-0.1669491227	-0.434023
C	 0.0555701609	 0.0141706138	 0.1027761378	 0.04879
O	 1.30809423	-0.6752752692	 0.1225498181	-0.275551
C	 0.5500557648	-0.6319023374	 1.3451074831	 0.164529
C	 1.2244507476	 0.1025950465	 2.4914020191	-0.131807
O	 2.3197301091	-0.6342782992	 2.9875713338	-0.403018
C	-0.0480045809	-1.9057929172	 1.7188193841	 0.279231
N	-0.5510748574	-2.8987492312	 2.0286239589	-0.327184
H	 0.8737721061	 2.0107370338	 0.3405969263	 0.137809
H	 0.16532466	 1.6671935207	-1.2426443658	 0.145089
H	-0.8933792712	 1.9376599912	 0.148203566	 0.140523
H	-0.7250432272	-0.5387260496	-0.4219206563	 0.117896
H	 1.5221134427	 1.1030385802	 2.1546947365	 0.103805
H	 0.5215773479	 0.2153178412	 3.3225086609	 0.134417
H	 2.9393903709	-0.7582216688	 2.2592106901	 0.299495
65.8466	146.5221	146.9525	170.5942	206.8335	274.0484	380.1674	396.3164	422.2837	505.5432	571.2657	597.4291	709.1989	794.3522	915.7561	947.1746	994.1075	1027.7019	1088.0257	1118.6459	1160.5915	1209.7177	1263.0068	1331.5889	1386.0367	1408.247	1423.5935	1451.5316	1485.4108	1488.6753	1503.2436	2359.9415	3030.9122	3048.4092	3094.3528	3103.6913	3110.6948	3147.9269	3800.3764
CC1OC1(CO)C#N	C[C@H]1O[C@]1(CO)C#N	
InChI=1S/C5H7NO2/c1-4-5(2-6,3-7)8-4/h4,7H,3H2,1H3	InChI=1S/C5H7NO2/c1-4-5(2-6,3-7)8-4/h4,7H,3H2,1H3/t4-,5+/m1/s1
