18
gdb 19862	3.70489	2.18372	1.92892	1.5767	69.35	-0.2357	0.0811	0.3168	778.3208	0.15675	-347.773873	-347.767489	-347.766545	-347.804432	25.531	
C	-0.0744149456	 1.4625756585	-0.2368175511	-0.291902
C	 1.2571583218	 0.8222239436	 0.0229724241	-0.062679
C	-0.0281197921	-0.0220084827	-0.0106294562	-0.065551
C	 0.5125454146	-0.7796515312	-1.2386208857	 0.109522
O	-0.1206703422	-0.6405133869	-2.4927960971	-0.267337
C	 0.4744286741	 0.4196436261	-3.2434247714	-0.077308
C	 1.840647022	 0.7729057065	-2.5944378922	-0.261515
C	 1.7999449185	 0.0883897337	-1.2193745142	-0.041797
H	-0.4753710926	 2.0279474095	 0.598911499	 0.11216
H	-0.3312594807	 1.8851667967	-1.2021688866	 0.113893
H	 1.8599411668	 1.0939118779	 0.8808612041	 0.084826
H	-0.5602296732	-0.4845726711	 0.8118685137	 0.08197
H	 0.6528605867	-1.8456605271	-1.0383509751	 0.077745
H	 0.5843075123	 0.0735800956	-4.2775367954	 0.099615
H	-0.1962162194	 1.2892081795	-3.2607311593	 0.099597
H	 2.6625262363	 0.3725745117	-3.1941662355	 0.106002
H	 1.9807238282	 1.8548697469	-2.5233608706	 0.107484
H	 2.7095164545	-0.473273507	-1.0030799805	 0.075274
106.927	146.5939	274.0445	413.5431	540.1429	615.1544	701.9891	739.0284	762.3636	788.9612	831.9793	863.4886	919.9866	926.7527	947.312	971.1065	997.8688	1019.7783	1025.8192	1058.7883	1075.8109	1088.0616	1106.5676	1129.8289	1177.4691	1191.9386	1223.0224	1240.9921	1256.605	1293.4968	1302.6779	1331.8513	1352.2201	1372.4701	1397.218	1489.4969	1498.1822	1540.1751	3005.7428	3046.2655	3060.1765	3065.0527	3096.0464	3108.0456	3131.1243	3177.4867	3187.3749	3208.3811
C1C2C1C1OCCC21	C1[C@H]2[C@@H]1[C@H]1OCC[C@@H]21	
InChI=1S/C7H10O/c1-2-8-7-4(1)5-3-6(5)7/h4-7H,1-3H2	InChI=1S/C7H10O/c1-2-8-7-4(1)5-3-6(5)7/h4-7H,1-3H2/t4-,5+,6+,7-/m0/s1
