18
gdb 72519	2.24212	1.86512	1.6522	2.6359	70.82	-0.228	-0.0261	0.2018	943.6648	0.148776	-439.08773	-439.079864	-439.078919	-439.11982	30.409	
C	 0.020212223	 1.5051640786	 0.040016365	-0.474561
C	 0.0312631934	-0.0034578239	-0.0216039505	 0.150323
C	 0.6085286524	-0.6579533096	-1.2913547864	-0.105131
O	 0.097427935	-2.0177880686	-1.2567252117	-0.288581
C	-0.7235179443	-2.1378714756	-0.0855407467	-0.013652
C	 0.1852801906	-2.0914058472	 1.1473011492	-0.18342
N	 0.6073042065	-0.6544340965	 1.1794130402	-0.344628
C	-1.3316888671	-0.7310879863	-0.0225465507	 0.436153
O	-2.4521168908	-0.3162705433	-0.0101550366	-0.321612
H	 1.0365048708	 1.9129041587	 0.0127121352	 0.114722
H	-0.5364732201	 1.9203964098	-0.8050665141	 0.130322
H	-0.4560890935	 1.836393689	 0.9656547439	 0.141807
H	 0.2708062094	-0.1690141175	-2.2150264269	 0.110123
H	 1.7060605746	-0.6796858448	-1.2852435967	 0.09738
H	-1.3930596937	-2.988264165	-0.1898632365	 0.101748
H	-0.3499500757	-2.3579741435	 2.0673425482	 0.114559
H	 1.0267613801	-2.7799714872	 1.0200271794	 0.112353
H	 1.6176397194	-0.5672358071	 1.1832108459	 0.222094
139.4245	155.3585	175.5571	221.1251	313.0404	323.2931	402.2596	487.865	543.4897	602.436	670.4051	746.6889	763.7022	814.0466	862.0633	891.9453	922.8873	938.2112	972.0771	1007.9411	1039.8935	1070.3684	1090.2038	1159.5029	1175.8611	1182.7546	1233.6953	1245.568	1272.313	1304.117	1353.986	1376.0763	1415.8114	1423.7524	1485.2526	1492.9616	1505.5116	1518.605	1905.8981	3001.1889	3020.1198	3040.5196	3043.0413	3071.8353	3106.7458	3130.896	3157.4065	3527.297
CC12COC(CN1)C2=O	C[C@@]12CO[C@@H](CN1)C2=O	
InChI=1S/C6H9NO2/c1-6-3-9-4(2-7-6)5(6)8/h4,7H,2-3H2,1H3	InChI=1S/C6H9NO2/c1-6-3-9-4(2-7-6)5(6)8/h4,7H,2-3H2,1H3/t4-,6-/m0/s1
