16
gdb 39564	3.04235	2.15555	1.73124	1.2832	70.46	-0.2318	-0.0148	0.217	813.6557	0.128658	-396.911602	-396.90559	-396.904646	-396.941752	24.832	
C	 0.0794442163	 1.4710969278	 0.2802418	-0.198975
N	 1.3218275651	 2.2014548124	-0.0182657349	-0.161382
C	 2.4074740495	 1.5723592591	 0.1218594267	 0.01026
N	 2.4768576246	 0.168904019	 0.4988882408	-0.132306
C	 2.1627829521	-0.0173693569	 1.8745850085	 0.023881
N	 1.1578494976	-0.7490817097	 2.1567899427	-0.21568
C	 0.5723311543	-1.1235096988	 0.8899547485	-0.024668
C	 0.1006542698	-0.0164771502	-0.0646727946	-0.079409
C	 1.4679859849	-0.6224140819	-0.2133715743	-0.058162
H	-0.1243966289	 1.6183555135	 1.3489142135	 0.141332
H	-0.7280945952	 1.9663342181	-0.2636893939	 0.120599
H	 3.3618814396	 2.0700616804	-0.0400691019	 0.125795
H	 2.7764616413	 0.4846056987	 2.6152303147	 0.135998
H	 0.0587004503	-2.0750141704	 0.8533613891	 0.106235
H	-0.6509644061	-0.3482561717	-0.7730511093	 0.102422
H	 1.8076782049	-1.1648776192	-1.0871613058	 0.104061
167.4079	229.291	389.6332	464.6238	497.3312	611.9025	634.4409	702.8986	742.7249	801.0234	811.5656	867.8622	891.6568	913.6309	934.7901	944.3438	968.6695	985.8921	1014.633	1074.1468	1091.5322	1101.1084	1116.3795	1157.1076	1185.7497	1253.3032	1286.1188	1318.902	1338.0401	1348.671	1379.7023	1389.9219	1473.6717	1654.2763	1708.9604	3030.3283	3093.1718	3147.9138	3165.7425	3177.9541	3201.4676	3205.8076
C1N=CN2C=NC3C1C23	C1N=CN2C=N[C@H]3[C@@H]1[C@@H]23	
InChI=1S/C6H7N3/c1-4-5-6(4)9(2-7-1)3-8-5/h2-6H,1H2	InChI=1S/C6H7N3/c1-4-5-6(4)9(2-7-1)3-8-5/h2-6H,1H2/t4-,5+,6-/m1/s1
