21
gdb 93900	2.83426	1.42324	1.13438	1.9944	77.76	-0.2403	0.0764	0.3167	1148.6198	0.183425	-424.220485	-424.211841	-424.210897	-424.253489	33.898	
C	-0.2079001082	 1.5033961839	 0.0132541026	-0.400181
C	 0.0330921571	-0.0000124856	 0.0267220332	 0.108187
O	 0.7161385897	-0.33610107	-1.1765282609	-0.262118
C	 0.8744469076	-1.7388020321	-1.3143865658	-0.106792
C	 1.8593545959	-2.3440355415	-0.2992774079	 0.1036
O	 3.1932708047	-2.3846078443	-0.7943390059	-0.434908
C	 1.7634601791	-1.6448240144	 1.0539966222	-0.070019
C	 2.3193652988	-0.2444020301	 1.2187710913	-0.304804
C	 0.831814222	-0.466379809	 1.2339019659	-0.021396
H	 0.7423043273	 2.0449105869	 0.0104189517	 0.124009
H	-0.7723230533	 1.7877866236	-0.8788548172	 0.122797
H	-0.7760522962	 1.8066706781	 0.8979376467	 0.113291
H	-0.9419496442	-0.5206763652	 0.030977312	 0.063233
H	-0.1069942106	-2.2321533292	-1.2124072346	 0.082061
H	 1.2509890218	-1.9189763571	-2.3247189159	 0.113272
H	 1.5878555574	-3.3980371356	-0.1707648958	 0.085019
H	 3.561127515	-1.4993030934	-0.7035032804	 0.280857
H	 1.8998981602	-2.2961771471	 1.9109268082	 0.090226
H	 2.8284202369	-0.0065709884	 2.145546292	 0.112133
H	 2.7230317314	 0.2545342748	 0.3428754983	 0.117908
H	 0.3128840275	-0.3782414347	 2.1840920902	 0.083625
72.2541	194.2021	207.8003	219.3368	271.127	292.203	319.3474	367.5182	450.8287	477.9738	558.4233	634.3704	744.2563	751.9581	783.9575	837.8978	867.3484	892.8328	962.4592	972.0509	1015.2821	1041.5981	1067.11	1078.3194	1095.1827	1118.0892	1127.8787	1141.5436	1157.6247	1175.0547	1222.978	1266.6927	1309.223	1334.4548	1352.1463	1369.1887	1378.0642	1403.9688	1406.3548	1413.1399	1435.974	1475.7105	1482.7229	1485.2	1497.4451	2933.4941	2962.0795	3043.5264	3045.3445	3097.7464	3117.5746	3123.2743	3127.8403	3146.4557	3159.3389	3215.5783	3812.9207
CC1OCC(O)C2CC12	C[C@H]1OC[C@@H](O)[C@H]2C[C@@H]12	
InChI=1S/C7H12O2/c1-4-5-2-6(5)7(8)3-9-4/h4-8H,2-3H2,1H3	InChI=1S/C7H12O2/c1-4-5-2-6(5)7(8)3-9-4/h4-8H,2-3H2,1H3/t4-,5+,6+,7-/m1/s1
