20
gdb 22198	2.09039	0.92226	0.69019	2.352	79.81	-0.2432	-0.0302	0.213	1665.4301	0.167378	-440.261745	-440.251079	-440.250135	-440.298937	37.14	
C	-0.0052295354	 1.4150229366	 0.102087082	-0.389244
C	-0.0153835001	-0.1145603163	 0.1644486248	-0.160061
C	 0.5863059443	-0.7477367172	-1.0921966066	-0.257534
C	 0.6225677971	-2.2540981202	-1.1213645243	 0.318567
C	 1.2970991925	-2.9188887231	-2.3051922774	-0.357374
C	 2.7330127012	-3.2814915953	-1.9505012362	 0.15721
O	 3.7000379176	-2.8120573834	-2.4912629431	-0.233927
N	 0.1128295854	-2.8956515677	-0.1415079167	-0.156482
O	 0.2403297123	-4.2879372956	-0.296149063	-0.406321
H	 1.0141532	 1.8040833485	 0.0010344714	 0.115805
H	-0.58522428	 1.7844796726	-0.7512011702	 0.113501
H	-0.4374092013	 1.8487508816	 1.0088625201	 0.1148
H	 0.5407522446	-0.4595657323	 1.0426453016	 0.110349
H	-1.0389380299	-0.4799854427	 0.2978414154	 0.111329
H	 0.0382557264	-0.4068448814	-1.9836337257	 0.116062
H	 1.6148590548	-0.3864786995	-1.2425913237	 0.124767
H	 0.7613591831	-3.8438939216	-2.5445175376	 0.146962
H	 1.3118769088	-2.2540951696	-3.1711365169	 0.120981
H	 2.8232570666	-4.0160975686	-1.123843935	 0.101207
H	-0.2150128179	-4.6210918147	 0.4842100811	 0.309403
34.9297	74.1988	88.9742	95.8237	151.6497	209.8162	244.9336	291.8062	297.6262	352.5489	396.5206	415.8699	504.2141	581.7128	654.8524	743.8286	791.6322	875.5167	889.9109	914.0651	984.7757	1011.2194	1051.5146	1054.9046	1123.0128	1126.5894	1161.336	1235.0169	1257.2361	1281.7629	1323.3178	1328.0704	1395.8994	1412.0707	1415.1385	1416.6292	1456.0512	1469.5925	1488.0596	1500.6944	1508.642	1723.5878	1829.1757	2925.5892	2997.5903	3019.7709	3029.318	3049.6771	3051.34	3076.2702	3101.5832	3104.93	3126.7254	3822.9884
CCCC(CC=O)=NO	CCCC(=NO)CC=O	
InChI=1S/C6H11NO2/c1-2-3-6(7-9)4-5-8/h5,9H,2-4H2,1H3	InChI=1S/C6H11NO2/c1-2-3-6(7-9)4-5-8/h5,9H,2-4H2,1H3
