19
gdb 80557	2.79359	1.46386	1.26979	2.096	77.02	-0.2229	0.0075	0.2304	1078.6218	0.159566	-423.009673	-423.001558	-423.000614	-423.042124	32.105	
C	 0.2794663201	 1.4986831741	-0.1039587831	-0.400239
C	 0.0378447879	-0.001026686	 0.0136165131	 0.088972
O	 0.6248977097	-0.5964239151	-1.1571456019	-0.289291
C	 0.6562520476	-1.9997956358	-1.1834478233	 0.007993
C	 2.0526066129	-2.5496703044	-1.0451531313	 0.107918
O	 3.1066326587	-1.655310258	-0.9831261587	-0.420938
C	 1.0461969447	-2.6892483599	 0.1055951975	-0.174615
C	 1.1040703413	-1.8272343644	 1.3074293869	-0.071852
C	 0.6173674368	-0.5879154096	 1.280434691	-0.08102
H	 1.3504733149	 1.7200407571	-0.0623755798	 0.125203
H	-0.1176123914	 1.8738234702	-1.0504859062	 0.127429
H	-0.2139960135	 2.0268833517	 0.7172443099	 0.11963
H	-1.0486056382	-0.189335971	-0.0127481164	 0.088618
H	-0.0676229989	-2.4454745379	-1.8621526201	 0.092093
H	 2.3109506054	-3.4613336503	-1.5756314524	 0.101907
H	 2.7060112163	-0.7771393774	-1.0616719762	 0.288954
H	 0.662723989	-3.6946300834	 0.2588716179	 0.095916
H	 1.5462196634	-2.236808711	 2.2110911605	 0.099138
H	 0.6245051734	 0.0464034812	 2.1619328327	 0.094183
87.344	145.9754	230.2042	254.2668	304.1048	352.1441	428.6332	437.817	506.5815	565.268	588.9143	665.8734	735.4404	763.3171	789.1811	818.9958	871.6968	923.0066	941.9326	983.7185	1014.259	1052.7788	1053.7531	1092.2064	1109.9616	1122.7544	1159.8425	1169.8773	1206.0081	1229.3942	1312.59	1337.2107	1341.9461	1358.4836	1387.6476	1407.7041	1421.259	1449.3422	1485.6543	1497.12	1708.6426	2959.9558	3043.163	3116.1686	3119.905	3127.1239	3138.2326	3156.6853	3160.376	3182.1727	3724.946
CC1OC2C(O)C2C=C1	C[C@H]1O[C@H]2[C@@H](O)[C@H]2C=C1	
InChI=1S/C7H10O2/c1-4-2-3-5-6(8)7(5)9-4/h2-8H,1H3	InChI=1S/C7H10O2/c1-4-2-3-5-6(8)7(5)9-4/h2-8H,1H3/t4-,5-,6+,7-/m1/s1
