17
gdb 26752	3.04224	1.52667	1.04074	2.9083	77.27	-0.1849	0.0342	0.2191	1123.0825	0.137138	-418.019685	-418.011416	-418.010472	-418.052699	30.384	
C	-0.1080733147	 1.6305262595	-0.0168522799	-0.50357
C	 0.098970255	 0.1574856039	-0.0341294773	 0.132096
C	 0.080828936	-0.7623807103	-1.0700050289	 0.274844
O	-0.1377189884	-0.465211527	-2.3733247878	-0.438055
N	 0.2821055611	-2.0687039413	-0.6704454003	-0.445702
C	 0.3740210577	-1.9414273124	 0.6344695423	 0.335097
C	 0.867170811	-2.476437492	 1.9649694284	-0.356517
C	 0.817104669	-0.9614004317	 2.4074833149	-0.174876
N	 0.2424497353	-0.6737092931	 1.0732420119	-0.041498
H	 0.7237352352	 2.1655470983	 0.4587274025	 0.11995
H	-0.1890069274	 1.991525141	-1.0449276978	 0.149527
H	-1.0259811442	 1.9189516415	 0.5110220275	 0.125958
H	-0.077645144	-1.3007984887	-2.8511995973	 0.299894
H	 0.1932453106	-3.1441963715	 2.5073410492	 0.129878
H	 1.8717172109	-2.9063566181	 1.9583733322	 0.133887
H	 0.1563128102	-0.708333978	 3.2404083787	 0.126844
H	 1.8025541866	-0.51393659	 2.5629316516	 0.132243
83.4904	121.7507	171.8139	226.7441	258.896	309.4645	328.1105	355.5356	569.5898	606.6667	655.5603	668.0509	717.8613	809.5795	840.7436	856.7871	921.7697	1044.4279	1055.5402	1066.7771	1099.0998	1125.7939	1141.378	1174.2356	1226.3148	1262.1433	1306.5077	1332.0286	1412.5298	1433.2868	1456.3158	1481.8989	1483.3994	1499.3124	1511.2929	1574.9244	1653.5545	3012.8101	3054.198	3057.6212	3067.629	3107.0621	3121.2194	3123.0292	3810.0852
CC1=C(O)N=C2CCN12	Cc1c(O)nc2CCn12	
InChI=1S/C6H8N2O/c1-4-6(9)7-5-2-3-8(4)5/h9H,2-3H2,1H3	InChI=1S/C6H8N2O/c1-4-6(9)7-5-2-3-8(4)5/h9H,2-3H2,1H3
