21
gdb 82974	2.48556	1.88563	1.56754	1.652	80.34	-0.2384	0.0747	0.3131	977.8674	0.18525	-387.079324	-387.071897	-387.070953	-387.111148	30.213	
C	-0.4271571648	 1.4777547515	 0.2146563541	-0.414981
C	-0.0126299107	 0.0270182386	 0.0327667641	 0.018986
C	 0.6363419419	-0.4741907325	-1.3148445804	-0.050273
C	 1.3601744007	 0.5706947727	-2.1960282001	-0.22819
C	 2.8325008185	 0.6455520807	-1.7005854697	-0.223331
C	 2.8982467374	-0.219453173	-0.4454291363	 0.133035
O	 2.3368440792	 0.4445234996	 0.7232631636	-0.317947
C	 1.2301357431	-0.4835252463	 0.7933643626	 0.102348
C	 1.7266681952	-1.2183666704	-0.4757847244	-0.118446
H	 0.4365119213	 2.1421157724	 0.1268916229	 0.131315
H	-1.1753420341	 1.7776710558	-0.5274018281	 0.110049
H	-0.8638289609	 1.6344109996	 1.2073767541	 0.111498
H	-0.8527160078	-0.6381328737	 0.2679979366	 0.067706
H	-0.0368399492	-1.1020564733	-1.9010237239	 0.065168
H	 1.3285519711	 0.2645269133	-3.245999535	 0.096176
H	 0.8626167076	 1.5429526902	-2.1447458363	 0.105814
H	 3.5180118701	 0.2419154894	-2.4545774394	 0.095933
H	 3.1613117742	 1.6649999049	-1.4783626187	 0.110573
H	 3.900623058	-0.6016063441	-0.222252076	 0.068966
H	 1.1166337161	-0.9082847826	 1.7944523126	 0.066558
H	 1.8893632332	-2.2886306227	-0.5800005623	 0.069043
76.6516	203.8346	214.7323	250.3524	347.4022	420.2648	539.3801	614.3964	636.9306	717.0151	753.6704	787.7145	818.7952	850.4586	878.8588	894.2287	920.7716	926.8196	966.7111	981.6275	996.5117	1042.476	1050.5565	1083.4712	1125.5493	1126.491	1167.172	1183.6476	1196.8569	1212.082	1235.4717	1250.2412	1270.1489	1284.2771	1304.0764	1321.7632	1338.3834	1347.663	1360.2501	1364.8378	1404.2434	1471.4622	1488.2035	1496.112	1514.4532	3024.8303	3031.7606	3032.734	3046.3367	3056.99	3069.2505	3081.4077	3088.2072	3090.1313	3102.1105	3116.8277	3137.6313
CC1C2CCC3OC1C23	C[C@H]1[C@H]2CC[C@H]3O[C@@H]1[C@@H]23	
InChI=1S/C8H12O/c1-4-5-2-3-6-7(5)8(4)9-6/h4-8H,2-3H2,1H3	InChI=1S/C8H12O/c1-4-5-2-3-6-7(5)8(4)9-6/h4-8H,2-3H2,1H3/t4-,5+,6+,7-,8-/m0/s1
