23
gdb 90399	2.15	1.51553	1.29861	1.3239	86.42	-0.2412	0.0733	0.3146	1164.3021	0.204054	-388.269325	-388.259344	-388.2584	-388.303045	38.754	
C	-0.0415126899	 1.5338177303	-0.0293353504	-0.463165
C	 0.0626181767	 0.0164010403	 0.0288490203	 0.283337
C	-1.1650265925	-0.6494860056	-0.5813615439	-0.457092
C	 1.3449505473	-0.7388068513	-0.2291893891	-0.141993
C	 2.5664915683	 0.0256530423	 0.2813671315	-0.300859
C	 1.950917319	-0.046415869	 1.7198519458	 0.056434
O	 1.7216629776	 1.1349183447	 2.4645762048	-0.431211
C	 0.6994975267	-0.7423108691	 1.1814108467	 0.302387
C	 0.0158676348	-1.81207571	 1.9922918792	-0.506714
H	 0.7690167636	 2.0386850839	 0.4930005231	 0.134962
H	-0.0617739635	 1.8753860618	-1.0718334378	 0.10072
H	-0.9764203977	 1.8615756281	 0.440194571	 0.109488
H	-1.3398910066	-0.2525663946	-1.5878047262	 0.113044
H	-1.0556952957	-1.7335281262	-0.6722784896	 0.112432
H	-2.0649651856	-0.4491041119	 0.011565067	 0.114464
H	 1.3799492244	-1.5492163254	-0.9492001297	 0.076433
H	 3.5048886915	-0.5283095516	 0.1996373457	 0.09435
H	 2.7136346911	 1.028472177	-0.1301581421	 0.097462
H	 2.5219269009	-0.7655718992	 2.3247434642	 0.068599
H	 2.5653267477	 1.4351702712	 2.8176496711	 0.281865
H	-0.4611921369	-1.3712101241	 2.8763781942	 0.126475
H	-0.7589997446	-2.340357234	 1.4326548039	 0.118384
H	 0.7358558635	-2.5586204277	 2.3483149101	 0.110198
144.966	153.0311	170.9492	200.6122	222.6026	232.1545	275.775	301.492	318.9046	368.373	390.7908	430.2582	496.4233	570.4434	639.6517	650.312	707.9822	832.3494	877.482	941.2881	945.5397	963.8577	977.6546	1017.3911	1027.9933	1060.2934	1083.1148	1111.9678	1138.214	1155.274	1170.4576	1203.8646	1241.2446	1244.4081	1257.0995	1299.3307	1331.3796	1401.9431	1413.3043	1416.531	1428.0639	1446.8448	1483.1391	1486.4138	1490.4264	1495.0515	1502.1779	1513.8271	1518.8776	2988.4645	3021.8708	3021.9722	3027.9605	3054.1283	3072.8325	3075.2774	3084.262	3103.6435	3105.6955	3121.6587	3159.7611	3167.4441	3812.7064
CC1(C)C2CC(O)C12C	CC1(C)[C@H]2C[C@@H](O)[C@@]12C	
InChI=1S/C8H14O/c1-7(2)5-4-6(9)8(5,7)3/h5-6,9H,4H2,1-3H3	InChI=1S/C8H14O/c1-7(2)5-4-6(9)8(5,7)3/h5-6,9H,4H2,1-3H3/t5-,6-,8+/m1/s1
