19
gdb 108219	2.31336	1.45426	1.15804	2.217	71.6	-0.2248	0.0514	0.2762	1136.5932	0.15722	-460.108756	-460.099306	-460.098362	-460.14321	35.007	
C	-0.0881398198	 1.5031272765	 0.0211838449	-0.500852
C	 0.0630960395	 0.0201310786	 0.0680195927	 0.369908
O	 0.4549544684	-0.6733586206	-1.122897984	-0.325
C	 1.2715187679	-1.5964163815	-0.3445331642	-0.137697
C	 0.8139773308	-0.9652051782	 0.9615120479	 0.162758
C	 1.5790067245	-0.8015871266	 2.2460130313	-0.177177
O	 1.3340813797	-1.8553403627	 3.167608425	-0.421954
C	-0.7034607721	-0.9417624414	 0.9394341492	-0.036977
O	-1.2329118065	-0.4626763964	 2.1471534747	-0.431522
H	 0.8506114492	 1.9926601319	-0.2549195819	 0.132503
H	-0.8459862543	 1.7834049366	-0.7199844542	 0.13201
H	-0.4050242945	 1.8796815185	 0.9976735299	 0.129391
H	 1.0069320618	-2.6434437919	-0.5322266808	 0.108236
H	 2.336494491	-1.4395948047	-0.5558321367	 0.108696
H	 2.6555010271	-0.8174846826	 2.043353489	 0.107104
H	 1.3449209798	 0.1741452563	 2.6933069151	 0.099482
H	 0.3998658096	-1.7959561245	 3.3982230987	 0.293458
H	-1.2564526267	-1.7576710148	 0.4682923268	 0.09009
H	-2.0749380054	-0.0329280125	 1.9643532565	 0.297542
38.8617	120.7156	190.3248	198.5582	244.089	278.2607	286.901	319.9616	357.7984	411.9417	435.0148	485.4648	556.1516	665.6731	750.8333	790.0999	860.9036	909.1126	954.7645	981.2957	1010.6712	1051.9593	1068.8811	1100.3954	1136.6101	1147.9287	1155.6741	1200.6506	1236.5583	1270.3546	1302.7927	1346.958	1362.6054	1389.0467	1412.0336	1426.79	1467.917	1481.1425	1491.8762	1501.7382	1520.6025	3006.2194	3017.6598	3031.8711	3067.1023	3069.8614	3072.8829	3095.6059	3120.8424	3801.1438	3808.5386
CC12OCC1(CO)C2O	C[C@@]12OC[C@]1(CO)[C@H]2O	
InChI=1S/C6H10O3/c1-5-4(8)6(5,2-7)3-9-5/h4,7-8H,2-3H2,1H3	InChI=1S/C6H10O3/c1-5-4(8)6(5,2-7)3-9-5/h4,7-8H,2-3H2,1H3/t4-,5-,6+/m0/s1
