18
gdb 47650	2.37544	1.84685	1.21737	3.085	73.99	-0.2582	-0.01	0.2482	1035.633	0.149223	-439.081069	-439.073188	-439.072244	-439.113606	30.316	
N	-0.0651229322	 1.353746973	-0.0815304469	-0.516588
C	 0.0376904033	 0.0970537353	-0.0151638281	 0.420514
O	-1.0417208475	-0.718526177	-0.041664625	-0.221362
C	-1.8475340034	-0.6645472009	-1.2188675131	-0.06606
C	-1.060903988	-1.2396375982	-2.418204233	-0.294547
C	-0.3716925547	-2.5224139049	-2.0358405085	-0.021909
C	 0.7617214835	-2.5899774281	-1.3334600976	-0.05636
C	 1.6283748822	-1.4104136629	-0.9539366759	-0.141245
O	 1.1992809513	-0.5869200633	 0.1659159721	-0.248371
H	 0.8629603254	 1.7739773328	-0.0568188934	 0.229742
H	-2.7230153316	-1.2768730288	-0.9900324907	 0.118517
H	-2.1646546327	 0.3644934465	-1.4149770509	 0.133422
H	-1.7486972669	-1.3869897702	-3.2568172695	 0.108443
H	-0.3296663423	-0.4858120667	-2.7350515526	 0.1202
H	-0.8938157006	-3.4474540549	-2.2697557326	 0.097723
H	 1.1315095167	-3.5643902489	-1.0264466076	 0.097043
H	 2.6151399563	-1.758004317	-0.6452607729	 0.125361
H	 1.764033311	-0.7429069357	-1.815639284	 0.115476
70.2519	156.3735	215.5801	248.2382	280.9304	330.329	443.8636	520.892	543.7301	594.0671	634.6653	727.0097	804.2348	850.3366	867.159	875.3774	904.6657	943.9155	983.9765	1000.9661	1018.4284	1030.3173	1077.9443	1101.1727	1146.9457	1235.3376	1260.3078	1279.6709	1296.0633	1297.8811	1337.7085	1394.2058	1408.0214	1429.4904	1483.2533	1499.1405	1503.0649	1708.7132	1742.9953	3014.0936	3032.0648	3057.4968	3083.8414	3118.3293	3118.9667	3148.1149	3172.9326	3508.1257
N=C1OCCC=CCO1	[NH][C]1OCCC=CCO1	
InChI=1S/C6H9NO2/c7-6-8-4-2-1-3-5-9-6/h1-2,7H,3-5H2/b2-1-,7-6?	InChI=1S/C6H9NO2/c7-6-8-4-2-1-3-5-9-6/h1-2,7H,3-5H2/b2-1-,7-6?
