16
gdb 62341	3.61886	1.18623	1.14733	5.7723	76.2	-0.2655	-0.0224	0.2431	1107.024	0.123827	-396.897075	-396.888895	-396.887951	-396.929678	30.727	
C	 0.0327095737	 1.520275461	 0.0495536987	-0.471426
C	 0.0637403268	 0.0085956544	-0.0851241115	 0.143966
C	-1.1136859663	-0.6279252761	 0.4795883486	 0.270399
N	-2.0796379521	-1.0975629046	 0.9055561059	-0.329944
C	 0.6993296932	-0.7517123489	-1.1954376599	-0.052532
C	 1.9417545333	-0.0626780557	-1.7541724214	-0.37472
C	 2.424298728	-0.044891157	-0.2999748489	 0.359916
N	 3.4061921029	 0.3365981982	 0.3796607385	-0.482897
N	 1.2931602198	-0.8125318144	 0.208036739	-0.160067
H	 0.8907749607	 1.9934273025	-0.4278724834	 0.137918
H	-0.8807042749	 1.9120788529	-0.4061938779	 0.148374
H	 0.0358958017	 1.7982142233	 1.1068926763	 0.161689
H	 0.222269105	-1.6244159323	-1.6251286985	 0.131399
H	 2.5428377078	-0.7346947046	-2.3721983744	 0.149512
H	 1.8216917513	 0.8907770987	-2.2744856695	 0.135312
H	 4.096533119	 0.8120217624	-0.2039059114	 0.233101
124.8085	136.2395	164.2307	184.7477	275.5147	338.574	414.7638	441.0584	522.6486	561.3748	573.4092	645.9996	681.43	805.777	838.2673	895.3649	898.2013	950.8157	982.8271	990.8781	1029.3448	1062.1477	1093.1516	1133.7341	1219.2499	1237.853	1264.6511	1288.9935	1378.6352	1421.8557	1459.0854	1482.9578	1495.6793	1804.4996	2363.0113	3058.4655	3067.3136	3119.6212	3126.2813	3153.6619	3193.3928	3473.2848
CC1(C#N)C2CC(=N)N12	C[C@@]1(C#N)[C@H]2C[C]([NH])N12	
InChI=1S/C6H7N3/c1-6(3-7)4-2-5(8)9(4)6/h4,8H,2H2,1H3	InChI=1S/C6H7N3/c1-6(3-7)4-2-5(8)9(4)6/h4,8H,2H2,1H3/t4-,6-,9?/m1/s1
