23
gdb 56140	3.08691	0.82057	0.76495	3.4936	83.54	-0.2408	-0.006	0.2347	1648.597	0.199863	-425.447851	-425.436131	-425.435187	-425.486157	41.504	
C	 0.0273506	 1.4733415269	-0.0494092892	-0.482854
C	 0.0930514703	-0.0410051786	 0.0783046171	 0.366772
O	 1.1307363144	-0.6372404229	 0.2131437022	-0.273042
C	-1.2634205405	-0.7433019016	 0.0147216447	-0.172858
O	-1.0808593561	-2.1240937032	-0.0122878305	-0.266564
C	-2.2451719178	-2.9708712252	 0.0106115649	 0.37426
C	-3.1430399739	-2.7091306223	-1.2086590107	-0.415362
C	-1.6520321375	-4.3810821764	-0.061056012	-0.396898
C	-3.0288856157	-2.7911165891	 1.3202465198	-0.41573
H	 0.9756766531	 1.9083266009	 0.268192795	 0.146341
H	-0.1510577317	 1.7439729313	-1.0969929838	 0.145187
H	-0.7952912307	 1.8954837609	 0.5371373316	 0.13012
H	-1.8408126261	-0.4014072362	 0.8917465774	 0.104241
H	-1.800871458	-0.3610616119	-0.8703877775	 0.100701
H	-2.5588336104	-2.7719414387	-2.1316448442	 0.122238
H	-3.9414167751	-3.4558430988	-1.2569559316	 0.116863
H	-3.6200821944	-1.7251362608	-1.1657964256	 0.11072
H	-0.9848713927	-4.5523068637	 0.7879001657	 0.124965
H	-2.4421775081	-5.1373617394	-0.0462563412	 0.106968
H	-1.0695919077	-4.4989912226	-0.9787580386	 0.122313
H	-3.5058985486	-1.808327153	 1.3853702664	 0.110308
H	-3.8221893889	-3.5414202219	 1.3914801468	 0.116707
H	-2.3633253239	-2.9118985741	 2.1799779534	 0.124604
19.6446	60.4418	83.0303	117.3545	129.5498	199.0534	243.0988	258.7937	266.2237	297.9058	337.1324	368.2071	447.0897	447.8367	480.2536	503.4487	590.1541	752.4121	835.7744	865.8204	890.8719	908.2601	920.395	955.9585	981.6139	1036.9687	1046.7383	1094.9618	1153.7268	1191.9595	1224.6171	1251.1527	1262.1507	1274.3463	1379.4002	1389.0351	1393.4166	1406.7962	1423.336	1464.171	1470.9165	1476.7428	1482.4888	1483.928	1490.1503	1499.6348	1500.4831	1520.4445	1836.4023	2951.0977	2972.7325	3035.6214	3035.84	3038.7961	3046.6293	3097.4397	3102.7706	3108.314	3113.0339	3114.8983	3123.0219	3123.9958	3151.439
CC(=O)COC(C)(C)C	CC(=O)COC(C)(C)C	
InChI=1S/C7H14O2/c1-6(8)5-9-7(2,3)4/h5H2,1-4H3	InChI=1S/C7H14O2/c1-6(8)5-9-7(2,3)4/h5H2,1-4H3
