19
gdb 46995	2.58657	1.75086	1.42443	2.9138	73.78	-0.2305	-0.0166	0.2139	980.0356	0.162126	-423.060863	-423.053585	-423.052641	-423.092573	29.089	
O	 0.0044034964	-0.0417641266	-0.1465305081	-0.319572
C	-0.0128966581	 1.1520264032	 0.0347503929	 0.377137
C	-1.3358798767	 1.9064147333	 0.2208398772	-0.176784
O	-1.2595957848	 3.0985021117	 0.9885567458	-0.271025
C	-0.0472825091	 3.841762596	 0.8601643467	 0.126945
C	 0.2727807228	 4.2185701351	-0.6043161124	-0.233264
C	 1.1399811649	 3.0439054965	-1.1430092786	-0.236174
C	 1.2248371143	 2.0320010214	 0.0375805952	-0.106842
C	 1.1385340368	 2.9582414355	 1.2698489052	-0.246659
H	-1.7243758929	 2.1152382314	-0.7921356462	 0.115962
H	-2.0528335251	 1.242776537	 0.7096884556	 0.138199
H	-0.1919854731	 4.7129841104	 1.5020683319	 0.083171
H	-0.648185519	 4.3709018609	-1.1725047067	 0.114845
H	 0.8261634539	 5.1612456765	-0.6335444659	 0.106669
H	 0.7283329854	 2.5898753607	-2.0486881037	 0.114019
H	 2.1501434854	 3.3829493101	-1.3897201944	 0.111913
H	 2.1094000547	 1.3946341861	-0.0051413826	 0.084683
H	 2.0569331988	 3.5470964236	 1.3734775986	 0.102462
H	 0.9534817955	 2.4337784274	 2.2109441096	 0.114315
94.9151	169.5527	214.6754	357.6726	397.6513	429.0348	447.2265	511.5517	618.0877	688.3575	748.2673	782.4829	822.1553	869.3825	884.4706	918.2538	937.0134	956.1589	976.1672	1021.4966	1051.1888	1063.5154	1110.562	1120.5792	1182.7033	1212.5515	1228.0784	1250.8509	1253.2586	1270.0722	1305.0686	1328.6232	1343.5015	1346.9161	1357.5012	1391.4707	1473.0607	1483.3955	1486.7006	1509.7363	1824.3761	2949.9217	3043.2138	3054.1232	3065.4548	3089.8753	3097.2444	3103.1067	3104.1999	3106.0871	3113.6937
O=C1COC2CCC1C2	O=C1CO[C@@H]2CC[C@H]1C2	
InChI=1S/C7H10O2/c8-7-4-9-6-2-1-5(7)3-6/h5-6H,1-4H2	InChI=1S/C7H10O2/c8-7-4-9-6-2-1-5(7)3-6/h5-6H,1-4H2/t5-,6+/m0/s1
