17
gdb 32238	2.58355	1.58572	0.98994	2.5433	81.74	-0.1886	0.0011	0.1897	1163.7043	0.137597	-418.070267	-418.061803	-418.060858	-418.103308	31.662	
C	-0.0910431542	 1.4586318851	-0.0168455961	-0.309327
N	 0.152416802	 0.0321202065	 0.0391367979	-0.353856
C	 0.6769868383	-0.6469383485	-1.0296190727	 0.351297
N	 1.1833634567	 0.0392422846	-2.0505985997	-0.355435
C	 1.7322648918	-0.6396426945	-3.0699433405	-0.022469
C	 1.7925262237	-2.0189355468	-3.1297355739	-0.135708
C	 1.2469226916	-2.747382395	-2.0618914518	-0.207325
C	 0.6870133882	-2.0672992838	-1.0044743462	 0.287219
O	 0.1193182677	-2.6576709878	 0.0948005045	-0.461115
H	 0.832465343	 1.985645412	-0.2669287988	 0.147535
H	-0.8419377971	 1.734935815	-0.7705094334	 0.119507
H	-0.4348719601	 1.7928687507	 0.9648428341	 0.115118
H	-0.4090588522	-0.5193100245	 0.6659297683	 0.253358
H	 2.1363729845	-0.0327281845	-3.876102137	 0.097394
H	 2.2416223778	-2.523236363	-3.9766622071	 0.09006
H	 1.2628147898	-3.8346268788	-2.0612972708	 0.085836
H	 0.1574207286	-3.6146143868	-0.0024421668	 0.29791
104.1416	110.2753	179.9574	201.9885	301.2929	324.3612	333.8687	420.5475	478.2639	530.4678	551.0883	588.1529	616.8296	773.8652	791.5157	804.2832	876.7072	909.1255	952.2357	1075.5053	1090.5088	1108.963	1153.6273	1172.5994	1178.7629	1260.5004	1293.8587	1332.2457	1399.0358	1453.0645	1467.1436	1478.3506	1506.6991	1519.5704	1560.2745	1618.3486	1656.2266	3004.8007	3089.1681	3131.8694	3154.343	3157.3781	3205.8294	3657.4671	3823.0747
CNC1=NC=CC=C1O	CNc1ncccc1O	
InChI=1S/C6H8N2O/c1-7-6-5(9)3-2-4-8-6/h2-4,9H,1H3,(H,7,8)	InChI=1S/C6H8N2O/c1-7-6-5(9)3-2-4-8-6/h2-4,9H,1H3,(H,7,8)
