21
gdb 36897	4.765	0.82672	0.79426	1.7599	82.3	-0.2475	0.0911	0.3386	1508.0132	0.182672	-387.035342	-387.02691	-387.025966	-387.069171	32.417	
C	-0.1835834945	 1.593413667	-0.0523932476	-0.230696
C	-0.2475563096	 0.0894485546	-0.2228303924	 0.037474
C	-0.2010941919	-0.8193010156	 0.9813726645	-0.25724
C	-1.4777923053	-0.6772507328	 0.1871859349	-0.276512
C	 1.2420627377	 2.1261900921	 0.0603852967	 0.001973
C	 2.1800377321	 2.0748808764	-1.2095047493	-0.271052
C	 2.3107427227	 3.5996642227	-1.1144862234	 0.035238
O	 0.9881786762	 4.1429376652	-1.2147235939	-0.245506
C	 1.4271068526	 3.6555230295	 0.0599169451	 0.003344
H	-0.6760909117	 2.0914616467	-0.8958413199	 0.112768
H	-0.745069655	 1.8758864391	 0.8491385387	 0.086767
H	 0.2622332525	-0.281632592	-1.1089643122	 0.081625
H	 0.3484362191	-1.7516935079	 0.9121659932	 0.108304
H	-0.1644730886	-0.3566312592	 1.962852126	 0.106487
H	-2.2935678079	-0.120037701	 0.636617477	 0.109599
H	-1.7983670649	-1.5118406404	-0.426622869	 0.109302
H	 1.7534697535	 1.6765087702	 0.9179021486	 0.076483
H	 3.1138417437	 1.539629196	-1.0232196921	 0.105079
H	 1.7305853215	 1.7138327418	-2.1384481997	 0.107905
H	 3.1310396344	 4.2412159263	-1.4149210751	 0.101993
H	 1.3886953133	 4.3509857113	 0.8913091298	 0.096666
64.6961	81.4256	123.0328	177.647	307.418	323.5806	403.6767	447.7077	558.8641	723.7181	775.233	801.7002	811.2295	833.5506	839.4277	857.2997	877.0694	921.1775	939.8153	952.8574	981.8165	1003.4655	1023.5523	1053.4831	1062.4691	1078.1054	1109.8721	1130.3342	1143.3903	1191.8186	1199.5125	1212.3987	1226.9655	1239.6035	1241.2777	1267.0956	1276.3503	1309.6143	1377.0135	1391.7979	1418.3478	1469.0735	1472.316	1486.2359	1507.2978	3010.8263	3050.419	3063.1326	3068.1386	3120.7215	3125.9978	3129.8796	3133.8441	3172.7525	3190.6787	3203.7535	3219.227
C(C1CC1)C1CC2OC12	C(C1CC1)[C@H]1C[C@H]2O[C@@H]12	
InChI=1S/C8H12O/c1-2-5(1)3-6-4-7-8(6)9-7/h5-8H,1-4H2	InChI=1S/C8H12O/c1-2-5(1)3-6-4-7-8(6)9-7/h5-8H,1-4H2/t6-,7+,8-/m0/s1
