19
gdb 52896	1.82782	1.27637	0.85805	3.1427	87.51	-0.2372	-0.0147	0.2225	1426.0168	0.155891	-385.873586	-385.863186	-385.862242	-385.910698	36.167	
C	 0.0421630657	 1.5014512052	 0.0169418019	-0.504528
C	 0.0160479383	 0.0464218331	 0.0120539018	 0.151242
C	 0.0091443323	-1.1579212775	 0.0014822976	-0.041031
C	 0.0166383825	-2.5918996417	-0.0264769487	 0.026617
C	-0.4422663375	-3.3758914918	 1.2188492324	-0.320118
C	-1.3193104804	-3.3758098966	 0.0213233644	-0.027578
C	-2.6333757417	-2.6327907638	-0.0114428634	-0.410305
C	 1.0904295642	-3.2585770535	-0.8214072037	 0.120591
O	 1.9431737319	-2.7027748932	-1.4612410562	-0.256163
H	 1.0305559801	 1.8739216899	-0.2735373173	 0.156735
H	-0.6885261413	 1.9186015658	-0.6849275153	 0.148001
H	-0.1840638985	 1.9027098535	 1.0111043711	 0.146209
H	 0.1149282198	-4.2729129563	 1.4693504062	 0.125939
H	-0.7233077587	-2.7616690433	 2.0663179427	 0.13719
H	-1.3006601713	-4.2884759994	-0.5700181836	 0.100084
H	-2.5720225761	-1.699277536	 0.5524876108	 0.134066
H	-2.9201793254	-2.3856908346	-1.0383535502	 0.12941
H	-3.4278759727	-3.2484724074	 0.4235356888	 0.122433
H	 1.0333747588	-4.3728104024	-0.7732630193	 0.061207
16.1797	79.7557	98.468	114.1159	189.2637	209.8371	251.3369	269.1596	320.4043	373.7992	419.6583	453.0835	534.9905	568.7823	679.5649	739.3169	864.4078	907.3184	927.8291	993.2517	1029.3915	1051.3499	1053.8118	1054.7729	1075.5477	1096.9299	1135.1089	1199.9276	1240.054	1361.7382	1400.5562	1414.7663	1424.7841	1442.716	1476.4544	1478.2412	1479.4257	1491.616	1500.0089	1828.3648	2371.3113	2841.11	3026.8672	3039.4682	3086.1366	3090.8116	3101.8383	3122.8641	3133.5476	3140.9703	3227.2961
CC#CC1(CC1C)C=O	CC#C[C@]1(C[C@H]1C)C=O	
InChI=1S/C8H10O/c1-3-4-8(6-9)5-7(8)2/h6-7H,5H2,1-2H3	InChI=1S/C8H10O/c1-3-4-8(6-9)5-7(8)2/h6-7H,5H2,1-2H3/t7-,8+/m1/s1
