19
gdb 83097	2.44356	1.70924	1.27714	2.7894	80.22	-0.224	-0.0188	0.2052	1048.3715	0.160069	-385.915101	-385.907132	-385.906188	-385.947769	30.837	
C	-0.6869677478	 1.3170621218	 0.2480575986	-0.411671
C	-0.0856410972	-0.0656982396	 0.007845872	-0.108978
C	 0.6519738874	-0.4180509682	-1.3373360233	-0.048979
C	 0.9742229078	 0.727889995	-2.3199773471	-0.273959
C	 2.3455570718	 1.1947758599	-1.8904177786	-0.057206
C	 2.8917959371	 0.414990846	-0.9560134562	-0.075529
C	 1.977739598	-0.7105188558	-0.5433073944	-0.196381
C	 1.2152015179	-0.3973295874	 0.7642319665	 0.400526
O	 1.5161729361	-0.3972540398	 1.9223989712	-0.304508
H	 0.0275927693	 2.1137701511	 0.0225943016	 0.127664
H	-1.5828154347	 1.4760076885	-0.3606296015	 0.118928
H	-0.9709508027	 1.4156522404	 1.3000032957	 0.135795
H	-0.8357433073	-0.8300818704	 0.2477333367	 0.103014
H	 0.207430558	-1.2796425591	-1.8355315344	 0.075097
H	 0.9857389708	 0.3781674592	-3.3608394076	 0.107842
H	 0.2300418221	 1.53246681	-2.2825333414	 0.10984
H	 2.824410515	 2.0666734357	-2.3234374477	 0.097507
H	 3.8654134137	 0.559356831	-0.5022422908	 0.107334
H	 2.438419205	-1.7023444084	-0.5894748092	 0.093663
62.9455	158.1433	202.9319	212.488	260.718	357.2012	449.8417	491.3739	602.3238	611.3874	713.249	749.1538	778.6665	806.2939	852.4339	861.9442	938.6063	964.2223	970.8434	993.6318	1000.94	1038.3651	1068.8021	1107.1683	1122.7768	1138.5568	1151.4331	1192.6399	1216.5506	1242.3551	1250.1516	1306.3794	1318.2818	1334.501	1371.0683	1403.9855	1481.8404	1494.5582	1503.1849	1672.1907	1882.7772	3018.2092	3028.6928	3038.7021	3051.9949	3061.2878	3106.0643	3108.0665	3116.4728	3184.1532	3211.5788
CC1C2CC=CC2C1=O	C[C@H]1[C@H]2CC=C[C@H]2C1=O	
InChI=1S/C8H10O/c1-5-6-3-2-4-7(6)8(5)9/h2,4-7H,3H2,1H3	InChI=1S/C8H10O/c1-5-6-3-2-4-7(6)8(5)9/h2,4-7H,3H2,1H3/t5-,6+,7+/m0/s1
