15
gdb 23701	5.54231	1.42993	1.14475	1.6026	70.83	-0.2327	-0.0069	0.2258	986.4204	0.119338	-370.705172	-370.698123	-370.697179	-370.737726	26.218	
C	-0.0097047243	 1.5219893256	 0.0103008843	-0.494519
C	-0.0085793875	 0.0129912716	 0.0022148476	 0.309966
C	-0.0037796215	-0.7002386442	-1.2001738939	-0.171628
C	 0.0252573585	-2.0917608055	-1.2189585004	-0.237587
C	 0.0474814715	-2.7769889097	-0.0132514504	 0.292768
F	 0.0727865725	-4.1152866675	-0.0206807715	-0.084952
C	 0.0395470378	-2.104898592	 1.1999696666	-0.237611
C	 0.0103827717	-0.7132218911	 1.1966204234	-0.17173
H	 1.0108561591	 1.9248877294	 0.0024749906	 0.134079
H	-0.5223636059	 1.9276359408	-0.8669982667	 0.125975
H	-0.5051556387	 1.9181234837	 0.9016926656	 0.125901
H	-0.0253372364	-0.1594227451	-2.1413898651	 0.096518
H	 0.0261397075	-2.6469326009	-2.1495571893	 0.108148
H	 0.0514081627	-2.67012012	 2.1244222628	 0.108145
H	-0.0000217368	-0.1826484351	 2.1438316763	 0.096528
18.943	147.9395	306.0865	343.7302	422.5745	426.4331	457.8345	521.4492	649.2747	715.2957	740.4936	836.99	840.2629	855.6984	943.7264	948.6362	1005.5629	1027.673	1063.5788	1121.5184	1180.659	1231.0467	1284.0761	1311.1797	1333.9932	1415.6705	1435.4864	1488.5708	1496.0166	1548.6981	1631.5656	1653.9259	3026.4666	3083.7322	3111.2727	3172.9427	3173.6481	3204.8766	3205.6147
CC1=CC=C(F)C=C1	Cc1ccc(F)cc1	
InChI=1S/C7H7F/c1-6-2-4-7(8)5-3-6/h2-5H,1H3	InChI=1S/C7H7F/c1-6-2-4-7(8)5-3-6/h2-5H,1H3
