18
gdb 105814	2.61292	1.46123	1.25375	1.424	71.52	-0.22	0.0418	0.2618	1073.1153	0.145605	-438.966858	-438.958268	-438.957323	-439.000225	32.39	
C	-0.1876027676	 1.5466164404	 0.0903702626	-0.303695
N	 0.1502691872	 0.1213644612	 0.1630033738	-0.115867
C	 1.3471049967	-0.5367228689	-0.2735899084	-0.17231
C	 2.6829260754	 0.1652792139	 0.1967012107	-0.003215
O	 2.3573790848	 1.3769617006	 0.8835474857	-0.23369
C	 2.2421733921	 0.1354976449	 1.5856543489	-0.045949
C	 0.8966633249	-0.5862362905	 1.1664383441	 0.274262
C	 0.2604093192	-1.6739725347	 1.9778838145	-0.173012
O	-0.4233131021	-1.1606120452	 3.1141762998	-0.41518
H	 0.4451657576	 2.0748420022	-0.6253237006	 0.130942
H	-1.231782324	 1.6361501212	-0.2330425223	 0.106113
H	-0.0769472042	 2.0371076514	 1.0601565106	 0.128462
H	 1.3070162811	-1.298109967	-1.0463353852	 0.098984
H	 3.6666448916	 0.0738024298	-0.2467486796	 0.112916
H	 2.7883981532	 0.0149363697	 2.5128804137	 0.115727
H	-0.406189285	-2.2588266676	 1.3282791583	 0.100381
H	 1.0257007105	-2.3504733119	 2.3748706977	 0.108453
H	-1.1241156114	-0.5870623495	 2.7857065656	 0.286678
63.3744	129.2799	154.36	237.3218	268.0652	279.4336	346.6126	403.4238	423.7171	524.3139	644.5603	697.4062	747.5904	779.9059	834.0931	856.6821	870.5074	882.3743	965.9214	971.582	1005.7682	1033.2655	1049.6397	1083.0697	1143.4453	1166.9557	1169.307	1217.0628	1224.428	1244.9889	1269.9645	1360.1071	1374.6339	1413.49	1438.5566	1463.7787	1489.5577	1491.821	1508.1046	3004.8391	3021.9993	3069.3712	3093.7311	3131.6871	3158.4578	3190.2186	3205.9034	3808.4306
CN1C2C3OC3C12CO	CN1[C@H]2[C@H]3O[C@H]3[C@@]12CO	
InChI=1S/C6H9NO2/c1-7-4-3-5(9-3)6(4,7)2-8/h3-5,8H,2H2,1H3	InChI=1S/C6H9NO2/c1-7-4-3-5(9-3)6(4,7)2-8/h3-5,8H,2H2,1H3/t3-,4+,5-,6+,7?/m1/s1
