18
gdb 13604	4.41246	1.21599	1.11637	4.5398	71.17	-0.2391	0.0253	0.2644	1140.3905	0.15345	-381.127914	-381.118846	-381.117902	-381.162128	31.947	
C	-0.3366475744	 1.6058422777	-0.1353481694	-0.332364
N	-0.2666622061	 0.1594765709	-0.183240935	-0.325808
C	 0.8452588073	-0.5083331566	-0.6193966848	 0.454621
O	 1.8498596403	 0.0610496568	-1.0067881486	-0.375466
C	 0.7081641162	-2.0079908725	-0.545747706	-0.159704
N	 1.4996159747	-2.7967320171	-1.504440329	-0.310266
C	 1.8266505867	-2.8987033359	-0.0834607887	 0.010712
C	 3.1764987405	-2.3906841388	 0.3585068431	-0.403407
H	-0.5006190455	 1.9657993463	 0.8868431039	 0.123275
H	 0.618808367	 1.9859458119	-0.4986757366	 0.173596
H	-1.1400422196	 1.9893479768	-0.7744256508	 0.124509
H	-1.0658368505	-0.3724794332	 0.1172485183	 0.242706
H	-0.2966929334	-2.3634849267	-0.3187101464	 0.069409
H	 0.9581396648	-3.5982705896	-1.8163301855	 0.233043
H	 1.4848193793	-3.7953242625	 0.4352479979	 0.082259
H	 3.4301098626	-1.4775395561	-0.179600334	 0.170787
H	 3.175687835	-2.1834317962	 1.434199364	 0.108195
H	 3.942648205	-3.1482744652	 0.1614874275	 0.113905
48.4875	88.6115	130.3251	180.3519	197.8776	250.7315	312.335	366.1513	415.3693	428.7555	476.4029	690.5557	749.7486	801.6875	850.443	887.4733	938.3958	996.6194	1021.9395	1071.5861	1084.5101	1149.2676	1154.3316	1166.2417	1193.9224	1224.9755	1247.8007	1266.8036	1396.679	1431.6965	1440.9533	1463.6445	1493.3097	1497.9805	1500.6611	1501.3137	1559.0434	1779.6137	3025.2101	3036.7824	3075.9775	3090.2924	3094.8986	3103.1237	3154.1244	3162.1317	3505.714	3651.8687
CNC(=O)C1NC1C	CNC(=O)[C@H]1N[C@H]1C	
InChI=1S/C5H10N2O/c1-3-4(7-3)5(8)6-2/h3-4,7H,1-2H3,(H,6,8)	InChI=1S/C5H10N2O/c1-3-4(7-3)5(8)6-2/h3-4,7H,1-2H3,(H,6,8)/t3-,4-/m0/s1
