20
gdb 55465	3.22878	1.16549	0.9187	3.3029	75.52	-0.2392	0.0384	0.2776	1285.2985	0.172691	-440.338072	-440.329312	-440.328368	-440.372027	33.368	
N	 0.7708781623	-0.1175935653	 0.6336504663	-0.517907
C	-0.1459072528	 0.3093801054	-0.2676754766	 0.360796
O	-0.0030491651	 1.2773780968	-0.9917881711	-0.379354
C	-1.4286606985	-0.5266054354	-0.3268038685	 0.039135
C	-1.7189822658	-0.9954748545	-1.7577530425	-0.189212
C	-2.9919545703	-1.8510206096	-1.7806297487	-0.219975
C	-2.8944394271	-2.9743885834	-0.7377819763	-0.194314
C	-2.5274384622	-2.3956186671	 0.6292060477	-0.071096
O	-1.3320366834	-1.6267862927	 0.5704668549	-0.275695
H	 1.6372478048	 0.3853817358	 0.7236649851	 0.259051
H	 0.5815474871	-0.9317976	 1.1925291047	 0.272792
H	-2.2469031328	 0.1384006758	 0.0008839814	 0.092431
H	-1.7999824329	-0.1180894856	-2.4035953803	 0.125348
H	-0.8638512322	-1.5856612603	-2.1102430365	 0.101813
H	-3.8601530939	-1.2174801881	-1.5523275133	 0.098231
H	-3.1592281963	-2.2646490403	-2.7803500577	 0.099735
H	-3.8385527855	-3.5252807517	-0.6592529036	 0.096744
H	-2.1211174215	-3.6928253162	-1.0362868345	 0.104594
H	-3.3515670768	-1.7658575775	 1.0057623199	 0.090277
H	-2.3439385272	-3.184018156	 1.3647212695	 0.106606
36.5276	118.5819	200.4062	239.8847	260.2057	306.6008	342.8742	419.0049	455.5426	495.9129	524.2518	579.6188	627.0886	723.6833	819.4807	852.9979	854.0381	912.6551	935.2626	945.7582	1033.128	1058.166	1077.1696	1101.4543	1113.949	1139.5165	1197.1367	1228.4794	1279.5542	1286.0723	1318.3941	1347.0181	1365.976	1375.7123	1379.3439	1395.7141	1414.4907	1473.0629	1483.2106	1490.3088	1502.5434	1592.8794	1798.2089	2955.9963	2964.8553	3016.2036	3030.1004	3036.3666	3071.7604	3078.2246	3086.7066	3111.2788	3603.3378	3745.9247
NC(=O)C1CCCCO1	NC(=O)[C@H]1CCCCO1	
InChI=1S/C6H11NO2/c7-6(8)5-3-1-2-4-9-5/h5H,1-4H2,(H2,7,8)	InChI=1S/C6H11NO2/c7-6(8)5-3-1-2-4-9-5/h5H,1-4H2,(H2,7,8)/t5-/m1/s1
