18
gdb 9253	6.40193	0.78821	0.7318	2.9261	73.23	-0.2517	0.0465	0.2982	1541.8735	0.151329	-384.914392	-384.904434	-384.90349	-384.950433	34.248	
C	-0.0847567275	 1.410660142	-0.1565865901	-0.49922
C	-0.0188964095	-0.0433314393	-0.0953625046	 0.117577
C	 0.0725032009	-1.2437563726	-0.035622284	-0.005936
C	 0.0979760616	-2.7019003097	 0.0215601727	-0.362764
C	-1.3270287664	-3.281506264	 0.1301672541	 0.108151
O	-2.1431483555	-2.8446387511	-0.9485685904	-0.447996
C	-1.3460037813	-4.8051707855	 0.0603735943	-0.047129
O	-2.6637775447	-5.3038471082	 0.1396847331	-0.429501
H	 0.8138247735	 1.8637695871	 0.2762281662	 0.152921
H	-0.1687725354	 1.7643037826	-1.1900032348	 0.149946
H	-0.9478028335	 1.7955543031	 0.3976096568	 0.149384
H	 0.5751796422	-3.1028591217	-0.8819399269	 0.132359
H	 0.6943714221	-3.0410246667	 0.8782531055	 0.127843
H	-1.7665488584	-2.9674928447	 1.0895333276	 0.080904
H	-2.1203618462	-1.8803136758	-0.9562691581	 0.289231
H	-0.8481930534	-5.1214824806	-0.8718394716	 0.087347
H	-0.7874315611	-5.2273773057	 0.902455337	 0.10419
H	-3.1760217072	-4.7834693392	-0.4911905769	 0.292692
31.3948	61.1999	76.8454	137.468	214.2648	222.7656	280.5769	338.6749	381.4407	388.6961	429.3686	455.5715	472.5098	584.495	765.9227	860.8915	901.6414	1020.6105	1051.1981	1054.4999	1074.3052	1086.0463	1117.4625	1165.4373	1196.2555	1242.2059	1278.6109	1306.1392	1372.0399	1381.493	1415.7324	1430.8528	1451.103	1463.5884	1478.3802	1479.2185	1499.0285	2365.7196	2963.8722	2989.7151	3019.4183	3028.6201	3057.387	3076.2153	3089.4512	3090.4991	3786.6768	3790.1152
CC#CCC(O)CO	CC#CC[C@@H](O)CO	
InChI=1S/C6H10O2/c1-2-3-4-6(8)5-7/h6-8H,4-5H2,1H3	InChI=1S/C6H10O2/c1-2-3-4-6(8)5-7/h6-8H,4-5H2,1H3/t6-/m1/s1
