18
gdb 78954	2.49711	2.10606	1.5645	1.1207	73.35	-0.2261	0.0643	0.2904	911.934	0.147734	-401.857834	-401.850433	-401.849489	-401.889212	29.839	
C	-0.0078840637	 1.6314174184	-0.0334870182	-0.433662
C	 0.03079022	 0.1131695198	 0.0098200183	-0.036196
C	 1.065649658	-0.6786129454	-0.8109769727	-0.018487
C	 1.0877884379	-1.8294807913	 0.2383589917	-0.12744
C	 2.589767186	-1.5323654998	 0.4774560718	-0.054803
C	 2.196864232	-0.2770246121	 1.1557570125	-0.136592
N	 2.4593231544	-0.2726083789	-0.3200064553	-0.15254
C	 0.6889000233	-0.645776141	 1.19935014	 0.36856
O	 0.0666868006	-0.890934267	 2.4136276542	-0.48055
H	 0.9953981872	 2.0511978432	 0.0880397807	 0.133475
H	-0.4055921164	 1.9920743084	-0.9879194127	 0.120506
H	-0.6475968668	 2.0342294447	 0.7604182425	 0.109644
H	-0.9601603375	-0.3260157961	-0.1621645084	 0.080907
H	 1.0144261792	-0.7993603193	-1.8912589492	 0.075688
H	 0.5535683895	-2.773687439	 0.1894662696	 0.080492
H	 3.4940940937	-2.1275930848	 0.503317151	 0.097595
H	 2.7627128191	 0.4042014926	 1.7808868507	 0.089825
H	 0.1191752634	-0.0938701423	 2.9531814635	 0.283576
180.4604	191.8147	206.0951	222.0604	321.8034	349.8903	549.7963	583.3583	602.2681	700.306	768.0197	790.679	794.8074	838.4315	869.2891	895.2567	917.5579	922.5177	943.442	974.8567	1011.1224	1045.2478	1064.1458	1085.4647	1114.5118	1124.9289	1150.8434	1192.624	1205.8509	1220.474	1239.6413	1259.1081	1297.9017	1317.3593	1374.0924	1396.0172	1409.1767	1494.9613	1500.4272	3028.7362	3038.1195	3090.2162	3109.0061	3133.0024	3162.878	3173.7806	3192.6127	3792.8716
CC1C2C3C4C(N24)C13O	C[C@H]1[C@@H]2[C@H]3[C@@H]4[C@@H](N24)[C@@]13O	
InChI=1S/C7H9NO/c1-2-4-3-5-6(8(4)5)7(2,3)9/h2-6,9H,1H3	InChI=1S/C7H9NO/c1-2-4-3-5-6(8(4)5)7(2,3)9/h2-6,9H,1H3/t2-,3-,4+,5+,6+,7+,8?/m0/s1
