22
gdb 114264	4.10395	1.0836	1.02422	2.0104	88.24	-0.2049	0.0537	0.2587	1283.1746	0.194837	-367.056018	-367.047745	-367.046801	-367.088798	33.112	
C	 0.0045523325	 1.6785980844	-0.0209091777	-0.382623
C	-0.001949569	 0.1457591652	-0.0907528784	-0.200837
C	 0.6578368757	-0.4857175937	 1.1344612121	-0.0114
C	-0.1805065229	-0.5481234376	 2.5047033932	-0.36368
C	-0.1820866078	-2.0849305685	 2.3061138113	 0.255593
C	 0.2353840416	-3.5710245024	 2.5675733028	-0.250558
N	 0.3214801878	-3.4558090885	 1.0083896429	-0.18212
C	-1.0017157163	-2.7017497226	 1.1454463833	-0.18581
C	 0.9670022914	-2.0415741976	 1.3491560853	-0.006754
H	 1.0270426556	 2.0684633513	 0.0308593904	 0.115739
H	-0.4760461506	 2.1154980213	-0.9016695354	 0.114233
H	-0.5322131136	 2.0383715512	 0.8636639973	 0.119301
H	-1.0355986554	-0.1948126265	-0.2049843838	 0.102642
H	 0.5338542113	-0.1828851386	-0.9897748375	 0.107602
H	 1.6101762124	 0.0332201834	 1.2892696284	 0.08332
H	 0.4082178814	-0.1965749004	 3.3557896053	 0.108008
H	-1.1553768011	-0.050534285	 2.5147083637	 0.101869
H	 1.2003058121	-3.7437924551	 3.0506885963	 0.105448
H	-0.5147487019	-4.3035542058	 2.8829318478	 0.101349
H	-1.8468061251	-3.3434353958	 1.414327623	 0.091432
H	-1.2436318886	-2.0982810714	 0.2724295451	 0.105484
H	 1.9866768306	-2.1844583871	 1.7157775646	 0.071762
75.5548	155.3869	158.8934	247.1009	292.2562	348.5738	389.8002	434.1783	574.7971	595.3588	667.9423	743.9711	763.1644	792.1673	823.2264	859.8291	879.3053	882.7292	915.0941	965.2229	983.7876	996.4343	1007.6397	1060.2303	1068.7175	1080.8354	1109.4694	1152.945	1175.5481	1179.8746	1189.8896	1193.7457	1215.9579	1230.6226	1260.207	1281.2878	1297.0956	1326.8917	1357.5183	1390.2197	1410.8697	1471.6091	1485.6449	1498.9494	1505.0133	1506.879	1546.492	3030.0195	3032.9562	3035.6916	3041.2751	3048.6873	3054.6899	3069.3233	3073.5378	3101.0703	3104.3648	3110.8268	3119.3115	3153.0147
CCC1CC23CN(C2)C13	CC[C@H]1C[C@@]23CN(C2)[C@@H]13	
InChI=1S/C8H13N/c1-2-6-3-8-4-9(5-8)7(6)8/h6-7H,2-5H2,1H3	InChI=1S/C8H13N/c1-2-6-3-8-4-9(5-8)7(6)8/h6-7H,2-5H2,1H3/t6-,7-/m0/s1
