17
gdb 38284	3.94817	1.42626	1.25126	1.7774	72.9	-0.2213	0.0046	0.2259	1012.7085	0.13824	-421.759306	-421.752561	-421.751617	-421.790747	26.393	
C	-0.051946291	 1.5887473979	-0.0936114391	-0.211271
C	 1.480789944	 1.2985730936	-0.0011968085	-0.089433
O	 1.1387304245	 0.1931008456	 0.9119832636	-0.281119
C	-0.0131930676	 0.0297608203	 0.0067969519	-0.089434
C	 0.6987882627	-0.3307446726	-1.3039175326	 0.266343
C	 1.7131064112	 0.5307006123	-1.3093462792	 0.266342
C	 2.5646774046	 0.3335608934	-2.5168298632	-0.207033
O	 1.8972866248	-0.7261453749	-3.2264331107	-0.27711
C	 0.7479421411	-1.2093652405	-2.5071063291	-0.207033
H	-0.4445757988	 2.0567639339	 0.8123737108	 0.110862
H	-0.447485854	 2.0487615094	-1.0015943442	 0.100881
H	 2.2138261553	 2.0004268353	 0.3915330001	 0.088305
H	-0.82201487	-0.5778571208	 0.4077772828	 0.088305
H	 2.6287248808	 1.2191461059	-3.1671131915	 0.108465
H	 3.5951648168	 0.0268829638	-2.2793577179	 0.112232
H	 0.8852038266	-2.2746457425	-2.2648558262	 0.112232
H	-0.1403552211	-1.1325896101	-3.152292367	 0.108465
105.6987	130.6013	222.9282	360.7127	460.3615	534.4617	598.791	667.6196	673.1263	821.8728	831.4477	844.3115	867.4199	888.1759	930.4989	962.0495	1003.0005	1016.0539	1046.2719	1070.9749	1072.7606	1102.7786	1153.1004	1156.6942	1200.6422	1215.8247	1216.7004	1240.4684	1256.4257	1295.7437	1296.0962	1378.3012	1395.4674	1484.9312	1516.8149	1525.8043	1694.8669	2975.3825	2980.9857	2994.8977	2997.7682	3062.5115	3135.0621	3145.7115	3148.3846
C1C2OC1C1=C2COC1	C1[C@H]2O[C@@H]1C1=C2COC1	
InChI=1S/C7H8O2/c1-6-4-2-8-3-5(4)7(1)9-6/h6-7H,1-3H2	InChI=1S/C7H8O2/c1-6-4-2-8-3-5(4)7(1)9-6/h6-7H,1-3H2/t6-,7+
