18
gdb 55028	3.29502	1.09208	0.89822	2.3389	74.05	-0.2487	0.0046	0.2533	1305.3068	0.145399	-439.059892	-439.050608	-439.049663	-439.095215	32.563	
C	-0.0594020774	 1.3384733226	-0.1107078187	-0.47554
C	-0.0708947321	-0.1778814374	-0.0653326058	 0.37585
O	 0.8563423684	-0.8693577307	-0.4246753866	-0.34068
N	-1.2182521085	-0.7192836274	 0.5127636165	-0.085239
C	-2.5928786343	-0.5544428224	 0.0916871552	-0.269484
C	-1.9188261019	-1.9030186512	 0.0763352074	-0.029546
C	-1.5736899625	-2.5502961983	-1.2265478093	 0.094246
C	-0.9829347347	-3.8888689718	-1.2786699008	-0.173578
O	-2.3708989533	-3.6866137857	-1.5668732339	-0.240808
H	 0.9469823356	 1.6799066354	-0.351784653	 0.149171
H	-0.750921114	 1.6999479284	-0.8799224482	 0.138474
H	-0.3837965889	 1.7601760951	 0.8444134728	 0.145122
H	-3.3130168558	-0.3120256841	 0.8688123478	 0.130044
H	-2.7802100097	-0.0848516325	-0.8724118989	 0.128654
H	-2.1696128384	-2.6093417634	 0.8657865449	 0.109938
H	-1.3732480156	-1.8668285082	-2.0518373045	 0.099161
H	-0.3613288016	-4.166791898	-2.1274440165	 0.12471
H	-0.7707212951	-4.4172335406	-0.3506180584	 0.119504
57.4867	63.76	89.2139	115.8331	189.5302	251.2374	301.7416	349.5789	430.3199	503.8305	593.6767	644.4472	692.4941	808.3861	865.4149	927.3469	942.4286	948.4129	1013.5889	1036.6644	1050.1275	1084.363	1096.5872	1124.7536	1149.666	1153.0143	1166.56	1202.0835	1203.3503	1289.924	1322.2252	1378.6305	1404.1771	1467.5763	1473.2745	1479.7759	1513.706	1533.0367	1789.5348	3046.0085	3091.1786	3095.9997	3109.6574	3111.741	3130.1973	3163.2494	3180.9241	3185.8733
CC(=O)N1CC1C1CO1	CC(=O)N1C[C@H]1[C@H]1CO1	
InChI=1S/C6H9NO2/c1-4(8)7-2-5(7)6-3-9-6/h5-6H,2-3H2,1H3	InChI=1S/C6H9NO2/c1-4(8)7-2-5(7)6-3-9-6/h5-6H,2-3H2,1H3/t5-,6+,7?/m0/s1
