21
gdb 107152	4.22618	1.03793	0.97145	0.9057	84.21	-0.2401	0.096	0.3361	1312.9167	0.181503	-387.032588	-387.023757	-387.022813	-387.066073	34.127	
C	-0.3004327298	 1.3154822588	-0.0852931552	-0.256294
O	 0.1645590598	-0.0120955276	 0.0906937893	-0.279265
C	 0.7919855502	-0.5230565697	-1.0242830223	 0.459215
C	 0.0236270571	-1.0538057861	-2.204561746	-0.342043
C	 0.9171805777	-1.9869595538	-1.4064660575	-0.234508
C	 2.3634982223	-1.7486449705	-1.7973118534	 0.407543
C	 3.5160899553	-2.6647931238	-1.5295106043	-0.338428
C	 3.1111912759	-2.343561939	-2.9549524869	-0.322755
C	 2.2672218397	-0.26196926	-1.3823151765	-0.394346
H	 0.5257357102	 2.0136686555	-0.2815841984	 0.111383
H	-1.0183035318	 1.3825320654	-0.9147182249	 0.110753
H	-0.7952494649	 1.6065242575	 0.8439862632	 0.12593
H	-1.0376918098	-1.1811815569	-2.0145363254	 0.112306
H	 0.2798591165	-0.7867056808	-3.2273813659	 0.10344
H	 0.5287847571	-2.8637767038	-0.9022489074	 0.093236
H	 4.4375452895	-2.2347661287	-1.1491905676	 0.110276
H	 3.3012406394	-3.6595043564	-1.151476887	 0.112146
H	 2.6259637645	-3.1212933958	-3.5360846395	 0.111429
H	 3.763155521	-1.6959194384	-3.5326269719	 0.10922
H	 2.4675729475	 0.4909936485	-2.1522096389	 0.091109
H	 2.8640129326	-0.042681504	-0.4924521534	 0.109654
76.8987	99.4486	168.4686	213.3421	259.7788	285.0358	374.0416	390.5619	417.662	470.2158	566.4073	676.2684	766.0111	773.0019	855.5914	862.33	902.8084	921.8544	938.7897	951.344	993.7353	999.0888	1025.8792	1049.8858	1066.6717	1075.2955	1090.6402	1100.821	1151.8361	1180.0365	1186.2839	1196.6559	1203.8824	1230.2114	1247.3023	1285.6465	1370.6856	1396.0939	1463.5712	1469.8765	1479.4024	1486.9496	1498.6228	1506.0985	1511.3814	2990.9307	3036.3551	3044.3472	3097.1034	3103.643	3119.8722	3120.2975	3124.8961	3184.221	3197.9573	3201.4028	3213.2955
COC12CC1C1(CC1)C2	CO[C@]12C[C@H]1C1(CC1)C2	
InChI=1S/C8H12O/c1-9-8-4-6(8)7(5-8)2-3-7/h6H,2-5H2,1H3	InChI=1S/C8H12O/c1-9-8-4-6(8)7(5-8)2-3-7/h6H,2-5H2,1H3/t6-,8-/m0/s1
