13
gdb 20531	4.96597	1.78764	1.32515	3.1199	62.18	-0.2826	-0.0596	0.2231	862.1148	0.096429	-394.809409	-394.802555	-394.801611	-394.840957	24.132	
C	-0.0212412253	 1.4768175164	-0.076380095	-0.484075
C	-0.025101789	-0.0254085895	 0.0436813613	 0.445005
O	-0.0445194895	-0.6486139999	 1.0651962328	-0.268423
N	-0.0021708517	-0.7162516481	-1.2183023612	 0.039976
N	 0.0204137635	-0.0641983409	-2.3936477227	-0.212339
C	 0.0361746549	-1.0369222169	-3.2886538666	-0.053957
C	 0.0223776631	-2.2771583596	-2.6094920689	-0.042626
N	-0.0016803986	-2.0535962788	-1.3068978707	-0.181845
H	 0.8664810571	 1.8188253181	-0.6141310489	 0.16382
H	-0.887555864	 1.8207163842	-0.6468366938	 0.163804
H	-0.0395537554	 1.8922906679	 0.9304449196	 0.150394
H	 0.0560656755	-0.8228065015	-4.3457799414	 0.139916
H	 0.0287438592	-3.2823718313	-3.0011803544	 0.140351
84.5805	134.3784	167.3037	233.2007	397.0168	521.3166	578.8377	646.9125	675.2283	688.309	870.028	914.7835	947.811	972.8328	988.5603	1058.5351	1075.9909	1149.7983	1198.3109	1286.1328	1300.4999	1368.666	1399.0711	1434.1285	1459.6101	1469.1868	1539.1515	1860.5194	3065.2566	3132.8257	3172.5317	3260.1242	3276.0704
CC(=O)N1N=CC=N1	CC(=O)n1nccn1	
InChI=1S/C4H5N3O/c1-4(8)7-5-2-3-6-7/h2-3H,1H3	InChI=1S/C4H5N3O/c1-4(8)7-5-2-3-6-7/h2-3H,1H3
