23
gdb 64482	2.48887	1.4106	1.17095	1.5394	82.06	-0.2424	0.0789	0.3213	1196.0149	0.20574	-425.430504	-425.421277	-425.420333	-425.463778	36.386	
C	 0.1859135215	 1.5068487837	 0.0729183533	-0.4034
C	 0.0192444818	-0.0134073435	 0.0012125728	 0.347929
C	-1.4626278952	-0.415919761	 0.0077241144	-0.411612
C	 0.6776701149	-0.5538613477	-1.2888556746	-0.116565
O	 2.0845421749	-0.4395395556	-1.3118065299	-0.242716
C	 2.7623516974	-1.5869054462	-0.8278621046	-0.076551
C	 2.6551315756	-1.7810961877	 0.684749453	-0.194435
C	 1.2158504765	-1.7876525598	 1.2130724853	-0.084567
O	 0.6445166977	-0.4941064114	 1.200139416	-0.289105
H	 1.2407780789	 1.7680599354	-0.040687817	 0.130417
H	-0.388075596	 2.0026822324	-0.7162361256	 0.104
H	-0.1631686582	 1.8731212207	 1.041925336	 0.118263
H	-1.9759094985	-0.0659712532	-0.8943604191	 0.111499
H	-1.5740369309	-1.504309448	 0.0574740234	 0.111346
H	-1.9630304564	 0.0167850191	 0.8781829683	 0.12271
H	 0.3780524165	-1.5982969144	-1.4648864177	 0.083644
H	 0.2929500611	 0.0354809954	-2.1296595141	 0.104617
H	 2.3803287045	-2.4838603511	-1.345102952	 0.085144
H	 3.8095875721	-1.4606666705	-1.1204418749	 0.105935
H	 3.1450959574	-2.7285383751	 0.9474547607	 0.089659
H	 3.1934508343	-0.9779172051	 1.2000221555	 0.113646
H	 0.5979480339	-2.519325339	 0.6696871372	 0.085528
H	 1.2175882062	-2.0964085274	 2.2642277733	 0.104616
86.7223	169.6358	217.8508	252.9772	276.1012	287.1401	301.4465	339.0429	370.8841	407.5912	451.5754	480.2377	533.5071	584.1879	734.4478	812.3327	871.6979	891.7482	906.6277	931.2711	945.0053	979.4279	988.7937	1038.7258	1041.7707	1114.5214	1139.6493	1171.411	1200.8142	1215.4913	1241.5343	1267.0757	1300.2765	1311.3072	1344.5119	1384.5595	1388.7935	1394.934	1403.217	1418.8344	1425.8912	1460.5655	1477.421	1484.6386	1490.3678	1494.2775	1496.6609	1506.0264	1513.179	2957.855	2978.1428	2991.9186	3021.6373	3032.6739	3043.811	3055.2254	3061.921	3072.4705	3082.7105	3098.7441	3115.0558	3119.3648	3131.1973
CC1(C)COCCCO1	CC1(C)COCCCO1	
InChI=1S/C7H14O2/c1-7(2)6-8-4-3-5-9-7/h3-6H2,1-2H3	InChI=1S/C7H14O2/c1-7(2)6-8-4-3-5-9-7/h3-6H2,1-2H3
