16
gdb 35492	3.28049	1.55602	1.46428	5.2516	70.56	-0.2474	0.021	0.2684	929.5406	0.127702	-396.880146	-396.873496	-396.872552	-396.911229	26.554	
N	-0.1031322632	-1.1781603731	-0.3287274696	-0.334379
C	-0.0738263671	-0.0386140542	-0.1404557205	 0.334303
C	-0.0331336341	 1.420250294	 0.0581756418	-0.201888
N	-0.6496140369	 1.8211278457	 1.3472476266	-0.278142
C	 0.4739642923	 2.2869982394	 2.1652042426	-0.057934
C	 1.4901764872	 1.1346782807	 2.3350223959	-0.156486
N	 2.3273659772	 1.636152349	 1.1874053556	-0.141948
C	 1.5335560164	 2.9195781387	 1.2133895173	-0.065687
C	 1.3990740384	 1.9903640567	 0.0804908184	-0.024253
H	-0.5775263954	 1.866172737	-0.7817139711	 0.130464
H	-1.2960584206	 2.584946888	 1.1767720165	 0.229985
H	 0.1339864484	 2.8218583903	 3.0505545713	 0.087067
H	 2.0848596224	 1.2202711049	 3.2465351164	 0.120433
H	 1.1120959187	 0.1137763284	 2.2342096096	 0.135897
H	 1.9834412542	 3.9051696286	 1.2043131567	 0.104253
H	 1.9056435022	 2.1503824061	-0.8637750272	 0.118316
112.7723	158.4746	302.2122	393.1048	437.1632	508.7878	586.3718	648.1711	688.4332	761.4433	774.0854	835.8468	843.7127	857.0137	895.4395	918.1544	967.4219	985.2294	1025.8106	1048.2064	1051.2779	1088.2475	1120.9496	1177.7958	1191.9282	1219.0202	1255.1961	1270.1786	1302.0412	1306.8809	1351.3837	1385.003	1450.8004	1506.0424	2359.789	3049.7155	3066.9256	3124.6918	3132.9305	3182.1089	3194.7614	3518.9949
N#CC1NC2CN3C2C13	N#C[C@H]1N[C@H]2CN3[C@H]2[C@H]13	
InChI=1S/C6H7N3/c7-1-3-5-6-4(8-3)2-9(5)6/h3-6,8H,2H2	InChI=1S/C6H7N3/c7-1-3-5-6-4(8-3)2-9(5)6/h3-6,8H,2H2/t3-,4+,5+,6-,9?/m1/s1
