20
gdb 88118	2.64624	1.42828	1.09935	2.9496	80.72	-0.2479	0.0298	0.2777	1172.3416	0.172224	-403.16783	-403.159292	-403.158348	-403.200994	32.627	
C	 0.0009698677	 1.4688405929	-0.2911344447	-0.414137
C	 0.1020380524	-0.0241870476	-0.0763530506	-0.040499
C	 1.4334488451	-0.7141429393	-0.0058520166	-0.330177
C	 0.5733039032	-0.5883785625	 1.2427878596	 0.241979
C	 0.9716385529	 0.230446991	 2.4609966858	-0.327213
C	 1.0609352255	-0.8559431346	 3.5435188764	-0.091323
O	 0.1583549893	-1.8974120066	 3.1306022753	-0.245915
C	-0.0646558886	-1.824112415	 1.7841218527	 0.371855
N	-0.7155069018	-2.675705071	 1.1135629258	-0.561833
H	 0.8286018697	 2.0045692931	 0.1849525843	 0.112339
H	 0.0258618853	 1.7070153388	-1.3598591007	 0.123647
H	-0.9342682251	 1.8688908895	 0.115642777	 0.121727
H	-0.691452533	-0.6138674883	-0.5273319158	 0.117971
H	 1.5243095779	-1.7032427118	-0.4399204246	 0.133238
H	 2.3302658754	-0.1025017676	-0.0462243361	 0.107403
H	 1.9138476514	 0.7700938804	 2.3452436565	 0.11165
H	 0.1938076283	 0.9591508415	 2.7157187038	 0.116182
H	 2.0722530409	-1.2752003388	 3.6139729943	 0.113269
H	 0.7504866438	-0.5206916451	 4.535450409	 0.119532
H	-1.0275462803	-3.4446594591	 1.7070148987	 0.220305
83.84	154.9817	177.344	188.0418	201.3705	297.0424	353.0043	418.3954	505.0242	546.5104	672.6197	687.309	704.6838	803.7975	868.0874	871.0694	896.2778	919.2677	942.0216	964.4255	1002.7624	1030.6953	1039.6164	1074.6402	1097.9497	1126.142	1136.5608	1191.32	1201.3123	1224.0502	1248.4036	1302.6286	1313.5968	1345.0777	1400.9687	1415.4095	1433.076	1480.6265	1490.1501	1496.9464	1505.5585	1523.2941	1768.1435	3028.958	3029.9513	3043.1522	3092.6935	3097.9427	3102.0764	3111.2134	3123.5706	3155.4269	3220.9513	3487.4143
CC1CC11CCOC1=N	C[C@H]1C[C@]21CCO[C]2[NH]	
InChI=1S/C7H11NO/c1-5-4-7(5)2-3-9-6(7)8/h5,8H,2-4H2,1H3	InChI=1S/C7H11NO/c1-5-4-7(5)2-3-9-6(7)8/h5,8H,2-4H2,1H3/t5-,7-/m0/s1
