18
gdb 24169	4.73988	0.94048	0.89253	4.2748	77.51	-0.2244	0.0283	0.2527	1331.4583	0.150591	-398.129082	-398.121186	-398.120242	-398.162979	29.135	
C	-0.0962540848	 1.5430121317	 0.2494265183	-0.225994
C	-0.1452938847	 0.033248306	 0.3548252615	 0.035944
C	-1.3175605979	-0.6964709169	-0.1887992362	-0.243025
N	-0.0020709594	-0.804758928	-0.8401257859	-0.299288
N	 1.2499159605	 2.0665827457	 0.0740525628	 0.033173
C	 2.2386118356	 2.1487332784	 1.0321679923	-0.128453
C	 3.3386251227	 2.6489044332	 0.3863088741	-0.086016
N	 3.0591489294	 2.8768695486	-0.9404281166	-0.272575
C	 1.8061234858	 2.514770914	-1.0902720095	 0.006738
H	-0.692837111	 1.8760664715	-0.6066440059	 0.117805
H	-0.5347374033	 1.9956005199	 1.146320136	 0.130738
H	 0.3612553162	-0.3721424851	 1.2284290392	 0.105027
H	-1.6682224848	-1.6035606459	 0.2942691837	 0.12777
H	-2.098106705	-0.1139801363	-0.6732599709	 0.113392
H	 0.0305416971	-0.226922262	-1.6773858966	 0.230908
H	 2.0620118608	 1.8548730289	 2.0539348475	 0.124312
H	 4.3116061219	 2.8630219939	 0.8018753362	 0.109
H	 1.235921441	 2.5648655923	-2.0070711698	 0.120544
41.8483	63.5301	110.1207	253.9542	324.4098	369.0994	451.1964	637.139	678.3893	725.688	740.4086	794.338	811.0777	833.2251	857.0421	915.9736	931.1077	937.0203	984.6709	1047.4248	1057.7403	1098.4226	1127.9808	1142.9935	1148.1886	1168.9953	1242.0973	1260.4464	1268.6014	1302.4853	1312.7344	1365.3833	1390.0753	1407.6207	1436.0751	1473.8417	1514.437	1531.3048	1543.9477	3036.7703	3083.2456	3106.9039	3131.3171	3193.3716	3237.2984	3247.0576	3274.7655	3490.0539
C(C1CN1)N1C=CN=C1	C([C@H]1CN1)n1ccnc1	
InChI=1S/C6H9N3/c1-2-9(5-7-1)4-6-3-8-6/h1-2,5-6,8H,3-4H2	InChI=1S/C6H9N3/c1-2-9(5-7-1)4-6-3-8-6/h1-2,5-6,8H,3-4H2/t6-/m1/s1
