21
gdb 108308	2.731	1.34025	1.08381	2.5478	78.12	-0.2414	0.0668	0.3082	1202.1648	0.182114	-424.197781	-424.188771	-424.187827	-424.231711	34.338	
C	 0.3143024834	 1.4966494529	-0.2349556717	-0.411502
C	 0.0833066469	 0.0242793811	 0.0299871381	 0.15618
O	 0.8745140665	-0.8378406598	-0.8398206156	-0.365949
C	 1.2930486592	-1.6629232279	 0.2844555791	 0.450973
C	 0.9190419829	-3.1036406575	 0.0336746734	-0.150383
O	 1.5067125669	-3.5568611041	-1.1733712385	-0.420263
C	 2.7040567873	-1.2635372129	 0.7739711155	-0.268601
C	 2.050549856	-0.2522634322	 1.7696592629	-0.232938
C	 0.6335617963	-0.6757777054	 1.2920007859	-0.18035
H	 1.3680111175	 1.7669844027	-0.1284910035	 0.124675
H	 0.0049317107	 1.7444809437	-1.2553424996	 0.128458
H	-0.2773909469	 2.1062386261	 0.4567185718	 0.118129
H	-0.9842116664	-0.2060705558	-0.1021558634	 0.075648
H	 1.2926007426	-3.7491541866	 0.8357900189	 0.103462
H	-0.1792874219	-3.1979161745	 0.0081300621	 0.082785
H	 1.2664405205	-2.9014945752	-1.8405308322	 0.293857
H	 3.2483540283	-2.0751296516	 1.2641231112	 0.103511
H	 3.3324771892	-0.8364273852	-0.009442146	 0.110518
H	 2.2291263325	-0.504436146	 2.8171389953	 0.105627
H	 2.3093656275	 0.7995277986	 1.6307980546	 0.10353
H	-0.0915225991	-0.9653253103	 2.0525886417	 0.072632
64.3096	90.0767	152.4231	202.267	257.2427	309.7783	318.6477	385.7202	427.7614	466.6047	533.347	629.7223	699.2889	733.1448	786.6952	867.081	899.45	916.0337	938.4285	944.9733	970.4861	1035.521	1042.7384	1080.1797	1086.4867	1115.4042	1135.1091	1160.8795	1167.2487	1215.6442	1232.0067	1247.124	1270.0501	1309.9304	1317.3062	1335.1724	1372.3838	1391.2828	1409.8578	1435.7693	1462.652	1479.603	1484.0537	1499.5643	1504.7181	2967.1359	2986.2951	3037.9541	3062.8051	3070.3671	3072.6664	3105.3471	3105.9222	3113.5564	3121.5496	3131.3519	3779.5736
CC1OC2(CO)CCC12	C[C@H]1O[C@@]2(CO)CC[C@@H]12	
InChI=1S/C7H12O2/c1-5-6-2-3-7(6,4-8)9-5/h5-6,8H,2-4H2,1H3	InChI=1S/C7H12O2/c1-5-6-2-3-7(6,4-8)9-5/h5-6,8H,2-4H2,1H3/t5-,6+,7-/m1/s1
