19
gdb 81392	4.08227	1.1269	1.07362	5.1436	79.53	-0.2428	0.0305	0.2733	1182.3631	0.161782	-382.058438	-382.050592	-382.049648	-382.090649	30.835	
C	-0.1812920154	 1.5392891928	 0.0245858586	-0.439432
C	 0.0179888473	 0.0289027503	 0.0216327885	 0.036041
C	 1.1338052447	-0.5943727691	-0.8805500363	-0.010437
C	 2.147768825	-0.2316055027	 0.2302584165	-0.2303
C	 0.931876924	-0.5839874053	 1.1391046266	-0.03805
C	 0.7691302469	-2.0905267909	 0.8162805121	-0.166954
N	 0.9971429031	-2.0565645895	-0.6670451059	-0.295861
C	 1.7377187372	-2.9550697976	 1.5024119574	 0.310797
N	 2.4883455109	-3.6257022072	 2.0701224629	-0.332871
H	 0.7502792832	 2.0976345289	 0.1465408011	 0.124396
H	-0.6404905564	 1.8650306588	-0.915031488	 0.122434
H	-0.8523172055	 1.8369795277	 0.8375038125	 0.122893
H	-0.9586604917	-0.4608376474	-0.0870410536	 0.059204
H	 1.2762764244	-0.3316730327	-1.9287474967	 0.074871
H	 3.0429503884	-0.8510566562	 0.3069527468	 0.126594
H	 2.4099742466	 0.8237249362	 0.2596463573	 0.111172
H	 0.8653866733	-0.2965192661	 2.187720943	 0.085453
H	-0.2344459541	-2.4459995988	 1.0753989107	 0.116075
H	 0.1722389879	-2.4102845714	-1.1419904636	 0.223975
115.8358	141.2853	190.8877	267.9892	293.5558	351.0073	458.2817	469.8287	545.9425	576.2193	673.668	793.2341	818.6452	823.6144	853.1794	886.7626	891.6656	971.1344	982.6035	1019.7536	1027.1219	1045.2036	1064.7528	1094.3352	1104.4511	1126.702	1140.5127	1210.53	1220.7848	1252.3883	1259.3954	1272.4582	1306.0612	1354.5159	1391.2393	1411.712	1422.1736	1492.6555	1497.4614	1512.763	2357.7851	3013.5673	3036.3186	3042.9028	3092.1858	3093.9091	3116.4419	3120.6018	3128.6768	3165.9664	3513.3756
CC1C2CC1C(N2)C#N	C[C@H]1[C@H]2C[C@@H]1[C@@H](N2)C#N	
InChI=1S/C7H10N2/c1-4-5-2-6(4)9-7(5)3-8/h4-7,9H,2H2,1H3	InChI=1S/C7H10N2/c1-4-5-2-6(4)9-7(5)3-8/h4-7,9H,2H2,1H3/t4-,5+,6-,7+/m1/s1
