16
gdb 77639	2.19556	1.45707	1.30093	3.4721	72.69	-0.2244	-0.0018	0.2226	1060.35	0.12511	-434.019587	-434.011205	-434.010261	-434.052315	31.975	
N	 1.4112782926	-0.1314317796	-0.9774195863	-0.593466
C	 0.1924387226	-0.0293491053	-0.2953253333	 0.220265
C	 0.0949143041	 0.081034058	 1.2239391799	-0.20811
N	-1.2775148753	-0.5297641373	 1.2379737042	-0.390442
C	-1.1707446715	-0.8815603174	-0.1962769828	 0.11223
C	-1.5873818494	-2.1174012497	-0.7433455239	 0.157716
N	-1.8867072615	-3.1433301928	-1.1951692628	-0.352822
C	-1.0882031632	 0.4438540188	-0.91670742	 0.077008
O	-1.8192629226	 1.5309843215	-0.469420768	-0.430768
H	 1.930691455	-0.9764015634	-0.7688013387	 0.248006
H	 1.3274731077	-0.0222431966	-1.9797699354	 0.249624
H	 0.8375190336	-0.5481102154	 1.7243862909	 0.117221
H	 0.1374062156	 1.0938490342	 1.6372162448	 0.126163
H	-1.3226061976	-1.3544490428	 1.8256908265	 0.244058
H	-1.1003110716	 0.3631169024	-2.0017376741	 0.119712
H	-2.1561851584	 1.2800756352	 0.4055129189	 0.303606
100.5131	146.8444	208.1363	245.98	283.1155	292.1603	365.368	434.0208	505.7809	534.6169	553.1299	588.6587	634.5725	677.8411	730.9482	771.7247	817.0295	844.4869	991.5338	1011.4201	1058.975	1064.6778	1100.3982	1163.7418	1196.8494	1233.6077	1288.3678	1296.8336	1342.5571	1387.4984	1411.1631	1478.8215	1510.4799	1657.0078	2319.8333	3045.0323	3096.233	3146.5885	3523.6986	3546.9689	3616.2365	3693.7075
NC12CNC1(C#N)C2O	N[C@]12CN[C@@]1(C#N)[C@H]2O	
InChI=1S/C5H7N3O/c6-1-5-3(9)4(5,7)2-8-5/h3,8-9H,2,7H2	InChI=1S/C5H7N3O/c6-1-5-3(9)4(5,7)2-8-5/h3,8-9H,2,7H2/t3-,4-,5-/m0/s1
