13
gdb 24707	4.01106	1.68491	1.19572	2.9045	66.25	-0.2372	-0.0311	0.2061	932.8003	0.092911	-452.794425	-452.788239	-452.787295	-452.825466	23.112	
C	 0.0295856927	 1.3840201041	-0.1297864839	 0.007582
O	 1.3498622787	 1.8627627201	 0.1731122007	-0.273965
C	 2.0266346511	 0.7879420553	 0.6648958287	 0.238453
C	 3.3110109005	 0.6371766117	 1.1166712524	-0.101504
N	 3.708717225	-0.5822482783	 1.5555167275	-0.252834
C	 2.8317178471	-1.569259129	 1.5249166458	 0.056634
N	 1.543980735	-1.5212556432	 1.0982180621	-0.33786
C	 1.1977113004	-0.3354062389	 0.684482555	 0.382077
O	-0.0282646132	-0.0073234841	 0.2063013539	-0.253524
H	-0.7044111119	 1.9331282199	 0.4698119212	 0.139107
H	-0.1668650022	 1.5073510028	-1.2002951004	 0.139104
H	 4.0314434274	 1.4479388617	 1.1418422596	 0.131163
H	 3.1690818393	-2.538324542	 1.8804534473	 0.125566
78.0674	210.9665	300.449	425.8534	450.6151	563.6817	620.5932	655.7308	735.2546	806.6544	829.2386	884.7911	929.9093	955.0027	978.0695	1061.9571	1124.3213	1138.8773	1189.4376	1200.362	1264.6365	1307.5357	1364.3441	1436.1115	1444.6037	1494.6344	1548.9432	1633.0564	1661.0289	3033.7781	3085.7359	3181.4533	3187.7318
C1OC2=CN=CN=C2O1	C1Oc2cncnc2O1	
InChI=1S/C5H4N2O2/c1-4-5(7-2-6-1)9-3-8-4/h1-2H,3H2	InChI=1S/C5H4N2O2/c1-4-5(7-2-6-1)9-3-8-4/h1-2H,3H2
