23
gdb 73798	2.2759	1.45233	1.11877	1.7133	89.2	-0.2188	0.0304	0.2493	1244.917	0.202739	-388.322374	-388.311754	-388.310809	-388.357571	39.243	
C	 0.0819199894	 1.5232834422	-0.121079244	-0.497659
C	-0.0039127045	 0.0313928037	-0.0737795975	 0.179881
C	-1.0641041075	-0.7620776497	 0.095576579	 0.182196
C	-2.4974990026	-0.3773170237	 0.2903153885	-0.509245
C	-0.6280589737	-2.2200720238	 0.0671878317	 0.299333
C	-0.8909612923	-2.9438684656	 1.3970782571	-0.408363
C	-1.2431469908	-2.9997129566	-1.1057448994	-0.408318
O	 0.7966937347	-2.1605226956	-0.1341129523	-0.307858
C	 1.2315074255	-0.8145316143	-0.2299981635	-0.16713
H	 0.7469124235	 1.9055750346	 0.664143151	 0.127894
H	 0.5011818474	 1.8644506465	-1.0764649958	 0.127869
H	-0.89266915	 2.0005469031	 0.005209051	 0.125569
H	-2.6328885865	 0.7068109869	 0.2846958772	 0.123612
H	-3.1353348706	-0.7956429791	-0.497957744	 0.129637
H	-2.8880825353	-0.7557404442	 1.2429070123	 0.129657
H	-1.9633290687	-3.0584914533	 1.5855081532	 0.1078
H	-0.4412439933	-3.9409196001	 1.3716067085	 0.12062
H	-0.4485360443	-2.3879560003	 2.2284608108	 0.113827
H	-1.0495395878	-2.4840181791	-2.0504972446	 0.113808
H	-0.7988222817	-3.9979762621	-1.1610346894	 0.120575
H	-2.3253816671	-3.1146001554	-0.9865797974	 0.107806
H	 1.7297432069	-0.6430270141	-1.1994888926	 0.09417
H	 1.9810145294	-0.60021361	 0.5508282203	 0.094318
57.1549	123.9469	151.4622	155.4059	200.5045	221.8812	245.0397	273.7695	286.0781	331.1259	344.412	418.9652	451.7996	561.9341	595.4642	627.6947	689.3876	852.6322	874.3021	917.5093	951.7423	974.1232	976.3448	1002.3837	1064.9288	1089.3768	1093.9062	1120.7422	1152.7318	1180.9117	1184.3843	1210.7866	1262.7953	1320.0795	1382.7832	1388.0653	1407.3324	1410.0043	1420.6375	1471.3986	1478.0372	1479.5246	1486.3616	1486.8646	1490.9278	1497.946	1502.9031	1526.4025	1756.5833	2952.4413	2963.43	3017.2245	3023.635	3033.3153	3039.3069	3059.9471	3068.7689	3105.1171	3111.17	3114.2829	3115.4941	3117.9281	3118.4061
CC1=C(C)C(C)(C)OC1	CC1=C(C)C(C)(C)OC1	
InChI=1S/C8H14O/c1-6-5-9-8(3,4)7(6)2/h5H2,1-4H3	InChI=1S/C8H14O/c1-6-5-9-8(3,4)7(6)2/h5H2,1-4H3
