20
gdb 70319	3.00067	1.57704	1.30433	1.6505	78.1	-0.2176	0.0904	0.308	1048.6159	0.172251	-403.119283	-403.111452	-403.110508	-403.15108	31.492	
C	 0.365915979	 1.3183659156	-0.3786549896	-0.462657
C	-0.1789398356	-0.0107644563	 0.0908278139	 0.3767
C	-1.690646328	-0.1611148492	-0.0126877048	-0.220651
N	-2.3246506071	-1.323535779	 0.6033839533	-0.105929
C	-1.8831028998	-2.6700591139	 0.2303892436	-0.250808
C	-1.5878926129	-2.1197449812	 1.5858045062	-0.01343
C	-0.1739774084	-1.7588809514	 2.0137608526	-0.268218
C	 0.5486660673	-0.8163794158	 1.0804553946	-0.004681
O	 0.5945394374	-1.1594323526	-0.314004917	-0.292101
H	 1.4572724476	 1.3242177226	-0.3236388353	 0.128899
H	 0.0756612457	 1.5096252188	-1.4178867014	 0.126716
H	-0.0213018187	 2.139560648	 0.2337564831	 0.123115
H	-2.1365113518	 0.733327472	 0.4439470036	 0.107292
H	-1.9780810083	-0.1432773047	-1.0717659961	 0.113239
H	-2.6870842105	-3.3920705815	 0.1040064992	 0.103343
H	-1.0490231109	-2.7687659518	-0.4550283203	 0.138583
H	-2.2102967005	-2.4606033733	 2.4121154349	 0.087155
H	-0.2104051497	-1.2726136082	 2.997916192	 0.109514
H	 0.4198237291	-2.6723879819	 2.1487231815	 0.118348
H	 1.4933224762	-0.4275905562	 1.4647765361	 0.085573
150.2442	177.1337	218.3643	292.8466	315.6335	361.9629	387.7072	422.6612	475.103	571.6532	674.3077	720.2384	738.9822	809.2049	832.6938	875.8223	926.6342	941.6598	967.7574	994.7975	1035.4674	1068.3685	1083.8998	1106.6009	1127.0208	1139.0235	1149.6409	1184.5613	1236.2657	1258.7935	1299.0925	1323.9158	1339.1046	1365.9606	1384.3288	1410.4621	1421.004	1468.8602	1474.0276	1477.6207	1489.3162	1503.8435	1516.7579	3009.6593	3015.7255	3033.9112	3046.4788	3048.2513	3092.0026	3096.994	3102.2038	3108.5237	3122.5724	3213.9226
CC12CN3CC3CC1O2	C[C@]12CN3C[C@H]3C[C@H]1O2	
InChI=1S/C7H11NO/c1-7-4-8-3-5(8)2-6(7)9-7/h5-6H,2-4H2,1H3	InChI=1S/C7H11NO/c1-7-4-8-3-5(8)2-6(7)9-7/h5-6H,2-4H2,1H3/t5-,6-,7+,8?/m1/s1
