15
gdb 126135	4.61782	1.06703	0.87601	3.529	67.73	-0.2986	-0.0773	0.2213	1263.1319	0.112204	-450.135351	-450.127141	-450.126197	-450.169205	28.467	
C	-0.0659017308	 1.5202294088	-0.0851430095	-0.387816
C	 0.0282842568	 0.001567874	 0.0434711728	-0.305675
C	 0.7699319439	-0.4200038338	 1.2856878323	 0.456055
O	 1.252605651	 0.3040853254	 2.1129766319	-0.292832
N	 0.8944579041	-1.8391779834	 1.4687871547	-0.061367
C	 1.5021176537	-2.510227214	 2.4800350861	 0.092569
N	 1.3904234077	-3.7940321861	 2.267737092	-0.223128
N	 0.6925137445	-3.9144343359	 1.0893968954	-0.078017
N	 0.3931268562	-2.7667770813	 0.6061169447	-0.115966
H	 0.9269486076	 1.9742210471	-0.1302945587	 0.139334
H	-0.6089380253	 1.7842877219	-0.9957207346	 0.125856
H	-0.5896310204	 1.9563168119	 0.768930465	 0.139319
H	-0.9608086682	-0.4710068921	 0.066301781	 0.158748
H	 0.5310119382	-0.4533230645	-0.818226307	 0.158738
H	 1.9874339212	-2.0210287982	 3.3071342341	 0.194182
58.7302	81.6231	159.6534	160.2847	200.4441	284.6458	373.642	502.4431	550.6845	665.8897	721.8347	727.2144	806.4908	905.036	948.5606	960.9289	1004.7571	1047.0883	1094.356	1103.0188	1104.4416	1185.8572	1215.137	1278.244	1357.3911	1372.9764	1416.367	1418.6982	1442.7595	1492.9075	1498.8871	1512.2712	1841.9196	3050.4326	3057.4091	3077.5349	3132.3556	3132.727	3306.2782
CCC(=O)N1C=NN=N1	CCC(=O)n1cnnn1	
InChI=1S/C4H6N4O/c1-2-4(9)8-3-5-6-7-8/h3H,2H2,1H3	InChI=1S/C4H6N4O/c1-2-4(9)8-3-5-6-7-8/h3H,2H2,1H3
