18
gdb 94228	3.22296	1.0858	0.9858	2.0794	71.97	-0.2655	0.0199	0.2854	1233.6494	0.146489	-439.089984	-439.080863	-439.079918	-439.123925	34.166	
O	 0.3908075008	 0.9126064829	-0.6839576556	-0.432647
C	 0.1418032027	-0.1919958448	 0.1272376946	 0.133079
C	 0.0484110836	-0.0531740029	 1.6743222727	-0.26672
C	-1.1197511195	-1.0794692642	 1.647129995	-0.274692
C	-1.307245993	-0.767761893	 0.1368670366	 0.355266
O	-2.161488395	 0.3421645336	-0.0798672777	-0.491059
C	-1.6377357942	-1.9050756531	-0.8435315933	-0.401536
C	-3.0226601091	-2.3442230039	-0.6872678815	 0.244028
N	-4.1292441346	-2.6332643348	-0.5175252791	-0.308239
H	-0.3919832699	 1.4755782383	-0.6249637899	 0.295556
H	 0.8639654417	-0.9674702119	-0.1486595169	 0.088645
H	 0.9369358401	-0.3024674633	 2.2563644743	 0.106399
H	-0.2989303981	 0.9441034873	 1.9528890027	 0.114762
H	-0.7823955334	-2.1057653021	 1.8159968811	 0.108429
H	-1.9828945936	-0.882329968	 2.2859676772	 0.112649
H	-3.0614581628	 0.0987346073	 0.167066664	 0.300505
H	-1.4901150875	-1.5447915621	-1.8677077976	 0.166076
H	-0.9663238783	-2.7555642652	-0.6867857866	 0.149498
63.3764	109.5837	140.761	227.7149	259.2855	319.4661	348.5016	388.369	399.7476	430.4676	450.4275	485.3195	603.7498	670.1641	744.6771	796.4356	891.603	914.9945	927.0444	946.224	974.2878	1007.2914	1092.6801	1127.5965	1152.9427	1159.3172	1199.2871	1235.7865	1245.8938	1280.8119	1289.894	1307.6263	1335.1814	1380.564	1444.1068	1454.3164	1473.1007	1490.9681	2354.6556	3049.362	3059.5346	3066.7921	3077.1256	3096.1598	3119.1544	3138.4153	3775.2305	3795.3589
OC1CCC1(O)CC#N	O[C@H]1CC[C@]1(O)CC#N	
InChI=1S/C6H9NO2/c7-4-3-6(9)2-1-5(6)8/h5,8-9H,1-3H2	InChI=1S/C6H9NO2/c7-4-3-6(9)2-1-5(6)8/h5,8-9H,1-3H2/t5-,6-/m0/s1
