18
gdb 97640	3.16977	0.69866	0.61431	1.4055	79.32	-0.2296	-0.0356	0.1939	1819.99	0.14439	-439.035598	-439.024756	-439.023812	-439.073858	36.252	
C	 0.1604741128	 1.3445576246	 0.4142561716	-0.322476
N	-0.0297068796	-0.0697483697	 0.0910084732	-0.264899
C	 0.4903462671	-0.4415907553	-1.2132055293	-0.253696
C	 2.0354650943	-0.5095553711	-1.2919298916	 0.158537
O	 2.7425046883	-0.4270355681	-0.3241285512	-0.240739
C	 0.007064152	-1.7475111427	-1.6677009585	-0.000836
C	-0.3213426427	-2.8406621474	-2.0547715295	 0.151226
C	-0.7274867501	-4.1825358236	-2.4724013616	-0.198216
O	 0.2766353554	-5.1670566033	-2.2777249385	-0.39907
H	 1.2054784655	 1.686143085	 0.3786861325	 0.116771
H	-0.4270038704	 1.9551537605	-0.280968898	 0.121384
H	-0.2253358347	 1.5294081663	 1.4203062946	 0.125472
H	 0.4356941032	-0.6403101339	 0.7903524732	 0.22894
H	 0.1709696016	 0.3194626486	-1.9421885051	 0.123285
H	 2.4443013279	-0.673861633	-2.3126690213	 0.096492
H	-1.6629150789	-4.4503309109	-1.9557120466	 0.124769
H	-0.947481164	-4.1901209732	-3.5456359084	 0.143644
H	 0.5486681522	-5.1258600027	-1.3548565854	 0.289413
18.3954	53.8948	86.8323	100.9707	136.4999	182.314	229.7122	263.3406	277.0327	330.9683	365.6416	395.1726	504.4846	584.5285	670.3941	761.7884	789.373	861.9447	982.0465	996.9808	1024.3826	1051.0779	1118.4286	1154.7746	1165.4754	1212.583	1216.9584	1253.3912	1331.3331	1360.2021	1400.1249	1417.262	1456.1788	1487.6666	1488.0451	1496.1786	1522.8717	1833.0477	2352.3773	2898.0918	2980.1932	2992.0425	2997.6398	3064.7974	3065.2649	3110.1455	3521.4402	3815.7771
CNC(C=O)C#CCO	CN[C@@H](C=O)C#CCO	
InChI=1S/C6H9NO2/c1-7-6(5-9)3-2-4-8/h5-8H,4H2,1H3	InChI=1S/C6H9NO2/c1-7-6(5-9)3-2-4-8/h5-8H,4H2,1H3/t6-/m1/s1
