18
gdb 22928	2.40901	1.30912	1.11158	1.3561	76.8	-0.2292	0.0117	0.2409	1177.5642	0.145287	-439.008322	-438.999079	-438.998135	-439.042043	34.609	
C	-0.0340106781	 1.5390899586	 0.0391047699	-0.42206
C	 0.1107770777	 0.0338071025	 0.1196891641	-0.071895
C	 1.3703117431	-0.750755142	-0.1534563826	-0.133403
C	 2.616474596	-0.0128450753	 0.3742756	-0.332257
C	 1.9719641188	-0.048025624	 1.756469827	 0.368155
N	 2.3336850669	 0.206156384	 2.9430886157	-0.273671
O	 3.6144160169	 0.7959413246	 2.9635494356	-0.394752
C	 0.7468011942	-0.7459567158	 1.2595020362	 0.283035
O	 0.1012528504	-1.7800858403	 1.9030204106	-0.445968
H	 0.8318548245	 2.0610752791	 0.4537055251	 0.131782
H	-0.1571822095	 1.8643118096	-0.9998398365	 0.120275
H	-0.9150078002	 1.8732038033	 0.5976691966	 0.118933
H	-0.7639911659	-0.5120057607	-0.2314139628	 0.096776
H	 1.393627312	-1.5714514974	-0.8584814974	 0.103248
H	 3.5243007772	-0.6226279191	 0.3548796705	 0.133345
H	 2.8421618796	 0.9675543294	-0.0531561553	 0.118914
H	 3.7735937017	 0.896807172	 3.9079448922	 0.305533
H	-0.5546931454	-1.4046614084	 2.5007323911	 0.294009
80.9178	160.158	170.5324	201.4946	234.4901	256.0363	265.4927	333.8855	367.1277	462.6532	507.9304	528.925	580.7804	651.3187	738.7314	773.3998	830.992	900.0776	946.3129	956.6864	984.9642	1025.4885	1050.4895	1078.096	1115.8631	1130.3826	1150.5566	1215.2238	1230.0352	1291.7714	1305.2627	1347.8758	1408.6914	1415.4364	1454.3961	1484.1083	1494.3386	1502.6291	1782.4159	3034.057	3060.3023	3091.5458	3106.3047	3113.6511	3130.7085	3202.0863	3798.9669	3819.8181
CC1C2CC(=NO)C12O	C[C@H]1[C@H]2CC(=NO)[C@@]12O	
InChI=1S/C6H9NO2/c1-3-4-2-5(7-9)6(3,4)8/h3-4,8-9H,2H2,1H3	InChI=1S/C6H9NO2/c1-3-4-2-5(7-9)6(3,4)8/h3-4,8-9H,2H2,1H3/t3-,4+,6+/m0/s1
