19
gdb 42397	5.12091	0.75113	0.73501	3.5181	77.49	-0.2473	-0.014	0.2333	1597.0366	0.157714	-423.009279	-423.000157	-422.999213	-423.044843	32.672	
O	-0.0421456185	-0.1128959686	-0.105670439	-0.331324
C	-0.0162543883	 1.1004566579	-0.110869397	 0.390882
C	 1.2897675379	 1.8769766985	-0.2658639417	-0.355049
C	 2.5188823143	 1.0157061605	-0.1230921295	 0.110076
C	 3.8286729664	 1.5955725035	 0.1938347455	-0.18846
O	 3.0696710074	 0.9138876893	 1.1927320353	-0.231565
C	-1.2577423346	 1.9168354258	 0.0051814278	-0.106462
C	-2.5386888673	 1.329927112	-0.5713680814	-0.247492
C	-2.3620532089	 1.3749256881	 0.9054485149	-0.24551
H	 1.2649039872	 2.3503792638	-1.259201619	 0.131488
H	 1.3205134326	 2.6961399521	 0.4618803018	 0.1293
H	 2.4816028477	 0.0706570742	-0.661323029	 0.112617
H	 4.7376207358	 1.0919735136	-0.1325622634	 0.115544
H	 3.9228851747	 2.6726871877	 0.3316647342	 0.107892
H	-1.1346105697	 2.9932495274	-0.0380245948	 0.087364
H	-3.2292393461	 2.021020333	-1.0406599738	 0.118679
H	-2.4304746119	 0.3671978092	-1.0573292789	 0.139768
H	-2.1345069932	 0.4438083357	 1.4112884752	 0.142296
H	-2.9250760355	 2.0990096765	 1.4827171228	 0.119954
37.6514	51.8414	86.7178	135.2916	255.7627	261.8812	302.7438	368.3156	430.9949	580.3795	661.8967	783.6757	797.8518	828.7584	831.6097	855.0441	873.8403	917.5933	961.1266	975.2664	1046.0619	1073.4922	1093.8024	1100.5522	1110.7699	1128.187	1133.4724	1157.8446	1165.5374	1211.184	1221.8549	1233.011	1296.4402	1318.5924	1406.6479	1425.413	1453.7256	1455.2316	1486.2186	1532.0105	1787.9651	3009.1763	3070.1163	3078.3124	3137.8818	3142.1497	3144.0796	3164.0535	3171.5788	3230.2508	3244.6866
O=C(CC1CO1)C1CC1	O=C(C[C@H]1CO1)C1CC1	
InChI=1S/C7H10O2/c8-7(5-1-2-5)3-6-4-9-6/h5-6H,1-4H2	InChI=1S/C7H10O2/c8-7(5-1-2-5)3-6-4-9-6/h5-6H,1-4H2/t6-/m0/s1
