15
gdb 125654	3.38057	1.66067	1.12136	2.1408	73.77	-0.2154	-0.002	0.2134	1023.766	0.115432	-416.832686	-416.825536	-416.824592	-416.864265	27.304	
C	-0.0155101006	 1.4972178576	-0.0260688723	-0.502333
C	-0.0064029339	 0.0058263527	 0.0485410401	 0.203088
N	-0.0354852843	-0.7441593602	-1.0577593311	-0.283055
N	-0.0178083889	-2.0487939696	-0.6619693398	-0.362425
C	 0.022640155	-2.1577192941	 0.6895716027	 0.334852
C	 0.0304565114	-0.8600683775	 1.1597602742	 0.231915
O	 0.0705324615	-0.8384283639	 2.5220575148	-0.213091
C	 0.0876438209	-2.1577291215	 2.8931434804	-0.000888
C	 0.0603790037	-3.0177675434	 1.8329631946	-0.346117
H	 0.8793762743	 1.9262143903	 0.4378531077	 0.132097
H	-0.0498203521	 1.8112042756	-1.0710457006	 0.143527
H	-0.8832468316	 1.9181887791	 0.4934188109	 0.132072
H	-0.0353048269	-2.7640658887	-1.3660379519	 0.271377
H	 0.1198153955	-2.3322639739	 3.9566829201	 0.138679
H	 0.067075946	-4.0940831123	 1.8900790998	 0.120302
109.8395	177.4118	244.7457	268.3768	339.1343	424.7337	522.7861	593.5776	617.6732	668.2892	684.4477	735.2084	758.6534	810.8952	827.8344	912.4029	997.9007	1050.1548	1066.1564	1110.525	1133.5909	1172.0091	1213.9522	1327.549	1361.2313	1414.0164	1419.7735	1482.1604	1484.6714	1505.3182	1545.6572	1588.3501	1602.6957	3036.1177	3086.9391	3136.4871	3259.9833	3280.8993	3696.7941
CC1=NNC2=C1OC=C2	Cc1n[nH]c2c1occ2	
InChI=1S/C6H6N2O/c1-4-6-5(8-7-4)2-3-9-6/h2-3H,1H3,(H,7,8)	InChI=1S/C6H6N2O/c1-4-6-5(8-7-4)2-3-9-6/h2-3H,1H3,(H,7,8)
