18
gdb 83033	2.78039	1.38085	1.16317	3.9155	80.11	-0.2331	-0.0619	0.1712	1112.4134	0.147491	-401.939343	-401.931215	-401.930271	-401.972084	30.701	
C	-0.2329072016	 1.5091923901	 0.0603333749	-0.319654
N	 0.0346996194	 0.0868432095	-0.0607974644	-0.084549
C	 0.6757528286	-0.4804530356	-1.2328491649	-0.044426
C	 1.4908236496	 0.4167169313	-2.171529841	-0.288974
C	 2.5974316848	 0.9461575704	-1.2956659333	-0.166857
C	 2.5561795437	 0.4154106336	-0.0600517603	 0.253534
C	 3.5273165222	 0.7015769357	 0.9992340843	 0.064657
O	 3.4830145016	 0.2291664477	 2.1133862184	-0.267697
C	 1.3749169475	-0.4877285162	 0.1048365327	-0.146529
H	 0.5607337546	 2.1742346452	-0.3107270215	 0.101367
H	-1.1528434999	 1.7344158212	-0.4886382238	 0.124127
H	-0.4019354173	 1.7424717388	 1.1158773598	 0.133207
H	 0.1927987197	-1.3596666047	-1.6496298661	 0.096317
H	 1.8978122637	-0.1648347984	-3.008665504	 0.128768
H	 0.8977725603	 1.2233494225	-2.6224107314	 0.126914
H	 3.3195027632	 1.685265696	-1.6297169754	 0.114369
H	 4.3432311561	 1.3976817143	 0.6998945577	 0.067131
H	 1.4428570738	-1.3411750813	 0.7705264583	 0.108297
86.4901	165.4163	188.9404	208.0442	234.6462	302.6189	381.1019	479.2055	488.1089	610.7965	689.8709	717.4104	765.1322	816.759	839.0724	883.4815	942.5441	960.2958	984.1819	1025.865	1040.1589	1081.2325	1107.8981	1155.9871	1168.4029	1188.5874	1199.3544	1269.5116	1302.2231	1318.028	1371.5806	1378.8771	1421.9728	1447.5662	1457.1032	1488.6109	1505.6706	1661.0137	1786.549	2875.3503	2990.5245	3024.8569	3051.4359	3071.1706	3106.5274	3145.3694	3174.0495	3181.5294
CN1C2CC=C(C=O)C12	CN1[C@H]2CC=C(C=O)[C@@H]12	
InChI=1S/C7H9NO/c1-8-6-3-2-5(4-9)7(6)8/h2,4,6-7H,3H2,1H3	InChI=1S/C7H9NO/c1-8-6-3-2-5(4-9)7(6)8/h2,4,6-7H,3H2,1H3/t6-,7+,8?/m0/s1
