16
gdb 60762	3.40274	0.81537	0.78791	2.4119	70.11	-0.2637	-0.048	0.2158	1487.5281	0.120979	-475.061457	-475.051593	-475.050648	-475.098526	32.773	
C	-0.3012071634	 1.5434378108	-0.0050415418	-0.407355
C	 0.1245158775	 0.0560717465	-0.0902315267	-0.189863
C	-1.1169078705	-0.8045032383	 0.1478153961	 0.161568
O	-1.3951077669	-1.2745516474	 1.2172301846	-0.240348
C	 0.6887935817	-0.2279267858	-1.4634274192	 0.452301
O	 0.0444910178	-0.2424482852	-2.4787854184	-0.348508
O	 2.0352404237	-0.4641855978	-1.3987459593	-0.204625
C	 2.7035706008	-0.7284987022	-2.5751993102	 0.114767
N	 3.941989875	-0.9261199065	-2.5080127432	-0.410876
H	 0.5636626195	 2.19627129	-0.1492753502	 0.143257
H	-1.0432335329	 1.7758579407	-0.7735598713	 0.148197
H	-0.7309699684	 1.7458944067	 0.9787509426	 0.147005
H	 0.8615822238	-0.1696925153	 0.6815345055	 0.130986
H	-1.7659547946	-0.9281175154	-0.7444459415	 0.110771
H	 2.046216483	-0.7323417708	-3.4443729544	 0.148166
H	 4.3147756938	-1.1112263802	-3.4383254125	 0.244555
15.6999	70.1129	106.8132	118.9312	151.6338	228.1183	239.7933	270.2411	303.4331	406.2828	461.5111	549.2835	744.692	762.6191	855.3683	892.0181	926.8164	945.1111	1012.9199	1071.1532	1073.3183	1092.9751	1143.7487	1158.9206	1256.5975	1290.9639	1347.1074	1387.6196	1400.8881	1411.0886	1494.6024	1500.3855	1749.0217	1819.0678	1844.4992	2921.0806	3048.9646	3112.3986	3128.9608	3136.9235	3143.7961	3508.0053
CC(C=O)C(=O)OC=N	C[C@@H](C=O)C(=O)O[CH][NH]	
InChI=1S/C5H7NO3/c1-4(2-7)5(8)9-3-6/h2-4,6H,1H3	InChI=1S/C5H7NO3/c1-4(2-7)5(8)9-3-6/h2-4,6H,1H3/t4-/m0/s1
