23
gdb 73678	2.21785	1.77716	1.3796	1.3051	83.94	-0.2417	0.0798	0.3215	1084.4959	0.20857	-388.327477	-388.319329	-388.318385	-388.359772	33.281	
C	 0.0042002418	 1.5070735664	-0.0416068603	-0.449576
C	-0.0161137397	-0.0199245989	 0.0223651529	 0.425667
C	-1.4355128307	-0.618183632	 0.066647736	-0.245836
C	-1.2872665522	-1.9139570263	 0.8779178136	-0.212352
C	-0.2988802461	-1.51038258	 1.9857031043	-0.224326
C	 0.7390303532	-0.6246052845	 1.262470401	-0.043399
C	 1.9171252951	-1.4067621689	 0.6350281195	-0.230495
C	 1.9963277599	-0.8339218745	-0.782078518	-0.090011
O	 0.6512107388	-0.5588568625	-1.1340577009	-0.294605
H	 1.0294436146	 1.8853005499	-0.1082397817	 0.112299
H	-0.5444520833	 1.8598685731	-0.9204821837	 0.11956
H	-0.457949935	 1.9426101639	 0.8507564044	 0.108568
H	-2.1094875356	 0.0734715603	 0.5865956642	 0.088985
H	-1.8227036842	-0.7666453841	-0.9443901016	 0.10538
H	-2.2358024516	-2.2964308521	 1.2648788274	 0.090866
H	-0.8509532113	-2.6959315698	 0.2460810306	 0.105516
H	-0.8253516322	-0.9249216226	 2.7493817957	 0.092874
H	 0.1604873629	-2.3636317323	 2.4945651262	 0.092801
H	 1.1162177361	 0.1661465274	 1.9164133655	 0.063307
H	 2.8493095746	-1.295803562	 1.1955229252	 0.096205
H	 1.6811150864	-2.4752877375	 0.5884230694	 0.102252
H	 2.610036021	 0.0820909997	-0.8041026862	 0.083228
H	 2.4025794876	-1.5285202129	-1.5229917634	 0.103092
88.8699	189.14	244.0429	255.1173	275.856	351.7634	401.1214	409.7205	557.2909	573.5101	601.3326	629.477	771.8606	811.9087	835.3393	889.9588	907.3792	915.239	921.2643	946.8455	990.7252	997.5953	1001.5442	1053.9473	1064.5558	1088.4337	1118.771	1157.8993	1175.0436	1215.5647	1223.3141	1238.3897	1247.2165	1269.389	1287.1692	1317.9506	1334.3456	1337.7756	1348.2338	1368.7163	1387.256	1402.8216	1475.7819	1484.4709	1488.6388	1492.9046	1495.9926	1504.6481	1521.3942	2963.3228	3028.7162	3029.5233	3036.6812	3044.6284	3047.6573	3063.7608	3079.5104	3083.4109	3094.1444	3098.7994	3101.2387	3105.2971	3107.6348
CC12CCCC1CCO2	C[C@]12CCC[C@H]1CCO2	
InChI=1S/C8H14O/c1-8-5-2-3-7(8)4-6-9-8/h7H,2-6H2,1H3	InChI=1S/C8H14O/c1-8-5-2-3-7(8)4-6-9-8/h7H,2-6H2,1H3/t7-,8-/m0/s1
