19
gdb 115487	3.77929	0.96514	0.81558	3.4913	75.	-0.2176	0.0514	0.269	1423.2694	0.160455	-456.360134	-456.350734	-456.34979	-456.395412	33.212	
C	 0.0212726231	 1.3363166305	 0.0167396389	-0.327236
N	-0.0260315004	-0.1115130871	-0.0935367051	-0.369015
C	 0.5798595055	-0.7978423466	-1.0974273585	 0.511383
N	 0.8634381234	-2.0468186778	-1.0925311898	-0.408926
C	 1.4029155041	-2.354225993	-2.4236768187	-0.003275
C	 0.505170482	-3.3948182518	-3.1033034563	-0.048009
O	 0.3694485106	-4.5427052803	-2.2979778101	-0.424252
C	 1.4388489788	-0.9860690865	-3.1527958601	-0.129966
O	 0.8658719871	-0.0597906822	-2.2031779841	-0.254604
H	 0.991894351	 1.7126024583	 0.3690571526	 0.124038
H	-0.1859759622	 1.7811009843	-0.9570237636	 0.158019
H	-0.7521167309	 1.6616948959	 0.7166000567	 0.131107
H	-0.0902086776	-0.6418142627	 0.7607265897	 0.25836
H	 2.4069137563	-2.7844291422	-2.322269361	 0.083892
H	-0.4730540308	-2.9276215761	-3.3171971113	 0.075123
H	 0.9379413739	-3.7142484478	-4.0592202243	 0.096842
H	 0.2110105179	-4.2045942043	-1.4058882335	 0.291461
H	 2.4484538253	-0.6450578159	-3.3960597827	 0.118538
H	 0.8266797929	-0.9636191746	-4.0606860288	 0.11652
45.5495	94.3702	105.557	126.5652	177.7024	231.652	248.0418	398.3412	439.9686	506.1052	525.0787	564.8306	696.1639	731.057	753.079	864.1416	930.312	939.6421	1018.6618	1032.6738	1073.073	1093.0938	1101.4557	1139.6772	1153.2706	1195.06	1215.7706	1236.6728	1299.2781	1335.8359	1356.3238	1389.4315	1424.3922	1443.9608	1460.4581	1479.041	1497.3933	1506.6431	1520.0729	1527.7866	1741.9318	2942.4506	3006.5523	3023.6795	3045.9086	3053.6742	3097.0348	3097.5035	3149.4195	3643.4858	3751.722
CNC1=NC(CO)CO1	CNC1=N[C@@H](CO)CO1	
InChI=1S/C5H10N2O2/c1-6-5-7-4(2-8)3-9-5/h4,8H,2-3H2,1H3,(H,6,7)	InChI=1S/C5H10N2O2/c1-6-5-7-4(2-8)3-9-5/h4,8H,2-3H2,1H3,(H,6,7)/t4-/m0/s1
