17
gdb 95613	2.28868	1.73676	1.03328	5.1353	71.69	-0.2426	-0.0585	0.184	1113.4375	0.137464	-455.169003	-455.160842	-455.159898	-455.201915	31.051	
O	 0.0410051301	 1.3913082579	 0.12471009	-0.446267
C	-0.0404791107	 0.0020548531	 0.0188164364	 0.062367
C	-1.4865490409	-0.4928683049	-0.0936809007	-0.232496
C	-1.4934989453	-2.0183735287	-0.1135838954	-0.176388
N	-0.6223321455	-2.5305368838	-1.169141873	-0.344626
C	 0.5621179829	-1.9542813616	-1.5840786182	 0.277824
N	 1.4827394322	-2.489133763	-2.2901691957	-0.49321
C	 0.7399377414	-0.4937088197	-1.1915039726	 0.343046
O	 1.44955993	 0.26455024	-1.8073076324	-0.305851
H	 0.7017726934	 1.66069971	-0.5342265954	 0.29601
H	 0.415293294	-0.4848454693	 0.904079958	 0.095344
H	-2.0664713986	-0.1245284561	 0.7566940929	 0.12441
H	-1.9390825338	-0.0913189981	-1.0071085225	 0.122788
H	-1.1810815777	-2.3960658006	 0.8733886736	 0.112261
H	-2.505221272	-2.39354016	-0.2954353719	 0.120975
H	-0.6999074755	-3.5193217654	-1.3601038113	 0.238654
H	 1.2736003561	-3.46917742	-2.4981166316	 0.20516
73.0507	105.269	244.8666	279.6946	323.2783	360.494	404.7001	440.3158	449.7797	501.7893	548.248	610.0202	654.7424	725.3709	815.3144	864.7848	908.8051	937.3407	983.2037	1063.0961	1098.0418	1113.4301	1172.0885	1177.7466	1185.5673	1254.8336	1282.2535	1332.8826	1349.652	1386.1792	1425.2763	1437.3387	1476.6588	1491.6741	1522.6317	1703.4853	1815.2229	2910.213	2972.8737	3051.2604	3073.5687	3107.0716	3433.5406	3593.3503	3678.7567
OC1CCNC(=N)C1=O	O[C@H]1CCN[C]([NH])C1=O	
InChI=1S/C5H8N2O2/c6-5-4(9)3(8)1-2-7-5/h3,8H,1-2H2,(H2,6,7)	InChI=1S/C5H8N2O2/c6-5-4(9)3(8)1-2-7-5/h3,8H,1-2H2,(H2,6,7)/t3-/m0/s1
