21
gdb 108264	2.46393	1.6071	1.17813	1.3496	84.39	-0.2331	0.0074	0.2405	1137.1601	0.183081	-387.066343	-387.057892	-387.056947	-387.0991	33.102	
C	-0.2523755145	 1.6244140902	-0.1060594422	-0.385936
C	 0.0812549465	 0.1448628303	 0.1149226702	-0.230203
C	 0.7599452955	-0.488377418	-1.098092907	 0.431172
C	 2.246703768	-0.1213623223	-1.2798845891	-0.292947
C	 2.9765918779	-1.414674435	-0.7809131399	-0.249144
C	 1.9785348561	-2.5204190366	-1.1312990387	-0.203063
C	 0.7711368944	-1.9807556334	-1.2385005101	 0.148108
C	-0.4489339286	-1.8749227771	-2.115879748	-0.170194
O	-0.1678648157	-0.4492834991	-2.2592265116	-0.347753
H	 0.6511104226	 2.2242721456	-0.2581627177	 0.114752
H	-0.8850488254	 1.7388535243	-0.9902558981	 0.137211
H	-0.7849069506	 2.038143953	 0.7553938322	 0.109703
H	 0.7377425495	 0.0260078039	 0.9865360482	 0.096119
H	-0.8387567345	-0.4075779523	 0.3394300713	 0.093738
H	 2.448635854	 0.0201525824	-2.3456864358	 0.116841
H	 2.5577112318	 0.7818177544	-0.7468667944	 0.092153
H	 3.9349041652	-1.566563536	-1.28817751	 0.107529
H	 3.2008445047	-1.3638947902	 0.2932361548	 0.109007
H	 2.2753614565	-3.5341183559	-1.3734024137	 0.098529
H	-0.420207871	-2.4104041104	-3.0704942926	 0.117601
H	-1.4206139423	-2.0412747277	-1.6330062078	 0.106775
110.0958	135.7343	190.0653	227.6952	255.8348	294.7589	356.4429	371.4457	492.3432	576.3791	645.9344	695.9836	764.9367	795.3022	828.6601	869.3474	889.7441	896.7988	939.3264	953.5352	972.2081	998.4842	1007.5613	1043.3248	1085.3387	1100.941	1138.7235	1160.868	1197.0445	1209.5651	1228.549	1276.5287	1288.7137	1317.4682	1324.4067	1335.1659	1375.9658	1405.4961	1476.0306	1481.1823	1495.9025	1499.1377	1510.0748	1512.4214	1744.8577	3013.1277	3016.5303	3023.948	3039.4562	3054.3244	3059.2869	3071.388	3073.5875	3103.8855	3107.7374	3123.0205	3200.4896
CCC12CCC=C1CO2	CC[C@@]12CC[CH][C]1CO2	
InChI=1S/C8H12O/c1-2-8-5-3-4-7(8)6-9-8/h4H,2-3,5-6H2,1H3	InChI=1S/C8H12O/c1-2-8-5-3-4-7(8)6-9-8/h4H,2-3,5-6H2,1H3/t8-/m1/s1
