22
gdb 101579	2.74317	0.918	0.77786	1.2667	80.76	-0.2529	0.0611	0.314	1593.8265	0.191738	-441.505105	-441.494207	-441.493263	-441.541654	38.692	
C	 0.0435074373	 1.561464368	-0.0548572313	-0.388413
C	 0.1075341941	 0.0325381125	-0.0299700848	-0.177794
C	 0.6940052227	-0.535854069	 1.2602021538	 0.161241
C	 0.6878292475	-2.0596760884	 1.3050697477	-0.408919
O	 2.059444662	-0.0504897321	 1.3268817211	-0.2605
C	 2.6248942537	 0.0590855203	 2.5308062899	 0.495559
N	 2.0430584776	-0.245064683	 3.6179539076	-0.607606
O	 3.87256312	 0.5400485225	 2.3222610445	-0.222535
C	 4.6834848454	 0.7364979664	 3.4689435505	-0.257165
H	 1.0421654503	 1.9929283976	 0.0516164064	 0.132901
H	-0.3841053232	 1.9214506291	-0.995447944	 0.110189
H	-0.5776143616	 1.9442818657	 0.7626395345	 0.113276
H	-0.8980827344	-0.3881893958	-0.1488313402	 0.09741
H	 0.7023554969	-0.333961537	-0.8758480027	 0.103933
H	 0.161775379	-0.139330343	 2.1304250762	 0.109717
H	-0.3396604701	-2.4317020411	 1.2418596837	 0.113925
H	 1.2564248613	-2.4724892867	 0.4655151843	 0.117439
H	 1.1237893466	-2.4133065919	 2.2413287298	 0.14049
H	 2.6246157599	-0.0801634576	 4.432128894	 0.220247
H	 4.8493266934	-0.2037590829	 4.0084822034	 0.13141
H	 5.637775004	 1.1143732666	 3.1005555698	 0.144043
H	 4.2416052878	 1.4726920698	 4.151286266	 0.131149
60.0731	66.993	110.8115	133.4478	167.4558	213.1799	218.351	229.0461	249.5389	333.1633	364.0339	423.2455	477.4234	522.0471	663.6305	748.7181	758.6715	778.6624	840.8735	900.5417	951.4016	979.4385	1004.0142	1036.2202	1099.6474	1136.5291	1139.2847	1166.3171	1179.4587	1200.2239	1223.2325	1299.5254	1324.2688	1354.017	1396.7765	1397.5327	1405.5233	1410.6551	1474.2925	1480.6911	1488.612	1492.2161	1497.0972	1504.6279	1508.3098	1510.2946	1722.6876	3015.7539	3028.8657	3036.9878	3042.0391	3060.8859	3074.9947	3079.0407	3102.2343	3111.8504	3122.5583	3137.5091	3144.8153	3563.0095
CCC(C)OC(=N)OC	CC[C@@H](C)O[C]([NH])OC	
InChI=1S/C6H13NO2/c1-4-5(2)9-6(7)8-3/h5,7H,4H2,1-3H3	InChI=1S/C6H13NO2/c1-4-5(2)9-6(7)8-3/h5,7H,4H2,1-3H3/t5-/m1/s1
