15
gdb 51844	3.24405	1.05239	0.84282	3.3239	62.19	-0.2618	-0.0377	0.2242	1285.562	0.11119	-494.938056	-494.929558	-494.928613	-494.973074	28.653	
O	-0.0911735542	-0.0151899943	 0.0807875491	-0.227045
C	-0.027727262	 1.1698553941	-0.1154698223	 0.149697
C	 1.2680706427	 1.9599010191	-0.1287971675	-0.29404
C	 1.3851983674	 2.8565990024	-1.3740617433	-0.071776
O	 0.3712478568	 3.8483624665	-1.4454726048	-0.257307
C	 0.9476808448	 5.0827103479	-1.0773644932	 0.025546
O	 2.3553578006	 4.9662969275	-1.2424340866	-0.213899
C	 2.6889618804	 3.653733399	-1.367700164	 0.434897
O	 3.8096953364	 3.2532311382	-1.4425860907	-0.326532
H	-0.9398211691	 1.777851255	-0.2992459178	 0.097583
H	 1.2875006952	 2.5933789137	 0.7690435142	 0.130281
H	 2.1156112825	 1.2714105088	-0.0830169908	 0.153175
H	 1.3392021223	 2.2474954013	-2.2829007194	 0.138858
H	 0.5718085404	 5.8678950817	-1.7389557292	 0.141252
H	 0.7372444059	 5.3336034192	-0.0275920638	 0.119311
46.108	67.296	88.4268	153.302	169.7636	265.288	385.1027	480.577	530.0195	665.0719	693.6023	751.9914	830.3441	860.722	915.3983	1000.5762	1044.3851	1075.8928	1094.0834	1112.1109	1148.4017	1206.8098	1218.2151	1238.67	1257.0791	1333.2474	1365.7375	1423.0224	1443.7447	1451.6388	1550.7719	1835.9212	1903.0078	2904.0395	3000.378	3022.5562	3062.8277	3093.4398	3117.0589
O=CCC1OCOC1=O	O=CC[C@H]1OCOC1=O	
InChI=1S/C5H6O4/c6-2-1-4-5(7)9-3-8-4/h2,4H,1,3H2	InChI=1S/C5H6O4/c6-2-1-4-5(7)9-3-8-4/h2,4H,1,3H2/t4-/m1/s1
