18
gdb 18794	3.33081	2.31103	2.03389	1.6485	69.64	-0.253	0.0669	0.3199	762.2891	0.156056	-347.761156	-347.754732	-347.753788	-347.7913	26.488	
O	 0.1963380771	 1.3680755959	-0.2491329401	-0.437171
C	 0.0054179511	-0.000574635	 0.0018291032	 0.159771
C	 0.297941654	-0.6009063246	 1.4019033763	-0.080705
C	-0.4155642584	 0.1447986045	 2.5556233281	-0.244094
C	-1.7603505053	-0.5191770044	 2.1687064197	-0.022507
C	-2.4152325233	 0.1240436321	 0.9211415276	-0.24409
C	-1.417284786	-0.6187128216	-0.0000782049	-0.080702
C	-0.9778174304	-1.50619377	 1.2238687325	-0.040032
H	-0.3277504304	 1.8669075586	 0.3859069444	 0.281212
H	 0.6176591995	-0.5231562709	-0.7405687912	 0.088145
H	 1.3092504787	-0.9648892335	 1.5859058759	 0.063503
H	-0.0614167317	-0.2173214869	 3.5249659099	 0.103757
H	-0.3692335538	 1.2415364531	 2.5709040456	 0.079605
H	-2.4197830278	-0.8307629247	 2.9794315696	 0.064195
H	-3.4310654058	-0.2522909989	 0.7707020437	 0.103756
H	-2.4530551248	 1.2199066976	 0.8676187231	 0.079607
H	-1.7942039715	-0.9971084587	-0.9507803383	 0.063503
H	-1.0003319811	-2.5917241327	 1.2652051449	 0.062249
174.8304	229.9543	252.5829	368.4571	459.131	564.0639	598.5938	624.2617	750.3086	827.1763	829.6897	840.7288	845.9997	920.9978	934.881	955.0379	978.738	1009.4629	1049.611	1071.945	1089.8283	1108.4172	1117.721	1128.2826	1161.8238	1177.4344	1202.0589	1225.4073	1250.2122	1266.0296	1283.2102	1290.597	1306.6486	1338.1502	1339.8979	1430.322	1485.0922	1496.7025	3015.1045	3019.8508	3056.0534	3080.2292	3082.7191	3096.5009	3097.9644	3101.9491	3151.8501	3814.3132
OC1C2CC3CC1C23	O[C@H]1[C@H]2C[C@H]3C[C@@H]1[C@@H]23	
InChI=1S/C7H10O/c8-7-4-1-3-2-5(7)6(3)4/h3-8H,1-2H2	InChI=1S/C7H10O/c8-7-4-1-3-2-5(7)6(3)4/h3-8H,1-2H2/t3-,4-,5+,6+,7-
