19
gdb 42343	4.07416	1.00104	0.86624	4.2148	79.1	-0.2426	0.0157	0.2583	1361.1811	0.160838	-419.195638	-419.186839	-419.185895	-419.230617	31.132	
O	-0.0145873289	 0.1584116611	 0.6331475795	-0.408628
C	-0.0461154232	 1.3310142666	 0.2770097858	 0.4029
C	 1.1823365551	 2.1948923204	 0.3098618555	-0.131027
C	 2.0147487757	 2.1044270682	 1.547520481	-0.219246
N	 2.4677315148	 1.4821589015	 0.3071399973	-0.305769
N	-1.1775271579	 1.9131828961	-0.1769475544	-0.088092
C	-1.5755119285	 3.2805663044	-0.5326070238	-0.171257
C	-3.0397741725	 2.7676439943	-0.6598122943	-0.244655
C	-2.5302168406	 1.3590047102	-0.2339992448	-0.160251
H	 1.1642137625	 3.121945333	-0.2552515272	 0.09245
H	 2.5804630181	 2.9743709507	 1.868825734	 0.118487
H	 1.6396999288	 1.4625125524	 2.3393854505	 0.130893
H	 2.2353945587	 0.4882761638	 0.3519652111	 0.247891
H	-1.4072169454	 4.0158060817	 0.262176354	 0.12031
H	-1.1232705184	 3.6523742833	-1.4585676969	 0.121692
H	-3.745194959	 3.2286520065	 0.0314475956	 0.121092
H	-3.4462614954	 2.8161440173	-1.6700710252	 0.121822
H	-2.6472447726	 0.5607367618	-0.9733023257	 0.125864
H	-2.8907453714	 0.9942952266	 0.733169498	 0.125523
32.0631	99.8627	113.5244	143.7675	146.9369	289.0478	306.1429	372.9508	536.6749	739.4569	752.6018	768.4833	842.9507	846.1099	868.2241	895.6689	936.3201	953.9433	985.7127	1020.1011	1048.4843	1120.7156	1136.2513	1139.0649	1143.2875	1185.5532	1195.6247	1201.6009	1229.4559	1270.8463	1291.3677	1300.2065	1326.8316	1337.1959	1373.1991	1475.6599	1495.0805	1496.0377	1510.3457	1532.8877	1736.8396	3027.678	3046.1386	3069.4246	3087.1436	3096.1427	3112.8079	3150.7633	3152.168	3206.5499	3453.6698
O=C(C1CN1)N1CCC1	O=C([C@H]1CN1)N1CCC1	
InChI=1S/C6H10N2O/c9-6(5-4-7-5)8-2-1-3-8/h5,7H,1-4H2	InChI=1S/C6H10N2O/c9-6(5-4-7-5)8-2-1-3-8/h5,7H,1-4H2/t5-/m1/s1
