15
gdb 44298	3.94383	1.7529	1.53343	2.6285	66.13	-0.2374	0.0131	0.2506	845.7304	0.116464	-416.782142	-416.776381	-416.775437	-416.812141	24.141	
O	-0.0213821982	-0.0679572438	 0.0215866694	-0.375453
C	-0.0278595883	 1.1389849509	-0.0340111724	 0.416106
N	-1.1452647155	 1.9577853155	-0.0916064136	-0.320948
C	-0.7701203415	 3.3481487635	 0.0540110192	-0.026734
C	-0.0300449531	 3.7296388554	 1.3509605574	-0.060441
C	 1.2226845463	 2.9227375152	 1.3050415281	-0.047673
C	 1.1533963941	 2.112564065	-0.0098855305	-0.172258
C	 0.6404189525	 3.4567782958	-0.5722031458	-0.006954
N	 1.179232105	 4.2615886761	 0.6330428682	-0.173763
H	-2.0536871472	 1.5891696045	 0.1450121429	 0.252779
H	-1.5296531479	 4.0486056998	-0.2880895606	 0.099757
H	-0.4104079169	 4.1947778177	 2.2524459336	 0.103575
H	 1.8418524234	 2.732390946	 2.172558566	 0.111987
H	 2.0984214463	 1.7132321613	-0.3677605596	 0.103397
H	 0.8151814811	 3.7928646071	-1.5912407023	 0.096624
150.9767	354.5609	431.2987	482.4938	518.9649	608.7781	705.5668	723.2885	788.2825	796.3876	830.5048	840.017	881.0191	903.4824	919.8996	939.8995	968.4778	1005.5353	1039.3972	1041.8483	1058.8816	1135.4703	1144.0913	1182.5902	1213.1243	1225.8375	1229.0266	1266.34	1315.3801	1337.636	1364.659	1404.0553	1841.9046	3136.07	3151.5287	3163.801	3187.6538	3201.7769	3631.2284
O=C1NC2C3C4C1C2N34	O=C1N[C@H]2[C@H]3[C@H]4[C@@H]1[C@@H]2N34	
InChI=1S/C6H6N2O/c9-6-1-3-2(7-6)5-4(1)8(3)5/h1-5H,(H,7,9)	InChI=1S/C6H6N2O/c9-6-1-3-2(7-6)5-4(1)8(3)5/h1-5H,(H,7,9)/t1-,2+,3-,4+,5-,8?/m0/s1
