20
gdb 86561	4.38175	0.86994	0.82117	1.5883	75.93	-0.2293	0.0673	0.2966	1432.5525	0.170926	-440.221695	-440.212908	-440.211964	-440.256436	32.098	
O	 0.029823466	 1.4951434049	 0.0444857554	-0.435494
C	 0.0518942477	 0.0906523541	-0.0107135409	 0.147106
C	 0.2436079039	-0.6215112305	 1.354610303	-0.207234
N	-1.2293008211	-0.7598372596	 1.4369626709	-0.091091
C	-1.3415414228	-0.5919679033	-0.0308923298	-0.207234
C	-1.7836043403	-1.9394338237	 2.0459860831	-0.008768
C	-1.7574962902	-1.9593667582	 3.5903289936	-0.079359
O	-3.1969231646	-1.9936798576	 3.661794389	-0.271452
C	-3.3176677138	-1.9302906894	 2.2266509936	-0.079359
H	-0.5802562466	 1.7464321163	 0.7478327475	 0.288828
H	 0.7446180599	-0.1764538986	-0.8089522811	 0.094924
H	 0.7678897308	-1.5861090549	 1.2509342142	 0.087574
H	 0.7087579617	-0.0410961035	 2.1582805772	 0.105844
H	-2.1877020472	 0.0128871316	-0.3733756081	 0.105844
H	-1.3292335864	-1.5470236685	-0.5820602289	 0.087574
H	-1.3982424176	-2.8666722355	 1.5853267945	 0.057687
H	-1.3026151315	-2.8414454795	 4.0563232045	 0.099785
H	-1.3411976278	-1.0497037755	 4.0401641572	 0.102519
H	-3.7997617753	-1.0038848019	 1.8912399652	 0.102519
H	-3.8587787449	-2.7938074066	 1.82209182	 0.099785
46.7246	75.9987	90.5528	148.248	266.0271	331.9714	374.7442	419.2635	437.1989	465.6599	645.4598	825.9519	842.905	859.7489	883.5545	908.0854	942.3001	992.1817	1005.5039	1021.0168	1045.5983	1046.8796	1108.1854	1111.9295	1126.6502	1143.0454	1167.2539	1170.5745	1179.4809	1244.6726	1267.8037	1270.335	1283.0397	1312.4093	1319.1564	1328.2045	1357.3664	1405.6426	1442.0992	1491.7704	1500.4727	1518.2949	1527.1262	2931.5272	2961.6472	2971.3758	3011.593	3022.717	3062.9314	3066.0352	3067.6146	3068.0264	3117.5282	3795.9201
OC1CN(C1)C1COC1	O[C@H]1CN(C1)C1COC1	
InChI=1S/C6H11NO2/c8-6-1-7(2-6)5-3-9-4-5/h5-6,8H,1-4H2	InChI=1S/C6H11NO2/c8-6-1-7(2-6)5-3-9-4-5/h5-6,8H,1-4H2
