25
gdb 122993	4.36268	0.61385	0.59253	0.7877	91.11	-0.2488	0.0856	0.3344	2048.0725	0.226793	-389.481481	-389.470406	-389.469462	-389.518485	40.069	
C	-0.1087082847	 1.4914252095	-0.0269281233	-0.382092
C	-0.1811304286	-0.0271229864	-0.2034165496	-0.181977
C	 0.8073106512	-0.5409176029	-1.2415533642	-0.023653
O	 0.678416049	-1.9420252742	-1.3410592585	-0.252416
C	 1.5616301838	-2.5230436942	-2.2796597408	-0.121507
C	 1.4023454833	-4.0246104344	-2.248870142	 0.364761
C	 1.7474592588	-4.6705057331	-0.9212930319	-0.46054
C	 0.2878874036	-4.6171489716	-3.0760044473	-0.285862
C	 1.7222688836	-4.7662396081	-3.524796497	-0.314088
H	 0.8880214243	 1.8087537787	 0.299261747	 0.115571
H	-0.3316253787	 2.0138460878	-0.9639163632	 0.115527
H	-0.8272884281	 1.8352448523	 0.7226074353	 0.11653
H	 0.0219652569	-0.5312683624	 0.7484344777	 0.105394
H	-1.190683913	-0.3277938768	-0.5061768978	 0.106119
H	 0.6142077654	-0.0667968726	-2.2206846911	 0.079188
H	 1.8391368734	-0.2687903492	-0.9556544889	 0.080085
H	 1.3516518926	-2.1369657318	-3.2919558809	 0.075851
H	 2.6035681745	-2.2462687005	-2.0373506708	 0.079961
H	 1.1321268637	-4.2520884972	-0.1196520958	 0.132335
H	 1.5822763174	-5.7518529497	-0.9527545104	 0.107347
H	 2.7994622969	-4.5004176433	-0.6615068788	 0.108468
H	-0.2208692261	-5.4935199556	-2.6890698829	 0.108598
H	-0.3540910018	-3.9403651643	-3.6295816233	 0.110765
H	 2.0503741499	-4.1959594934	-4.3879956754	 0.10699
H	 2.1893617826	-5.7414214165	-3.4367827061	 0.108646
50.1182	61.7248	95.6722	122.8164	156.4111	209.3375	219.4302	238.2511	290.6728	338.5147	357.0587	393.0976	425.4842	535.8764	739.1387	765.6629	784.3638	873.3659	900.8815	908.8625	915.9831	957.2002	961.3	997.4294	1031.684	1049.1112	1057.8774	1077.6078	1087.2868	1128.5277	1152.1653	1156.6952	1187.3229	1192.5804	1251.118	1270.3919	1314.2232	1330.1627	1333.0735	1360.4672	1399.4875	1412.7964	1415.8791	1456.0161	1470.2072	1485.343	1492.2491	1500.8183	1501.6856	1506.1631	1511.3	1515.6242	1533.161	2931.9557	2944.6055	2961.3715	2969.2589	3025.942	3031.7649	3038.924	3071.2988	3089.6694	3099.6703	3107.5929	3112.9273	3127.0412	3133.6406	3205.0329	3220.2509
CCCOCC1(C)CC1	CCCOCC1(C)CC1	
InChI=1S/C8H16O/c1-3-6-9-7-8(2)4-5-8/h3-7H2,1-2H3	InChI=1S/C8H16O/c1-3-6-9-7-8(2)4-5-8/h3-7H2,1-2H3
