18
gdb 55913	4.07536	1.02555	0.91051	1.2691	73.21	-0.2531	0.0299	0.2829	1305.3823	0.146394	-439.051374	-439.04274	-439.041796	-439.085596	31.536	
C	 0.1200060778	 1.419633335	-0.1159838477	-0.461094
C	-0.0907477634	-0.0658807879	 0.0214548206	 0.395801
N	-0.5826695704	-0.7142671357	 0.9967888266	-0.524506
O	 0.3313093404	-0.6981788002	-1.0955967502	-0.248662
C	 0.2041336327	-2.111273684	-1.1142652372	 0.152058
C	-1.1991180386	-2.7456035619	-1.4119261608	-0.275056
C	-0.5532646124	-3.4195033843	-2.6294383167	 0.024133
O	-0.0961022685	-2.3648845343	-3.4791262399	-0.237827
C	 0.7432566293	-2.7552051715	-2.388921763	-0.021536
H	 1.1796040474	 1.6358901042	-0.2828753702	 0.147243
H	-0.4261837812	 1.7962990195	-0.986044409	 0.151044
H	-0.2180750632	 1.9479410491	 0.7767329324	 0.125579
H	-0.8399380705	-0.082675539	 1.7516143127	 0.21964
H	 0.6390513083	-2.5366875707	-0.2069246242	 0.106767
H	-1.5260086842	-3.4181159197	-0.617999843	 0.117805
H	-1.9939134011	-2.0407781248	-1.660896191	 0.117326
H	-0.7658754957	-4.377762265	-3.0874241249	 0.108062
H	 1.7584454434	-3.0530822189	-2.6233417146	 0.103225
62.3803	84.9098	113.912	124.5048	230.6162	347.7809	352.8665	453.2683	575.3201	582.5126	605.2329	741.4063	815.6395	851.6365	857.332	882.6028	911.7374	925.6579	962.8931	1004.4064	1019.9582	1037.6007	1063.1782	1068.0278	1098.4811	1120.164	1162.3386	1204.886	1235.5781	1241.8036	1287.8748	1355.5578	1384.6651	1391.0361	1424.7428	1465.8858	1470.6226	1481.9272	1723.9026	3049.4836	3085.0675	3090.2963	3113.0989	3144.8913	3148.3294	3185.3864	3201.4638	3516.4903
CC(=N)OC1CC2OC12	C[C]([NH])O[C@H]1C[C@H]2O[C@@H]12	
InChI=1S/C6H9NO2/c1-3(7)8-4-2-5-6(4)9-5/h4-7H,2H2,1H3	InChI=1S/C6H9NO2/c1-3(7)8-4-2-5-6(4)9-5/h4-7H,2H2,1H3/t4-,5+,6-/m0/s1
