17
gdb 98557	3.65254	1.08291	0.90937	2.0815	70.37	-0.257	-0.0352	0.2218	1254.8586	0.13451	-458.928401	-458.920028	-458.919084	-458.961937	30.984	
O	 0.0345170447	 1.4067025618	 0.2782376696	-0.420564
C	-0.1147978651	 0.0444048004	 0.531906768	-0.142988
C	-1.2857348116	-0.5324097177	-0.2579440113	 0.25132
O	-1.94579881	 0.2170627692	-0.9580006905	-0.356709
C	-1.5792907966	-1.9654117499	-0.1351236004	 0.169262
C	-2.5201582667	-2.6763607544	-1.1041788094	-0.337896
C	-2.9055104603	-2.6160990816	 0.3197406131	 0.086713
O	-2.2365525021	-3.5920429118	 1.1024834462	-0.27275
C	-0.9435714636	-3.006755494	 0.7862033732	-0.155609
H	-0.6870951103	 1.6237349953	-0.3357186871	 0.294193
H	 0.795872153	-0.5182181403	 0.2631926929	 0.11463
H	-0.2894919388	-0.147453972	 1.6041832099	 0.116643
H	-3.0339189228	-1.9853417354	-1.7636055031	 0.153277
H	-2.211840315	-3.6241589702	-1.5356796756	 0.127894
H	-3.8009877519	-2.155689078	 0.7211352855	 0.131017
H	-0.2605118181	-3.7302305208	 0.3276434925	 0.118498
H	-0.4900687347	-2.5886033806	 1.6907598366	 0.12307
63.8843	103.7471	160.3342	184.5228	316.5903	330.5872	384.9381	444.713	451.2688	504.6658	567.6192	744.9742	780.0305	791.1737	868.4297	935.9499	972.0554	982.1966	987.6043	1022.8994	1060.206	1071.1862	1093.8583	1116.0986	1149.3899	1168.1299	1229.9771	1248.5106	1295.0798	1307.7955	1341.6892	1401.6838	1454.2958	1466.8273	1495.7856	1516.5381	1756.7771	2963.6068	2978.2058	3034.5719	3086.4906	3125.131	3189.7615	3230.4238	3662.7219
OCC(=O)C12CC1OC2	OCC(=O)[C@]12C[C@H]1OC2	
InChI=1S/C6H8O3/c7-2-4(8)6-1-5(6)9-3-6/h5,7H,1-3H2	InChI=1S/C6H8O3/c7-2-4(8)6-1-5(6)9-3-6/h5,7H,1-3H2/t5-,6-/m1/s1
