17
gdb 66612	2.97274	1.97448	1.88454	2.2371	68.68	-0.2625	0.0935	0.356	836.0068	0.138303	-421.800032	-421.793853	-421.792909	-421.830285	26.082	
C	 0.0018046494	 1.4558302709	 0.0275284923	-0.523059
C	 0.0057271342	-0.0468126543	 0.020678405	 0.353202
C	-0.8903067578	-0.9099886599	 0.8851895476	-0.152796
C	 0.6099256998	-0.9070948374	 1.1116334194	-0.152791
C	 0.7860910137	-2.1841310235	 0.274333146	 0.02713
O	 1.2882827056	-1.7603785925	-0.9864687605	-0.234472
C	 0.2053925497	-0.8898684086	-1.2913443334	 0.063142
O	-0.9159558723	-1.7646199038	-1.3191804002	-0.234472
C	-0.8066802261	-2.1871980725	 0.0339178037	 0.02713
H	 0.9525142946	 1.8576554844	-0.3401412355	 0.127418
H	-0.7990876043	 1.8542698999	-0.6051722834	 0.127417
H	-0.1520012744	 1.8444584268	 1.0390345901	 0.123673
H	-1.7079911349	-0.5452257821	 1.4933873394	 0.091241
H	 1.2102876917	-0.5396003425	 1.9338727096	 0.091242
H	 1.3054477325	-3.0613127065	 0.6489165027	 0.087885
H	 0.3477053195	-0.3803966287	-2.2406764542	 0.090223
H	-1.4101520608	-3.0665434298	 0.2390157315	 0.087885
196.9228	217.9515	270.9675	534.976	552.9484	582.8686	665.4191	692.3026	725.1453	782.085	813.9904	820.2202	883.5788	890.0155	897.8197	911.7324	928.5565	955.2584	986.5225	992.993	1027.6025	1063.5746	1090.8106	1122.266	1123.0807	1179.3963	1198.1285	1214.287	1232.8946	1270.8673	1282.5491	1316.3077	1335.129	1411.8697	1423.1134	1489.9952	1500.6701	3027.5154	3088.259	3100.695	3166.4139	3170.1754	3174.2908	3191.7459	3204.031
CC12C3C1C1OC2OC31	C[C@]12[C@@H]3[C@H]1[C@@H]1O[C@H]2O[C@H]31	
InChI=1S/C7H8O2/c1-7-2-3(7)5-4(2)8-6(7)9-5/h2-6H,1H3	InChI=1S/C7H8O2/c1-7-2-3(7)5-4(2)8-6(7)9-5/h2-6H,1H3/t2-,3+,4-,5+,6-,7+
