19
gdb 47925	2.18191	1.72015	1.18813	4.8378	72.15	-0.2577	0.0165	0.2742	1087.5107	0.161035	-460.190267	-460.182271	-460.181326	-460.222879	30.786	
O	-0.0144949496	-0.0414324477	 0.4085567257	-0.320529
C	-0.0294384739	 1.1146321588	 0.0858302149	 0.417084
C	-1.3290351623	 1.9128066055	 0.0002064964	-0.335366
C	-2.0140840551	 1.8438667259	-1.3793219676	-0.190481
C	-1.2691366605	 2.565036616	-2.5009832722	-0.081571
O	-0.0019622095	 1.9634724118	-2.7325524164	-0.236249
C	 1.1301905466	 2.7168998848	-2.3638251143	-0.075264
C	 1.2347788915	 2.9639252962	-0.8575160287	-0.101911
O	 1.1604984222	 1.7410851659	-0.1358178682	-0.217405
H	-1.9842990525	 1.4418281972	 0.7359359475	 0.136831
H	-1.1922001113	 2.9552282659	 0.30491047	 0.111108
H	-2.1323257623	 0.7917470651	-1.6601518966	 0.134145
H	-3.0207836309	 2.2705358025	-1.2957276819	 0.102354
H	-1.844805347	 2.4872339992	-3.4315797163	 0.111894
H	-1.1605526646	 3.6361021275	-2.27583658	 0.090676
H	 1.990040041	 2.1265827899	-2.6937846756	 0.128878
H	 1.1592929496	 3.6893454407	-2.883176441	 0.09379
H	 2.2145946319	 3.3924220268	-0.6265151934	 0.12471
H	 0.4763843266	 3.6767238482	-0.5172928324	 0.107304
83.7996	150.8171	229.2103	235.4657	266.0506	379.8891	411.9167	471.459	489.1681	533.0449	585.2305	688.0691	763.0527	832.214	875.5853	887.9645	920.3829	931.6066	1008.5356	1055.9186	1056.7162	1107.5033	1139.9539	1160.1162	1182.9174	1237.2418	1264.3603	1290.7183	1308.4051	1318.4292	1358.0142	1384.6047	1398.5676	1408.7499	1416.7766	1475.7301	1481.9612	1484.3074	1502.1966	1518.762	1840.1554	2973.0959	2998.2398	3035.3836	3042.9775	3052.355	3057.0255	3086.0354	3088.1191	3102.6505	3114.8087
O=C1CCCOCCO1	O=C1CCCOCCO1	
InChI=1S/C6H10O3/c7-6-2-1-3-8-4-5-9-6/h1-5H2	InChI=1S/C6H10O3/c7-6-2-1-3-8-4-5-9-6/h1-5H2
