21
gdb 85682	2.43753	1.35561	1.04933	0.7825	89.03	-0.2522	0.0485	0.3008	1239.1096	0.181038	-349.902895	-349.89363	-349.892686	-349.936709	35.982	
C	-1.1705471427	 0.9089970609	-0.0808443258	-0.414126
C	-0.0829731789	-0.1525577184	-0.1288368012	-0.041968
C	 1.2352199054	 0.1757776202	-0.8881790783	-0.245873
C	 2.0477479245	-0.5243178613	 0.2521416147	-0.251554
C	 3.2722183056	 0.0905447158	 0.7190758279	 0.325349
C	 4.2776605485	 0.6139027994	 1.123345081	-0.457153
C	 0.7706344538	-0.4262035623	 1.1234956454	 0.356398
C	 0.6849802426	 0.2936818235	 2.435637983	-0.319541
C	 0.4457193006	-1.1987142698	 2.3623674765	-0.332336
H	-0.772584203	 1.8652052617	 0.2747663425	 0.118403
H	-1.5995023302	 1.0725896662	-1.0755137315	 0.115285
H	-1.9901680932	 0.6168031063	 0.585803195	 0.114192
H	-0.5035505073	-1.0949492386	-0.5021234892	 0.072046
H	 1.3595254291	-0.2268950351	-1.8953725478	 0.101796
H	 1.4336456348	 1.2503986314	-0.9034724077	 0.111186
H	 2.2384650848	-1.5713419456	-0.0126226564	 0.098957
H	 5.1712555114	 1.0723731643	 1.4678082401	 0.192206
H	 1.6125978981	 0.642373606	 2.8778101438	 0.124387
H	-0.1699539507	 0.9381003758	 2.6127731873	 0.109617
H	-0.5704725664	-1.5611044121	 2.4875406135	 0.108645
H	 1.207072203	-1.8587948482	 2.7668487969	 0.114084
59.4481	126.7553	184.7474	212.0264	225.0464	261.9455	328.9265	348.7235	468.2426	491.4781	526.6	554.7257	612.0942	627.5759	691.5794	764.4773	798.4843	873.8631	885.4516	919.5264	928.0088	965.7859	977.792	1040.1076	1051.0731	1079.5717	1087.2402	1095.8083	1131.5249	1170.9363	1190.3983	1211.9017	1234.5901	1263.2177	1283.4313	1341.3225	1361.2408	1387.2113	1410.1506	1462.0568	1486.6174	1493.9748	1498.4253	1505.7289	2229.161	3019.7455	3025.6497	3029.4906	3065.5866	3089.3565	3099.3355	3117.9136	3124.6842	3128.2898	3197.4522	3216.3996	3503.4424
CC1CC(C#C)C11CC1	C[C@H]1C[C@@H](C#C)C21CC2	
InChI=1S/C9H12/c1-3-8-6-7(2)9(8)4-5-9/h1,7-8H,4-6H2,2H3	InChI=1S/C9H12/c1-3-8-6-7(2)9(8)4-5-9/h1,7-8H,4-6H2,2H3/t7-,8+/m0/s1
