19
gdb 26748	3.08776	1.45161	1.01186	1.0256	85.83	-0.179	0.0607	0.2397	1188.9238	0.160369	-382.072723	-382.063587	-382.062643	-382.107934	32.83	
C	-0.2787931127	 1.4879858652	 0.002859144	-0.499177
C	 0.0195731339	 0.0180175222	-0.0271422751	 0.271434
C	 0.2355226003	-0.7340771367	-1.1821317801	 0.081565
N	 0.3031962286	-0.4035573189	-2.554838397	-0.612049
N	 0.4071083103	-2.0234063305	-0.7501498	 0.016544
C	 0.8581076096	-3.4077605889	-0.9492433172	-0.16691
C	 0.7414715515	-3.5710745634	 0.6171382695	-0.37492
C	 0.3415185806	-2.1033992903	 0.6072351524	 0.34038
C	 0.1119847544	-0.8484457759	 1.1178553192	-0.449399
H	-0.3946551879	 1.886245552	-1.0107752629	 0.098558
H	-1.2070953632	 1.7045627722	 0.5446393832	 0.122023
H	 0.5167408121	 2.064527525	 0.4915720108	 0.120475
H	 0.7293916714	 0.505410795	-2.6903248147	 0.241555
H	-0.6122076034	-0.3777891145	-2.9958376177	 0.238419
H	 0.1795094372	-4.0192333208	-1.5508499975	 0.119496
H	 1.8735400759	-3.4872656533	-1.3476432639	 0.126543
H	-0.0196884641	-4.2845421678	 0.9456922185	 0.117707
H	 1.685811825	-3.8094588316	 1.1141552427	 0.120751
H	 0.0070481105	-0.5518141289	 2.150412786	 0.087006
23.5206	69.6168	118.8578	186.6554	208.9565	266.434	286.0856	311.6087	559.2234	577.2517	635.9041	647.8917	678.4424	762.4203	779.2852	806.7122	829.4249	885.5238	935.8434	998.7559	1052.954	1057.9041	1068.8583	1137.7152	1159.2105	1175.6377	1205.707	1224.8582	1229.7892	1275.2606	1363.388	1414.8796	1422.119	1467.8966	1485.5862	1488.755	1497.5447	1515.5638	1546.4687	1598.4931	1656.2919	3015.401	3050.4982	3056.2498	3062.5356	3088.8962	3092.703	3108.0925	3242.5248	3483.0648	3580.3835
CC1=C(N)N2CCC2=C1	Cc1c(N)n2CCc2c1	
InChI=1S/C7H10N2/c1-5-4-6-2-3-9(6)7(5)8/h4H,2-3,8H2,1H3	InChI=1S/C7H10N2/c1-5-4-6-2-3-9(6)7(5)8/h4H,2-3,8H2,1H3
