20
gdb 38931	2.7577	1.98842	1.43954	1.6802	76.94	-0.2075	0.0665	0.274	954.1732	0.174775	-403.102375	-403.095565	-403.094621	-403.133478	28.257	
C	 0.0443142	 1.3416424756	-0.4853553888	-0.190162
C	 1.5024563345	 1.4990485515	 0.0407545835	 0.003082
C	 1.8263132396	 2.6461864491	 1.0145560937	-0.241667
C	 1.5917135997	 2.2086676988	 2.4675835688	-0.07244
O	 0.4056784058	 1.4343534825	 2.58036945	-0.264213
C	 0.5606863887	 0.135365986	 2.0344215934	 0.094363
C	-0.6972936673	-0.2950360445	 1.248818623	-0.192413
N	-0.0056024548	-0.1038655882	-0.0665333689	-0.135934
C	 1.3042588968	 0.1037326814	 0.6676770168	-0.033613
H	-0.6845402924	 1.9732591024	 0.0346873031	 0.103827
H	-0.0876572999	 1.4673606378	-1.5643536992	 0.100854
H	 2.219945284	 1.4721394383	-0.7816356282	 0.080161
H	 2.8650964318	 2.9770768076	 0.9040167494	 0.097581
H	 1.1934395377	 3.5101507174	 0.7814213097	 0.10585
H	 2.454732416	 1.632384367	 2.8389765508	 0.089082
H	 1.4634532135	 3.0707543684	 3.1279285525	 0.108544
H	 0.9341761318	-0.5544346991	 2.8049694221	 0.065212
H	-0.9653933727	-1.3468285537	 1.3905122337	 0.104541
H	-1.581160189	 0.3292660425	 1.4094532681	 0.111521
H	 2.0813202864	-0.656466591	 0.5524895164	 0.065821
93.3657	252.3385	325.6245	337.1101	415.9819	454.1242	482.0954	650.0089	678.708	760.4073	785.8888	824.583	852.59	864.7887	918.877	941.2774	963.8525	976.8433	997.8775	1025.664	1046.373	1081.2383	1104.9004	1133.7143	1140.0219	1175.738	1203.958	1220.488	1236.6945	1256.1647	1273.9515	1289.1349	1300.4302	1312.4412	1325.5632	1336.1914	1362.6896	1377.9784	1411.1555	1479.279	1484.5815	1500.2587	1503.6987	2971.5417	2990.9847	3028.4038	3032.6417	3043.7247	3064.6235	3069.4902	3075.2344	3089.0043	3092.027	3100.9445
C1C2CCOC3CN1C23	C1[C@H]2CCO[C@H]3CN1[C@@H]23	
InChI=1S/C7H11NO/c1-2-9-6-4-8-3-5(1)7(6)8/h5-7H,1-4H2	InChI=1S/C7H11NO/c1-2-9-6-4-8-3-5(1)7(6)8/h5-7H,1-4H2/t5-,6+,7+/m1/s1
