18
gdb 128232	1.90311	1.71254	0.94822	2.6285	75.71	-0.1868	0.0253	0.2122	1228.4959	0.149463	-435.271428	-435.262447	-435.261503	-435.305194	33.103	
C	 0.1388282012	 1.3036274985	 0.213070482	-0.324178
N	-0.077619622	-0.1134765939	 0.0004809143	-0.393061
C	 0.5762394082	-0.7181644284	-1.0679758081	 0.191259
C	 1.1931175656	-0.1553314405	-2.1702561635	-0.12994
N	 1.6325478288	-1.2055143865	-2.9289294682	-0.194914
N	 1.3625934666	-2.3999377626	-2.3898945865	-0.288434
C	 0.7091367264	-2.1218325293	-1.2620533424	 0.233728
C	 0.2133207851	-3.1854756475	-0.3380295675	-0.188504
O	 0.6237441872	-2.9507804248	 1.0165099955	-0.417902
H	 1.2031560902	 1.5799600608	 0.3064780658	 0.102904
H	-0.2807385183	 1.8751290901	-0.6232911525	 0.125218
H	-0.3820897518	 1.6168349677	 1.1209389771	 0.124031
H	-0.0021450109	-0.6771218276	 0.837409604	 0.244662
H	 1.3472836868	 0.8673525562	-2.4709821707	 0.123673
H	 2.1288818325	-1.1636958759	-3.8015165596	 0.270927
H	-0.8815480886	-3.189718307	-0.2945533059	 0.121394
H	 0.5409617734	-4.168546195	-0.6996541769	 0.114592
H	 1.5871218197	-2.9320834243	 1.0174690831	 0.284546
87.3983	127.8812	148.7479	195.9148	202.8144	272.4031	336.1947	385.6304	421.2378	448.5901	502.2682	617.8511	658.3793	688.4913	722.2342	751.3271	810.791	945.4892	971.264	1029.3148	1068.3686	1084.5836	1142.0886	1163.7719	1185.997	1216.0313	1239.0943	1338.1183	1351.677	1411.1367	1424.9268	1458.0153	1470.6093	1476.7317	1485.4686	1496.4944	1518.4987	1559.8287	1641.7477	2956.8008	3024.0212	3050.7213	3070.7999	3115.4991	3273.1141	3568.692	3685.6813	3804.1198
CNC1=CNN=C1CO	CNc1c[nH]nc1CO	
InChI=1S/C5H9N3O/c1-6-4-2-7-8-5(4)3-9/h2,6,9H,3H2,1H3,(H,7,8)	InChI=1S/C5H9N3O/c1-6-4-2-7-8-5(4)3-9/h2,6,9H,3H2,1H3,(H,7,8)
