17
gdb 32260	2.58425	1.644	1.01211	1.7818	81.03	-0.1954	-0.0015	0.1939	1142.8503	0.138153	-418.069694	-418.061541	-418.060597	-418.102239	31.071	
C	-0.0334787366	 1.3705384825	-0.020298521	-0.231861
O	-0.0082943698	-0.0523940452	 0.032867196	-0.281723
C	 0.6289704189	-0.6142215986	 1.09254384	 0.421455
N	 1.1831045593	 0.1428022942	 2.0119100495	-0.363474
C	 1.8108960673	-0.4600215938	 3.0380296325	-0.03819
C	 1.8962646046	-1.8346825232	 3.1518467332	-0.12099
C	 1.3036915013	-2.6303171498	 2.1660384949	-0.155549
C	 0.64289398	-2.0321032763	 1.1021691321	 0.187559
N	-0.0285514914	-2.7363017328	 0.108588192	-0.592664
H	 0.979378454	 1.7825117597	-0.0590838192	 0.132722
H	-0.5803147676	 1.6218423076	-0.9306598623	 0.122291
H	-0.540654932	 1.7878199427	 0.8544405342	 0.135145
H	 2.2551778715	 0.1975567432	 3.7790953874	 0.099765
H	 2.4143387145	-2.2877457029	 3.9891873728	 0.091701
H	 1.3514690933	-3.7137067916	 2.2262292737	 0.089332
H	 0.3301573755	-3.6611822894	-0.0776576454	 0.24552
H	-0.1831502328	-2.2000992762	-0.7326013501	 0.258964
106.294	155.6926	194.8698	223.8771	315.1044	333.3087	343.7733	476.648	520.4436	540.9476	585.5375	612.7033	625.5823	782.8175	785.2844	814.6299	875.5975	920.2382	954.7864	1050.5582	1083.2347	1098.5434	1157.9304	1180.2824	1206.6391	1265.8749	1290.6126	1328.6455	1388.9882	1461.9125	1477.2143	1489.8871	1501.8036	1520.862	1618.8426	1632.2915	1652.7601	3039.5604	3109.1788	3141.5797	3166.8404	3171.0635	3201.8437	3565.5279	3671.3564
COC1=NC=CC=C1N	COc1ncccc1N	
InChI=1S/C6H8N2O/c1-9-6-5(7)3-2-4-8-6/h2-4H,7H2,1H3	InChI=1S/C6H8N2O/c1-9-6-5(7)3-2-4-8-6/h2-4H,7H2,1H3
