17
gdb 83696	2.39379	1.70015	1.34429	2.9427	67.41	-0.2452	-0.0271	0.2181	991.5643	0.135786	-458.927037	-458.919183	-458.918239	-458.959994	29.34	
O	-0.518326969	 1.4740412391	-0.1804177505	-0.425343
C	-0.0680769582	 0.1596101583	-0.05159261	 0.106157
C	-1.208158616	-0.8935844985	 0.0833927331	 0.072467
O	-2.416111714	-0.3799994581	-0.5113715946	-0.30672
C	-2.1435666824	-1.0815257417	-1.7647865903	-0.098058
C	-0.7818167564	-1.580945422	-1.2451493275	-0.099144
C	 0.4023280718	-0.5905789662	-1.3729490295	-0.163083
C	 0.5849601904	 0.260444682	-2.5981646879	 0.157965
O	-0.0302297035	 0.1440511309	-3.6297744179	-0.255222
H	-1.4501282574	 1.3987821724	-0.4452556478	 0.295983
H	 0.6831993096	 0.1247437872	 0.7417964316	 0.091601
H	-1.3801630514	-1.3789071659	 1.0465440876	 0.083618
H	-2.8768645822	-1.8812100512	-1.9152971012	 0.113305
H	-2.137885237	-0.4142285172	-2.6267983512	 0.144591
H	-0.5662661436	-2.6425800101	-1.345974958	 0.088445
H	 1.3632774829	-1.0847947331	-1.1826138182	 0.102152
H	 1.3643191964	 1.0457830641	-2.4840966177	 0.091287
73.9103	85.0143	188.6824	210.076	290.1379	346.6967	498.9837	547.8177	572.0991	665.5995	690.3156	749.8263	837.465	842.4312	906.7125	919.0596	944.0095	987.0166	1002.6544	1038.4321	1059.176	1109.2308	1125.5658	1154.9082	1178.1969	1190.4976	1225.1225	1251.5427	1289.6667	1309.4357	1313.1011	1342.3957	1364.0499	1427.2988	1448.0913	1529.5872	1815.5758	2890.872	3034.8843	3044.4155	3072.3166	3089.3387	3131.2511	3138.3973	3671.1332
OC1C2OCC2C1C=O	O[C@H]1[C@H]2OC[C@H]2[C@H]1C=O	
InChI=1S/C6H8O3/c7-1-3-4-2-9-6(4)5(3)8/h1,3-6,8H,2H2	InChI=1S/C6H8O3/c7-1-3-4-2-9-6(4)5(3)8/h1,3-6,8H,2H2/t3-,4+,5-,6+/m1/s1
