20
gdb 6277	3.75263	1.02212	0.95991	1.2402	77.59	-0.2633	0.0326	0.2959	1313.3192	0.173607	-348.974538	-348.964435	-348.963491	-349.009739	36.586	
C	-0.0840092446	 1.5617808558	-0.1215007327	-0.391047
C	 0.0272830306	 0.0338032686	-0.0232476616	 0.048645
C	 0.7365133282	-0.5375420388	-1.2584694522	-0.398031
C	 0.7475145218	-0.42051412	 1.2582845843	-0.186842
C	-0.0154452544	-0.1077942898	 2.561773203	-0.075073
O	-1.3365627614	-0.6477364908	 2.5533997923	-0.413732
C	 0.7416296018	-0.5630884272	 3.7321012824	 0.297998
C	 1.3604454566	-0.9852169822	 4.6726967586	-0.439467
H	 0.9082190197	 2.0296060206	-0.1244337277	 0.109728
H	-0.5898389267	 1.8541751867	-1.0474371692	 0.112217
H	-0.6548172728	 1.9891917764	 0.7082568722	 0.119709
H	-0.9882561978	-0.3786221111	 0.0132586504	 0.087802
H	 1.763832056	-0.1605732166	-1.3334013271	 0.11117
H	 0.7866351965	-1.6310910058	-1.222759932	 0.108215
H	 0.2134938875	-0.2558098244	-2.1782816005	 0.11087
H	 0.9153815698	-1.5050651348	 1.2216984667	 0.091305
H	 1.7413172482	 0.0421682509	 1.318921297	 0.103929
H	-0.1646322047	 0.9749365564	 2.6419167282	 0.120368
H	-1.2572551019	-1.6028531526	 2.6567412404	 0.284095
H	 1.9020292177	-1.3385055214	 5.5152547677	 0.198141
35.9911	93.3674	119.9029	198.0555	215.1133	240.7567	251.0252	302.6668	332.392	370.4833	417.359	464.5054	547.4097	571.6204	628.8125	671.7038	819.291	843.0945	921.6681	928.9742	960.4231	968.5121	1007.1579	1075.4414	1124.424	1153.7461	1192.2727	1232.9142	1275.9833	1301.3205	1343.7259	1377.5477	1382.2273	1399.1866	1415.7553	1422.3594	1474.1321	1487.5796	1493.7218	1503.9861	1511.2126	2231.0717	3014.4569	3021.7439	3026.2976	3035.0666	3046.4075	3063.4457	3086.541	3094.155	3098.0908	3104.4111	3503.1256	3801.8558
CC(C)CC(O)C#C	CC(C)C[C@@H](O)C#C	
InChI=1S/C7H12O/c1-4-7(8)5-6(2)3/h1,6-8H,5H2,2-3H3	InChI=1S/C7H12O/c1-4-7(8)5-6(2)3/h1,6-8H,5H2,2-3H3/t7-/m0/s1
