18
gdb 27213	3.20687	1.56403	1.06516	1.8782	87.49	-0.1814	0.0147	0.1961	1114.2674	0.149961	-364.865384	-364.857598	-364.856654	-364.897638	30.395	
C	-0.0162404986	 1.5128897508	 0.0776915807	-0.50209
C	 0.0097653059	 0.0248136714	-0.0469871897	 0.154045
C	 0.0010340232	-0.8127547716	-1.1319535463	 0.194679
C	-0.0350470427	-0.8124450758	-2.6367965072	-0.427133
C	-0.0121612696	-2.305600607	-2.9422403697	-0.090713
C	 0.0299735881	-3.0478073141	-1.8187899883	-0.202224
C	 0.0399086132	-2.1629519663	-0.6622096117	 0.275362
C	 0.0722832425	-2.1319587339	 0.7102933038	-0.257774
N	 0.0530063505	-0.7974029837	 1.0688593063	-0.306025
H	 0.8792065997	 1.9047611681	 0.5771360138	 0.125077
H	-0.0635999616	 1.9678464533	-0.9143400924	 0.135421
H	-0.8866835413	 1.8675599651	 0.6444318167	 0.124666
H	-0.9328293541	-0.3339216033	-3.0526595647	 0.116195
H	 0.8217412582	-0.2985144633	-3.0947344393	 0.116213
H	-0.028663452	-2.6920045948	-3.9538295402	 0.088332
H	 0.052909999	-4.1299702057	-1.7805711951	 0.090088
H	 0.1057371694	-2.9057377828	 1.4599975485	 0.114899
H	 0.0683516401	-0.4626183164	 2.0166561547	 0.250982
75.1035	163.0992	229.9621	240.9657	299.0313	404.5853	467.1305	501.8129	590.2862	622.4873	662.9547	686.6757	689.7278	755.2013	775.8488	852.6571	931.5904	946.4314	953.7158	969.4098	1053.2065	1057.5403	1102.3035	1124.3261	1145.3767	1173.1873	1252.3948	1272.805	1298.1693	1353.2002	1400.6127	1417.0032	1455.7848	1464.9089	1480.8844	1500.1888	1589.1553	1609.204	1674.3427	3008.5767	3012.7045	3029.4534	3055.4485	3120.7495	3198.1926	3221.6288	3260.9268	3674.4928
CC1=C2CC=CC2=CN1	Cc1c2CC=Cc2c[nH]1	
InChI=1S/C8H9N/c1-6-8-4-2-3-7(8)5-9-6/h2-3,5,9H,4H2,1H3	InChI=1S/C8H9N/c1-6-8-4-2-3-7(8)5-9-6/h2-3,5,9H,4H2,1H3
