18
gdb 41233	3.32928	1.86673	1.75627	1.0156	72.94	-0.2329	0.0625	0.2954	852.38	0.151611	-401.873678	-401.867805	-401.86686	-401.903456	25.996	
C	 0.0335284782	 1.498404317	-0.256706178	-0.176259
O	 1.4445518456	 1.4807160577	 0.1659458484	-0.362337
C	 1.150150571	 0.312165424	 0.9667765992	 0.407841
C	 1.7458070706	-1.0848970925	 1.1636586989	-0.333679
C	 0.3651248248	-1.6766717519	 1.6064394203	-0.032297
C	-0.3686827092	-0.6246798939	 2.3649966268	-0.02927
C	 0.5190968472	 0.6048756438	 2.3530105212	-0.291429
N	-0.808773998	-0.9307338333	 0.9774059404	-0.174753
C	-0.0416241005	-0.0162719257	 0.1098538865	 0.032964
H	-0.5608870416	 2.188611691	 0.3492821636	 0.116005
H	-0.0589235717	 1.7502916283	-1.3155084109	 0.116853
H	 2.1316940357	-1.5320908948	 0.2451114538	 0.11482
H	 2.4848668342	-1.1901714757	 1.9634737072	 0.106775
H	 0.2314439294	-2.7390833387	 1.7627038381	 0.09942
H	-1.0746824276	-0.8407144368	 3.1577221096	 0.094847
H	 1.2618626769	 0.602373541	 3.1566131787	 0.10594
H	-0.0342726899	 1.5448072746	 2.3913686537	 0.108571
H	 0.2413041848	-0.5741362941	-0.7864004776	 0.09599
297.2675	331.012	396.6434	457.834	482.7903	556.1331	648.9563	675.7764	741.6701	770.5832	801.1113	829.9629	848.5899	901.0674	922.7888	933.1536	960.5499	983.606	1022.9368	1033.1435	1056.6203	1076.3412	1109.395	1111.17	1143.4873	1156.0021	1179.113	1210.2888	1227.8561	1237.6736	1258.7569	1279.8305	1313.0095	1325.1445	1357.63	1402.2518	1485.2218	1504.3784	1523.0948	3053.2682	3059.6316	3064.4654	3072.7783	3114.6893	3119.6023	3122.961	3184.9833	3204.3257
C1OC23CC4C(C2)N4C13	C1O[C@@]23C[C@H]4[C@@H](C2)N4[C@@H]13	
InChI=1S/C7H9NO/c1-4-5-2-7(1)6(3-9-7)8(4)5/h4-6H,1-3H2	InChI=1S/C7H9NO/c1-4-5-2-7(1)6(3-9-7)8(4)5/h4-6H,1-3H2/t4-,5+,6-,7-,8?/m0/s1
