20
gdb 96763	2.25202	1.60971	1.00489	3.4342	84.3	-0.2148	0.0001	0.2149	1225.4456	0.17074	-399.347769	-399.337993	-399.337049	-399.382902	34.638	
C	 0.2133240954	 1.3881243229	-0.0037537311	-0.335095
N	-0.0143185678	-0.043465803	 0.0084799678	-0.325713
C	-1.1514364563	-0.5972171158	 0.0483177635	 0.368408
C	-1.3334480396	-2.1220717926	 0.0676818743	-0.04144
C	-0.5924336835	-2.7869756265	 1.2285460511	-0.375755
N	-2.7849432247	-2.3630599126	 0.1277281367	-0.270072
C	-3.3202629934	-1.2086711887	 0.1394997818	 0.057289
N	-2.4715890924	-0.1043724856	 0.0875611738	-0.115032
C	-2.9556403192	 1.2620694681	 0.0995192463	-0.347868
H	 1.20771758	 1.5849873144	 0.4094099186	 0.12456
H	 0.2204177641	 1.7724090806	-1.0331226284	 0.120314
H	-0.5044603027	 1.9835320442	 0.5735553111	 0.103095
H	-0.9535525961	-2.53449762	-0.8756295533	 0.113525
H	-0.9835988322	-2.4332804663	 2.1873673398	 0.114677
H	-0.717618501	-3.8717425314	 1.185635081	 0.123159
H	 0.4696137875	-2.5367476396	 1.1719386001	 0.135462
H	-4.3917967747	-1.028518644	 0.1798510503	 0.124007
H	-4.0351128958	 1.2474341098	-0.0749053314	 0.136046
H	-2.7750137341	 1.759381724	 1.058725678	 0.141845
H	-2.4945652034	 1.8528729819	-0.6949435	 0.148587
56.3173	77.0479	123.052	156.977	209.4446	226.8342	253.7735	298.7413	322.6641	342.5101	482.2838	571.4139	633.4829	694.128	723.5513	821.304	891.6749	943.2452	983.1843	1038.1866	1053.5112	1090.5112	1109.0925	1117.0831	1139.3563	1148.8767	1181.9242	1260.5829	1297.7343	1315.9686	1324.5547	1387.6164	1399.1093	1439.0467	1469.7356	1484.1829	1487.9177	1491.7499	1495.7089	1508.6647	1525.7856	1691.9963	1782.6552	3000.3161	3029.2708	3031.5259	3045.7684	3057.6495	3080.2902	3098.1545	3120.0739	3124.2319	3136.6254	3168.9815
CN=C1C(C)N=CN1C	CN=C1[C@@H](C)N=CN1C	
InChI=1S/C6H11N3/c1-5-6(7-2)9(3)4-8-5/h4-5H,1-3H3	InChI=1S/C6H11N3/c1-5-6(7-2)9(3)4-8-5/h4-5H,1-3H3/t5-/m1/s1
