15
gdb 54511	3.38145	1.47712	1.17261	2.3605	65.35	-0.2445	-0.0005	0.244	1011.2788	0.113816	-453.97799	-453.970438	-453.969494	-454.010156	28.76	
N	 0.0320152434	 1.0530414291	-0.6997463828	-0.544124
C	-0.0331882691	 0.0612156558	 0.221784764	 0.335351
O	 0.8233855396	-0.165887219	 1.0590503831	-0.384602
C	-1.2745760508	-0.7740046284	 0.1256819681	 0.236207
C	-1.8264106936	-1.4135556166	 1.3904645876	-0.342604
C	-1.2789098033	-2.2929973672	 0.3229220433	 0.038079
O	-2.205981202	-2.7727480608	-0.6432138446	-0.208201
C	-2.6845970965	-1.6683197572	-1.2659965849	 0.090708
N	-2.2245584345	-0.527357945	-0.9366337053	-0.334671
H	 0.8195366369	 1.6786323758	-0.6877433391	 0.262134
H	-0.7338093874	 1.199765953	-1.3366650223	 0.275918
H	-1.1903047893	-1.2940281938	 2.2596282931	 0.15653
H	-2.8979502636	-1.3726760299	 1.5524513378	 0.128319
H	-0.4101295844	-2.9242876764	 0.4482617153	 0.138579
H	-3.4370320955	-1.8593660995	-2.0210445232	 0.152377
76.7777	170.8048	203.7411	275.8136	335.1693	410.1218	430.8926	495.8635	598.714	620.1729	654.9346	732.424	762.0682	831.9807	861.7793	914.7333	938.6136	970.0506	996.2001	1043.5507	1066.5982	1096.9095	1102.1851	1148.4734	1224.8284	1240.5109	1317.8436	1359.2416	1412.6548	1450.8448	1599.7037	1661.9181	1789.5833	3138.1231	3217.657	3232.8686	3243.3387	3594.7693	3737.0639
NC(=O)C12CC1OC=N2	NC(=O)[C@]12C[C@H]1OC=N2	
InChI=1S/C5H6N2O2/c6-4(8)5-1-3(5)9-2-7-5/h2-3H,1H2,(H2,6,8)	InChI=1S/C5H6N2O2/c6-4(8)5-1-3(5)9-2-7-5/h2-3H,1H2,(H2,6,8)/t3-,5+/m1/s1
