17
gdb 17248	4.42902	1.7018	1.60729	2.3554	67.24	-0.2424	0.0839	0.3263	856.2633	0.143641	-363.788113	-363.781307	-363.780363	-363.819227	26.611	
O	 0.1058100825	 1.2579670765	-0.3553785309	-0.419099
C	 0.0038344265	-0.0296056064	 0.2304784744	-0.174952
C	-1.41114854	-0.5194412865	 0.2369840119	 0.332728
C	-2.5731138102	-0.1592618364	 1.1633752648	-0.286829
C	-3.3615223207	-1.2748222155	 0.4241315857	-0.086843
C	-3.4519601567	-0.7100377621	-1.0016844107	-0.146546
N	-1.9633197756	-0.8483858988	-1.138786296	-0.196405
C	-1.9725287261	-1.8627487607	-0.0431010526	-0.106793
H	-0.2906424904	 1.1776190428	-1.2312397267	 0.29067
H	 0.6368233463	-0.762278464	-0.2937519508	 0.09389
H	 0.3815200918	 0.0651613004	 1.2542104053	 0.108589
H	-2.3367936233	-0.4382340778	 2.1938026895	 0.105837
H	-2.982375357	 0.8559499115	 1.1361407236	 0.101815
H	-4.1814574427	-1.8026766184	 0.906642559	 0.076723
H	-3.926247437	-1.3887844195	-1.7152642369	 0.110056
H	-3.8450884573	 0.3049957802	-1.1345451905	 0.098033
H	-1.5398373301	-2.8516806353	-0.122383709	 0.099125
77.6139	153.5674	296.0006	357.8604	438.2877	446.3254	488.1853	659.4159	706.5383	768.2628	807.9465	861.5627	899.2082	917.5129	954.2621	973.6897	986.2036	998.3678	1024.3957	1067.9413	1081.4824	1124.6614	1143.3103	1158.7617	1172.3123	1207.7277	1230.6866	1254.75	1291.3495	1320.4479	1366.3597	1403.1821	1443.3272	1493.7506	1494.4316	1514.2608	2985.3195	3030.8959	3046.5361	3072.6475	3100.2571	3105.2971	3137.0082	3199.2977	3789.9161
OCC12CC3CN1C23	OC[C@@]12C[C@H]3CN1[C@@H]23	
InChI=1S/C6H9NO/c8-3-6-1-4-2-7(6)5(4)6/h4-5,8H,1-3H2	InChI=1S/C6H9NO/c8-3-6-1-4-2-7(6)5(4)6/h4-5,8H,1-3H2/t4-,5+,6+,7?/m0/s1
