18
gdb 90307	2.9193	1.80073	1.45001	2.7123	77.17	-0.2339	0.0035	0.2374	939.7669	0.150221	-401.895858	-401.889035	-401.888091	-401.926728	28.656	
O	 0.0774413596	 1.43220769	 0.0768933342	-0.438123
C	 0.0563314828	 0.0386689183	 0.0574363762	 0.121424
C	 0.1269405761	-0.6607500431	 1.4843823857	-0.336407
C	-1.3752378004	-0.7409113503	 1.367497543	 0.228037
C	-2.4712777194	-0.2391185559	 1.9446294145	-0.201667
C	-3.3877319626	 0.2685302628	 0.8734453299	-0.064223
N	-2.773149302	 1.4558735011	 0.1999362269	-0.352528
C	-2.6662037251	 0.1202551283	-0.4369791023	-0.070695
C	-1.3784539236	-0.6184653474	-0.1404300433	-0.089664
H	-0.8168211741	 1.7383538418	 0.3146315056	 0.2997
H	 0.8229922305	-0.3031204207	-0.644501193	 0.083772
H	 0.6353266922	-1.6286485947	 1.4231972416	 0.104388
H	 0.5484762204	-0.0663702986	 2.2968702358	 0.115797
H	-2.6050756344	-0.0027422069	 2.9933492645	 0.09983
H	-4.4696176754	 0.2433687574	 0.9485367067	 0.094086
H	-3.4917456094	 1.9894376184	-0.2841904038	 0.235294
H	-3.2075977121	-0.04465541	-1.3613561998	 0.092728
H	-1.3004067132	-1.5616521404	-0.6898494326	 0.07825
141.345	215.837	327.5038	367.0505	398.1323	484.0337	555.3514	599.8104	670.8572	702.2287	772.4689	786.7704	809.1482	828.1835	843.7817	853.8074	906.0262	931.407	959.7653	969.4152	1024.2548	1058.6681	1081.8529	1093.199	1117.0606	1132.9771	1154.8804	1179.082	1212.8319	1231.5557	1253.52	1274.7005	1320.8409	1354.1608	1362.0058	1392.6633	1466.682	1492.8512	1692.7143	3047.2504	3053.4466	3066.7961	3124.7785	3167.2031	3179.7266	3204.9537	3494.1713	3581.5496
OC1CC2=CC3NC3C12	O[C@H]1C[C]2[CH][C@H]3N[C@H]3[C@@H]12	
InChI=1S/C7H9NO/c9-5-2-3-1-4-7(8-4)6(3)5/h1,4-9H,2H2	InChI=1S/C7H9NO/c9-5-2-3-1-4-7(8-4)6(3)5/h1,4-9H,2H2/t4-,5+,6-,7-/m1/s1
