15
gdb 127679	2.52982	1.87634	1.08459	5.1858	73.48	-0.2224	-0.0335	0.1889	1044.5014	0.114152	-450.151114	-450.142998	-450.142054	-450.184639	29.301	
C	 0.0097449702	 1.4166526418	-0.0073081639	-0.316277
N	-0.0515011174	-0.0405657545	-0.019562719	-0.081968
N	-0.2966095323	-0.6147508489	-1.2456582139	-0.245755
C	-0.3530993524	-1.8934989946	-1.2716058123	 0.108397
N	-0.1875370983	-2.7034921851	-0.1755789408	-0.384815
C	 0.0644075664	-2.2138455429	 1.1064504725	 0.286249
N	 0.2279413091	-2.9007977776	 2.163131595	-0.484121
C	 0.1384411703	-0.7031726565	 1.1777813891	 0.407316
O	 0.3493303264	-0.1018481924	 2.2083595337	-0.347042
H	 0.9873327786	 1.7527013236	 0.348305492	 0.1498
H	-0.1619635701	 1.7562810518	-1.0268226708	 0.146232
H	-0.7508797855	 1.8229967441	 0.6645330127	 0.14985
H	-0.5441939366	-2.3839220307	-2.218051809	 0.146208
H	-0.2497458402	-3.7045326582	-0.2951363307	 0.256791
H	 0.154217102	-3.90394816	 1.9800353155	 0.209135
41.7308	99.336	149.529	215.9016	322.0573	359.8811	463.9502	505.0005	521.2669	546.9161	567.9144	615.6863	699.7737	792.6955	864.1608	877.8487	902.5796	975.144	1044.1618	1117.0271	1151.6342	1167.0524	1273.4355	1304.3604	1377.5192	1408.3055	1447.4044	1475.1678	1477.1509	1505.7943	1703.4363	1731.1455	1786.3117	3055.4464	3116.1827	3178.0013	3215.9509	3450.2415	3599.6716
CN1N=CNC(=N)C1=O	CN1N=CN[C]([NH])C1=O	
InChI=1S/C4H6N4O/c1-8-4(9)3(5)6-2-7-8/h2H,1H3,(H2,5,6,7)	InChI=1S/C4H6N4O/c1-8-4(9)3(5)6-2-7-8/h2H,1H3,(H2,5,6,7)
