18
gdb 35813	2.99181	1.4308	1.13451	3.7799	74.8	-0.2603	0.0321	0.2924	1083.4405	0.150238	-401.96274	-401.955214	-401.954269	-401.994988	28.892	
N	-0.555080805	-0.9936378214	-0.8032263279	-0.328165
C	-0.3333660086	 0.0739719981	-0.4189528698	 0.26857
C	-0.0375564754	 1.414805525	 0.0758298608	-0.157066
C	-0.4674763052	 1.6527096595	 1.5503126323	-0.22425
C	 0.3455948266	 2.8943119436	 1.9543538329	-0.236371
C	 1.6978405923	 2.6871795808	 1.278404801	 0.127767
O	 2.4861838959	 1.6607808485	 1.9237576295	-0.295083
C	 2.4237177016	 0.8073128868	 0.7597242026	-0.086968
C	 1.4687025993	 1.7770031406	 0.0387117344	-0.08088
H	-0.5732550498	 2.127597539	-0.5630949635	 0.126173
H	-1.5474063724	 1.7803288307	 1.6467357882	 0.118024
H	-0.1755221965	 0.7953501631	 2.1626351859	 0.137298
H	-0.1193998167	 3.8076640747	 1.5624161217	 0.103064
H	 0.4477202091	 3.0062404848	 3.0368009066	 0.121831
H	 2.2742895123	 3.6080228287	 1.1403938843	 0.078639
H	 3.4045879295	 0.7001093717	 0.2815172464	 0.109717
H	 2.0294377438	-0.1887190573	 0.9920391512	 0.123116
H	 1.7907094593	 2.1273648332	-0.9410028665	 0.094582
91.7773	146.9812	174.183	245.2586	358.6401	370.4225	482.0573	540.6057	605.5623	622.0305	785.1453	823.8515	844.5759	890.2787	905.9267	939.2574	960.4916	1001.6815	1022.4032	1029.4646	1050.2166	1096.7576	1106.1862	1154.2669	1172.7046	1199.1913	1224.6419	1274.1946	1289.0862	1303.25	1325.7549	1336.4252	1354.0346	1359.3507	1370.5916	1471.9528	1495.564	1526.2971	2355.6128	3022.4438	3033.3873	3035.8806	3054.3498	3068.3738	3073.9667	3105.5252	3120.7973	3125.6635
N#CC1CCC2OCC12	N#C[C@H]1CC[C@H]2OC[C@@H]12	
InChI=1S/C7H9NO/c8-3-5-1-2-7-6(5)4-9-7/h5-7H,1-2,4H2	InChI=1S/C7H9NO/c8-3-5-1-2-7-6(5)4-9-7/h5-7H,1-2,4H2/t5-,6+,7-/m1/s1
