25
gdb 83866	1.8621	1.74673	1.20993	0.1161	91.75	-0.2539	0.0738	0.3277	1209.1833	0.231523	-352.367525	-352.358475	-352.35753	-352.40056	36.475	
C	-0.3308491285	 1.5418028673	-0.2104324009	-0.417776
C	-0.0253094203	 0.0669001163	-0.0597590233	-0.006833
C	 1.3301840046	-0.5498899139	-0.358361481	-0.068528
C	 2.554906686	 0.3128591089	-0.6642472792	-0.217523
C	 3.4165677357	 0.5858047011	 0.5789716654	-0.196835
C	 2.5747294656	 1.1496734469	 1.727663429	-0.202846
C	 1.4955712065	 0.1510976271	 2.1944162337	 0.026154
C	 0.5202014058	 0.7859315245	 3.1951866438	-0.398716
C	 0.7758106213	-0.5702003911	 1.0562081824	-0.039068
H	 0.4948808986	 2.1885613833	 0.0908767711	 0.120929
H	-0.5666152188	 1.779763223	-1.2547201452	 0.112263
H	-1.20146496	 1.8221062306	 0.3925570228	 0.115918
H	-0.8613806998	-0.5502410269	-0.3831761855	 0.07603
H	 1.3041396843	-1.4937078948	-0.8949006142	 0.075366
H	 3.1599703372	-0.1870464069	-1.4275470245	 0.092933
H	 2.253428756	 1.271461129	-1.1053295501	 0.096307
H	 3.8914614533	-0.3491247228	 0.9064611825	 0.090913
H	 4.2281467234	 1.2778062733	 0.3260686833	 0.085964
H	 3.2143817402	 1.394910074	 2.5840054716	 0.088243
H	 2.1165355417	 2.0972282249	 1.4165869216	 0.094797
H	 2.0402918215	-0.640673462	 2.7306754618	 0.070237
H	-0.0400878014	 1.6071530054	 2.7365474514	 0.116123
H	-0.2059203082	 0.0523094802	 3.5612672657	 0.107086
H	 1.0549695756	 1.1898076379	 4.0623844018	 0.104765
H	 0.3727813396	-1.5269766652	 1.3815938859	 0.074097
108.9336	170.1089	192.6456	232.2356	245.456	279.5714	307.3031	368.317	412.2614	442.4022	499.488	607.0409	627.7485	712.1706	757.5123	773.5534	858.1016	868.3637	895.4267	934.4193	957.6782	980.0333	990.162	1040.8167	1063.5681	1083.0281	1086.0954	1103.0939	1126.164	1150.9254	1156.427	1181.7236	1200.7445	1237.5604	1282.5816	1288.0057	1333.8822	1349.2389	1367.8913	1370.776	1376.0524	1388.1699	1393.6409	1411.3644	1420.9	1449.0598	1483.2555	1487.7545	1493.758	1499.5192	1502.0358	1505.8264	1511.3213	2980.3294	3012.5948	3021.0466	3022.9875	3027.5161	3030.5443	3055.9773	3061.2191	3068.4546	3080.9933	3091.9451	3102.2157	3107.8968	3117.7408	3135.532	3143.7559
CC1C2CCCC(C)C12	C[C@H]1[C@H]2CCC[C@@H](C)[C@@H]12	
InChI=1S/C9H16/c1-6-4-3-5-8-7(2)9(6)8/h6-9H,3-5H2,1-2H3	InChI=1S/C9H16/c1-6-4-3-5-8-7(2)9(6)8/h6-9H,3-5H2,1-2H3/t6-,7+,8-,9+/m1/s1
