19
gdb 64402	2.37202	1.60628	1.28845	3.085	71.3	-0.2462	-0.0314	0.2149	1065.62	0.156735	-460.173364	-460.16405	-460.163106	-460.207557	33.784	
C	-0.359516546	 1.6630146858	 0.1840126588	-0.444276
C	 0.0342907891	 0.1921434822	 0.086484044	 0.349056
C	-1.1535179797	-0.6827423035	-0.3347791195	-0.430021
O	 1.0965204307	 0.0936868125	-0.870375888	-0.288414
C	 1.9165169048	-1.0016478063	-0.5231442398	 0.015667
O	 1.5507552225	-1.420846398	 0.7823517861	-0.251206
C	 0.7370267914	-0.4143314045	 1.339247957	-0.027111
C	 1.5470273173	 0.6096857598	 2.1242420293	 0.14166
O	 2.7377920547	 0.7421713948	 2.0276635975	-0.239836
H	 0.5101487864	 2.2904762445	 0.3930538238	 0.139829
H	-0.7897241791	 1.9905936874	-0.7664105924	 0.13341
H	-1.109352784	 1.8182952624	 0.9657515865	 0.119557
H	-1.4819729849	-0.3972212265	-1.337991381	 0.127745
H	-0.8735521058	-1.7394575089	-0.3473248211	 0.133548
H	-1.995446258	-0.5579729365	 0.3537316107	 0.115487
H	 1.7655460249	-1.8534428052	-1.2015213768	 0.101802
H	 2.9617888108	-0.671011029	-0.5517544428	 0.122771
H	 0.0150024472	-0.883392166	 2.0185870193	 0.102698
H	 0.9426854376	 1.2446780147	 2.8130857786	 0.077635
79.8714	94.3449	109.0097	215.5894	242.7703	268.3085	283.3683	314.2662	339.7613	375.6932	475.2775	593.8286	710.9164	753.0215	825.6154	850.9258	906.2982	931.5706	963.1057	991.8822	997.4814	1038.5699	1081.4335	1152.5683	1154.5362	1179.2993	1199.6811	1217.1605	1264.6118	1283.3254	1356.5621	1397.2778	1411.4731	1417.9635	1437.3797	1476.1557	1484.8306	1497.9308	1508.8347	1550.1069	1839.4115	2860.3493	2997.5111	3039.4908	3044.5748	3048.4356	3052.001	3111.9959	3118.4634	3125.4729	3128.223
CC1(C)OCOC1C=O	CC1(C)OCO[C@H]1C=O	
InChI=1S/C6H10O3/c1-6(2)5(3-7)8-4-9-6/h3,5H,4H2,1-2H3	InChI=1S/C6H10O3/c1-6(2)5(3-7)8-4-9-6/h3,5H,4H2,1-2H3/t5-/m0/s1
