15
gdb 43378	3.00161	1.262	0.98487	4.4877	72.11	-0.265	-0.0452	0.2199	1159.5376	0.113777	-416.862754	-416.85482	-416.853876	-416.896245	28.398	
O	-0.0375817546	-0.0685212966	-0.3029247393	-0.390418
C	-0.0672497284	 1.1318434244	-0.131580099	 0.418292
C	-1.2343243719	 2.0500589766	-0.0246099819	-0.181645
C	-0.8047329413	 3.2960561926	 0.1800063628	-0.07499
C	 0.6997161653	 3.334528964	 0.2256361002	-0.228589
N	 1.0490455848	 1.9490032695	 0.003664765	-0.09881
C	 2.3834619762	 1.4125148542	 0.0153317194	-0.296818
C	 3.0762009858	 1.6354786098	 1.2951365805	 0.262195
N	 3.6127531275	 1.8474068063	 2.2959867713	-0.305074
H	-2.2502348007	 1.6922435343	-0.1051767174	 0.134557
H	-1.4047906581	 4.1878580779	 0.3023180972	 0.130872
H	 1.1145258704	 3.9937597125	-0.5515038834	 0.1322
H	 1.0711991979	 3.7003370241	 1.1938175046	 0.150721
H	 2.2821129469	 0.336788683	-0.1677928387	 0.193445
H	 3.0014109603	 1.8356805173	-0.7877040013	 0.154061
52.6789	73.3858	194.9776	227.3333	278.872	375.0622	379.9176	440.0561	570.9538	667.1429	688.8491	735.3739	821.2902	845.9218	912.7781	942.0049	970.6543	983.9846	1016.3341	1072.5295	1135.0283	1193.4704	1211.8085	1274.2742	1326.4005	1353.7153	1383.6663	1419.1288	1461.8963	1497.3787	1654.6695	1808.9861	2361.6521	2998.5281	3020.2479	3025.967	3082.9724	3225.838	3256.5456
O=C1C=CCN1CC#N	O=C1C=CCN1CC#N	
InChI=1S/C6H6N2O/c7-3-5-8-4-1-2-6(8)9/h1-2H,4-5H2	InChI=1S/C6H6N2O/c7-3-5-8-4-1-2-6(8)9/h1-2H,4-5H2
