18
gdb 42952	2.48495	1.99331	1.37019	3.998	73.94	-0.2444	-0.0107	0.2337	963.9697	0.14993	-401.940337	-401.933218	-401.932274	-401.972671	28.081	
O	 0.0393452942	 0.021119863	 0.2791191918	-0.314374
C	-0.0041187605	 1.2028537366	 0.0754890242	 0.362818
C	-1.2648507671	 2.0713188687	 0.0244023162	-0.125893
C	-2.000213426	 2.2459137336	 1.3894410803	-0.225919
C	-1.4512653996	 3.7018220368	 1.4824251319	-0.240324
C	-0.7632378217	 3.5363660794	 0.0907102296	-0.030194
C	 0.7608917611	 3.430368418	-0.0117223856	-0.040547
C	 1.5615070509	 2.7816198802	 1.0564090787	-0.256589
N	 1.1607035768	 2.0150135398	-0.1470523192	-0.126217
H	-1.8919985644	 1.7707592503	-0.8175827342	 0.105073
H	-3.0868876914	 2.1880286722	 1.3054141494	 0.113272
H	-1.682907325	 1.5536910896	 2.1726949663	 0.11907
H	-2.2238295786	 4.4729462649	 1.5053033037	 0.108708
H	-0.7638942457	 3.8890806388	 2.3107403887	 0.105771
H	-1.1428815647	 4.2123983988	-0.6762292857	 0.079922
H	 1.2700520596	 4.1111262313	-0.6877319188	 0.101599
H	 2.6271359439	 2.9751055977	 1.1364101301	 0.132316
H	 1.081624948	 2.5235898602	 1.9967614126	 0.131508
32.3502	196.1906	231.8214	272.4737	442.8564	482.805	594.3976	649.0354	667.7764	727.6422	752.6052	789.707	825.2589	845.6748	889.8599	911.9215	965.5489	983.7512	988.9304	1038.4169	1050.0059	1091.2809	1111.5503	1115.3835	1141.8169	1167.2525	1187.5583	1222.9139	1237.045	1258.1152	1269.598	1277.976	1299.2938	1334.7802	1387.8667	1480.1634	1497.9342	1513.5217	1850.1874	3066.1449	3072.7926	3086.2909	3098.3029	3111.4712	3114.6157	3130.0698	3149.0748	3199.6302
O=C1C2CCC2C2CN12	O=C1[C@H]2CC[C@H]2[C@H]2CN12	
InChI=1S/C7H9NO/c9-7-5-2-1-4(5)6-3-8(6)7/h4-6H,1-3H2	InChI=1S/C7H9NO/c9-7-5-2-1-4(5)6-3-8(6)7/h4-6H,1-3H2/t4-,5+,6-,8?/m1/s1
