15
gdb 84332	3.08674	1.43204	1.00085	1.0926	71.9	-0.2623	-0.0543	0.2079	1107.9463	0.11436	-453.99773	-453.990151	-453.989207	-454.029988	29.065	
O	 0.4328020145	 1.0453874696	-0.6349545475	-0.431509
C	 0.0781296392	-0.132055208	 0.0447907708	-0.027208
C	 0.7242947719	-0.198702246	 1.396461527	-0.097778
C	 0.1092665694	-0.7444562217	 2.4457389436	-0.085003
C	-1.2735961519	-1.231951485	 2.3811925025	 0.389401
N	-1.7940208106	-1.8301197931	 3.3806323811	-0.51201
N	-1.9545390579	-0.950034981	 1.1800428592	-0.412909
C	-1.4445987288	-0.2572688135	 0.109651329	 0.400256
O	-2.1423570526	 0.2032490986	-0.7715106673	-0.372687
H	-0.3104520067	 1.2313296701	-1.2284308134	 0.299027
H	 0.4127048972	-1.0214293361	-0.5283205328	 0.116982
H	 1.7412567019	 0.1744281963	 1.4596585448	 0.131596
H	 0.5855166425	-0.8610409083	 3.4111093739	 0.130853
H	-2.7601485273	-2.1103757299	 3.2004228738	 0.214533
H	-2.9593027007	-1.0757088421	 1.1685416955	 0.256456
78.0293	140.4305	271.5744	301.9693	377.6748	429.703	439.8817	449.309	518.8051	569.5382	629.7922	677.1527	704.5602	768.559	813.6943	882.1466	909.7117	937.9605	1008.9339	1025.2122	1123.7065	1147.5194	1177.7809	1250.6914	1291.6781	1323.807	1392.2689	1408.5994	1425.0566	1446.6435	1685.9458	1732.9909	1797.0621	2889.3485	3190.3005	3222.7799	3456.2227	3577.4254	3723.8188
OC1C=CC(=N)NC1=O	O[C@H]1[CH]C=C([NH])NC1=O	
InChI=1S/C5H6N2O2/c6-4-2-1-3(8)5(9)7-4/h1-3,8H,(H2,6,7,9)	InChI=1S/C5H6N2O2/c6-4-2-1-3(8)5(9)7-4/h1-3,8H,(H2,6,7,9)/t3-/m0/s1
