23
gdb 89583	3.7032	1.06941	1.0255	1.4054	85.45	-0.2351	0.0817	0.3168	1318.2968	0.206689	-388.305313	-388.296394	-388.29545	-388.339529	34.459	
C	 0.3940916051	 1.5505340727	 0.1338952921	-0.399329
C	-0.0015934273	 0.0975354918	-0.0342640363	 0.170159
C	 0.4954021286	-0.6688590502	-1.2775522393	-0.390991
C	 1.1025716335	-1.6631544741	-0.2677037653	 0.472242
C	 0.4433077109	-3.0370674041	-0.1069944097	-0.251773
C	 1.3799666113	-3.7485424699	 0.8785282629	-0.20304
C	 2.7885572996	-3.3633781687	 0.3723967044	-0.203145
C	 2.613940248	-1.9638894998	-0.2819307363	-0.264151
O	 0.7392190426	-0.7834903791	 0.8428407035	-0.344464
H	 1.4632946249	 1.6860499078	-0.0571847505	 0.116462
H	-0.1689946066	 2.1846089007	-0.560136341	 0.112723
H	 0.182941618	 1.889032531	 1.1533530905	 0.125022
H	-1.082669171	-0.0177030515	 0.1330332762	 0.068308
H	-0.2676866564	-1.0686930573	-1.9485925124	 0.101487
H	 1.2385343329	-0.1200312644	-1.8623499098	 0.100977
H	-0.5922748967	-2.9569502669	 0.2343698328	 0.096714
H	 0.4443584859	-3.5544169523	-1.0763978124	 0.089847
H	 1.2148954732	-3.3406481889	 1.8817074918	 0.114353
H	 1.2235792854	-4.8294172895	 0.9289188529	 0.08853
H	 3.531743188	-3.3610715077	 1.1737163139	 0.098254
H	 3.1294130686	-4.0895707369	-0.373336542	 0.095802
H	 2.9897601206	-1.9545922719	-1.3103367288	 0.096401
H	 3.1355494709	-1.1733188006	 0.2630199627	 0.10961
49.6757	59.6866	168.0079	222.7673	247.2312	316.0834	359.2964	389.8508	467.6965	485.6968	580.2175	714.6324	757.4076	790.1035	843.3756	869.6234	888.8462	903.9064	911.4918	923.8294	945.511	981.7612	995.2963	1018.1559	1048.9864	1082.3051	1108.299	1151.7491	1186.2831	1210.1855	1211.4636	1221.6709	1252.7562	1265.3288	1277.1937	1297.27	1318.029	1335.5706	1344.1957	1360.1028	1390.5195	1409.7018	1470.6416	1475.7022	1482.2092	1488.6538	1490.8967	1496.0232	1509.8113	2987.111	3016.8593	3030.3428	3040.1605	3047.2716	3053.22	3060.1996	3085.4892	3093.0867	3098.8696	3102.3962	3108.7632	3109.9456	3116.6842
CC1CC2(CCCC2)O1	C[C@H]1CC2(CCCC2)O1	
InChI=1S/C8H14O/c1-7-6-8(9-7)4-2-3-5-8/h7H,2-6H2,1H3	InChI=1S/C8H14O/c1-7-6-8(9-7)4-2-3-5-8/h7H,2-6H2,1H3/t7-/m0/s1
