18
gdb 125326	4.48122	1.02878	0.90181	4.4229	80.06	-0.2401	0.0053	0.2454	1324.2753	0.148278	-398.119304	-398.11086	-398.109916	-398.153864	30.595	
C	 0.1079305357	 1.502604762	 0.128919607	-0.482064
C	-0.0148151735	 0.0241326897	-0.0443717163	 0.303382
C	 0.452086578	-0.7882978183	-1.0538588319	-0.195769
N	 0.0573592977	-2.0374620505	-0.7026071296	 0.061977
N	-0.6191374946	-2.0048196687	 0.4631994072	-0.153563
N	-0.6629149494	-0.7641250598	 0.8599253406	-0.253874
C	 0.2480994599	-3.2993602897	-1.3561580237	 0.095408
C	 0.225504499	-3.4060777975	-2.8560468568	-0.285373
C	 1.5198843149	-3.6023317773	-2.0993522393	-0.28537
H	 0.6614131413	 1.9509718648	-0.7000789173	 0.119721
H	-0.8781629057	 1.9754712844	 0.1766122912	 0.141966
H	 0.6297243249	 1.7467173981	 1.0597102839	 0.141983
H	 1.0086007376	-0.5798903811	-1.9518240746	 0.140407
H	-0.214659304	-4.0799751236	-0.767028587	 0.131256
H	-0.264829414	-4.2684994432	-3.2928999871	 0.131501
H	 0.1050116078	-2.4887696558	-3.4215377144	 0.128456
H	 2.264259304	-2.8161563805	-2.1592414455	 0.128456
H	 1.9307527005	-4.601395183	-2.0093593664	 0.131501
41.124	47.0495	123.9123	162.5003	277.9292	327.1019	427.7625	436.2361	587.0643	666.1636	712.233	716.9768	776.0859	779.5276	817.4677	916.0628	948.5206	997.4647	1035.2228	1057.6461	1062.7708	1065.1391	1075.7102	1093.5452	1129.4042	1132.1268	1195.9064	1224.3804	1258.5516	1290.4595	1351.7741	1412.9528	1431.8724	1465.0691	1474.3249	1478.3383	1504.519	1507.1276	1594.0459	3041.1737	3098.728	3120.7017	3139.1107	3141.8813	3208.7985	3220.1413	3235.0233	3278.9016
CC1=CN(N=N1)C1CC1	Cc1cn(nn1)C1CC1	
InChI=1S/C6H9N3/c1-5-4-9(8-7-5)6-2-3-6/h4,6H,2-3H2,1H3	InChI=1S/C6H9N3/c1-5-4-9(8-7-5)6-2-3-6/h4,6H,2-3H2,1H3
