18
gdb 86799	3.23552	1.06225	0.88323	5.4189	78.58	-0.2516	-0.0041	0.2475	1322.7656	0.147138	-401.973315	-401.964541	-401.963597	-402.007612	32.012	
C	 0.2437718541	 1.4939589212	-0.2324676256	-0.39038
C	 0.0009142788	 0.0121628818	 0.0487263761	 0.089069
O	 0.4956199167	-0.783115696	-1.0401269277	-0.277889
C	 1.3673099065	-1.8018127896	-0.5714117361	 0.079882
C	 2.722345662	-1.7150917202	-1.3127369275	-0.347224
C	 2.5936823492	-1.9434375265	-2.7495846678	 0.270218
N	 2.4944517008	-2.138825435	-3.883906088	-0.305521
C	 1.4877235562	-1.5566746748	 0.9103290414	-0.113566
C	 0.716089788	-0.5338737783	 1.2559953216	-0.095179
H	 1.3153780258	 1.7061590076	-0.2891450999	 0.118388
H	-0.2179052971	 1.7738609298	-1.1830369156	 0.136489
H	-0.1948572869	 2.1112953545	 0.5584272845	 0.115647
H	-1.0853427416	-0.1562482769	 0.1358562298	 0.090711
H	 0.9284059977	-2.7898898453	-0.7846707823	 0.102345
H	 3.1593596779	-0.7262212344	-1.1414251802	 0.152835
H	 3.4130427371	-2.4603162319	-0.9011217384	 0.146594
H	 2.1128984182	-2.1566294959	 1.5595644337	 0.112912
H	 0.5820411165	-0.1276868001	 2.2506986522	 0.114668
51.1426	76.5235	125.9906	219.9354	237.4176	300.8809	364.0284	392.0184	416.8186	516.2695	569.6672	693.2697	772.8109	791.2577	823.6596	874.0199	928.5486	947.3107	959.7735	995.514	1025.0589	1053.9028	1091.7238	1113.31	1134.9754	1143.148	1230.3677	1274.9053	1310.9372	1353.1783	1361.8113	1374.9424	1378.5679	1402.7092	1452.1533	1486.3429	1494.3253	1690.7881	2365.1301	2962.8745	2972.3146	3039.6851	3046.1302	3095.0705	3113.4907	3125.0994	3206.0475	3230.3509
CC1OC(CC#N)C=C1	C[C@H]1O[C@@H](CC#N)C=C1	
InChI=1S/C7H9NO/c1-6-2-3-7(9-6)4-5-8/h2-3,6-7H,4H2,1H3	InChI=1S/C7H9NO/c1-6-2-3-7(9-6)4-5-8/h2-3,6-7H,4H2,1H3/t6-,7-/m1/s1
