18
gdb 51221	4.74372	1.04168	0.97424	3.0846	75.83	-0.2399	-0.0232	0.2166	1225.3127	0.147744	-401.900154	-401.892367	-401.891423	-401.933324	29.341	
O	-0.5100280203	 0.4665972594	 0.4634206962	-0.241853
C	 0.2703953941	 0.9059156676	-0.3408614881	 0.15805
C	 1.2803702434	 2.0023550679	-0.0516497434	-0.396366
C	 1.2441642964	 3.0942456456	-1.0850461351	 0.320076
C	 0.0347653545	 3.8952299251	-1.5486172907	-0.287613
C	 0.8801148763	 4.1445290168	-2.8106540321	-0.00302
C	 2.0670951599	 5.0215059646	-2.3674973303	-0.239389
C	 2.4749149676	 3.7889642555	-1.5832242288	-0.083013
N	 1.7201999864	 2.859461699	-2.4986452093	-0.196978
H	 0.3094655085	 0.5222874699	-1.3841111299	 0.097372
H	 1.1020857741	 2.3926713881	 0.9555686084	 0.126228
H	 2.2758263527	 1.53616393	-0.0655119248	 0.128977
H	-0.8143651256	 3.2380589057	-1.7561499077	 0.11628
H	-0.3004234951	 4.7569480209	-0.9617710321	 0.101078
H	 0.4219717114	 4.2546428068	-3.7910456081	 0.08843
H	 2.7603985598	 5.2035536466	-3.1924315649	 0.116953
H	 1.859187103	 5.9580156507	-1.8396118386	 0.099944
H	 3.459584523	 3.5280306496	-1.2101221009	 0.094845
58.2801	70.6731	162.778	273.5662	318.428	410.1985	449.0931	494.0409	642.2021	743.374	753.9213	789.5824	802.7237	844.1324	901.7885	934.2016	947.293	995.1416	1007.2145	1019.9597	1032.6609	1053.6999	1087.7489	1128.9976	1147.8667	1182.3339	1196.1467	1220.1006	1250.023	1270.7642	1283.0099	1316.1838	1345.5134	1408.3593	1418.4127	1443.7236	1489.8355	1505.8124	1834.5555	2897.2974	3018.0991	3041.6395	3046.4011	3089.1105	3100.5217	3107.8529	3143.5283	3173.2868
O=CCC12CC3CC1N23	O=CC[C@@]12C[C@H]3C[C@@H]1N23	
InChI=1S/C7H9NO/c9-2-1-7-4-5-3-6(7)8(5)7/h2,5-6H,1,3-4H2	InChI=1S/C7H9NO/c9-2-1-7-4-5-3-6(7)8(5)7/h2,5-6H,1,3-4H2/t5-,6+,7-,8?/m1/s1
