13
gdb 14638	5.84018	0.69396	0.62505	5.2812	79.87	-0.2681	-0.0412	0.2268	1678.834	0.093646	-324.289287	-324.280381	-324.279436	-324.32494	29.139	
C	 0.0524000155	 1.5064843403	 0.0477742953	-0.496932
C	 0.0250630441	 0.0537129732	-0.0318906735	 0.086762
C	 0.0013791921	-1.1465097624	-0.0975659058	 0.071955
C	-0.0283322001	-2.6068868737	-0.1773568182	-0.512959
C	-1.3719434715	-3.1632057748	-0.0307416214	 0.137148
C	-2.4796121788	-3.6270585851	 0.0898293422	 0.016023
C	-3.732599524	-4.1521758866	 0.2261957844	 0.215528
N	-4.7978636723	-4.6006433721	 0.342016014	-0.33639
H	 0.6796262958	 1.8462494429	 0.8787413646	 0.154488
H	 0.4493604882	 1.9466434771	-0.8731177256	 0.154486
H	-0.95409849	 1.9092411724	 0.2031494642	 0.158459
H	 0.3883210567	-2.9444379057	-1.1369809352	 0.175716
H	 0.6186396143	-3.0438388255	 0.5965421051	 0.175716
19.2068	51.1815	139.7586	153.3306	196.8149	257.2642	347.8545	373.7673	380.3441	480.6805	577.5192	577.7811	730.3956	767.4433	924.2335	1052.0773	1053.9654	1143.834	1180.3833	1226.5677	1336.8896	1414.5692	1444.1786	1476.2499	1476.9963	2270.3772	2384.6007	2407.9379	3005.379	3030.7146	3032.1476	3095.3836	3096.198	19.2172	51.1815	139.7585	153.3305	196.815	257.2642	347.8538	373.7653	380.3435	480.6803	577.5193	577.7817	730.3956	767.4433	924.2333	1052.077	1053.965	1143.8339	1180.3832	1226.5675	1336.8895	1414.5689	1444.1783	1476.2494	1476.9958	2270.3769	2384.6005	2407.9378	3005.3791	3030.7146	3032.1476	3095.3836	3096.198
CC#CCC#CC#N	CC#CCC#CC#N	
InChI=1S/C7H5N/c1-2-3-4-5-6-7-8/h4H2,1H3	InChI=1S/C7H5N/c1-2-3-4-5-6-7-8/h4H2,1H3
