14
gdb 10369	2.45029	2.19454	1.40502	3.1594	67.85	-0.2503	0.0053	0.2556	889.1891	0.106958	-341.527804	-341.52014	-341.519196	-341.559818	27.909	
C	-0.011185795	-1.2399275376	-0.036815831	-0.428491
C	-0.0227902246	-0.0395185675	-0.0265870062	 0.302252
C	-0.0261308871	 1.4143142077	-0.0012960218	-0.03864
C	-0.1620177653	 2.0328265465	 1.4426796002	-0.18888
N	 1.302868016	 2.1984656337	 1.4857941455	-0.303165
C	 1.4116374007	 2.061175324	 0.0213836822	-0.188888
C	-0.9389860264	 1.9631706238	-1.0009755247	 0.23944
N	-1.652321542	 2.4286078505	-1.7819804665	-0.338592
H	-0.0039891164	-2.3020974639	-0.0497872396	 0.209013
H	-0.7417216344	 2.9639554378	 1.4159762569	 0.119536
H	-0.5737386565	 1.3616226444	 2.2000860976	 0.132701
H	 1.6272114252	 3.0811676729	 1.8625183135	 0.231475
H	 2.2200129902	 1.4119600741	-0.3231906483	 0.1327
H	 1.4253177856	 3.0029998334	-0.5412502479	 0.119539
110.0376	129.5402	181.6462	187.9078	262.1559	459.014	483.9667	532.5151	572.2639	587.3603	642.3577	655.4579	679.2498	888.9717	930.346	936.5434	993.3558	1009.4272	1058.9245	1128.6124	1131.4877	1189.4417	1265.0858	1271.9468	1352.4138	1380.5526	1502.1478	1525.1003	2246.48	2359.2179	3020.4808	3026.3122	3100.3235	3101.0249	3501.5853	3546.025
C#CC1(CNC1)C#N	C#CC1(CNC1)C#N	
InChI=1S/C6H6N2/c1-2-6(3-7)4-8-5-6/h1,8H,4-5H2	InChI=1S/C6H6N2/c1-2-6(3-7)4-8-5-6/h1,8H,4-5H2
