19
gdb 38484	3.28836	1.68558	1.53939	1.8616	77.14	-0.2189	0.0721	0.291	937.9646	0.161511	-385.839104	-385.832382	-385.831438	-385.869724	28.564	
C	-0.0099081887	 1.385156988	-0.0152583711	-0.365063
C	 1.3369585588	 0.7270990199	-0.0636006294	 0.253235
C	 1.7408549427	 0.1939881259	 1.3265017044	-0.278892
C	 0.4451530344	-0.6886032279	 1.3544201267	-0.291872
C	 0.0494739642	-0.1193307799	-0.0172667141	 0.245233
C	-0.0388308441	-0.8525590215	-1.3266135036	-0.062427
O	-0.1509952498	 0.02364137	-2.4552435002	-0.252073
C	 1.1485083267	-0.5032259055	-2.148376817	 0.050817
C	 2.0594887567	 0.4688942637	-1.3821981929	-0.344207
H	-0.3203455822	 1.9004542378	 0.8910483203	 0.101968
H	-0.3572476479	 1.8300660958	-0.9387650499	 0.136945
H	 2.6535936904	-0.4065338631	 1.3055707036	 0.101025
H	 1.8425225491	 0.9460148143	 2.1161847726	 0.098185
H	 0.6740823303	-1.7569782072	 1.3237282559	 0.10342
H	-0.2644093881	-0.5133514398	 2.1696791537	 0.098899
H	-0.5632095807	-1.8015084014	-1.4143750494	 0.092218
H	 1.5650560349	-1.1494465697	-2.920097614	 0.091869
H	 2.2514251724	 1.3711993123	-1.9728487115	 0.116755
H	 3.027788661	-0.0117612317	-1.2014715538	 0.103964
190.2705	226.7259	292.6318	367.2544	412.7467	464.2631	549.4815	643.0335	685.6702	748.0866	768.2079	788.971	799.8376	838.7234	864.3937	914.7911	937.6691	942.1521	950.8663	965.2759	977.4501	1050.7745	1086.2881	1093.2369	1105.8209	1153.7288	1199.9169	1209.5124	1232.5979	1247.8714	1251.6843	1271.0143	1283.	1314.6022	1355.524	1373.2095	1405.2592	1469.9662	1474.6961	1481.2633	1501.2707	3038.2273	3040.4864	3046.2463	3080.0857	3089.6315	3108.5073	3111.3955	3119.2682	3139.5644	3232.0157
C1C23CCC12C1OC1C3	C1[C@@]23CC[C@@]12[C@H]1O[C@H]1C3	
InChI=1S/C8H10O/c1-2-8-4-7(1,8)3-5-6(8)9-5/h5-6H,1-4H2	InChI=1S/C8H10O/c1-2-8-4-7(1,8)3-5-6(8)9-5/h5-6H,1-4H2/t5-,6-,7-,8-/m0/s1
