19
gdb 73701	2.72693	1.91903	1.32826	0.9953	74.49	-0.2382	0.074	0.3122	981.8984	0.160333	-422.961188	-422.953912	-422.952968	-422.992448	29.658	
C	 0.022056492	 1.5398978235	-0.0654117079	-0.488297
C	-0.0044805473	 0.0223970357	-0.0177067264	 0.312649
C	 0.3435433429	-0.6181450031	-1.3647110282	-0.157852
O	-0.1439336761	-1.9394669626	-1.492371924	-0.244855
C	 0.0865928457	-2.7188707589	-0.3334986541	-0.121324
C	-0.2271037315	-1.9333274138	 0.9297127373	-0.032539
C	 0.5962828399	-0.6610477236	 1.2509378539	-0.00098
O	-0.5370525704	-0.1596287229	 2.0545374511	-0.31749
C	-1.1381224577	-0.6791612349	 0.807127478	 0.006386
H	 0.9998791969	 1.9012707032	-0.4051499164	 0.114892
H	-0.7290377569	 1.922446067	-0.7655287837	 0.116502
H	-0.1775268902	 1.9548172056	 0.9235107547	 0.143754
H	-0.1136800346	-0.0511193048	-2.1821641174	 0.110979
H	 1.4381653007	-0.582801516	-1.5136281322	 0.088415
H	-0.5670357066	-3.5925996361	-0.4210445925	 0.114632
H	 1.1277682104	-3.0864351711	-0.3022306923	 0.090345
H	-0.4305806428	-2.5525627853	 1.8050901488	 0.086144
H	 1.5973535513	-0.5703781094	 1.6774859356	 0.086241
H	-2.2216094959	-0.6096518625	 0.7030560755	 0.092395
186.7089	206.7088	224.8345	316.5065	336.7323	367.3601	444.5607	492.7998	612.2256	664.4516	744.7748	773.6383	783.6013	852.3989	880.911	897.3258	935.1918	958.5074	995.3154	1022.1535	1048.3575	1087.4906	1098.0933	1148.8832	1158.352	1162.1394	1200.4221	1213.1986	1240.642	1258.9395	1267.4219	1293.875	1309.8701	1367.3035	1388.6679	1400.3863	1428.5426	1489.2406	1499.1036	1504.4673	1508.1521	2941.2123	2950.9277	3030.6202	3068.2654	3071.6872	3085.6912	3096.029	3105.4652	3116.2132	3141.6457
CC12COCC3C1OC23	C[C@@]12COC[C@H]3[C@@H]1O[C@@H]23	
InChI=1S/C7H10O2/c1-7-3-8-2-4-5(7)9-6(4)7/h4-6H,2-3H2,1H3	InChI=1S/C7H10O2/c1-7-3-8-2-4-5(7)9-6(4)7/h4-6H,2-3H2,1H3/t4-,5-,6+,7+
