22
gdb 117358	2.72859	0.82465	0.668	2.4106	83.31	-0.2409	-0.0147	0.2261	1741.5102	0.192607	-404.344772	-404.334333	-404.333389	-404.382282	36.765	
C	 1.079483833	 1.1230430817	 0.0635261988	-0.388619
C	 0.1598024164	-0.0795587303	-0.1602238895	-0.15682
C	 0.7297523177	-1.0787484546	-1.1670672188	-0.295842
C	-0.1650714229	-2.2851981437	-1.4146050234	 0.367613
O	-1.2247103399	-2.4275591007	-0.8486328298	-0.297101
C	 0.3385986129	-3.3340428755	-2.4118883471	-0.31573
C	 1.5529618585	-4.0880410864	-1.9011550065	 0.024928
C	 2.499221303	-4.732366501	-2.8430522053	-0.246162
N	 2.9154961113	-3.5500790301	-2.064196352	-0.311223
H	 2.0591586666	 0.8118913097	 0.4434886339	 0.115629
H	 1.2486207484	 1.6763838829	-0.8674409789	 0.110869
H	 0.6482899824	 1.8197684283	 0.7887888913	 0.115898
H	-0.0230622469	-0.597170015	 0.7873251022	 0.113415
H	-0.8236955639	 0.254966083	-0.5071777229	 0.110702
H	 0.9165013288	-0.593342038	-2.1370592742	 0.109869
H	 1.7127056303	-1.4480455663	-0.8418009546	 0.143112
H	-0.4882826723	-4.0282752012	-2.5902901834	 0.127374
H	 0.5908118618	-2.8474295977	-3.3637416177	 0.099919
H	 1.4030480411	-4.5661478935	-0.9346829341	 0.107065
H	 2.9953428447	-5.6593742789	-2.570923156	 0.124266
H	 2.3134834066	-4.6143432676	-3.9077821328	 0.113469
H	 2.8910552525	-2.7283100652	-2.6641408892	 0.22737
28.0945	59.0107	74.7571	83.5895	159.9224	178.7875	247.8001	310.3686	341.7035	359.3723	438.0619	538.3559	630.2401	740.3862	784.7197	819.6148	832.0335	865.4335	907.1612	932.6407	939.6089	975.7136	1032.2023	1051.6548	1061.5433	1113.1831	1128.2843	1143.113	1165.4637	1201.2208	1242.4689	1254.4255	1264.8262	1301.4816	1306.7684	1321.935	1329.1185	1393.3491	1414.5979	1416.6913	1455.2598	1461.9077	1486.6725	1500.9352	1507.9199	1511.9684	1807.283	3001.6559	3020.063	3027.5287	3036.8246	3049.9986	3075.0484	3090.4192	3099.8107	3103.5271	3109.0099	3125.7558	3194.9174	3488.3991
CCCC(=O)CC1CN1	CCCC(=O)C[C@H]1CN1	
InChI=1S/C7H13NO/c1-2-3-7(9)4-6-5-8-6/h6,8H,2-5H2,1H3	InChI=1S/C7H13NO/c1-2-3-7(9)4-6-5-8-6/h6,8H,2-5H2,1H3/t6-/m0/s1
