17
gdb 119870	3.4468	0.98241	0.81434	3.5692	71.72	-0.2629	-0.0418	0.2211	1376.9392	0.136162	-459.009422	-459.000786	-458.999841	-459.043594	30.983	
O	 0.1043330725	 1.4257803911	-0.0548182444	-0.412604
C	 0.0616036642	 0.0111047834	-0.0691453415	-0.066503
C	-1.3643011462	-0.5255911158	 0.1717634942	-0.326355
C	-1.4226737237	-2.0175629411	 0.1393825266	 0.173004
C	-1.5932760223	-2.919111832	 1.1086761554	-0.21659
C	-1.5559729617	-4.2984658434	 0.5224253945	-0.127901
O	-1.3456226429	-4.1035250779	-0.8748827937	-0.225355
C	-1.2615884084	-2.7625313591	-1.1419306114	 0.404792
O	-1.0881239864	-2.3298224875	-2.2483012141	-0.35551
H	-0.3159552081	 1.7415390318	-0.8610732527	 0.286732
H	 0.4518316332	-0.4015724319	-1.0087635622	 0.121201
H	 0.7195238074	-0.3202015431	 0.7411333908	 0.11191
H	-1.7338452195	-0.1413824033	 1.1268759256	 0.113954
H	-2.0132588054	-0.1326117604	-0.6214096821	 0.1177
H	-1.7455111966	-2.7325626083	 2.164306759	 0.126319
H	-0.739929021	-4.9121240428	 0.925080138	 0.137583
H	-2.4939160049	-4.8491317597	 0.6691349778	 0.137622
64.5719	87.1942	117.5176	197.1703	267.4444	300.0857	310.4535	355.0896	450.7116	538.6285	667.5709	766.6133	775.1546	795.9658	814.1275	850.4406	951.2048	1015.9127	1029.5516	1034.4195	1073.8354	1089.0594	1092.0848	1161.391	1200.8251	1216.5142	1295.7361	1311.7816	1350.8022	1372.411	1405.098	1413.1937	1476.017	1494.1665	1512.321	1712.9163	1856.6313	3021.2948	3024.0787	3030.5257	3055.4252	3075.4827	3100.1569	3217.9893	3818.4453
OCCC1=CCOC1=O	OCCC1=CCOC1=O	
InChI=1S/C6H8O3/c7-3-1-5-2-4-9-6(5)8/h2,7H,1,3-4H2	InChI=1S/C6H8O3/c7-3-1-5-2-4-9-6(5)8/h2,7H,1,3-4H2
