14
gdb 43406	2.85764	1.52451	1.02714	6.7483	69.64	-0.2615	-0.0804	0.1811	1079.072	0.10097	-436.70589	-436.69825	-436.697306	-436.738481	27.833	
O	-0.0344446864	-0.055675039	-0.1068300745	-0.29507
C	-0.0553214184	 1.1410124169	 0.0520346543	 0.364007
C	-1.2846566708	 1.9396075062	 0.1809835296	-0.147726
C	-1.2275080327	 3.2696275097	 0.3148091167	-0.068158
C	 0.0741899236	 3.9967959943	 0.460265401	-0.126841
O	 1.1417049523	 3.1481074984	 0.8357748123	-0.249519
C	 1.2448105081	 1.9914251245	 0.026294794	-0.143807
C	 2.4049430383	 1.2203550226	 0.4779132561	 0.304182
N	 3.3274102107	 0.6194079138	 0.8229406066	-0.306264
H	-2.2199378764	 1.3953272225	 0.1049474418	 0.130012
H	-2.1314121612	 3.8737586069	 0.3191988928	 0.12974
H	 0.3077462186	 4.5325872163	-0.479173865	 0.123509
H	 0.0041941586	 4.7536755628	 1.2480574144	 0.146452
H	 1.4141829457	 2.2685703641	-1.03141262	 0.139485
68.6311	147.2418	170.2837	283.4056	316.494	379.6291	430.408	473.6346	534.7402	571.0446	627.117	729.9431	802.8689	893.1328	914.5223	975.1797	1016.3158	1038.1037	1066.5656	1117.4134	1169.146	1229.113	1263.7662	1298.5845	1345.8889	1392.2909	1405.5897	1474.0051	1684.4929	1804.391	2379.4028	2935.4219	2938.0174	3078.6423	3165.8779	3199.2148
O=C1C=CCOC1C#N	O=C1C=CCO[C@H]1C#N	
InChI=1S/C6H5NO2/c7-4-6-5(8)2-1-3-9-6/h1-2,6H,3H2	InChI=1S/C6H5NO2/c7-4-6-5(8)2-1-3-9-6/h1-2,6H,3H2/t6-/m0/s1
