23
gdb 107698	3.25886	1.25723	1.08964	0.0601	90.63	-0.2716	0.0943	0.3659	1248.5852	0.205305	-351.0983	-351.089388	-351.088444	-351.131486	35.242	
C	 0.0145669862	 1.5348715738	 0.0538067335	-0.377544
C	-0.0759843876	 0.0074766516	-0.0546364103	-0.316673
C	-1.4937549797	-0.5050352518	-0.0522328637	 0.381796
C	-2.6272596771	-0.2020383023	-1.057245462	-0.357471
C	-3.2793017087	-1.1642546081	-0.0438023299	 0.357212
C	-4.6887118303	-1.6903893797	-0.0305134348	-0.518818
C	-1.9547482158	-1.9999047631	 0.1133271545	-0.128265
C	-1.9863716081	-1.9002628361	 1.6510831999	-0.278527
C	-2.4953963702	-0.5294194954	 1.1649931366	-0.113555
H	 1.0557293179	 1.8714229027	 0.0396252138	 0.110203
H	-0.5051763901	 2.0221038901	-0.7777929532	 0.118623
H	-0.4406853282	 1.8917185917	 0.9837268529	 0.116527
H	 0.4207457678	-0.3247724909	-0.9762842891	 0.095946
H	 0.4781829059	-0.4545953686	 0.7729183367	 0.097183
H	-3.013235946	 0.8239236401	-1.0789970567	 0.083205
H	-2.4926876838	-0.5790655571	-2.0784616391	 0.081014
H	-4.9080711013	-2.2514360467	-0.9460603717	 0.117147
H	-4.8588874012	-2.3596282052	 0.8201919651	 0.118207
H	-5.4141700404	-0.8717783728	 0.038447115	 0.117016
H	-1.6479434778	-2.8357919973	-0.5202150673	 0.059379
H	-2.7057091068	-2.5385176401	 2.1743007985	 0.088073
H	-1.0227028312	-1.9170560535	 2.1699941092	 0.088984
H	-2.8182411735	 0.3353605986	 1.7495398722	 0.060338
83.0911	142.3528	191.4539	210.6291	256.3156	275.8539	297.8286	387.7969	428.5717	488.0395	583.0839	648.8359	706.8178	758.3061	785.1068	861.7666	863.5499	895.978	909.7107	954.2204	965.6232	993.9977	1017.1431	1019.4753	1055.3567	1059.1482	1096.8593	1123.5861	1130.4977	1152.2173	1164.4437	1164.9466	1190.1833	1211.4305	1236.1477	1269.0971	1297.1424	1314.3658	1349.7053	1385.1041	1409.1547	1411.9532	1477.9788	1486.2121	1492.3373	1499.7908	1506.8032	1512.6942	1515.2058	3011.4042	3017.4947	3023.0044	3033.7581	3038.0885	3043.607	3071.8873	3078.9749	3086.2935	3086.582	3089.4856	3092.6765	3102.537	3104.8174
CCC12CC3(C)C1CC23	CC[C@@]12C[C@@]3(C)[C@@H]1C[C@@H]23	
InChI=1S/C9H14/c1-3-9-5-8(2)6(9)4-7(8)9/h6-7H,3-5H2,1-2H3	InChI=1S/C9H14/c1-3-9-5-8(2)6(9)4-7(8)9/h6-7H,3-5H2,1-2H3/t6-,7+,8-,9+
