15
gdb 28106	5.27815	1.27922	1.03632	2.1593	75.73	-0.1937	0.0032	0.1969	1097.3357	0.115241	-416.853519	-416.846317	-416.845373	-416.885164	27.358	
C	-0.0160463824	 1.4761397143	 0.0660318491	-0.502597
C	-0.0012026795	-0.0119515446	-0.0495498087	 0.339269
C	-0.0512663143	-0.8070295556	-1.1878452623	-0.424095
C	-0.0058117134	-2.1329769636	-0.6996943822	 0.331566
C	 0.067732968	-2.1208342005	 0.6682575691	 0.30497
N	 0.071362964	-0.8159571831	 1.0831446413	-0.44009
N	 0.1130498635	-3.3935631439	 1.1820880134	-0.358695
C	 0.0651151454	-4.1217730748	 0.1034354697	 0.035323
O	-0.0084796606	-3.4444442779	-1.0880532073	-0.209017
H	 0.8898994932	 1.86212756	 0.5501791175	 0.130899
H	-0.0759133457	 1.9245863296	-0.9279508076	 0.141017
H	-0.875316228	 1.8371320256	 0.6452255586	 0.130907
H	-0.1109930264	-0.4445718017	-2.2009974042	 0.109165
H	 0.1179436366	-0.4817192523	 2.029748869	 0.265967
H	 0.0765148198	-5.1974211315	 0.0344968146	 0.145412
105.9276	148.2842	253.2318	279.6263	345.1536	412.5217	502.2459	556.0474	630.2454	634.1522	753.8482	765.1867	769.1702	784.0052	825.6474	937.2893	988.0028	1008.8366	1059.8466	1078.1624	1143.048	1168.1023	1253.6588	1303.4181	1388.9683	1413.886	1459.028	1478.0204	1496.9976	1506.6437	1536.4835	1561.7613	1603.5781	3016.5641	3060.7199	3125.9466	3264.103	3284.7585	3681.7691
CC1=CC2=C(N1)N=CO2	Cc1cc2c([nH]1)nco2	
InChI=1S/C6H6N2O/c1-4-2-5-6(8-4)7-3-9-5/h2-3,8H,1H3	InChI=1S/C6H6N2O/c1-4-2-5-6(8-4)7-3-9-5/h2-3,8H,1H3
