19
gdb 38785	2.86786	1.95079	1.63125	1.374	76.63	-0.2231	0.0738	0.2969	902.2704	0.162693	-385.837455	-385.831031	-385.830087	-385.867807	27.856	
C	 0.0265101449	 1.5524078891	-0.1841828102	-0.342953
C	 1.3144387176	 0.7741406214	-0.0414866641	 0.120143
O	 2.1496040562	 0.8531059481	 1.0795394824	-0.269223
C	 1.6522709995	 0.3848212802	 2.323989756	 0.105559
C	 0.458106438	 1.1672827258	 2.9727525437	-0.269869
C	-0.4301982993	-0.0511972046	 2.7312508266	-0.085426
C	-0.3269333879	-0.6304491936	 1.335526828	-0.034712
C	-0.0001652742	 0.0473791931	 0.0296284935	-0.077276
C	 0.7861764335	-0.887460835	 2.3135274213	-0.107248
H	-0.3039133889	 2.199205655	 0.6160615419	 0.122006
H	-0.2189639459	 1.9165797281	-1.176585567	 0.108018
H	 1.9257414294	 0.6575470584	-0.9301992747	 0.096433
H	 2.5306178072	 0.3323403294	 2.967531626	 0.087904
H	 0.6464659172	 1.3025576797	 4.0419150587	 0.102367
H	 0.1823289233	 2.1349478679	 2.5508596168	 0.101577
H	-1.2472232562	-0.3565671862	 3.3745458687	 0.085577
H	-0.9978187412	-1.4769481523	 1.2190486966	 0.08759
H	-0.2664724325	-0.5530041995	-0.8348496578	 0.085581
H	 1.1052937292	-1.875053525	 2.6216960337	 0.08395
198.1791	226.0928	360.624	427.967	457.1085	517.6432	579.7986	685.9076	715.3889	757.4707	769.4671	801.6903	836.7905	864.6269	873.0117	921.202	967.6497	977.8785	986.8305	993.8594	1021.4717	1047.9631	1065.8748	1074.2155	1085.3648	1106.6949	1127.5627	1152.9752	1164.9495	1191.9377	1225.1517	1248.2214	1258.8471	1299.8096	1343.287	1368.0551	1386.08	1420.6025	1433.3547	1476.4491	1509.8412	3060.8289	3106.0764	3116.2594	3136.1021	3142.0213	3150.7626	3162.2077	3175.6593	3191.2824	3244.8528
C1C2OC3CC4C(C12)C34	C1[C@H]2O[C@H]3C[C@H]4[C@@H]([C@@H]12)[C@@H]34	
InChI=1S/C8H10O/c1-3-5(1)9-6-2-4-7(3)8(4)6/h3-8H,1-2H2	InChI=1S/C8H10O/c1-3-5(1)9-6-2-4-7(3)8(4)6/h3-8H,1-2H2/t3-,4-,5+,6-,7+,8+/m0/s1
