20
gdb 82322	2.51169	1.72529	1.28543	2.082	77.22	-0.2377	0.072	0.3096	1040.409	0.17331	-403.118844	-403.11105	-403.110106	-403.150772	31.787	
O	 0.5743073368	 0.5782322161	-0.8677674399	-0.431418
C	 0.1498952173	-0.4473378814	 0.0148590726	 0.043033
C	 0.6068109328	-0.3186479631	 1.4560949154	-0.070378
C	-0.1658241756	 0.6381684917	 2.3412662931	-0.306913
C	-0.5049455949	-0.8305013144	 2.3477829622	-0.033341
C	-1.6626605676	-1.28204034	 1.4639110074	-0.286663
C	-1.3780582342	-0.616615262	 0.1209598261	 0.317319
C	-2.288968751	 0.3765410751	-0.5041160217	-0.289391
N	-2.171894289	-0.9897660208	-1.0488789043	-0.387018
H	 0.4386037149	 1.4179475379	-0.4144015691	 0.281482
H	 0.5733300079	-1.366646853	-0.4123655679	 0.09283
H	 1.6501724697	-0.5063397144	 1.6817487705	 0.088228
H	 0.3587964221	 1.0322273918	 3.2044763489	 0.113133
H	-0.8677020862	 1.3355200687	 1.8939763499	 0.113846
H	-0.2764348221	-1.405554128	 3.2377848123	 0.086085
H	-1.6424755945	-2.3723957272	 1.3482455122	 0.109735
H	-2.6470958301	-1.0158422504	 1.8622122349	 0.103456
H	-3.2425428819	 0.6022395091	-0.0333849541	 0.112586
H	-1.8487319023	 1.1891721617	-1.0740976906	 0.108898
H	-1.577722872	-0.9588089572	-1.876548158	 0.234491
99.8525	193.6078	257.7442	286.3774	350.4957	365.3419	392.8228	439.4449	534.0633	587.243	607.4348	757.9683	788.6899	833.6268	860.573	900.6719	912.7916	928.0511	950.7017	981.1499	1014.7893	1030.841	1060.58	1068.4449	1084.6127	1096.2665	1112.0821	1122.5209	1139.0143	1189.8483	1202.2621	1264.9113	1285.5814	1300.4942	1304.2916	1318.2428	1356.2381	1386.3455	1402.1667	1432.9587	1483.3866	1494.5477	1501.7815	3017.7919	3034.6008	3075.2956	3107.9553	3126.8634	3170.5301	3179.0595	3197.3647	3213.2262	3470.5302	3800.2337
OC1C2CC2CC11CN1	O[C@H]1[C@H]2C[C@H]2C[C@]21CN2	
InChI=1S/C7H11NO/c9-6-5-1-4(5)2-7(6)3-8-7/h4-6,8-9H,1-3H2	InChI=1S/C7H11NO/c9-6-5-1-4(5)2-7(6)3-8-7/h4-6,8-9H,1-3H2/t4-,5-,6-,7+/m0/s1
