24
gdb 101324	2.9504	0.77699	0.74035	2.2067	86.05	-0.246	0.0721	0.3181	1703.0832	0.216481	-405.526388	-405.515511	-405.514566	-405.563129	39.603	
C	-3.4159626223	 1.9147561944	 1.2930993741	-0.394046
C	-2.9611692861	 0.5792275257	 0.6971389553	-0.1672
C	-2.9799854954	-0.6050693004	 1.6836117028	 0.035896
C	-4.3940119424	-0.964686685	 2.1620369325	-0.399749
C	-2.3261063869	-1.8111783824	 1.0338547348	-0.020098
N	-0.8552325242	-1.8386595574	 0.9606074702	-0.359536
C	-1.5639257687	-2.8768579645	 1.7417963596	-0.046759
C	-1.2310028373	-2.8816149336	 3.2164731755	-0.066699
O	 0.118770893	-3.263874414	 3.4248535148	-0.423751
H	-3.3172716766	 2.7215950171	 0.560108027	 0.112298
H	-4.4626287469	 1.889901842	 1.6119258345	 0.116425
H	-2.8092057669	 2.1840403652	 2.1650312044	 0.115615
H	-3.5877530043	 0.3315025393	-0.1715681051	 0.085888
H	-1.9370804674	 0.6841546407	 0.3200589864	 0.107107
H	-2.3754916614	-0.3172511001	 2.5518834359	 0.077454
H	-4.372350128	-1.8086570016	 2.8590208566	 0.115919
H	-4.8736935344	-0.1250477815	 2.6721796457	 0.118213
H	-5.0332042679	-1.2487370185	 1.3170722337	 0.111094
H	-2.857685046	-2.1519872754	 0.142972712	 0.07756
H	-0.5442159044	-2.2125254406	 0.0687788721	 0.232349
H	-1.6036327727	-3.8718601704	 1.300507724	 0.086941
H	-1.4357003726	-1.8977309561	 3.6604827669	 0.090815
H	-1.8468288789	-3.6187961616	 3.7427371041	 0.105952
H	 0.6431943287	-2.6621755113	 2.8825478724	 0.288314
46.6418	67.6887	89.7936	125.8171	179.683	213.1494	235.322	255.8881	293.343	358.8988	400.5879	446.6584	471.662	512.4552	581.4734	773.5353	812.3705	820.2257	858.2073	918.9128	953.4897	974.4137	982.1249	996.9611	1004.4483	1047.9568	1068.1502	1080.4145	1143.4603	1161.2673	1183.4471	1185.8681	1240.819	1270.201	1273.9936	1295.7437	1304.8166	1352.3131	1361.435	1381.2432	1404.7982	1409.1468	1415.83	1442.5731	1476.9013	1485.2815	1495.7952	1499.3732	1502.5612	1506.0322	1510.5108	3006.4945	3008.3768	3028.1968	3033.1754	3038.785	3057.8651	3072.1947	3081.7116	3093.7065	3098.69	3103.9125	3113.6948	3118.2788	3509.5814	3785.8137
CCC(C)C1NC1CO	CC[C@@H](C)[C@H]1N[C@H]1CO	
InChI=1S/C7H15NO/c1-3-5(2)7-6(4-9)8-7/h5-9H,3-4H2,1-2H3	InChI=1S/C7H15NO/c1-3-5(2)7-6(4-9)8-7/h5-9H,3-4H2,1-2H3/t5-,6+,7-/m1/s1
