16
gdb 22473	3.27929	0.73364	0.60399	0.9034	90.41	-0.2288	-0.0504	0.1783	1801.0594	0.120572	-400.647549	-400.63737	-400.636426	-400.684078	35.51	
C	-0.0366628407	 1.5532727555	 0.010753721	-0.367159
C	-0.0496045598	 0.0136840418	 0.0026431925	-0.324796
C	-1.3946171121	-0.5463081817	 0.0124092524	 0.138296
C	-2.5113250981	-1.0021861958	 0.0204960761	-0.020154
C	-3.8491911484	-1.4919755392	 0.0304169116	 0.091316
N	-4.0201696613	-2.7775949525	 0.0253280692	-0.1748
O	-5.3587974709	-3.1190250989	 0.0363524446	-0.371855
C	-4.914984901	-0.540585245	 0.0457559284	 0.346971
C	-5.7949607963	 0.2795159349	 0.0587016145	-0.498644
H	 0.9928369724	 1.9225317773	 0.0029733024	 0.11807
H	-0.5532037626	 1.9511055054	-0.866678275	 0.132754
H	-0.5364424361	 1.9416433126	 0.9020232795	 0.132753
H	 0.4871853283	-0.3565177279	-0.8804793579	 0.137038
H	 0.5037850388	-0.3658852898	 0.8714250885	 0.137035
H	-5.3257870998	-4.0825842545	 0.0310388881	 0.315386
H	-6.5755281725	 0.9998465379	 0.0705440242	 0.207789
27.7654	62.6599	108.4807	149.7341	183.2327	218.7937	265.4453	314.6663	367.9503	437.2012	448.4418	485.569	518.6501	585.932	623.0954	641.1064	698.3126	758.7177	784.6003	892.3831	1005.0243	1069.1539	1089.3687	1101.5595	1282.5028	1294.2406	1347.8776	1408.0418	1411.9218	1471.261	1495.0597	1505.3563	1621.1704	2226.7734	2353.7308	3020.0517	3047.3235	3047.3993	3121.6504	3126.7777	3499.719	3806.2609
CCC#CC(=NO)C#C	CCC#CC(=NO)C#C	
InChI=1S/C7H7NO/c1-3-5-6-7(4-2)8-9/h2,9H,3H2,1H3	InChI=1S/C7H7NO/c1-3-5-6-7(4-2)8-9/h2,9H,3H2,1H3
