20
gdb 122051	3.11427	0.71263	0.60331	4.4157	77.91	-0.2466	-0.0443	0.2023	1845.5309	0.166674	-440.285805	-440.274814	-440.27387	-440.324103	36.715	
C	 0.2458035977	 1.4853439292	 0.2712968384	-0.381446
C	 0.1090038594	-0.0044700253	-0.0518621045	-0.187214
C	-1.3256921295	-0.5081609151	 0.0906640276	-0.109378
N	-1.4145046621	-1.9389120305	-0.2047744744	-0.332329
C	-2.7544777671	-2.489462642	-0.1154302144	-0.131436
C	-2.8156202514	-3.807764401	-0.8876367394	 0.14347
O	-3.4737003006	-4.7588971537	-0.5695042955	-0.222106
C	-3.1273795904	-2.7383494222	 1.3483313433	 0.183042
O	-4.17364105	-2.4227103194	 1.8431435321	-0.233244
H	 1.2812681523	 1.8191179431	 0.1590722431	 0.119355
H	-0.3750287434	 2.0965807576	-0.3926835283	 0.118726
H	-0.062373412	 1.6970139932	 1.3008541178	 0.121873
H	 0.4541508842	-0.1904908732	-1.0786165304	 0.09368
H	 0.7560208105	-0.59840674	 0.6034328954	 0.11348
H	-1.6685508889	-0.3516547245	 1.1215521702	 0.117127
H	-1.9995322181	 0.0899636863	-0.5511679844	 0.086551
H	-1.0192012182	-2.122427463	-1.1226625245	 0.218587
H	-3.5417902256	-1.8398523548	-0.5477979491	 0.105789
H	-2.1874548291	-3.8148648659	-1.8108387132	 0.081387
H	-2.3151564077	-3.2339018787	 1.92308802	 0.094087
43.4723	50.0235	64.6673	76.8033	130.4483	135.7859	208.0376	239.8857	282.0569	320.7616	360.8559	434.8856	563.9213	606.4791	731.863	760.7178	830.5996	899.0868	913.3762	959.5712	1038.1498	1063.175	1075.2188	1086.6925	1152.1031	1160.2078	1181.9409	1253.6439	1283.5048	1297.1385	1324.1146	1336.3249	1396.6226	1412.1984	1415.3808	1419.4496	1489.6645	1499.2326	1502.432	1505.7259	1522.5783	1826.6476	1858.5063	2843.0701	2903.85	2911.4137	2929.2017	3011.2443	3034.0567	3039.4718	3066.5248	3101.5141	3110.3436	3496.6492
CCCNC(C=O)C=O	CCCNC(C=O)C=O	
InChI=1S/C6H11NO2/c1-2-3-7-6(4-8)5-9/h4-7H,2-3H2,1H3	InChI=1S/C6H11NO2/c1-2-3-7-6(4-8)5-9/h4-7H,2-3H2,1H3
