12
gdb 132076	2.36906	1.83636	1.03448	4.0733	63.31	-0.2224	-0.0509	0.1715	1010.9339	0.076344	-521.887936	-521.880881	-521.879937	-521.919657	26.465	
F	 0.013663534	 0.0216448269	 0.0033686539	-0.046782
C	-0.0259435794	 1.3474448788	 0.0107684459	 0.188021
C	-1.2051354107	 2.0058286298	 0.0304243814	 0.048389
F	-2.3609648784	 1.3628139011	 0.0430408634	-0.033332
C	-1.2591126278	 3.4586166174	 0.0386649153	 0.310962
N	-2.3395933432	 4.1164234364	 0.0569802552	-0.529271
O	-0.0142615972	 4.0949870196	 0.024824636	-0.238273
C	 1.1490855452	 3.4100327163	 0.0052445386	 0.084454
C	 1.2124135469	 2.0696695014	-0.0025676887	-0.30548
H	-2.1572860057	 5.119408166	 0.0596629227	 0.230771
H	 2.0036826773	 4.073387964	-0.0031005858	 0.151811
H	 2.1556644291	 1.5428918124	-0.0182981781	 0.138728
113.8983	183.931	280.9532	288.8929	328.848	476.9436	497.8654	511.1404	551.7569	631.6869	695.9524	722.9124	764.1144	827.286	853.8392	914.3757	954.5875	1056.1559	1142.9273	1226.2772	1250.6988	1307.2104	1379.4416	1459.6901	1636.0475	1724.9491	1748.1568	3227.102	3247.6	3505.756
FC1=C(F)C(=N)OC=C1	FC1=CCOC(=C1F)[NH]	
InChI=1S/C5H3F2NO/c6-3-1-2-9-5(8)4(3)7/h1-2,8H	InChI=1S/C5H4F2NO/c6-3-1-2-9-5(8)4(3)7/h1,8H,2H2
