21
gdb 61257	3.58812	0.87664	0.76088	2.0043	84.82	-0.2467	0.0573	0.3041	1532.472	0.180474	-387.044054	-387.034101	-387.033157	-387.079574	36.235	
C	-0.0656988669	 1.6719033941	-0.0083105165	-0.405741
C	 0.032027067	 0.1437709727	-0.0542961559	 0.007649
C	-1.3550699759	-0.5372093233	 0.045051531	-0.36582
C	-2.0391123451	-0.277194986	 1.3051136841	 0.301252
C	-2.5831466853	-0.0527980305	 2.3537797785	-0.447487
C	 0.729677967	-0.3186789797	-1.3275082092	 0.160491
C	 2.2573953534	-0.1108591647	-1.4439945637	-0.302806
C	 2.3080761683	-1.641907578	-1.6129539979	-0.06434
O	 0.8878385544	-1.7585223227	-1.3866334816	-0.297771
H	 0.9250754658	 2.1365688241	-0.0387654614	 0.11462
H	-0.641735022	 2.0548845746	-0.8592722761	 0.113719
H	-0.5656855025	 1.9972443882	 0.9074372239	 0.13612
H	 0.6312277343	-0.204093025	 0.7970460874	 0.083539
H	-1.9841443463	-0.1977455771	-0.7898365652	 0.121917
H	-1.2189472517	-1.6163669799	-0.087170479	 0.15291
H	-3.0757606738	 0.1349277808	 3.2752919523	 0.191284
H	 0.169508701	 0.0394772091	-2.2057303867	 0.069011
H	 2.6021981663	 0.4808669234	-2.2927368194	 0.111463
H	 2.7257042717	 0.262956645	-0.5307768484	 0.111452
H	 2.5892798218	-1.9889449501	-2.6153280601	 0.102162
H	 2.8890238786	-2.2001576251	-0.8698784862	 0.106375
56.1918	85.714	96.0855	121.0647	191.685	225.3765	291.5107	336.5449	357.7437	398.8829	449.762	549.385	611.085	634.4275	753.2394	815.7528	849.226	885.7317	894.6833	949.1024	964.9605	974.457	1016.1626	1032.4171	1080.732	1107.9977	1127.1598	1164.93	1182.2632	1212.9176	1244.3614	1254.6128	1284.1712	1289.2729	1342.3542	1357.7403	1364.9472	1400.7205	1412.6998	1473.832	1488.9945	1498.0687	1502.3024	1530.9806	2235.6318	2974.5657	3011.1351	3016.2078	3027.4133	3033.2724	3058.101	3070.3389	3075.1051	3094.709	3120.1992	3132.8148	3506.9732
CC(CC#C)C1CCO1	C[C@@H](CC#C)[C@H]1CCO1	
InChI=1S/C8H12O/c1-3-4-7(2)8-5-6-9-8/h1,7-8H,4-6H2,2H3	InChI=1S/C8H12O/c1-3-4-7(2)8-5-6-9-8/h1,7-8H,4-6H2,2H3/t7-,8+/m0/s1
