17
gdb 99049	3.72311	0.81605	0.73629	2.7276	72.28	-0.2718	-0.0013	0.2705	1536.5924	0.131932	-458.957075	-458.946903	-458.945959	-458.99331	35.481	
C	-0.0218876744	 1.5493464969	-0.0518211332	-0.401208
C	 0.0011124015	 0.0201225	-0.0387914051	-0.061422
O	 0.6554596759	-0.4656807639	-1.2499152047	-0.244544
C	-0.131181763	-0.6857644976	-2.3079539809	 0.423528
O	-1.3271102188	-0.5060354188	-2.3428705624	-0.375934
C	 0.6494104901	-1.2063591667	-3.5016286054	-0.143592
O	-0.1945643733	-1.406936098	-4.5988270962	-0.418893
C	 0.7332361498	-0.5273722051	 1.0953180671	 0.3306
C	 1.3189671187	-0.9502428799	 2.0543122119	-0.437807
H	 0.9947552363	 1.9441136883	-0.1155476296	 0.139258
H	-0.6062108359	 1.9014407875	-0.9050170203	 0.142716
H	-0.4838461667	 1.918428161	 0.8673918487	 0.138647
H	-1.0235572493	-0.3627689479	-0.0487245071	 0.14593
H	 1.4448590148	-0.4832964682	-3.7346112114	 0.127843
H	 1.1502225664	-2.1385912355	-3.1994926441	 0.129251
H	-1.0844457021	-1.1811390966	-4.2903719216	 0.297435
H	 1.83508746	-1.3342841757	 2.8996758743	 0.208192
38.8161	70.6759	88.5296	136.2967	178.6513	229.8734	265.4997	323.9241	341.9811	374.6608	414.8886	538.4562	558.8445	591.078	630.9989	684.7712	717.1549	835.3715	898.6064	954.6518	1039.8477	1041.9073	1110.1314	1128.6042	1138.1532	1243.2296	1254.7854	1316.041	1352.0314	1365.8791	1404.205	1464.9042	1488.0226	1492.917	1497.3469	1798.2242	2247.7218	2998.1184	3020.6223	3054.7033	3075.8572	3135.2125	3142.4152	3502.3214	3724.4467
CC(OC(=O)CO)C#C	C[C@@H](OC(=O)CO)C#C	
InChI=1S/C6H8O3/c1-3-5(2)9-6(8)4-7/h1,5,7H,4H2,2H3	InChI=1S/C6H8O3/c1-3-5(2)9-6(8)4-7/h1,5,7H,4H2,2H3/t5-/m1/s1
