16
gdb 18538	3.63891	2.10257	1.62173	2.6448	69.32	-0.2389	-0.0189	0.2201	812.1742	0.131767	-346.62567	-346.61919	-346.618245	-346.656474	25.356	
O	 0.0284378929	-0.0170760184	-0.2905152258	-0.295459
C	-0.0276761666	 1.1564105513	-0.0638499218	 0.403739
C	-1.1776379032	 2.1312610482	 0.2446354661	-0.352892
C	-0.0916215569	 3.1762096631	 0.6683358239	-0.075335
C	 0.214329927	 3.2182735623	 2.1425162002	-0.072953
C	 1.3464685013	 2.5870217555	 2.4569520018	-0.057149
C	 2.0627536426	 2.0109437049	 1.2548136996	-0.274281
C	 1.0482658524	 2.2472266616	 0.1171740559	-0.137623
H	-1.7267960351	 2.4070874088	-0.6624610558	 0.127166
H	-1.8945343579	 1.803508158	 1.0021992814	 0.127302
H	-0.2111006412	 4.1653136277	 0.2192792062	 0.079045
H	-0.4426900398	 3.7061632511	 2.8549239467	 0.09579
H	 1.7447152348	 2.4923218899	 3.461615319	 0.097426
H	 3.0173860718	 2.5212334567	 1.0734185844	 0.110405
H	 2.2964373471	 0.9459596243	 1.3706217789	 0.127824
H	 1.5015207108	 2.5390420049	-0.8333978605	 0.096995
74.8482	209.4278	259.0102	418.7212	458.9352	531.0174	609.2283	717.4244	738.7453	762.9591	767.8479	853.5302	887.7808	936.6471	939.3356	979.5863	985.9445	1018.4884	1043.9083	1077.8729	1102.1997	1130.2863	1162.3552	1178.6087	1215.3135	1246.9689	1261.1829	1300.0151	1326.921	1373.0119	1436.0873	1485.2916	1677.8854	1888.3628	3022.431	3048.7952	3058.8615	3073.6474	3088.877	3109.2142	3178.2855	3203.3027
O=C1CC2C=CCC12	O=C1C[C@H]2C=CC[C@@H]12	
InChI=1S/C7H8O/c8-7-4-5-2-1-3-6(5)7/h1-2,5-6H,3-4H2	InChI=1S/C7H8O/c8-7-4-5-2-1-3-6(5)7/h1-2,5-6H,3-4H2/t5-,6-/m1/s1
