20
gdb 50091	4.24308	0.76049	0.70336	3.0273	82.57	-0.2396	-0.0292	0.2104	1624.9131	0.169669	-403.106558	-403.097417	-403.096473	-403.14145	33.494	
O	 0.1293083971	 0.0197479474	-0.7677878861	-0.265715
C	 0.0920760609	 1.0314983497	-0.110735845	 0.15817
C	 1.2655781666	 1.9186268691	 0.0923377739	-0.092635
C	 1.0224681334	 3.4070297426	 0.1416316198	-0.246439
N	 1.4598043752	 2.7078146254	 1.3179967203	-0.070432
C	 0.5438574986	 2.5828300446	 2.4565668548	-0.175903
C	 0.8514323318	 3.6514805481	 3.4790743533	 0.036749
C	 0.1775263262	 4.9993849588	 3.4055373874	-0.25393
C	-0.1880538612	 4.0305113247	 4.5020185869	-0.277076
H	-0.8504636638	 1.3655798684	 0.3761482024	 0.072976
H	 2.1807910257	 1.5418416521	-0.3570478275	 0.113634
H	 1.7381554047	 4.0688469045	-0.3385650478	 0.132231
H	-0.0156433547	 3.7384979794	 0.0924812764	 0.116405
H	-0.5181276222	 2.6569651062	 2.1709404031	 0.087465
H	 0.6956127106	 1.5879975205	 2.8923882471	 0.116335
H	 1.8846890955	 3.648677565	 3.8125424187	 0.096018
H	 0.7559916681	 5.8792862911	 3.6633009084	 0.115907
H	-0.5496464377	 5.1636493352	 2.6167299658	 0.107749
H	-1.1577624132	 3.5460380644	 4.4464452036	 0.111857
H	 0.1415431584	 4.2425454427	 5.5127309045	 0.116632
55.484	77.6839	99.4828	149.5143	247.8661	271.0364	341.4483	368.0389	424.0838	438.4661	547.9095	760.9605	775.3344	812.8231	846.4317	868.5861	909.3703	918.6504	957.6553	1009.4266	1017.1273	1046.9897	1060.5287	1080.2249	1084.7273	1113.9607	1127.8216	1139.8613	1181.6676	1196.9949	1200.1105	1227.2371	1289.6961	1309.8863	1339.2463	1359.4742	1421.0923	1447.6496	1469.5904	1486.4039	1504.1437	1512.0133	1812.2173	2885.286	2965.3273	3051.8761	3081.7909	3130.0308	3134.7657	3150.193	3157.8202	3178.1525	3208.5911	3223.5017
O=CC1CN1CC1CC1	O=C[C@H]1CN1CC1CC1	
InChI=1S/C7H11NO/c9-5-7-4-8(7)3-6-1-2-6/h5-7H,1-4H2	InChI=1S/C7H11NO/c9-5-7-4-8(7)3-6-1-2-6/h5-7H,1-4H2/t7-,8?/m1/s1
