18
gdb 53348	3.84063	0.83469	0.75771	1.7118	82.84	-0.2426	0.0255	0.2681	1569.0373	0.146356	-401.951744	-401.94202	-401.941075	-401.988997	33.228	
C	 0.2754686919	 1.5880378594	-0.2227723866	-0.49753
C	 0.1330375014	 0.1461062816	-0.0892133842	 0.042057
C	 0.0060749712	-1.0465650107	 0.0163187203	 0.102243
C	-0.1076408645	-2.4880653285	 0.1628455835	-0.083207
C	 0.4428709637	-3.0558728307	 1.5151861826	-0.198086
N	-0.7046236236	-3.707807348	 2.1482127493	-0.303752
C	-1.6918927676	-3.5610735676	 1.3633812117	 0.41036
C	-3.0819885409	-4.0506319421	 1.5853909474	-0.471623
O	-1.5058349302	-2.8958559927	 0.186620899	-0.254131
H	 0.8549222289	 1.8498360932	-1.1147215214	 0.151506
H	-0.7040873046	 2.0705866928	-0.3103128288	 0.155194
H	 0.7828418735	 2.0218585053	 0.645713243	 0.151409
H	 0.3487348759	-2.9886818419	-0.697737114	 0.113526
H	 1.2495642907	-3.7776317773	 1.3513944765	 0.115869
H	 0.8326206934	-2.2595126007	 2.1557318519	 0.123487
H	-3.1390224563	-4.5707152317	 2.5408554661	 0.151574
H	-3.7831469545	-3.2103303098	 1.5795053974	 0.146664
H	-3.3788159184	-4.7274875004	 0.7781675464	 0.144441
14.9539	34.7323	95.3471	143.8247	155.6843	231.7273	286.9471	316.0155	357.5411	450.9237	526.9783	598.5604	673.0057	728.9746	783.7181	905.4754	958.9342	965.9256	982.8463	1036.773	1050.656	1055.2893	1068.9215	1091.9779	1181.1506	1207.1029	1248.8632	1308.1489	1334.3291	1377.3684	1413.6329	1416.018	1475.2821	1475.6549	1476.4812	1478.0052	1500.4992	1747.2283	2371.5926	3028.9734	3040.0472	3049.9176	3051.0996	3088.1175	3090.9117	3091.9028	3108.7542	3166.0508	15.0039	34.7314	95.3475	143.8246	155.6845	231.7269	286.9472	316.0155	357.5409	450.9235	526.9787	598.56	673.0058	728.9748	783.7183	905.4756	958.9345	965.926	982.8459	1036.7733	1050.655	1055.2885	1068.9216	1091.9779	1181.1509	1207.1042	1248.8636	1308.1495	1334.3298	1377.3688	1413.6319	1416.018	1475.2821	1475.653	1476.4812	1478.0034	1500.5007	1747.2277	2371.5922	3028.9735	3040.0472	3049.9175	3051.0996	3088.1173	3090.9118	3091.9029	3108.7542	3166.0508
CC#CC1CN=C(C)O1	CC#C[C@H]1CN=C(C)O1	
InChI=1S/C7H9NO/c1-3-4-7-5-8-6(2)9-7/h7H,5H2,1-2H3	InChI=1S/C7H9NO/c1-3-4-7-5-8-6(2)9-7/h7H,5H2,1-2H3/t7-/m0/s1
