17
gdb 9171	8.37198	0.82763	0.76377	0.5444	70.83	-0.2609	-0.0165	0.2444	1500.1457	0.139234	-401.03967	-401.030229	-401.029285	-401.074853	31.681	
C	-0.1487253677	 1.451014114	 0.1306795365	-0.376014
C	 0.1571464522	-0.0360157742	-0.0274811024	-0.306983
C	 0.736494438	-0.3755125872	-1.3798111485	 0.460227
O	 0.956203033	 0.3946356274	-2.2743669428	-0.334254
O	 0.9862361783	-1.7252080254	-1.4512791025	-0.225824
C	 1.5187816903	-2.2236451473	-2.616177151	 0.111933
N	 1.7498465528	-3.4535784577	-2.6881483513	-0.191244
C	 2.3112922479	-3.9485546929	-3.9301614649	-0.318028
H	 0.7553144331	 2.0526249157	 0.0078346407	 0.135066
H	-0.8695168701	 1.7851977736	-0.6197161214	 0.135036
H	-0.5643135071	 1.6497213754	 1.1219717161	 0.117588
H	 0.8661668075	-0.3885358623	 0.7312373118	 0.142313
H	-0.7392816991	-0.6526492407	 0.1097176259	 0.142296
H	 1.68950866	-1.4643285374	-3.3823930036	 0.131895
H	 3.2667187418	-4.442197457	-3.7219400476	 0.134946
H	 1.6440981249	-4.7098605664	-4.3486881513	 0.134949
H	 2.4767153242	-3.1701556276	-4.6908452436	 0.106096
44.7619	77.219	93.9635	126.0849	199.6071	215.0353	252.4168	331.0505	352.9845	389.4023	566.9913	580.1321	675.0794	807.8203	890.6431	992.679	1010.656	1063.6321	1076.4231	1106.8442	1130.9522	1141.4476	1176.1331	1188.666	1277.2441	1364.7597	1385.8764	1418.1592	1447.6101	1454.3418	1480.7364	1493.822	1500.5188	1501.8624	1778.1641	1839.7077	2983.9265	3043.4923	3054.4057	3070.2356	3072.2844	3088.1959	3113.1603	3127.3096	3130.1294
CCC(=O)OC=NC	CCC(=O)OC=NC	
InChI=1S/C5H9NO2/c1-3-5(7)8-4-6-2/h4H,3H2,1-2H3	InChI=1S/C5H9NO2/c1-3-5(7)8-4-6-2/h4H,3H2,1-2H3
