17
gdb 35196	3.39439	1.23334	1.14218	3.2577	77.41	-0.2534	0.0272	0.2805	1109.9226	0.136738	-380.823547	-380.81591	-380.814966	-380.855799	29.536	
N	-0.0734735434	-1.1150066039	-0.0915234216	-0.342684
C	-0.054096316	 0.0416989777	-0.047047992	 0.291037
C	 0.0069500142	 1.4726835804	-0.001274352	-0.246006
C	 0.5562359393	 2.1763215582	 1.2436340044	-0.360733
C	 1.3635956204	 2.157314603	 0.0023341967	 0.381456
C	 2.7575741742	 1.5699070011	-0.2270158644	-0.341177
C	 2.9928633655	 2.802571291	-1.1033483289	-0.018386
C	 1.957854629	 2.9254633112	-2.1439006705	-0.236269
N	 1.6194113585	 3.3903077717	-0.7772226938	-0.171029
H	-0.7861139366	 1.9854730616	-0.5359766176	 0.140709
H	 0.071529307	 3.1086480698	 1.510729399	 0.141727
H	 0.8666486344	 1.5525752085	 2.0744091295	 0.141167
H	 3.3610107925	 1.5595372965	 0.6828034549	 0.125035
H	 2.8269201099	 0.5956526504	-0.7180668137	 0.13166
H	 3.8813888727	 3.4233963342	-1.0831737707	 0.108143
H	 2.0450042736	 3.7459441177	-2.8487644553	 0.129173
H	 1.466679345	 2.036040471	-2.532360744	 0.126176
98.831	121.3672	187.8819	282.6866	326.004	396.5973	487.6398	505.3359	548.6402	619.3721	755.5637	776.8059	799.1127	822.2536	886.5876	904.7959	929.489	956.5123	998.1145	1033.2041	1058.4553	1078.0484	1090.8999	1112.2654	1116.2089	1130.2521	1173.177	1195.992	1232.5429	1270.4508	1319.0052	1362.8731	1401.9288	1477.4055	1486.4098	1505.0418	2347.6005	3064.9965	3110.587	3120.7226	3140.2274	3167.9335	3178.4687	3207.1219	3235.7056
N#CC1CC11CC2CN12	N#C[C@H]1C[C@]21C[C@H]1CN21	
InChI=1S/C7H8N2/c8-3-5-1-7(5)2-6-4-9(6)7/h5-6H,1-2,4H2	InChI=1S/C7H8N2/c8-3-5-1-7(5)2-6-4-9(6)7/h5-6H,1-2,4H2/t5-,6+,7-,9?/m1/s1
