20
gdb 92873	2.32732	1.58486	1.156	3.6523	82.2	-0.2131	-0.0482	0.1649	1137.4735	0.170905	-403.169818	-403.160922	-403.159978	-403.203082	33.731	
C	-0.2181028098	 1.5378869008	 0.1447086788	-0.415539
C	 0.0319487445	 0.0196154965	-0.0168455323	-0.07356
N	 0.7602805035	-0.3943025542	-1.2177350766	-0.078
C	 0.0589293275	-0.1558744546	-2.4641869207	-0.322643
C	 2.1518838828	 0.0074871616	-1.2635685993	-0.197831
C	 2.8675583543	-0.2800087395	 0.0188552112	-0.055262
C	 2.2234100079	-0.5603326158	 1.1564365948	-0.149893
C	 0.7524717115	-0.4959251955	 1.2335439102	 0.374203
O	 0.1397581526	-0.7528904358	 2.2503558398	-0.340005
H	 0.7213015646	 2.0973714517	 0.2040653905	 0.119777
H	-0.8009133945	 1.9332291154	-0.6919369133	 0.119415
H	-0.7780545289	 1.7181732585	 1.0661795573	 0.140417
H	-0.9397426371	-0.4851982337	-0.0381748234	 0.10068
H	-0.0113125342	 0.909384139	-2.7502921279	 0.098036
H	 0.5709882605	-0.6821997832	-3.2774760158	 0.119087
H	-0.9581382693	-0.5542677391	-2.3940850207	 0.123529
H	 2.6433970422	-0.5427529056	-2.0782423326	 0.119168
H	 2.2969013779	 1.0816204915	-1.5147766188	 0.097648
H	 3.9537483174	-0.2534949017	-0.0153405321	 0.11256
H	 2.7435640367	-0.7986774262	 2.0786385809	 0.108212
82.872	149.0077	212.9036	219.8257	239.5151	256.9361	326.4223	341.034	408.9717	467.3392	504.1568	533.6367	650.3878	694.6241	808.648	823.2369	850.047	935.7894	992.9814	1013.2416	1030.3689	1032.3964	1077.7443	1108.3518	1152.6205	1155.8548	1179.012	1247.0067	1264.895	1301.7389	1320.0357	1371.23	1391.2335	1399.2316	1416.095	1458.1635	1477.4522	1487.1844	1496.317	1502.5847	1518.1404	1688.4257	1780.5241	2858.1206	2942.1419	3015.6561	3041.0775	3050.8634	3053.1195	3098.6669	3112.2664	3123.4389	3162.4004	3192.5873
CC1N(C)CC=CC1=O	C[C@H]1N(C)CC=CC1=O	
InChI=1S/C7H11NO/c1-6-7(9)4-3-5-8(6)2/h3-4,6H,5H2,1-2H3	InChI=1S/C7H11NO/c1-6-7(9)4-3-5-8(6)2/h3-4,6H,5H2,1-2H3/t6-/m1/s1
