20
gdb 8593	4.10937	1.82864	1.67487	0.3616	80.54	-0.2281	0.0794	0.3075	882.547	0.178424	-311.750292	-311.743376	-311.742432	-311.780851	28.7	
C	-0.1909925471	 1.6334179842	-0.1054288025	-0.409505
C	-0.0005340508	 0.1230582703	-0.0039156554	-0.010992
C	 0.9930521511	-0.5868762002	-1.0373125337	-0.356167
C	 1.9181070293	-0.8479868687	 0.1690128514	 0.306924
C	 2.6223568705	-1.7545572224	 1.2282947904	-0.30635
C	 2.1098207835	-0.4475789156	 1.991082993	-0.079407
C	 2.6851410834	 0.3563848271	 0.8133302281	-0.2384
C	 0.7826754425	-0.6274954315	 1.1689973034	-0.024794
H	 0.7436712146	 2.1859649483	-0.2219629652	 0.121844
H	-0.8150766382	 1.8727017239	-0.9745096697	 0.112926
H	-0.7012372319	 2.0200352124	 0.7832968757	 0.119225
H	-0.9950774616	-0.3297143371	-0.0565239266	 0.079696
H	 0.5466001796	-1.4876485069	-1.4677640304	 0.103597
H	 1.4003074881	 0.0293744757	-1.845124147	 0.097434
H	 2.1169124122	-2.6919583904	 1.4754649531	 0.093802
H	 3.7091573647	-1.8825653446	 1.1790905212	 0.088468
H	 2.2441844695	-0.2465506913	 3.0584943038	 0.064562
H	 3.7724657546	 0.3454131873	 0.6912101442	 0.083116
H	 2.2900825652	 1.358648848	 0.6637095112	 0.092869
H	 0.2205343109	-1.5232845085	 1.4514252851	 0.061152
157.4799	208.1285	247.1186	340.4346	387.0683	449.6655	534.5767	593.651	680.4765	742.2593	780.4656	800.8986	840.3744	864.7008	886.4882	925.74	949.0758	987.8648	1010.4685	1017.5368	1047.9156	1076.3635	1084.7873	1101.3194	1128.3238	1146.6546	1174.8182	1186.5734	1206.3206	1207.7558	1225.2065	1230.6432	1256.4187	1279.7721	1351.5851	1383.2102	1415.8728	1474.9118	1490.2864	1494.5756	1505.4357	1540.0217	3030.5256	3034.0594	3037.6373	3044.3552	3050.9982	3056.6694	3067.1484	3089.3636	3103.2575	3109.8258	3119.2648	3162.5578
CC1CC23CC(C2)C13	C[C@H]1C[C@@]23C[C@@H](C2)[C@@H]13	
InChI=1S/C8H12/c1-5-2-8-3-6(4-8)7(5)8/h5-7H,2-4H2,1H3	InChI=1S/C8H12/c1-5-2-8-3-6(4-8)7(5)8/h5-7H,2-4H2,1H3/t5-,6-,7+,8+/m0/s1
