19
gdb 94859	3.21575	1.29162	1.15935	3.545	70.87	-0.2409	0.0595	0.3004	1115.6204	0.159344	-460.139735	-460.131407	-460.130463	-460.17315	31.301	
O	-0.7182577051	 1.1326568251	 0.9265422713	-0.432501
C	-0.0976437488	 0.1566808463	 0.0983329688	 0.083474
C	 0.8529661848	-0.7599155954	 0.8803032965	-0.093033
O	 0.0485347025	-1.7894447079	 1.4492065851	-0.304417
C	-1.2713085767	-1.7344297933	 0.9268043354	 0.381356
C	-1.969717855	-3.1025869151	 0.8016309939	-0.13652
O	-3.0729687942	-2.6596433801	 1.6152137885	-0.275696
C	-2.3872292057	-1.4355708871	 1.9589618724	-0.118311
C	-1.1859553749	-0.8357774937	-0.3081686597	-0.294904
H	-0.0303773829	 1.6717802987	 1.3295549499	 0.285712
H	 0.4009296922	 0.6269270821	-0.7600586247	 0.070108
H	 1.6101498167	-1.1993503314	 0.2143496275	 0.097146
H	 1.3760817276	-0.2223550187	 1.6814595723	 0.095349
H	-2.2897109879	-3.4093247982	-0.2020043319	 0.096011
H	-1.3986314606	-3.9140690079	 1.2708492964	 0.105219
H	-2.0152922379	-1.4423925476	 2.9910786451	 0.100037
H	-3.0065639791	-0.5490038935	 1.7911170972	 0.10861
H	-2.1265745421	-0.3407573069	-0.5539005689	 0.126129
H	-0.856412273	-1.4176586854	-1.1759085652	 0.106233
73.5009	86.5574	125.8887	255.1748	304.975	367.8706	386.0079	408.9361	418.813	494.4542	756.9515	786.3683	833.1089	860.7942	887.084	908.3701	954.0739	969.3586	980.872	1001.4225	1028.2503	1029.5737	1073.1875	1142.4421	1147.203	1155.577	1167.4708	1208.3735	1217.2637	1247.8912	1263.5182	1297.8897	1331.8322	1348.1184	1380.6262	1383.9361	1416.9718	1473.728	1500.4067	1515.3231	1527.0915	2991.9855	3006.9434	3014.6647	3024.842	3041.8747	3053.9737	3058.9845	3084.4861	3128.9419	3819.9176
OC1COC2(COC2)C1	O[C@H]1COC2(COC2)C1	
InChI=1S/C6H10O3/c7-5-1-6(9-2-5)3-8-4-6/h5,7H,1-4H2	InChI=1S/C6H10O3/c7-5-1-6(9-2-5)3-8-4-6/h5,7H,1-4H2/t5-/m1/s1
