19
gdb 52437	10.26577	0.42631	0.41352	2.3901	79.97	-0.2587	-0.0297	0.229	2485.6213	0.154529	-422.987985	-422.977165	-422.97622	-423.02589	36.23	
O	-0.2398279049	 0.2268026352	 0.6017440488	-0.236815
C	 0.0482319722	 1.0990469446	-0.1730901981	 0.139296
C	 1.3449061249	 1.8880221105	-0.1082208635	-0.146553
O	 1.3466041198	 2.8166364509	-1.1597256277	-0.24903
C	 2.5097071999	 3.6178185882	-1.2085854883	-0.053263
C	 2.3854225477	 4.575580371	-2.3852171013	-0.193016
C	 3.6183857581	 5.4912579952	-2.5124395898	-0.356972
C	 3.5197784321	 6.4169800247	-3.6339483524	 0.289757
C	 3.416011438	 7.1708366875	-4.5640274536	-0.42835
H	-0.6164141631	 1.4050064863	-1.0108090791	 0.098242
H	 1.4124340284	 2.376959135	 0.8789514244	 0.122049
H	 2.1915714837	 1.1830904272	-0.1740623312	 0.12205
H	 2.6268600883	 4.1769477675	-0.2640906498	 0.091771
H	 3.405452317	 2.982274282	-1.3188176629	 0.09178
H	 2.2562713375	 3.9991936962	-3.3065698877	 0.123851
H	 1.4842858933	 5.184032171	-2.2606045899	 0.123844
H	 3.752779409	 6.0598562298	-1.5825094211	 0.132512
H	 4.5226523837	 4.878349275	-2.6254907949	 0.132499
H	 3.3348130444	 7.8417161322	-5.3827750519	 0.196348
42.1796	65.1291	66.4076	71.1841	132.2004	137.5857	156.6308	255.9959	324.5536	345.8639	442.9305	520.1359	582.6256	619.3631	639.9893	740.6479	758.401	870.6672	948.9836	1015.8359	1033.8883	1057.3253	1106.8498	1110.319	1123.3224	1177.4094	1218.4247	1239.1613	1275.8437	1303.2109	1313.4087	1344.9776	1374.0873	1402.1243	1438.7645	1476.1097	1482.2573	1500.2763	1529.7142	1846.0409	2241.8392	2900.5651	2947.6178	2960.2011	2975.8103	2986.3183	3013.9969	3042.3124	3058.4239	3104.9023	3507.6049
O=CCOCCCC#C	O=CCOCCCC#C	
InChI=1S/C7H10O2/c1-2-3-4-6-9-7-5-8/h1,5H,3-4,6-7H2	InChI=1S/C7H10O2/c1-2-3-4-6-9-7-5-8/h1,5H,3-4,6-7H2
