16
gdb 92853	3.13588	1.56684	1.1107	3.413	73.88	-0.2334	-0.0314	0.2019	1053.7682	0.126256	-437.896554	-437.889195	-437.888251	-437.928674	27.938	
O	-0.0251477646	 1.4545067159	-0.0488146082	-0.427583
C	 0.0090706183	 0.0361214232	-0.0093090099	-0.07033
C	 0.5487447501	-0.5686631953	 1.3541457131	-0.192261
N	-0.5005567148	-1.4043316462	 1.9747329663	-0.340251
C	-1.4981522617	-1.3228038554	 1.1908330453	 0.407088
O	-2.7233760284	-1.87806519	 1.2915430875	-0.257252
C	-3.4834622779	-1.4355030273	 0.1446699407	-0.130579
C	-2.5455006685	-0.559247403	-0.6628152445	-0.311692
C	-1.3839307182	-0.5171295674	-0.0155183036	 0.334079
H	 0.8836619943	 1.7702086622	-0.0098999836	 0.287912
H	 0.5919437867	-0.355889226	-0.8561051195	 0.087353
H	 1.4518995772	-1.1700871698	 1.19959803	 0.106014
H	 0.8126237427	 0.2556873678	 2.0282604118	 0.110877
H	-3.8278079294	-2.3186666881	-0.4087442002	 0.133088
H	-4.3692082851	-0.8951796409	 0.5026780471	 0.135826
H	-2.8423915106	-0.0782285997	-1.5850560124	 0.127711
69.6927	183.2237	249.4386	262.0771	296.0984	368.6899	478.139	531.5963	660.4906	669.5434	744.354	788.2252	828.3623	838.1051	905.4785	933.5707	991.7073	999.6567	1025.3838	1062.0702	1085.6184	1136.6019	1193.7138	1213.9185	1223.0636	1229.5046	1295.6529	1316.0368	1343.414	1412.1423	1428.8187	1485.1461	1501.5071	1734.0263	1741.9802	2985.4469	3020.1909	3026.9331	3051.9506	3065.6828	3229.1972	3813.5999
OC1CN=C2OCC=C12	O[C@H]1CN=C2OCC=C12	
InChI=1S/C6H7NO2/c8-5-3-7-6-4(5)1-2-9-6/h1,5,8H,2-3H2	InChI=1S/C6H7NO2/c8-5-3-7-6-4(5)1-2-9-6/h1,5,8H,2-3H2/t5-/m0/s1
