20
gdb 40124	2.80052	1.62688	1.27678	1.2958	83.84	-0.2221	0.0171	0.2392	1055.42	0.173582	-365.986459	-365.979008	-365.978063	-366.018025	30.867	
C	-0.1024514756	 1.5023447583	-0.0023543177	-0.31915
C	 1.2610241395	 0.8553973438	-0.0630449601	-0.305718
C	 0.0167051883	-0.0005513743	 0.007979498	 0.418246
C	-0.2852886928	-0.7463724724	 1.3061340941	-0.354612
C	 0.1138254597	-2.2010086125	 1.2404425077	-0.08036
C	 0.113367215	-2.8886889497	 0.0978414574	-0.017107
C	-0.27088706	-2.2497732535	-1.1855122681	-0.084013
N	-1.5857393965	-1.5405775384	-1.2088991654	-0.348622
C	-0.3398049302	-0.7614018796	-1.2335363584	-0.117773
H	-0.3956481818	 1.9943980567	 0.9195949087	 0.109497
H	-0.483538099	 1.9822182395	-0.8980548955	 0.107386
H	 1.8065470364	 0.8972196637	-1.0006009604	 0.106446
H	 1.8936031492	 0.9062510769	 0.8168055145	 0.109986
H	 0.2204120513	-0.2496504065	 2.1418124145	 0.094147
H	-1.3615883809	-0.6808276778	 1.5151208949	 0.129908
H	 0.3791968511	-2.6923955857	 2.1724447041	 0.087121
H	 0.3930792509	-3.9379874826	 0.0781617227	 0.082969
H	 0.0179614652	-2.7712296289	-2.0939235084	 0.080177
H	-1.9795936334	-1.5900405053	-2.1455577774	 0.227894
H	-0.0618966265	-0.2761717817	-2.1678798953	 0.073579
106.775	205.7841	277.8885	293.3063	329.7276	413.2913	496.5094	524.4289	540.2589	692.4955	715.3577	775.9106	812.2749	831.2619	846.2082	907.5113	916.3087	922.2833	950.8092	969.6426	978.2279	987.3666	1012.8037	1018.6128	1057.669	1077.1128	1096.4034	1153.1223	1172.2022	1185.9908	1200.332	1221.3681	1255.4159	1300.1005	1325.5568	1353.5516	1395.9178	1431.7857	1457.9165	1468.2909	1479.2342	1505.3897	1711.5655	3016.2444	3056.9962	3113.4406	3122.6645	3127.1023	3141.3107	3155.6914	3178.727	3199.5747	3214.2641	3493.8677
C1CC11CC=CC2NC12	C1CC21CC=C[C@H]1N[C@@H]21	
InChI=1S/C8H11N/c1-2-6-7(9-6)8(3-1)4-5-8/h1-2,6-7,9H,3-5H2	InChI=1S/C8H11N/c1-2-6-7(9-6)8(3-1)4-5-8/h1-2,6-7,9H,3-5H2/t6-,7-/m1/s1
