16
gdb 19191	3.52741	1.95662	1.75101	2.7374	63.41	-0.2337	-0.0176	0.2162	799.5446	0.131977	-383.737939	-383.731152	-383.730208	-383.768632	26.573	
O	 0.163230384	 1.4420546181	-0.1376874877	-0.441206
C	 0.0370100594	 0.0553351249	-0.0226725004	 0.158089
C	 0.1926544712	-0.6534003595	 1.3740572075	-0.183034
C	-0.9066821489	 0.0490409025	 2.2044123946	-0.246856
C	-2.0779188754	 0.0682982947	 1.1509495604	-0.246842
C	-1.3809927893	-0.6275492219	-0.0413354993	-0.183032
C	-0.6446769698	-1.7563697093	 0.7021271555	 0.435811
O	-0.641500783	-2.9509274151	 0.676785055	-0.319769
H	-0.4085209403	 1.8716920112	 0.5061409551	 0.288651
H	 0.7038937702	-0.3747397397	-0.7719809676	 0.109377
H	 1.1576442968	-0.8430986875	 1.8381299351	 0.087261
H	-1.1633896606	-0.5102107397	 3.1065579375	 0.122307
H	-0.6006583131	 1.0515265194	 2.5198660791	 0.104836
H	-2.9580012537	-0.4806787681	 1.4924253519	 0.122304
H	-2.4055679518	 1.0812056299	 0.8963906036	 0.104841
H	-1.9475848257	-0.79207584	-0.9548224403	 0.087261
154.1137	205.8259	260.6893	272.9708	329.1482	497.3629	534.9072	659.1159	672.5253	746.3632	751.5267	806.7692	862.9287	890.166	900.1391	970.4094	986.1904	1015.6985	1079.8552	1096.6173	1126.7363	1149.3555	1168.4611	1181.3959	1240.9768	1244.5339	1247.1111	1302.5327	1316.2043	1326.2909	1449.4852	1503.6977	1520.0718	1906.7596	3046.4807	3058.5758	3097.1322	3105.9368	3113.8616	3151.2638	3154.4439	3826.5821
OC1C2CCC1C2=O	O[C@H]1[C@H]2CC[C@@H]1C2=O	
InChI=1S/C6H8O2/c7-5-3-1-2-4(5)6(3)8/h3-5,7H,1-2H2	InChI=1S/C6H8O2/c7-5-3-1-2-4(5)6(3)8/h3-5,7H,1-2H2/t3-,4+,5+
