15
gdb 56431	2.35128	1.273	1.03384	3.9601	69.54	-0.258	-0.0709	0.1871	1186.0262	0.11004	-453.921291	-453.911721	-453.910777	-453.955964	34.703	
N	-0.066491971	 1.2956700037	-0.2495301252	-0.538237
C	 0.0721385719	-0.0384395406	-0.0004202145	 0.277786
N	 1.1202537282	-0.7289792366	 0.2487763591	-0.500151
C	-1.24911568	-0.7763453833	-0.0359845884	 0.369093
O	-2.30207027	-0.1784528232	-0.0606162807	-0.338047
C	-1.2374388961	-2.3156456001	-0.0399198525	-0.116108
O	-2.4791898635	-2.8001091865	 0.4068983211	-0.410415
C	-0.910959009	-2.7401596076	-1.4093563531	 0.332531
C	-0.6824645635	-3.0678871085	-2.5427329566	-0.475512
H	 0.6875226111	 1.9254942224	-0.0332355691	 0.258408
H	-1.006135106	 1.6621141923	-0.2262029276	 0.274713
H	 1.9636005524	-0.1525275136	 0.2772945869	 0.214944
H	-0.4553455421	-2.6626465323	 0.6411779854	 0.154509
H	-3.1366604161	-2.1437563243	 0.1328275451	 0.292673
H	-0.4693301863	-3.3775125518	-3.5361523499	 0.203814
64.3001	68.3497	129.8064	196.3384	232.9998	313.3104	330.3607	373.5835	381.3854	402.5398	486.4614	512.5232	533.4769	578.9902	631.5441	640.7956	671.4202	769.5047	858.2098	895.3455	959.3313	1050.4057	1095.2184	1123.1	1142.3228	1260.9518	1312.0171	1421.8614	1438.1608	1610.2459	1719.3384	1794.829	2229.5249	3085.7478	3455.5273	3502.8325	3584.574	3713.0716	3731.5065
NC(=N)C(=O)C(O)C#C	NC(=N)C(=O)[C@@H](O)C#C	
InChI=1S/C5H6N2O2/c1-2-3(8)4(9)5(6)7/h1,3,8H,(H3,6,7)	InChI=1S/C5H6N2O2/c1-2-3(8)4(9)5(6)7/h1,3,8H,(H3,6,7)/t3-/m0/s1
