15
gdb 7724	3.30536	1.93585	1.27196	3.105	62.72	-0.2599	-0.025	0.2349	906.9158	0.121259	-399.891613	-399.884771	-399.883827	-399.922941	25.704	
O	 0.0062882529	-0.0720297287	-0.0135360446	-0.336876
C	-0.0543883808	 1.1348842887	 0.0153681471	 0.411039
C	-1.3517328304	 1.9221024078	 0.0647162093	-0.309383
C	-1.1912154834	 3.2931023504	 0.7285952069	-0.235667
C	-0.0506239391	 4.0740592503	 0.0688177921	-0.309382
C	 1.2493171404	 3.2911326944	 0.0196276896	 0.411035
O	 2.3463078652	 3.7982056334	-0.005779962	-0.336873
N	 1.1087784907	 1.9039188441	-0.013566796	-0.350584
H	-1.6933525779	 2.0425846671	-0.9726007544	 0.136952
H	-2.0900642765	 1.2941735409	 0.5675397766	 0.140342
H	-2.1250249307	 3.8578316793	 0.6581664922	 0.116616
H	-0.9797961643	 3.1632410159	 1.7965498178	 0.121596
H	-0.3142430299	 4.3233704598	-0.9682921493	 0.136948
H	 0.1614762	 5.0182464809	 0.574564569	 0.140339
H	 1.9756209038	 1.3798899057	-0.0548166242	 0.263897
103.1903	128.1018	245.4277	373.534	433.6609	450.1957	540.1098	550.8821	623.6767	659.7337	749.9336	773.05	868.1822	904.2365	917.4741	977.9298	1057.8134	1077.1447	1153.4716	1191.3647	1267.4516	1269.0123	1340.6489	1355.0196	1363.3596	1376.6258	1411.5918	1459.0702	1470.4173	1500.6689	1811.8712	1823.2976	3026.7166	3028.7966	3044.9151	3092.2432	3115.2422	3116.5509	3573.8964
O=C1CCCC(=O)N1	O=C1CCCC(=O)N1	
InChI=1S/C5H7NO2/c7-4-2-1-3-5(8)6-4/h1-3H2,(H,6,7,8)	InChI=1S/C5H7NO2/c7-4-2-1-3-5(8)6-4/h1-3H2,(H,6,7,8)
