19
gdb 42098	3.74212	1.21875	1.2101	2.4922	70.75	-0.243	0.0878	0.3308	1112.731	0.160641	-460.166071	-460.158111	-460.157167	-460.200234	29.592	
C	-0.0016470006	 1.4076817107	-0.1292389301	-0.086005
C	 1.4034410099	 1.9320244681	 0.1824598882	-0.276492
C	 2.1597581574	 0.6438029328	 0.6038658048	 0.445245
C	 1.2297845393	-0.49059823	 0.1094040968	-0.136983
O	 0.2142573919	 0.1100407871	-0.6726752165	-0.24621
O	 3.4453316346	 0.5263497038	 0.0303792599	-0.27782
C	 4.3570088142	 1.0611066714	 0.9774952462	-0.117451
C	 3.7356072226	 0.6255726862	 2.3066062143	-0.094353
O	 2.342243207	 0.5816514354	 2.0182489174	-0.302347
H	-0.6117340699	 1.3507742536	 0.7871926292	 0.095826
H	-0.5449808826	 1.9965263319	-0.8718109323	 0.111701
H	 1.8705868015	 2.3268999924	-0.723593721	 0.118286
H	 1.426933808	 2.6892255514	 0.9674001357	 0.10765
H	 1.7708004871	-1.2116140502	-0.5064925276	 0.119837
H	 0.8129314335	-0.9967820008	 0.9921094616	 0.102928
H	 5.3449020409	 0.6370374118	 0.7863023561	 0.118887
H	 4.4141419447	 2.1570404309	 0.8998058475	 0.101166
H	 4.0895275928	-0.3689076991	 2.6099602656	 0.106077
H	 3.9187718277	 1.3310380326	 3.1230110541	 0.110058
30.9168	41.455	190.536	247.1225	313.6627	398.1785	426.6047	473.1622	625.2372	664.7529	740.8133	796.7187	857.522	884.4826	903.6319	947.5732	955.2144	977.3515	1007.0256	1054.4095	1073.0124	1105.4171	1137.7185	1139.4643	1159.8963	1185.0666	1219.2516	1229.9328	1246.2379	1253.9897	1275.932	1307.6035	1359.7483	1379.5993	1384.2042	1401.0118	1469.8343	1497.359	1513.3036	1519.2542	1527.0103	2972.882	2994.4502	3003.5009	3013.442	3069.843	3078.2021	3101.3231	3111.5787	3112.3608	3134.3808
C1CC2(CO1)OCCO2	C1CC2(CO1)OCCO2	
InChI=1S/C6H10O3/c1-2-7-5-6(1)8-3-4-9-6/h1-5H2	InChI=1S/C6H10O3/c1-2-7-5-6(1)8-3-4-9-6/h1-5H2
