18
gdb 96206	2.67999	1.40354	0.98365	4.0009	81.03	-0.2664	-0.0424	0.224	1191.8201	0.148514	-401.980336	-401.971931	-401.970987	-402.013387	31.555	
C	 0.0304329748	 1.5435209091	-0.0636973921	-0.409367
C	 0.0308519429	 0.0199495152	 0.0180463397	 0.038507
O	 0.6223969807	-0.4569146821	-1.1758089708	-0.25414
C	 0.9010291888	-1.8456644773	-1.1601457241	-0.088516
C	 1.9975538833	-2.1573365437	-0.1402664743	-0.259908
C	 1.6859916082	-1.4813883513	 1.1616654119	-0.141006
C	 0.770628546	-0.505417489	 1.2476629049	 0.142999
C	 0.4296811912	 0.0671838879	 2.5100222131	 0.232372
N	 0.1232275053	 0.54670026	 3.5194905332	-0.342437
H	 1.0559908349	 1.920414682	-0.1061958296	 0.129971
H	-0.4942546481	 1.8562546834	-0.9695791106	 0.131006
H	-0.4704439358	 1.978609701	 0.8042139617	 0.144044
H	-1.0140697291	-0.3349746281	 0.0788851869	 0.090492
H	-0.0089129275	-2.4183121922	-0.9190654224	 0.099101
H	 1.2089894877	-2.1099792428	-2.1748316848	 0.11573
H	 2.08603603	-3.2401802691	 0.0113672641	 0.118764
H	 2.9734144806	-1.8173018617	-0.5128229347	 0.13292
H	 2.2076625961	-1.8099454112	 2.0554835279	 0.11947
79.3317	150.8515	174.1505	223.7942	287.9554	292.3802	355.0292	418.5421	483.0437	493.4955	560.0304	619.8978	650.8756	763.2456	869.4935	882.8325	898.021	940.8065	1034.4257	1051.98	1076.1885	1089.0452	1142.2318	1147.5533	1172.043	1233.2623	1297.3524	1331.8778	1350.7808	1366.1842	1369.3885	1409.1272	1413.3698	1462.6367	1484.7882	1495.7234	1501.7317	1691.642	2331.9965	2937.0355	2980.5365	3020.1212	3052.7318	3057.6273	3097.6003	3130.6086	3138.2875	3178.5502
CC1OCCC=C1C#N	C[C@H]1OCCC=C1C#N	
InChI=1S/C7H9NO/c1-6-7(5-8)3-2-4-9-6/h3,6H,2,4H2,1H3	InChI=1S/C7H9NO/c1-6-7(5-8)3-2-4-9-6/h3,6H,2,4H2,1H3/t6-/m1/s1
