20
gdb 18586	4.00048	1.70212	1.33808	0.3954	81.74	-0.2202	0.0267	0.2469	986.905	0.178736	-311.861931	-311.854506	-311.853562	-311.893339	29.367	
C	-0.0186108316	 1.561758511	 0.1545358239	-0.404881
C	 0.0057922443	 0.0471378728	 0.0166283714	-0.061112
C	 1.0581230409	-0.6402512842	-0.9416850458	-0.261499
C	 1.2533914135	-1.7686468352	 0.132285441	-0.029582
C	 2.5791411369	-2.1676653096	 0.8108519227	-0.240534
C	 2.3221631936	-1.8526161785	 2.3232077538	-0.234363
C	 1.2580099114	-0.7563165867	 2.2789184665	-0.240197
C	 0.6406859954	-0.7954512572	 1.1026719465	 0.303232
H	 0.9753220485	 1.9438052185	 0.4094093297	 0.115685
H	-0.3385508082	 2.0375958818	-0.778837168	 0.11375
H	-0.7113209411	 1.8763699026	 0.9426153282	 0.117773
H	-0.9947912391	-0.3256994421	-0.2379676101	 0.081088
H	 0.7051795633	-0.9361482302	-1.9331076411	 0.094056
H	 1.9550036996	-0.0213667831	-1.0422803115	 0.101252
H	 0.6179881015	-2.6327762547	-0.0980589738	 0.069956
H	 2.8715466747	-3.207709885	 0.6389409861	 0.090855
H	 3.3944108174	-1.5323885841	 0.4456456602	 0.098174
H	 1.9741870994	-2.7442342945	 2.8645990176	 0.101666
H	 3.2322768608	-1.5206662166	 2.8351315843	 0.098207
H	 1.1194106787	-0.0340385748	 3.0753330584	 0.086474
126.1242	149.753	209.6153	256.8934	327.26	385.9252	479.4082	584.8503	631.1976	657.1963	789.9883	809.121	843.775	863.6539	894.3483	905.5447	917.4648	959.4168	985.2016	1017.3602	1065.7039	1082.4772	1101.9739	1131.2501	1153.8427	1179.8033	1201.6322	1231.9626	1240.4584	1257.1334	1273.5455	1305.4811	1327.2332	1337.6122	1372.5903	1407.9776	1477.1932	1483.8801	1492.4795	1497.459	1498.1379	1731.0264	3002.0524	3018.1872	3023.1615	3028.8336	3036.4628	3049.2395	3059.8367	3090.6102	3095.0784	3101.8005	3111.5128	3194.3086
CC1CC2CCC=C12	C[C@H]1C[C@H]2CC[CH][C]12	
InChI=1S/C8H12/c1-6-5-7-3-2-4-8(6)7/h4,6-7H,2-3,5H2,1H3	InChI=1S/C8H12/c1-6-5-7-3-2-4-8(6)7/h4,6-7H,2-3,5H2,1H3/t6-,7+/m0/s1
