17
gdb 89173	2.17761	1.70356	1.25433	1.2234	68.77	-0.2372	-0.0169	0.2203	1035.8477	0.133658	-458.927572	-458.918758	-458.917814	-458.960957	32.744	
O	-0.1534553659	 1.4599377997	-0.0137538772	-0.423866
C	 0.0168040077	 0.0688947074	 0.151822248	 0.110344
C	 0.1600252436	-0.5129137876	 1.6054878823	-0.353546
C	-1.1559052444	-1.2742746486	 1.3791404838	 0.373904
O	-1.3664025814	-2.5885294265	 1.7480275615	-0.459818
C	-2.2828757773	-0.3393712091	 1.061019955	-0.192108
C	-2.4748493368	 1.0402211465	 1.6147405571	 0.15951
O	-1.9841350858	 1.4547065665	 2.6363633031	-0.268892
C	-1.2792030159	-0.7090554175	-0.0319996	-0.129915
H	 0.6028474541	 1.9102304336	 0.3759625695	 0.290335
H	 0.8095510258	-0.3111096005	-0.5059277379	 0.081912
H	 1.0082449481	-1.1963894849	 1.6836938159	 0.107713
H	 0.1687121645	 0.206971272	 2.4249054278	 0.125414
H	-1.6789268125	-2.5988416978	 2.6598161724	 0.291524
H	-3.2286637764	-0.8493977621	 0.8796556962	 0.110845
H	-3.1647242438	 1.6747930582	 1.0148565798	 0.077376
H	-1.6146962235	-1.182017029	-0.9462565674	 0.099268
86.086	123.9258	173.3115	205.1081	251.4333	282.3428	294.211	380.7326	409.2995	441.1271	562.944	643.5165	658.4014	759.5294	783.9548	873.6926	877.9888	939.1489	964.6928	979.628	1031.6923	1057.8557	1094.5617	1104.6414	1170.5392	1198.2592	1220.5286	1232.0612	1261.4894	1310.7048	1321.6065	1338.202	1405.965	1424.0316	1460.0917	1491.8538	1811.8408	2880.0033	3010.7644	3075.9559	3124.1347	3141.1863	3195.7294	3794.5776	3819.8403
OC1CC2(O)C(C=O)C12	O[C@H]1C[C@@]2(O)[C@@H](C=O)[C@@H]12	
InChI=1S/C6H8O3/c7-2-3-5-4(8)1-6(3,5)9/h2-5,8-9H,1H2	InChI=1S/C6H8O3/c7-2-3-5-4(8)1-6(3,5)9/h2-5,8-9H,1H2/t3-,4-,5-,6+/m0/s1
