18
gdb 128838	5.81598	0.68647	0.65525	3.8533	75.	-0.2518	-0.0009	0.2509	1703.2327	0.148331	-435.255294	-435.246348	-435.245404	-435.290643	31.098	
C	-0.0159568859	 1.3845084781	 0.0309823114	-0.228884
O	-0.0540471808	-0.020600839	-0.0297097746	-0.230325
C	 0.6856447337	-0.5425463545	-1.1102454631	-0.044461
C	 0.5429505983	-2.0655665586	-1.0905702786	-0.317488
C	 1.2818019186	-2.716135309	-2.2152355788	 0.307513
C	 2.4104492112	-3.5030881216	-2.2006053846	-0.176796
N	 2.6299166751	-3.7901726614	-3.5056415327	-0.148555
N	 1.7029764968	-3.2228087907	-4.2975663163	-0.112094
N	 0.8886371829	-2.5731616786	-3.5184897171	-0.246077
H	 1.0111843873	 1.7613019487	 0.1629657612	 0.101459
H	-0.4336648823	 1.8448831023	-0.8783248963	 0.106606
H	-0.6168691514	 1.6922228881	 0.8903496092	 0.125786
H	 0.3166114875	-0.1470040569	-2.0697369531	 0.111002
H	 1.7491168591	-0.2583390104	-1.0274225498	 0.08187
H	 0.9063939242	-2.4453145668	-0.1307736548	 0.109943
H	-0.5224743857	-2.3102978773	-1.1539281555	 0.131018
H	 3.0412104416	-3.8678774268	-1.4076510447	 0.146604
H	 3.3564940197	-4.3514941856	-3.9201277117	 0.28288
36.7225	81.9845	95.1166	107.7894	230.1232	261.5154	330.5438	343.0108	460.7077	572.3362	684.6388	726.2269	763.4305	792.2291	806.3178	987.537	995.2275	1035.4447	1040.3762	1062.3829	1069.1798	1131.6256	1163.161	1180.4668	1224.1708	1228.6129	1268.2235	1296.885	1302.685	1335.3897	1361.9238	1420.1125	1481.3885	1484.7947	1485.3522	1488.9063	1505.3778	1533.3095	1594.5849	2952.6701	2970.445	2999.3317	3012.476	3051.9481	3098.073	3112.2841	3282.9396	3659.6723
COCCC1=CNN=N1	COCCc1c[nH]nn1	
InChI=1S/C5H9N3O/c1-9-3-2-5-4-6-8-7-5/h4H,2-3H2,1H3,(H,6,7,8)	InChI=1S/C5H9N3O/c1-9-3-2-5-4-6-8-7-5/h4H,2-3H2,1H3,(H,6,7,8)
