23
gdb 108785	2.76537	1.03269	0.9114	1.5526	88.74	-0.2242	0.0351	0.2593	1428.7758	0.20449	-388.309487	-388.299326	-388.298382	-388.344368	38.223	
C	 0.2216041193	 1.426074012	-0.0627801967	-0.41481
C	-0.1143453591	-0.0790000828	 0.0075844218	 0.279768
C	-1.6404581653	-0.2607854984	 0.0365648473	-0.426894
C	 0.5444516192	-0.864399966	-1.1686728036	-0.250394
C	 1.8537051037	-1.4686080969	-0.6056835592	-0.313608
C	 1.622532583	-1.448102084	 0.8907817213	 0.297906
C	 2.5446500431	-2.1612539382	 1.824512791	-0.177247
O	 2.1513486227	-1.9340899151	 3.1661303583	-0.413771
C	 0.563322032	-0.7071005415	 1.2120690808	-0.182818
H	 1.3016609092	 1.5867663804	-0.1409880612	 0.109905
H	-0.2571576254	 1.8940371846	-0.9310099975	 0.105394
H	-0.1275065677	 1.9496389049	 0.8340462224	 0.109444
H	-2.09951592	 0.1285341779	-0.8797134396	 0.106895
H	-1.909694745	-1.3180097102	 0.1277728006	 0.110052
H	-2.0867739365	 0.2736375997	 0.8828368928	 0.108132
H	-0.1234612414	-1.6752484101	-1.4774682305	 0.095279
H	 0.711473176	-0.2338983723	-2.0470624191	 0.090288
H	 2.049208686	-2.4759698345	-0.9942639201	 0.095633
H	 2.7359433829	-0.8673508122	-0.8692598551	 0.101387
H	 2.5407628599	-3.2396898842	 1.5824442854	 0.091976
H	 3.5790370984	-1.8149313178	 1.6445434191	 0.091371
H	 2.7465942359	-2.425656358	 3.7386396762	 0.288121
H	 0.2327466687	-0.5202594674	 2.2272964654	 0.097994
75.0083	96.0194	142.5272	167.4919	232.0843	233.5492	264.9407	311.61	333.2088	382.4334	390.8652	427.0172	499.967	581.2823	637.0617	759.9196	839.4683	879.7653	912.9476	922.3253	937.2826	960.7553	975.0913	999.2155	1025.1907	1049.581	1072.1451	1133.2879	1144.4657	1195.2682	1218.9284	1227.4919	1249.6375	1253.153	1267.7006	1301.0004	1327.7911	1358.7604	1394.4575	1417.151	1466.2623	1480.1738	1483.6739	1490.4237	1499.875	1501.2276	1507.1835	1508.8396	1729.1222	2931.7461	2942.5188	3000.5668	3018.5703	3022.9196	3032.9884	3048.2662	3083.5129	3087.8811	3090.0334	3097.2996	3098.857	3202.6142	3838.3925
CC1(C)CCC(CO)=C1	CC1(C)CCC(=C1)CO	
InChI=1S/C8H14O/c1-8(2)4-3-7(5-8)6-9/h5,9H,3-4,6H2,1-2H3	InChI=1S/C8H14O/c1-8(2)4-3-7(5-8)6-9/h5,9H,3-4,6H2,1-2H3
