23
gdb 90979	2.56741	1.8029	1.30694	0.1847	89.01	-0.2756	0.0909	0.3665	1079.654	0.207459	-351.132722	-351.124617	-351.123673	-351.164725	33.511	
C	-0.1307644509	 1.5461516493	-0.0192025268	-0.411492
C	 0.0332484158	 0.0247214178	 0.0178377865	-0.025813
C	 0.9412317417	-0.5392400242	-1.110684524	-0.273742
C	 1.9760459119	-1.276244684	-0.2713124025	 0.007854
C	 1.2669664477	-1.974206483	 0.9320896597	-0.099259
C	 2.5414611119	-1.741407825	 1.7771928035	-0.255807
C	 2.3282499534	-0.4255239694	 0.9918509896	-0.093266
C	 0.7769985688	-0.5147164304	 1.2595421249	 0.388487
C	 0.1750503521	-0.1744415866	 2.6079157508	-0.509762
H	 0.8395324472	 2.0505762334	 0.0596403339	 0.112192
H	-0.59261774	 1.8652701118	-0.9595740547	 0.111597
H	-0.7635179888	 1.9090161806	 0.7973157787	 0.111931
H	-0.964365274	-0.4320973304	-0.027220357	 0.061019
H	 0.4062929773	-1.2064421526	-1.7946143626	 0.092319
H	 1.3905189434	 0.2569468808	-1.7152706035	 0.090945
H	 2.7837012369	-1.8099645429	-0.7767786233	 0.056399
H	 0.6448388445	-2.8721574551	 0.8894226069	 0.057254
H	 2.4344703821	-1.709180576	 2.8635874195	 0.088003
H	 3.418987638	-2.331998986	 1.4979781386	 0.085302
H	 2.9472448166	 0.4746419909	 1.0192041596	 0.058678
H	 0.1678948208	 0.9075637477	 2.7774999149	 0.118135
H	-0.8645626004	-0.5193204245	 2.6628856017	 0.113135
H	 0.7178719741	-0.6315896721	 3.4393837555	 0.11589
114.3755	191.3385	224.7162	274.6252	295.8327	337.7177	370.3203	464.3313	469.1954	611.4192	656.6196	697.0191	747.4839	819.1554	838.7111	872.158	883.3914	910.1793	933.2295	936.0657	997.0718	1006.4505	1023.8453	1045.4365	1063.9676	1065.608	1090.237	1118.4138	1133.4877	1148.0973	1183.5539	1185.1971	1212.0395	1230.6689	1242.5098	1258.5987	1269.9967	1295.2917	1322.4813	1354.1475	1367.3626	1407.2907	1413.9978	1489.6234	1491.3758	1495.9288	1500.4694	1505.797	1529.894	3009.0664	3024.9712	3028.7449	3035.7633	3051.9333	3072.6785	3074.8997	3078.6515	3085.4152	3091.6991	3096.7366	3097.4753	3105.7423	3113.6203
CC1CC2C3CC2C13C	C[C@H]1C[C@@H]2[C@H]3C[C@@H]2[C@@]13C	
InChI=1S/C9H14/c1-5-3-6-7-4-8(6)9(5,7)2/h5-8H,3-4H2,1-2H3	InChI=1S/C9H14/c1-5-3-6-7-4-8(6)9(5,7)2/h5-8H,3-4H2,1-2H3/t5-,6-,7-,8+,9+/m0/s1
