21
gdb 38756	2.30483	2.2133	1.77842	1.5236	79.71	-0.2377	0.0772	0.3149	911.5319	0.187509	-387.107497	-387.100986	-387.100041	-387.137895	28.477	
C	-0.0466027089	 1.5209590276	-0.1799975265	-0.247178
C	 1.4936882518	 1.5634821936	 0.0397970041	-0.014477
C	 1.9388635587	 1.9298872246	 1.4625142209	-0.222266
C	 1.3242144491	 1.0121044835	 2.548091948	-0.213138
C	 1.0443109278	-0.411192589	 2.0231017178	 0.096003
C	 2.0784211927	-0.8081261367	 0.9589060618	-0.2397
C	 1.5412302635	 0.0105693567	-0.213563865	-0.049064
C	-0.0041097591	-0.0181224845	-0.0168390263	 0.115391
O	-0.2078382364	-0.4619479296	 1.3205388961	-0.278139
H	-0.6811803816	 2.0612557237	 0.5278131778	 0.098151
H	-0.323614555	 1.8111110846	-1.1979675945	 0.094304
H	 2.0434729651	 2.1681291896	-0.6862783127	 0.061723
H	 3.0324586623	 1.8589331298	 1.5069540313	 0.096588
H	 1.6965702388	 2.9782210268	 1.6708106493	 0.09545
H	 2.0020165885	 0.9594589922	 3.4078232989	 0.092125
H	 0.3765060857	 1.4159381185	 2.9183215403	 0.108795
H	 0.9571724314	-1.1187855757	 2.8517191908	 0.07294
H	 3.1038783115	-0.5550074196	 1.2429902761	 0.098774
H	 2.0313589226	-1.8805081904	 0.7455615965	 0.100378
H	 1.9104196107	-0.2799916326	-1.1972800982	 0.064583
H	-0.6389742292	-0.6190708032	-0.6728804065	 0.068758
179.7828	318.172	322.7157	384.2805	426.847	485.7644	565.7456	617.1487	741.8412	767.557	782.247	817.9418	849.2987	858.8355	881.6457	915.6176	939.7882	954.9208	958.7873	1005.0988	1026.0496	1046.6899	1057.4054	1095.6324	1103.7505	1116.2073	1146.1079	1192.5656	1205.4291	1229.3352	1245.0054	1264.5684	1277.5753	1295.1935	1317.9399	1328.4818	1337.555	1341.9358	1370.0962	1379.1707	1388.8811	1469.4762	1477.3636	1481.1091	1501.185	3023.2265	3038.8862	3048.5189	3051.0991	3058.0228	3065.3154	3071.9533	3078.9685	3085.5984	3100.0147	3106.3083	3110.3695
C1C2CCC3CC2C1O3	C1[C@H]2CC[C@@H]3C[C@H]2[C@H]1O3	
InChI=1S/C8H12O/c1-2-6-4-7-5(1)3-8(7)9-6/h5-8H,1-4H2	InChI=1S/C8H12O/c1-2-6-4-7-5(1)3-8(7)9-6/h5-8H,1-4H2/t5-,6-,7-,8+/m1/s1
