17
gdb 70121	2.51056	1.56067	1.16333	3.1034	73.62	-0.2448	-0.0358	0.209	1076.3213	0.134452	-421.825692	-421.817469	-421.816525	-421.858838	30.725	
C	-0.0710905013	 1.5069184048	 0.0612078701	-0.486668
C	 0.1307747652	 0.0177725262	 0.0211393263	 0.374417
O	-0.7318603383	-0.7719703588	 0.852136817	-0.293179
C	 0.69607503	-0.8113152501	 1.1053903075	-0.06862
C	 1.3762989961	-1.973296743	 0.4670306473	-0.079269
C	 1.2366101292	-1.9180686228	-0.8602160965	-0.104688
C	 0.4661206477	-0.6860786757	-1.3093305666	-0.186149
C	-0.7955823659	-1.072846144	-2.0752278046	 0.151917
O	-0.9385033359	-0.9235711304	-3.2608582983	-0.252998
H	 0.8106153528	 2.0293271331	-0.3237053294	 0.129424
H	-0.929436036	 1.8001656677	-0.553199898	 0.137017
H	-0.2580333451	 1.8374354192	 1.085709251	 0.134947
H	 0.997000176	-0.4135202406	 2.0697802584	 0.101611
H	 1.892712136	-2.7470679294	 1.0209578061	 0.113621
H	 1.5851629899	-2.6594724988	-1.5697749289	 0.120532
H	 1.0660791729	-0.0519040003	-1.9713734778	 0.101249
H	-1.5832499032	-1.5224566172	-1.4366029136	 0.106836
58.4671	124.9931	192.4739	217.8157	277.3312	295.6294	407.9367	451.6818	501.2028	563.1221	600.1579	728.6776	759.6018	834.9522	850.2142	903.262	929.4403	965.3439	976.0976	1008.1027	1032.9636	1070.8572	1080.7502	1117.1768	1141.8623	1203.0362	1243.506	1267.2365	1300.0164	1364.0913	1401.3265	1412.6624	1441.7588	1484.2878	1493.7706	1652.749	1824.0425	2931.3085	3037.2126	3055.6379	3100.7626	3127.227	3164.7557	3198.0546	3224.0633
CC12OC1C=CC2C=O	C[C@]12O[C@H]1C=C[C@H]2C=O	
InChI=1S/C7H8O2/c1-7-5(4-8)2-3-6(7)9-7/h2-6H,1H3	InChI=1S/C7H8O2/c1-7-5(4-8)2-3-6(7)9-7/h2-6H,1H3/t5-,6-,7+/m0/s1
