17
gdb 27788	1.93896	1.77898	0.93375	5.2769	81.66	-0.1981	-0.0132	0.1849	1215.7722	0.137758	-418.096691	-418.088328	-418.087384	-418.12934	32.384	
C	 0.0100784165	 1.5177809019	-0.0089056053	-0.491885
C	-0.0575752912	 0.0188812481	 0.0160965186	 0.42733
C	-1.2184355311	-0.6904050616	-0.0292148823	-0.321563
C	-1.1715657088	-2.1232371625	 0.0024966107	 0.40392
N	-2.3695875067	-2.8114251076	 0.0110660734	-0.583331
C	 0.0395814204	-2.7706038557	 0.0732027078	-0.378784
C	 1.2849770282	-2.0574274785	 0.1266489595	 0.433005
O	 2.412707188	-2.5256472797	 0.1910073034	-0.420553
N	 1.1271714332	-0.6485682133	 0.0903743867	-0.43063
H	 0.5905841385	 1.8707787179	-0.869171415	 0.142693
H	-0.9899142363	 1.9499093072	-0.0701573945	 0.140254
H	 0.4962389187	 1.9035351602	 0.8946323531	 0.143981
H	-2.1680971405	-0.1725832925	-0.0748781388	 0.087479
H	-3.1619818156	-2.3421457172	-0.3985595954	 0.251773
H	-2.323373643	-3.7918765392	-0.219726724	 0.255887
H	 0.1021787646	-3.8521307889	 0.0946545668	 0.090778
H	 1.999599285	-0.1398567984	 0.1239684353	 0.249647
125.8215	163.3915	204.9225	206.1024	283.6868	341.7788	379.4771	493.3075	513.0122	519.9695	548.8402	554.5948	617.5716	626.3552	712.7506	741.3416	778.2516	841.1528	926.7508	985.1994	1029.9382	1051.0252	1063.3112	1113.5001	1196.32	1238.4287	1283.5559	1337.5406	1415.3826	1459.3596	1469.7158	1478.8689	1516.7721	1598.3869	1656.6293	1684.4416	1775.3033	3031.6633	3084.4704	3138.4593	3199.6011	3205.275	3582.3135	3606.084	3688.2177
CC1=CC(N)=CC(=O)N1	Cc1cc(N)cc(=O)[nH]1	
InChI=1S/C6H8N2O/c1-4-2-5(7)3-6(9)8-4/h2-3H,1H3,(H3,7,8,9)	InChI=1S/C6H8N2O/c1-4-2-5(7)3-6(9)8-4/h2-3H,1H3,(H3,7,8,9)
