17
gdb 8505	3.83094	2.08516	1.62043	1.3973	68.54	-0.2316	0.066	0.2976	839.5306	0.140879	-363.76057	-363.753256	-363.752312	-363.791543	28.574	
C	 0.0258334918	 1.4515171297	-0.090735034	-0.533828
C	 0.0126381715	-0.0442291867	-0.0544782798	 0.307623
N	 0.5903299326	-0.9309144779	-1.1235022099	-0.407159
C	 0.0610429261	-1.921896649	-0.1232229746	 0.307623
C	 0.1511135903	-3.4083291987	-0.2686581011	-0.533828
C	 0.4937910383	-1.0137094992	 1.0699699699	 0.024959
O	-0.7957857203	-1.0717085547	 1.74615205	-0.334687
C	-1.1463878303	-1.0289629526	 0.3316968541	-0.008171
H	 1.047167393	 1.8266753798	-0.2076981173	 0.134867
H	-0.5749493244	 1.8348259499	-0.9227101221	 0.121963
H	-0.3893696892	 1.8471366035	 0.841558623	 0.138991
H	-0.0090550378	-0.9159545958	-1.9541278341	 0.201771
H	 1.1901714539	-3.7208843498	-0.4108376626	 0.134867
H	-0.2413903806	-3.8918538684	 0.6314666104	 0.138992
H	-0.4307492094	-3.7602262662	-1.1275249723	 0.121963
H	 1.4072423481	-1.0119144637	 1.664125142	 0.097122
H	-2.2012301936	-1.0457798501	 0.0482819283	 0.086932
200.3885	211.5002	215.344	222.3654	257.505	362.3622	482.0969	555.098	591.8965	712.7442	737.5353	769.4788	807.9773	825.0207	864.2789	883.2141	931.7783	1012.6193	1069.6124	1085.7877	1092.3125	1105.0266	1110.2995	1160.7111	1184.6424	1238.0531	1259.5545	1278.2409	1321.3624	1390.2618	1404.3992	1443.4214	1482.2307	1482.7158	1487.7837	1491.3076	3033.4481	3033.7862	3094.9874	3100.4167	3100.4566	3113.8555	3113.9028	3128.164	3388.845
CC12NC3(C)C1OC23	C[C@@]12N[C@@]3(C)[C@@H]1O[C@@H]23	
InChI=1S/C6H9NO/c1-5-3-6(2,7-5)4(5)8-3/h3-4,7H,1-2H3	InChI=1S/C6H9NO/c1-5-3-6(2,7-5)4(5)8-3/h3-4,7H,1-2H3/t3-,4+,5-,6+
