20
gdb 60365	2.85248	0.8277	0.67021	4.4192	76.69	-0.2773	0.0161	0.2935	1671.1355	0.16772	-440.29063	-440.279825	-440.278881	-440.327368	37.918	
C	-0.1380939957	 0.9488108135	-0.503032043	-0.401889
C	 0.1071033489	-0.233679731	 0.4292584944	 0.111006
O	 0.6919388305	 0.1615619589	 1.6631113703	-0.426228
C	-1.1645422309	-1.0375916258	 0.7131771045	-0.087595
O	-1.657825614	-1.5554344175	-0.5154264872	-0.244343
C	-2.8416031577	-2.3100899595	-0.4078394206	 0.010901
C	-3.3535204853	-2.5933681221	-1.8195194375	-0.400463
C	-2.6100745066	-3.5734536685	 0.3347899446	 0.263134
N	-2.4254370905	-4.5544024413	 0.916941702	-0.321961
H	 0.7965980486	 1.4820933067	-0.6948921463	 0.12734
H	-0.5573347972	 0.6101269019	-1.453727741	 0.134968
H	-0.8507841517	 1.6533479948	-0.0536958191	 0.101904
H	 0.8352300755	-0.9127869713	-0.0284288721	 0.106807
H	 0.1617134439	 0.8800395107	 2.0254315981	 0.280002
H	-0.9300387677	-1.8480334987	 1.4157271096	 0.127906
H	-1.9248815934	-0.3877839028	 1.1817979777	 0.07877
H	-3.602598521	-1.7454726685	 0.1559366799	 0.114429
H	-4.277983455	-3.1743426613	-1.783231335	 0.139743
H	-3.5440229621	-1.6442565056	-2.3252999703	 0.135677
H	-2.6045649387	-3.1525031526	-2.3845440989	 0.149891
41.4052	60.9788	119.9006	141.1313	191.1467	217.2156	249.9591	273.7939	281.7465	294.1648	329.9408	435.2778	442.147	496.4601	579.2084	616.6228	803.1259	849.5403	918.9039	931.5645	972.9816	1040.9753	1081.5158	1099.6531	1131.236	1146.3976	1165.5599	1178.9429	1249.6433	1302.7848	1335.0095	1356.2477	1370.2936	1399.3502	1406.327	1416.6646	1431.2795	1481.9901	1491.0209	1495.4258	1496.8169	1516.9461	2353.2521	2952.2448	2972.5873	3022.2554	3040.8318	3058.5038	3059.4254	3102.1191	3133.1329	3141.3296	3144.2356	3799.4887
CC(O)COC(C)C#N	C[C@@H](O)CO[C@@H](C)C#N	
InChI=1S/C6H11NO2/c1-5(8)4-9-6(2)3-7/h5-6,8H,4H2,1-2H3	InChI=1S/C6H11NO2/c1-5(8)4-9-6(2)3-7/h5-6,8H,4H2,1-2H3/t5-,6+/m1/s1
