17
gdb 15693	2.975	2.02164	1.41717	2.0209	65.98	-0.2518	0.0173	0.2691	912.8528	0.143119	-401.007847	-401.000059	-400.999115	-401.040193	28.225	
C	-0.4089696087	 1.0589559489	 0.1004202407	-0.242418
O	 0.1318720683	-0.246443706	-0.0211737213	-0.259508
C	 0.8702081615	-0.4584981099	-1.2135071026	 0.041848
C	 1.5213402812	-1.8367767133	-1.1168874474	-0.259415
C	 0.3916412819	-2.7509454972	-1.6065113738	-0.079535
O	-0.3324908512	-1.9656574479	-2.5746468324	-0.243192
C	-0.0725726822	-0.6394368728	-2.3999009014	 0.413187
N	-0.5617115632	 0.2957392341	-3.0960211151	-0.541653
H	 0.3889289777	 1.8168965786	 0.1108743973	 0.106271
H	-1.0998314964	 1.2946709635	-0.7167351621	 0.141582
H	-0.9410026627	 1.0878649108	 1.054058924	 0.123712
H	 1.572249076	 0.3650196941	-1.3901996282	 0.089712
H	 2.3791205874	-1.8927088814	-1.7934018032	 0.117856
H	 1.8499366541	-2.0599564368	-0.1010361308	 0.123617
H	 0.7360557833	-3.6587812813	-2.1060687537	 0.11942
H	-0.289982672	-3.0232918786	-0.7939313226	 0.127031
H	-1.2009733551	-0.0791608247	-3.8007358374	 0.221484
89.1735	131.3256	178.3193	188.2957	257.68	318.7225	401.7585	457.7146	670.0999	678.203	695.4917	840.3365	892.5034	903.5669	920.2453	958.3472	978.8217	1038.8941	1105.3894	1118.6766	1135.8522	1187.9628	1209.8349	1218.4848	1239.4264	1289.3395	1304.4151	1340.9382	1365.1784	1412.4924	1474.227	1479.3989	1483.518	1514.6907	1520.2601	1768.4356	2991.9156	3039.5876	3052.6907	3069.67	3070.6755	3112.3014	3124.2323	3137.0033	3455.9682
COC1CCOC1=N	CO[C@H]1CCO[C]1[NH]	
InChI=1S/C5H9NO2/c1-7-4-2-3-8-5(4)6/h4,6H,2-3H2,1H3	InChI=1S/C5H9NO2/c1-7-4-2-3-8-5(4)6/h4,6H,2-3H2,1H3/t4-/m0/s1
