21
gdb 103903	3.36146	0.78208	0.71644	2.6335	80.29	-0.2456	-0.0195	0.2261	1635.5905	0.179127	-424.222806	-424.212365	-424.211421	-424.259247	37.553	
C	-0.3801350006	 1.5357859513	 0.1754596148	-0.399261
C	 0.1306712713	 0.113141657	-0.0840722585	-0.22506
C	 0.8228183592	-0.4924755303	 1.123042731	 0.397084
O	 1.962789559	 0.2183588721	 1.5453195221	-0.474357
C	 0.0244053781	-1.1947696437	 2.1996983026	-0.352007
C	 0.9742845022	-1.9758509271	 1.3057662559	-0.056999
C	 0.4664822135	-3.0082426818	 0.3157441243	-0.315501
C	 0.3151734541	-4.3666319689	 0.9709595259	 0.171204
O	-0.6774184989	-5.0455070589	 0.9272615265	-0.238619
H	 0.4445879062	 2.2145983542	 0.4172946968	 0.114378
H	-0.8826518133	 1.9388558825	-0.7082602318	 0.119605
H	-1.0940689866	 1.5559599726	 1.0061870558	 0.118952
H	-0.707893062	-0.523639461	-0.3833174977	 0.099446
H	 0.8373720921	 0.1250126083	-0.9231980347	 0.105837
H	 1.6651670466	 1.029348884	 1.9715789279	 0.283585
H	 0.3174385107	-1.0368679006	 3.2316385573	 0.114112
H	-1.0419898538	-1.3265521251	 2.0424260482	 0.116671
H	 1.9175373113	-2.2394396153	 1.7774577977	 0.102717
H	-0.4972406083	-2.7371888317	-0.1216327029	 0.121768
H	 1.1908783355	-3.1197508147	-0.5053839155	 0.124326
H	 1.2219310038	-4.7120711728	 1.521757804	 0.07212
42.052	61.9142	95.1021	126.7395	195.8983	237.6743	250.0674	289.7954	318.8717	380.8442	405.1693	448.4328	528.7105	582.657	690.2775	758.4897	788.7524	859.4338	890.0628	927.98	935.9554	995.0371	1028.4966	1045.1366	1055.8957	1084.2665	1088.8283	1129.5891	1168.3702	1215.6191	1241.5767	1284.7192	1297.6948	1310.7282	1335.1549	1381.3971	1407.3864	1424.2405	1428.8304	1459.1448	1477.7317	1492.8195	1501.6932	1512.5477	1837.0169	2854.3095	3003.7065	3030.5021	3033.8654	3074.5293	3101.9143	3107.189	3110.3949	3127.2668	3144.9127	3218.3823	3801.9746
CCC1(O)CC1CC=O	CC[C@@]1(O)C[C@H]1CC=O	
InChI=1S/C7H12O2/c1-2-7(9)5-6(7)3-4-8/h4,6,9H,2-3,5H2,1H3	InChI=1S/C7H12O2/c1-2-7(9)5-6(7)3-4-8/h4,6,9H,2-3,5H2,1H3/t6-,7-/m1/s1
