19
gdb 67742	3.25347	1.53885	1.35282	1.3216	79.35	-0.2199	0.0178	0.2377	1017.4583	0.159014	-385.859696	-385.851966	-385.851021	-385.89105	32.176	
C	-0.037901681	 1.538925533	 0.0607517621	-0.495149
C	 0.0734405838	 0.0292927735	 0.0169738453	 0.265647
C	-1.2302192786	-0.8172074613	 0.3541269227	-0.265484
C	-0.3637757528	-1.746959437	 1.1870167556	-0.134735
C	 0.7745598464	-0.7468874838	 1.1889578199	-0.148964
C	 1.0020262664	-2.0579184259	 0.5053242407	 0.380298
O	 1.8091504039	-2.9911582016	 1.1516486674	-0.482766
C	 1.1306690829	-1.8094856131	-0.9611946235	-0.175491
C	 0.6570737096	-0.592122839	-1.239458585	-0.127836
H	 0.9448154909	 2.0105596678	-0.0496225315	 0.120341
H	-0.6778914363	 1.9077768911	-0.7491660184	 0.115697
H	-0.469896387	 1.8790773047	 1.0077485041	 0.114356
H	-1.898843006	-0.239127344	 0.999390569	 0.100391
H	-1.7951435061	-1.2224743217	-0.4925533059	 0.087473
H	-0.6896609688	-2.3948088684	 1.9930076732	 0.083385
H	 1.3827508196	-0.354460367	 1.9953550769	 0.090337
H	 1.4152335799	-3.8620667731	 1.0355904177	 0.284473
H	 1.5104581157	-2.5457029138	-1.659029519	 0.094332
H	 0.5372198176	-0.1520339505	-2.2228093815	 0.093695
202.6758	220.9291	255.2391	286.9571	327.8548	353.3726	393.6608	418.7994	550.5356	566.4813	631.3033	716.4413	719.6653	748.4369	813.9971	853.2186	868.2464	896.4189	898.8341	924.6814	965.9789	984.3899	1005.0374	1014.0847	1080.6103	1098.0379	1133.3735	1148.1057	1200.0129	1221.3311	1237.3629	1249.0876	1276.9638	1330.0007	1362.1354	1411.8049	1414.3532	1482.826	1491.4533	1497.2685	1645.5848	3024.1	3032.9751	3089.187	3089.873	3096.2888	3172.3749	3186.7233	3189.3292	3216.6345	3804.2471
CC12CC3C1C3(O)C=C2	C[C@]12C[C@@H]3[C@H]1[C@]3(O)C=C2	
InChI=1S/C8H10O/c1-7-2-3-8(9)5(4-7)6(7)8/h2-3,5-6,9H,4H2,1H3	InChI=1S/C8H10O/c1-7-2-3-8(9)5(4-7)6(7)8/h2-3,5-6,9H,4H2,1H3/t5-,6-,7+,8+/m1/s1
