19
gdb 88576	3.53521	1.01104	0.97502	2.5897	79.34	-0.2271	0.0047	0.2319	1302.6437	0.15844	-423.007245	-422.998413	-422.997468	-423.041821	31.839	
C	-0.2021825281	 1.4786390297	-0.2053516519	-0.431536
C	-0.0370522346	 0.0041435596	 0.0499980466	 0.090047
O	 1.2662451387	-0.5689943407	-0.0633514728	-0.25495
C	 0.6402939564	-0.584721594	 1.2291898763	-0.082867
C	 1.3040164909	 0.1868090209	 2.3027749112	 0.301986
C	 0.9988037091	 0.2025516583	 3.5991600134	-0.2264
C	 1.972970721	 1.0634130746	 4.3495942253	-0.099014
O	 2.8725758509	 1.5560792602	 3.3617147855	-0.266929
C	 2.5444908188	 1.0223992945	 2.0838530511	-0.152598
H	 0.5551360271	 2.0728499851	 0.3072943945	 0.134385
H	-0.1348022456	 1.6863803368	-1.2783774991	 0.132852
H	-1.1892575606	 1.8072011573	 0.1372659626	 0.126494
H	-0.8156425925	-0.6175727169	-0.3987745957	 0.092151
H	 0.2870140127	-1.5708803572	 1.5355700279	 0.09843
H	 0.18707816	-0.3305737869	 4.0788772824	 0.100295
H	 1.4879525964	 1.9076007091	 4.865444753	 0.105007
H	 2.5248586483	 0.4945991647	 5.116353451	 0.104455
H	 3.3728059276	 0.4108029087	 1.6941959652	 0.116458
H	 2.3981833334	 1.845361866	 1.3703224635	 0.111735
41.7085	89.603	140.0034	153.955	189.4508	246.0392	367.1935	425.6472	435.5971	545.1342	667.9538	773.5074	782.2217	827.7873	854.7692	909.315	926.3194	967.738	986.0047	1011.9869	1028.4124	1063.2711	1086.3444	1114.3672	1149.4351	1166.3	1172.5682	1217.0015	1223.6757	1280.6147	1314.4633	1371.6356	1380.7995	1400.2175	1416.1742	1454.1893	1483.8779	1499.6737	1516.9962	1528.8726	1719.1411	2963.8019	2980.5592	2988.5758	3012.7806	3042.9735	3075.4338	3092.7211	3101.9205	3148.2743	3210.1668
CC1OC1C1=CCOC1	C[C@H]1O[C@H]1C1=CCOC1	
InChI=1S/C7H10O2/c1-5-7(9-5)6-2-3-8-4-6/h2,5,7H,3-4H2,1H3	InChI=1S/C7H10O2/c1-5-7(9-5)6-2-3-8-4-6/h2,5,7H,3-4H2,1H3/t5-,7-/m1/s1
