17
gdb 66453	3.03895	1.69215	1.50461	0.5604	70.67	-0.2321	0.0688	0.3009	937.6957	0.135381	-421.742691	-421.735447	-421.734503	-421.773863	29.473	
C	 0.0131132963	 1.4263318222	 0.033359496	-0.519418
C	 0.0148760828	-0.0702021626	-0.0383610321	 0.357422
C	-0.9361949416	-0.9875055152	 0.7304573298	-0.13313
C	 0.5623091439	-1.1025582539	 0.9262743523	-0.229326
C	 0.5625066556	-2.1139194205	-0.2519809414	 0.415794
O	 1.4547386009	-3.1458762651	-0.3725344173	-0.476722
C	-1.0184745412	-2.1541973198	-0.2893036674	-0.034467
O	-1.0572050327	-1.5798244867	-1.6141744505	-0.292028
C	 0.2149968293	-0.978775745	-1.290212617	-0.099908
H	 0.9750154309	 1.8442751537	-0.2838723496	 0.121341
H	-0.7664805114	 1.8487659027	-0.6108015224	 0.128593
H	-0.1753675509	 1.7711255625	 1.0555317106	 0.122301
H	-1.6880795826	-0.6170376909	 1.4141697712	 0.0913
H	 1.1768277979	-1.0076025972	 1.8093426159	 0.098367
H	 1.2633421141	-3.6206920382	-1.1906851018	 0.292686
H	-1.6836974985	-3.0035996148	-0.1390443752	 0.080476
H	 0.7941131571	-0.6395316313	-2.1490898411	 0.076718
194.1687	199.1055	235.7955	287.7716	308.0666	375.9817	543.8146	553.2454	584.0722	660.5919	765.6138	787.1363	819.9683	828.3241	849.3025	886.3527	912.6986	923.4922	944.8784	978.5315	995.0544	1029.9296	1060.1185	1081.5554	1102.7517	1137.6394	1156.9286	1193.2896	1222.1225	1251.1353	1289.1502	1339.3399	1402.1575	1416.7135	1441.6322	1487.184	1498.9016	3024.5956	3086.5444	3095.8035	3124.2259	3132.0061	3204.4655	3227.8127	3785.3833
CC12C3C1C1(O)C3OC21	C[C@]12[C@@H]3[C@H]1[C@@]1(O)[C@@H]3O[C@@H]21	
InChI=1S/C7H8O2/c1-6-2-3(6)7(8)4(2)9-5(6)7/h2-5,8H,1H3	InChI=1S/C7H8O2/c1-6-2-3(6)7(8)4(2)9-5(6)7/h2-5,8H,1H3/t2-,3-,4-,5+,6+,7-/m1/s1
