24
gdb 123034	4.52146	0.56194	0.53085	2.1203	87.91	-0.2215	0.0828	0.3043	2159.8775	0.215437	-405.504386	-405.493454	-405.492509	-405.541554	38.657	
C	-0.0991530738	 1.365939647	 0.0345603451	-0.227038
O	-0.2007604779	-0.0257289906	 0.2074016054	-0.230039
C	 0.8014057524	-0.5498272457	 1.0504237738	-0.049996
C	 0.6013051363	-2.0540637637	 1.1725700965	-0.195177
C	 1.6527644667	-2.7178003988	 2.0720064251	-0.223472
C	 1.5077281053	-4.225804771	 2.1363935669	 0.027488
C	 2.0249763482	-5.0068386443	 3.2969040675	-0.265453
N	 0.5917846165	-4.9277734456	 3.041048155	-0.07651
C	-0.2211233537	-4.1852586655	 3.9910327027	-0.313307
H	 0.8612395624	 1.6538240762	-0.423066936	 0.101372
H	-0.9112666716	 1.6752652231	-0.628112647	 0.126034
H	-0.1957007999	 1.9064363604	 0.9901998435	 0.101157
H	 1.8031502212	-0.3275281029	 0.6406253209	 0.081345
H	 0.7529675219	-0.0726879954	 2.0459192912	 0.080774
H	-0.40590344	-2.2439619741	 1.5601287042	 0.112928
H	 0.6363501914	-2.4947477042	 0.1689318508	 0.108355
H	 2.6563937939	-2.4931235017	 1.6851055522	 0.101534
H	 1.6161210568	-2.2833677096	 3.0774163491	 0.097951
H	 1.5531075453	-4.6996402719	 1.1550202656	 0.08662
H	 2.4872619009	-5.9817002645	 3.1617776094	 0.110933
H	 2.4231316012	-4.4305746134	 4.1330334841	 0.099576
H	 0.2741946521	-3.3108324422	 4.4417193759	 0.09739
H	-1.1391526316	-3.8455483841	 3.5003836097	 0.12431
H	-0.5058568739	-4.8600497073	 4.8049811886	 0.123224
50.4922	64.3289	94.7071	111.6828	136.3437	191.8577	234.0838	240.1363	288.9214	306.2075	364.0709	426.8229	489.4481	536.0275	733.7673	762.6414	791.3857	879.3153	923.5738	984.6908	1020.4596	1041.0427	1055.9531	1081.7469	1101.5989	1117.6739	1132.1315	1164.4726	1166.3193	1177.4959	1197.4391	1204.8318	1223.9726	1232.3867	1277.1853	1301.2724	1313.5664	1340.5761	1366.8534	1426.0789	1428.2354	1446.3745	1478.0568	1481.5105	1485.2306	1489.7255	1497.6219	1503.9436	1507.6484	1513.2695	1532.6991	2935.0491	2959.6591	2966.1575	2976.9574	3006.6776	3015.4906	3036.9966	3054.7396	3065.0285	3077.6034	3082.4557	3096.3985	3098.41	3111.5734	3165.0463
COCCCC1CN1C	COCCC[C@H]1CN1C	
InChI=1S/C7H15NO/c1-8-6-7(8)4-3-5-9-2/h7H,3-6H2,1-2H3	InChI=1S/C7H15NO/c1-8-6-7(8)4-3-5-9-2/h7H,3-6H2,1-2H3/t7-,8?/m0/s1
