16
gdb 130294	3.26958	1.51857	1.05444	3.083	71.45	-0.222	0.0081	0.2301	1082.9206	0.127613	-434.044729	-434.037276	-434.036332	-434.076662	28.518	
N	-0.028089874	 1.4088924531	-0.133012924	-0.59105
C	 0.0391703788	 0.0303763669	-0.0227936987	 0.237043
N	-1.0660602597	-0.6983465003	-0.0238100117	-0.233215
O	-0.640199322	-2.0536175937	 0.0062544082	-0.240139
C	 0.6868245612	-2.0398826203	 0.0413395195	 0.394513
C	 1.199160174	-0.7945027735	 0.0271095089	 0.142047
C	 2.6938595586	-0.8501795498	 0.0346140756	-0.305843
N	 2.9442511098	-2.30200513	 0.2790351739	-0.318243
C	 1.7187697107	-3.1144073497	 0.0657422709	-0.287673
H	 0.6650139138	 1.9011697705	 0.4124267317	 0.255163
H	-0.9589873106	 1.7682514952	 0.0344508654	 0.260904
H	 3.1254078142	-0.5003374112	-0.9167126398	 0.105868
H	 3.1558238157	-0.2528398899	 0.8326361005	 0.110763
H	 3.7122074636	-2.6414918139	-0.2832280287	 0.225623
H	 1.5748593136	-3.8341536573	 0.8822507264	 0.128797
H	 1.7263850024	-3.6876359362	-0.875135858	 0.115442
114.2306	162.3237	217.3852	252.3884	320.8161	376.2048	502.2442	555.8916	612.4793	627.1158	658.2728	672.285	748.4886	793.2988	847.0286	917.2107	935.6243	1032.098	1040.5507	1060.513	1104.5627	1136.8234	1172.1599	1199.8933	1255.0858	1283.7964	1354.2817	1409.5195	1442.791	1515.8605	1524.7958	1529.6878	1548.4747	1645.9177	1686.9951	2969.7566	2973.6059	3007.4569	3022.8917	3552.2229	3579.8596	3652.7182
NC1=NOC2=C1CNC2	Nc1noc2c1CNC2	
InChI=1S/C5H7N3O/c6-5-3-1-7-2-4(3)9-8-5/h7H,1-2H2,(H2,6,8)	InChI=1S/C5H7N3O/c6-5-3-1-7-2-4(3)9-8-5/h7H,1-2H2,(H2,6,8)
