21
gdb 73031	2.83246	1.17568	1.01091	1.2053	83.09	-0.2353	0.0833	0.3186	1277.9638	0.182568	-387.040349	-387.031649	-387.030705	-387.073907	33.999	
O	-0.0231559264	 1.4239435998	 0.1074854124	-0.459975
C	-0.0191445715	 0.0400591744	 0.0235718987	 0.367069
C	-0.9165984502	-0.7482415534	-0.9404689643	-0.298818
C	-1.1855606797	-1.784149638	 0.201691857	-0.226886
C	-0.304180136	-0.9563075957	 1.1456057512	-0.13496
C	 1.0993283578	-0.7980124036	 0.5832079981	-0.086342
C	 1.8727148022	-1.8515280379	-0.1469387455	 0.012015
C	 3.3152578903	-1.6036777165	-0.5229380925	-0.275374
C	 2.9780991577	-2.6014924484	 0.5569856667	-0.267818
H	 0.6997501623	 1.7614956251	-0.4323960712	 0.283672
H	-1.8148969582	-0.1798677083	-1.1908901926	 0.10936
H	-0.4606033438	-1.1132833863	-1.8670310005	 0.089748
H	-2.23421164	-1.8017544267	 0.5051387952	 0.104058
H	-0.8623829799	-2.813014974	 0.0166991436	 0.098089
H	-0.5080624986	-0.7691969914	 2.1931473881	 0.086647
H	 1.7152647595	-0.2025554618	 1.2571067801	 0.080341
H	 1.3001617722	-2.4314041412	-0.8632050594	 0.084151
H	 3.6739238209	-1.9746267549	-1.4769381136	 0.109153
H	 3.762441646	-0.6622857671	-0.2191434738	 0.106162
H	 3.1955174796	-2.3286183898	 1.584660597	 0.110479
H	 3.1054181359	-3.6571404542	 0.3434673553	 0.10923
54.0463	140.7359	163.9425	221.3164	264.1961	290.0525	366.1138	386.0715	479.3656	509.8403	625.7143	742.5453	764.2782	794.3265	824.925	829.5116	888.766	904.3377	927.3301	944.3282	958.1374	976.2297	1024.1361	1043.239	1058.6415	1076.0052	1088.7225	1122.4265	1134.4246	1176.917	1198.2681	1211.2543	1217.4082	1228.1196	1235.6304	1247.4469	1296.1075	1310.8991	1322.4561	1387.9667	1469.0168	1479.6959	1483.5975	1506.4428	1514.8524	3042.7296	3056.6264	3100.0429	3113.0513	3117.6947	3125.3872	3130.8009	3161.4912	3182.4653	3203.0308	3219.1962	3795.642
OC12CCC1C2C1CC1	O[C@]12CC[C@H]1[C@H]2C1CC1	
InChI=1S/C8H12O/c9-8-4-3-6(8)7(8)5-1-2-5/h5-7,9H,1-4H2	InChI=1S/C8H12O/c9-8-4-3-6(8)7(8)5-1-2-5/h5-7,9H,1-4H2/t6-,7+,8+/m0/s1
