19
gdb 84130	2.85244	1.36968	1.0373	2.49	77.59	-0.2435	0.0181	0.2616	1189.2735	0.15853	-423.022735	-423.014196	-423.013252	-423.055627	33.063	
C	-0.003596282	 1.5059868217	 0.040940325	-0.491436
C	-0.0019784861	 0.0121403997	-0.0208442688	 0.32671
C	-0.0599684825	-0.7603070158	-1.1091584803	-0.220295
C	-0.1075416037	-2.2374378592	-0.7787191183	 0.039382
O	 0.7079055581	-3.0839250438	-1.5571513379	-0.440176
C	 0.3047736236	-2.222935303	 0.7071065884	 0.36265
C	 0.4898601159	-3.4429294234	 1.4880437795	-0.245466
O	 1.6235071252	-2.7510007761	 0.9354619052	-0.274977
C	 0.0372875985	-0.826358038	 1.2464888775	-0.387005
H	 0.8910070268	 1.8789410123	 0.555878279	 0.129189
H	-0.035664065	 1.9510713275	-0.9568840891	 0.127411
H	-0.8659735934	 1.8786238596	 0.6087527189	 0.126303
H	-0.116292991	-0.4042065702	-2.1317554129	 0.0958
H	-1.133577613	-2.6188444807	-0.8882661787	 0.090393
H	 1.5704510894	-3.0892042357	-1.1178720687	 0.288803
H	 0.4207826611	-3.4142822439	 2.5743596277	 0.116491
H	 0.2730077203	-4.4060648307	 1.0285459093	 0.124203
H	 0.8204887551	-0.518211763	 1.9486226215	 0.119599
H	-0.9186322874	-0.7753196773	 1.7866707727	 0.112421
92.8423	148.8596	194.306	245.8315	275.7137	311.4267	371.4202	421.584	437.9522	474.0882	508.1015	561.6563	665.4368	753.8299	830.3554	865.6132	875.5918	901.9417	956.6373	996.2482	1008.852	1039.1351	1067.9618	1101.3541	1121.8746	1150.7123	1181.3439	1191.0609	1226.7157	1253.6542	1287.3874	1315.4163	1335.812	1412.9705	1425.0188	1444.6915	1472.5113	1478.7519	1486.6457	1526.1724	1714.8602	2994.3184	3010.2388	3017.4266	3061.6035	3063.0692	3086.218	3114.1427	3174.8975	3196.4786	3735.7001
CC1=CC(O)C2(CO2)C1	CC1=C[C@@H](O)[C@]2(CO2)C1	
InChI=1S/C7H10O2/c1-5-2-6(8)7(3-5)4-9-7/h2,6,8H,3-4H2,1H3	InChI=1S/C7H10O2/c1-5-2-6(8)7(3-5)4-9-7/h2,6,8H,3-4H2,1H3/t6-,7-/m1/s1
