23
gdb 85858	2.00076	1.48922	1.32805	2.2555	81.5	-0.2371	0.0655	0.3026	1180.3944	0.201564	-425.429173	-425.418358	-425.417413	-425.463971	41.04	
C	 0.1336586885	 1.5778493145	-0.1762146487	-0.421413
C	 0.0777540506	 0.0805596095	 0.049594378	 0.128303
O	 0.9557706683	-0.6493901399	-0.8339209634	-0.351114
C	 1.3747583882	-1.5539670753	 0.2304687387	 0.393284
C	 0.6710341082	-2.9031675847	 0.096910309	-0.41554
C	 2.8874351075	-1.7244684339	 0.2251397414	-0.439356
C	 0.7218393092	-0.6033299894	 1.2926912883	 0.264242
C	 1.6688797686	 0.2550811456	 2.1197689059	-0.467596
O	-0.1769566475	-1.2962625512	 2.1398097987	-0.471611
H	 1.1508920953	 1.9654886091	-0.0768186357	 0.117731
H	-0.2176354774	 1.812670243	-1.1861139037	 0.129406
H	-0.5154205891	 2.1024355383	 0.5338691923	 0.110815
H	-0.9595413386	-0.2723930386	-0.0540754394	 0.070245
H	 0.9954581013	-3.3878081896	-0.8292438392	 0.111596
H	 0.9168556767	-3.5565396744	 0.9392099011	 0.116902
H	-0.4134523435	-2.7871096317	 0.070512765	 0.126057
H	 3.4045010038	-0.7630032236	 0.2370400477	 0.114169
H	 3.2173699525	-2.3145482253	 1.0865262443	 0.11683
H	 3.1916808486	-2.2559312258	-0.6823567961	 0.123271
H	 2.389206463	 0.7970830878	 1.5044043806	 0.132864
H	 1.1013038671	 1.0023070551	 2.6891202534	 0.107284
H	 2.2203584598	-0.3671583603	 2.8308389964	 0.126377
H	-0.454066791	-0.6979436293	 2.8408449453	 0.277255
63.5346	176.4808	199.6535	211.4843	217.2223	225.3896	229.4521	252.7026	281.198	323.8761	354.1801	365.7735	414.7581	443.2381	518.0294	542.6638	632.9773	672.296	817.301	860.1294	900.7539	929.6005	951.029	982.9586	994.4642	1015.298	1085.9559	1093.1621	1138.0188	1171.7618	1186.2221	1201.6119	1241.5916	1264.0216	1310.0008	1377.7428	1390.1991	1397.9845	1407.4699	1411.4919	1419.1074	1471.0833	1474.6152	1478.0399	1486.2592	1489.7083	1501.263	1504.8733	1513.4648	2985.0693	3025.2682	3035.8142	3039.0956	3046.5343	3094.2432	3101.968	3104.196	3115.0375	3118.165	3125.9273	3136.4722	3139.4447	3817.1188
CC1OC(C)(C)C1(C)O	C[C@H]1OC(C)(C)[C@]1(C)O	
InChI=1S/C7H14O2/c1-5-7(4,8)6(2,3)9-5/h5,8H,1-4H3	InChI=1S/C7H14O2/c1-5-7(4,8)6(2,3)9-5/h5,8H,1-4H3/t5-,7-/m1/s1
