18
gdb 66806	3.629	1.82722	1.81007	1.4695	76.64	-0.2348	0.0729	0.3077	857.3801	0.149908	-364.74602	-364.739825	-364.738881	-364.776158	26.7	
C	 0.0430174682	 1.5229773379	 0.0144924861	-0.515156
C	-0.0310407889	 0.0300711958	-0.0636297745	 0.349663
C	 0.6725618349	-0.995168922	-0.9014581048	-0.119277
C	-0.5437782031	-1.9513927576	-0.8371187513	-0.075927
C	-0.3826581663	-2.8416911007	 0.4190797186	-0.089587
C	-1.1087625665	-1.802956542	 1.2733679326	-0.093014
C	 0.3962010305	-1.8973262678	 1.2975212868	-0.029666
N	 1.025441912	-0.8155709557	 0.5203266514	-0.160141
C	-1.2872672207	-0.885075406	 0.0420625375	-0.131373
H	 1.0725304632	 1.8629668667	-0.1271842539	 0.132236
H	-0.5853059315	 1.9913369372	-0.7508552825	 0.116342
H	-0.298236726	 1.8790363911	 0.9939662209	 0.121651
H	 1.4443636001	-0.9112168394	-1.6598339244	 0.087294
H	-0.9893732038	-2.3472652266	-1.7458078954	 0.070912
H	-0.3538619258	-3.9221543996	 0.4892827062	 0.086042
H	-1.7548051387	-1.9218216341	 2.1346234756	 0.086008
H	 0.9276995085	-2.2473561286	 2.1722320288	 0.094824
H	-2.2691373161	-0.5090639086	-0.2346246078	 0.069168
192.076	219.5992	281.1487	554.2666	565.8848	596.9228	713.9422	763.2605	770.8821	784.1381	790.7301	802.2842	831.8051	872.7441	881.2561	903.2018	912.2638	935.2594	962.6149	1005.7959	1014.1295	1031.3281	1047.1868	1059.7181	1093.0696	1100.2864	1125.3152	1158.7615	1192.8784	1202.8448	1222.7708	1230.528	1269.3558	1284.2092	1349.5914	1398.9657	1437.1813	1484.7632	1490.511	3026.8138	3087.143	3115.0784	3145.422	3152.4655	3162.2857	3179.184	3188.3044	3211.9503
CC12C3C4C5C(C5N13)C24	C[C@@]12[C@@H]3[C@H]4[C@@H]5[C@@H]([C@@H]5N13)[C@@H]24	
InChI=1S/C8H9N/c1-8-5-3-2-4(5)7(8)9(8)6(2)3/h2-7H,1H3	InChI=1S/C8H9N/c1-8-5-3-2-4(5)7(8)9(8)6(2)3/h2-7H,1H3/t2-,3+,4-,5+,6+,7-,8+,9?/m0/s1
