22
gdb 112826	2.38985	1.19442	0.86774	2.8496	80.17	-0.2162	0.0766	0.2928	1401.8829	0.192698	-441.439261	-441.428965	-441.428021	-441.475058	36.913	
C	-0.0452697147	 1.3939750636	-0.2932304987	-0.237781
O	-0.1120972355	 0.153759723	 0.3735216549	-0.240427
C	-1.3148796929	-0.535185102	 0.1462585033	 0.100961
C	-1.4044594441	-1.3276666182	-1.1865958112	-0.199899
N	-1.1486473294	-2.5852115208	-0.4517259108	-0.094985
C	-1.993889025	-3.7206194883	-0.7662811104	-0.330758
C	-1.3492604996	-1.9132799296	 0.8581200435	 0.001225
C	-0.2572300905	-2.2549961598	 1.8709189888	-0.076251
O	-0.0840277631	-3.6630269702	 1.9499779303	-0.42477
H	 0.9114855153	 1.851631481	-0.0314824992	 0.131039
H	-0.094624555	 1.2799589653	-1.3864502647	 0.109263
H	-0.8605872386	 2.0651175816	 0.0199274767	 0.106034
H	-2.1702401567	 0.122154413	 0.3520195191	 0.069274
H	-2.4063591746	-1.2829302961	-1.6406203573	 0.086693
H	-0.6565166868	-1.0870633354	-1.9505678451	 0.104953
H	-1.7512063719	-4.1036114736	-1.7635638035	 0.118174
H	-1.8206842078	-4.5181975225	-0.0386231317	 0.129319
H	-3.0728121298	-3.4732509265	-0.7492108346	 0.090401
H	-2.3429517738	-2.1231677745	 1.2827495854	 0.060917
H	 0.6750374232	-1.7537396828	 1.5871876648	 0.106674
H	-0.5361293701	-1.9126056718	 2.872555057	 0.102934
H	 0.2167923112	-3.9295322255	 1.0730197636	 0.287011
62.2032	69.4953	110.6896	153.231	189.3968	209.3634	238.8865	282.6262	324.7043	351.8744	410.5703	466.6497	516.6719	523.7503	754.7529	812.6959	839.453	909.4185	980.194	1012.0731	1022.1873	1061.1485	1084.5475	1105.4175	1134.1245	1165.5398	1179.5227	1183.8153	1199.1144	1202.9085	1236.947	1244.5525	1274.7887	1294.7256	1320.9952	1355.869	1394.49	1396.3365	1423.0795	1448.6449	1481.8017	1486.2808	1488.729	1501.0599	1505.5727	1507.4055	1509.7826	2922.9673	2974.652	2978.8125	2981.916	3012.4731	3024.0017	3038.3661	3056.2603	3058.8116	3089.508	3111.8176	3118.2668	3788.715
COC1CN(C)C1CO	CO[C@H]1CN(C)[C@H]1CO	
InChI=1S/C6H13NO2/c1-7-3-6(9-2)5(7)4-8/h5-6,8H,3-4H2,1-2H3	InChI=1S/C6H13NO2/c1-7-3-6(9-2)5(7)4-8/h5-6,8H,3-4H2,1-2H3/t5-,6-/m0/s1
