20
gdb 97425	4.72429	0.78188	0.73494	2.4051	79.99	-0.2485	0.0284	0.2769	1620.4138	0.170902	-440.294776	-440.285439	-440.284495	-440.330431	32.913	
C	-0.2708974139	 1.2740140703	-0.1813171379	-0.314096
N	-0.2876504531	-0.1718974987	-0.2568709841	-0.208878
C	 0.5386686836	-0.7171276314	-1.0313503986	 0.13041
O	 0.6006713428	-2.0651133246	-1.1294539828	-0.223684
C	 1.4838095379	-2.5740619508	-2.1339729493	 0.207571
C	 1.5010585772	-4.1077832696	-1.9862432261	-0.264677
C	 0.7838796803	-4.6100993303	-3.2617376557	-0.212973
C	 0.119270727	-3.3360968825	-3.7979417142	-0.092403
O	 1.0157184214	-2.2844674138	-3.4198827877	-0.240574
H	-0.0723586343	 1.5865334339	 0.8504474601	 0.125904
H	 0.4773284811	 1.7503141248	-0.8362320627	 0.095726
H	-1.258921824	 1.6672849824	-0.4467669381	 0.126664
H	 1.2598996482	-0.1795767505	-1.6645681751	 0.083197
H	 2.4594795789	-2.087080004	-2.0303268173	 0.088983
H	 2.5230971817	-4.4837361923	-1.9123480918	 0.114022
H	 0.9711439639	-4.3827855803	-1.0731136954	 0.134073
H	 1.5079448459	-4.989381129	-3.9879665281	 0.112291
H	 0.0630275991	-5.4045598777	-3.0573851493	 0.111517
H	 0.0165036025	-3.3047296899	-4.8844279324	 0.112799
H	-0.8667583562	-3.1748991059	-3.3424775035	 0.114129
44.751	63.1469	75.1636	152.6048	200.7786	217.3519	309.4897	325.4109	389.5547	544.6614	604.733	634.3877	755.2428	840.8911	877.4376	925.464	936.9414	964.7742	976.8222	993.21	1050.0355	1063.2098	1097.7511	1136.5842	1141.4789	1152.302	1211.0487	1226.878	1241.2203	1257.5471	1311.9699	1320.7605	1359.6918	1373.6866	1399.4043	1424.4606	1450.0689	1480.5312	1481.8326	1499.3093	1504.705	1521.228	1780.9147	2966.7124	3008.4492	3021.7323	3052.9217	3057.0818	3065.1813	3076.0601	3086.0176	3108.5267	3117.2523	3138.0497
CN=COC1CCCO1	CN=CO[C@H]1CCCO1	
InChI=1S/C6H11NO2/c1-7-5-9-6-3-2-4-8-6/h5-6H,2-4H2,1H3	InChI=1S/C6H11NO2/c1-7-5-9-6-3-2-4-8-6/h5-6H,2-4H2,1H3/t6-/m0/s1
