20
gdb 122906	3.46228	0.6482	0.56863	3.8657	77.02	-0.2732	0.0097	0.2829	1957.7943	0.168189	-440.284735	-440.273829	-440.272885	-440.322329	37.153	
C	-0.2331411533	 1.4085809338	-0.5987743932	-0.384392
C	-0.4228716888	-0.1070360633	-0.6956703115	-0.185605
C	-1.3957578532	-0.6355040013	 0.3479792847	-0.032749
O	-1.5178053821	-2.0384998147	 0.1856688797	-0.245
C	-2.3999585747	-2.6386053648	 1.0917274391	-0.076834
C	-2.5088551858	-4.1269987119	 0.7269233385	-0.02733
O	-3.2564499669	-4.8494246768	 1.6839849284	-0.407186
C	-3.0606706946	-4.2968088256	-0.6323116377	 0.260564
N	-3.547392258	-4.4373836826	-1.6706305111	-0.318566
H	 0.4695051413	 1.7633154503	-1.3577982275	 0.121947
H	-1.1790097468	 1.9407094984	-0.748432762	 0.11888
H	 0.1610454568	 1.7014550322	 0.3806493755	 0.117113
H	-0.796239364	-0.3828696776	-1.688113937	 0.116803
H	 0.5370013221	-0.6202101792	-0.5680109641	 0.109374
H	-1.0372200915	-0.402635105	 1.3651072435	 0.088738
H	-2.3830393115	-0.156935101	 0.2342423688	 0.092085
H	-2.0381222945	-2.5741536953	 2.1299021257	 0.108378
H	-3.4002323107	-2.1735671503	 1.0528369319	 0.092618
H	-1.5011098552	-4.5542313161	 0.7400265117	 0.1525
H	-4.1816292284	-4.5883868192	 1.6095959065	 0.298662
40.5419	50.3455	88.9185	118.1039	150.4707	188.9006	232.7914	237.8688	261.5657	311.7295	328.6675	412.8348	503.24	588.6811	614.9932	765.4685	811.5842	900.8506	911.8926	1011.5757	1042.4103	1057.19	1083.1508	1113.3687	1154.3687	1174.2149	1190.1895	1232.7485	1268.8141	1269.7945	1315.7676	1333.0052	1338.8289	1391.0043	1414.6581	1416.1074	1447.191	1492.6041	1500.8019	1505.7343	1514.023	1533.0799	2358.4826	2950.6492	2961.7741	2983.8145	3004.633	3033.2663	3042.7367	3075.5981	3078.2786	3102.0309	3111.6704	3803.286
CCCOCC(O)C#N	CCCOC[C@@H](O)C#N	
InChI=1S/C6H11NO2/c1-2-3-9-5-6(8)4-7/h6,8H,2-3,5H2,1H3	InChI=1S/C6H11NO2/c1-2-3-9-5-6(8)4-7/h6,8H,2-3,5H2,1H3/t6-/m0/s1
