14
gdb 18861	4.52823	2.25501	1.88496	1.1795	59.59	-0.2416	-0.0124	0.2292	702.1567	0.10911	-378.662638	-378.65684	-378.655896	-378.692218	23.292	
O	 0.0250864144	 1.3159664879	 0.1278358325	-0.435327
C	 0.0106632077	-0.086574521	 0.0017899016	 0.121098
C	-1.4564431503	-0.5093978552	-0.1195840166	-0.045401
C	-1.3519255642	-0.5935496711	-1.5973145814	-0.038608
C	 0.2054589681	-0.5936177107	-1.478785957	-0.089851
N	 0.6092427422	-2.0051346385	-1.372136524	-0.189362
C	-0.429323164	-2.5925074002	-0.9351351966	 0.037088
N	-1.6416233058	-1.8194583459	-0.834696414	-0.162703
H	 0.940320132	 1.6084789537	 0.0646919375	 0.290167
H	 0.643796883	-0.5791327836	 0.7513660216	 0.078445
H	-2.2642302717	-0.1914975297	 0.5272573578	 0.114049
H	-2.0111366644	-0.2744234842	-2.3955378592	 0.106029
H	 0.8330581917	 0.0030552626	-2.1371296897	 0.08126
H	-0.4671057286	-3.639740064	-0.6544754124	 0.133114
210.4483	300.7314	323.2741	399.8089	440.56	601.2435	714.875	752.0416	823.8436	835.1522	879.3111	898.0444	922.6399	955.9025	968.3086	974.9593	1004.4622	1038.7432	1074.707	1118.9927	1155.2846	1200.1695	1208.2345	1231.9752	1258.9341	1296.8558	1305.7441	1341.2271	1423.378	1666.7016	3018.5154	3144.1725	3185.1524	3201.6677	3204.8974	3812.6881
OC1C2C3C1N=CN23	O[C@H]1[C@H]2[C@H]3[C@@H]1[N][CH]N23	
InChI=1S/C5H6N2O/c8-5-2-3-4(5)7(3)1-6-2/h1-5,8H	InChI=1S/C5H6N2O/c8-5-2-3-4(5)7(3)1-6-2/h1-5,8H/t2-,3+,4+,5+,7?/m0/s1
