21
gdb 69768	3.02894	1.59649	1.42127	1.7429	80.72	-0.256	0.0865	0.3425	1023.9791	0.184694	-387.081657	-387.074218	-387.073274	-387.11293	31.197	
C	-0.0376667263	 1.5256929241	 0.0320410748	-0.468507
C	-0.0299616523	 0.0165933818	 0.0760112171	 0.405608
C	-1.2298585411	-0.7041364436	-0.5419023253	-0.277425
C	-1.4896433114	-2.0677519447	 0.1222827707	-0.015461
C	-0.1810382741	-2.9041979645	 0.203503344	-0.221108
C	 0.136944472	-2.0991014443	 1.4921129522	-0.05079
C	-1.404310117	-1.9412702293	 1.6736903889	-0.226086
C	 0.694180831	-0.7294673656	 1.1194468311	-0.009063
O	 1.2570331304	-0.5783927787	-0.1909346197	-0.296487
H	 0.8806127226	 1.9263474751	 0.468908786	 0.125663
H	-0.1050839345	 1.8811892316	-1.002747988	 0.123647
H	-0.8946302295	 1.9315748015	 0.5802317422	 0.117979
H	-2.1163243071	-0.0690413411	-0.4215060022	 0.096895
H	-1.0688499128	-0.8211661037	-1.6211735232	 0.10706
H	-2.3771030202	-2.5426448216	-0.3032214085	 0.059042
H	-0.3905907404	-3.9508087575	 0.4385140541	 0.090562
H	 0.5297540651	-2.8358049292	-0.6198138752	 0.114114
H	 0.7181545443	-2.579949735	 2.2817394558	 0.059127
H	-1.7755242949	-1.0241230062	 2.1426866305	 0.086997
H	-1.845215689	-2.8078805129	 2.1730336255	 0.097264
H	 1.2222500653	-0.1822205161	 1.9005903693	 0.080969
172.1534	200.3584	245.1903	336.7632	373.0489	402.068	413.1014	469.0521	566.6355	572.6823	706.7911	788.3097	821.0545	834.1644	866.6168	886.342	894.7115	920.4803	940.0989	972.4406	1002.7648	1033.6845	1049.192	1076.5542	1081.6807	1116.0718	1123.7511	1144.3338	1159.2067	1220.8958	1237.5463	1249.5065	1269.3401	1296.5832	1311.5556	1340.4135	1345.2381	1382.3264	1410.7126	1451.5767	1474.4107	1476.7611	1486.8723	1499.2542	1509.7172	3020.8796	3030.728	3043.7412	3059.7228	3064.4832	3074.3798	3081.2193	3091.695	3104.2432	3108.2364	3120.2627	3139.6527
CC12CC3CC(C3)C1O2	C[C@]12C[C@H]3C[C@H](C3)[C@H]1O2	
InChI=1S/C8H12O/c1-8-4-5-2-6(3-5)7(8)9-8/h5-7H,2-4H2,1H3	InChI=1S/C8H12O/c1-8-4-5-2-6(3-5)7(8)9-8/h5-7H,2-4H2,1H3/t5-,6+,7-,8+/m1/s1
