20
gdb 67594	2.7265	1.85752	1.79518	1.5402	80.47	-0.2173	0.0929	0.3101	920.3827	0.174383	-366.01001	-366.003179	-366.002235	-366.040692	29.017	
C	-0.0847219253	 1.4719774747	 0.0039308686	-0.505376
C	 0.0539478511	-0.0256228553	 0.0284085809	 0.345484
C	 0.7000213439	-0.7747925451	-1.1273086118	-0.125775
C	 1.25805611	-2.0692557174	-0.5628378019	-0.066015
C	 1.1926652219	-2.0187525488	 0.9572882733	-0.247712
C	 0.2371460502	-0.8727283647	 1.2496553759	-0.090699
N	-1.0635055174	-0.8488630799	 0.5479301079	-0.159145
C	-1.2888346249	-1.9813438435	-0.3668613793	-0.180167
C	-0.0722161262	-2.0700824925	-1.2749119939	-0.071479
H	 0.8969171851	 1.957867879	-0.0289577195	 0.115312
H	-0.6522714158	 1.8022178099	-0.8736400141	 0.118617
H	-0.6119099944	 1.8216596287	 0.8951183463	 0.128188
H	 1.142791233	-0.246178062	-1.9612698371	 0.081086
H	 2.0950650195	-2.566109106	-1.0411531971	 0.081068
H	 0.8566553254	-2.9661551878	 1.3981335905	 0.103452
H	 2.1773947535	-1.7962096148	 1.3850142625	 0.102364
H	 0.2060726288	-0.4632363908	 2.256795364	 0.081225
H	-1.4638548996	-2.8962651932	 0.211935364	 0.103563
H	-2.1973606948	-1.7806907303	-0.9459306871	 0.104289
H	-0.1513263542	-2.5690782003	-2.2351258621	 0.081719
184.6559	224.4892	281.9015	298.1746	427.7338	484.1457	567.4967	635.144	691.2067	721.0748	747.7227	780.5052	803.983	813.692	848.9303	928.0146	938.3241	959.3769	977.3653	1005.7202	1031.5341	1044.2034	1068.396	1080.251	1104.521	1108.8815	1111.2006	1145.5998	1201.5093	1212.2598	1238.8955	1278.722	1299.7365	1323.5256	1333.4896	1341.6362	1401.3529	1413.2319	1440.8557	1484.7366	1487.5141	1495.3786	1509.252	3022.5107	3028.5548	3030.985	3058.1818	3064.906	3087.4757	3118.299	3129.2491	3159.4178	3169.4012	3199.7586
CC12C3C4CC1N2CC34	C[C@@]12[C@H]3[C@H]4C[C@@H]1N2C[C@@H]34	
InChI=1S/C8H11N/c1-8-6-2-4-5(7(4)8)3-9(6)8/h4-7H,2-3H2,1H3	InChI=1S/C8H11N/c1-8-6-2-4-5(7(4)8)3-9(6)8/h4-7H,2-3H2,1H3/t4-,5+,6-,7-,8-,9?/m0/s1
