14
gdb 27495	2.10523	1.87692	0.99291	2.7862	70.4	-0.2222	-0.0101	0.2122	1099.5065	0.102957	-470.078358	-470.070712	-470.069768	-470.110503	29.275	
N	 0.0961674543	 1.3345126323	 0.1652838007	-0.564718
C	-0.0691625799	-0.0186923873	 0.0602580814	 0.453204
C	-1.2328064697	-0.6989456604	 0.030553273	-0.275569
C	-1.2313293561	-2.1397527773	-0.0033839925	 0.397648
N	-2.299785697	-2.8410229487	-0.025848365	-0.550493
N	 0.0747707916	-2.6855620299	-0.012395471	-0.453666
C	 1.2625020604	-2.0079987862	-0.0042602666	 0.481312
O	 2.3496524693	-2.5101852389	-0.0298128916	-0.364523
O	 1.151323576	-0.6323280102	 0.0373533151	-0.253269
H	 0.9840774809	 1.6894314819	-0.1558311558	 0.273118
H	-0.7007778145	 1.9039152274	-0.0697938114	 0.272009
H	-2.1840056115	-0.1882768427	 0.0427128478	 0.11411
H	-2.0986211952	-3.8412443341	-0.0507014111	 0.203474
H	 0.1776944714	-3.689507996	-0.0422112128	 0.267364
131.724	149.6654	173.6227	321.3207	365.4135	377.8841	482.7385	507.0623	532.9375	586.3412	599.8009	654.111	668.5339	695.5943	758.8536	800.8135	827.5101	912.9599	984.7429	1026.8499	1119.8475	1141.4523	1246.1836	1281.2776	1395.9834	1415.286	1441.3867	1629.5175	1709.2734	1738.167	1881.348	3246.3325	3469.6347	3589.8811	3624.0172	3704.9388
NC1=CC(=N)NC(=O)O1	N[C]1C=C([NH])NC(=O)O1	
InChI=1S/C4H5N3O2/c5-2-1-3(6)9-4(8)7-2/h1H,6H2,(H2,5,7,8)	InChI=1S/C4H5N3O2/c5-2-1-3(6)9-4(8)7-2/h1H,6H2,(H2,5,7,8)
