17
gdb 65198	3.22021	1.23192	1.06361	3.3693	70.99	-0.2512	-0.0428	0.2085	1155.2981	0.133123	-458.924015	-458.915319	-458.914375	-458.957822	32.137	
O	 0.2223170217	 1.3665583807	-0.2564990968	-0.474499
C	 0.1262069416	-0.0084641221	-0.0733133516	 0.418271
C	 1.273171068	-0.8018149627	-0.6277757804	-0.308236
C	 1.1115375125	-0.6742460826	 0.8701617628	-0.319089
C	-1.2463592015	-0.5910597545	-0.1406385205	-0.004966
O	-2.2612261278	 0.0321601468	 0.6449517619	-0.242179
C	-2.4336609875	 0.0515130142	-0.767156761	-0.063148
C	-2.4570452551	 1.3906968551	-1.4422144252	 0.147247
O	-2.3485065343	 2.4482521617	-0.8767375455	-0.25218
H	-0.4760537365	 1.7938867012	 0.2590638105	 0.299508
H	 1.0708335104	-1.7595044953	-1.0953549489	 0.115752
H	 2.0551346246	-0.219860957	-1.1011278791	 0.134728
H	 1.7848318295	-0.002886473	 1.3894191239	 0.129669
H	 0.7972584815	-1.5436293745	 1.4376213379	 0.11727
H	-1.2650287899	-1.6823304772	-0.1029173635	 0.100394
H	-3.2003491222	-0.6263335779	-1.1539303878	 0.112978
H	-2.6446002549	 1.3297428071	-2.5366742966	 0.08848
53.3596	106.0669	160.7325	197.3788	266.1335	273.4941	336.7863	382.6103	486.3396	521.0217	566.7606	717.7165	765.8089	769.8039	800.4078	867.2077	896.9	938.3033	940.9607	977.0476	1003.4075	1007.4178	1055.6612	1080.0043	1113.9807	1142.1344	1191.8656	1228.0299	1258.1839	1345.8458	1360.8094	1408.706	1420.4479	1451.99	1467.253	1506.1487	1823.4062	2894.9239	3070.9688	3092.9363	3136.0374	3139.0004	3223.3857	3237.4539	3749.3804
OC1(CC1)C1OC1C=O	OC1(CC1)[C@H]1O[C@H]1C=O	
InChI=1S/C6H8O3/c7-3-4-5(9-4)6(8)1-2-6/h3-5,8H,1-2H2	InChI=1S/C6H8O3/c7-3-4-5(9-4)6(8)1-2-6/h3-5,8H,1-2H2/t4-,5-/m0/s1
