16
gdb 24651	4.4688	1.24686	1.01761	1.7847	80.74	-0.2288	-0.0407	0.1881	1135.6923	0.127098	-396.947554	-396.940441	-396.939497	-396.979694	26.799	
C	-0.1489583506	 1.2531643882	-0.372590349	-0.233415
C	 1.2730695747	 1.0078027703	 0.0169250135	-0.212753
N	 0.2845589039	-0.0453585307	 0.1332970659	-0.117516
C	-0.1150332287	-0.5141298783	 1.3843519098	 0.330492
N	 0.8115329018	-0.6928617194	 2.3251740908	-0.300653
C	 0.3915856721	-1.2217917617	 3.4789723191	-0.016336
C	-0.9356542704	-1.5586235903	 3.7034771854	-0.026088
N	-1.8722163222	-1.3689329378	 2.7632660183	-0.227447
C	-1.4628269486	-0.855345247	 1.6133103186	-0.055279
H	-0.7489088015	 1.8748915099	 0.2882727016	 0.127885
H	-0.4392569259	 1.2775216436	-1.4187069045	 0.128418
H	 2.0284452776	 0.8581851625	-0.7485373548	 0.1274
H	 1.6320165462	 1.4516512927	 0.9410156729	 0.136716
H	 1.1445713021	-1.3734776936	 4.2485598628	 0.113194
H	-1.2583921871	-1.9842317281	 4.6487382386	 0.112048
H	-2.2050123834	-0.7014072603	 0.8339266609	 0.113335
63.8768	133.8653	201.5273	276.8935	432.0746	466.8524	524.5725	577.1726	632.1322	776.95	789.725	815.3785	871.9719	939.9512	942.3026	954.7159	982.1838	1020.9789	1038.3507	1081.8608	1122.2644	1131.387	1167.827	1171.0221	1200.9951	1218.4314	1257.2475	1323.5763	1387.8245	1449.9403	1494.582	1507.3477	1520.406	1573.3045	1613.8677	3106.9965	3120.0123	3154.8181	3158.3632	3181.2996	3193.9722	3210.8562
C1CN1C1=NC=CN=C1	C1CN1c1nccnc1	
InChI=1S/C6H7N3/c1-2-8-6(5-7-1)9-3-4-9/h1-2,5H,3-4H2	InChI=1S/C6H7N3/c1-2-8-6(5-7-1)9-3-4-9/h1-2,5H,3-4H2
