23
gdb 123223	11.482	0.38002	0.37295	3.045	85.12	-0.2556	-0.0264	0.2292	2882.5223	0.201876	-425.432548	-425.420949	-425.420004	-425.471556	38.788	
C	 0.0549353861	 1.5501561107	-0.0849050681	-0.380776
C	 0.0060715257	 0.0204706862	-0.0524057772	-0.164161
C	-1.4212367174	-0.5349369622	 0.0050242492	-0.163183
C	-1.4713555828	-2.0656051022	 0.0376249518	-0.199089
C	-2.8927120945	-2.606018814	 0.0944313443	-0.05288
O	-2.841972808	-4.0206587248	 0.1215443104	-0.248661
C	-4.1040364428	-4.6278692202	 0.1742955104	-0.143377
C	-3.9073186891	-6.1337042723	 0.197753587	 0.139133
O	-4.811323352	-6.924607914	 0.244007768	-0.238512
H	 1.0855657455	 1.9159580525	-0.1256742686	 0.113241
H	-0.473111274	 1.9450404169	-0.9600624421	 0.113994
H	-0.4159223321	 1.9807332631	 0.8059165447	 0.113995
H	 0.5145255264	-0.3825844577	-0.938070388	 0.096971
H	 0.5712481847	-0.3471723815	 0.8140786817	 0.096973
H	-1.9305547875	-0.1313977562	 0.8913983789	 0.094378
H	-1.9873010665	-0.1668810998	-0.8621645089	 0.094373
H	-0.9760138437	-2.4783701391	-0.8496717941	 0.106534
H	-0.9193426838	-2.4428091542	 0.9071256824	 0.106545
H	-3.4147672482	-2.2295818026	 0.9908450954	 0.089216
H	-3.4718947903	-2.2656207465	-0.7810603406	 0.089205
H	-4.6725402713	-4.3318397619	 1.073123186	 0.119938
H	-4.7294803162	-4.3670077398	-0.6972268777	 0.119916
H	-2.8388126882	-6.4417149405	 0.1678069051	 0.096226
35.1269	58.3461	66.4751	79.5939	100.4369	138.795	159.8994	170.4511	244.6167	263.8542	314.0746	447.1608	468.6491	579.7058	737.5004	740.0464	775.2829	863.6113	899.2574	987.5253	1007.442	1017.9559	1058.761	1068.8276	1075.7072	1114.76	1149.5364	1175.139	1196.3144	1233.2302	1245.1481	1272.4403	1301.6	1319.3077	1336.4281	1341.6194	1359.6292	1400.9058	1403.6236	1413.4378	1438.5128	1482.2604	1486.1918	1489.9102	1499.3642	1501.4351	1513.1626	1529.7167	1845.1107	2899.1681	2948.6142	2958.9698	2977.3345	2983.0624	3003.681	3017.4381	3028.1697	3029.458	3032.3899	3051.8929	3076.8306	3095.8634	3102.6243
CCCCCOCC=O	CCCCCOCC=O	
InChI=1S/C7H14O2/c1-2-3-4-6-9-7-5-8/h5H,2-4,6-7H2,1H3	InChI=1S/C7H14O2/c1-2-3-4-6-9-7-5-8/h5H,2-4,6-7H2,1H3
