16
gdb 53400	2.47254	1.13443	0.84584	4.0545	77.33	-0.2626	-0.0017	0.2608	1361.7034	0.12278	-400.710742	-400.701327	-400.700383	-400.747263	31.701	
C	 0.1138986126	 1.5543032038	-0.1400471841	-0.500432
C	 0.123008514	 0.1030895703	-0.0400503562	 0.090682
C	 0.1224542762	-1.0983879868	 0.0398782693	 0.086691
C	 0.0909740676	-2.5373627438	 0.1444376937	-0.257146
C	-0.1360499178	-3.1924415645	 1.5350134671	-0.077834
O	-1.2073480615	-4.0150629685	 1.0179395794	-0.266905
C	-1.2189503589	-3.3188647722	-0.236626714	-0.024235
C	-2.4248958436	-2.5066481496	-0.4266069588	 0.297356
N	-3.3783526882	-1.8743768475	-0.5877819985	-0.321008
H	 0.805550057	 1.9047385439	-0.9135782831	 0.152531
H	-0.8866656013	 1.920648991	-0.3928775075	 0.16425
H	 0.4092236929	 2.0175445798	 0.8075617419	 0.15342
H	 0.9416521738	-2.9895482367	-0.3725249469	 0.122957
H	 0.6863751004	-3.7961144693	 1.9288954596	 0.121485
H	-0.490885036	-2.4937915278	 2.2996471965	 0.126367
H	-1.1187886571	-4.0049872619	-1.0846184785	 0.131819
22.276	57.186	69.4721	133.1807	174.5543	242.4092	304.2446	318.8515	437.7921	472.8462	534.0284	586.9753	692.4783	816.9718	877.4301	926.5644	993.2902	1022.4498	1040.8736	1051.1097	1054.3819	1071.5279	1162.4366	1199.245	1210.8284	1253.2316	1337.5932	1346.2521	1376.2086	1413.3973	1475.2213	1476.3661	1522.4794	2358.1958	2373.3361	3031.145	3042.7099	3051.4369	3070.0056	3093.3595	3096.9168	3102.9774
CC#CC1COC1C#N	CC#C[C@H]1CO[C@H]1C#N	
InChI=1S/C7H7NO/c1-2-3-6-5-9-7(6)4-8/h6-7H,5H2,1H3	InChI=1S/C7H7NO/c1-2-3-6-5-9-7(6)4-8/h6-7H,5H2,1H3/t6-,7-/m0/s1
