20
gdb 83884	2.07929	1.91476	1.41824	1.6067	74.37	-0.2243	0.0672	0.2916	1016.3612	0.17231	-440.243657	-440.235326	-440.234382	-440.276246	32.555	
C	-0.3440534199	 1.4860507309	-0.2556866507	-0.348569
N	 0.0134668196	 0.0900443089	-0.0412122935	-0.085123
C	 1.3460261188	-0.4179540199	-0.2921179224	-0.043049
C	 2.5210020436	 0.5006758433	-0.5818839634	-0.119833
O	 2.6892524813	 1.534745355	 0.3760113633	-0.245263
C	 2.77423844	 1.0171934307	 1.6936997234	-0.120452
C	 1.4289375999	 0.4675178329	 2.1748849761	 0.105741
O	 0.5712464014	 1.4870480787	 2.6726889462	-0.434439
C	 0.772098756	-0.412842579	 1.0987162116	-0.063242
H	 0.4678079674	 2.2103582064	-0.1000436899	 0.120137
H	-0.6849987919	 1.5923397368	-1.2910904704	 0.122899
H	-1.1867951804	 1.7361487947	 0.3952819395	 0.134165
H	 1.3835135252	-1.3499753972	-0.8572449853	 0.087664
H	 3.4362694678	-0.1133568995	-0.6368364862	 0.098296
H	 2.3997159285	 1.0016264206	-1.5485093758	 0.115989
H	 3.5405701657	 0.2260418734	 1.7420624474	 0.089187
H	 3.0856204452	 1.8449402729	 2.3373212008	 0.11572
H	 1.6222565601	-0.1735765713	 3.0424529197	 0.089354
H	 0.4852662288	 2.1573220581	 1.9879575751	 0.286576
H	 0.355250673	-1.3376788764	 1.4930858844	 0.09424
79.488	186.4959	237.7921	252.5475	289.4386	312.589	348.9306	389.8503	443.7748	471.0099	545.3338	685.2314	738.0184	754.7304	797.3961	834.8588	889.729	967.6402	973.696	1030.7281	1039.2648	1086.1244	1108.2068	1124.0033	1155.3435	1159.964	1166.5994	1191.8185	1254.3168	1286.0272	1311.1415	1341.7817	1348.4003	1365.8737	1379.4497	1407.6064	1422.9985	1435.3592	1462.6796	1482.3887	1492.2214	1498.0622	1530.4315	2962.8591	2971.8385	2997.9006	3048.0871	3066.7267	3069.2673	3091.7854	3095.4994	3103.8223	3115.9261	3832.2116
CN1C2COCC(O)C12	CN1[C@H]2COC[C@@H](O)[C@@H]12	
InChI=1S/C6H11NO2/c1-7-4-2-9-3-5(8)6(4)7/h4-6,8H,2-3H2,1H3	InChI=1S/C6H11NO2/c1-7-4-2-9-3-5(8)6(4)7/h4-6,8H,2-3H2,1H3/t4-,5+,6-,7?/m0/s1
