15
gdb 131051	4.51897	0.90593	0.82829	0.7199	68.65	-0.2611	-0.0224	0.2387	1340.7365	0.113596	-453.962142	-453.954064	-453.95312	-453.997295	28.059	
O	 0.1934185873	 0.6151961893	 1.0734932536	-0.317423
C	 0.1496965409	 1.3666773664	 0.1237619083	 0.160825
N	 1.1850064655	 1.6115234792	-0.7276822662	-0.2726
C	 2.5082136428	 1.0415323893	-0.5153663634	-0.278092
C	 3.5120114691	 2.0620153631	-0.0833619053	 0.425394
C	 4.1796211505	 2.2985646342	 1.0768863213	-0.330438
C	 4.9579916252	 3.4497904572	 0.780791758	 0.039934
N	 4.7760096754	 3.8722571005	-0.445521309	-0.13706
O	 3.8556990239	 2.9860347363	-1.0019869113	-0.21587
H	-0.7587059903	 1.9300099881	-0.1640647285	 0.085383
H	 1.0727286744	 2.3135703352	-1.4419533807	 0.2621
H	 2.397670192	 0.284366337	 0.2620315239	 0.168666
H	 2.8517215016	 0.5523746151	-1.4339382108	 0.137253
H	 4.1199062307	 1.7440340602	 1.9981222189	 0.134157
H	 5.6447539311	 3.9853084591	 1.4211560511	 0.137771
20.796	39.2398	122.8083	229.7008	267.1124	330.2597	415.4842	534.783	646.6348	650.7335	732.1289	789.2094	825.78	915.0998	922.1333	943.4287	966.7676	1007.9325	1031.3734	1039.1195	1053.2441	1200.7413	1215.6202	1231.0386	1283.636	1374.3502	1386.9214	1427.8116	1468.0555	1510.8622	1526.7678	1640.9007	1805.9696	2952.4615	3045.143	3139.8136	3245.2051	3285.3982	3638.2854
O=CNCC1=CC=NO1	O=CNCc1ccno1	
InChI=1S/C5H6N2O2/c8-4-6-3-5-1-2-7-9-5/h1-2,4H,3H2,(H,6,8)	InChI=1S/C5H6N2O2/c8-4-6-3-5-1-2-7-9-5/h1-2,4H,3H2,(H,6,8)
