18
gdb 26131	2.49547	1.48904	0.96146	1.4865	75.34	-0.1852	0.0424	0.2277	1196.6399	0.147504	-439.116092	-439.106913	-439.105969	-439.150143	34.539	
C	 0.3875715665	 1.1329016199	-0.5587986929	-0.399804
C	 0.026589463	-0.1017797552	 0.2639420015	 0.001642
O	 0.2550299815	 0.1104389044	 1.6666808802	-0.433326
C	-1.3829455479	-0.5762601672	 0.0463566863	 0.196365
C	-2.2724639911	-0.5177501076	-1.009972491	 0.219879
O	-2.0161659494	 0.1104843329	-2.2006617578	-0.452831
C	-3.4502116753	-1.2265305028	-0.6463514625	-0.277857
C	-3.248660369	-1.7071579665	 0.6308911058	-0.078118
N	-2.0054304703	-1.3213665582	 1.0298670974	-0.280349
H	 1.4198874087	 1.4246171616	-0.3480820475	 0.114564
H	 0.2760006821	 0.9363418136	-1.6272006767	 0.144697
H	-0.2748908764	 1.9692002161	-0.307522609	 0.108806
H	 0.7353861705	-0.9053211579	 0.018551116	 0.100008
H	-0.2708966412	 0.8784157369	 1.9208724457	 0.275851
H	-2.7905298461	 0.0173701413	-2.7621878444	 0.295111
H	-4.335236493	-1.3627705818	-1.2504550715	 0.086116
H	-3.8973144119	-2.2745345604	 1.2784063203	 0.116962
H	-1.5794396506	-1.4704078792	 1.9284988202	 0.262284
41.8364	151.5291	185.1186	190.4453	256.3766	306.3302	325.4427	345.0104	371.456	474.2945	522.8	525.5426	623.8446	664.8999	683.1152	703.0243	742.7704	781.101	890.4159	916.6287	1022.0764	1050.254	1082.6303	1089.7664	1130.033	1153.1333	1246.8519	1273.645	1297.7287	1322.9851	1354.5266	1406.2762	1417.3905	1453.9939	1487.711	1489.7329	1501.3137	1511.8885	1655.1675	3001.8663	3037.4202	3109.5898	3140.3128	3233.2307	3268.4484	3677.6252	3782.4583	3846.6619
CC(O)C1=C(O)C=CN1	C[C@@H](O)c1c(O)cc[nH]1	
InChI=1S/C6H9NO2/c1-4(8)6-5(9)2-3-7-6/h2-4,7-9H,1H3	InChI=1S/C6H9NO2/c1-4(8)6-5(9)2-3-7-6/h2-4,7-9H,1H3/t4-/m1/s1
