21
gdb 61521	2.73489	1.04167	0.83508	4.6409	83.58	-0.2384	0.0352	0.2736	1432.3487	0.18102	-383.264276	-383.254159	-383.253215	-383.299852	37.502	
C	-0.0221886191	-3.0118300252	 0.3805662789	-0.398776
C	 0.5885571946	-2.3235079319	 1.6176328256	-0.114154
N	 0.8890484422	-0.9024692076	 1.455730852	-0.330449
C	 2.2490426625	-0.5368210527	 1.1384255061	 0.337753
C	 2.821359304	-0.9777315535	-0.2005285638	-0.453392
C	 2.6700624974	 0.8058773338	 1.6827117962	-0.303425
C	 3.1808902772	-0.461472974	 2.3261721475	-0.277612
C	-0.3168130299	-2.507375002	 2.7744934215	 0.287153
N	-1.036341317	-2.6593000046	 3.6659067355	-0.326674
H	 0.6679379584	-2.947710713	-0.4634136853	 0.130037
H	-0.2366054317	-4.0650584876	 0.5830044439	 0.139331
H	-0.9622743116	-2.5256690261	 0.1015869361	 0.13406
H	 1.527889289	-2.8250869132	 1.877359781	 0.134493
H	 0.2194128519	-0.4547963994	 0.8403318327	 0.221718
H	 2.206410703	-0.6090003971	-1.0302032502	 0.112363
H	 3.8355595443	-0.5914234044	-0.3405700695	 0.118122
H	 2.8748929717	-2.0696485865	-0.2800740119	 0.11604
H	 3.3597155439	 1.4003410725	 1.0934759856	 0.111289
H	 1.9240595364	 1.3723075474	 2.2268811548	 0.12333
H	 2.7744738386	-0.7249114888	 3.2953518214	 0.126776
H	 4.2198403542	-0.733714796	 2.1761276921	 0.112017
34.9166	69.5245	153.0943	188.8198	227.1206	257.6797	275.1081	306.9326	327.2319	361.9839	420.2192	481.6293	550.2737	563.8461	658.5687	731.485	786.2532	828.3374	878.3824	902.6736	930.6633	956.7899	1003.1999	1041.2316	1063.2884	1071.8865	1083.8835	1091.8792	1135.3551	1181.1531	1191.3568	1291.36	1308.5516	1341.1034	1353.783	1404.6651	1413.6601	1453.7352	1471.3508	1485.4833	1489.422	1495.3071	1500.5113	1510.945	2355.3036	3021.5979	3044.3428	3053.9276	3082.491	3101.5016	3117.1941	3135.4593	3137.0417	3141.6673	3223.1747	3236.2753	3533.818
CC(NC1(C)CC1)C#N	C[C@@H](NC1(C)CC1)C#N	
InChI=1S/C7H12N2/c1-6(5-8)9-7(2)3-4-7/h6,9H,3-4H2,1-2H3	InChI=1S/C7H12N2/c1-6(5-8)9-7(2)3-4-7/h6,9H,3-4H2,1-2H3/t6-/m1/s1
