16
gdb 55038	3.04187	1.03816	0.95617	0.9306	65.79	-0.2559	0.0064	0.2623	1258.4945	0.123106	-475.004316	-474.995721	-474.994777	-475.038385	31.196	
N	 0.5771444836	 0.0586442408	-0.2999145683	-0.521325
C	-0.5773600533	 0.7758731994	-0.2273445755	 0.358513
O	-0.6650262378	 1.9734637478	-0.4084372007	-0.356332
C	-1.8007340148	-0.0481641283	 0.1126412492	-0.05584
O	-1.6387902904	-1.4597266729	 0.2735959127	-0.262072
C	-2.0048395244	-0.6905892902	 1.4275714205	 0.05337
C	-1.0275689753	-0.6056715197	 2.5487785707	 0.04894
C	-1.4447559371	-0.069462486	 3.8516181515	-0.175802
O	-1.289447714	-1.4731000057	 3.6565617045	-0.231277
H	 1.408561357	 0.5230007407	-0.6268018092	 0.267001
H	 0.5338642198	-0.9475350953	-0.2937384822	 0.275599
H	-2.6845864556	 0.269615866	-0.4376471564	 0.12609
H	-3.0337359444	-0.8480916188	 1.7523535509	 0.114851
H	 0.0186919308	-0.532348566	 2.2611915564	 0.111386
H	-0.7038750685	 0.4060813045	 4.4916853551	 0.126189
H	-2.4690187257	 0.2740463037	 3.9910280809	 0.12071
59.1586	86.2908	125.3491	199.1241	279.1715	307.3986	374.1244	419.0559	471.4958	510.8012	557.3823	643.6911	746.6657	792.6406	850.377	878.0181	890.1508	948.6071	960.8903	1062.7538	1086.5807	1099.1424	1128.1412	1156.9368	1164.3584	1187.9909	1274.7055	1286.4619	1322.192	1356.3709	1401.0441	1488.7637	1532.0778	1597.8657	1808.202	3087.4167	3114.1915	3138.5367	3148.4634	3176.2906	3590.495	3728.101
NC(=O)C1OC1C1CO1	NC(=O)[C@H]1O[C@H]1[C@H]1CO1	
InChI=1S/C5H7NO3/c6-5(7)4-3(9-4)2-1-8-2/h2-4H,1H2,(H2,6,7)	InChI=1S/C5H7NO3/c6-5(7)4-3(9-4)2-1-8-2/h2-4H,1H2,(H2,6,7)/t2-,3+,4+/m1/s1
