18
gdb 91274	2.92341	1.46846	1.19635	4.9761	71.68	-0.2399	0.0168	0.2567	1074.9314	0.149038	-439.116173	-439.108416	-439.107472	-439.148702	29.859	
C	 0.1165336963	 1.5839429315	-0.0597506175	-0.392605
C	 0.0784824972	 0.0725052479	 0.0632022767	 0.035009
N	 0.972572883	-0.6725042108	-0.8663148027	-0.334705
C	 1.3897501443	-1.6104006984	 0.2043752538	-0.019628
C	 2.8848210485	-1.616146444	 0.4697896399	-0.358673
C	 3.1084912799	-0.3787287721	 1.3402129187	 0.428656
O	 4.1411664928	 0.1306706571	 1.6552882597	-0.326376
O	 1.9017926338	 0.1062157343	 1.775359799	-0.225888
C	 0.7989790868	-0.6232241485	 1.2466043921	 0.080995
H	 1.1389387483	 1.9531304885	 0.043350771	 0.140547
H	-0.2660201047	 1.8936345123	-1.0378003821	 0.116251
H	-0.5046210564	 2.0520818348	 0.7111311319	 0.117854
H	-0.9617719879	-0.2861100771	 0.0320763813	 0.06836
H	 0.5216956019	-1.0948436203	-1.6696511973	 0.220899
H	 0.9278533664	-2.6017545387	 0.1753639625	 0.076567
H	 3.2152666971	-2.4964004478	 1.0320197924	 0.133291
H	 3.4863739494	-1.5411350847	-0.4373428422	 0.146565
H	 0.1887464933	-0.9847790041	 2.0747286229	 0.09288
94.0404	98.5737	199.8301	235.5306	364.7775	376.4291	456.2575	558.2563	563.4329	592.0456	684.1189	698.2106	803.1772	839.3681	849.3351	880.3596	923.9676	981.5996	1011.5601	1024.8989	1060.1008	1095.1284	1122.5041	1141.1515	1156.1549	1173.7372	1218.8809	1254.7896	1264.4001	1319.1727	1344.6851	1373.2849	1379.6279	1394.7829	1414.8061	1445.7876	1486.485	1492.5855	1889.6499	2980.6264	3039.9826	3052.2099	3065.397	3104.2298	3107.3127	3131.0586	3135.6791	3540.014
CC1NC2CC(=O)OC12	C[C@H]1N[C@H]2CC(=O)O[C@@H]12	
InChI=1S/C6H9NO2/c1-3-6-4(7-3)2-5(8)9-6/h3-4,6-7H,2H2,1H3	InChI=1S/C6H9NO2/c1-3-6-4(7-3)2-5(8)9-6/h3-4,6-7H,2H2,1H3/t3-,4+,6+/m1/s1
