21
gdb 89582	4.35534	1.0015	0.96168	1.2458	78.79	-0.2457	0.0813	0.327	1323.2603	0.182836	-424.2224	-424.213775	-424.212831	-424.256131	32.725	
C	 0.0740528636	 1.6208820233	 0.1309090219	-0.406463
C	 0.0704696489	 0.1037375097	 0.0278603588	 0.055116
C	 1.0891492965	-0.5816723933	-0.9309039442	-0.309066
C	 1.3077189096	-1.6748419947	 0.1394346989	 0.422731
C	 0.6821423476	-0.7258676952	 1.1937848059	-0.29918
C	 0.5870292164	-3.0127049559	-0.0853395154	-0.162896
O	 1.3662592953	-3.9303131425	 0.6661263993	-0.237611
C	 2.6867608747	-3.4912214667	 0.478311887	 0.010924
O	 2.6512887432	-2.0788674789	 0.3826708095	-0.305523
H	 1.0806061889	 1.9949746885	 0.3497832196	 0.114049
H	-0.2586981191	 2.0853759671	-0.804110411	 0.114437
H	-0.5912017723	 1.9673419399	 0.929660458	 0.115367
H	-0.943148752	-0.2498892754	-0.1925020136	 0.069605
H	 0.744945578	-0.8993274122	-1.9197879796	 0.092532
H	 1.9964099432	 0.0187656985	-1.045535082	 0.111296
H	 1.4731954144	-0.1695021248	 1.7054989357	 0.10724
H	 0.0116807175	-1.1618584677	 1.9394830495	 0.097172
H	-0.4380248201	-3.0383865002	 0.2895579627	 0.11942
H	 0.5884893081	-3.2795106814	-1.155163022	 0.092014
H	 3.2864244629	-3.7980603736	 1.3417970851	 0.114959
H	 3.1159878147	-3.9135265247	-0.4484678641	 0.083877
60.653	74.1814	207.113	221.3321	276.2368	286.407	319.9003	417.4487	443.1488	469.3631	675.718	740.5801	784.7461	825.0638	856.9302	887.0866	936.6887	948.8414	955.9973	983.5313	1025.313	1039.3432	1064.8383	1113.8562	1120.8248	1161.8411	1165.0252	1183.407	1207.6011	1213.5677	1222.0022	1263.7015	1272.8613	1285.2853	1310.8787	1363.046	1377.3037	1411.507	1433.7812	1467.0086	1490.7359	1495.8485	1497.1209	1509.2296	1548.5649	2936.2199	2970.0363	3023.2979	3035.1679	3046.7598	3053.2474	3067.0453	3091.0779	3092.1041	3104.933	3108.2114	3112.2991
CC1CC2(C1)COCO2	C[C@H]1C[C@@]2(C1)COCO2	
InChI=1S/C7H12O2/c1-6-2-7(3-6)4-8-5-9-7/h6H,2-5H2,1H3	InChI=1S/C7H12O2/c1-6-2-7(3-6)4-8-5-9-7/h6H,2-5H2,1H3/t6-,7+
