16
gdb 131239	4.67725	1.03553	0.90959	3.3165	72.53	-0.2243	-0.0007	0.2236	1257.1581	0.125466	-434.045874	-434.038196	-434.037252	-434.078813	28.993	
O	 0.2598208733	 1.3546014623	 0.058534684	-0.427558
C	 0.136420952	 0.0176541753	-0.0379461968	 0.37135
C	 0.4915040279	-0.7893227246	-1.0959179604	-0.207631
N	 0.1519502932	-2.0356051538	-0.6627170796	 0.070874
N	-0.3722270038	-1.9946509791	 0.5684300942	-0.156735
N	-0.3826233652	-0.7385281925	 0.9527017966	-0.288028
C	 0.2764490666	-3.3061534651	-1.316463781	 0.096325
C	 0.0700108417	-3.4339505907	-2.8005860756	-0.286367
C	 1.4505542415	-3.6037074032	-2.2078013359	-0.286391
H	-0.0833970997	 1.5998286777	 0.9274957848	 0.307911
H	 0.9292528893	-0.5846080115	-2.055841102	 0.14662
H	-0.0999232167	-4.0810124839	-0.6618345057	 0.132172
H	-0.4588740938	-4.3088035022	-3.1609951296	 0.132217
H	-0.1328440452	-2.5263880642	-3.3580260537	 0.131514
H	 2.1711230867	-2.8097125566	-2.3687683174	 0.131511
H	 1.8821751521	-4.5966718479	-2.1557746119	 0.132218
45.2875	126.6248	167.3346	320.6603	370.7812	388.5354	455.9151	458.5804	596.0227	675.4096	699.7276	744.9292	747.7564	781.481	817.3707	918.4332	948.3646	1039.1693	1051.4608	1062.7122	1075.1588	1089.615	1128.1736	1153.8323	1195.823	1199.2896	1226.0725	1277.0353	1297.6058	1401.3236	1438.8901	1464.033	1503.1107	1512.853	1651.7038	3140.2267	3142.807	3209.7573	3221.6547	3236.353	3300.1316	3791.0324
OC1=CN(N=N1)C1CC1	Oc1cn(nn1)C1CC1	
InChI=1S/C5H7N3O/c9-5-3-8(7-6-5)4-1-2-4/h3-4,9H,1-2H2	InChI=1S/C5H7N3O/c9-5-3-8(7-6-5)4-1-2-4/h3-4,9H,1-2H2
