15
gdb 32492	5.18366	0.89031	0.76343	4.8802	74.76	-0.2364	-0.0556	0.1809	1397.1864	0.112848	-453.984443	-453.976028	-453.975084	-454.01833	29.663	
O	-0.04417014	 1.4431950574	 0.0072475008	-0.421975
C	 0.0091641187	 0.0254167942	 0.0019740168	-0.188379
C	-1.3954537498	-0.487056436	 0.0127762319	 0.277508
C	-2.559747917	 0.2590727401	 0.0237392333	-0.14867
N	-3.5706645022	-0.6558961956	 0.0302443654	-0.276824
C	-3.0015043275	-1.906039175	 0.0234295009	 0.242701
C	-3.8310036092	-3.1094664235	 0.0281274912	 0.088487
O	-3.4256846987	-4.2461957135	 0.0227836675	-0.255351
N	-1.6791785306	-1.816541781	 0.0126852392	-0.326561
H	 0.8566703568	 1.7775589191	 0.0017086893	 0.294747
H	 0.5300262917	-0.360692419	-0.8881780604	 0.114189
H	 0.5457991634	-0.3668803762	 0.8799301245	 0.114236
H	-2.7291269328	 1.3216188893	 0.0271956886	 0.15747
H	-4.5571453065	-0.4516341454	 0.0387662201	 0.274402
H	-4.9250718265	-2.8830490851	 0.0375409008	 0.054019
45.419	141.6103	143.8178	190.2778	235.064	237.4528	334.0572	447.0366	509.129	570.5203	660.2096	694.6079	703.485	787.3227	803.7129	1002.5867	1014.0422	1026.5905	1046.9319	1091.5466	1115.3636	1197.7639	1233.2141	1234.841	1301.9883	1367.684	1435.4449	1447.9337	1469.6777	1512.9956	1536.9298	1587.7625	1807.54	2831.2305	2976.9931	2999.6901	3295.8942	3650.6627	3845.4595
OCC1=CNC(C=O)=N1	OCc1c[nH]c(C=O)n1	
InChI=1S/C5H6N2O2/c8-2-4-1-6-5(3-9)7-4/h1,3,8H,2H2,(H,6,7)	InChI=1S/C5H6N2O2/c8-2-4-1-6-5(3-9)7-4/h1,3,8H,2H2,(H,6,7)
