13
gdb 34066	4.35806	1.41827	1.23423	4.1757	69.55	-0.246	-0.0853	0.1607	954.1068	0.088185	-415.469742	-415.462966	-415.462022	-415.500835	26.163	
N	-0.0858499098	-1.0834716051	-0.0569082198	-0.328356
C	-0.0915380858	 0.0733286067	-0.0726624436	 0.226911
C	-0.0523904008	 1.4958396171	-0.0851028199	 0.327442
O	-1.3046270172	 2.2192360351	 0.2945427038	-0.286493
C	-0.5373245402	 3.3162033292	-0.1490285875	 0.242864
N	-0.0508171121	 4.154133582	 0.6598334677	-0.204445
C	 1.4007829018	 3.7462990606	 0.6662509273	-0.173995
C	 1.3670209951	 2.3488387344	-0.0024243646	-0.12761
C	 0.3748349084	 2.4692248141	-1.0946332255	-0.229968
H	 2.0885787991	 4.4184663708	 0.1331627304	 0.129159
H	 1.6827498562	 3.7248292384	 1.7220597385	 0.152738
H	 2.2554586251	 1.728860451	-0.0896648393	 0.128337
H	 0.4224560502	 2.4219720858	-2.1738012976	 0.143419
137.297	158.6472	259.0951	362.4813	426.0971	491.3886	526.5874	579.0769	622.5568	655.6978	724.8189	767.1203	823.2192	901.592	919.2809	936.5719	944.5941	1007.5898	1046.6199	1057.2417	1134.7295	1169.6025	1192.4653	1240.0463	1298.5098	1380.7465	1479.4967	1631.9528	2351.5799	3004.7615	3099.0091	3164.3733	3213.9614
N#CC12OC3=NCC1C23	N#C[C@@]12O[C]3[N]C[C@@H]1[C@@H]23	
InChI=1S/C6H4N2O/c7-2-6-3-1-8-5(9-6)4(3)6/h3-4H,1H2	InChI=1S/C6H4N2O/c7-2-6-3-1-8-5(9-6)4(3)6/h3-4H,1H2/t3-,4-,6-/m1/s1
