17
gdb 50250	2.33035	1.66818	1.25355	3.9261	72.29	-0.245	-0.0328	0.2122	1034.22	0.134678	-421.824875	-421.816797	-421.815853	-421.858726	29.69	
O	-0.6827753452	 0.7336354526	-0.6193778158	-0.242524
C	 0.3147269233	 0.8500805911	 0.0471069852	 0.145598
C	 1.2714058124	 2.0114937189	-0.0518767706	-0.089539
C	 0.8823926047	 3.2038006409	-0.9633354529	-0.255489
C	 0.9359942831	 4.1683463922	 0.2502153738	-0.024558
C	-0.4085926061	 4.3455144471	 1.0096775611	-0.358626
C	-0.020554136	 3.1560447394	 1.9094342849	 0.423538
O	-0.5421655369	 2.6092953258	 2.8366738878	-0.297156
C	 1.3312838969	 2.9704729688	 1.1998035352	-0.188813
H	 0.5898798241	 0.0863601206	 0.8083083505	 0.088524
H	 2.2689114071	 1.607233111	-0.2556120197	 0.107322
H	 1.6227991521	 3.4180467653	-1.7359911829	 0.110527
H	-0.0962053799	 3.0956366713	-1.4360728578	 0.12828
H	 1.5596643178	 5.0556622648	 0.1586184831	 0.082652
H	-0.4764241602	 5.2739629724	 1.5869765875	 0.136344
H	-1.3319274263	 4.2283896123	 0.4349210547	 0.139095
H	 2.221631649	 2.9167513955	 1.8268171861	 0.094824
40.1488	65.7681	129.5922	233.6558	331.9698	348.9402	429.1681	524.0287	576.9729	619.7597	717.2112	761.1512	805.1255	835.7436	893.7817	904.5308	935.5486	969.3807	1027.7997	1037.2828	1057.0505	1083.324	1103.3464	1119.2798	1169.5852	1175.8101	1214.3744	1232.2066	1271.1826	1276.0073	1303.2945	1337.0851	1420.9652	1431.297	1486.977	1820.259	1886.2094	2886.9541	3051.4888	3051.9076	3075.6797	3105.0916	3112.1949	3123.6306	3133.9821
O=CC1CC2CC(=O)C12	O=C[C@H]1C[C@H]2CC(=O)[C@@H]12	
InChI=1S/C7H8O2/c8-3-5-1-4-2-6(9)7(4)5/h3-5,7H,1-2H2	InChI=1S/C7H8O2/c8-3-5-1-4-2-6(9)7(4)5/h3-5,7H,1-2H2/t4-,5+,7+/m0/s1
