22
gdb 63399	3.41648	1.08755	1.01782	2.2107	82.04	-0.2384	0.0706	0.309	1300.7834	0.193514	-404.318317	-404.308924	-404.30798	-404.352577	35.71	
C	-0.3240991175	 1.5021438378	-0.0197016425	-0.423382
C	 0.1301002312	 0.0470124173	-0.0063780134	 0.437943
C	-0.9263734119	-0.8759143671	 0.5799570031	-0.439244
C	 0.8241710999	-0.4276311101	-1.3089813468	-0.351839
C	 2.1306912682	-0.3492038413	-0.4886974791	 0.111161
O	 1.3961726768	-0.0737334036	 0.725746647	-0.344003
C	 2.9875924244	-1.5859408499	-0.3805236554	-0.00944
C	 3.6815949432	-1.8987959062	 0.8894736264	-0.241159
N	 2.540979671	-2.7226544069	 0.4348385769	-0.326758
H	 0.4579055712	 2.1519487911	-0.4231201868	 0.11832
H	-1.2226570818	 1.6224057451	-0.634506911	 0.115625
H	-0.5551588987	 1.8378962517	 0.9962154677	 0.123998
H	-1.855786115	-0.8102113978	 0.0039734737	 0.118789
H	-0.5925606315	-1.9173432381	 0.5688005594	 0.122595
H	-1.1465990264	-0.5953547189	 1.6151866519	 0.125063
H	 0.555624074	-1.4418532596	-1.6113877712	 0.115367
H	 0.7472277389	 0.2429427729	-2.1662423268	 0.104798
H	 2.7631043406	 0.5068225867	-0.7659691289	 0.07758
H	 3.4619353779	-1.8685447418	-1.3196816255	 0.089503
H	 4.6468006448	-2.3966678411	 0.8768176281	 0.114341
H	 3.5153739925	-1.2266194391	 1.7263906449	 0.125302
H	 1.7249463083	-2.4158857812	 0.9630220485	 0.235442
62.5093	85.9042	161.6161	207.6908	226.5232	253.9	319.3256	342.1701	378.8188	441.4603	456.8417	587.2793	650.3601	735.0312	842.1017	852.523	873.4232	911.3888	916.9355	947.274	966.8885	979.4365	992.8304	1010.6889	1032.4453	1069.5648	1121.1667	1127.1526	1151.1132	1179.3148	1188.7794	1237.2696	1274.5829	1276.8063	1290.1855	1301.9143	1312.1327	1379.2051	1401.538	1414.3391	1418.7445	1475.3244	1480.9154	1488.3952	1496.0308	1504.9512	1505.6237	2991.9771	3031.084	3036.6152	3074.3987	3101.5276	3108.828	3110.9493	3112.3158	3113.8325	3117.0831	3132.3988	3203.0122	3478.346
CC1(C)CC(O1)C1CN1	CC1(C)C[C@@H](O1)[C@H]1CN1	
InChI=1S/C7H13NO/c1-7(2)3-6(9-7)5-4-8-5/h5-6,8H,3-4H2,1-2H3	InChI=1S/C7H13NO/c1-7(2)3-6(9-7)5-4-8-5/h5-6,8H,3-4H2,1-2H3/t5-,6-/m1/s1
