16
gdb 36999	2.94336	2.41077	1.68991	1.2245	77.92	-0.2117	-0.0251	0.1865	808.5747	0.127906	-363.574843	-363.569021	-363.568077	-363.604614	24.809	
C	-0.0896739321	 1.5505990205	-0.1315573671	-0.163052
C	 1.3509780266	 1.7892515186	 0.0312778159	 0.180275
C	 2.2414821294	 2.030515934	 1.0207865918	-0.178659
C	 3.0389915073	 0.7481887443	 0.6926052362	-0.149236
C	 2.4322598429	-0.3896215595	 1.5072771572	 0.01023
N	 1.440605216	-1.031409271	 1.0179992484	-0.174079
C	-0.2285229268	 0.2254114146	-0.3207274441	-0.065059
C	 1.1296746085	-0.5128223126	-0.3382552804	-0.059271
C	 2.1226022146	 0.6356131981	-0.5647034314	-0.070288
H	-0.8915738367	 2.2614737288	 0.0205448971	 0.11288
H	 2.2061766726	 2.6419838278	 1.9153958993	 0.103077
H	 4.1308526918	 0.7502135232	 0.6255974612	 0.0751
H	 2.7762178356	-0.6216926388	 2.5165224209	 0.107967
H	-1.1710106906	-0.3079270185	-0.3471411145	 0.111853
H	 1.1523312488	-1.341937596	-1.0507642414	 0.079661
H	 2.563490292	 0.7585410264	-1.5533432491	 0.078602
240.9994	279.2414	351.1779	508.3351	547.8989	607.1385	681.2863	719.2617	769.539	796.0637	839.0673	862.8333	872.1181	890.583	894.6126	940.6058	945.2226	961.3926	965.905	989.229	1007.5142	1105.8943	1143.672	1156.3818	1204.0803	1238.1788	1256.0807	1262.1176	1282.2666	1303.2232	1331.0376	1340.6584	1591.9307	1618.2711	1655.4718	3061.5588	3067.3471	3115.7991	3122.1363	3188.895	3203.1639	3226.023
C1=C2C3C4C3N3C1C3C24	C1=C[C@@H]2N=C[C@@H]3[CH][C]1[C@H]23	
InChI=1S/C8H7N/c1-2-4-6-5(2)8(6)9-3(1)7(4)9/h1,3-8H	InChI=1S/C8H7N/c1-2-7-8-5(1)3-6(8)4-9-7/h1-4,6-8H/t6-,7-,8-/m0/s1
