19
gdb 92553	3.29418	1.2958	1.03062	1.8008	76.18	-0.2416	0.0056	0.2472	1162.6595	0.161107	-423.013686	-423.005891	-423.004947	-423.046114	30.57	
O	 0.2689152064	 1.3370842558	 0.3879371253	-0.432456
C	 0.08671551	-0.0397336072	 0.0741257826	 0.081428
C	-1.4021707486	-0.4240706668	 0.0591276999	-0.247774
C	-1.6127611935	-1.879048843	-0.3638283564	 0.104557
O	-2.8547615378	-2.07694711	-1.0858152731	-0.29096
C	-2.1565528107	-2.3024027744	-2.3275501332	-0.089041
C	-0.7872152424	-2.3157188561	-1.5982934184	-0.094847
C	 0.3168534599	-1.3997068342	-2.0169842172	-0.08393
C	 0.7364426347	-0.3978501236	-1.2434909367	-0.09819
H	-0.1717379542	 1.8499542237	-0.2991120776	 0.276583
H	 0.5978927615	-0.5654086473	 0.8923813703	 0.101313
H	-1.8547564025	-0.2223716727	 1.0343137238	 0.108948
H	-1.9070459243	 0.2148530391	-0.6758750401	 0.098536
H	-1.5523254713	-2.5527068052	 0.4988525913	 0.079766
H	-2.4648718125	-3.2374767645	-2.8080289421	 0.104475
H	-2.2921028736	-1.4727067692	-3.0342000548	 0.097177
H	-0.4103469848	-3.3389548751	-1.4989894832	 0.093489
H	 0.8101554096	-1.606116638	-2.9646445241	 0.09313
H	 1.5783506541	 0.2250093589	-1.5348884463	 0.097796
85.0439	125.5465	233.8753	294.4523	341.8167	380.0533	417.6455	427.2261	518.1765	586.1133	707.7827	730.2185	768.4974	824.7682	886.5931	944.1872	952.9063	1002.1731	1008.0159	1023.2334	1059.1935	1063.2152	1084.1323	1091.9698	1135.4004	1151.8314	1164.2612	1220.4935	1235.6212	1266.0157	1283.1932	1311.4863	1334.9405	1348.5605	1370.68	1382.305	1403.3151	1427.7114	1491.2086	1525.398	1707.4309	3008.3283	3012.9687	3028.1708	3036.1017	3046.6799	3067.0987	3093.9344	3141.8309	3170.5583	3795.3299
OC1CC2OCC2C=C1	O[C@H]1C[C@H]2OC[C@H]2C=C1	
InChI=1S/C7H10O2/c8-6-2-1-5-4-9-7(5)3-6/h1-2,5-8H,3-4H2	InChI=1S/C7H10O2/c8-6-2-1-5-4-9-7(5)3-6/h1-2,5-8H,3-4H2/t5-,6-,7-/m1/s1
