23
gdb 52651	2.56024	0.95024	0.83403	1.9502	90.53	-0.2476	0.0388	0.2864	1550.2232	0.201171	-388.276996	-388.265033	-388.264088	-388.315153	42.772	
C	-0.0740710704	 1.5082498842	 0.1133537295	-0.502265
C	-0.0170474655	 0.0550906952	 0.0396607316	 0.09609
C	 0.0393425237	-1.1481295252	-0.0045351811	 0.02187
C	 0.0447177577	-2.6122492906	-0.0723707046	-0.04453
O	-1.2823030794	-3.1298014648	 0.0575624928	-0.433509
C	 0.7671980978	-3.1700840192	-1.3408349707	 0.261778
C	 2.2150781248	-2.6537644574	-1.3648996521	-0.413272
C	 0.7668760432	-4.7057407425	-1.2463767047	-0.414234
C	 0.0256811402	-2.7264784181	-2.6125542376	-0.422608
H	 0.8555728049	 1.9184359988	 0.5229015357	 0.152505
H	-0.2266191923	 1.9552351236	-0.8750465036	 0.148747
H	-0.894245321	 1.8401236779	 0.7593716679	 0.151766
H	 0.5828397136	-3.0036160593	 0.801449613	 0.104302
H	-1.8649728778	-2.5523936322	-0.4459433875	 0.284099
H	 2.7510974692	-2.9342676465	-0.4507730365	 0.107984
H	 2.7589114849	-3.0844188922	-2.2122768645	 0.108908
H	 2.251072299	-1.5645610437	-1.4551523772	 0.120871
H	-0.2517231117	-5.0903347095	-1.1589759286	 0.128792
H	 1.2309192487	-5.1450501588	-2.1355778275	 0.102776
H	 1.3329243739	-5.0471736787	-0.3720327861	 0.104515
H	-0.0118418672	-1.6353201619	-2.6904905767	 0.117201
H	 0.5297941669	-3.1117673939	-3.5046730431	 0.11091
H	-1.0001162932	-3.1092196852	-2.6245147085	 0.107305
15.6124	64.9211	87.7294	149.8761	203.7287	235.3365	244.8463	256.2075	269.3692	280.9731	309.729	327.0648	355.6292	387.3116	400.963	453.0835	547.0472	583.7289	758.8013	800.1438	898.8675	939.7482	942.5445	961.1819	1024.8027	1041.887	1051.9426	1054.7359	1055.007	1159.1999	1216.4711	1240.9125	1263.6374	1269.3903	1341.875	1392.5643	1396.2645	1412.3018	1417.5852	1426.7581	1476.9963	1477.8521	1478.7053	1488.8924	1491.5558	1502.1709	1505.2584	1522.5723	2360.3513	3015.5428	3026.0923	3027.8254	3028.772	3035.214	3088.7932	3089.1909	3089.7752	3093.4697	3099.2996	3104.875	3112.3377	3125.6832	3822.9794
CC#CC(O)C(C)(C)C	CC#C[C@@H](O)C(C)(C)C	
InChI=1S/C8H14O/c1-5-6-7(9)8(2,3)4/h7,9H,1-4H3	InChI=1S/C8H14O/c1-5-6-7(9)8(2,3)4/h7,9H,1-4H3/t7-/m1/s1
