16
gdb 18649	2.8238	2.45205	1.90425	2.1203	58.84	-0.2464	0.0704	0.3168	761.1473	0.131927	-420.849061	-420.842333	-420.841389	-420.879804	26.671	
O	-0.044209751	 1.4615026047	 0.1508880538	-0.431344
C	-0.0734453287	 0.0708254477	-0.0325105464	 0.082947
C	-0.4494773309	-0.7761129011	 1.1494702111	 0.022381
O	-0.9554896906	 0.0037744307	 2.2104765156	-0.278081
C	-2.3660773523	 0.1996497551	 1.9930852413	-0.115051
C	-2.6260480558	 0.0967248782	 0.4679661841	 0.101754
O	-2.8320906211	 1.3344850647	-0.1785898984	-0.443186
C	-1.3968563735	-0.681036603	-0.020350894	-0.163843
H	-0.0674999218	 1.5938363671	 1.1117343737	 0.300756
H	 0.6913096512	-0.2787956264	-0.7194305227	 0.109431
H	 0.0928945363	-1.6655896323	 1.4527822117	 0.104108
H	-2.920349735	-0.5772117965	 2.5369959656	 0.103722
H	-2.643927193	 1.1816856931	 2.3832131526	 0.12041
H	-3.5368412012	-0.4834674887	 0.29150103	 0.092543
H	-1.9637510017	 1.758385745	-0.2433680915	 0.293382
H	-1.527841031	-1.4967433081	-0.7206494064	 0.100072
107.5227	223.571	263.0978	363.9346	405.3384	453.0776	569.896	638.4103	655.6151	706.6461	762.4143	786.9479	798.2692	859.3778	917.2933	965.7751	1006.6829	1024.3302	1067.3305	1076.0361	1096.823	1129.9627	1130.7868	1193.4533	1233.1284	1268.6136	1294.7983	1313.5478	1344.3569	1353.9134	1385.0624	1428.9992	1476.6254	1502.0946	3012.0057	3066.0231	3108.7984	3154.2802	3162.8495	3188.6422	3697.0645	3715.9401
OC1C2OCC(O)C12	O[C@H]1[C@H]2OC[C@@H](O)[C@@H]12	
InChI=1S/C5H8O3/c6-2-1-8-5-3(2)4(5)7/h2-7H,1H2	InChI=1S/C5H8O3/c6-2-1-8-5-3(2)4(5)7/h2-7H,1H2/t2-,3+,4-,5+/m1/s1
