21
gdb 53698	5.7807	0.51051	0.48443	0.6667	90.02	-0.2409	0.0427	0.2835	2310.4399	0.179836	-387.03884	-387.028052	-387.027107	-387.077985	36.695	
C	-0.0702109034	 1.3999495256	-0.2395368457	-0.498682
C	-0.0665961196	-0.0473899729	-0.0872431896	 0.136349
C	-0.0691094343	-1.2440969748	 0.0371132899	 0.001909
C	-0.0431842001	-2.6920318775	 0.191880474	-0.205181
O	-1.3513332762	-3.2213750035	 0.0852726334	-0.24512
C	-1.3753290381	-4.6277120383	 0.2431071266	-0.053155
C	-2.7994245889	-5.1034862874	 0.183651697	 0.010806
C	-3.4558515951	-5.3474344446	-1.1496181803	-0.245468
C	-3.0930049502	-6.5134143434	-0.2651178054	-0.274083
H	 0.9497244721	 1.7884997131	-0.3355419836	 0.148568
H	-0.6249283828	 1.7038012477	-1.1340067127	 0.150417
H	-0.5326472649	 1.8923398507	 0.6229036547	 0.148868
H	 0.6139778774	-3.1391376313	-0.57531418	 0.10931
H	 0.3980075207	-2.956947508	 1.1694012251	 0.109973
H	-0.7807012629	-5.1144699267	-0.5507310199	 0.078332
H	-0.9131441726	-4.9072865304	 1.2063969732	 0.084621
H	-3.43127563	-4.6996023335	 0.9690526678	 0.091356
H	-4.5027467194	-5.0887813835	-1.2601899466	 0.113435
H	-2.8607034413	-5.1803195694	-2.0411718681	 0.114376
H	-2.2567394911	-7.1373775732	-0.5640691521	 0.110364
H	-3.8887899692	-7.0533727184	 0.2353729622	 0.113005
11.4639	38.0188	66.6246	85.808	128.3669	171.6694	210.3924	292.9225	305.4654	377.6237	393.3058	421.0219	546.6553	768.4705	789.2378	825.3579	846.954	919.9742	951.6793	1013.6556	1029.8583	1052.5858	1054.0388	1056.8322	1064.8459	1080.0055	1121.8619	1138.2365	1179.3429	1196.5681	1199.8556	1227.8108	1254.2228	1279.1559	1361.6382	1404.5294	1415.1874	1459.0699	1471.8421	1476.5194	1479.852	1497.9299	1507.5654	1522.1954	2380.6431	2933.651	2944.8118	2953.3635	2964.6194	3027.9955	3088.8822	3089.6148	3131.5967	3137.2685	3154.9453	3209.7785	3225.3617
CC#CCOCC1CC1	CC#CCOCC1CC1	
InChI=1S/C8H12O/c1-2-3-6-9-7-8-4-5-8/h8H,4-7H2,1H3	InChI=1S/C8H12O/c1-2-3-6-9-7-8-4-5-8/h8H,4-7H2,1H3
