19
gdb 33035	4.50916	0.79546	0.7085	4.0549	79.15	-0.188	0.044	0.232	1609.4494	0.160135	-419.279526	-419.270252	-419.269307	-419.314203	33.948	
C	-0.1286214928	 1.5769020765	 0.0518651966	-0.380789
C	-0.090722178	 0.047308463	 0.0502075802	-0.157372
C	 0.8299441594	-0.5239320489	 1.1471879265	-0.309258
C	 0.8900839745	-2.0132398021	 1.178232122	 0.334874
C	 1.9073145068	-2.8632592311	 0.9192019496	-0.195051
N	 1.4285340325	-4.1643260608	 1.0757954284	-0.333926
C	 0.0905812278	-4.1664647925	 1.4463925062	 0.43894
O	-0.6343625173	-5.1153372926	 1.6729145366	-0.434958
N	-0.2154481764	-2.8102565058	 1.4949923382	-0.39815
H	 0.8690359685	 1.9976462354	-0.1161596835	 0.116915
H	-0.7874559855	 1.9586023556	-0.7337626142	 0.117383
H	-0.4927316863	 1.9646582489	 1.0098711481	 0.116065
H	-1.1062399899	-0.3464922686	 0.1831602334	 0.096423
H	 0.2514026644	-0.3213091418	-0.9238845455	 0.106959
H	 1.8479103281	-0.1454398202	 1.0007857868	 0.112281
H	 0.4994437991	-0.1414020061	 2.1241357045	 0.106882
H	 2.925294519	-2.6543261705	 0.6386558177	 0.132978
H	 1.9491991271	-5.0160273994	 0.9697303528	 0.266631
H	-1.1312057311	-2.4878810288	 1.7528976054	 0.263175
66.948	81.6	95.9197	187.9585	244.3182	287.243	299.6163	350.4288	396.4457	483.1895	508.6834	627.627	681.8181	709.016	744.5887	760.8086	776.7384	873.1356	896.2447	985.6415	1002.2408	1043.3789	1076.9212	1106.0254	1112.3765	1194.0073	1240.5401	1260.7342	1308.268	1327.8482	1361.4203	1387.7609	1392.7723	1413.388	1427.779	1475.2545	1491.0456	1499.908	1509.5405	1689.1835	1843.2394	2999.4777	3026.3485	3030.9403	3054.9483	3072.9144	3098.4504	3106.4468	3282.8625	3693.7434	3703.2063
CCCC1=CNC(=O)N1	CCCc1c[nH]c(=O)[nH]1	
InChI=1S/C6H10N2O/c1-2-3-5-4-7-6(9)8-5/h4H,2-3H2,1H3,(H2,7,8,9)	InChI=1S/C6H10N2O/c1-2-3-5-4-7-6(9)8-5/h4H,2-3H2,1H3,(H2,7,8,9)
