21
gdb 95383	2.25268	1.8644	1.30511	1.9264	76.77	-0.2367	0.0649	0.3015	1046.3819	0.185462	-424.246148	-424.238114	-424.237169	-424.279081	31.581	
O	-0.0626514071	 1.4726008199	-0.1321358602	-0.435119
C	-0.0119976279	 0.1069706884	 0.2549811669	 0.129312
C	 0.2626259343	-0.1137320478	 1.7571075913	-0.253416
C	-0.4058728963	-1.4611551601	 2.0560559175	-0.221722
C	-1.7093312423	-1.3966265625	 1.2491834016	 0.125488
O	-2.704898428	-0.6488525392	 1.9567212901	-0.281691
C	-3.0279992788	 0.555018242	 1.2631091383	-0.074072
C	-2.5866860081	 0.3433482709	-0.1862517943	-0.227232
C	-1.3775741505	-0.5923856709	-0.0356328672	-0.061645
H	 0.7799154295	 1.8762798477	 0.0973789755	 0.283275
H	 0.7661473326	-0.4109232256	-0.3273512445	 0.064112
H	 1.3296388836	-0.0897332103	 2.0005136917	 0.084899
H	-0.2284947192	 0.6843649222	 2.3246918567	 0.115751
H	 0.2118481752	-2.2899243065	 1.6868678869	 0.09104
H	-0.5980485574	-1.6340151515	 3.1175233056	 0.109075
H	-2.1206978175	-2.3924444786	 1.0451764385	 0.064593
H	-4.1037059426	 0.7314068188	 1.3687491782	 0.098488
H	-2.4978889335	 1.4091952357	 1.7099939684	 0.095148
H	-3.3727267162	-0.166032507	-0.7525875345	 0.096074
H	-2.3367599019	 1.2752038285	-0.693785069	 0.125074
H	-1.2782051579	-1.2435147738	-0.9062451775	 0.072568
45.6547	157.8627	183.1758	255.0383	304.5556	366.8499	403.8313	501.1546	531.0687	607.2127	677.5513	756.0114	813.3662	820.5126	854.5142	899.6556	918.0783	935.0464	953.1521	1010.4229	1025.1197	1040.9675	1072.2587	1076.2722	1098.2896	1148.3314	1176.1346	1196.6244	1212.568	1225.4074	1254.2169	1279.0959	1303.7811	1308.9801	1320.8807	1338.3559	1357.8819	1364.4006	1379.3928	1397.9633	1421.5456	1479.8725	1487.1294	1496.348	1532.0302	2966.4361	2990.5486	3021.5501	3036.4301	3042.8544	3051.1757	3067.4444	3085.7661	3090.5439	3106.6267	3136.9201	3823.3465
OC1CCC2OCCC12	O[C@H]1CC[C@H]2OCC[C@@H]12	
InChI=1S/C7H12O2/c8-6-1-2-7-5(6)3-4-9-7/h5-8H,1-4H2	InChI=1S/C7H12O2/c8-6-1-2-7-5(6)3-4-9-7/h5-8H,1-4H2/t5-,6-,7+/m0/s1
