17
gdb 51290	3.55754	1.27612	1.00276	3.946	78.13	-0.2113	-0.0114	0.1999	1157.0264	0.137697	-418.01073	-418.003042	-418.002097	-418.043439	29.207	
O	 1.9904454863	 4.1251642572	-0.040046975	-0.299282
C	 1.0915227125	 3.3187346907	 0.012437411	 0.144462
N	 1.2259877308	 1.9537293208	-0.0219443722	-0.407317
C	 2.4096041299	 1.2226672248	-0.1356989255	 0.435631
C	 2.5045638406	-0.1057914683	-0.2777640355	-0.242209
C	 3.9568916078	-0.5204072071	-0.300848697	-0.190824
N	 4.7415367853	 0.7343143591	-0.2247997546	-0.104867
C	 4.5567558125	 1.640337249	-1.3619220613	-0.228327
C	 3.768104358	 1.8456902806	-0.1155028756	-0.112475
H	 0.0251998454	 3.604046177	 0.1016809582	 0.085233
H	 0.3706046491	 1.420259412	 0.0283877958	 0.25532
H	 1.676447582	-0.7973463627	-0.3796557068	 0.087296
H	 4.2186127846	-1.1536729869	 0.5580605143	 0.113345
H	 4.2312512046	-1.0838848985	-1.2022539724	 0.11218
H	 5.4117634391	 2.2764104971	-1.572818748	 0.120433
H	 4.0179990358	 1.2803545988	-2.2362210993	 0.109822
H	 3.9821361156	 2.6640874563	 0.5592153638	 0.121579
52.7803	149.7361	190.6195	287.4425	319.3416	354.8232	410.8293	553.9235	600.5355	645.8215	716.6818	759.6386	796.8309	822.1063	854.9412	886.6736	955.383	999.744	1019.9714	1032.1639	1042.6051	1086.5293	1110.0491	1123.4667	1152.0879	1213.2096	1249.4162	1260.7689	1300.2822	1341.0518	1398.4649	1446.2381	1489.0172	1503.7475	1511.1856	1705.6612	1814.1924	2945.1342	3003.6333	3035.5461	3098.2998	3187.7885	3196.5315	3204.7763	3612.5437
O=CNC1=CCN2CC12	O=CNC1=CCN2C[C@@H]12	
InChI=1S/C6H8N2O/c9-4-7-5-1-2-8-3-6(5)8/h1,4,6H,2-3H2,(H,7,9)	InChI=1S/C6H8N2O/c9-4-7-5-1-2-8-3-6(5)8/h1,4,6H,2-3H2,(H,7,9)/t6-,8?/m0/s1
