16
gdb 15973	3.24139	1.74755	1.31659	1.3119	65.51	-0.2395	-0.033	0.2065	936.5513	0.128952	-383.707462	-383.699802	-383.698858	-383.740319	27.658	
O	 0.1210045697	-0.14428907	 0.0127904901	-0.254489
C	 0.0990270544	 1.0515012259	 0.1487129606	 0.169875
C	 1.2977642722	 1.9538812191	 0.013816396	-0.233
C	 1.0301501012	 3.2821208251	-0.7409549403	-0.09656
O	 1.1876143814	 4.064700267	 0.4605333227	-0.297607
C	 1.5177141536	 2.8947342439	 1.2075165138	 0.448497
C	 1.1481446129	 2.7417121653	 2.6465262746	-0.338596
C	 2.6058014158	 2.8866052264	 2.2275334178	-0.330808
H	-0.8447036405	 1.5882062636	 0.4023700653	 0.083463
H	 2.1662253044	 1.3784644294	-0.3080762836	 0.104206
H	 1.780098795	 3.5310493613	-1.4991442569	 0.118846
H	 0.0270266497	 3.391694334	-1.1698425136	 0.112861
H	 0.6773142803	 3.5955876311	 3.1216129679	 0.131937
H	 0.8034833735	 1.7757645716	 3.0015083445	 0.127028
H	 3.2544562312	 2.0190817782	 2.2917324298	 0.123604
H	 3.0896178253	 3.8368615582	 2.4263549414	 0.130742
58.2922	66.1419	181.6243	258.1117	324.677	343.4935	459.5936	490.1464	562.0318	757.124	850.4931	867.8499	880.1162	882.5902	939.4612	964.1328	1014.3767	1046.171	1053.7232	1070.7867	1072.5861	1142.0666	1175.943	1188.0716	1216.0646	1220.8189	1289.1423	1351.3128	1372.0214	1428.3697	1447.2821	1491.0239	1524.7613	1831.4038	2864.7948	3025.6705	3074.3399	3114.9608	3129.5657	3131.4207	3213.6502	3227.2584
O=CC1COC11CC1	O=C[C@H]1COC21CC2	
InChI=1S/C6H8O2/c7-3-5-4-8-6(5)1-2-6/h3,5H,1-2,4H2	InChI=1S/C6H8O2/c7-3-5-4-8-6(5)1-2-6/h3,5H,1-2,4H2/t5-/m0/s1
