18
gdb 66475	3.51093	1.59139	1.45571	0.7883	74.45	-0.2163	0.0703	0.2867	958.1098	0.147836	-401.859237	-401.851991	-401.851047	-401.890272	30.	
C	-0.0219134667	 1.4689925548	 0.0434298652	-0.495926
C	 0.0301739279	-0.0303756719	-0.0371610002	 0.360207
C	 1.1180911373	-0.8041834571	-0.8166247216	-0.290471
C	 0.8076548974	-1.9031785729	 0.2096738418	-0.084198
N	 0.3846968504	-0.8391811959	 1.2459575746	-0.208861
C	-1.0245379121	-1.4077880176	 1.2898547842	-0.129903
C	-1.2659905401	-0.8581330814	-0.0958405718	-0.186711
C	-0.6843272232	-2.2618319445	 0.0998232313	 0.373206
O	-1.3025756279	-3.3586316792	-0.4540784671	-0.461829
H	 0.9551277865	 1.8762012038	 0.3208990453	 0.123631
H	-0.313697459	 1.8991339536	-0.921806128	 0.117888
H	-0.752798297	 1.7920900857	 0.7921602785	 0.124054
H	 0.9566538745	-1.0172211629	-1.8762241249	 0.102588
H	 2.1074715614	-0.3656354068	-0.6580495427	 0.107539
H	 1.5303287614	-2.6613779	 0.5156020968	 0.070047
H	-1.6445135892	-1.5223394876	 2.1700778317	 0.097072
H	-2.1947219651	-0.69675559	-0.6288276355	 0.091348
H	-1.1520388965	-4.1155381601	 0.1230732226	 0.290318
209.232	214.5962	236.7049	302.6989	353.1393	379.2629	442.8545	561.2612	578.657	644.4167	750.2512	786.9304	802.5511	822.3815	866.8715	892.3048	902.9439	935.8683	940.699	952.7211	1000.0171	1003.4068	1021.917	1068.637	1109.0842	1136.3136	1159.0669	1191.5769	1210.3231	1222.3973	1264.6675	1289.3064	1306.3317	1334.9785	1410.6973	1453.8697	1476.1533	1482.6531	1489.6611	3028.384	3057.5162	3095.3045	3102.0241	3107.5895	3119.1146	3184.7171	3198.1074	3792.4915
CC12CC3N1C1C2C31O	C[C@@]12C[C@H]3N1[C@H]1[C@@H]2[C@@]31O	
InChI=1S/C7H9NO/c1-6-2-3-7(9)4(6)5(7)8(3)6/h3-5,9H,2H2,1H3	InChI=1S/C7H9NO/c1-6-2-3-7(9)4(6)5(7)8(3)6/h3-5,9H,2H2,1H3/t3-,4+,5+,6+,7+/m1/s1
