15
gdb 106663	2.74711	1.31361	1.0568	2.8778	62.27	-0.2697	-0.007	0.2627	1122.821	0.110555	-494.879781	-494.871227	-494.870283	-494.913309	31.227	
O	 0.0801195276	 1.368268192	-0.2624255279	-0.404527
C	 0.0143730988	 0.0107698032	 0.1347281191	-0.176173
C	-1.3616519117	-0.5543897957	 0.004553177	 0.389186
C	-2.103628734	-1.0355891489	-1.1943938799	-0.388114
C	-1.9367896823	-1.9500706025	 0.03635048	 0.118605
O	-1.3066906605	-3.1644577574	 0.0109846945	-0.438731
C	-2.8284298515	-1.405896331	 1.1373244071	 0.40661
O	-3.6156770894	-1.803194869	 1.9291928458	-0.323619
O	-2.35762911	-0.1023595234	 0.9809123552	-0.307701
H	-0.4744917564	 1.8741583009	 0.3417199259	 0.297125
H	 0.6895899901	-0.5434083909	-0.5241405541	 0.130798
H	 0.3615463973	-0.1293364653	 1.1686155009	 0.114406
H	-3.0655719968	-0.6042623157	-1.451084853	 0.138394
H	-1.4851818522	-1.3526190506	-2.0298625762	 0.13829
H	-1.851533299	-3.7890406756	-0.4814032044	 0.305452
66.8808	113.7626	160.9613	248.9479	259.7114	301.8509	336.5372	390.6414	432.4442	480.9552	549.2181	656.5721	718.6566	763.852	797.5212	867.4868	895.5689	941.5729	995.7158	1029.2622	1061.1028	1066.4914	1107.0731	1145.1206	1250.9029	1290.6247	1357.612	1389.4333	1420.0083	1434.344	1484.6122	1517.5834	1949.1807	3006.2521	3092.3965	3122.2738	3219.2889	3795.812	3809.6186
OCC12CC1(O)C(=O)O2	OC[C@@]12C[C@]1(O)C(=O)O2	
InChI=1S/C5H6O4/c6-2-4-1-5(4,8)3(7)9-4/h6,8H,1-2H2	InChI=1S/C5H6O4/c6-2-4-1-5(4,8)3(7)9-4/h6,8H,1-2H2/t4-,5-/m0/s1
