22
gdb 5854	2.91584	1.3724	1.21456	0.182	74.05	-0.2462	0.0661	0.3123	1147.5883	0.196555	-387.35057	-387.340011	-387.339067	-387.385108	39.206	
C	-0.0474843435	 1.6056257315	 0.1071882049	-0.386021
C	-0.0047358352	 0.078412836	 0.0060810214	-0.200012
C	-1.4000892887	-0.5478982228	-0.0801864839	 0.115612
O	-2.0862208964	-0.1472994352	-1.2660741064	-0.436702
C	-1.4174468287	-2.0961263837	 0.0941860788	 0.330128
C	-2.866002755	-2.5975018001	 0.0932222983	-0.423298
C	-0.5964162363	-2.812176809	-0.9804476355	-0.410812
O	-0.7848047002	-2.4257985377	 1.3376241799	-0.45694
H	 0.960217828	 2.0318725822	 0.0997801401	 0.109296
H	-0.6083046413	 2.0360988763	-0.7275105934	 0.123361
H	-0.5374666823	 1.9254419341	 1.033656123	 0.112556
H	 0.5727694359	-0.2144026208	-0.8824433709	 0.084171
H	 0.5149285286	-0.3540756824	 0.8661878771	 0.115949
H	-2.0122442906	-0.1379513603	 0.737373217	 0.066815
H	-1.4911343601	-0.2945166628	-2.0090627077	 0.279896
H	-3.3679281376	-2.3385218756	-0.841326564	 0.13255
H	-2.8925925191	-3.6821160777	 0.2314847201	 0.114438
H	-3.4341024365	-2.1332236531	 0.9094604965	 0.098793
H	 0.4598705939	-2.5406293726	-0.913838523	 0.125212
H	-0.6731280665	-3.8945430271	-0.8475308991	 0.123438
H	-0.9637236793	-2.5685519775	-1.9820777042	 0.105841
H	-1.3658192793	-2.1333480518	 2.048372671	 0.275729
80.7816	103.0209	185.3617	201.9103	215.2603	232.9096	273.4655	300.7184	307.0913	311.7555	335.0419	356.1788	416.5632	487.767	509.2776	554.9611	759.9454	790.9746	874.1793	931.637	942.5391	986.9102	996.9847	1004.929	1059.3352	1099.0851	1102.3146	1148.5867	1210.6308	1239.2047	1255.7788	1301.1091	1331.3095	1363.281	1389.3068	1401.5358	1405.2228	1415.4143	1423.9672	1481.1004	1484.7286	1490.2899	1496.1063	1500.5883	1508.2619	1510.086	2993.2421	3013.8161	3025.734	3034.9394	3046.2806	3084.7261	3096.1037	3101.0688	3115.4881	3115.9459	3126.6255	3135.7404	3802.3233	3808.2899
CCC(O)C(C)(C)O	CC[C@@H](O)C(C)(C)O	
InChI=1S/C6H14O2/c1-4-5(7)6(2,3)8/h5,7-8H,4H2,1-3H3	InChI=1S/C6H14O2/c1-4-5(7)6(2,3)8/h5,7-8H,4H2,1-3H3/t5-/m1/s1
