19
gdb 81357	2.58118	1.45131	1.35918	2.0334	70.12	-0.2396	0.047	0.2866	1058.252	0.159743	-460.134458	-460.12622	-460.125276	-460.16684	32.454	
C	-0.1067285161	 1.5248305277	 0.0142717892	-0.430282
C	-0.0521949047	 0.0054178699	-0.0358025602	 0.025464
C	 1.1753512068	-0.5974464384	-0.7591989331	 0.034814
O	 1.9687797442	-0.3838098878	 0.458271834	-0.309039
C	 0.7055495547	-0.667267089	 1.136157402	 0.056405
C	 0.5771594154	-2.1735414521	 0.8569243463	 0.037658
O	-0.7569262509	-2.6311696737	 1.0532482302	-0.43203
C	 0.9602268197	-2.1262977945	-0.6788718988	 0.107369
O	-0.0489108	-2.6398534858	-1.508454806	-0.446415
H	 0.8697768742	 1.9397737035	 0.2771737703	 0.134297
H	-0.4051561508	 1.9349780168	-0.9562085995	 0.117364
H	-0.8371482709	 1.865153689	 0.7560056038	 0.115245
H	-1.0224275112	-0.4242099783	-0.2967857566	 0.079352
H	 1.6085605985	-0.1726452564	-1.6647259101	 0.07927
H	 0.6520075523	-0.3195667387	 2.1682195851	 0.077736
H	 1.28486282	-2.7522348191	 1.4557711859	 0.084986
H	-0.7293042245	-3.5620428025	 1.2925799978	 0.300156
H	 1.8975260212	-2.6519151249	-0.8853341979	 0.082188
H	-0.8229997379	-2.7515557156	-0.9365394623	 0.28546
124.3842	182.6572	214.2402	236.4277	268.6624	311.7778	331.9173	426.3754	527.0785	550.0916	573.5713	585.9247	750.2447	799.1597	814.4777	866.7463	875.3379	937.0832	962.1401	983.8998	1037.7517	1056.6443	1088.3676	1092.8646	1103.097	1139.4058	1171.8992	1206.8513	1220.4443	1237.6463	1266.2253	1288.31	1297.4224	1307.3569	1351.8733	1404.9044	1407.8672	1419.5962	1431.3598	1497.5144	1505.5759	3035.6896	3057.8967	3077.6047	3082.7161	3096.2384	3119.4854	3123.604	3125.4988	3706.3588	3838.5953
CC1C2OC1C(O)C2O	C[C@H]1[C@H]2O[C@@H]1[C@@H](O)[C@H]2O	
InChI=1S/C6H10O3/c1-2-5-3(7)4(8)6(2)9-5/h2-8H,1H3	InChI=1S/C6H10O3/c1-2-5-3(7)4(8)6(2)9-5/h2-8H,1H3/t2-,3+,4-,5+,6-
