15
gdb 50961	1.81556	1.31887	0.79493	2.3596	68.93	-0.282	-0.0625	0.2195	1350.1421	0.109768	-453.955461	-453.946008	-453.945064	-453.991252	31.65	
N	-0.4281333646	 1.4209960661	-0.0077510428	-0.430424
C	-0.3491176997	 0.1753307793	 0.1328466322	 0.132445
O	-1.2063393667	-0.626070043	-0.5589172301	-0.199313
C	-1.1306712458	-2.0209970918	-0.3449046059	-0.005728
C	-2.1393997537	-2.5102394935	 0.7101727578	-0.341397
C	-1.7446675051	-2.137270449	 2.0637099728	 0.25781
N	-1.3980600537	-1.8300506136	 3.1223702449	-0.299862
C	-1.3889939072	-2.6881273683	-1.6978577185	 0.152455
O	-1.8809214866	-3.7770679491	-1.8164257367	-0.234061
H	 0.2755608714	 1.8869094457	 0.5609318891	 0.242746
H	 0.352766621	-0.3838045575	 0.7641021546	 0.112686
H	-0.1117087153	-2.3087543892	-0.0394821162	 0.132144
H	-3.1232681493	-2.0871510664	 0.4839028669	 0.176094
H	-2.221876513	-3.5982991479	 0.6260642731	 0.181951
H	-1.0672623018	-2.0703788218	-2.5611160811	 0.122455
54.5549	70.8238	90.6765	131.1173	149.8418	218.1157	250.6089	376.4904	390.4233	417.4297	516.2673	582.233	676.0843	819.7421	846.3532	879.3535	966.2206	1013.5589	1037.8014	1072.6415	1088.1985	1145.1219	1235.6558	1264.3234	1273.8882	1349.2764	1354.5914	1397.0305	1426.3501	1453.232	1754.6662	1840.9281	2364.0231	2937.6993	2987.1976	3046.5857	3064.5878	3111.4889	3527.2394
N=COC(CC#N)C=O	[NH][CH]O[C@@H](CC#N)C=O	
InChI=1S/C5H6N2O2/c6-2-1-5(3-8)9-4-7/h3-5,7H,1H2	InChI=1S/C5H6N2O2/c6-2-1-5(3-8)9-4-7/h3-5,7H,1H2/t5-/m0/s1
