22
gdb 63814	3.02295	1.48535	1.31404	1.6199	84.64	-0.2193	0.0755	0.2947	1087.2393	0.19457	-367.141993	-367.133685	-367.13274	-367.174105	33.986	
C	-0.1067992064	 1.5929387891	-0.0192928845	-0.456708
C	 0.0250326001	 0.0716443376	-0.0123670308	 0.319711
C	-1.3654236862	-0.5585945103	-0.1775977283	-0.427787
C	 1.0437189921	-0.6225562241	-0.9969727258	-0.31674
C	 1.6071347654	-1.462287357	 0.1896496453	-0.023717
C	 2.8319757054	-0.9280851969	 0.9514632538	-0.034373
C	 2.9115403559	 0.5375599389	 0.9724032965	-0.242302
N	 1.9636976875	-0.1063378077	 1.9081455914	-0.169057
C	 0.7432491368	-0.6513785441	 1.1767299057	-0.002406
H	 0.8431519069	 2.1141418833	 0.1085731009	 0.119734
H	-0.5488224741	 1.9325511144	-0.963518383	 0.112444
H	-0.7682781957	 1.92299463	 0.7897525821	 0.118809
H	-1.8065383521	-0.2722694925	-1.1391469867	 0.111316
H	-1.3175968393	-1.6526275025	-0.1464182149	 0.112971
H	-2.0433121235	-0.2307344397	 0.6185184313	 0.11411
H	 0.5620363818	-1.2133909904	-1.7805846687	 0.096183
H	 1.768442529	 0.0417715756	-1.4748619803	 0.0986
H	 1.5397938052	-2.5463451021	 0.1142559316	 0.071788
H	 3.6327964283	-1.5570579642	 1.3293006616	 0.09214
H	 3.7482296542	 0.9794071053	 1.5067287076	 0.119633
H	 2.5699288461	 1.1289387826	 0.1329806774	 0.113649
H	 0.0923836225	-1.1187296452	 1.9179981179	 0.072002
149.9034	179.0007	186.5632	268.4757	296.3477	320.493	370.3255	380.2994	475.9999	550.6892	600.8217	700.6448	720.2808	748.4577	821.3175	863.1525	886.0303	903.5872	924.9471	949.8709	956.8603	981.7226	995.1816	1022.8823	1042.5075	1059.2509	1105.0659	1115.3798	1132.8929	1163.7766	1201.5151	1217.4202	1234.3823	1236.318	1257.821	1283.5411	1301.4874	1326.7853	1366.4862	1400.041	1421.6651	1480.8409	1483.2893	1486.4988	1500.9887	1506.2994	1516.1836	3019.7543	3030.1129	3055.9525	3083.9359	3085.5585	3091.5754	3092.4469	3103.141	3121.6164	3125.4573	3132.4142	3150.613	3219.4701
CC1(C)CC2C3CN3C12	CC1(C)C[C@H]2[C@H]3CN3[C@@H]12	
InChI=1S/C8H13N/c1-8(2)3-5-6-4-9(6)7(5)8/h5-7H,3-4H2,1-2H3	InChI=1S/C8H13N/c1-8(2)3-5-6-4-9(6)7(5)8/h5-7H,3-4H2,1-2H3/t5-,6+,7+,9?/m0/s1
