23
gdb 118855	3.46511	0.74395	0.74121	0.9864	82.91	-0.2345	0.0785	0.313	1673.0328	0.20304	-425.397172	-425.386233	-425.385288	-425.433319	39.496	
C	-0.0557594097	 1.1108154276	 0.2999768015	-0.23719
O	-0.239229147	-0.0079183554	-0.5459626479	-0.233943
C	-1.3852781964	-0.7360486666	-0.236179297	 0.077607
C	-1.454219682	-2.1315321506	-0.7697776433	-0.363623
C	-1.3264637413	-1.9054762819	 0.7323874951	 0.304057
C	 0.0101511097	-2.2337556414	 1.3717619589	-0.467748
C	-2.5598973296	-2.1516080604	 1.5851767625	-0.252088
C	-2.8103247961	-3.623010795	 1.9046507525	-0.07085
O	-4.0338269331	-3.703190221	 2.6227852355	-0.42082
H	 0.8460858254	 1.6264053147	-0.0384347002	 0.126228
H	-0.9072940707	 1.8052814274	 0.236830201	 0.107801
H	 0.0715927865	 0.8147047986	 1.3505932756	 0.110191
H	-2.2994055905	-0.1382315632	-0.2355097804	 0.078633
H	-2.3963672002	-2.4865666207	-1.1742139721	 0.109412
H	-0.5735347144	-2.4844512846	-1.2958598298	 0.118979
H	 0.8331577283	-1.8587510446	 0.7588037153	 0.13029
H	 0.0934026075	-1.7779821339	 2.3658357863	 0.110013
H	 0.1457657152	-3.3140193744	 1.4930619854	 0.114184
H	-2.4806280753	-1.5988455059	 2.5303858437	 0.100169
H	-3.4518350632	-1.7691116513	 1.0742346726	 0.100899
H	-2.8572441806	-4.2009476393	 0.9675368758	 0.086867
H	-1.9773964351	-4.030844781	 2.497939882	 0.08657
H	-4.1912250175	-4.6251372672	 2.845660497	 0.284362
79.2272	94.0049	106.2144	120.0543	170.8712	217.2041	229.4852	264.2738	266.2231	311.5735	354.0931	400.498	414.3501	468.5332	604.6851	733.8261	798.5103	816.9996	877.75	935.2241	978.3996	1008.3101	1023.2118	1036.0631	1070.8392	1075.9579	1103.7819	1121.7931	1134.8269	1183.5488	1185.6729	1223.2102	1241.9874	1250.537	1277.0735	1304.9587	1346.4499	1357.8858	1404.6357	1416.2903	1462.1287	1470.8936	1484.945	1486.4147	1493.6375	1504.2924	1504.9924	1510.5888	1529.4513	2969.0879	2984.394	2995.9258	3020.3064	3026.0158	3037.6913	3064.1552	3074.0354	3080.8515	3117.81	3121.0137	3129.3136	3217.1745	3830.3008
COC1CC1(C)CCO	CO[C@H]1C[C@]1(C)CCO	
InChI=1S/C7H14O2/c1-7(3-4-8)5-6(7)9-2/h6,8H,3-5H2,1-2H3	InChI=1S/C7H14O2/c1-7(3-4-8)5-6(7)9-2/h6,8H,3-5H2,1-2H3/t6-,7-/m0/s1
