17
gdb 56328	2.55797	0.98995	0.81498	2.7835	66.15	-0.2814	-0.0014	0.28	1412.6518	0.133022	-496.156776	-496.146855	-496.145911	-496.193855	32.964	
C	-0.6138135409	 1.2696875454	-0.3493209897	-0.478216
C	-0.5471220174	-0.1661703718	 0.1041498337	 0.426894
O	-0.3406825333	-0.5456133245	 1.2288242019	-0.351053
O	-0.7506132846	-1.0056994443	-0.9428303134	-0.23858
C	-0.6634865197	-2.4100251138	-0.6575086579	-0.072432
C	-1.977966208	-2.9546736462	-0.121900197	-0.10524
O	-3.0047199378	-2.8659704903	-1.1121061102	-0.175465
C	-3.8621309113	-1.82831195	-1.0355804212	 0.177593
O	-4.6945973964	-1.6176201284	-1.8636668989	-0.273083
H	 0.1852247084	 1.467531358	-1.0697016454	 0.157439
H	-1.5622449033	 1.4613982972	-0.8583918586	 0.158221
H	-0.5080279237	 1.92792905	 0.5118694146	 0.152514
H	-0.4192034277	-2.8816084973	-1.6113574166	 0.133818
H	 0.1309761761	-2.5933601416	 0.0703720311	 0.136507
H	-1.8641638487	-4.015213264	 0.1196102873	 0.132359
H	-2.2669184879	-2.4192646939	 0.7888071624	 0.139572
H	-3.7169024037	-1.2193575043	-0.1221960922	 0.079153
41.2975	49.2697	71.3061	97.2537	120.9511	179.4295	262.2171	316.661	389.6241	429.6409	498.8649	612.2792	623.1966	654.9145	824.7512	895.6229	953.7666	1003.9221	1043.0617	1055.3257	1066.0505	1087.457	1121.7417	1187.1055	1249.2759	1308.2349	1319.9123	1393.1074	1397.7827	1418.3245	1431.7718	1467.0602	1469.6634	1475.1044	1498.3456	1824.3387	1871.1743	2951.1298	3053.2853	3059.0332	3073.8071	3108.687	3124.1325	3137.7407	3172.2512
CC(=O)OCCOC=O	CC(=O)OCCOC=O	
InChI=1S/C5H8O4/c1-5(7)9-3-2-8-4-6/h4H,2-3H2,1H3	InChI=1S/C5H8O4/c1-5(7)9-3-2-8-4-6/h4H,2-3H2,1H3
