19
gdb 62183	5.2232	0.62712	0.57813	0.9003	85.13	-0.2605	0.0275	0.288	1874.0562	0.154643	-385.808979	-385.798286	-385.797342	-385.845569	37.794	
C	 0.0121308567	 1.5628182082	-0.0042563033	-0.386431
C	-0.0027014709	 0.0226039184	 0.0397373597	-0.168227
C	 0.7532265666	-0.5175500227	 1.2644187064	-0.041201
O	 2.0989859427	-0.1002426456	 1.1641513536	-0.247236
C	 2.8812177167	-0.5208667103	 2.2648589945	-0.2062
C	 4.2542859279	-0.0610110457	 2.1051991477	 0.277811
C	 5.3927948297	 0.3050649316	 1.9988669472	-0.411826
C	-1.364117271	-0.5073270381	 0.0298107078	 0.310683
C	-2.4869775908	-0.9363245239	 0.0473893697	-0.467525
H	 1.0428739108	 1.9218105625	 0.0198920981	 0.138565
H	-0.4729108185	 1.9272450141	-0.9130201373	 0.123919
H	-0.5241191505	 1.9757469251	 0.8558979902	 0.121264
H	 0.5261538833	-0.3537072726	-0.8461165304	 0.118701
H	 0.2912446235	-0.1329731826	 2.188948486	 0.097471
H	 0.6874440347	-1.616401292	 1.2929156722	 0.100739
H	 2.4640574318	-0.1262014437	 3.2071750549	 0.120979
H	 2.8656987779	-1.6209550266	 2.3505628594	 0.120959
H	 6.3983862256	 0.6316348448	 1.8989702771	 0.201811
H	-3.4781864562	-1.317104681	 0.0477585567	 0.195742
40.1715	77.5712	88.2835	135.6732	149.3817	209.825	228.6452	294.3553	327.1722	335.2771	395.8696	514.8819	532.471	582.9605	609.7953	628.9646	645.8695	678.0191	829.803	933.6924	938.4998	980.3529	1023.2574	1033.1915	1096.1844	1125.7565	1144.1307	1170.2037	1252.6684	1263.867	1307.6528	1344.1795	1381.238	1399.9763	1441.8155	1492.6776	1497.6364	1500.1969	1522.1016	2236.7111	2249.0054	2952.8676	2967.1184	2973.0756	3001.4206	3026.2748	3048.1566	3119.9704	3140.8606	3504.3001	3506.2823
CC(COCC#C)C#C	C[C@@H](COCC#C)C#C	
InChI=1S/C8H10O/c1-4-6-9-7-8(3)5-2/h1-2,8H,6-7H2,3H3	InChI=1S/C8H10O/c1-4-6-9-7-8(3)5-2/h1-2,8H,6-7H2,3H3/t8-/m1/s1
