18
gdb 67795	3.14897	1.92458	1.50839	1.6003	80.79	-0.2056	0.0033	0.2089	918.8901	0.149541	-364.800399	-364.793516	-364.792572	-364.831135	28.709	
C	-0.058321096	 1.5294832503	 0.0222650819	-0.482289
C	 0.0063518146	 0.0201564012	-0.0137843842	 0.298043
C	-0.1245521019	-0.6760332948	-1.3101949972	-0.130815
C	-0.8103521167	-1.813934136	-1.1603024701	-0.083184
C	-1.0431672712	-2.0659005913	 0.324412324	-0.134323
C	 0.1666891789	-2.9048093778	 0.7218839372	-0.083986
C	 1.1517289148	-2.0917435345	 1.1204882278	-0.068057
C	 0.6598844126	-0.7066426613	 1.1916568806	-0.117519
N	-0.8003491189	-0.7261890375	 0.9710710642	-0.141031
H	 0.7848078685	 1.9671611261	-0.5232538718	 0.117235
H	-0.9854081691	 1.8863697083	-0.4387454989	 0.127149
H	-0.0287747834	 1.897734852	 1.0509612625	 0.126442
H	 0.2830290417	-0.2867900629	-2.2350549165	 0.098092
H	-1.0181302355	-2.5505430368	-1.9274883972	 0.102449
H	-2.0190128299	-2.4783088361	 0.5924163073	 0.081033
H	 0.2412318804	-3.9682457826	 0.5286646447	 0.102255
H	 2.1672513055	-2.3785029082	 1.3619560392	 0.100497
H	 1.0210839456	-0.0551647082	 1.9851775764	 0.08801
164.2402	234.587	277.1865	329.0083	355.6471	491.3628	566.2497	587.1364	694.7198	734.8462	765.2891	775.4653	797.4282	810.7842	835.7736	900.2375	920.5689	936.5312	944.1557	968.9727	974.4685	1013.6189	1053.7443	1075.0372	1091.6667	1113.7193	1132.7042	1237.1915	1257.7732	1273.7831	1300.5762	1328.197	1361.395	1385.029	1411.8141	1483.5948	1493.7998	1639.2853	1646.8855	3033.247	3068.0113	3097.8334	3117.1124	3123.2756	3193.9769	3199.5413	3218.7165	3224.6914
CC12C=CC3C=CC1N23	C[C@@]12C=C[C@H]3C=C[C@@H]1N23	
InChI=1S/C8H9N/c1-8-5-4-6-2-3-7(8)9(6)8/h2-7H,1H3	InChI=1S/C8H9N/c1-8-5-4-6-2-3-7(8)9(6)8/h2-7H,1H3/t6-,7+,8-,9?/m1/s1
