18
gdb 87574	2.60981	1.44208	1.24609	0.5396	71.64	-0.24	0.0728	0.3128	1083.8324	0.146686	-439.011769	-439.003386	-439.002442	-439.044706	31.994	
C	-0.0640835144	 1.5387878134	-0.0059832568	-0.393487
C	-0.0283722013	 0.0341029802	 0.0939210279	-0.069304
N	 1.2802266557	-0.6218903346	-0.1455229434	-0.406036
C	 0.6700349009	-0.686380737	 1.1760606278	 0.306854
C	 1.3156637568	-0.1829077592	 2.4523182207	-0.066481
O	 0.2472702811	-0.1324568191	 3.4222220526	-0.259759
C	 0.8972309918	-1.3904585784	 3.1860627822	-0.017893
C	 0.2231442331	-1.9785366141	 1.9277145076	 0.023451
O	-1.1406690714	-2.2816054894	 2.0019946879	-0.430472
H	 0.8549028837	 1.973696758	 0.3955205845	 0.12405
H	-0.1596897682	 1.8578809604	-1.0491484235	 0.122166
H	-0.9134129399	 1.9447895452	 0.5535108595	 0.122301
H	-0.905748189	-0.4813133161	-0.2958463751	 0.095788
H	 1.1558750782	-1.5057726979	-0.6349882666	 0.233015
H	 2.1673942836	 0.4682898645	 2.6006863139	 0.117695
H	 1.3366491203	-1.8948520039	 4.0385656797	 0.109772
H	 0.7379197109	-2.8673458826	 1.5482168319	 0.09799
H	-1.5567867521	-1.5252912792	 2.4356706894	 0.290347
101.1285	137.0077	170.0588	177.9605	251.297	301.6049	430.4105	455.6899	486.0645	524.2992	596.8056	680.2126	768.6978	812.2052	848.4413	863.3771	894.1847	920.2356	936.2335	995.8988	1028.4528	1045.3099	1065.7549	1071.9477	1113.5073	1128.6062	1196.7587	1206.6255	1225.6365	1229.3716	1278.4133	1293.9993	1362.9976	1371.2655	1412.3652	1431.1657	1476.085	1490.1166	1509.0322	3036.5775	3067.6265	3100.5704	3108.9485	3126.8164	3188.0807	3211.293	3484.1814	3774.4988
CC1NC11C2OC2C1O	C[C@H]1N[C@]21[C@H]1O[C@H]1[C@H]2O	
InChI=1S/C6H9NO2/c1-2-6(7-2)4(8)3-5(6)9-3/h2-5,7-8H,1H3	InChI=1S/C6H9NO2/c1-2-6(7-2)4(8)3-5(6)9-3/h2-5,7-8H,1H3/t2-,3+,4-,5+,6+/m1/s1
