19
gdb 94884	2.79687	1.62904	1.33134	2.2865	73.75	-0.2273	0.0536	0.2808	1011.6525	0.160415	-422.974594	-422.967032	-422.966088	-423.006191	30.78	
O	-0.008955726	 1.485021287	 0.0144450215	-0.435787
C	 0.0243315008	 0.0664322984	-0.0284014742	 0.047455
C	 0.6903038101	-0.5752811672	 1.2392900156	-0.269973
C	 0.0266031771	-1.9689982606	 1.4248899522	-0.303568
C	-1.3540633706	-1.7404479104	 0.8555780099	 0.396512
C	-2.1992233851	-0.5642491582	 1.2092753347	-0.37988
C	-1.3565285513	-0.538891499	-0.0558091932	 0.181342
C	-1.9555523435	-1.5091789348	-1.0780977338	-0.151885
O	-1.9947671154	-2.5975127254	-0.102896706	-0.331971
H	 0.8992262886	 1.8044357059	 0.0283490247	 0.280887
H	 0.5621711541	-0.2732139574	-0.9288159495	 0.067286
H	 1.7791177587	-0.6390884669	 1.1499763757	 0.09838
H	 0.4775327966	 0.0746360791	 2.0947882104	 0.115962
H	 0.527976742	-2.7249458786	 0.8114811312	 0.116893
H	 0.0539773083	-2.3116046261	 2.4641302669	 0.107154
H	-3.2757224553	-0.6554095389	 1.1104657107	 0.121191
H	-1.8670578717	 0.0777407571	 2.0166271866	 0.128454
H	-2.9510914367	-1.2841997543	-1.477531975	 0.106844
H	-1.2730769907	-1.7503145996	-1.9019577584	 0.104706
127.3984	222.8712	270.9414	279.0108	311.2835	377.0051	429.2049	481.0555	562.3177	572.8178	637.261	755.5886	757.907	843.5508	879.0132	905.2532	931.251	956.651	962.6331	977.4639	998.6096	1043.1803	1056.0044	1065.4361	1090.8828	1148.6428	1186.9822	1207.9013	1218.7435	1262.769	1272.0259	1299.3004	1314.0453	1340.5701	1350.7451	1387.4782	1440.9508	1473.1217	1491.0931	1503.8096	1514.4031	2962.8962	3018.8426	3045.0553	3050.4012	3070.1967	3083.3964	3099.0156	3136.4047	3229.386	3811.3368
OC1CCC23CC12CO3	O[C@H]1CC[C@@]23C[C@@]12CO3	
InChI=1S/C7H10O2/c8-5-1-2-7-3-6(5,7)4-9-7/h5,8H,1-4H2	InChI=1S/C7H10O2/c8-5-1-2-7-3-6(5,7)4-9-7/h5,8H,1-4H2/t5-,6+,7+/m0/s1
