21
gdb 88160	2.35444	1.39494	1.27472	0.8847	78.38	-0.2239	0.0791	0.303	1144.5418	0.181904	-424.214434	-424.205189	-424.204245	-424.248624	34.919	
C	 0.4534721093	 1.6218871205	-0.2099922016	-0.396543
C	-0.0338492906	 0.198338322	 0.0846699232	-0.063568
C	 0.3824613769	-0.8169171437	-1.005472609	-0.254629
C	 1.7633387245	-1.320317931	-0.5282015391	-0.077978
O	 1.8975038956	-0.9299032311	 0.8452145514	-0.304186
C	 0.6629557457	-0.4181170555	 1.2837028354	 0.449813
C	 0.6194133507	 0.1096952978	 2.6855347974	-0.407654
C	-0.0826022966	-1.193636714	 2.3352203282	 0.005735
O	-1.478268295	-1.2306688126	 2.250760213	-0.420975
H	 1.5413287177	 1.6502892622	-0.3316605294	 0.123849
H	-0.0011601089	 2.0063932789	-1.1288975881	 0.108696
H	 0.1939009832	 2.3056161625	 0.604382021	 0.113278
H	-1.1158703843	 0.1945707259	 0.2311355609	 0.094862
H	-0.3331896462	-1.6429830806	-1.0383563503	 0.11326
H	 0.4248134399	-0.3718125847	-2.0028968278	 0.098786
H	 1.8529122297	-2.4102392216	-0.6154678321	 0.098841
H	 2.5920644724	-0.8688139878	-1.0853283594	 0.102884
H	 1.5276858325	 0.0566282111	 3.2757747254	 0.121943
H	-0.0067557264	 0.9771338245	 2.8702236208	 0.113475
H	 0.3940231408	-2.1117954658	 2.6782101029	 0.091738
H	-1.8351698312	-1.1176670671	 3.1381371871	 0.288373
52.2401	102.5925	159.4568	208.2722	217.3266	260.3904	299.4631	347.5899	412.118	448.5756	544.4886	578.31	701.1583	761.256	801.7082	831.4232	867.2039	893.7123	947.3848	960.2912	975.7376	1006.6681	1021.7109	1043.1179	1058.9319	1094.2831	1103.6441	1154.6694	1172.6885	1207.7658	1227.1122	1244.967	1266.4384	1294.1955	1311.5986	1345.3806	1375.6678	1394.1629	1407.517	1412.0497	1483.9939	1489.7464	1499.8222	1502.4223	1532.9677	3019.4857	3032.3317	3052.6654	3061.9628	3089.2821	3100.223	3105.3189	3106.8859	3111.5822	3126.8183	3221.0053	3797.0099
CC1CCOC11CC1O	C[C@H]1CCO[C@]21C[C@H]2O	
InChI=1S/C7H12O2/c1-5-2-3-9-7(5)4-6(7)8/h5-6,8H,2-4H2,1H3	InChI=1S/C7H12O2/c1-5-2-3-9-7(5)4-6(7)8/h5-6,8H,2-4H2,1H3/t5-,6+,7-/m0/s1
