22
gdb 97254	3.12269	1.16072	0.91573	2.8072	85.83	-0.2363	0.0279	0.2641	1348.4975	0.195526	-404.363354	-404.354052	-404.353108	-404.39791	34.528	
C	 0.0639904256	 1.4808357662	-0.1924793419	-0.319619
N	 0.0492581097	 0.0289250406	-0.1545558981	-0.272504
C	-1.0287522533	-0.5855693045	 0.1015479278	 0.374496
C	-1.0293383026	-2.0997873265	 0.1082350293	-0.272596
C	-1.5845387144	-2.7585639019	 1.3854859341	-0.208691
C	-3.1163526282	-2.9015225084	 1.4009192549	-0.192261
C	-3.8662186108	-1.6881721023	 0.8200189555	-0.209427
C	-3.2412021779	-0.3341511188	 1.1582250403	-0.06731
O	-2.2064357625	 0.0958383427	 0.2646792738	-0.263051
H	 1.0382350911	 1.8321757129	 0.161820955	 0.114681
H	-0.0428344595	 1.8255702115	-1.2292810761	 0.121936
H	-0.7295852752	 1.9520169044	 0.3985864065	 0.111678
H	-1.5907405755	-2.4600962131	-0.7646154211	 0.109758
H	 0.0127322054	-2.3836166456	-0.043640073	 0.1277
H	-1.1348865274	-3.7508845565	 1.4949922116	 0.102327
H	-1.2475248662	-2.1846615808	 2.2569448062	 0.105331
H	-3.4071224006	-3.7947593992	 0.8355922219	 0.101792
H	-3.4449945187	-3.0763871765	 2.4322295516	 0.099003
H	-3.9320778304	-1.7548411656	-0.2718977703	 0.113904
H	-4.8992846666	-1.6913371738	 1.186274983	 0.101645
H	-3.9923221589	 0.4551088823	 1.069549137	 0.115816
H	-2.8682159531	-0.3171256071	 2.191657712	 0.105393
54.245	86.6231	124.8305	191.5918	234.0613	273.8896	305.7368	328.4108	366.796	493.793	515.2206	589.3055	676.5687	729.355	793.455	828.8835	887.2132	912.1176	981.5102	986.545	1014.7783	1054.0807	1071.1985	1104.1867	1123.3277	1128.9648	1164.5236	1190.0924	1218.1717	1228.9916	1272.5445	1299.4817	1311.6447	1361.487	1368.9522	1381.5587	1392.7668	1423.009	1434.9323	1470.2931	1482.2271	1489.8465	1493.0743	1495.2742	1500.8977	1512.7983	1748.8403	3010.2806	3012.6036	3019.2602	3025.4339	3034.8901	3040.0841	3056.0093	3067.6068	3072.8522	3083.2567	3091.0382	3091.6936	3122.8735
CN=C1CCCCCO1	CN=C1CCCCCO1	
InChI=1S/C7H13NO/c1-8-7-5-3-2-4-6-9-7/h2-6H2,1H3	InChI=1S/C7H13NO/c1-8-7-5-3-2-4-6-9-7/h2-6H2,1H3
