22
gdb 119462	4.8149	0.77879	0.74676	2.6038	83.08	-0.2443	0.0698	0.314	1619.1456	0.193809	-404.313263	-404.303617	-404.302673	-404.348197	36.024	
C	-0.0400797757	 1.6003644622	 0.204282768	-0.381438
C	-0.0306461397	 0.070428012	 0.1639340495	-0.161451
C	-1.3984044818	-0.5264953986	-0.2005524979	-0.286438
C	-1.3890620029	-2.0274428905	-0.2326256636	 0.363763
C	-0.7258587351	-2.9140622533	-1.3032058833	-0.344275
C	-1.8963000576	-3.9430996884	-1.1081569452	 0.105919
O	-1.5798698275	-5.2260186388	-0.6073580701	-0.432937
C	-2.497661413	-3.0306095999	-0.0411630346	-0.112148
N	-1.5257708016	-2.7700654317	 1.0166825152	-0.359555
H	 0.9444673586	 1.9993744219	 0.4676822222	 0.1105
H	-0.3208969287	 2.0217909747	-0.7677088743	 0.111175
H	-0.7585757816	 1.9712134071	 0.9436779217	 0.116205
H	 0.7209203919	-0.272911207	-0.5591664749	 0.09332
H	 0.2760397843	-0.3266240865	 1.1390715522	 0.109503
H	-2.146920447	-0.1988290472	 0.5303044653	 0.106618
H	-1.7170397512	-0.1440784563	-1.1800528516	 0.089213
H	-0.7187930691	-2.4748824452	-2.3048311537	 0.101221
H	 0.2786243365	-3.2789419993	-1.0628265063	 0.092507
H	-2.5276900925	-4.0072537685	-2.0043370641	 0.072821
H	-1.097378228	-5.7058556788	-1.2881622579	 0.285142
H	-3.5512900181	-2.8962724625	 0.176698826	 0.088182
H	-0.8647481102	-3.5397913454	 1.1076021874	 0.232152
65.2924	85.3663	89.6129	170.6938	242.1689	264.3589	304.8491	311.3673	359.7981	412.9586	452.1473	605.037	701.9123	742.3036	748.1887	821.6499	864.6552	869.7238	899.0416	945.9312	970.4975	981.3576	1017.101	1045.9782	1067.6782	1088.0604	1124.8512	1140.4902	1162.5657	1181.2456	1199.4653	1236.0142	1252.3515	1277.0412	1287.7753	1310.433	1321.4218	1346.8524	1386.2253	1408.4351	1411.586	1447.9473	1473.6779	1485.3327	1492.1379	1499.1935	1508.7318	3011.6056	3012.4797	3020.5389	3028.2712	3039.6612	3051.2268	3070.8686	3095.9285	3098.4511	3101.2129	3175.7646	3469.2939	3815.5875
CCCC12CC(O)C1N2	CCC[C@]12C[C@@H](O)[C@H]1N2	
InChI=1S/C7H13NO/c1-2-3-7-4-5(9)6(7)8-7/h5-6,8-9H,2-4H2,1H3	InChI=1S/C7H13NO/c1-2-3-7-4-5(9)6(7)8-7/h5-6,8-9H,2-4H2,1H3/t5-,6-,7+/m1/s1
