15
gdb 13300	5.8389	1.28091	1.1198	1.3319	66.71	-0.2507	0.0198	0.2704	1026.2411	0.118975	-362.64175	-362.634262	-362.633318	-362.674273	26.989	
C	-0.0455980575	-1.2103408185	 0.0209190783	-0.429154
C	-0.0081581523	-0.011331101	 0.0846519694	 0.299454
C	 0.0510401682	 1.4429347231	 0.1427908771	-0.370428
C	 1.4535351185	 2.0144442606	-0.1054285486	 0.096404
C	 1.5254189343	 3.5636598696	-0.0151080545	-0.203359
N	 2.3811340167	 3.8433160834	 1.1507220298	-0.260021
C	 2.7577586294	 2.7107984195	 1.5741372819	 0.122114
O	 2.3483135826	 1.5794171352	 0.9524142049	-0.221279
H	-0.0810228211	-2.27049157	-0.0267177846	 0.198849
H	-0.6243692182	 1.8728733483	-0.6088736937	 0.137049
H	-0.3019429635	 1.8002211079	 1.1186186556	 0.141638
H	 1.8530857607	 1.6216056093	-1.0436975177	 0.10716
H	 1.9613782689	 4.0152461634	-0.9119148815	 0.121061
H	 0.5369314911	 4.0150994547	 0.128790764	 0.116752
H	 3.4087778823	 2.5414430545	 2.4246243697	 0.143762
57.4304	90.1033	140.7871	311.1569	344.5006	383.4345	478.0151	547.3468	623.5527	645.9761	745.8237	820.7337	878.9401	901.8697	962.8875	964.2464	981.4487	1021.7684	1049.732	1100.5412	1129.2164	1200.71	1251.1646	1295.6387	1316.8119	1323.0539	1361.614	1389.493	1458.0581	1501.8652	1709.5607	2243.835	3019.2562	3038.221	3053.5318	3069.6823	3087.3216	3218.2913	3506.5449
C#CCC1CN=CO1	C#CC[C@H]1CN=CO1	
InChI=1S/C6H7NO/c1-2-3-6-4-7-5-8-6/h1,5-6H,3-4H2	InChI=1S/C6H7NO/c1-2-3-6-4-7-5-8-6/h1,5-6H,3-4H2/t6-/m0/s1
