21
gdb 120070	5.66408	0.83777	0.83158	1.4122	83.5	-0.214	0.0694	0.2834	1486.8038	0.182731	-383.147287	-383.13894	-383.137995	-383.180766	32.162	
C	 0.0587733137	 1.6234532075	-0.1967476219	-0.380402
C	 0.0060820485	 0.0992362597	-0.0660825561	-0.167287
C	 0.7267317165	-0.4134675416	 1.1817487932	-0.125728
N	 0.7109762832	-1.8758425954	 1.2371022424	-0.126804
C	-0.5124887844	-2.5020496379	 1.8278906338	-0.037933
C	 0.3041808715	-3.7336013041	 2.3312270182	-0.032594
N	-0.1726952952	-3.6798556258	 3.7498815081	-0.348577
C	-0.1153124797	-2.2410201878	 3.3354824297	-0.046051
C	 1.200307294	-2.4793848565	 2.5106908979	-0.002418
H	 1.0931055653	 1.980143397	-0.2563845759	 0.114961
H	-0.4617614955	 1.9629603427	-1.0972857961	 0.113387
H	-0.4102738811	 2.1149895423	 0.6630055046	 0.113152
H	-1.040546153	-0.231331055	-0.0409058401	 0.092433
H	 0.456625151	-0.375264739	-0.9450756633	 0.107711
H	 1.7782224334	-0.0982212257	 1.149593256	 0.09596
H	 0.2853745178	 0.053818484	 2.081864899	 0.075325
H	-1.4976412266	-2.479083211	 1.356807067	 0.08041
H	 0.5403109322	-4.6521519297	 1.7951876466	 0.090332
H	-1.1465318728	-3.9904253996	 3.8047653367	 0.207748
H	-0.3855025161	-1.4281597058	 4.0097321305	 0.086793
H	 2.2348924373	-2.4287592484	 2.8511084295	 0.089579
74.2537	83.5451	129.9891	231.693	263.6268	316.4184	360.2776	510.0908	580.9049	744.4866	751.1037	768.0824	789.3888	815.3333	840.9317	887.0914	893.5969	910.7131	926.9272	945.7941	977.6274	1039.8275	1047.2375	1096.521	1100.9244	1105.1293	1135.2205	1153.3225	1162.9417	1166.4492	1177.3365	1196.0137	1218.4284	1273.7038	1294.0505	1298.9826	1319.0125	1331.1212	1346.1342	1406.4467	1412.3467	1487.6743	1497.394	1499.4303	1512.8491	2927.9441	3020.2362	3028.9578	3033.5845	3066.0038	3090.9971	3096.871	3103.9571	3110.3582	3118.7405	3133.1044	3398.3538
CCCN1C2C3NC2C13	CCCN1[C@H]2[C@@H]3N[C@H]2[C@H]13	
InChI=1S/C7H12N2/c1-2-3-9-6-4-7(9)5(6)8-4/h4-8H,2-3H2,1H3	InChI=1S/C7H12N2/c1-2-3-9-6-4-7(9)5(6)8-4/h4-8H,2-3H2,1H3/t4-,5+,6-,7+
