23
gdb 115936	3.41406	1.05048	0.88847	1.2358	84.89	-0.2571	0.0765	0.3336	1374.9472	0.208172	-388.291574	-388.28277	-388.281826	-388.324928	34.673	
O	 0.0320380028	 1.4237264417	-0.0281265057	-0.425433
C	 0.0416529504	 0.002351197	-0.0242272225	-0.096158
C	-1.4008330926	-0.4933935901	-0.0140826705	 0.057101
C	-2.1685754626	-0.0710234239	-1.2746684829	-0.206907
C	-3.6625836436	-0.3974566929	-1.140031168	-0.230564
C	-3.9286353767	-1.8302807918	-0.7108996189	 0.002665
C	-3.297910263	-2.9945329818	-1.4291247339	-0.287683
C	-2.8328425861	-2.6319140249	-0.0363826025	-0.031039
C	-1.4464992413	-2.0209103394	 0.1761026717	-0.237714
H	 0.940760272	 1.7310744948	-0.0891946219	 0.285525
H	 0.5596710078	-0.3935005803	-0.9142145845	 0.08017
H	 0.5715215993	-0.3855535081	 0.8613437274	 0.079753
H	-1.8933027966	-0.0211272192	 0.8481586854	 0.077067
H	-2.0352293658	 1.0009000907	-1.4423858993	 0.112252
H	-1.7393786768	-0.5804751308	-2.1493231457	 0.085724
H	-4.0950300922	 0.2759610551	-0.3877874019	 0.096087
H	-4.1847994605	-0.1822028389	-2.0808774015	 0.090747
H	-4.9367136724	-2.0017292827	-0.3428430852	 0.075791
H	-3.8844769612	-3.8972207917	-1.5631867581	 0.102148
H	-2.6187893695	-2.7860089132	-2.2506475238	 0.104896
H	-3.1533813611	-3.3057770726	 0.7520473426	 0.077939
H	-0.7280801402	-2.4878367191	-0.5126279855	 0.092716
H	-1.0960373302	-2.2664066778	 1.184969365	 0.094917
82.6523	128.7887	181.2818	230.11	256.5803	309.7535	331.8457	393.9101	426.9353	487.9305	506.2158	640.8859	752.7463	780.5768	812.3184	850.4353	890.7063	901.8215	932.2934	969.1007	988.9177	1020.3448	1058.4344	1069.2767	1085.3343	1101.1423	1108.0427	1132.9577	1134.2385	1161.4113	1200.7631	1224.2685	1236.2793	1248.1134	1276.0581	1298.6421	1314.5176	1338.4749	1367.6778	1375.828	1384.4169	1404.676	1417.4409	1456.8957	1486.519	1490.6879	1492.7685	1510.3304	1519.5432	2952.7319	2979.5896	2999.4943	3003.937	3010.929	3017.4984	3045.7584	3055.439	3094.0593	3123.3822	3133.6764	3148.799	3205.8226	3834.9399
OCC1CCC2CC2C1	OC[C@H]1CC[C@H]2C[C@H]2C1	
InChI=1S/C8H14O/c9-5-6-1-2-7-4-8(7)3-6/h6-9H,1-5H2	InChI=1S/C8H14O/c9-5-6-1-2-7-4-8(7)3-6/h6-9H,1-5H2/t6-,7-,8+/m0/s1
