18
gdb 19304	6.49941	0.84421	0.84186	2.3167	68.73	-0.2643	0.0978	0.3621	1387.6526	0.152748	-384.892199	-384.883945	-384.883001	-384.926146	29.221	
C	-0.0821063848	 1.5275048381	-0.2588402064	-0.215683
C	 0.0603986135	-0.0026859561	-0.2672214554	-0.215547
C	-1.2764895593	-0.7014735234	-0.2643565386	 0.095409
C	-1.5232399269	-1.9317356048	 0.4967181591	-0.180353
O	-2.0081548833	-0.6722745554	 0.9656626935	-0.23583
C	 1.2547616543	 2.2262252396	-0.2732081248	 0.095382
C	 1.516039836	 3.4480053718	 0.4966549499	-0.180319
O	 2.0091803549	 2.1833891324	 0.9425768566	-0.23583
H	-0.6629194001	 1.8554769634	-1.1318012564	 0.098409
H	-0.640400223	 1.8290611712	 0.6337572335	 0.122643
H	 0.6256334138	-0.3225057548	-1.1533493822	 0.098408
H	 0.6343883081	-0.3124226297	 0.6125097267	 0.122692
H	-1.8993685495	-0.5211924273	-1.1438947545	 0.087522
H	-2.2868953218	-2.6342100166	 0.1651792829	 0.113122
H	-0.7152575674	-2.3682690698	 1.0827994893	 0.11465
H	 1.8611333585	 2.0555345279	-1.1660923978	 0.087539
H	 2.2736272687	 4.1540057298	 0.1587402695	 0.113127
H	 0.7192528783	 3.8781399138	 1.102471445	 0.114659
57.665	71.4367	104.0059	149.378	248.1922	347.5464	391.8864	469.4242	500.3065	763.1075	784.7452	819.1255	862.4188	885.9705	937.807	963.5657	979.5192	1043.5479	1074.6131	1084.5147	1116.5001	1150.7009	1159.0913	1161.5764	1172.4847	1181.44	1232.8896	1273.138	1295.9419	1298.7199	1321.2923	1373.0221	1445.0877	1448.7934	1469.0142	1485.3535	1530.2142	1532.5373	3018.3762	3021.8015	3067.8823	3074.4635	3080.9089	3081.8874	3086.2918	3096.1076	3167.0384	3167.0978
C(CC1CO1)C1CO1	C(C[C@H]1CO1)[C@H]1CO1	
InChI=1S/C6H10O2/c1(5-3-7-5)2-6-4-8-6/h5-6H,1-4H2	InChI=1S/C6H10O2/c1(5-3-7-5)2-6-4-8-6/h5-6H,1-4H2/t5-,6-/m0/s1
