19
gdb 68029	2.62684	1.75882	1.33126	2.6854	73.85	-0.2528	0.0705	0.3233	1008.8177	0.15901	-422.982582	-422.974877	-422.973933	-423.014017	31.96	
C	-0.0509838574	 1.5210517245	 0.0426673115	-0.501939
C	 0.0378728886	 0.012678425	 0.0430981781	 0.284567
C	 0.9369118733	-0.7875050298	-0.9708174172	-0.322093
C	 0.7423369919	-1.9197127218	 0.1064592316	 0.37722
O	 1.4999221816	-3.0835042348	 0.1702156261	-0.490467
C	 0.7756434301	-0.7837041817	 1.1637056466	-0.325532
C	-0.7695070042	-2.1744688103	-0.0651870183	 0.004927
O	-1.6084890559	-1.6710901656	 0.9863724245	-0.257964
C	-1.2728548789	-0.8069939383	-0.1118220712	 0.005817
H	 0.9418696396	 1.9786901218	 0.10040899	 0.115105
H	-0.5341336228	 1.8894861738	-0.8698335447	 0.116374
H	-0.6359861308	 1.8806168905	 0.8962682954	 0.126189
H	 0.5451742245	-0.9643819482	-1.9773818683	 0.093184
H	 1.9635652179	-0.4097670463	-1.0217320363	 0.086707
H	 2.4273305229	-2.8406206837	 0.2559681747	 0.280743
H	 1.7894141479	-0.4008175387	 1.3101315759	 0.082638
H	 0.2670059986	-0.9421927769	 2.1126296561	 0.120904
H	-1.137573305	-3.0237425837	-0.6300875061	 0.105827
H	-2.0998003419	-0.4556271556	-0.7212014082	 0.097794
209.5481	234.1554	244.4547	265.4982	307.1686	370.8164	410.8528	478.3716	521.2285	575.641	601.434	609.097	692.5079	804.4541	823.3252	864.006	894.6468	898.6019	943.5627	965.5055	995.3446	1013.7631	1036.3602	1046.4044	1095.5825	1126.3494	1143.7137	1156.7936	1193.843	1234.7058	1239.7285	1245.5604	1294.347	1326.5603	1389.9565	1409.2301	1418.2745	1470.9411	1492.6853	1494.7932	1515.1919	3025.7036	3038.7293	3068.7582	3088.799	3097.9073	3101.449	3157.0367	3161.8464	3184.6202	3817.5512
CC12CC(O)(C1)C1OC21	C[C@@]12C[C@@](O)(C1)[C@H]1O[C@@H]21	
InChI=1S/C7H10O2/c1-6-2-7(8,3-6)5-4(6)9-5/h4-5,8H,2-3H2,1H3	InChI=1S/C7H10O2/c1-6-2-7(8,3-6)5-4(6)9-5/h4-5,8H,2-3H2,1H3/t4-,5+,6-,7-/m1/s1
