18
gdb 5253	6.9496	1.07941	0.94751	1.3819	75.52	-0.17	0.0577	0.2277	1231.2414	0.155397	-344.012149	-344.003974	-344.00303	-344.044892	30.543	
C	-0.0223992685	 1.5290940112	 0.0016116502	-0.400575
C	-0.0236755507	 0.0058954152	 0.0783306575	-0.099943
N	 0.8531142562	-0.4619469107	 1.1391435325	-0.394478
C	 0.9040036125	-1.842162124	 1.3764520945	 0.315556
C	 0.4470639175	-2.8558176517	 0.5560306826	-0.173716
N	 0.7677411636	-4.0559746453	 1.1633316043	-0.246509
C	 1.4010436281	-3.8217557849	 2.3496228934	-0.062185
C	 1.506595326	-2.4601342946	 2.5143932091	-0.26022
H	 0.9914679791	 1.9083692737	-0.1562978676	 0.12775
H	-0.65609636	 1.8761263211	-0.8194930581	 0.116728
H	-0.4094064501	 1.9712523733	 0.9273872017	 0.112314
H	-1.0576730952	-0.3662123292	 0.1986181779	 0.08272
H	 0.3443390072	-0.4095145206	-0.8690207691	 0.10634
H	 0.7235049922	 0.06279501	 1.9947145161	 0.221394
H	-0.0632712548	-2.8301253721	-0.3911805187	 0.10453
H	 0.5545446841	-4.962046258	 0.7886271768	 0.256289
H	 1.7290459301	-4.6338132171	 2.9784612661	 0.112582
H	 1.9689356627	-1.9520152762	 3.3471600608	 0.081423
76.2818	96.1417	146.6187	248.3962	304.6929	344.9189	385.4474	425.5618	590.1553	613.8445	627.188	681.6969	737.6288	759.1337	801.1122	824.2368	900.2185	922.9327	989.5349	1069.1298	1085.016	1101.6441	1153.0073	1163.9101	1174.7061	1272.3209	1293.8756	1312.4543	1373.8253	1404.2261	1421.5993	1475.844	1485.9075	1496.1337	1500.9075	1528.869	1541.3642	1630.2768	2931.9974	3025.4683	3033.4707	3098.6585	3119.1332	3240.3832	3267.0475	3279.1635	3555.1886	3700.2907
CCNC1=CNC=C1	CCNc1c[nH]cc1	
InChI=1S/C6H10N2/c1-2-8-6-3-4-7-5-6/h3-5,7-8H,2H2,1H3	InChI=1S/C6H10N2/c1-2-8-6-3-4-7-5-6/h3-5,7-8H,2H2,1H3
