20
gdb 45593	2.74052	1.53481	1.26563	2.6495	77.7	-0.2172	-0.0229	0.1942	1066.2166	0.173025	-403.151967	-403.144122	-403.143178	-403.184391	30.762	
O	 0.1544789518	 0.0518741639	-0.7257808871	-0.294972
C	 0.0645179425	 1.114581518	-0.1875082404	 0.398057
C	-0.9663975826	 1.7905607968	 0.7288237592	-0.304893
N	-0.1622026117	 3.0340640984	 0.6391809896	-0.084637
C	 0.237715771	 3.7077932127	 1.8680565194	-0.171204
C	 1.0789813175	 2.8518333575	 2.8512528603	-0.207427
C	 1.9945795385	 1.8322954821	 2.1236765793	-0.210774
C	 2.2614324997	 2.2215986498	 0.6620354522	-0.225939
C	 0.9478872974	 2.3741642771	-0.1163974478	-0.097381
H	-1.9863530936	 1.8767314187	 0.336817477	 0.129418
H	-1.0133996926	 1.3177910316	 1.7214524969	 0.120452
H	 0.8156570555	 4.5904049262	 1.5690793408	 0.107845
H	-0.6595473304	 4.0887359966	 2.3671090163	 0.106334
H	 1.6780027492	 3.5319888157	 3.4671025637	 0.099881
H	 0.4240293989	 2.3183344931	 3.5480156652	 0.101977
H	 2.9419117629	 1.7224599534	 2.6597406377	 0.102366
H	 1.5278078877	 0.8398338827	 2.1383095596	 0.110356
H	 2.8165991672	 3.1669180023	 0.6166432552	 0.105319
H	 2.8820574048	 1.4693117087	 0.1636784597	 0.118357
H	 1.1307229765	 2.8335694445	-1.0969216369	 0.096861
82.4997	138.4795	184.457	258.5043	318.0822	407.1661	444.8205	496.2731	547.9277	628.7457	640.3702	735.8426	764.1432	796.6708	846.201	911.2233	924.5152	950.956	979.9736	1039.8665	1051.6327	1064.0447	1098.9613	1109.3044	1126.6997	1177.7336	1194.7307	1223.3996	1244.4999	1277.3178	1300.447	1316.1973	1324.0851	1353.4602	1367.4701	1385.8416	1392.2095	1470.1866	1477.1309	1487.662	1495.5368	1512.1231	1908.8972	2995.0358	3010.6699	3024.413	3028.6897	3034.2617	3040.3469	3056.9094	3061.5192	3075.6311	3077.1182	3088.1935
O=C1CN2CCCCC12	O=C1CN2CCCC[C@@H]12	
InChI=1S/C7H11NO/c9-7-5-8-4-2-1-3-6(7)8/h6H,1-5H2	InChI=1S/C7H11NO/c9-7-5-8-4-2-1-3-6(7)8/h6H,1-5H2/t6-/m0/s1
