18
gdb 92974	2.7963	1.40744	1.04324	6.2416	72.84	-0.2426	0.0047	0.2473	1140.9281	0.149688	-439.130191	-439.122223	-439.121279	-439.163065	30.699	
N	-0.1131480425	 1.1836005777	-0.0413161117	-0.532075
H	-0.2389271976	 0.1969381595	-0.2564628235	 0.249591
H	 1.4849214766	 1.2942400156	 0.5439985274	 0.319983
H	-0.5387863035	 1.7114740778	-0.7958621311	 0.2474
C	-0.7654359595	 1.5038492341	 1.2469679872	-0.027759
C	-2.1640661111	 0.8453651906	 1.3948294196	-0.268499
C	-1.8484466857	-0.4576205278	 2.0958200887	-0.088735
C	-0.6459649812	-0.4254749398	 2.6676368518	-0.056405
C	 0.0454683649	 0.9056862998	 2.4359201859	-0.161291
C	 1.5832781476	 0.7855727443	 2.3704441752	 0.383252
O	 2.1915805696	 0.3959876273	 3.3343635378	-0.348589
O	 2.1865485723	 1.1342946323	 1.2351310102	-0.376336
H	-0.811287876	 2.5938076293	 1.3099798441	 0.093096
H	-2.8318010809	 1.4654811432	 2.0100064353	 0.117502
H	-2.6585243291	 0.7240154833	 0.4237941835	 0.097287
H	-2.5510739805	-1.2805638025	 2.1551705224	 0.101709
H	-0.1887194211	-1.1996489728	 3.2704088645	 0.123811
H	-0.1205243223	 1.5346604777	 3.3219792729	 0.12606
63.9636	114.8887	217.8531	261.1892	335.1013	382.342	412.6847	434.5108	475.0374	632.3198	710.0264	726.0117	773.9698	792.0047	842.5619	867.9859	931.0856	946.9583	980.4586	986.8497	1014.0326	1027.6227	1036.5737	1104.2068	1119.2882	1157.4385	1216.7018	1225.6827	1269.7359	1288.2128	1310.222	1313.5103	1365.2243	1422.2472	1481.5677	1515.7832	1642.3397	1676.0701	1845.312	3007.0851	3010.0628	3052.9161	3084.302	3142.2033	3198.1185	3229.3978	3486.3857	3575.3567
[NH3+]C1CC=CC1C([O-])=O	N[C@H]1CC=C[C@H]1C(=O)O	
InChI=1S/C6H9NO2/c7-5-3-1-2-4(5)6(8)9/h1-2,4-5H,3,7H2,(H,8,9)	InChI=1S/C6H9NO2/c7-5-3-1-2-4(5)6(8)9/h1-2,4-5H,3,7H2,(H,8,9)/t4-,5+/m1/s1
