18
gdb 124745	2.53696	1.31473	1.03651	4.7692	74.34	-0.2488	-0.005	0.2439	1208.8916	0.14755	-435.275914	-435.266646	-435.265701	-435.310928	33.227	
C	 0.0171778588	 1.6216341111	-0.0017138682	-0.389305
C	-0.0071598553	 0.0879597433	-0.0687313348	 0.027307
O	 0.6267744068	-0.3799327647	-1.2514573369	-0.433114
C	 0.6307191599	-0.5318946018	 1.1440028542	 0.251515
C	 0.0974902737	-1.1211908101	 2.2698328171	 0.222176
C	-1.2996293555	-1.3727010982	 2.7265417164	-0.510343
N	 1.2013815357	-1.4763176024	 2.98068899	-0.224563
N	 2.3422416449	-1.1454899911	 2.3484917801	-0.120522
N	 1.9928831143	-0.5692122917	 1.2373007287	-0.275278
H	 1.047605537	 1.9760427746	 0.0999219079	 0.129538
H	-0.4095083076	 2.0371811597	-0.9185517936	 0.121425
H	-0.5570154656	 1.990272655	 0.8551725684	 0.105701
H	-1.0494899391	-0.2473556324	-0.1366738419	 0.081006
H	 1.5745482353	-0.3880558475	-1.0667882225	 0.294693
H	-1.4385473913	-2.4103858192	 3.048240135	 0.141476
H	-1.5798962887	-0.7236869519	 3.5640996126	 0.146121
H	-1.9999902851	-1.1810302829	 1.9108033976	 0.153839
H	 1.2536606919	-1.9478729297	 3.8701414698	 0.278328
28.7467	89.8199	147.8115	170.537	246.8439	250.9119	281.8092	373.7582	380.4021	455.0607	525.7145	573.1151	634.8554	702.8667	736.6883	769.5211	907.0612	988.1056	1019.2757	1037.8048	1062.6744	1090.0592	1093.5026	1111.3274	1167.706	1254.5634	1286.4624	1340.982	1354.0137	1376.9888	1396.843	1423.0033	1432.3719	1471.548	1483.2055	1488.556	1494.457	1512.448	1633.3892	3031.5246	3033.6574	3034.5456	3087.1652	3108.0171	3123.2066	3127.9632	3648.8664	3777.2
CC(O)C1=C(C)NN=N1	C[C@@H](O)c1c(C)[nH]nn1	
InChI=1S/C5H9N3O/c1-3-5(4(2)9)7-8-6-3/h4,9H,1-2H3,(H,6,7,8)	InChI=1S/C5H9N3O/c1-3-5(4(2)9)7-8-6-3/h4,9H,1-2H3,(H,6,7,8)/t4-/m1/s1
