27
gdb 99960	2.17343	1.16645	1.13287	1.3472	91.01	-0.2619	0.07	0.3319	1348.6618	0.24895	-390.69375	-390.68201	-390.681066	-390.728908	45.806	
C	 0.0839189759	 1.545665089	 0.1602154438	-0.417578
C	-0.0110023781	 0.0104817454	 0.0110049362	 0.250227
C	 0.6020744104	-0.6163880607	 1.2823025289	-0.416649
C	-1.510738678	-0.3639759227	-0.0123170642	-0.419742
C	 0.7425951929	-0.501352173	-1.2881208522	 0.272855
C	 2.1435179365	 0.1366029552	-1.4167865232	-0.423555
C	 0.9202046651	-2.036459497	-1.2755414103	-0.432514
C	-0.0686852908	-0.1384719532	-2.5524570924	-0.109145
O	 0.7017351829	-0.4684178607	-3.7046321832	-0.425519
H	 1.1060474632	 1.8749729424	 0.3642748254	 0.114694
H	-0.2680858569	 2.0763005426	-0.7296843173	 0.108293
H	-0.5379301187	 1.8736299013	 1.0003102881	 0.105192
H	 0.1489174189	-0.1653298461	 2.1718114409	 0.105178
H	 0.422996189	-1.6934010927	 1.3356301969	 0.112774
H	 1.681332497	-0.4498289727	 1.3472894839	 0.111736
H	-2.06539229	 0.1916028303	-0.7744804248	 0.109541
H	-1.6706014471	-1.4317629878	-0.1893929511	 0.112324
H	-1.9661601737	-0.1234345499	 0.9543919761	 0.106215
H	 2.7420225971	-0.0268248293	-0.5159780718	 0.104329
H	 2.6757342911	-0.3070013237	-2.2601331598	 0.129938
H	 2.0895675339	 1.2136442027	-1.5976766769	 0.107242
H	-0.0157788767	-2.561179139	-1.0589337018	 0.103385
H	 1.2652325348	-2.3655943484	-2.258544579	 0.129681
H	 1.6606882153	-2.3517505407	-0.5359703991	 0.108751
H	-1.0154608232	-0.6956426625	-2.559929991	 0.084889
H	-0.3129593985	 0.9343334301	-2.5543983345	 0.081792
H	 0.1540445276	-0.3187466288	-4.4798753078	 0.285665
100.4919	126.5226	205.562	225.5877	227.1869	252.141	254.7756	268.4717	286.1716	305.7446	336.6374	346.7807	364.5416	375.8886	387.5391	397.521	459.5915	469.5899	533.5341	682.4786	795.4925	877.0343	926.666	932.4912	936.7477	955.2778	959.4372	969.6021	1017.9248	1039.8259	1063.1975	1074.9043	1173.9483	1188.4079	1204.6225	1233.9512	1250.5328	1267.5017	1290.6456	1314.3407	1393.8656	1399.1196	1404.3624	1411.3581	1433.7956	1461.2198	1480.6417	1482.3225	1487.2572	1490.5261	1499.2247	1503.9986	1507.182	1512.3748	1522.086	1524.5062	1527.2585	2982.5674	3022.041	3032.2868	3034.2635	3039.9345	3044.0275	3051.9893	3092.2452	3094.1237	3101.002	3104.6709	3111.4676	3112.6473	3115.9347	3118.0005	3126.0677	3133.4926	3839.4451
CC(C)(C)C(C)(C)CO	CC(C)(C)C(C)(C)CO	
InChI=1S/C8H18O/c1-7(2,3)8(4,5)6-9/h9H,6H2,1-5H3	InChI=1S/C8H18O/c1-7(2,3)8(4,5)6-9/h9H,6H2,1-5H3
