15
gdb 71568	3.09986	1.70492	1.52125	3.1167	64.1	-0.2298	-0.0348	0.195	900.3168	0.112052	-457.713422	-457.706537	-457.705593	-457.744527	27.167	
C	-0.1421228864	 1.5097280368	 0.0572045198	-0.520635
C	 0.0002579958	 0.0225442472	 0.0594136013	 0.430186
O	-1.2222304489	-0.7473790864	 0.1546483682	-0.329988
C	-0.3654518758	-1.8849352796	 0.5030456196	-0.101268
C	 0.753449079	-0.9091803595	 1.030452102	 0.019633
O	 1.9012068372	-1.0245365424	 0.1685229421	-0.300267
C	 0.97138434	-0.7526526305	-0.9326044544	-0.14393
C	 0.2308792676	-2.1061133219	-0.9054981757	 0.515904
O	 0.1399357568	-2.9974339425	-1.6930940803	-0.319888
H	 0.8454886437	 1.9791979179	 0.0866879062	 0.143432
H	-0.6584204611	 1.8440047009	-0.8482602532	 0.143198
H	-0.7180411069	 1.8402972031	 0.9260210578	 0.140363
H	-0.8547956917	-2.6849975102	 1.0499177229	 0.109106
H	 0.9645439117	-0.7810722578	 2.0904691644	 0.10881
H	 1.427361419	-0.3677367452	-1.8404940006	 0.105344
144.4711	210.6622	246.2279	262.5161	432.3222	461.8328	515.9176	566.1213	659.6676	750.4421	766.1351	807.8441	819.3941	843.8409	862.9937	914.8706	929.8615	967.9079	977.1515	1083.3079	1118.103	1120.9089	1144.5045	1171.1387	1201.4271	1223.0353	1249.1359	1283.881	1370.7604	1421.0761	1477.7248	1489.6933	1911.5003	3043.0089	3115.6908	3124.4496	3141.7774	3172.4534	3181.238
CC12OC3C1OC2C3=O	C[C@]12O[C@@H]3[C@H]1O[C@H]2C3=O	
InChI=1S/C6H6O3/c1-6-4-2(7)3(9-6)5(6)8-4/h3-5H,1H3	InChI=1S/C6H6O3/c1-6-4-2(7)3(9-6)5(6)8-4/h3-5H,1H3/t3-,4-,5+,6+/m0/s1
