15
gdb 46443	3.60637	1.26151	1.10274	4.0019	70.18	-0.2744	-0.0319	0.2424	1079.3978	0.113374	-416.826458	-416.818831	-416.817887	-416.859313	28.183	
O	-0.0304680796	 0.0235598138	 0.3385028425	-0.290426
C	-0.0511297904	 1.193156572	 0.0926874715	 0.383746
C	-1.2814404255	 2.0835112449	-0.1057409095	-0.322757
C	-0.7883209394	 3.5255284809	 0.1158022769	-0.313795
C	 0.7468294195	 3.4059384975	 0.0069237053	 0.152118
C	 1.4981947513	 2.7620620102	 1.1261241101	-0.267634
N	 1.144656013	 1.9843084273	-0.0716199918	-0.136892
C	 1.4302616863	 4.3264830001	-0.8705757318	 0.240911
N	 1.9514598842	 5.0976689578	-1.5557509095	-0.328422
H	-1.6374626921	 1.9381194221	-1.1316641815	 0.157432
H	-2.0815468336	 1.7629206078	 0.562839604	 0.148896
H	-1.1673511972	 4.2148526982	-0.6388856637	 0.145111
H	-1.078093184	 3.917163474	 1.0941492639	 0.133711
H	 2.559116369	 2.953102586	 1.2499249962	 0.156548
H	 0.9495088584	 2.5667323074	 2.0447821473	 0.141454
51.0981	110.3201	167.5698	265.5647	349.4702	449.489	493.5678	519.0617	567.5254	603.671	666.7838	749.3566	780.3296	806.443	873.0209	924.1106	977.8563	1001.6146	1025.5325	1087.5485	1126.0521	1140.269	1169.7956	1235.7787	1237.5449	1286.0218	1318.9945	1359.9281	1458.4783	1496.1758	1510.0503	1873.9671	2361.4559	3060.3475	3076.0628	3111.1737	3126.1913	3137.1729	3209.9641
O=C1CCC2(CN12)C#N	O=C1CC[C@]2(CN12)C#N	
InChI=1S/C6H6N2O/c7-3-6-2-1-5(9)8(6)4-6/h1-2,4H2	InChI=1S/C6H6N2O/c7-3-6-2-1-5(9)8(6)4-6/h1-2,4H2/t6-,8?/m1/s1
