23
gdb 122526	2.82949	0.80332	0.67776	1.293	84.31	-0.2332	0.0846	0.3178	1779.1879	0.202963	-425.389242	-425.378432	-425.377488	-425.426218	38.208	
C	 0.1421676787	 1.0994594998	 0.5019302571	-0.382384
C	-0.1372667848	-0.18553753	-0.2815727984	-0.181961
C	-1.4583485451	-0.8284690534	 0.1142179854	-0.037087
O	-1.6401510631	-1.999470666	-0.673842684	-0.247764
C	-2.8281068229	-2.660718155	-0.4075266433	 0.092056
C	-2.8156204347	-4.1504733903	-0.6132148553	-0.358799
C	-2.9211377089	-3.5749759978	 0.7877494322	 0.083979
O	-1.8164740852	-3.6249713344	 1.6271592418	-0.230188
C	-1.6488572937	-4.8802772714	 2.2547941973	-0.228539
H	 1.0969985527	 1.5424445475	 0.204322973	 0.115071
H	-0.6386901451	 1.8490279815	 0.3313944604	 0.11415
H	 0.1864197503	 0.9077032329	 1.5797169846	 0.117133
H	-0.1566988026	 0.0212766473	-1.3579259685	 0.103193
H	 0.6651060791	-0.9136670969	-0.1170800894	 0.107931
H	-1.4601360993	-1.0932596622	 1.1804256906	 0.108959
H	-2.292251565	-0.1264172627	-0.0578005822	 0.077312
H	-3.7299108107	-2.1055090881	-0.6749168791	 0.081188
H	-3.6734307114	-4.637759347	-1.0627804261	 0.111139
H	-1.8481311455	-4.5601315768	-0.8822211881	 0.13142
H	-3.8834574973	-3.6554079504	 1.2978401268	 0.081252
H	-1.5079025478	-5.6848231531	 1.5192682079	 0.110321
H	-0.7589862726	-4.80886208	 2.8845987488	 0.126905
H	-2.5133881653	-5.1357578733	 2.8862716186	 0.104712
46.9503	70.2044	99.7677	125.1627	138.094	190.2278	212.4619	238.1158	269.2786	326.9982	381.7595	437.5901	512.9766	662.5119	766.3965	769.1468	815.1319	870.9124	902.8302	910.5922	994.4213	1034.674	1045.1294	1057.4015	1086.7879	1099.7221	1128.9742	1150.4145	1165.143	1179.9879	1187.9712	1194.9586	1235.2797	1266.4878	1270.6388	1316.6432	1333.8147	1369.5787	1396.1051	1412.9443	1439.6684	1472.0933	1485.2281	1490.52	1492.8125	1501.4914	1507.2601	1508.6276	1523.5595	2958.6573	2983.4273	3029.3602	3031.5629	3036.829	3039.3777	3068.7744	3072.5972	3080.9077	3100.1912	3106.9719	3118.2169	3136.9477	3231.3178
CCCOC1CC1OC	CCCO[C@H]1C[C@H]1OC	
InChI=1S/C7H14O2/c1-3-4-9-7-5-6(7)8-2/h6-7H,3-5H2,1-2H3	InChI=1S/C7H14O2/c1-3-4-9-7-5-6(7)8-2/h6-7H,3-5H2,1-2H3/t6-,7+/m1/s1
