17
gdb 119450	5.16781	0.79622	0.75219	2.5648	69.78	-0.2467	-0.03	0.2167	1475.1339	0.133699	-458.930602	-458.921781	-458.920836	-458.964931	31.998	
O	 0.0899012475	 1.4489046607	 0.1493052434	-0.412911
C	 0.0408882734	 0.0343000376	 0.1382410621	-0.06305
C	-1.3649254656	-0.4953522017	-0.1866299271	-0.338666
C	-1.409391907	-1.9882369055	-0.2669718115	 0.422918
C	-0.8000853723	-2.9231959854	-1.33381327	-0.419169
C	-2.0004485467	-3.8753167182	-1.0410300571	 0.43357
O	-2.4328757619	-4.8491668176	-1.5786728694	-0.294343
C	-2.5158912514	-2.9383399024	 0.0460511556	-0.187829
O	-1.396013977	-2.7503496687	 0.9413485543	-0.278033
H	-0.4137930299	 1.7586237635	 0.9087820072	 0.285405
H	 0.746450623	-0.2828642977	-0.6371971316	 0.120099
H	 0.3865591805	-0.3954470101	 1.0898868125	 0.110092
H	-2.0680728789	-0.1645945549	 0.5872972642	 0.107425
H	-1.6927795041	-0.0626638084	-1.1386203777	 0.121074
H	-0.8526834009	-2.5530659992	-2.3624030223	 0.135511
H	 0.203062439	-3.2956892204	-1.1186252193	 0.137132
H	-3.5111354777	-2.7840744616	 0.4469320267	 0.120776
62.5632	86.6221	100.4639	163.8266	293.2834	315.9033	346.5265	391.3149	434.2849	473.972	578.3666	665.7626	725.9266	761.0819	793.6397	861.1167	944.1929	968.5275	991.8584	1025.5184	1037.6615	1062.2299	1077.5181	1119.7448	1149.51	1189.1042	1212.3613	1254.6731	1298.3159	1324.9572	1395.1593	1417.4451	1424.5191	1453.895	1473.4115	1511.8777	1902.4539	3000.648	3032.8623	3066.2392	3067.008	3089.3903	3130.9565	3192.633	3817.7188
OCCC12CC(=O)C1O2	OCC[C@]12CC(=O)[C@H]1O2	
InChI=1S/C6H8O3/c7-2-1-6-3-4(8)5(6)9-6/h5,7H,1-3H2	InChI=1S/C6H8O3/c7-2-1-6-3-4(8)5(6)9-6/h5,7H,1-3H2/t5-,6+/m1/s1
