20
gdb 70324	2.98396	1.50012	1.26965	1.9753	77.94	-0.2179	0.0804	0.2983	1057.2185	0.17264	-403.105718	-403.097923	-403.096979	-403.137419	31.985	
O	-0.0493517742	 1.2854428153	-0.4416351659	-0.463802
C	 0.0254220801	-0.0331754154	 0.0421912373	 0.399885
C	-0.1379321219	-1.1326669355	-0.978879552	-0.368522
C	-1.2611587657	-0.7952545375	-0.0070655058	-0.062817
C	-1.6847861266	-1.6755248993	 1.1618339923	-0.184444
N	-0.6894897248	-2.0253036664	 2.1792562205	-0.089415
C	 0.5237555257	-2.7505593524	 1.8062025792	-0.260334
C	 0.589510426	-1.3187694671	 2.2186279865	-0.00253
C	 0.9165725875	-0.1754184546	 1.2655488848	-0.318357
H	 0.7963805238	 1.4950460176	-0.8544095641	 0.278653
H	-0.2853244416	-0.8022144682	-2.0015508179	 0.110696
H	 0.4151537275	-2.0588679739	-0.8869882392	 0.113526
H	-2.0877346823	-0.2543322552	-0.4585397173	 0.099407
H	-2.4864804187	-1.1455591763	 1.6921958901	 0.111666
H	-2.1236787847	-2.6116265781	 0.7954222524	 0.108125
H	 0.8249319254	-3.5297951638	 2.5033510924	 0.1099
H	 0.6996851396	-3.0034627905	 0.7660920946	 0.110778
H	 0.935252489	-1.12097769	 3.2328380056	 0.090518
H	 1.9747904532	-0.2305620375	 0.9728766645	 0.098471
H	 0.8001966127	 0.7622010391	 1.8215334718	 0.118596
154.7304	171.276	280.1659	306.4764	339.3192	360.6574	385.0992	406.7435	488.7217	576.5048	634.045	704.3569	741.8311	786.5956	816.0202	884.5447	912.2622	921.2397	937.7041	986.5613	1017.1524	1026.7266	1061.6942	1064.4124	1107.1763	1119.8525	1124.3688	1144.6489	1176.288	1215.0064	1252.2332	1289.3303	1297.4804	1337.6098	1342.8678	1348.7862	1383.533	1418.5639	1424.6173	1483.2652	1489.0357	1501.7182	1525.7051	3004.8996	3015.8896	3050.2607	3054.3955	3099.6917	3106.7247	3138.1504	3153.1745	3194.6199	3228.8227	3786.5631
OC12CC1CN1CC1C2	O[C@]12C[C@H]1CN1C[C@H]1C2	
InChI=1S/C7H11NO/c9-7-1-5(7)3-8-4-6(8)2-7/h5-6,9H,1-4H2	InChI=1S/C7H11NO/c9-7-1-5(7)3-8-4-6(8)2-7/h5-6,9H,1-4H2/t5-,6+,7-,8?/m0/s1
