21
gdb 40179	3.18578	1.45491	1.22321	1.3164	81.94	-0.2294	0.0812	0.3106	1100.4289	0.184217	-387.06856	-387.060825	-387.059881	-387.100465	31.897	
C	 0.0511012926	 1.503335547	-0.0365092516	-0.335802
C	 1.3235323096	 0.6718481825	-0.0561776412	-0.323145
C	-0.0319088925	 0.0175106827	 0.067788079	 0.470848
C	-0.4378167705	-0.6829425247	 1.3451167951	-0.285644
C	 0.1525937691	-2.1040882609	 1.3666345273	-0.225189
C	 0.0409825189	-2.7953354195	 0.0172426998	-0.03815
C	-1.276342304	-2.9583587844	-0.7131392183	-0.306757
C	-0.2520675464	-1.9705430334	-1.2094555503	 0.089765
O	-0.5584078908	-0.6051647601	-1.0795625606	-0.298608
H	-0.1708699474	 2.0974015047	 0.8435770877	 0.109693
H	-0.2689139217	 1.9410954663	-0.9751386858	 0.12267
H	 1.8354103046	 0.5747465312	-1.0066354924	 0.115965
H	 1.9745636214	 0.6987815949	 0.811745774	 0.107219
H	-0.0933858334	-0.1195333357	 2.2180414691	 0.096685
H	-1.533407599	-0.7129593117	 1.3935529448	 0.104542
H	 1.2170163006	-2.0311449731	 1.6213091493	 0.101987
H	-0.3174773763	-2.7063047674	 2.1530806484	 0.097102
H	 0.7502490958	-3.6055861347	-0.1266180927	 0.085512
H	-1.4461916036	-3.8717932401	-1.272826896	 0.106963
H	-2.1667569889	-2.5282800178	-0.2667805553	 0.116693
H	 0.2818580718	-2.185987636	-2.1316375704	 0.087651
104.1484	154.4188	271.0287	301.2182	326.0694	371.0563	467.6396	496.1165	511.6995	641.0648	709.5683	744.191	772.9049	812.2642	840.6323	879.6087	901.4275	918.0006	951.0683	966.3727	995.9852	1018.2225	1039.1391	1047.5768	1053.5262	1076.802	1086.8122	1118.3955	1129.2818	1179.8098	1187.6837	1194.915	1238.5453	1253.0402	1278.78	1337.6365	1360.6266	1374.5503	1400.4884	1411.3899	1453.5403	1479.5794	1481.7566	1497.5867	1500.7583	3023.0369	3030.3137	3058.2676	3082.5405	3126.4817	3130.4464	3130.6886	3135.4554	3143.515	3215.7955	3218.5208	3229.7159
C1CC11CCC2CC2O1	C1CC21CC[C@H]1C[C@H]1O2	
InChI=1S/C8H12O/c1-2-8(3-4-8)9-7-5-6(1)7/h6-7H,1-5H2	InChI=1S/C8H12O/c1-2-8(3-4-8)9-7-5-6(1)7/h6-7H,1-5H2/t6-,7+/m0/s1
