16
gdb 26995	2.76382	1.23069	0.95383	4.3456	75.96	-0.2317	0.0016	0.2334	1226.9288	0.124385	-400.79833	-400.789802	-400.788858	-400.832788	30.347	
C	-0.1111537163	 1.5686191327	 0.1329606695	-0.508623
C	-0.0047986771	 0.0774970864	 0.0496515919	 0.160256
C	 0.0796597233	-0.7028326572	-1.0649853369	 0.282208
C	 0.087913447	-0.402730923	-2.5299600782	-0.448014
C	 1.4058911149	-0.577506465	-3.1551037584	 0.268082
N	 2.4427655324	-0.7132779732	-3.6456388107	-0.303688
O	 0.173236963	-2.0215391697	-0.726316736	-0.176792
C	 0.1473405446	-2.0826234307	 0.6298309449	-0.012502
C	 0.037412714	-0.8395411128	 1.1587584199	-0.254225
H	 0.7539859406	 1.9995427565	 0.6489877659	 0.141991
H	-0.1641114148	 2.0311187254	-0.8563824313	 0.124192
H	-1.0038358721	 1.8732023969	 0.6901736308	 0.136157
H	-0.6277797268	-1.0469197174	-3.0550268429	 0.169758
H	-0.2369631943	 0.6294760597	-2.6908816134	 0.164749
H	 0.2120464518	-3.0707766726	 1.054366597	 0.141226
H	-0.0083460301	-0.5876931659	 2.2071384078	 0.115225
31.2845	94.25	106.9476	233.8259	249.5304	299.2306	370.1504	383.2812	490.9415	620.0162	633.2729	667.0768	756.7596	786.2473	831.2149	898.8857	912.751	932.8716	983.6995	1061.5479	1072.5726	1119.0804	1185.0786	1223.0731	1267.7991	1287.6729	1334.7671	1417.3809	1434.0865	1445.2442	1480.1204	1496.8838	1547.0565	1671.8955	2364.6962	3033.3728	3042.1613	3086.04	3097.1526	3110.9953	3251.6598	3285.9845
CC1=C(CC#N)OC=C1	Cc1c(CC#N)occ1	
InChI=1S/C7H7NO/c1-6-3-5-9-7(6)2-4-8/h3,5H,2H2,1H3	InChI=1S/C7H7NO/c1-6-3-5-9-7(6)2-4-8/h3,5H,2H2,1H3
