15
gdb 23908	4.58853	0.9657	0.94425	2.8113	51.84	-0.2742	0.0743	0.3485	1239.3326	0.113487	-531.303127	-531.294457	-531.293513	-531.337752	29.387	
C	 0.0277140553	 1.5042098559	 0.0894741647	-0.386861
C	 0.0229655996	-0.0124582212	 0.0315344459	-0.028646
O	 0.7020912907	-0.5066261857	 1.1744864305	-0.240912
C	 0.7568815952	-1.9010192747	 1.222173419	-0.192886
C	 1.5037720185	-2.3045877671	 2.4830784983	 0.272097
F	 0.8898655138	-1.8675238231	 3.586822228	-0.07188
F	 1.5690455362	-3.6452011113	 2.5505555537	-0.082405
F	 2.7537583784	-1.8317625715	 2.494193226	-0.07188
H	 1.0527995362	 1.8845140632	 0.0977529899	 0.133418
H	-0.4903466965	 1.9172462894	-0.7809327497	 0.119262
H	-0.4765337513	 1.8550186508	 0.9940019648	 0.133421
H	-1.0090802621	-0.4000465468	 0.0122776228	 0.093609
H	 0.5214664202	-0.3706070235	-0.8844012879	 0.093611
H	-0.2438778221	-2.3589960025	 1.2629662782	 0.115027
H	 1.2940765777	-2.3294011118	 0.3614539858	 0.115026
49.6912	64.5713	118.8024	143.7441	245.2094	281.0718	334.2322	357.5789	464.7459	536.8821	567.8274	666.9537	820.7636	855.8825	911.987	990.4884	1052.6111	1144.8374	1178.9837	1180.9973	1197.7985	1207.4201	1294.3843	1296.6583	1311.1986	1394.4431	1412.6523	1465.2294	1483.3482	1497.5122	1503.057	1532.294	2961.0448	2983.0742	2989.6291	3019.6391	3048.1537	3123.3092	3126.4754
CCOCC(F)(F)F	CCOCC(F)(F)F	
InChI=1S/C4H7F3O/c1-2-8-3-4(5,6)7/h2-3H2,1H3	InChI=1S/C4H7F3O/c1-2-8-3-4(5,6)7/h2-3H2,1H3
