17
gdb 27189	3.39253	1.5766	1.19619	3.6062	79.85	-0.2084	0.0175	0.2259	1041.0259	0.137794	-380.844526	-380.837197	-380.836253	-380.876519	28.213	
C	 0.0045377595	 1.4840687313	-0.0049964308	-0.488374
C	 0.0290864214	-0.0076536738	-0.0513994571	 0.16222
C	-0.1471639003	-0.8763154252	-1.0997481361	 0.179175
C	 0.0462579647	-1.3746941425	-2.5200421658	-0.219027
C	 1.372963908	-2.1214205558	-2.5726822144	-0.272423
C	 0.1890261477	-2.7660441601	-1.9022526923	-0.016987
N	-0.0549602969	-2.1527810641	-0.5816198674	-0.006778
C	 0.2329645134	-2.0369563247	 0.7465419743	-0.038697
N	 0.2092930528	-0.7666125865	 1.1003165643	-0.305944
H	 0.9074782947	 1.8734939161	 0.4767280028	 0.132787
H	-0.0593454225	 1.9065765278	-1.0114310753	 0.114509
H	-0.8509428656	 1.8524125184	 0.5725699183	 0.13335
H	-0.5060260078	-1.0940317279	-3.4053002471	 0.11369
H	 1.6408170325	-2.5426216304	-3.5388000131	 0.123698
H	 2.210069871	-1.777287355	-1.9737388928	 0.135999
H	-0.2611481466	-3.7082305697	-2.181701879	 0.123159
H	 0.3568410642	-2.8743584279	 1.4162610714	 0.129642
95.856	114.499	196.993	264.9175	359.5202	480.625	500.0605	630.43	662.3699	699.3028	710.4592	789.9021	802.6411	819.9932	876.2685	924.5879	968.517	996.1895	1014.0703	1043.3098	1061.6475	1086.5282	1096.4245	1129.3179	1182.8109	1213.2348	1248.0331	1280.6455	1301.1447	1348.0541	1392.2666	1415.5672	1460.0515	1471.0568	1475.9175	1493.4695	1629.1381	3032.464	3086.3428	3115.5381	3115.6717	3206.9844	3213.7405	3224.6917	3253.4382
CC1=C2C3CC3N2C=N1	Cc1c2[C@H]3C[C@H]3n2cn1	
InChI=1S/C7H8N2/c1-4-7-5-2-6(5)9(7)3-8-4/h3,5-6H,2H2,1H3	InChI=1S/C7H8N2/c1-4-7-5-2-6(5)9(7)3-8-4/h3,5-6H,2H2,1H3/t5-,6+/m0/s1
