13
gdb 129900	6.06598	1.06935	0.90955	3.8737	81.81	-0.2339	-0.0666	0.1673	1189.9254	0.089443	-411.766716	-411.759114	-411.75817	-411.798722	28.804	
N	-0.000620499	 1.3691019718	-0.1224950701	-0.572219
C	-0.0210449008	 0.0043348858	-0.0502445148	 0.416961
C	-1.2188663231	-0.7431042637	-0.0299799228	-0.074882
N	-1.192615112	-2.0547875119	-0.0122721763	-0.255857
C	 0.0364724407	-2.6190969831	-0.0194274829	 0.178753
N	 1.1931151537	-1.9442337229	-0.0299784473	-0.21829
N	 1.1632440352	-0.6225627217	-0.03942683	-0.26117
C	 0.1174155669	-4.0445042802	-0.0098054471	 0.291762
C	 0.1798701567	-5.2452147621	-0.0027711043	-0.359275
H	 0.894772642	 1.7955808646	 0.0642365815	 0.270197
H	-0.8058407706	 1.8795632805	 0.200544533	 0.264755
H	-2.1914853648	-0.252512584	-0.0269622045	 0.119305
H	 0.238314045	-6.3055521531	 0.0036851558	 0.19996
81.817	152.1736	241.6546	350.0043	381.8592	402.3842	455.0838	475.1252	501.8586	545.4041	600.9036	628.0899	662.013	672.7549	751.2865	836.9906	874.1405	948.8471	1047.9027	1068.0046	1164.6528	1295.3898	1314.7811	1395.3177	1460.3338	1542.6207	1600.269	1643.9237	2240.3928	3132.2211	3503.903	3584.1336	3704.8493
NC1=CN=C(N=N1)C#C	Nc1cnc(nn1)C#C	
InChI=1S/C5H4N4/c1-2-5-7-3-4(6)8-9-5/h1,3H,(H2,6,8)	InChI=1S/C5H4N4/c1-2-5-7-3-4(6)8-9-5/h1,3H,(H2,6,8)
