20
gdb 79622	2.16787	1.88496	1.55229	2.3128	77.2	-0.2135	0.0588	0.2722	988.3146	0.172547	-403.099237	-403.091333	-403.090389	-403.131055	32.102	
C	-0.3030869351	 1.5677274002	 0.0905631769	-0.400092
C	 0.0405131871	 0.0795374156	-0.006073829	 0.033679
C	 0.6872999776	-0.3942289012	-1.3225728187	-0.129285
C	 2.0311711041	 0.0951545686	-1.8011893512	 0.075948
O	 2.6581509585	 1.2725686859	-1.3724384008	-0.408396
C	 1.9678834652	-1.1350603489	-0.9371832188	-0.089961
C	 2.0430778651	-1.0947711449	 0.5758536949	-0.030327
C	 2.2033609297	 0.1872664035	 1.3162452806	-0.26857
N	 0.8676760329	-0.4037570103	 1.1310522694	-0.108047
H	 0.5866763984	 2.1952957379	 0.0058498178	 0.115093
H	-0.9988396503	 1.8499891147	-0.7061946014	 0.109643
H	-0.782112184	 1.7823554564	 1.0502666268	 0.126707
H	-0.9011265431	-0.4778991557	 0.0763710366	 0.086065
H	 0.0089505555	-0.7828967992	-2.0768337269	 0.083043
H	 2.2269448945	-0.1244205723	-2.8525092681	 0.090017
H	 2.2348225647	 2.0075869782	-1.8283709792	 0.290893
H	 2.2466609261	-2.0756890212	-1.3991600762	 0.087728
H	 2.3242055878	-2.0328370316	 1.0479930355	 0.085118
H	 2.5439276712	 0.1662683195	 2.3489529055	 0.102946
H	 2.496510384	 1.0600852747	 0.7512852263	 0.147797
140.9573	202.0065	223.317	263.2705	291.5585	334.4093	368.884	474.2154	551.0125	635.375	668.0925	708.8702	716.1653	756.3066	777.5896	810.8684	860.4708	940.3419	975.511	1019.2255	1034.2158	1046.8212	1065.3086	1080.7563	1110.5584	1117.4645	1126.342	1131.1857	1154.4491	1175.4634	1249.0957	1276.9986	1285.1763	1330.571	1341.5177	1368.2284	1373.9204	1387.7209	1402.1066	1463.5263	1492.1065	1504.7359	1510.5123	3014.7784	3044.1916	3075.4779	3109.1818	3114.6839	3130.7093	3132.1512	3142.8703	3169.7832	3249.9458	3808.5399
CC1C2C(O)C2C2CN12	C[C@H]1[C@H]2[C@@H](O)[C@H]2[C@H]2CN12	
InChI=1S/C7H11NO/c1-3-5-6(7(5)9)4-2-8(3)4/h3-7,9H,2H2,1H3	InChI=1S/C7H11NO/c1-3-5-6(7(5)9)4-2-8(3)4/h3-7,9H,2H2,1H3/t3-,4+,5+,6-,7+,8?/m0/s1
