16
gdb 5382	4.85184	1.53767	1.26724	0.6077	73.36	-0.2433	-0.0467	0.1966	971.3664	0.13284	-342.841304	-342.83421	-342.833266	-342.873311	26.001	
C	-0.2318042827	 1.5300982688	 0.094282591	-0.37129
C	 0.0934845514	 0.0331244829	-0.0353535811	-0.271119
C	 0.7700139888	-0.5140958148	 1.1956747071	 0.318055
C	 0.1408837974	-1.428480205	 2.0482804015	-0.060668
N	 0.7186172505	-1.9096475351	 3.148800208	-0.231991
C	 1.9514007625	-1.4689580536	 3.4037079359	-0.013614
C	 2.5901129973	-0.5604402532	 2.5634410777	-0.019893
N	 2.0092686447	-0.0814051307	 1.4644552537	-0.287545
H	 0.6793195807	 2.0978382348	 0.3007483378	 0.139312
H	-0.6766070221	 1.9117563856	-0.8292974167	 0.115722
H	-0.9373109713	 1.7113604648	 0.9116030202	 0.118043
H	-0.8206795786	-0.5366972282	-0.2331897595	 0.103993
H	 0.760968034	-0.117197558	-0.8913677878	 0.121809
H	-0.8640687158	-1.7822162398	 1.8285136458	 0.109969
H	 2.4422645375	-1.8490854653	 4.2957620021	 0.115027
H	 3.5971625159	-0.2126045734	 2.7815668441	 0.11419
44.0822	138.5238	222.3475	285.1729	363.898	423.1469	516.1248	596.7684	646.1852	783.5144	801.1752	822.331	873.0016	970.2733	981.9883	994.1676	1030.1122	1068.4809	1084.4175	1088.0111	1205.5067	1231.6592	1256.418	1281.6647	1337.4782	1362.316	1403.8737	1436.5532	1479.9639	1496.5322	1505.3776	1511.9022	1579.693	1616.0563	3039.0642	3040.9913	3079.3821	3110.8509	3125.5616	3151.0145	3152.1609	3172.378
CCC1=CN=CC=N1	CCc1cnccn1	
InChI=1S/C6H8N2/c1-2-6-5-7-3-4-8-6/h3-5H,2H2,1H3	InChI=1S/C6H8N2/c1-2-6-5-7-3-4-8-6/h3-5H,2H2,1H3
