25
gdb 52704	2.98156	0.65412	0.60575	0.0694	99.05	-0.2382	0.0614	0.2996	2030.0529	0.225679	-352.350002	-352.337847	-352.336903	-352.389283	42.816	
C	-0.0143876063	 1.5113953916	-0.0903899197	-0.497765
C	-0.0192475516	 0.0553777533	-0.0501771022	 0.077747
C	-0.0204006379	-1.1485474088	-0.0069773172	 0.058317
C	-0.0312933457	-2.6126626493	 0.0146660376	-0.176999
C	-1.4792757989	-3.1423802911	 0.0645109092	-0.383203
C	 0.76856615	-3.1631610091	-1.1935884522	-0.15762
C	 0.9539976626	-4.6908242237	-1.2564405342	 0.031783
C	 1.671486431	-5.0724835501	-2.5594705504	-0.392156
C	 1.7139515975	-5.2434769307	-0.0422264507	-0.383653
H	 0.3685231265	 1.883665698	-1.0473074296	 0.144401
H	-1.0234405523	 1.9182061053	 0.0408332699	 0.144532
H	 0.6154568482	 1.9312984107	 0.7019955684	 0.144431
H	 0.4747358326	-2.9344344882	 0.935047827	 0.100458
H	-2.0142400934	-2.8861541181	-0.8556364177	 0.120208
H	-1.4996380073	-4.2294969032	 0.1830177935	 0.114367
H	-2.0215451541	-2.699080058	 0.903740679	 0.121125
H	 0.2694228657	-2.8245169355	-2.110412357	 0.096114
H	 1.7577567521	-2.6877289334	-1.1926867745	 0.09798
H	-0.0380827734	-5.1612564903	-1.2786438225	 0.074786
H	 2.6769154129	-4.6359505451	-2.5953794147	 0.11182
H	 1.7784300328	-6.1586465672	-2.6491437733	 0.107841
H	 1.1230591348	-4.7148162634	-3.437271006	 0.109845
H	 1.1796561475	-5.0683153826	 0.8964272448	 0.114184
H	 1.8654676008	-6.3239187112	-0.1360242916	 0.109106
H	 2.702512676	-4.7762930199	 0.0450455542	 0.112351
17.9605	43.2303	76.9997	90.9196	152.1714	198.511	229.3015	237.5367	255.9274	279.2961	309.7741	336.2826	372.4868	415.9787	429.9863	515.3583	544.006	733.6377	825.7187	845.6405	895.3188	928.1635	960.1247	968.1852	1017.9675	1024.4506	1053.6809	1053.9813	1104.0295	1142.267	1161.6711	1191.017	1203.5204	1262.4617	1295.2415	1341.0968	1347.1665	1370.9764	1386.8701	1400.1768	1406.5485	1415.6821	1422.4514	1478.4677	1479.7675	1480.2168	1487.6851	1493.3222	1495.7459	1501.5345	1505.439	1512.1493	2368.3212	3007.3146	3012.3021	3019.5481	3023.1754	3024.1488	3028.8124	3040.4939	3060.1985	3083.2397	3083.4221	3087.5687	3094.3026	3097.867	3102.1852	3112.305	3118.4871
CC#CC(C)CC(C)C	CC#C[C@@H](C)CC(C)C	
InChI=1S/C9H16/c1-5-6-9(4)7-8(2)3/h8-9H,7H2,1-4H3	InChI=1S/C9H16/c1-5-6-9(4)7-8(2)3/h8-9H,7H2,1-4H3/t9-/m1/s1
