19
gdb 53320	6.18573	0.66693	0.66123	1.7255	86.57	-0.2417	0.0544	0.2961	1752.1822	0.157395	-385.836235	-385.826803	-385.825859	-385.872447	33.766	
C	 0.5401699541	 1.5590070061	-0.6416991725	-0.498546
C	 0.2597536648	 0.1788058343	-0.2726143223	 0.096685
C	 0.0314244676	-0.9652203429	 0.0290282804	 0.05108
C	-0.260580959	-2.3314442835	 0.4088156595	-0.171529
C	-0.1957203484	-2.7168466035	 1.9301886295	-0.317894
C	-1.4718742722	-3.5282316291	 1.709299818	 0.459875
C	-1.746432859	-4.9191927492	 2.0729339559	-0.268654
O	-2.4323413147	-3.8232650386	 2.7002934917	-0.272746
C	-1.7560525149	-2.8115739547	 0.3896970611	-0.317897
H	 1.3622672902	 1.620038995	-1.3635669852	 0.146815
H	-0.3351317811	 2.0357575345	-1.0970042407	 0.147256
H	 0.8233003608	 2.1560105757	 0.2324646391	 0.147244
H	 0.3548386166	-3.0262586708	-0.1717882172	 0.10035
H	 0.6983180361	-3.2379361517	 2.2786002858	 0.109663
H	-0.3820281615	-1.8476313749	 2.5661485966	 0.123954
H	-2.3604365154	-5.5405315742	 1.4217164683	 0.115359
H	-1.0516360388	-5.4610738414	 2.7138466492	 0.115359
H	-2.4420567479	-1.9726712855	 0.5322888694	 0.123969
H	-2.0815825173	-3.4067007957	-0.4659219668	 0.109657
18.1872	50.4556	91.9433	148.7862	270.5852	289.8934	312.2459	371.309	377.0941	438.0098	525.2257	548.414	655.8679	823.8123	826.2037	879.0538	881.191	905.7787	965.8483	983.075	1034.5173	1052.2295	1053.8494	1092.5663	1126.3227	1155.6887	1191.2298	1194.117	1203.5714	1217.1374	1248.7161	1250.2051	1357.808	1415.1808	1437.9963	1465.3812	1478.6927	1478.8613	1490.7899	1538.5654	2368.7934	3025.2323	3048.911	3064.8546	3069.4634	3077.5356	3085.0971	3085.494	3124.9418	3127.0665	3164.4601
CC#CC1CC2(CO2)C1	CC#C[C@H]1C[C@]2(CO2)C1	
InChI=1S/C8H10O/c1-2-3-7-4-8(5-7)6-9-8/h7H,4-6H2,1H3	InChI=1S/C8H10O/c1-2-3-7-4-8(5-7)6-9-8/h7H,4-6H2,1H3/t7-,8+
