17
gdb 18072	4.36747	1.48275	1.42942	3.5809	68.6	-0.2432	0.0295	0.2727	932.8721	0.14332	-363.854274	-363.846825	-363.845881	-363.886989	27.535	
O	 0.4197186303	 1.0602824243	 1.4906786516	-0.317574
C	 0.2458537403	 1.5900973717	 0.4158443916	 0.150214
N	 1.1868025927	 1.7051234632	-0.5632611981	-0.285292
C	 2.4955832655	 1.1271490376	-0.4577721625	 0.048325
C	 3.6931406764	 1.7720112212	-1.090308523	-0.117642
C	 3.6079000348	 3.3028798128	-1.0122849814	-0.229754
C	 3.4666308295	 3.2058116715	 0.5405159276	-0.223901
C	 3.5610143389	 1.6808912839	 0.4418373647	-0.044898
H	-0.7162686563	 2.0537746448	 0.1139317016	 0.068939
H	 0.8988367002	 2.0878157703	-1.4506087142	 0.248086
H	 2.505240734	 0.0398583559	-0.5023355186	 0.107432
H	 4.3317778502	 1.2149612628	-1.7659681841	 0.089523
H	 4.5411002282	 3.7834221205	-1.3123201826	 0.109164
H	 2.7860546629	 3.7775966586	-1.5583393052	 0.086375
H	 4.320170491	 3.6467933336	 1.0585491755	 0.107099
H	 2.5461775934	 3.5967231322	 0.9823140442	 0.110297
H	 4.073011248	 1.0332459552	 1.1423884728	 0.093606
27.6076	147.2788	184.8546	242.5148	298.135	410.8959	506.9806	581.4575	713.5998	744.3426	788.3018	801.9964	855.4647	923.703	959.1498	968.8268	993.9689	1023.3406	1029.0496	1034.9305	1083.2132	1118.9288	1145.0208	1157.9191	1222.155	1244.4383	1252.1	1265.8783	1304.5424	1351.8981	1428.1881	1436.2906	1478.8058	1499.5588	1505.1252	1812.762	2917.4954	3045.7373	3065.5411	3102.9527	3122.8118	3124.8413	3174.7031	3194.1151	3618.9968
O=CNC1C2CCC12	O=CN[C@H]1[C@H]2CC[C@@H]12	
InChI=1S/C6H9NO/c8-3-7-6-4-1-2-5(4)6/h3-6H,1-2H2,(H,7,8)	InChI=1S/C6H9NO/c8-3-7-6-4-1-2-5(4)6/h3-6H,1-2H2,(H,7,8)/t4-,5+,6-
