21
gdb 41856	2.30014	1.97592	1.60101	1.2593	82.2	-0.2355	0.0297	0.2652	968.8185	0.187123	-387.114738	-387.107715	-387.106771	-387.145704	29.627	
C	-0.0523525332	 1.5246287146	-0.0625185351	-0.072301
O	 1.2310141418	 2.1259231424	-0.0288183131	-0.239889
C	 2.089919366	 1.6523982817	-1.0479235977	-0.07134
C	 2.2524740686	 0.1153195403	-0.9918804001	-0.062398
C	 0.8575258815	-0.5164875834	-1.1525789544	-0.235229
C	-0.0022772376	-0.0105294542	 0.0188892079	-0.016584
C	 0.5747714122	-0.5254569402	 1.3561897181	-0.251427
C	 2.0811074825	-0.5776104069	 1.3856582725	-0.034391
C	 2.8468438235	-0.3074906141	 0.3298207506	-0.056452
H	-0.602717506	 1.9481492088	 0.7839719365	 0.100749
H	-0.5807618978	 1.8141660385	-0.9888569108	 0.077862
H	 1.7026061147	 1.9399491802	-2.0416840025	 0.079069
H	 3.0479832355	 2.1586260387	-0.8962793856	 0.103137
H	 2.9089265007	-0.184152709	-1.8173640159	 0.065112
H	 0.4094289302	-0.2179290313	-2.1083431867	 0.086042
H	 0.9285644717	-1.6090370191	-1.1466248761	 0.095226
H	-1.033408646	-0.3700621259	-0.0828852442	 0.064817
H	 0.2124541791	 0.0987534073	 2.1844925419	 0.104661
H	 0.1819114043	-1.5322408793	 1.5613664217	 0.102236
H	 2.5366023957	-0.871261334	 2.3289042965	 0.080936
H	 3.9300129424	-0.3502391553	 0.4107683364	 0.080163
156.1992	224.36	309.0964	355.0541	397.8033	425.7928	466.3143	501.6675	638.8384	667.4072	741.8685	778.2012	807.3836	875.5803	893.888	914.655	937.4706	958.3115	983.107	999.0266	1017.7888	1025.6019	1079.3171	1083.1331	1112.712	1143.5369	1154.1312	1210.0034	1229.7067	1238.8042	1282.3477	1308.3866	1328.5801	1348.4656	1353.1465	1364.472	1378.7329	1391.3876	1418.4435	1425.9126	1469.5351	1487.7072	1491.7343	1504.502	1721.177	2940.9472	2948.5844	2996.6952	3020.6397	3026.4654	3033.9036	3039.3419	3070.1561	3073.2887	3079.8388	3140.7004	3165.7672
C1OCC2CC1CC=C2	C1OC[C@@H]2C[C@H]1CC=C2	
InChI=1S/C8H12O/c1-2-7-4-8(3-1)6-9-5-7/h1-2,7-8H,3-6H2	InChI=1S/C8H12O/c1-2-7-4-8(3-1)6-9-5-7/h1-2,7-8H,3-6H2/t7-,8+/m0/s1
