18
gdb 15016	3.89328	1.56047	1.31488	1.5756	64.53	-0.2526	0.0748	0.3275	979.0811	0.1544	-422.069681	-422.061772	-422.060828	-422.102072	29.087	
O	-0.011442038	 1.4514408112	 0.0092349467	-0.405031
C	-0.0252163449	 0.0403560729	 0.0022850855	-0.105063
C	-1.4618598062	-0.4525585108	 0.0134802289	 0.242658
O	-2.0862603246	-0.0097234714	 1.1912977512	-0.249837
C	-3.4355091088	-0.4461517097	 1.2720970503	-0.07636
C	-4.220416963	 0.013656965	 0.0424867689	-0.20551
C	-3.4593450371	-0.432916946	-1.2068280767	-0.076352
O	-2.1087464519	 0.002753615	-1.1473305916	-0.249824
H	 0.9062126879	 1.737069257	 0.0043364067	 0.28906
H	 0.456056832	-0.3744036116	-0.8965431441	 0.093609
H	 0.4730028886	-0.3834036318	 0.8875580406	 0.093635
H	-1.4542486699	-1.5639104619	 0.0074807495	 0.043353
H	-3.4690475416	-1.5475285416	 1.3497500128	 0.083967
H	-3.8408337794	-0.0303103801	 2.1981026432	 0.111069
H	-5.2321795203	-0.4070479824	 0.0499702133	 0.095633
H	-4.2986097495	 1.1054982481	 0.0490674183	 0.119951
H	-3.4944820462	-1.5334054023	-1.2955740436	 0.083967
H	-3.882357137	-0.0072547995	-2.1203764698	 0.111076
100.1939	117.91	162.5641	253.0846	267.5069	312.6286	360.9266	477.1145	480.6437	630.2195	690.5293	866.7096	878.9358	894.2838	901.6474	957.8121	986.6975	1048.1089	1074.4517	1108.4584	1120.4803	1171.6595	1185.761	1239.2515	1242.8089	1257.8601	1287.7556	1309.6343	1370.7136	1377.506	1409.5704	1418.5539	1423.3187	1467.0298	1478.3595	1495.7776	1503.1782	1506.1157	2871.717	2947.7063	2955.7211	2982.0396	3017.0379	3043.9235	3090.0453	3091.5288	3099.6718	3838.7769
OCC1OCCCO1	OCC1OCCCO1	
InChI=1S/C5H10O3/c6-4-5-7-2-1-3-8-5/h5-6H,1-4H2	InChI=1S/C5H10O3/c6-4-5-7-2-1-3-8-5/h5-6H,1-4H2
