21
gdb 120321	3.25154	0.99122	0.94496	1.0881	78.25	-0.2455	0.0866	0.3322	1380.8977	0.182667	-424.204495	-424.195575	-424.194631	-424.239118	32.954	
C	 0.071677125	 1.532024503	-0.0207825137	-0.379547
C	 0.2682962043	 0.0152777482	 0.0420311839	-0.158801
C	 0.4678483327	-0.4997512333	 1.4736678654	-0.194705
C	 0.6123948337	-2.0035987399	 1.5444669189	-0.0835
C	 1.8877422783	-2.7195868342	 1.1375367996	 0.035973
O	 3.0498892348	-1.9201196007	 1.0524696074	-0.252868
C	 3.5502593129	-1.8514418894	 2.3758530786	 0.022964
O	 2.4310944834	-1.8971039569	 3.2432277527	-0.252312
C	 1.4789230058	-2.7010603778	 2.5783848508	 0.01986
H	 0.9365704167	 2.0597898721	 0.3964344309	 0.114738
H	-0.061965966	 1.8755400377	-1.0513690748	 0.109807
H	-0.8103891862	 1.8426363576	 0.5506876583	 0.11131
H	-0.5973789804	-0.4862973304	-0.4108621743	 0.088115
H	 1.1395909783	-0.2723847559	-0.5581381398	 0.11041
H	 1.3502453017	-0.0276898167	 1.9147415745	 0.111806
H	-0.3837869424	-0.1986280319	 2.0979994995	 0.093581
H	-0.2873618095	-2.5631667384	 1.2914702352	 0.087127
H	 1.8884044502	-3.5985304136	 0.5016673282	 0.100833
H	 4.2252602189	-2.7016438748	 2.5756646427	 0.091599
H	 4.0741557404	-0.9016414406	 2.5139799053	 0.120972
H	 1.1352875473	-3.5628606143	 3.1405369706	 0.102636
45.3718	84.52	117.8332	186.3506	241.6538	249.8852	269.6914	371.3619	533.3701	611.8308	727.5119	745.0089	754.0017	773.9646	797.9192	871.8541	903.0411	930.9637	959.2639	1013.2148	1040.6296	1055.1055	1066.8506	1086.5439	1098.1358	1112.2006	1131.9887	1158.9567	1179.2532	1212.5795	1225.669	1265.1264	1298.1991	1304.9386	1327.1573	1354.6717	1391.1639	1411.3567	1423.9212	1426.8466	1483.0902	1493.0378	1499.6599	1509.3716	1536.6272	2953.2426	3016.8784	3022.4939	3028.1043	3056.8743	3087.845	3094.1827	3097.5699	3100.2717	3118.9538	3156.5078	3167.0124
CCCC1C2OCOC12	CCC[C@H]1[C@H]2OCO[C@@H]12	
InChI=1S/C7H12O2/c1-2-3-5-6-7(5)9-4-8-6/h5-7H,2-4H2,1H3	InChI=1S/C7H12O2/c1-2-3-5-6-7(5)9-4-8-6/h5-7H,2-4H2,1H3/t5-,6+,7-
