20
gdb 8484	2.99668	1.92294	1.4547	1.8073	75.46	-0.2364	0.0887	0.3252	969.2818	0.174785	-348.992357	-348.983543	-348.982599	-349.024911	33.329	
C	-0.0674576384	 1.5600997622	 0.0711357498	-0.408018
C	 0.0037643584	 0.0435376787	-0.0391812392	-0.026503
C	 1.0929396969	-0.5878034598	-0.9825197558	-0.3104
C	 1.6694457049	-1.3207187972	 0.2396466727	 0.355105
C	 2.435586925	-2.6028821197	 0.2795471438	-0.500976
O	 2.0292574279	-0.2897282712	 1.1815226633	-0.329819
C	 0.6560233509	-0.7230951683	 1.1348559438	 0.343462
C	 0.0208982099	-1.1764111492	 2.4093982473	-0.50589
H	 0.9085439925	 1.962563166	 0.3564713532	 0.132275
H	-0.3595878071	 2.0121654895	-0.8827441611	 0.111285
H	-0.8004703406	 1.8724682565	 0.82351381	 0.109473
H	-0.981740519	-0.3770635643	-0.2677178526	 0.068308
H	 0.6679728498	-1.2547860203	-1.7373405721	 0.097808
H	 1.782967246	 0.1122985956	-1.4618731881	 0.101563
H	 3.4352657553	-2.4707093493	-0.1504500741	 0.130162
H	 2.5558182513	-2.9508578122	 1.3091577743	 0.129704
H	 1.9235310488	-3.3801460843	-0.2972299511	 0.120808
H	-0.2063113442	-0.3212194514	 3.0565564177	 0.130619
H	-0.9178411287	-1.7038084915	 2.2097337989	 0.120777
H	 0.6887111302	-1.8447396097	 2.9599201094	 0.130258
136.6308	175.3234	184.3248	195.4661	220.4644	228.8788	299.5553	333.1059	409.8569	479.7841	560.5805	603.4156	687.5862	713.7294	795.6427	845.8939	886.2359	904.0879	953.9935	1004.5983	1035.8547	1070.2094	1122.5517	1132.0764	1145.1907	1193.9193	1205.6611	1225.5287	1233.0949	1309.2746	1358.2076	1401.4153	1407.4865	1409.974	1462.6406	1476.035	1478.3075	1487.6744	1491.5373	1495.3809	1503.9932	1527.4953	3029.5966	3030.3397	3031.8305	3045.151	3056.4134	3090.4519	3091.6711	3092.3116	3111.1892	3115.2392	3116.8968	3117.9926
CC1CC2(C)OC12C	C[C@H]1C[C@@]2(C)O[C@@]12C	
InChI=1S/C7H12O/c1-5-4-6(2)7(5,3)8-6/h5H,4H2,1-3H3	InChI=1S/C7H12O/c1-5-4-6(2)7(5,3)8-6/h5H,4H2,1-3H3/t5-,6+,7-/m0/s1
