14
gdb 53931	1.84505	1.59705	1.28479	4.978	68.71	-0.264	-0.0148	0.2492	1062.6237	0.098992	-432.854926	-432.845383	-432.844439	-432.889371	34.331	
N	-0.0617622135	 1.3339477659	-0.0465396306	-0.522906
C	 0.0996274677	-0.0010743082	 0.0663467638	 0.417973
O	 1.142180205	-0.5863423896	 0.2277793034	-0.338926
C	-1.2794769488	-0.7850686516	-0.0029244449	-0.222573
N	-2.2853883726	 0.0230328635	-0.7250413515	-0.540936
C	-1.0589473389	-2.1119303027	-0.5864492839	 0.353241
C	-0.9320067134	-3.1768053197	-1.1254489341	-0.424118
C	-1.7400596284	-0.9238492055	 1.3937843471	 0.323413
N	-2.1156781908	-1.0162945475	 2.4819175425	-0.327338
H	 0.7436329699	 1.9292756208	 0.051961412	 0.273155
H	-0.9846260878	 1.7163759628	-0.1781666659	 0.282113
H	-2.0930561904	-0.0511068162	-1.7211605736	 0.253892
H	-3.2081091261	-0.3759385855	-0.5763875254	 0.259884
H	-0.798657502	-4.1253041964	-1.5855715388	 0.213125
49.8588	123.149	137.7583	161.4854	234.5712	252.8445	314.3736	375.5823	419.1624	429.0836	462.7671	507.473	570.2806	634.0075	646.3911	660.1974	674.7513	675.6366	762.9556	878.5167	957.7918	1085.0581	1123.4093	1133.0632	1293.1229	1335.806	1584.4403	1653.9408	1839.5377	2242.7961	2363.1324	3488.1173	3499.3711	3569.8537	3584.5507	3727.8089
NC(=O)C(N)(C#C)C#N	NC(=O)[C@@](N)(C#C)C#N	
InChI=1S/C5H5N3O/c1-2-5(8,3-6)4(7)9/h1H,8H2,(H2,7,9)	InChI=1S/C5H5N3O/c1-2-5(8,3-6)4(7)9/h1H,8H2,(H2,7,9)/t5-/m1/s1
