14
gdb 124027	4.62598	1.32468	1.11462	4.5556	69.11	-0.2608	-0.0047	0.2561	1028.8037	0.102528	-432.792334	-432.785716	-432.784772	-432.823613	24.982	
C	 0.109749185	 1.5552336412	-0.0056606551	-0.250111
O	 1.2518007822	 0.6782774731	-0.0356108639	-0.245669
C	-0.0243360031	 0.1001136502	 0.0119671892	 0.246487
C	-0.5101477066	-0.8611242149	 1.1492781998	-0.247195
N	-1.0238650319	-1.6791985209	 0.0238414772	 0.064998
N	-1.7154339839	-2.7437604555	-0.3916347963	-0.168032
N	-1.7216493233	-2.6365127934	-1.7048720431	-0.175864
C	-1.0580291998	-1.5115421538	-2.1156824833	-0.22814
C	-0.603062741	-0.883169082	-0.9763052913	 0.289793
H	-0.0193307448	 2.120199609	 0.9157177626	 0.132221
H	-0.0827080183	 2.1003765058	-0.9273313235	 0.136794
H	 0.2890369335	-1.3446530505	 1.7135284483	 0.159591
H	-1.2917116651	-0.4845462645	 1.8114944792	 0.152223
H	-0.9650584329	-1.2685881838	-3.1601363298	 0.132904
113.6441	157.9226	247.7658	311.9541	451.8699	492.7881	522.0595	694.359	709.2743	744.5414	838.7982	855.8332	863.2629	917.033	1000.1928	1031.7844	1067.1818	1109.5213	1119.387	1126.3087	1133.9553	1167.3058	1202.8448	1235.2951	1287.1307	1308.4006	1444.5695	1461.602	1502.6925	1525.9559	1560.4803	3081.7113	3093.5884	3148.3511	3186.7218	3288.4759
C1OC11CN2N=NC=C12	C1O[C@]21Cn1nncc21	
InChI=1S/C5H5N3O/c1-4-5(3-9-5)2-8(4)7-6-1/h1H,2-3H2	InChI=1S/C5H5N3O/c1-4-5(3-9-5)2-8(4)7-6-1/h1H,2-3H2/t5-/m0/s1
