16
gdb 125862	3.26276	1.59313	1.13489	3.8757	76.79	-0.2454	-0.0308	0.2146	1040.5682	0.126469	-400.751366	-400.74444	-400.743496	-400.782636	27.286	
C	-0.0964027684	 1.5969588632	-0.0190352663	-0.387866
C	-0.0080025751	 0.0604716857	 0.0136427213	-0.217775
C	 0.8178533596	-0.5176655636	-1.1371594068	-0.063498
C	 1.8527147869	-1.2734468513	-0.7259706439	-0.201875
C	 1.8326320305	-1.2948001788	 0.7327216666	 0.37433
N	 2.5371040828	-1.8279460454	 1.6963856804	-0.259291
O	 1.8922739373	-1.3823453283	 2.8643922809	-0.181424
C	 0.8309680986	-0.6058824789	 2.5348348352	-0.088184
C	 0.7342685585	-0.5092481137	 1.1919526404	 0.161673
H	 0.9005388952	 2.0430771849	 0.0351000911	 0.131104
H	-0.5767411929	 1.9376891835	-0.941547385	 0.119787
H	-0.6845203487	 1.9683935566	 0.8252391978	 0.123014
H	-1.0291552485	-0.3430697252	-0.0407104806	 0.109109
H	 0.568140506	-0.3089033897	-2.1712243722	 0.110028
H	 2.5742613399	-1.7804220258	-1.3515115826	 0.121889
H	 0.2732380483	-0.2192199731	 3.3736371937	 0.148977
137.9757	180.7057	249.7648	309.3979	360.884	484.3079	547.9175	590.2492	656.5447	692.9261	730.2109	795.2249	820.8088	838.21	878.539	905.2341	955.63	966.1075	1015.0592	1077.1552	1095.966	1098.3903	1106.1928	1174.4018	1248.9675	1283.9608	1316.0452	1350.7592	1408.6368	1409.9172	1496.6591	1497.5304	1562.9621	1608.465	1679.1516	3009.4081	3039.404	3110.3907	3120.325	3201.0328	3239.1407	3262.8484
CC1C=CC2=NOC=C12	C[C@H]1C=Cc2nocc12	
InChI=1S/C7H7NO/c1-5-2-3-7-6(5)4-9-8-7/h2-5H,1H3	InChI=1S/C7H7NO/c1-5-2-3-7-6(5)4-9-8-7/h2-5H,1H3/t5-/m0/s1
