24
gdb 13135	3.43172	1.10879	0.93649	0.1266	85.55	-0.2789	0.0848	0.3637	1373.588	0.223309	-314.273274	-314.263744	-314.2628	-314.307538	35.597	
C	-0.3038021459	 1.559727538	-0.1480786317	-0.380401
C	-0.014054666	 0.0596796178	-0.0465366359	-0.165815
C	 0.6114493611	-0.5208073675	-1.3212728817	-0.170026
C	 0.8855386843	-2.0228095214	-1.2262149539	 0.000934
C	-0.3837802528	-2.9177895229	-1.3745783395	-0.221465
C	 0.01165761	-3.1953434005	-2.8483596736	-0.223213
C	 1.4493173093	-2.7056972255	-2.5216159116	 0.042489
C	 2.2151826109	-1.9006033004	-3.5616162584	-0.413035
H	 0.6123165151	 2.1276898882	-0.3457329534	 0.112197
H	-1.0048181829	 1.7735187025	-0.9628079798	 0.112055
H	-0.7419135148	 1.9470687634	 0.7772834146	 0.109416
H	 0.659888814	-0.1276974739	 0.800108239	 0.092703
H	-0.9432089441	-0.4771509553	 0.1834714443	 0.097383
H	-0.050094913	-0.3114021332	-2.1737183531	 0.088135
H	 1.5499861439	 0.0104926014	-1.5301168653	 0.090183
H	 1.4805963564	-2.2126439247	-0.3255587402	 0.055456
H	-0.3307123343	-3.8177428602	-0.7556020314	 0.095637
H	-1.3511595762	-2.4387523431	-1.198527909	 0.091129
H	-0.1025344865	-4.2156664665	-3.2238178671	 0.090083
H	-0.4966668684	-2.5181369769	-3.5425666156	 0.095521
H	 2.0576094435	-3.5659618062	-2.2182429891	 0.066749
H	 1.6450702456	-1.0304438921	-3.9027842302	 0.113013
H	 3.1726279367	-1.539214349	-3.1690616806	 0.110895
H	 2.4328022841	-2.5167134318	-4.4416092869	 0.109976
82.9064	106.4956	125.4844	135.2071	228.8834	250.1942	256.9404	317.7915	348.8467	428.9524	491.8019	637.1627	745.1114	752.7102	833.2847	869.7438	889.3276	893.0151	915.4479	940.2872	963.697	992.9264	1025.9336	1052.2011	1088.8475	1122.87	1131.0344	1164.8458	1189.4773	1224.5147	1250.0466	1260.4071	1265.0003	1273.9331	1301.8861	1309.6543	1334.6193	1371.7217	1376.2037	1398.0107	1408.3287	1411.8212	1478.9943	1482.8747	1492.8792	1495.9185	1497.8719	1499.7351	1502.9626	1510.6943	3000.93	3015.9356	3020.8169	3024.6168	3027.8221	3030.6135	3037.6768	3047.1793	3054.6425	3056.5882	3085.8092	3089.6893	3094.3443	3097.4412	3099.3579	3108.2523
CCCC1CCC1C	CCC[C@H]1CC[C@H]1C	
InChI=1S/C8H16/c1-3-4-8-6-5-7(8)2/h7-8H,3-6H2,1-2H3	InChI=1S/C8H16/c1-3-4-8-6-5-7(8)2/h7-8H,3-6H2,1-2H3/t7-,8+/m1/s1
