22
gdb 15714	3.12267	1.53674	1.15701	1.5944	77.68	-0.2374	0.0809	0.3184	1122.6006	0.200783	-350.222653	-350.213758	-350.212814	-350.256244	33.122	
C	-0.1480961136	 1.7201560071	 0.0923586593	-0.387124
C	-0.0274227445	 0.1968726739	 0.2116035571	-0.200242
C	-1.3387655256	-0.5401143278	-0.0750032824	 0.019012
C	-1.8668114164	-0.4509742803	-1.5170868179	-0.23761
C	-2.8822987481	-1.5933501401	-1.5362974337	-0.068823
O	-2.3540089782	-2.6070448289	-0.6868533612	-0.27736
C	-1.3262543105	-2.0734542506	 0.1616614806	 0.127052
C	-0.0136905448	-2.7902209584	-0.1526306909	-0.391289
H	 0.7992323462	 2.2104041379	 0.3370273183	 0.112719
H	-0.4250024851	 2.0231104267	-0.9225258213	 0.11866
H	-0.9112213906	 2.111398202	 0.7745960015	 0.114257
H	 0.7536005831	-0.1603583314	-0.4700855239	 0.09909
H	 0.3116447112	-0.0564773341	 1.2245613236	 0.096364
H	-2.1118904248	-0.1209504317	 0.5844430568	 0.072526
H	-2.3159296456	 0.5154001378	-1.7582505266	 0.100293
H	-1.0585928606	-0.6374021016	-2.2344198389	 0.101476
H	-3.8584816933	-1.25133704	-1.1569046416	 0.08694
H	-3.0422787833	-2.0220727607	-2.5315949836	 0.100018
H	-1.6032759342	-2.2938631862	 1.201901842	 0.070555
H	 0.3406949079	-2.5570453947	-1.1618589963	 0.112017
H	 0.7707082062	-2.5224924666	 0.5624337174	 0.109035
H	-0.1734252756	-3.8705046521	-0.0959712282	 0.122434
63.0474	102.8601	165.3302	189.6977	236.4848	262.0882	298.3628	369.7759	416.6275	472.4836	598.8602	698.3268	768.3708	795.771	859.897	874.0525	931.1686	958.0655	990.5763	1010.3239	1031.6418	1051.1987	1082.505	1099.6708	1142.4822	1171.8084	1184.5799	1201.9631	1237.6582	1285.0584	1314.8546	1319.8698	1327.3577	1362.6107	1386.1039	1393.3888	1403.1923	1409.3917	1413.6222	1482.5006	1488.4722	1491.5833	1499.1035	1500.3868	1508.3698	1529.2986	2973.6351	2991.7653	3010.3319	3018.7185	3031.6593	3036.0573	3038.9931	3057.4122	3061.5814	3099.0676	3101.984	3106.6962	3108.8428	3115.8006
CCC1CCOC1C	CC[C@H]1CCO[C@H]1C	
InChI=1S/C7H14O/c1-3-7-4-5-8-6(7)2/h6-7H,3-5H2,1-2H3	InChI=1S/C7H14O/c1-3-7-4-5-8-6(7)2/h6-7H,3-5H2,1-2H3/t6-,7-/m0/s1
