20
gdb 117056	3.1916	0.89027	0.74517	2.6736	77.86	-0.259	-0.058	0.201	1590.0653	0.168511	-440.319452	-440.309011	-440.308067	-440.355811	36.571	
C	-0.3391197933	 0.9796891107	-0.4419175884	-0.386881
C	-0.7321231687	-0.4876818286	-0.3571131094	-0.052903
O	-0.012816155	-1.2923225963	-1.3150395891	-0.251712
C	 1.2199093786	-1.7005688536	-0.973867464	 0.316546
N	 1.7872832556	-1.4160280989	 0.1223746251	-0.514603
C	 1.8668604776	-2.5647024629	-2.0616147277	 0.316275
O	 2.9756756032	-3.003095279	-1.8583690682	-0.303369
C	 1.0862050951	-2.8238282457	-3.3304676599	-0.277943
C	 1.8379302598	-3.6920876561	-4.3353985347	-0.386109
H	 0.7048718148	 1.1162725125	-0.1532153528	 0.150568
H	-0.4838162711	 1.3626284344	-1.4564379536	 0.121969
H	-0.9650127949	 1.5662072071	 0.2383329955	 0.121157
H	-0.5473279341	-0.8870799895	 0.6432806117	 0.137728
H	-1.7832072808	-0.6324590268	-0.6190471765	 0.111701
H	 2.7047213381	-1.8666821317	 0.1262209304	 0.24543
H	 0.1253741241	-3.2692840988	-3.0414516497	 0.137203
H	 0.8121383305	-1.8490750634	-3.7547613432	 0.136329
H	 2.7811435752	-3.224203356	-4.6291495805	 0.132498
H	 2.079752827	-4.6680067876	-3.9065505393	 0.132711
H	 1.2346194883	-3.8485812297	-5.2335655656	 0.113406
59.4114	69.5646	90.2577	115.9414	153.5809	202.3155	226.5745	282.1099	328.7827	387.3115	406.2952	453.5991	501.582	662.59	690.8158	775.8014	820.232	833.3612	883.2894	920.1658	988.8946	1026.4191	1050.976	1087.7314	1101.7338	1118.3586	1148.9403	1202.8045	1266.45	1332.8302	1360.3148	1379.5306	1404.4173	1415.7558	1430.5277	1438.1826	1485.4455	1488.6589	1494.3264	1498.0229	1509.2155	1715.4736	1805.4113	3034.5512	3046.4005	3052.1051	3057.949	3065.7458	3110.0788	3120.6267	3124.4753	3126.3882	3144.8162	3470.4952
CCOC(=N)C(=O)CC	CCO[C]([NH])C(=O)CC	
InChI=1S/C6H11NO2/c1-3-5(8)6(7)9-4-2/h7H,3-4H2,1-2H3	InChI=1S/C6H11NO2/c1-3-5(8)6(7)9-4-2/h7H,3-4H2,1-2H3
