21
gdb 120575	4.04171	0.73108	0.70058	1.0657	87.47	-0.2381	0.0367	0.2748	1711.6529	0.179196	-387.045261	-387.034767	-387.033823	-387.08097	38.76	
C	 0.0980435625	 1.579104368	-0.0178252972	-0.379933
C	 0.2437396407	 0.0553225689	-0.0379482412	-0.16019
C	 0.4623015805	-0.5396786625	 1.359933995	-0.194531
C	 0.5943783449	-2.0481873643	 1.3361974346	-0.045432
C	 1.9155849105	-2.7130420732	 1.0308192892	-0.343684
C	 1.3331786051	-2.780271361	 2.4368819826	 0.178426
O	 1.905229486	-1.9549904958	 3.4188557096	-0.447985
C	 0.8214945652	-4.037166959	 2.920411664	 0.303376
C	 0.422991932	-5.0918267068	 3.3408088125	-0.470503
H	 0.9934576915	 2.0566077647	 0.3954813359	 0.114267
H	-0.0582325696	 1.9790280893	-1.0245946822	 0.110331
H	-0.7532894576	 1.8876248739	 0.5991643263	 0.114575
H	-0.6515298461	-0.3932700706	-0.4885145827	 0.093335
H	 1.0829714246	-0.2284807986	-0.6857020961	 0.097086
H	 1.3563245225	-0.1038339142	 1.8170075604	 0.111187
H	-0.3780391693	-0.2614399741	 2.009643113	 0.100244
H	-0.2833980348	-2.5738204267	 0.969913457	 0.09937
H	 1.9340225585	-3.6172780403	 0.4336046389	 0.120389
H	 2.7814974753	-2.0670248248	 0.9267362129	 0.117185
H	 2.6591735186	-2.4259726221	 3.7909371449	 0.287363
H	 0.0573767487	-6.0166584308	 3.7128884028	 0.195124
62.8682	80.8012	101.3724	146.7721	188.524	245.077	262.9873	294.1178	307.8353	364.6286	421.8861	484.8504	554.069	573.6274	603.2371	673.565	699.8674	745.7881	842.9981	856.782	895.3131	903.0881	922.8443	977.6972	1041.1162	1052.0973	1082.7767	1088.7566	1135.1515	1194.1622	1235.4604	1246.2363	1275.4915	1302.8422	1328.8125	1346.7563	1388.7681	1410.5204	1419.6746	1475.9074	1485.5817	1495.2879	1499.1957	1511.4744	2229.5257	3015.7469	3024.3272	3029.5987	3047.0211	3082.7678	3097.1664	3101.3183	3130.6551	3145.8452	3225.9138	3502.0864	3799.4954
CCCC1CC1(O)C#C	CCC[C@H]1C[C@]1(O)C#C	
InChI=1S/C8H12O/c1-3-5-7-6-8(7,9)4-2/h2,7,9H,3,5-6H2,1H3	InChI=1S/C8H12O/c1-3-5-7-6-8(7,9)4-2/h2,7,9H,3,5-6H2,1H3/t7-,8+/m0/s1
