15
gdb 52022	3.15661	0.95553	0.76657	3.6101	73.9	-0.2766	0.0029	0.2795	1404.7305	0.108571	-420.56843	-420.558844	-420.557899	-420.603692	33.53	
O	 0.4202064013	 0.1042837084	 0.5411387809	-0.269485
C	 0.4607519929	 1.2928516592	 0.6169941016	 0.177798
O	 0.7897182355	 2.075250004	-0.4382881632	-0.177521
C	 0.8655465253	 3.478251349	-0.2310768662	-0.093559
C	 2.3456988529	 3.9300062845	-0.1011292799	-0.345939
C	 2.4104874406	 5.3931215447	-0.0962524077	 0.319131
C	 2.4184660706	 6.5935609018	-0.1049759942	-0.435448
C	 2.9725948364	 3.3429641568	 1.0857135234	 0.330837
C	 3.456753639	 2.8374358054	 2.0613868047	-0.44483
H	 0.2242953665	 1.8788943729	 1.5243021497	 0.088048
H	 0.4197978664	 3.9584493588	-1.1043109408	 0.141296
H	 0.3084578631	 3.7784564241	 0.6632495103	 0.132165
H	 2.8666121604	 3.5533854456	-0.9923851623	 0.157163
H	 2.4451918339	 7.6555229451	-0.1092685215	 0.208416
H	 3.9008361751	 2.3946405197	 2.9189953252	 0.211929
60.3152	64.9606	128.4184	148.7353	174.4445	200.2016	337.0117	347.8029	378.0871	456.6082	552.7106	559.2115	646.9686	651.2472	666.6157	670.0179	680.2992	831.5219	980.5261	1032.0869	1043.6471	1067.5831	1079.149	1152.1083	1264.7619	1293.4088	1342.8367	1393.3614	1428.625	1498.1521	1873.4276	2242.0528	2247.4387	2968.9668	3017.241	3050.5435	3122.6844	3500.8513	3502.4967
O=COCC(C#C)C#C	O=COCC(C#C)C#C	
InChI=1S/C7H6O2/c1-3-7(4-2)5-9-6-8/h1-2,6-7H,5H2	InChI=1S/C7H6O2/c1-3-7(4-2)5-9-6-8/h1-2,6-7H,5H2
