18
gdb 35749	3.96129	1.04404	0.95174	3.1398	76.58	-0.2546	0.0293	0.2839	1254.9752	0.148702	-401.953955	-401.945853	-401.944909	-401.987862	30.648	
N	 0.0074958254	-1.1514020415	 0.0578882046	-0.323406
C	-0.0009716496	 0.0039039272	 0.0180957553	 0.26191
C	-0.0155230879	 1.4600146693	-0.0132691109	-0.143917
C	-0.5450646808	 2.103124079	 1.2988977156	-0.112804
O	 0.0198415579	 3.3974634267	 1.2917086158	-0.272594
C	 1.3608418281	 3.2324297754	 0.8829907931	 0.457295
C	 2.2044136333	 4.4581065863	 0.8547302493	-0.342628
C	 2.4387659754	 3.3990942747	 1.9223389497	-0.324535
C	 1.3928012378	 2.1162354847	-0.164365744	-0.331898
H	-0.6564113559	 1.7778195206	-0.8405631512	 0.134982
H	-1.631852139	 2.1966582262	 1.3249906421	 0.12737
H	-0.2096701977	 1.5192624222	 2.1684443181	 0.115009
H	 2.9322601319	 4.5626544865	 0.057105277	 0.119607
H	 1.7334926921	 5.3836987541	 1.1660588396	 0.131628
H	 2.1173431905	 3.6358257142	 2.9303264713	 0.12655
H	 3.330287315	 2.7842243485	 1.855108566	 0.116967
H	 2.1921983314	 1.3986255408	 0.0289438944	 0.134072
H	 1.5246844522	 2.5039071553	-1.1772252558	 0.126391
18.972	151.7063	170.2404	263.1013	292.1778	323.4968	450.2793	475.3409	545.177	575.5867	589.7582	764.7191	778.1234	835.3681	870.4726	900.908	925.1427	966.3066	989.756	1030.404	1047.6029	1059.2432	1079.0987	1089.5013	1102.1268	1188.9167	1198.398	1237.7803	1244.2163	1287.3653	1304.7452	1331.2709	1366.9475	1393.736	1452.2839	1496.6892	1497.6341	1515.4717	2358.1513	3002.8682	3068.4766	3074.4293	3121.0007	3123.0813	3130.6189	3135.4724	3217.4604	3231.212
N#CC1COC2(CC2)C1	N#C[C@H]1COC2(CC2)C1	
InChI=1S/C7H9NO/c8-4-6-3-7(1-2-7)9-5-6/h6H,1-3,5H2	InChI=1S/C7H9NO/c8-4-6-3-7(1-2-7)9-5-6/h6H,1-3,5H2/t6-/m0/s1
