20
gdb 85234	2.64604	1.53131	1.12443	3.7149	79.57	-0.2353	0.0326	0.2678	1144.8093	0.171592	-403.197587	-403.18878	-403.187836	-403.230626	33.911	
C	-0.1784622872	 1.6035273103	 0.0455185588	-0.392322
C	 0.0556150077	 0.0930761091	 0.0086855088	 0.028531
N	 0.89269163	-0.3271852907	-1.1103830686	-0.330241
C	 1.8230892971	-1.2957654953	-0.8182780281	 0.372104
O	 2.4614177728	-1.9388431851	-1.624156684	-0.389965
C	 1.8928294958	-1.4066286447	 0.689026832	 0.216234
C	 2.2842374012	-2.7400045931	 1.2700940918	-0.482314
C	 2.2648208969	-0.0939093815	 1.3535604434	-0.324636
C	 0.8171777637	-0.4755621814	 1.2080856569	-0.094486
H	 0.7668027746	 2.1460494119	 0.1328812051	 0.125742
H	-0.687041343	 1.9443086532	-0.8626621575	 0.114591
H	-0.8108317524	 1.8666437543	 0.8992538085	 0.121539
H	-0.9243471484	-0.4064979051	-0.0475118675	 0.082391
H	 0.6531732331	-0.1369709851	-2.0706601372	 0.246105
H	 3.2571066165	-3.0479885315	 0.8757730276	 0.143181
H	 2.3510384983	-2.6910894503	 2.3609406057	 0.109794
H	 1.5608550865	-3.5186667903	 1.0065745916	 0.123402
H	 2.6919476832	-0.1654781374	 2.3485401532	 0.11588
H	 2.6740504597	 0.705520038	 0.7447736115	 0.122821
H	 0.2461858138	-0.7154060652	 2.0973143781	 0.091649
110.0863	147.9334	172.1269	224.8255	231.7952	283.0171	295.6359	392.5385	475.7941	488.1995	519.1015	582.0654	688.8678	699.1551	778.8561	798.1075	849.641	894.0771	947.1479	977.9535	984.2171	1025.5624	1050.8909	1075.3886	1095.7945	1120.9281	1128.8587	1166.0876	1202.8751	1270.5446	1327.8501	1333.1793	1382.5889	1404.065	1411.2966	1422.1312	1429.2127	1483.4978	1488.9335	1492.7349	1499.1949	1499.6636	1821.7787	2971.2143	3036.6405	3037.1881	3102.3701	3102.9949	3115.0017	3120.9387	3127.4214	3179.3628	3213.6961	3639.2012
CC1NC(=O)C2(C)CC12	C[C@H]1NC(=O)[C@@]2(C)C[C@@H]12	
InChI=1S/C7H11NO/c1-4-5-3-7(5,2)6(9)8-4/h4-5H,3H2,1-2H3,(H,8,9)	InChI=1S/C7H11NO/c1-4-5-3-7(5,2)6(9)8-4/h4-5H,3H2,1-2H3,(H,8,9)/t4-,5+,7+/m1/s1
