21
gdb 101880	5.31344	0.58406	0.55241	0.3859	82.97	-0.2528	0.031	0.2838	2016.9864	0.177801	-424.16701	-424.155713	-424.154769	-424.204761	38.862	
C	 0.905038618	 1.5936347182	 1.1558911013	-0.23457
O	 0.8834552487	 0.4798296252	 0.2947589591	-0.249992
C	 0.2087885723	-0.6578080829	 0.8106652241	 0.11643
C	-1.3123315414	-0.5080492618	 0.7930872832	-0.401304
C	 0.6810930459	-1.8196199829	-0.0616328161	-0.059894
O	 0.1345450782	-3.015709234	 0.4549772188	-0.24896
C	 0.5013185498	-4.149820378	-0.3045800048	-0.201386
C	-0.0890872341	-5.3502854432	 0.2728250283	 0.277765
C	-0.5627961363	-6.3555978645	 0.7273893233	-0.412928
H	 1.3371353385	 1.3403262957	 2.1369265701	 0.103732
H	 1.5319715513	 2.3532952579	 0.6820230749	 0.126584
H	-0.0940249168	 2.022125449	 1.3206828408	 0.108377
H	 0.5446093812	-0.8520346028	 1.8429276492	 0.074863
H	-1.6507976937	 0.2725189406	 1.4798709029	 0.112921
H	-1.6522664381	-0.2523472943	-0.2160768716	 0.11754
H	-1.7767461483	-1.451089258	 1.0911884413	 0.140141
H	 0.3576459251	-1.6550274564	-1.1030898966	 0.094526
H	 1.7815212	-1.8520204771	-0.0562231113	 0.095874
H	 0.1676296668	-4.0379007848	-1.3505831601	 0.119878
H	 1.5995075183	-4.2545241383	-0.3352815319	 0.11984
H	-0.9844707256	-7.2411854876	 1.1343817751	 0.200565
37.5059	71.1373	80.3933	94.4342	127.466	184.2795	201.4023	233.7483	302.5717	319.6442	335.0627	370.4839	457.3069	525.1478	573.0656	608.1387	676.9785	841.045	925.6991	934.4788	977.9793	1022.2056	1032.5313	1093.8924	1132.9178	1150.8768	1160.1611	1179.7195	1186.5298	1226.5902	1252.2368	1259.3108	1337.5649	1379.5153	1389.3226	1401.3064	1442.7555	1478.1879	1483.7614	1493.188	1498.5853	1502.2496	1513.3832	1524.2168	2248.5433	2951.6416	2963.8172	2970.8405	2971.3943	2978.3751	3009.6353	3027.6208	3042.9845	3109.8288	3113.4565	3131.733	3506.5547
COC(C)COCC#C	CO[C@@H](C)COCC#C	
InChI=1S/C7H12O2/c1-4-5-9-6-7(2)8-3/h1,7H,5-6H2,2-3H3	InChI=1S/C7H12O2/c1-4-5-9-6-7(2)8-3/h1,7H,5-6H2,2-3H3/t7-/m0/s1
