17
gdb 67237	3.01001	1.34278	1.12582	4.2479	73.04	-0.2371	-0.0157	0.2214	1096.5254	0.135521	-421.772932	-421.765267	-421.764323	-421.805235	29.773	
O	-0.0906978908	 1.4625862913	-0.0893499094	-0.454002
C	 0.0351861288	 0.1033683483	-0.0317571363	 0.377311
C	 0.0521904869	-0.9995194616	-1.0584981923	-0.162445
C	 1.2714254701	-1.6601985347	-0.4262258327	-0.233881
C	 0.8976346956	-0.89996083	 0.8747376306	-0.154913
C	-0.4515370726	-1.5663138339	 1.316751681	-0.088061
C	-0.9996671186	-0.9233486663	 2.5602529249	 0.154786
O	-1.406790972	-1.5239639139	 3.5230127261	-0.267161
C	-1.0420201745	-0.9346686775	 0.0515841142	-0.121358
H	 0.6657416579	 1.8268718966	-0.5636029233	 0.294124
H	-0.246817551	-0.9576221238	-2.0978841142	 0.09682
H	 1.305551524	-2.753064455	-0.3666980303	 0.101197
H	 2.2039339021	-1.2863526434	-0.8587456625	 0.100599
H	 1.6507486778	-0.6397134202	 1.6154616257	 0.086007
H	-0.4594300095	-2.6546627716	 1.4244717213	 0.08315
H	-1.0003883015	 0.1909771325	 2.5319699697	 0.084397
H	-2.0848080127	-0.830093787	-0.2178104426	 0.10343
90.4662	117.2717	276.2704	289.871	322.0421	371.5435	411.8718	465.3264	511.3234	623.5394	726.3637	757.6893	815.7947	875.9645	903.3301	919.5797	958.7366	977.4548	998.0691	1020.5078	1037.2536	1068.8211	1089.0918	1109.0559	1121.4896	1155.0636	1199.6415	1209.7482	1232.2774	1265.2241	1276.1843	1296.3788	1327.2911	1432.2956	1485.7164	1502.2315	1825.9591	2867.9651	3043.0257	3075.8311	3098.7341	3141.175	3200.5021	3209.6869	3783.2685
OC12C3CC1C(C=O)C23	O[C@@]12[C@H]3C[C@@H]1[C@@H](C=O)[C@@H]23	
InChI=1S/C7H8O2/c8-2-3-4-1-5-6(3)7(4,5)9/h2-6,9H,1H2	InChI=1S/C7H8O2/c8-2-3-4-1-5-6(3)7(4,5)9/h2-6,9H,1H2/t3-,4-,5+,6-,7-/m1/s1
