18
gdb 125818	3.10112	0.98399	0.79544	2.8977	73.86	-0.2524	-0.0036	0.2488	1414.8892	0.146821	-439.083161	-439.073896	-439.072952	-439.118249	32.733	
C	-0.0476719195	 1.4976784726	-0.0117409848	-0.502509
C	-0.0166136768	 0.0028194892	 0.0152561824	 0.323729
N	 0.0008804023	-0.672885002	-1.1095001449	-0.200639
O	 0.0443601	-2.0166864628	-0.7476862685	-0.16934
C	 0.0534970864	-2.0986809261	 0.5899077747	-0.002616
C	 0.0156021423	-0.865083373	 1.1576256064	 0.061715
C	-0.0062290522	-0.4953482363	 2.6087769128	-0.316281
C	-1.4203915483	-0.2411110299	 3.1382160744	-0.063139
O	-1.3024717267	 0.1310363018	 4.5002204455	-0.415668
H	 0.8073172718	 1.9172232823	 0.5291076925	 0.13914
H	-0.0156878684	 1.8523816503	-1.0434791087	 0.152481
H	-0.9552922761	 1.8858174763	 0.4622484783	 0.137361
H	 0.0963709331	-3.0964622238	 1.0003758712	 0.147213
H	 0.4476147931	-1.2882860308	 3.2119202852	 0.118367
H	 0.5891592439	 0.4081857142	 2.7822811001	 0.117908
H	-1.9048800173	 0.5503819679	 2.5441172212	 0.091075
H	-2.0245431303	-1.1537767565	 3.0159229573	 0.092202
H	-2.1847685071	 0.2833561766	 4.8507916749	 0.289001
47.8945	86.3063	114.8929	138.4228	234.2995	256.5752	263.0854	345.2785	388.4396	412.6686	618.5577	656.8942	700.3356	763.8797	799.1008	850.8904	909.5469	944.8693	1007.0376	1025.2809	1060.2608	1067.864	1082.473	1156.6225	1195.0639	1225.5982	1239.727	1291.8035	1313.2108	1341.9761	1404.7129	1434.352	1454.4042	1478.3577	1482.0667	1490.2019	1525.0142	1526.5342	1652.7141	2968.1844	2996.7444	3040.268	3043.2546	3087.8175	3094.5369	3140.0008	3256.3163	3832.7734
CC1=NOC=C1CCO	Cc1nocc1CCO	
InChI=1S/C6H9NO2/c1-5-6(2-3-8)4-9-7-5/h4,8H,2-3H2,1H3	InChI=1S/C6H9NO2/c1-5-6(2-3-8)4-9-7-5/h4,8H,2-3H2,1H3
