13
gdb 127713	3.32092	1.54032	1.05924	3.9524	66.42	-0.2822	-0.0997	0.1825	1037.8766	0.088863	-486.056858	-486.049174	-486.04823	-486.08969	27.353	
C	 0.0894910844	 1.4443082066	 0.0093657247	-0.311512
N	-0.0168676807	-0.0109669142	 0.0501567305	-0.05409
N	-0.2129692144	-0.6250307206	-1.1198242134	-0.020562
N	-0.3195112271	-1.883133853	-1.2004664311	-0.264333
C	-0.2320587837	-2.6798135136	-0.0367719115	 0.481203
O	-0.3237424126	-3.8644974405	-0.0431491979	-0.292253
O	-0.0273653152	-2.0299841332	 1.1802407164	-0.243942
C	 0.0878641862	-0.6761620331	 1.2707320921	 0.503619
N	 0.2732457421	-0.0403247729	 2.3420313086	-0.544416
H	 1.0600789248	 1.7565268053	 0.3997741364	 0.16553
H	-0.0221566111	 1.7389005221	-1.0329832468	 0.164171
H	-0.6932322479	 1.890853911	 0.6256682748	 0.165599
H	 0.3260112053	-0.6751070739	 3.1369126673	 0.250986
72.7964	104.7137	158.0011	224.0192	329.3533	390.4855	447.2789	506.8831	542.5472	606.2334	712.2764	721.0483	791.6086	828.6105	839.3921	932.7288	973.2748	1095.677	1119.9537	1158.8174	1227.7884	1320.2654	1375.3136	1443.739	1472.329	1508.0864	1543.5049	1755.8745	1889.8067	3068.0666	3140.8522	3180.4475	3524.4134
CN1N=NC(=O)OC1=N	CN1N=NC(=O)O[C]1[NH]	
InChI=1S/C3H4N4O2/c1-7-2(4)9-3(8)5-6-7/h4H,1H3	InChI=1S/C3H4N4O2/c1-7-2(4)9-3(8)5-6-7/h4H,1H3
