20
gdb 120231	3.19605	1.00226	0.85525	3.7201	78.98	-0.2438	-0.0114	0.2324	1419.6079	0.170423	-403.135425	-403.126379	-403.125435	-403.169872	33.257	
C	-0.0312588494	 1.5900358144	 0.0658952813	-0.384595
C	 0.0913559056	 0.0656437941	 0.0129703636	-0.166077
C	 0.6164994679	-0.4433108398	-1.3369434839	-0.20539
C	 0.7745692393	-1.962388788	-1.3636933918	-0.133351
C	 1.4215302175	-2.6907763565	-2.5471701416	-0.058726
C	 2.8660517963	-2.4393059333	-2.6364045454	-0.246113
N	 2.3955476664	-3.445920827	-1.6328361999	-0.172342
C	 1.8771249551	-2.6475868727	-0.5296817678	 0.392684
O	 2.2099869928	-2.6453266619	 0.614361448	-0.300094
H	 0.9402213021	 2.0714619783	-0.0922171527	 0.115706
H	-0.7140728913	 1.9626492007	-0.7061562025	 0.112441
H	-0.412165656	 1.9233508202	 1.0359532624	 0.116896
H	 0.7563103154	-0.2865240727	 0.8095586605	 0.129789
H	-0.8879035581	-0.3900545099	 0.2109587553	 0.095885
H	-0.068217142	-0.1427296399	-2.1411998066	 0.101313
H	 1.5778655686	 0.0368008258	-1.5579680362	 0.098369
H	-0.179253492	-2.4403488267	-1.1059651599	 0.114967
H	 0.8798675201	-3.2381740069	-3.3090705762	 0.112455
H	 3.4205070345	-2.9007184805	-3.4468916617	 0.141027
H	 3.2912784872	-1.5067870379	-2.2748393249	 0.135153
74.9937	82.1219	104.4079	182.8957	225.1473	246.5606	288.0279	363.5903	492.1797	493.9711	660.6274	714.1156	740.9531	752.5645	791.6039	839.3477	894.9325	908.1783	958.468	999.2975	1018.186	1049.2757	1054.3898	1087.3398	1118.3632	1123.0438	1144.8837	1161.3924	1206.4681	1236.741	1263.6422	1301.9611	1332.8418	1358.9056	1366.1688	1394.9679	1412.3065	1485.6519	1494.761	1499.2002	1508.6543	1512.8107	1908.9529	3014.7132	3023.1952	3029.186	3035.4531	3053.6033	3072.0474	3097.7078	3104.6455	3119.6248	3191.2706	3210.9089
CCCC1C2CN2C1=O	CCC[C@H]1[C@H]2CN2C1=O	
InChI=1S/C7H11NO/c1-2-3-5-6-4-8(6)7(5)9/h5-6H,2-4H2,1H3	InChI=1S/C7H11NO/c1-2-3-5-6-4-8(6)7(5)9/h5-6H,2-4H2,1H3/t5-,6+,8?/m0/s1
