15
gdb 31438	3.90019	1.12055	0.88853	2.9634	71.12	-0.2485	-0.0537	0.1948	1226.2378	0.114876	-454.011413	-454.003759	-454.002815	-454.044189	28.371	
O	 0.0524441233	 1.4336151935	 0.3806430145	-0.414475
C	 0.0275953396	 0.0981046298	-0.0603784621	-0.131739
C	-1.3784781665	-0.4643435644	-0.0964425949	 0.315595
C	-1.7990775119	-1.371985569	-1.0189615875	-0.303993
C	-3.1406487327	-1.9112517282	-0.9782301608	 0.437969
O	-3.6556462571	-2.7229258883	-1.7198582015	-0.381176
N	-3.8843333083	-1.3581152195	 0.1000253528	-0.340566
C	-3.3893510106	-0.4500645988	 0.9684819686	 0.108684
N	-2.180906282	 0.0137176795	 0.9199254192	-0.350203
H	-0.6330999829	 1.4951768011	 1.0604676323	 0.293438
H	 0.4759257559	 0.0580020764	-1.0580379001	 0.120041
H	 0.6335525858	-0.5546876348	 0.5942409882	 0.107825
H	-1.1518117706	-1.7200356293	-1.8146652651	 0.120682
H	-4.837669722	-1.6866996937	 0.1831433989	 0.272401
H	-4.0690760399	-0.1071688343	 1.7449261575	 0.145519
56.8734	157.0205	177.708	240.4491	358.0938	429.5881	438.4487	472.1689	550.7946	569.757	678.5463	742.2838	772.9357	790.3359	888.9255	901.0507	966.1747	990.4635	1022.682	1089.6303	1157.15	1173.7997	1212.8696	1236.1601	1343.6359	1358.2438	1429.3011	1448.2518	1472.4495	1498.8457	1592.6134	1665.7661	1809.1287	2938.959	3076.5436	3166.2661	3211.8095	3595.2364	3743.6435
OCC1=CC(=O)NC=N1	OCc1cc(=O)[nH]cn1	
InChI=1S/C5H6N2O2/c8-2-4-1-5(9)7-3-6-4/h1,3,8H,2H2,(H,6,7,9)	InChI=1S/C5H6N2O2/c8-2-4-1-5(9)7-3-6-4/h1,3,8H,2H2,(H,6,7,9)
