18
gdb 65630	3.29076	1.28005	1.161	3.352	75.82	-0.2834	0.0104	0.2938	1109.0467	0.147876	-401.931851	-401.923614	-401.922669	-401.964769	31.591	
O	-0.0837020416	 1.3176103781	 0.1164947144	-0.455909
C	 0.0194850843	-0.0842934161	 0.0344660607	 0.265266
C	 0.3428787817	-0.8884044643	 1.3459738109	-0.30886
C	-0.9323067769	-1.7531459713	 1.1355870186	-0.004414
C	-2.1616354555	-1.287742057	 1.9488412549	-0.223034
C	-2.4514417149	-0.1975023055	 0.8713615499	-0.246707
C	-1.3526620287	-0.807102765	-0.0464825849	-0.0537
C	 0.9083074762	-0.4710057075	-1.0727861194	 0.227467
N	 1.626641041	-0.762221615	-1.9309369947	-0.338674
H	 0.8021701138	 1.6926585029	 0.1786144222	 0.293877
H	 1.2936666234	-1.4231525213	 1.3345505243	 0.12374
H	 0.304110719	-0.2416775343	 2.2267132997	 0.112956
H	-0.763175842	-2.821820408	 1.0094175404	 0.078073
H	-2.9457858965	-2.0479753151	 1.9915449123	 0.105808
H	-1.9643069871	-0.9413975868	 2.967697174	 0.099748
H	-3.4536689681	-0.2340178036	 0.4413223598	 0.108184
H	-2.2456761783	 0.8292478055	 1.1762151108	 0.128166
H	-1.6652418996	-1.1527373458	-1.0307144939	 0.088013
64.2051	141.222	173.2049	253.9973	278.6043	339.3294	383.5437	434.3209	495.1968	568.7038	645.3283	731.4684	739.2281	766.9865	837.0448	864.0956	897.7168	935.3479	955.6332	966.1621	1019.4883	1042.1021	1091.1675	1116.4464	1148.0695	1153.5869	1207.7528	1234.0145	1243.8757	1249.8793	1268.4498	1288.071	1298.3636	1315.8586	1358.5742	1468.7581	1480.2545	1497.7388	2345.3163	3052.6262	3064.399	3083.597	3099.4319	3112.2019	3121.7445	3132.4264	3141.0053	3803.3256
OC1(CC2CCC12)C#N	O[C@]1(C[C@H]2CC[C@@H]12)C#N	
InChI=1S/C7H9NO/c8-4-7(9)3-5-1-2-6(5)7/h5-6,9H,1-3H2	InChI=1S/C7H9NO/c8-4-7(9)3-5-1-2-6(5)7/h5-6,9H,1-3H2/t5-,6-,7-/m1/s1
