22
gdb 16663	3.05029	1.95537	1.44352	0.296	80.35	-0.2572	0.0765	0.3337	972.4324	0.202126	-313.07458	-313.06665	-313.065705	-313.106339	31.971	
C	-0.0133394563	 1.5688057181	-0.0938292735	-0.413089
C	 0.0992574273	 0.0473065815	-0.00847556	 0.056586
C	 0.8018630856	-0.6151334227	-1.2196003824	-0.240313
C	 1.2335186037	-1.9938337458	-0.7181870124	-0.029489
C	 2.5544769148	-2.0732754195	-0.0005986602	-0.283157
C	 1.2791924693	-1.9292438366	 0.796304649	-0.034489
C	 0.8169469581	-0.5351613176	 1.2545286484	-0.010554
C	 1.9353211153	 0.3425789753	 1.8342702464	-0.394809
H	 0.9704275084	 2.0458463208	-0.1554344364	 0.114545
H	-0.5774130657	 1.8654378056	-0.9848089489	 0.109191
H	-0.5322145489	 1.9848699761	 0.7768047292	 0.10991
H	-0.918813805	-0.3639523249	 0.0153619351	 0.069695
H	 0.1309911814	-0.6831914714	-2.0814414219	 0.093967
H	 1.6660740127	-0.0198460814	-1.543291547	 0.091152
H	 0.8657898014	-2.8756621466	-1.2309297394	 0.076749
H	 3.0543883471	-3.0357602804	 0.040863759	 0.103121
H	 3.2339924901	-1.230774991	-0.0818464725	 0.104765
H	 0.9736775326	-2.7824117939	 1.3926019933	 0.076193
H	 0.0718590971	-0.665716683	 2.0480418944	 0.066413
H	 2.6958040977	 0.598195035	 1.0896240911	 0.11252
H	 1.5370786093	 1.2820219083	 2.230143641	 0.109618
H	 2.4416365939	-0.1769881761	 2.6540805379	 0.111472
84.5662	225.457	245.3077	276.946	287.5448	320.701	376.1297	444.9719	497.0103	603.4762	659.6964	727.9046	782.1048	813.4776	875.5243	885.9273	916.2336	944.2752	980.167	985.3689	1030.7994	1056.4558	1062.1107	1074.1493	1089.9622	1109.6447	1123.3514	1167.3589	1182.5925	1204.2159	1229.4024	1291.5925	1299.9215	1329.7179	1355.0428	1365.314	1372.1845	1385.3204	1410.4567	1417.3427	1480.7924	1492.2794	1496.2156	1500.2611	1507.9916	1514.2888	3001.5173	3019.2247	3028.5399	3031.015	3036.8288	3076.4683	3090.6266	3099.3267	3103.1292	3104.394	3123.1519	3155.5361	3166.6634	3204.93
CC1CC2CC2C1C	C[C@H]1C[C@H]2C[C@H]2[C@H]1C	
InChI=1S/C8H14/c1-5-3-7-4-8(7)6(5)2/h5-8H,3-4H2,1-2H3	InChI=1S/C8H14/c1-5-3-7-4-8(7)6(5)2/h5-8H,3-4H2,1-2H3/t5-,6-,7-,8-/m0/s1
