17
gdb 46804	3.03468	1.65266	1.30935	5.6004	68.33	-0.2714	0.0339	0.3054	978.6689	0.137782	-458.985023	-458.977872	-458.976927	-459.016995	27.746	
O	-0.0554727014	 0.2870263422	 1.007071459	-0.345545
C	-0.0389223679	 1.1657063836	 0.1980501603	 0.454391
O	-1.1763595512	 1.8405104443	-0.1049621271	-0.262331
C	-1.5821857043	 2.3386521372	-1.3901912212	-0.078516
C	-0.5484613263	 3.1906556349	-2.1152989541	-0.037054
C	 0.6491395055	 2.3520985965	-2.635697651	-0.247298
C	 1.3371668444	 2.6202865077	-1.2794162526	 0.141636
C	 0.4257399971	 3.8605107304	-1.1045120687	-0.259647
O	 1.136172189	 1.5559945286	-0.344195599	-0.268285
H	-1.8985239938	 1.4915874888	-2.0126180187	 0.120882
H	-2.4677166139	 2.9342709025	-1.1548418697	 0.129938
H	-1.0589836885	 3.8304548341	-2.8395149135	 0.081899
H	 0.4760803063	 1.3045979673	-2.8971661374	 0.113809
H	 1.1760240492	 2.8477933954	-3.454704726	 0.112879
H	 2.4164247277	 2.7713848766	-1.2656402449	 0.101177
H	 0.9091930881	 4.7449044973	-1.5257613969	 0.114363
H	 0.0610166201	 4.0864114325	-0.1017108486	 0.1277
67.7311	134.3938	299.5842	317.5314	368.5625	418.0205	477.754	555.8672	692.2063	720.8323	780.0135	792.9155	825.9194	881.1394	903.8445	913.4368	952.9914	991.584	1045.4785	1084.5672	1110.588	1118.2797	1126.0356	1164.1602	1173.5013	1225.5382	1254.1945	1267.9681	1283.2767	1316.3285	1356.3468	1400.8551	1424.2902	1462.9655	1488.6346	1504.7818	1862.8777	3026.3393	3059.9127	3072.738	3081.4741	3100.3419	3113.6725	3121.0271	3138.6021
O=C1OCC2CC(C2)O1	O=C1OC[C@@H]2C[C@@H](C2)O1	
InChI=1S/C6H8O3/c7-6-8-3-4-1-5(2-4)9-6/h4-5H,1-3H2	InChI=1S/C6H8O3/c7-6-8-3-4-1-5(2-4)9-6/h4-5H,1-3H2/t4-,5+
