18
gdb 111450	3.04409	1.49576	1.20597	2.2836	70.	-0.2356	0.0616	0.2973	1043.5018	0.148838	-439.029834	-439.022301	-439.021357	-439.061893	29.668	
O	 0.1298033427	 1.3874286483	 0.0089419711	-0.425531
C	 0.0936011226	-0.0234355888	-0.0887529946	-0.057804
C	-1.3369349697	-0.5510833336	-0.0052961266	-0.022891
C	-1.5185642634	-2.0533378669	-0.1696280835	 0.013202
O	-0.9245006503	-2.8489225451	 0.8653536336	-0.252898
C	-2.3227085643	-2.5376485156	 0.962241231	 0.024966
C	-2.6300248952	-1.3574921441	 1.8557152034	-0.056292
C	-1.4633093428	-0.7327870118	 2.529548876	-0.254806
N	-1.9898880845	-0.1570055811	 1.2761721411	-0.13513
H	-0.4379137559	 1.6281447586	 0.7502230994	 0.29397
H	 0.5282371251	-0.2831992444	-1.0601848591	 0.108908
H	 0.7108457085	-0.5025430079	 0.6859399811	 0.099196
H	-1.9180581304	-0.0611223686	-0.798248258	 0.097351
H	-1.5299356279	-2.5033884226	-1.160515959	 0.103239
H	-3.0009542396	-3.3836478262	 0.9067194625	 0.105402
H	-3.6422810773	-1.2568616517	 2.2363474309	 0.096332
H	-1.6174685108	-0.0983234499	 3.3979459567	 0.116467
H	-0.5375461168	-1.2962829986	 2.5158194938	 0.146321
99.9727	135.8075	215.7792	302.664	353.6297	382.4332	444.7976	531.8507	554.7511	697.9468	719.8129	753.354	811.8475	845.9066	871.4592	887.6171	957.4893	963.2631	1011.4641	1048.1565	1072.0633	1082.0411	1096.9046	1097.9556	1117.3518	1130.09	1156.0763	1221.9725	1253.2802	1265.7809	1301.7893	1327.1335	1335.2853	1364.6335	1383.3573	1421.2425	1436.8809	1491.5945	1510.9214	2994.7074	3022.8477	3069.5287	3119.4807	3132.6998	3150.5009	3169.2105	3219.9011	3797.0934
OCC1C2OC2C2CN12	OC[C@H]1[C@H]2O[C@H]2[C@H]2CN12	
InChI=1S/C6H9NO2/c8-2-4-6-5(9-6)3-1-7(3)4/h3-6,8H,1-2H2	InChI=1S/C6H9NO2/c8-2-4-6-5(9-6)3-1-7(3)4/h3-6,8H,1-2H2/t3-,4+,5+,6-,7?/m1/s1
