21
gdb 42071	2.05112	1.7892	1.09756	1.7432	85.45	-0.246	0.0096	0.2556	1153.2117	0.185141	-387.079375	-387.07121	-387.070266	-387.111673	32.602	
C	-0.0247638019	 1.5174850099	 0.1827026783	-0.246524
C	 1.4096034009	 2.1409223739	 0.0749200499	-0.246523
C	 1.742299124	 2.6401542756	-1.3112507324	-0.039685
C	 2.173388585	 1.9352323648	-2.3601292665	-0.063198
C	 2.3862116723	 0.4478223501	-2.4081220998	-0.11708
O	 1.3421507288	-0.2264624267	-3.1152493278	-0.251742
C	 0.0409974785	-0.0873402498	-2.5387133778	-0.117079
C	-0.0332383482	-0.6665155113	-1.1534222589	-0.063199
C	-0.0416991702	 0.0192051932	-0.0077281339	-0.039685
H	-0.4256722093	 1.7410188721	 1.1764833721	 0.101483
H	-0.6811219161	 2.0183025894	-0.5353616914	 0.113582
H	 1.4727324484	 2.98611705	 0.7677091887	 0.101483
H	 2.1407716653	 1.4034011033	 0.4194421234	 0.113582
H	 1.5683050723	 3.7048800371	-1.4626675856	 0.089027
H	 2.3240188297	 2.4552978993	-3.3043234767	 0.088114
H	 3.2924416606	 0.2062812356	-2.9726390827	 0.10596
H	 2.4950712962	 0.0337031785	-1.3979143823	 0.094191
H	-0.2695869852	 0.9649871712	-2.5417591906	 0.094191
H	-0.615422556	-0.6361759362	-3.2214780873	 0.10596
H	-0.0047102485	-1.7534290885	-1.103769781	 0.088114
H	-0.0228014865	-0.5548831614	 0.9179649022	 0.089027
150.486	179.5661	190.8203	219.7459	306.0566	315.7126	394.2752	400.5246	541.163	548.0013	599.817	606.0827	730.0954	783.7109	804.7596	899.0949	914.3367	946.5431	968.8477	1000.6723	1009.7011	1018.094	1025.1577	1033.1799	1064.9494	1100.3457	1135.6892	1204.9215	1247.4905	1265.6756	1283.751	1301.9296	1317.2269	1329.0688	1349.2158	1376.2737	1388.4418	1433.8809	1434.0354	1489.5558	1490.6364	1498.7066	1508.051	1717.432	1720.5536	3022.2311	3026.5144	3042.305	3048.9701	3076.377	3077.555	3084.6881	3086.7839	3125.7798	3125.8242	3152.9611	3153.2606
C1CC=CCOCC=C1	C1CC=CCOCC=C1	
InChI=1S/C8H12O/c1-2-4-6-8-9-7-5-3-1/h3-6H,1-2,7-8H2/b5-3-,6-4-	InChI=1S/C8H12O/c1-2-4-6-8-9-7-5-3-1/h3-6H,1-2,7-8H2/b5-3-,6-4-
