19
gdb 51091	3.7386	1.09383	1.02222	3.2556	75.12	-0.2467	-0.0232	0.2235	1216.4035	0.159243	-423.019581	-423.011475	-423.010531	-423.053228	30.726	
O	-0.2757513947	 0.0867556068	 0.1240376958	-0.243124
C	-0.0203049631	 1.2624851004	 0.0718576666	 0.156663
C	 1.3675936691	 1.8277876526	-0.1699210907	-0.392098
C	 1.3821190878	 2.8585661259	-1.2761792176	 0.40951
C	 2.5509187129	 3.8419975617	-1.5290849506	-0.280164
C	 1.3497750432	 4.6527974072	-2.0600743167	 0.07996
C	 0.9156278013	 3.8879236419	-3.3268565847	-0.215734
C	 0.9465317454	 2.4551077452	-2.7085148947	-0.255823
O	 0.5237445069	 4.0263331553	-1.0271744008	-0.334059
H	-0.8087706707	 2.0330158465	 0.2110395697	 0.101846
H	 1.6948038005	 2.3088062765	 0.761923412	 0.12743
H	 2.0510543418	 1.0037000243	-0.3947905525	 0.124428
H	 2.943528156	 4.2517266481	-0.5976606985	 0.109291
H	 3.3526281966	 3.555809967	-2.2150396221	 0.096136
H	 1.3132141513	 5.741595625	-2.0569309509	 0.082479
H	-0.0837032557	 4.1865926231	-3.6491737753	 0.111801
H	 1.6075002832	 4.019834882	-4.1629475971	 0.101638
H	 1.6616039057	 1.7831958119	-3.1905794693	 0.104803
H	-0.0333661976	 1.9723397186	-2.7076429924	 0.115016
47.2532	68.7153	154.9716	272.6745	289.6354	385.158	441.9879	459.4822	559.7995	628.907	715.9593	801.525	826.204	831.0112	847.0802	884.1565	905.6127	941.8288	957.2039	993.0682	1020.1476	1023.4903	1075.5462	1105.352	1143.7932	1159.0809	1178.2176	1225.5949	1236.0004	1249.7511	1275.8773	1283.541	1311.5612	1320.392	1363.3061	1424.8765	1448.9917	1480.2211	1482.8343	1507.8697	1831.2627	2907.7006	3024.5678	3062.6538	3064.1833	3073.0779	3101.0416	3108.6115	3125.7758	3130.1573	3141.6672
O=CCC12CC(CC1)O2	O=CC[C@@]12C[C@@H](CC1)O2	
InChI=1S/C7H10O2/c8-4-3-7-2-1-6(5-7)9-7/h4,6H,1-3,5H2	InChI=1S/C7H10O2/c8-4-3-7-2-1-6(5-7)9-7/h4,6H,1-3,5H2/t6-,7-/m1/s1
