18
gdb 65538	2.86233	1.61771	1.34856	4.4403	75.31	-0.266	0.021	0.287	1001.3389	0.148451	-401.942828	-401.935146	-401.934201	-401.974647	30.483	
C	-0.0713850217	 1.5377478508	-0.0324539786	-0.445742
C	 0.0516230614	 0.0161690229	 0.0571018299	 0.244245
O	 0.8978770899	-0.499547752	-1.0001998207	-0.311805
C	 1.8928443793	-1.2446628126	-0.2608122444	 0.113685
C	 1.0636629799	-2.0139361627	 0.7929674639	-0.25211
C	 0.8082154412	-0.5537189979	 1.2884390298	-0.084464
C	 2.2874215661	-0.2698829255	 0.8709222326	-0.251969
C	-1.2974717862	-0.5780962594	-0.0671810139	 0.277481
N	-2.3615364646	-1.0215550119	-0.1482123683	-0.351165
H	 0.9003531489	 2.0121187845	 0.1124742204	 0.129339
H	-0.4508282404	 1.8191099559	-1.0177910968	 0.149278
H	-0.7672195021	 1.909717999	 0.7251155854	 0.135713
H	 2.589244696	-1.7013510745	-0.9607053396	 0.092336
H	 0.2142985512	-2.6020335976	 0.4418190026	 0.131622
H	 1.6764792044	-2.5869586967	 1.4896257981	 0.110563
H	 0.4007257529	-0.3153044975	 2.2691247548	 0.092729
H	 2.9954155626	-0.6971645589	 1.5821229784	 0.112288
H	 2.5853918014	 0.7409557439	 0.5902135565	 0.107976
147.8406	156.6736	193.5582	258.9618	289.2623	437.2378	479.5006	495.4748	535.8355	576.8291	624.9374	725.2772	838.896	844.8894	851.6097	874.5609	899.7846	936.666	956.0461	988.2987	1037.0851	1045.4762	1059.7976	1100.4016	1118.733	1159.2737	1179.0554	1202.9981	1215.6539	1253.2475	1256.0845	1289.5062	1320.2148	1409.4599	1474.7668	1483.843	1491.3554	1514.8012	2353.18	3054.0717	3081.8497	3087.0757	3128.3796	3140.1129	3142.0673	3148.5829	3151.1252	3152.3204
CC1(OC2CC1C2)C#N	C[C@]1(O[C@@H]2C[C@H]1C2)C#N	
InChI=1S/C7H9NO/c1-7(4-8)5-2-6(3-5)9-7/h5-6H,2-3H2,1H3	InChI=1S/C7H9NO/c1-7(4-8)5-2-6(3-5)9-7/h5-6H,2-3H2,1H3/t5-,6+,7-/m0/s1
