21
gdb 119359	4.82204	0.83538	0.81448	2.047	80.69	-0.2535	0.082	0.3355	1493.886	0.181404	-424.166897	-424.157642	-424.156698	-424.20121	34.828	
C	-0.0263586376	 1.3232387079	-0.0035729442	-0.217345
O	 0.0018590753	-0.0831038669	 0.0062841984	-0.236744
C	 0.647217784	-0.6278771012	-1.1256736678	-0.207951
C	 0.6162596143	-2.1227525438	-1.02350663	 0.34989
C	-0.6476872244	-3.0361898656	-0.951091271	-0.281691
C	 0.5703261302	-3.9832534373	-0.9026390465	 0.391421
O	 0.4525590602	-5.3569627234	-0.8172775297	-0.46797
C	 1.2072461653	-3.1327385538	-2.0500894004	-0.340449
C	 1.2303501679	-2.9977786177	 0.1107087452	-0.315981
H	 0.9879761451	 1.7538528155	-0.0084400038	 0.101974
H	-0.5672883641	 1.7164032319	-0.8793905357	 0.102585
H	-0.5422766449	 1.6472044907	 0.9036240132	 0.126732
H	 0.1433221448	-0.3005096797	-2.0523076253	 0.085793
H	 1.6914064695	-0.2723747294	-1.1835215055	 0.084342
H	-1.2489588181	-2.9610065825	-0.0427255809	 0.101259
H	-1.2675952364	-3.0835851999	-1.850756495	 0.088529
H	 1.3364884942	-5.735679382	-0.7623320982	 0.281054
H	 0.7182070043	-3.1838318818	-3.0269132829	 0.091756
H	 2.2981276121	-3.1558338623	-2.1387135315	 0.082064
H	 2.3232378088	-3.0113913316	 0.1752928218	 0.078922
H	 0.7636671896	-2.9154930873	 1.0945591099	 0.101811
67.1697	92.0391	108.8366	222.3703	251.1881	272.6583	322.65	341.5639	407.2558	433.5859	548.7793	556.5857	639.6405	708.179	764.5017	796.4934	938.9099	959.1052	966.2893	980.5696	982.4642	1055.3067	1073.7633	1106.7417	1118.2158	1127.0338	1135.4322	1145.4022	1160.1757	1169.147	1179.3888	1194.7825	1230.8857	1276.9978	1297.1789	1334.1449	1382.2743	1428.7544	1480.7932	1485.1545	1493.3088	1496.5911	1501.2554	1522.1284	1565.9624	2939.8595	2966.2898	2967.8218	3009.2132	3038.5772	3045.5515	3057.8328	3108.8409	3113.132	3121.2582	3127.4577	3809.876
COCC12CC(O)(C1)C2	COC[C@@]12C[C@@](O)(C1)C2	
InChI=1S/C7H12O2/c1-9-5-6-2-7(8,3-6)4-6/h8H,2-5H2,1H3	InChI=1S/C7H12O2/c1-9-5-6-2-7(8,3-6)4-6/h8H,2-5H2,1H3/t6-,7+
