18
gdb 82456	2.4315	1.77574	1.38811	2.262	71.47	-0.2166	0.0487	0.2653	993.9213	0.146627	-438.995691	-438.987458	-438.986513	-439.027812	32.653	
C	-0.10240099	 1.5878518722	-0.1092018295	-0.430801
C	 0.0637246437	 0.0854421844	 0.0315741823	 0.023446
N	 1.0931632376	-0.6436267815	-0.8526714677	-0.180267
C	 2.4220450869	 0.0118816426	-0.5088673108	-0.248254
C	 2.2661944777	-0.5874699722	 0.870525544	 0.270326
O	 3.1682951485	-0.7836916797	 1.9049110236	-0.469089
C	 1.3263488564	-1.6236441408	 0.3190024775	-0.171469
C	 0.754174074	-0.5503777262	 1.212234716	 0.329652
O	 0.3292245832	-0.5902926543	 2.5195793684	-0.475276
H	 0.7773423166	 2.1467827604	 0.2195357435	 0.112438
H	-0.3115781303	 1.8503627186	-1.151758252	 0.128831
H	-0.9493349706	 1.9214193117	 0.4986280416	 0.129745
H	-0.8922451407	-0.4096431352	-0.171372251	 0.089472
H	 3.2091227129	-0.4695931416	-1.0963233397	 0.114395
H	 2.4663062072	 1.0962048372	-0.6510625615	 0.096558
H	 3.3869035737	 0.0781305198	 2.281062329	 0.290712
H	 1.317148543	-2.7021565645	 0.2544163717	 0.108146
H	 1.1074513302	-0.7747597811	 3.0643186145	 0.281434
155.7161	176.7161	223.7286	230.3843	259.375	336.2214	392.3534	445.3686	469.4153	502.973	587.1328	618.8604	665.2018	686.7333	770.591	803.9053	842.946	888.3756	920.4754	957.5639	1040.4964	1071.4777	1088.7272	1101.9566	1115.3461	1143.6168	1159.8795	1194.4131	1227.9391	1265.3196	1309.3044	1349.1451	1378.9112	1403.3242	1434.5818	1445.1401	1489.1698	1496.8608	1526.0487	3038.4943	3043.7768	3048.2054	3098.0795	3107.332	3119.4077	3220.4823	3738.6373	3771.7378
CC1N2CC3(O)C2C13O	C[C@H]1N2C[C@]3(O)[C@H]2[C@]13O	
InChI=1S/C6H9NO2/c1-3-6(9)4-5(6,8)2-7(3)4/h3-4,8-9H,2H2,1H3	InChI=1S/C6H9NO2/c1-3-6(9)4-5(6,8)2-7(3)4/h3-4,8-9H,2H2,1H3/t3-,4+,5+,6-/m1/s1
