14
gdb 5435	3.51044	1.95768	1.26674	4.3564	73.24	-0.2098	0.0088	0.2186	909.8694	0.107623	-341.601345	-341.593875	-341.592931	-341.632986	27.581	
C	-0.0029128025	 1.5191702907	 0.0929677407	-0.519458
C	 0.0141281288	 0.034189035	-0.0075800742	 0.219696
C	 0.0005415744	-0.8125271987	-1.1004633881	 0.089272
N	 0.0275138881	-2.1389705752	-0.6914335392	-0.312393
C	 0.0564971914	-2.0937239806	 0.6138585029	-0.007769
N	 0.0499298612	-0.8070284693	 1.0798831962	-0.287506
C	-0.0355770274	-0.425178743	-2.4615765387	 0.249968
C	-0.0664558045	-0.0733786628	-3.6132050253	-0.440148
H	 0.8909255601	 1.9084988226	 0.5952996827	 0.133458
H	-0.0361065479	 1.9445226666	-0.91210041	 0.159029
H	-0.8778802545	 1.8848249173	 0.6439008856	 0.133261
H	 0.082799594	-2.9452811827	 1.2774481962	 0.131381
H	 0.0680181075	-0.5202148425	 2.0446938113	 0.26677
H	-0.0935351487	 0.2231501526	-4.63202746	 0.184438
117.7247	142.1518	168.8979	246.9322	316.3053	470.5624	526.6765	534.1069	536.4753	595.599	659.3196	663.7595	703.855	741.3366	808.6308	954.6152	989.6566	1063.3919	1100.894	1135.7805	1261.6336	1285.3715	1376.9367	1418.3362	1442.3633	1483.1213	1487.2773	1533.6754	1605.1871	2231.8804	3022.4822	3070.05	3132.4061	3250.7296	3505.3427	3657.7023
CC1=C(N=CN1)C#C	Cc1c(nc[nH]1)C#C	
InChI=1S/C6H6N2/c1-3-6-5(2)7-4-8-6/h1,4H,2H3,(H,7,8)	InChI=1S/C6H6N2/c1-3-6-5(2)7-4-8-6/h1,4H,2H3,(H,7,8)
