19
gdb 40056	3.18714	1.6036	1.51198	1.2302	74.56	-0.2268	0.0899	0.3167	965.1324	0.161306	-423.010279	-423.003317	-423.002372	-423.041421	28.924	
C	 0.0203009386	 1.508482627	 0.0242048544	-0.338905
C	 1.3276919116	 0.7250012476	 0.0193454002	-0.34898
C	 0.0095701953	 0.0191592175	-0.0412887073	 0.494012
O	-0.4245001375	-0.7180932015	 1.1066275797	-0.32577
C	-1.1462948998	-1.8404605041	 0.5724944889	 0.068122
C	-2.4276092884	-1.2996200089	-0.0784894249	-0.08122
O	-1.9362078849	-0.6430600306	-1.2662666775	-0.28005
C	-0.507280936	-0.7893297752	-1.2191323465	-0.011667
C	-0.3269694093	-2.215242037	-0.674149863	-0.247322
H	-0.2825352887	 1.9591224679	 0.9626833395	 0.122896
H	-0.2597091439	 2.0676257067	-0.8624007914	 0.119214
H	 1.9516458721	 0.7545447147	-0.8683396373	 0.111517
H	 1.8701546461	 0.6596879629	 0.9561699253	 0.122552
H	-1.281661266	-2.5811938783	 1.3592631689	 0.085476
H	-3.1355270873	-2.0906957444	-0.3576992029	 0.097429
H	-2.9279910211	-0.5766078915	 0.5741636379	 0.110147
H	-0.0926744184	-0.534109526	-2.1931683815	 0.082314
H	 0.7044038061	-2.477854244	-0.4343504087	 0.113493
H	-0.7893800186	-2.9729054029	-1.3090721239	 0.106744
113.1461	226.106	271.5499	328.2477	428.0755	462.463	506.6785	553.284	677.8467	760.6752	806.3922	825.4053	850.9707	883.2433	902.8494	923.4375	932.41	957.5743	971.3984	981.6026	995.2822	1013.7027	1049.458	1065.7603	1068.4248	1082.7172	1136.1308	1185.2808	1186.2397	1215.3424	1234.0467	1269.8969	1285.9939	1299.1835	1344.2618	1366.6388	1396.9591	1451.7675	1480.6346	1502.9543	1513.3195	3017.5282	3074.3368	3083.4067	3127.2575	3132.803	3134.9881	3139.7284	3147.3558	3212.8402	3227.4834
C1CC11OC2COC1C2	C1CC21O[C@H]1CO[C@@H]2C1	
InChI=1S/C7H10O2/c1-2-7(1)6-3-5(9-7)4-8-6/h5-6H,1-4H2	InChI=1S/C7H10O2/c1-2-7(1)6-3-5(9-7)4-8-6/h5-6H,1-4H2/t5-,6-/m1/s1
