16
gdb 30898	3.29949	1.18512	0.89459	2.899	70.22	-0.1762	0.0335	0.2097	1242.2721	0.124675	-475.038587	-475.02991	-475.028965	-475.07186	32.458	
N	 0.0638377673	 1.3560548195	 0.3793196462	-0.59506
C	-0.0523536921	 0.0010045502	 0.1111320498	 0.386213
C	-1.1209632225	-0.8128097845	-0.1347977235	-0.370674
C	-0.5678951986	-2.1322173402	-0.2276397484	 0.279405
O	-1.2876542162	-3.254737265	-0.4705199681	-0.446125
C	 0.778405822	-2.0327032108	-0.0442398459	 0.134041
C	 1.8385526778	-3.0727978942	-0.029844287	-0.195916
O	 1.4741660584	-4.1538019868	-0.9050145611	-0.416152
O	 1.1021896679	-0.6974895458	 0.1663131595	-0.214846
H	 0.9452808702	 1.7427991102	 0.0664880023	 0.255036
H	-0.7137511955	 1.8954344073	 0.0255673747	 0.256821
H	-2.1543091328	-0.528523534	-0.2443372858	 0.103948
H	-0.6460973535	-3.9742525218	-0.5742295589	 0.297297
H	 2.8115076948	-2.6363407261	-0.2991408126	 0.113306
H	 1.9631364354	-3.553683601	 0.9493483884	 0.125298
H	 1.4128221173	-3.7816209972	-1.7929908896	 0.287408
85.3938	157.5949	187.6586	201.7007	222.6385	309.3296	357.6763	377.5512	441.1572	504.5894	599.2541	635.8187	640.1619	675.1451	711.3107	727.4244	748.9088	816.7083	967.1684	998.2369	1032.5296	1092.1276	1119.6631	1168.8728	1200.272	1240.269	1339.4767	1368.1597	1399.3078	1413.6342	1509.5968	1527.0492	1608.6754	1656.7028	1690.3144	2996.706	3029.7424	3269.5486	3547.6901	3650.5782	3710.8572	3788.6299
NC1=CC(O)=C(CO)O1	Nc1cc(O)c(CO)o1	
InChI=1S/C5H7NO3/c6-5-1-3(8)4(2-7)9-5/h1,7-8H,2,6H2	InChI=1S/C5H7NO3/c6-5-1-3(8)4(2-7)9-5/h1,7-8H,2,6H2
