20
gdb 89546	5.50551	0.8773	0.86901	3.1239	81.7	-0.2555	0.0318	0.2873	1413.348	0.170818	-403.151138	-403.142629	-403.141685	-403.184429	32.967	
C	-1.0217666193	 1.0317452457	 0.0521166012	-0.408046
C	 0.0912616942	 0.0011713805	 0.1546823227	 0.052642
C	 1.1930079313	-0.0230579319	-0.9476510709	-0.308931
C	 2.2250404048	-0.2877903783	 0.1602331392	 0.448136
C	 1.2204498788	 0.2209603086	 1.2064414039	-0.308931
C	 2.9262007609	-1.655010855	 0.3061807253	-0.430853
C	 4.1948345473	-0.8383733819	 0.1975048635	 0.417621
N	 5.4212448311	-1.0981126783	 0.2112984851	-0.544367
O	 3.531789161	 0.3650946144	 0.0696254736	-0.281441
H	-0.6114445327	 2.0408097272	-0.0674179886	 0.115676
H	-1.6710342855	 0.8311890102	-0.8072381322	 0.118419
H	-1.6486422316	 1.0303192025	 0.9506079569	 0.118419
H	-0.3364703897	-1.0001330242	 0.2735603757	 0.077386
H	 1.1134623869	-0.7528573711	-1.7572199439	 0.102998
H	 1.3462937977	 0.9722347097	-1.3767318302	 0.116051
H	 1.3816426573	 1.2865659868	 1.3980551081	 0.116051
H	 1.163372016	-0.3090575984	 2.1604642925	 0.102998
H	 2.7900763643	-2.162196327	 1.2633015043	 0.135212
H	 2.7674848965	-2.3630325226	-0.5095159657	 0.135212
H	 5.9782328107	-0.247901147	 0.1078884294	 0.225746
73.8837	79.1078	230.0714	254.8079	294.0176	299.423	379.9299	439.762	455.7817	497.7888	498.557	698.1103	787.3086	819.8007	842.0578	866.5582	878.3585	903.9617	923.1419	952.761	968.8406	1022.7756	1037.9222	1060.6553	1075.0613	1128.2358	1157.1663	1195.4992	1214.932	1227.1976	1227.8764	1255.6596	1286.9081	1309.7299	1324.1047	1378.0484	1414.9216	1461.6043	1465.5815	1490.9297	1495.9698	1498.8316	1826.5321	3025.6005	3043.9681	3051.3118	3057.3902	3080.6875	3094.31	3094.9981	3109.7657	3113.5933	3134.8519	3473.5744
CC1CC2(C1)CC(=N)O2	C[C@H]1C[C@@]2(C1)C[C]([NH])O2	
InChI=1S/C7H11NO/c1-5-2-7(3-5)4-6(8)9-7/h5,8H,2-4H2,1H3	InChI=1S/C7H11NO/c1-5-2-7(3-5)4-6(8)9-7/h5,8H,2-4H2,1H3/t5-,7+
