19
gdb 96962	3.81106	1.29376	1.14037	2.4749	77.87	-0.2234	0.0207	0.2441	1128.5624	0.160645	-419.177405	-419.16933	-419.168386	-419.212367	30.322	
C	-0.2875566359	 1.4517627008	-0.1914453182	-0.31809
N	-0.2172196483	-0.0026450726	-0.1454491973	-0.318754
C	 0.6478195742	-0.5877029531	-0.8506598242	 0.398651
C	 0.7776358851	-2.1157049305	-0.8525419191	-0.271697
N	 1.8290862909	-2.6224545961	-1.7470629859	-0.124756
C	 3.0597734226	-1.777757156	-1.5024317599	-0.194946
C	 2.4398195179	-0.7055749691	-2.4137847596	 0.106482
C	 1.6860297772	-1.8811062165	-3.0577614275	-0.195757
O	 1.5238971507	 0.0988084769	-1.6565550875	-0.26585
H	 0.6088779117	 1.9114679155	 0.2451236581	 0.119198
H	-0.3755715436	 1.8323558089	-1.2171551992	 0.117885
H	-1.1556389727	 1.7858402505	 0.3818193398	 0.115717
H	 0.9813616624	-2.452591613	 0.1684939472	 0.136977
H	-0.18369873	-2.5490368253	-1.144536059	 0.137288
H	 3.2517357821	-1.5092509214	-0.4602479691	 0.118535
H	 3.9394614497	-2.2619910043	-1.9344028982	 0.11632
H	 3.0486264471	-0.0123527371	-2.9975492202	 0.08731
H	 2.2562660965	-2.3882321357	-3.8404095528	 0.116491
H	 0.6608015222	-1.704557622	-3.3937264676	 0.118995
6.9163	81.3929	208.134	222.5658	341.6214	385.2926	462.4383	477.12	496.8298	603.3311	653.541	771.9403	821.2618	836.109	895.1454	930.227	933.905	985.3152	1006.2397	1031.0491	1042.5603	1097.7902	1107.9634	1115.7748	1143.8351	1170.8609	1200.4387	1247.8504	1254.8963	1261.6173	1268.9958	1302.7666	1337.1295	1382.5792	1437.6277	1472.1383	1483.1223	1484.4449	1498.7828	1510.2574	1778.7929	3006.1575	3053.7778	3054.4317	3057.8699	3060.8835	3092.572	3096.6236	3105.4481	3117.7196	3118.8976
CN=C1CN2CC(C2)O1	CN=C1CN2C[C@@H](C2)O1	
InChI=1S/C6H10N2O/c1-7-6-4-8-2-5(3-8)9-6/h5H,2-4H2,1H3	InChI=1S/C6H10N2O/c1-7-6-4-8-2-5(3-8)9-6/h5H,2-4H2,1H3
