19
gdb 106419	2.77308	1.44872	1.21958	2.3895	76.32	-0.2526	0.0931	0.3457	1103.0268	0.158276	-422.938975	-422.930687	-422.929742	-422.971965	31.68	
C	-0.0568523056	 1.3303421724	 0.0044403315	-0.262123
O	 0.0826994957	-0.0785533625	-0.0369155038	-0.289244
C	 0.6980982516	-0.5583130794	-1.1619122012	 0.335819
C	 0.2668959393	-0.4348528554	-2.6714940455	-0.300845
C	 1.5389259285	-1.3427591891	-2.6670233092	-0.165631
C	 2.176621074	-0.3486069353	-1.6500793501	-0.294485
C	 0.9217666961	-2.0441827672	-1.4487269471	 0.499971
C	 1.1854618013	-3.2310791115	-0.6548048571	-0.319029
O	-0.0306785314	-3.0708949264	-1.4366892266	-0.306671
H	 0.9192819784	 1.8345374766	-0.0154681512	 0.113957
H	-0.6615484192	 1.7001857917	-0.834774308	 0.117235
H	-0.562906719	 1.5715476925	 0.9412652473	 0.132494
H	-0.6745246937	-0.9102043338	-2.9512247865	 0.117596
H	 0.3911939219	 0.5472600511	-3.1342237413	 0.091104
H	 2.020807596	-1.7971350528	-3.5278764413	 0.091041
H	 2.4140145564	 0.638476092	-2.0521087119	 0.096153
H	 2.9707150645	-0.7337815506	-1.0061415906	 0.098618
H	 1.8654691316	-3.9993941927	-1.0194414175	 0.117608
H	 1.0387901836	-3.2088628997	 0.4235215001	 0.126433
72.1458	151.2071	163.628	206.8108	268.8031	286.4462	399.6252	468.1754	495.4263	622.5172	627.6038	668.5387	780.2283	810.9051	895.2233	913.1586	936.1105	950.8803	974.6083	1036.8591	1038.5842	1064.1127	1085.3087	1108.3872	1112.6577	1124.4532	1159.3182	1165.2497	1180.1239	1197.038	1202.1031	1217.0713	1241.4565	1328.5178	1458.9859	1485.0829	1486.4208	1487.4468	1504.9858	1521.8527	1576.384	2996.2944	3050.7082	3061.6434	3064.8811	3087.6086	3126.8082	3132.5313	3140.6808	3164.1438	3175.5614
COC12CC(C1)C21CO1	CO[C@@]12C[C@@H](C1)[C@]12CO1	
InChI=1S/C7H10O2/c1-8-6-2-5(3-6)7(6)4-9-7/h5H,2-4H2,1H3	InChI=1S/C7H10O2/c1-8-6-2-5(3-6)7(6)4-9-7/h5H,2-4H2,1H3/t5-,6-,7-/m0/s1
