13
gdb 24871	3.60684	1.27483	0.94192	2.3783	77.79	-0.2328	-0.0985	0.1343	1133.607	0.092212	-411.835933	-411.82876	-411.827816	-411.867968	26.589	
N	-0.1481086174	 1.3115392248	 0.0085984169	-0.560125
C	 0.0088890102	 0.0483170779	 0.001164954	 0.42464
N	-1.1582390677	-0.7483022351	 0.003261817	-0.395076
C	-1.1312990886	-2.1056390068	-0.0040145542	 0.317622
C	 0.0647953559	-2.7615565461	-0.0138994866	-0.239897
C	 1.2319110478	-1.932064304	-0.0158375327	 0.028096
N	 1.2278659996	-0.6351979494	-0.0090090265	-0.290995
C	-2.3886839552	-2.7892618522	-0.0008351306	 0.229768
N	-3.4078297217	-3.3358360603	 0.0017803712	-0.304418
H	 0.767444319	 1.7571974426	 0.0059746214	 0.231807
H	-2.0339234834	-0.24434154	 0.0106153473	 0.288255
H	 0.1188886855	-3.8393512171	-0.0198473405	 0.138061
H	 2.2094639561	-2.414050384	-0.0236376281	 0.132262
104.6565	133.9826	150.8719	373.63	425.2855	456.1264	460.3472	570.6784	591.8767	612.934	703.1238	752.4126	761.11	805.9262	850.2987	898.4103	1002.7192	1023.9231	1047.0311	1117.2514	1209.1553	1302.102	1357.3315	1419.68	1489.686	1582.5398	1661.197	1731.8874	2356.3801	3134.2184	3255.3054	3520.0943	3614.4095
N=C1NC(=CC=N1)C#N	[NH]C1=NC=C[C@H](N1)C#N	
InChI=1S/C5H4N4/c6-3-4-1-2-8-5(7)9-4/h1-2H,(H2,7,8,9)	InChI=1S/C5H5N4/c6-3-4-1-2-8-5(7)9-4/h1-2,4,7H,(H,8,9)/t4-/m0/s1
