19
gdb 111158	4.25328	1.07896	0.99883	2.2248	76.58	-0.25	0.0917	0.3416	1239.1174	0.158669	-422.931849	-422.923731	-422.922787	-422.964602	31.169	
C	 0.1768915329	 1.2812817995	 0.2079697773	-0.245709
O	-0.3176289303	 0.033953436	-0.2306313036	-0.256752
C	 0.4480294157	-0.5326425133	-1.2506876111	 0.194342
C	 1.7664076307	-1.3116239469	-0.8869400863	-0.214075
C	 0.8400059591	-2.3951758602	-0.2371987128	-0.234696
C	 0.1197743227	-2.013226073	-1.5768905212	-0.211552
C	 1.5191999346	-2.0507529765	-2.2064466578	 0.556049
C	 2.0690059431	-2.0205278608	-3.553041675	-0.322561
O	 2.2010306056	-3.1781557261	-2.6867269947	-0.300399
H	 1.1741437805	 1.1904825277	 0.6627128698	 0.110345
H	 0.2387244034	 2.0051143197	-0.6193686862	 0.106823
H	-0.5212892658	 1.6607778738	 0.9574304958	 0.13007
H	 0.5259976151	 0.1532558768	-2.1072196236	 0.063369
H	 2.7077958347	-0.9138408318	-0.5093967389	 0.077718
H	 1.2483395994	-3.4048727484	-0.1813849176	 0.111983
H	 0.3261084185	-2.0993232957	 0.6753010069	 0.113172
H	-0.8129795095	-2.4078370881	-1.9775922104	 0.083322
H	 1.4210590812	-2.1667972158	-4.4159566427	 0.119912
H	 3.0002113285	-1.4939932569	-3.7570944777	 0.118639
88.5202	141.1932	169.7328	226.4475	285.3774	337.777	366.6291	445.9589	501.3736	606.2128	667.5092	738.5891	808.3528	882.8724	885.7348	904.6205	926.196	990.675	1014.4585	1040.7427	1065.2465	1076.7648	1109.8063	1119.6904	1124.5263	1141.2685	1155.8445	1171.3669	1184.2604	1203.6861	1211.6522	1231.9543	1256.3317	1262.8959	1405.0399	1457.7954	1482.2941	1487.8831	1504.4785	1511.4536	1561.4535	2978.7468	2996.6962	3029.7873	3084.1901	3091.516	3119.3178	3122.7958	3129.8674	3169.851	3170.3721
COC1C2CC1C21CO1	CO[C@H]1[C@H]2C[C@@H]1[C@]12CO1	
InChI=1S/C7H10O2/c1-8-6-4-2-5(6)7(4)3-9-7/h4-6H,2-3H2,1H3	InChI=1S/C7H10O2/c1-8-6-4-2-5(6)7(4)3-9-7/h4-6H,2-3H2,1H3/t4-,5+,6+,7-
