18
gdb 80660	2.55733	1.87842	1.34591	3.3943	71.	-0.2264	0.0034	0.2298	980.5724	0.149273	-439.088211	-439.080831	-439.079887	-439.119852	29.377	
C	-0.3919665996	 1.444684662	 0.0428210386	-0.40528
C	 0.0678103784	-0.0114105463	-0.0373216161	-0.108979
N	 0.7181677843	-0.3209834847	-1.3266157963	-0.126854
C	 1.2348585724	-1.7381599842	-1.2254620645	-0.197427
C	 2.4521479691	-1.1854514754	-0.4702304104	 0.107964
C	 2.1649367868	 0.1172485073	-1.2301918916	-0.203646
O	 2.1178257538	-1.0066642535	 0.9202650329	-0.238199
C	 0.9356489218	-0.3843578721	 1.1889265347	 0.412915
O	 0.6143342585	-0.1702703996	 2.3242288427	-0.334993
H	 0.4481384725	 2.1389585196	-0.056883208	 0.1214
H	-1.1016797754	 1.649404637	-0.761869141	 0.128924
H	-0.8679343049	 1.6274497541	 1.0079805916	 0.147975
H	-0.8214512122	-0.6506814605	 0.0332631259	 0.118664
H	 0.5867331486	-2.4436613824	-0.698752505	 0.119554
H	 1.4781791312	-2.1219048666	-2.2196724648	 0.119539
H	 3.4272168982	-1.6751859803	-0.4907242066	 0.094535
H	 2.6111009113	 0.1487278295	-2.2271432425	 0.121251
H	 2.351051965	 1.0587426763	-0.7085155794	 0.122659
102.5013	221.1683	246.32	266.8614	399.9233	409.2438	447.1688	489.7602	511.034	608.2658	679.924	773.1301	809.9603	840.2371	902.5971	916.5587	925.294	964.8596	1008.9689	1044.8951	1077.5263	1090.237	1125.0425	1139.0678	1157.4518	1181.0837	1251.2681	1256.9754	1260.1158	1305.0131	1318.8037	1345.9531	1384.0805	1402.3432	1482.2673	1494.5068	1497.6048	1511.0147	1852.0576	3031.6301	3051.0681	3057.2751	3067.2007	3099.6386	3118.8142	3121.3066	3128.0107	3147.0868
CC1N2CC(C2)OC1=O	C[C@H]1N2C[C@@H](C2)OC1=O	
InChI=1S/C6H9NO2/c1-4-6(8)9-5-2-7(4)3-5/h4-5H,2-3H2,1H3	InChI=1S/C6H9NO2/c1-4-6(8)9-5-2-7(4)3-5/h4-5H,2-3H2,1H3/t4-/m1/s1
