17
gdb 90252	3.8681	1.40759	1.34035	1.3591	68.17	-0.2543	0.0167	0.271	979.504	0.13612	-458.817136	-458.810189	-458.809245	-458.848164	28.731	
O	 0.0114984057	 1.4629237455	-0.0091268941	-0.446764
C	 0.0758908716	 0.0544649131	-0.0224634031	 0.18328
C	 0.502030243	-0.5953426647	 1.3249473731	-0.291279
C	-0.8096047601	-1.3214920902	 1.6716727735	 0.325406
C	-0.5915198958	-2.7413469584	 2.2685011872	-0.197501
O	-0.3493660387	-3.1744718288	 0.8616690059	-0.322194
C	-1.2417698054	-2.0444300821	 0.4790030983	 0.117182
C	-1.3160389455	-0.5745851571	-0.0877518919	-0.06276
O	-1.8242996174	-0.2531814498	 1.3031384895	-0.383174
H	-0.6285263272	 1.6889070156	 0.6788902519	 0.282361
H	 0.7154395818	-0.2213235037	-0.8636855229	 0.09863
H	 1.3400248364	-1.2864956388	 1.2229104548	 0.124767
H	 0.7491250824	 0.1644042705	 2.0708996543	 0.110036
H	 0.287107346	-2.9095908287	 2.8956476385	 0.128447
H	-1.4821903116	-3.227882899	 2.6771501277	 0.127275
H	-2.2695087177	-2.4127741722	 0.5389916346	 0.10698
H	-2.0146703075	-0.267701271	-0.8662263572	 0.099306
135.9312	260.8872	293.1103	315.2985	446.398	466.4898	492.5205	511.1939	593.2442	675.9898	714.9663	769.9245	815.7002	831.6912	842.0033	879.9366	893.5036	939.9992	969.518	1015.7834	1051.2712	1079.546	1101.8311	1120.9728	1156.0153	1175.1202	1209.5667	1238.1575	1263.1741	1279.7262	1293.12	1312.633	1353.4153	1398.2966	1440.8456	1468.9603	1498.9437	3051.1874	3067.8721	3073.0037	3094.9718	3125.7702	3132.7145	3134.5287	3764.1539
OC1CC23COC2C1O3	O[C@H]1C[C@]23CO[C@@H]2[C@H]1O3	
InChI=1S/C6H8O3/c7-3-1-6-2-8-5(6)4(3)9-6/h3-5,7H,1-2H2	InChI=1S/C6H8O3/c7-3-1-6-2-8-5(6)4(3)9-6/h3-5,7H,1-2H2/t3-,4-,5+,6-/m0/s1
