19
gdb 88771	3.37056	1.17462	1.14074	2.3324	74.33	-0.2283	0.0715	0.2998	1155.8141	0.158853	-422.952498	-422.944345	-422.943401	-422.985523	31.764	
O	-0.722853227	 1.1207971739	 1.2134293377	-0.417093
C	-0.156077046	 0.1537812356	 0.3720467002	 0.089728
C	-0.6867295525	-1.2567522229	 0.40563616	-0.332903
C	-1.0339169472	-0.3312123779	-0.7427444567	-0.069219
C	-2.4050495825	 0.2747922716	-0.9211484186	 0.149681
O	-3.1698292886	-0.3427848723	-2.0064924139	-0.312655
C	-4.3140547494	-0.4367879333	-1.1557906752	 0.103204
C	-4.0585100872	-1.3831943965	-0.0317207284	-0.295552
C	-3.5561169951	 0.0488384891	 0.0576192993	-0.153398
H	-0.4411028904	 0.9345954741	 2.1148936495	 0.289268
H	 0.9037611943	 0.2999455195	 0.1641830162	 0.086734
H	-0.0023267997	-2.0792093389	 0.2273978644	 0.111085
H	-1.471109251	-1.4573167904	 1.1269265135	 0.124127
H	-0.5419414312	-0.5207279634	-1.6928675214	 0.102194
H	-2.3042145893	 1.344522802	-1.1434674235	 0.09217
H	-5.2812646863	-0.1806406197	-1.5719708653	 0.100859
H	-4.9094412772	-1.5907654439	 0.6103101489	 0.110676
H	-3.3757839543	-2.2137463437	-0.1813984814	 0.120152
H	-3.8416157394	 0.7281038571	 0.8475922547	 0.100941
56.0861	141.367	168.781	264.5147	295.355	305.3797	423.8132	457.0488	521.0464	623.3411	731.0709	771.4204	781.132	807.094	838.6177	915.7376	933.285	958.0727	959.0311	985.9559	1010.9253	1035.1614	1046.6133	1055.5644	1060.947	1083.0851	1091.0119	1126.5551	1141.381	1175.5693	1199.2692	1230.1178	1258.2487	1292.242	1307.8898	1357.1548	1377.2245	1386.9727	1422.0621	1471.543	1488.9145	3024.0114	3098.5318	3119.8708	3134.2113	3149.9072	3180.6638	3208.7881	3220.7166	3226.283	3808.8227
OC1CC1C1OC2CC12	O[C@H]1C[C@H]1[C@H]1O[C@H]2C[C@@H]12	
InChI=1S/C7H10O2/c8-5-1-3(5)7-4-2-6(4)9-7/h3-8H,1-2H2	InChI=1S/C7H10O2/c8-5-1-3(5)7-4-2-6(4)9-7/h3-8H,1-2H2/t3-,4-,5+,6+,7-/m1/s1
