21
gdb 119774	4.70577	0.81663	0.74675	1.5383	83.06	-0.209	0.0639	0.273	1618.7838	0.183194	-420.438417	-420.428615	-420.427671	-420.474442	34.975	
C	 0.1216226674	 1.4449345319	 0.1052132044	-0.38843
C	-0.1675261657	-0.033454346	-0.1373614221	-0.124171
N	 0.6318450139	-0.5347556865	-1.249235874	-0.38166
C	 0.8300696499	-1.8634101277	-1.4808801363	 0.504471
N	 1.1458827879	-2.391699013	-2.6004790203	-0.38429
C	 1.3765906472	-3.8171637234	-2.3397539764	 0.032527
C	 2.8197331133	-4.2210174252	-2.6501210763	-0.380625
C	 0.9927951419	-3.9955717921	-0.8405825124	-0.118073
O	 0.7137342418	-2.6584342401	-0.3788906777	-0.258109
H	 1.1793221514	 1.6020086601	 0.3347395969	 0.130423
H	-0.1276001578	 2.0479953214	-0.7755046389	 0.116454
H	-0.4774153266	 1.8180494116	 0.9407860237	 0.121822
H	 0.0897385763	-0.621676871	 0.7455782025	 0.137827
H	-1.2448320096	-0.1783997947	-0.3156805105	 0.100177
H	 0.5928867439	-0.0019429298	-2.1056760851	 0.249983
H	 0.7074227615	-4.4123736669	-2.9744513608	 0.075635
H	 3.5195606736	-3.6637259631	-2.0180519758	 0.114661
H	 2.9753621438	-5.2923833682	-2.4789032428	 0.103515
H	 3.0571834113	-3.999502678	-3.6940175921	 0.126128
H	 0.0963427784	-4.6047914304	-0.6898426119	 0.110659
H	 1.805750926	-4.4038810888	-0.231984984	 0.111076
39.6133	52.6209	85.5358	140.6441	200.4102	251.5929	262.7815	331.5625	343.0221	427.624	498.1729	587.101	706.7245	739.7154	743.2598	812.6609	843.0762	898.3076	935.4424	939.4332	972.4968	1040.5589	1068.4054	1095.1915	1121.5463	1141.9564	1160.2162	1196.0771	1229.8643	1294.4713	1301.0832	1342.56	1376.4812	1377.4292	1402.4227	1416.0775	1443.0787	1467.6086	1488.0015	1495.1873	1496.4987	1499.649	1521.6927	1526.3162	1744.7886	2976.9651	3008.9895	3028.1406	3035.9495	3044.0415	3089.0593	3095.2667	3097.7892	3117.9838	3118.8631	3123.1654	3617.5967
CCNC1=NC(C)CO1	CCNC1=N[C@@H](C)CO1	
InChI=1S/C6H12N2O/c1-3-7-6-8-5(2)4-9-6/h5H,3-4H2,1-2H3,(H,7,8)	InChI=1S/C6H12N2O/c1-3-7-6-8-5(2)4-9-6/h5H,3-4H2,1-2H3,(H,7,8)/t5-/m0/s1
