23
gdb 104908	2.04812	1.43297	0.99945	0.786	93.19	-0.2352	0.0548	0.29	1321.6524	0.202249	-351.12468	-351.113835	-351.112891	-351.159745	41.036	
C	 0.2924947504	 1.5248267327	 0.2326520913	-0.378308
C	-0.1578782762	 0.1050319361	-0.1287103621	-0.253976
C	 0.6106729897	-0.484461787	-1.3143929688	 0.107094
C	 1.9864434107	-1.1021307996	-1.0624080207	-0.355928
C	 0.8441005511	-2.0033857683	-1.4467200615	 0.279335
C	 0.2679489149	-2.9464365962	-0.4044227004	-0.454229
C	 0.8531253492	-2.6080468831	-2.8394054454	-0.4536
C	 0.4356911054	 0.2705266341	-2.5296658169	 0.305347
C	 0.2542004902	 0.9282356107	-3.5219176511	-0.472742
H	 1.3516358263	 1.5421103601	 0.5107906433	 0.114134
H	 0.1581052915	 2.2063964507	-0.6118623942	 0.131827
H	-0.2849949822	 1.9109966312	 1.0782340445	 0.108294
H	-0.0343830864	-0.542120974	 0.7436051334	 0.094541
H	-1.2284610845	 0.108008972	-0.3666580928	 0.103993
H	 2.7673281647	-0.9108049167	-1.7901498421	 0.117425
H	 2.3265990468	-1.1147370526	-0.0311083404	 0.108893
H	 0.3615305917	-2.5678531717	 0.6151054767	 0.117439
H	-0.7921243044	-3.1497910821	-0.5950026	 0.119181
H	 0.7980335887	-3.9052465639	-0.4435229761	 0.117131
H	 1.4622245933	-3.5193820361	-2.8502652759	 0.110258
H	-0.1604005425	-2.8814261778	-3.1549526974	 0.116207
H	 1.256090839	-1.9175172953	-3.5822165453	 0.129622
H	 0.1045963724	 1.5020759767	-4.4024448381	 0.188062
85.5164	115.5241	150.2612	164.9601	187.2156	216.1015	226.7806	271.3922	324.1372	367.3056	371.9024	397.0037	454.6422	547.0879	565.932	579.3651	640.7916	649.8858	731.4896	792.6625	875.0707	901.406	929.221	965.6134	972.0775	999.2795	1039.1006	1059.3355	1068.7715	1102.7006	1147.665	1178.5943	1224.7432	1297.0871	1316.13	1356.5809	1376.3948	1408.8992	1413.2025	1425.2074	1474.4712	1484.0992	1485.317	1491.9129	1496.4056	1503.602	1508.5754	1511.9545	2222.8759	3025.6571	3030.0986	3036.202	3037.8621	3081.6523	3085.6194	3086.3835	3104.3284	3118.0655	3121.7399	3125.8885	3131.476	3212.8871	3502.7507
CCC1(CC1(C)C)C#C	CC[C@]1(CC1(C)C)C#C	
InChI=1S/C9H14/c1-5-9(6-2)7-8(9,3)4/h1H,6-7H2,2-4H3	InChI=1S/C9H14/c1-5-9(6-2)7-8(9,3)4/h1H,6-7H2,2-4H3/t9-/m0/s1
