20
gdb 12963	2.2337	2.09122	1.71524	1.2263	74.73	-0.2383	0.0792	0.3175	934.4567	0.176075	-348.976129	-348.967476	-348.966532	-349.008483	33.138	
C	 0.1035109437	 1.6081721569	-0.3794643864	-0.421227
C	 0.2320617179	 0.115029439	-0.1505529378	-0.062252
C	 1.4754339164	-0.7200841976	-0.3796589973	-0.132472
C	 2.7317875391	 0.0017275508	 0.1269375568	-0.262927
C	 2.1386423117	-0.0071425223	 1.5797291959	-0.013184
C	 2.1098778324	 1.2515065193	 2.4406739416	-0.426212
C	 0.8484236905	-0.6189318924	 1.0130697675	 0.353059
O	 0.147830552	-1.6077654197	 1.6932364507	-0.463878
H	 1.0343661652	 2.1459190051	-0.1896750404	 0.124104
H	-0.1801489471	 1.8076130818	-1.4190318178	 0.114972
H	-0.6688498838	 2.0467933212	 0.262660801	 0.111198
H	-0.6485562094	-0.4375089262	-0.4783672339	 0.085384
H	 1.4737520197	-1.5578337707	-1.0664962613	 0.087891
H	 3.6434813857	-0.5922152206	 0.0362773775	 0.102121
H	 2.9230937629	 0.9882041729	-0.3074367308	 0.094552
H	 2.6381765034	-0.8052854819	 2.1397702509	 0.083734
H	 1.6334241936	 2.0951262338	 1.9345414624	 0.115966
H	 1.5606793212	 1.0695078396	 3.3717694045	 0.111998
H	 3.1249186391	 1.559074461	 2.7161731879	 0.113658
H	-0.6309896843	-1.2076328699	 2.0934795089	 0.283516
146.3064	174.2238	192.8198	207.544	225.7382	268.5375	291.6406	351.5839	400.671	505.7038	566.6752	634.8188	677.0237	749.4576	819.484	867.7497	900.429	953.8882	970.4737	986.1236	1039.6579	1079.664	1105.2834	1116.4264	1121.9872	1151.847	1176.8143	1213.178	1232.4452	1248.8658	1296.1612	1328.0187	1334.0034	1383.2615	1409.6609	1414.9668	1461.8653	1490.834	1496.0555	1502.5287	1507.0154	1508.1303	3029.9973	3031.105	3044.4391	3050.4653	3083.4123	3086.5698	3105.6438	3107.5251	3119.199	3131.9912	3184.3222	3803.947
CC1C2CC(C)C12O	C[C@H]1[C@H]2C[C@@H](C)[C@@]12O	
InChI=1S/C7H12O/c1-4-3-6-5(2)7(4,6)8/h4-6,8H,3H2,1-2H3	InChI=1S/C7H12O/c1-4-3-6-5(2)7(4,6)8/h4-6,8H,3H2,1-2H3/t4-,5+,6-,7-/m1/s1
