19
gdb 91775	2.32606	1.92695	1.66725	1.3357	69.05	-0.2385	0.0739	0.3124	922.7741	0.163016	-460.168157	-460.161198	-460.160254	-460.199234	28.924	
O	 0.1286027341	 1.4185069805	-0.0723433704	-0.443401
C	 0.047305876	 0.0096105756	-0.0133304999	 0.131582
C	 0.6833434434	-0.6271348929	 1.2574335469	-0.259016
C	-0.5131081474	-1.3121699582	 1.9389783915	 0.070367
C	-1.3505184222	-0.3474149317	 2.784498332	-0.087724
O	-1.733079966	 0.7975204453	 2.0210282481	-0.277723
C	-2.3361385974	 0.428144789	 0.7758973396	-0.102133
C	-1.4157867209	-0.5432339584	 0.0393279506	 0.039225
O	-1.3169036075	-1.735243466	 0.826218405	-0.272949
H	-0.2379415629	 1.745454368	 0.7604578875	 0.289086
H	 0.546752097	-0.3468584962	-0.9166666447	 0.093455
H	 1.4364992744	-1.3726338712	 0.9925049058	 0.109352
H	 1.1654531823	 0.1380396812	 1.8712313306	 0.106421
H	-0.2512456264	-2.2000136798	 2.5205783717	 0.081885
H	-2.2456893852	-0.8740513084	 3.1474915768	 0.101739
H	-0.7883484825	 0.0288645607	 3.6446706388	 0.110564
H	-3.3100588572	-0.0517770703	 0.947618799	 0.105352
H	-2.4836775874	 1.355154828	 0.217447774	 0.121964
H	-1.8225183042	-0.8145861053	-0.9378047131	 0.081956
123.9158	249.7709	318.2922	365.4623	404.701	436.8241	490.2383	508.9341	595.9481	607.6475	779.0311	795.367	818.6347	844.6002	859.394	900.4673	955.9347	969.6259	983.5577	1028.1998	1061.3204	1084.1464	1101.6508	1112.8704	1130.2336	1178.2636	1224.4	1236.4885	1290.6222	1296.9743	1308.9051	1318.6755	1340.8416	1356.6563	1374.1779	1378.0165	1410.6387	1455.2118	1479.3286	1485.4906	1494.5571	2998.8806	3011.2347	3064.9987	3081.1363	3081.4484	3087.8369	3094.8543	3110.7485	3117.2962	3751.5171
OC1CC2COCC1O2	O[C@H]1C[C@H]2COC[C@@H]1O2	
InChI=1S/C6H10O3/c7-5-1-4-2-8-3-6(5)9-4/h4-7H,1-3H2	InChI=1S/C6H10O3/c7-5-1-4-2-8-3-6(5)9-4/h4-7H,1-3H2/t4-,5-,6-/m0/s1
