15
gdb 9581	4.0993	1.41513	1.22823	2.0718	70.57	-0.2579	-0.0475	0.2103	987.2632	0.116255	-362.616136	-362.60779	-362.606846	-362.64875	30.112	
C	 0.3358508097	 1.616771355	-0.3275578554	-0.47245
C	-0.0378234338	 0.1891238022	-0.0125386557	 0.222093
N	 1.0212967305	-0.8216553664	-0.0398452914	-0.346889
C	 0.4306692356	-0.5005848953	 1.2644966254	-0.285981
C	 1.2342246458	 0.1894347279	 2.2320084829	 0.367126
C	 1.8788070572	 0.7711267357	 3.0637636156	-0.401795
C	-1.3879801773	-0.2775636127	-0.4584303123	 0.103908
O	-1.6780079189	-1.4450240242	-0.5793290613	-0.271416
H	 1.2629740364	 1.8893326421	 0.1782973318	 0.152012
H	 0.479450803	 1.7493484647	-1.4047625644	 0.132301
H	-0.4506153513	 2.304679185	 0.001359512	 0.124589
H	 0.6029435631	-1.6953300405	-0.3653295468	 0.251567
H	-0.2711922632	-1.223498937	 1.6743419316	 0.13067
H	 2.4578788735	 1.275892072	 3.7972425381	 0.203855
H	-2.1219771502	 0.5264674815	-0.6768502702	 0.090412
110.5609	132.774	155.8328	174.5146	256.63	313.6149	339.8866	368.7164	506.4039	556.5496	624.2654	657.0169	662.0568	751.5109	793.8815	901.1112	961.5282	997.6975	1019.3501	1088.8472	1101.9999	1129.5239	1239.3488	1270.199	1337.0377	1414.5958	1421.1433	1436.9818	1486.5144	1491.8838	1798.5243	2239.0889	2914.5153	3040.1839	3102.5995	3136.9565	3144.5943	3449.4847	3502.1639
CC1(NC1C#C)C=O	C[C@]1(N[C@H]1C#C)C=O	
InChI=1S/C6H7NO/c1-3-5-6(2,4-8)7-5/h1,4-5,7H,2H3	InChI=1S/C6H7NO/c1-3-5-6(2,4-8)7-5/h1,4-5,7H,2H3/t5-,6-/m0/s1
