19
gdb 73065	3.23927	1.06479	0.933	2.6657	76.28	-0.2408	-0.0199	0.2209	1282.8198	0.157581	-422.99828	-422.98925	-422.988306	-423.03305	33.299	
O	-0.0058905591	 1.4286983796	-0.2316368973	-0.457998
C	 0.0267530558	 0.0517558377	-0.0929746188	 0.371396
C	 0.6263028756	-0.8964271714	-1.1397629177	-0.300134
C	-0.5755820263	-1.8707882295	-0.9040283282	-0.231494
C	-1.1633883914	-0.8783134227	 0.1090985607	-0.119069
C	-0.1857260143	-0.6189495118	 1.2415784805	-0.095249
C	 0.719494709	-1.6731450265	 1.8715446594	-0.318898
C	-0.0997145828	-2.6483566436	 2.6888858064	 0.175527
O	-0.2440638053	-3.8136976087	 2.4204330548	-0.241018
H	 0.7959108702	 1.79523744	 0.1576132313	 0.284799
H	 0.591925291	-0.4450204954	-2.1334621187	 0.11423
H	 1.638189495	-1.2751461216	-0.9604817882	 0.092759
H	-1.1960196331	-1.9864703073	-1.7944235716	 0.109072
H	-0.3365416432	-2.8632958749	-0.5128232965	 0.119427
H	-2.2129853082	-0.6326850573	 0.2153838586	 0.094745
H	-0.6006509057	 0.0884846928	 1.9570808671	 0.094682
H	 1.2757862237	-2.2413109593	 1.1230710389	 0.125353
H	 1.4427845105	-1.1784437222	 2.5340748281	 0.109809
H	-0.6087631213	-2.199371038	 3.5739398412	 0.072061
36.7987	60.6788	161.3632	213.8495	247.2717	266.8784	295.9902	381.6079	458.6171	491.8256	558.6037	624.3553	725.8217	761.394	800.8338	863.6352	899.8566	924.9545	956.9632	980.5169	1012.6644	1040.7993	1061.0798	1081.5193	1123.309	1140.7446	1196.1861	1217.2659	1219.5156	1232.8324	1250.0437	1288.1948	1302.1991	1313.3264	1348.9129	1428.303	1460.0345	1466.406	1485.1746	1513.5193	1830.479	2857.5834	3021.7335	3044.8816	3067.1259	3106.5503	3110.7616	3124.5652	3133.6159	3187.762	3791.2057
OC12CCC1C2CC=O	O[C@]12CC[C@H]1[C@H]2CC=O	
InChI=1S/C7H10O2/c8-4-2-6-5-1-3-7(5,6)9/h4-6,9H,1-3H2	InChI=1S/C7H10O2/c8-4-2-6-5-1-3-7(5,6)9/h4-6,9H,1-3H2/t5-,6+,7+/m0/s1
