22
gdb 80419	2.38583	1.73539	1.25439	0.7536	80.74	-0.223	0.0672	0.2903	1091.864	0.19492	-404.31898	-404.310219	-404.309274	-404.351524	35.241	
C	-0.1251393972	 1.5419630905	 0.1242496096	-0.411043
C	 0.0759192392	 0.0355020361	 0.0366523614	 0.05063
C	 0.9670060524	-0.5262094554	-1.1386518529	-0.014824
C	 1.6149391067	 0.4647535988	-2.1035433155	-0.417135
C	 1.9638033682	-1.294030156	-0.2477072496	 0.385023
O	 2.9461953088	-1.9652244818	-0.9691519275	-0.487978
C	 1.0062141604	-1.937780535	 0.7927783142	-0.243965
N	 0.7690119648	-0.5162294184	 1.2579873515	-0.133204
C	 2.2203013883	-0.2750044355	 0.8992745182	-0.251979
H	 0.8169720707	 2.0945675727	 0.1760452162	 0.115896
H	-0.675363397	 1.9087233733	-0.7479437876	 0.115239
H	-0.7036973326	 1.7820031984	 1.0208401439	 0.125612
H	-0.9133364985	-0.4328184685	 0.006790539	 0.075127
H	 0.3937847682	-1.248473641	-1.731339071	 0.071523
H	 2.2334787348	 1.208922893	-1.5929239391	 0.110723
H	 2.2601372285	-0.0713852758	-2.8057470007	 0.129576
H	 0.8599621543	 1.004317116	-2.6840092038	 0.110761
H	 3.5438103613	-2.3955808953	-0.3492040027	 0.281161
H	 0.1158833138	-2.4706974607	 0.4451266732	 0.097958
H	 1.5150783813	-2.5110531857	 1.5733268643	 0.093689
H	 2.8666436186	-0.6615936445	 1.6925588096	 0.095771
H	 2.4931959052	 0.7563263849	 0.6684279194	 0.101438
143.7358	179.6661	209.0831	245.4213	252.699	292.124	315.0615	382.1164	426.0673	482.5495	517.5715	560.7504	639.6454	666.4301	756.1467	808.0017	833.0464	877.7388	897.3883	958.7275	987.6345	1013.6578	1021.8851	1052.8545	1062.4006	1088.4397	1113.3944	1140.1441	1163.1683	1181.4011	1210.4594	1215.4059	1221.1849	1263.4881	1313.7798	1326.3356	1370.5655	1384.1606	1400.0478	1411.8536	1415.276	1484.0683	1489.5482	1492.2468	1503.7522	1507.6553	1532.5483	3028.6909	3037.3924	3041.9978	3043.8458	3048.7838	3061.8882	3102.3618	3105.3504	3110.1539	3111.7183	3116.2837	3125.9436	3814.1592
CC1C(C)C2(O)CN1C2	C[C@H]1[C@@H](C)[C@]2(O)CN1C2	
InChI=1S/C7H13NO/c1-5-6(2)8-3-7(5,9)4-8/h5-6,9H,3-4H2,1-2H3	InChI=1S/C7H13NO/c1-5-6(2)8-3-7(5,9)4-8/h5-6,9H,3-4H2,1-2H3/t5-,6+/m1/s1
