21
gdb 10517	2.67422	1.45784	1.1006	0.8431	75.4	-0.2406	0.0747	0.3153	1180.5849	0.18746	-366.228342	-366.218759	-366.217815	-366.263308	34.157	
C	-0.6311308572	 0.8664638374	 0.6011264483	-0.384101
C	 0.250817672	-0.3351824174	 0.2358843543	-0.262205
C	 0.5532407145	-0.4550404788	-1.2484118632	 0.322319
C	 1.388509937	 0.653352466	-1.85315861	-0.100083
O	 2.6316301232	 0.6986438853	-1.1821065842	-0.23833
C	 3.4696378349	 1.7256384264	-1.6527068676	-0.221389
C	 0.6427438779	-1.8075870816	-1.8525307865	-0.279132
N	-0.5022446456	-0.928260951	-2.1649732386	-0.36025
H	-0.1350721915	 1.8147326482	 0.3734178981	 0.124049
H	-1.5808407006	 0.8486612898	 0.0554200945	 0.115433
H	-0.8603980286	 0.8653814154	 1.6710085428	 0.113976
H	 1.2009228244	-0.2705074711	 0.7770378952	 0.121587
H	-0.2383890959	-1.2598434654	 0.5674931314	 0.085983
H	 1.5236104317	 0.4619797691	-2.9288477582	 0.093897
H	 0.8685734015	 1.6221389088	-1.7615550192	 0.086604
H	 4.3949912417	 1.687066921	-1.0725638487	 0.125394
H	 3.7134523694	 1.5981185937	-2.7195012255	 0.10416
H	 3.0108106877	 2.7194451997	-1.5254038903	 0.102349
H	 1.3180478782	-1.9903847884	-2.684022134	 0.115362
H	 0.4788615782	-2.6661942206	-1.2065368259	 0.10806
H	-1.3144445131	-1.2214189166	-1.6262194727	 0.226317
41.5655	86.0315	111.5546	167.4328	216.7156	223.5053	259.5342	327.1537	366.4835	408.371	434.4735	534.5845	720.877	782.7588	865.4475	901.2996	924.817	975.2467	998.9717	1001.9036	1043.0197	1054.46	1102.9177	1115.5546	1146.0002	1163.748	1183.1924	1226.8649	1232.6883	1263.6931	1281.4298	1332.5353	1367.8891	1397.5513	1410.1807	1436.3337	1475.4421	1481.7037	1485.2391	1497.6792	1502.0111	1509.5164	1512.9895	1528.6639	2957.2976	2970.3597	3001.4125	3010.5971	3024.8576	3036.6286	3072.7322	3104.1827	3106.1305	3111.2173	3111.7308	3190.3576	3487.6813
CCC1(COC)CN1	CC[C@@]1(COC)CN1	
InChI=1S/C6H13NO/c1-3-6(4-7-6)5-8-2/h7H,3-5H2,1-2H3	InChI=1S/C6H13NO/c1-3-6(4-7-6)5-8-2/h7H,3-5H2,1-2H3/t6-/m0/s1
