19
gdb 48265	2.61999	1.03317	0.79083	2.3514	82.7	-0.249	-0.0288	0.2202	1446.6285	0.156294	-385.84891	-385.839114	-385.83817	-385.884617	35.179	
O	-0.3214061994	 0.1643750392	-0.161118063	-0.246131
C	-0.1158467914	 1.3430862836	-0.0689028968	 0.184921
C	 1.277622436	 1.9787143397	-0.0061319023	-0.253613
C	 1.5337664162	 2.8548116381	-1.2656701068	-0.226929
C	 1.5627747823	 2.05530936	-2.54901503	 0.027882
C	 0.2997955004	 1.8092172131	-3.3390829605	-0.249265
C	 1.3564320947	 2.7431413956	-3.8743293232	-0.288331
C	 1.370097399	 2.7670633093	 1.2173082723	 0.288713
C	 1.3986674457	 3.430755681	 2.2194603484	-0.431141
H	-0.94441053	 2.0849811281	-0.0186283818	 0.08517
H	 2.0000240295	 1.1546865375	 0.0174012368	 0.123519
H	 0.7600835471	 3.6308280766	-1.3210191648	 0.109223
H	 2.484305035	 3.3785727083	-1.1150098859	 0.120889
H	 2.2818950541	 1.239782937	-2.5479885315	 0.090451
H	 0.1689607648	 0.8436721458	-3.8137096666	 0.122176
H	-0.6228032238	 2.2505914892	-2.9759035635	 0.111618
H	 1.1436568178	 3.807319289	-3.8646559661	 0.113049
H	 1.9528639665	 2.4191982799	-4.7197970187	 0.11592
H	 1.4447203754	 4.0063056591	 3.1108644741	 0.201879
52.9038	70.6226	91.4384	114.617	179.9502	241.7583	280.9211	343.6885	405.9726	464.1647	497.3407	549.2351	635.2312	649.3802	774.9736	799.0491	836.1126	857.883	928.1152	947.8607	959.7492	1004.4639	1053.8727	1069.5689	1083.5172	1086.6113	1137.5735	1147.9443	1197.4333	1228.7086	1237.5141	1274.1119	1314.4673	1344.559	1412.6388	1421.5718	1468.8532	1485.1965	1507.2948	1840.8579	2232.3595	2880.4216	3030.4285	3049.5139	3072.617	3130.6769	3134.9638	3138.0987	3209.8086	3225.0133	3503.725
O=CC(CC1CC1)C#C	O=C[C@@H](CC1CC1)C#C	
InChI=1S/C8H10O/c1-2-7(6-9)5-8-3-4-8/h1,6-8H,3-5H2	InChI=1S/C8H10O/c1-2-7(6-9)5-8-3-4-8/h1,6-8H,3-5H2/t7-/m1/s1
