18
gdb 88490	2.52823	1.29695	1.13647	2.5045	78.61	-0.2493	0.0242	0.2736	1171.8426	0.145459	-401.861507	-401.852432	-401.851488	-401.895415	34.032	
C	 0.8525512903	 1.2614744352	-0.7355048018	-0.411688
C	 0.1810833297	 0.0537374953	-0.1284670487	 0.017204
N	 1.0312886547	-1.1017568755	 0.2178281891	-0.341148
C	 0.3354097544	-0.3861437592	 1.288081553	-0.146829
C	 1.1828066157	 0.3083707062	 2.3284571905	 0.241974
C	 2.4704475947	-0.2926003828	 2.7453237376	-0.211862
O	 2.4381230939	 0.8540846325	 1.9028379829	-0.25748
C	 0.4354637531	 1.1160072287	 3.2656373446	 0.281691
C	-0.2218411154	 1.7721275471	 4.028602879	-0.420088
H	 1.8422248444	 1.4106241236	-0.3054165334	 0.160668
H	 0.9556501596	 1.1291974253	-1.8180275074	 0.114146
H	 0.252259192	 2.1612717766	-0.5628671084	 0.117084
H	-0.7910609092	-0.1824444388	-0.5620274504	 0.083766
H	 0.5627377905	-1.9795489164	 0.0133173415	 0.232193
H	-0.5363331842	-0.8584206687	 1.7393210293	 0.089511
H	 2.8371866738	-0.1215468515	 3.7553092971	 0.120453
H	 2.7802055458	-1.2130290768	 2.2552238263	 0.131642
H	-0.7895683038	 2.3600763892	 4.7068899093	 0.198763
52.6889	134.5657	162.9803	206.2854	229.0183	242.8529	311.1234	387.652	474.936	488.8056	545.9947	586.0851	621.3628	667.7307	703.1031	791.8073	833.0734	872.9052	904.7141	955.1832	964.1587	1017.7421	1032.9851	1082.8081	1131.5504	1144.2606	1170.5331	1195.3796	1203.0143	1254.0328	1270.1992	1360.4783	1397.9938	1427.514	1466.76	1498.2619	1501.6688	1503.9029	2238.8648	3038.5678	3093.9821	3095.2122	3097.6529	3116.13	3165.7955	3194.5855	3501.9173	3510.429
CC1NC1C1(CO1)C#C	C[C@H]1N[C@H]1[C@]1(CO1)C#C	
InChI=1S/C7H9NO/c1-3-7(4-9-7)6-5(2)8-6/h1,5-6,8H,4H2,2H3	InChI=1S/C7H9NO/c1-3-7(4-9-7)6-5(2)8-6/h1,5-6,8H,4H2,2H3/t5-,6-,7-/m1/s1
