23
gdb 104217	2.53332	1.26724	1.17221	1.4152	85.84	-0.2477	0.0689	0.3167	1237.3511	0.20427	-388.272499	-388.26272	-388.261776	-388.306597	37.894	
C	-0.0409839424	 1.5531187735	 0.0817241964	-0.413673
C	-0.1018925898	 0.0316719848	-0.0980053407	-0.210226
C	 0.7132567607	-0.4982598146	-1.284938591	 0.334766
O	 0.2642661405	 0.0486701193	-2.5111156401	-0.484234
C	 2.2607298571	-0.4940154138	-1.0441856785	-0.280421
C	 2.1971569625	-2.0173858945	-0.7313610014	-0.311885
C	 0.7886181181	-2.0340949371	-1.3346597757	 0.355636
C	-0.3168900245	-3.0336549423	-1.1673311533	-0.343135
C	 0.3559024837	-2.8578278339	-2.5094786782	-0.313752
H	 0.9890736249	 1.9084329044	 0.1945909631	 0.121152
H	-0.489829193	 2.0824026123	-0.7672639686	 0.109657
H	-0.596169936	 1.8624869113	 0.9720760247	 0.120544
H	 0.2551934588	-0.4590486805	 0.8152686584	 0.098099
H	-1.1447586444	-0.2794495264	-0.2316388172	 0.100091
H	 0.264995458	 1.0082511272	-2.4341521881	 0.275054
H	 2.784988686	-0.2886453183	-1.9799269003	 0.106479
H	 2.6482308778	 0.1617813186	-0.2601443806	 0.088284
H	 2.9458161744	-2.6474806115	-1.2180548552	 0.099605
H	 2.2101348701	-2.2302066668	 0.3424097534	 0.09882
H	-0.1064366649	-3.9332945352	-0.5970288187	 0.106208
H	-1.3326148595	-2.6662670698	-1.0580719815	 0.110476
H	-0.1963941764	-2.3522720396	-3.293327693	 0.128666
H	 1.0259715681	-3.6393830068	-2.8544939839	 0.10379
85.9058	113.2539	160.0903	208.0388	219.54	252.0476	274.1343	306.1693	344.7862	411.5633	447.9649	501.5276	576.8507	680.4408	747.9416	779.96	785.6854	862.2655	887.9347	905.6782	925.2684	941.921	957.0982	990.0407	1011.0535	1029.9921	1051.8414	1074.2094	1087.4499	1137.931	1181.9691	1189.0334	1190.4272	1219.605	1236.6584	1258.2107	1264.519	1304.0589	1331.3055	1362.9971	1402.4465	1413.1464	1462.7041	1472.4908	1476.5157	1497.0067	1499.975	1504.1107	1509.8361	3026.4071	3030.7084	3046.1957	3061.0115	3064.5478	3091.9545	3094.7365	3105.7405	3120.0469	3123.1388	3128.2127	3199.5909	3221.9823	3814.2522
CCC1(O)CCC11CC1	CC[C@@]1(O)CCC21CC2	
InChI=1S/C8H14O/c1-2-8(9)6-5-7(8)3-4-7/h9H,2-6H2,1H3	InChI=1S/C8H14O/c1-2-8(9)6-5-7(8)3-4-7/h9H,2-6H2,1H3/t8-/m1/s1
