23
gdb 58473	2.34939	1.24782	1.09663	1.4778	82.03	-0.243	0.0702	0.3132	1272.1972	0.201649	-425.416363	-425.405169	-425.404225	-425.451843	41.998	
C	-0.3308076001	 1.4692391481	 0.0690763176	-0.411077
C	 0.0621682659	-0.0055704421	-0.0572112585	 0.071653
O	 0.7800932876	-0.2456196678	-1.2677154516	-0.438362
C	 0.8155853312	-0.5392668088	 1.1616828446	 0.300575
C	 2.0593482501	 0.2444457259	 1.5482291456	-0.477308
C	-0.0165482657	-1.144929954	 2.2863309393	-0.403962
C	 0.8241424632	-2.033673742	 1.394043309	 0.360428
C	 0.1889647939	-3.0193278056	 0.4365909658	-0.440257
O	 2.030212202	-2.5202288816	 1.9377328837	-0.465108
H	 0.5518958889	 2.116307548	 0.1145845405	 0.111532
H	-0.9233105736	 1.7693888541	-0.7992587031	 0.120952
H	-0.9212816061	 1.6442130135	 0.9742855519	 0.118009
H	-0.8583009121	-0.5845736863	-0.1788719962	 0.079602
H	 1.5854859872	 0.2818476725	-1.2423320036	 0.277922
H	 1.8036934568	 1.2427874795	 1.9172888582	 0.113427
H	 2.6198619282	-0.2785862489	 2.3225292738	 0.140045
H	 2.7366447214	 0.3647824032	 0.6933081046	 0.100643
H	 0.331641607	-0.9907668395	 3.302593349	 0.105776
H	-1.0970395704	-1.1677407015	 2.1761091128	 0.102492
H	-0.7812959465	-2.6819349981	 0.0671973555	 0.118585
H	 0.8423453737	-3.1932563674	-0.4224828585	 0.137482
H	 0.0261986022	-3.9775588029	 0.9461779531	 0.097496
H	 1.8120670552	-3.2715334381	 2.4999944965	 0.279454
58.7179	121.1615	166.9977	180.2745	207.777	235.2951	240.9413	263.4061	273.9537	310.4974	324.5959	364.7921	406.9554	456.6788	474.6894	526.1971	556.5841	690.5875	736.065	852.4351	909.6623	914.2867	925.0532	957.1904	985.1724	1034.8923	1039.1443	1063.6017	1095.3155	1106.1031	1124.5219	1169.1979	1222.2213	1275.1467	1301.9377	1310.1833	1355.5356	1396.8432	1403.144	1410.5015	1419.2618	1429.988	1475.5645	1486.0465	1488.6638	1491.3364	1497.8216	1505.9665	1508.6131	3025.1167	3027.0379	3035.1724	3058.8265	3084.6899	3098.4853	3104.5206	3116.5037	3118.5347	3133.8222	3150.009	3205.6251	3796.0541	3807.9528
CC(O)C1(C)CC1(C)O	C[C@@H](O)[C@@]1(C)C[C@]1(C)O	
InChI=1S/C7H14O2/c1-5(8)6(2)4-7(6,3)9/h5,8-9H,4H2,1-3H3	InChI=1S/C7H14O2/c1-5(8)6(2)4-7(6,3)9/h5,8-9H,4H2,1-3H3/t5-,6-,7+/m1/s1
