17
gdb 19825	4.67253	1.73221	1.6098	2.0267	66.66	-0.2241	0.065	0.2891	837.7401	0.143251	-363.778874	-363.77226	-363.771316	-363.809265	26.82	
O	-0.0206898393	 1.3942519148	-0.0815334871	-0.440579
C	 0.0583961214	-0.0129369473	 0.0093036442	 0.114572
C	 0.2873510214	-0.5731828538	 1.4583446273	-0.294175
C	-1.1369219616	-1.1907947434	 1.4366695685	 0.033925
C	-1.3669233534	-0.6252033306	 0.0185913365	-0.037411
C	-1.5268128093	-2.0822687903	-0.4416158412	-0.039519
C	-0.3872681014	-2.9480918387	-0.0871613791	-0.247528
N	-1.3581733323	-2.6266530997	 0.9743111146	-0.149679
H	 0.8608863519	 1.7536725959	 0.0630653826	 0.281625
H	 0.7301582434	-0.4222031951	-0.7587237389	 0.065582
H	 1.1301277556	-1.251758605	 1.6149377893	 0.104149
H	 0.3549359595	 0.2466313276	 2.178806849	 0.107434
H	-1.7908655508	-0.9784737039	 2.2811885726	 0.084809
H	-2.1791100643	 0.0559506321	-0.227363759	 0.084712
H	-2.3318495027	-2.4308223346	-1.0814272505	 0.094845
H	-0.4486421544	-3.9897596579	-0.388992815	 0.121336
H	 0.6277991062	-2.5666606302	-0.0466401436	 0.115902
149.5778	267.8661	289.8022	324.4797	356.3088	465.6967	533.1155	669.2358	716.2366	721.8075	804.1337	848.3793	869.8023	905.637	923.2761	950.8361	986.826	1021.7238	1045.395	1058.9166	1105.7796	1118.426	1139.973	1158.0707	1170.6258	1205.9732	1216.8326	1239.2915	1252.8614	1281.2704	1301.0325	1328.302	1361.1219	1420.5776	1458.2941	1510.9018	2991.9649	3056.2511	3109.7788	3119.1152	3123.5287	3136.5739	3154.5457	3201.7601	3808.1888
OC1CC2C1C1CN21	O[C@H]1C[C@H]2[C@@H]1[C@H]1CN21	
InChI=1S/C6H9NO/c8-5-1-3-6(5)4-2-7(3)4/h3-6,8H,1-2H2	InChI=1S/C6H9NO/c8-5-1-3-6(5)4-2-7(3)4/h3-6,8H,1-2H2/t3-,4+,5-,6+,7?/m0/s1
