21
gdb 115666	2.45853	0.94944	0.74233	1.882	87.94	-0.2436	0.0461	0.2896	1611.3425	0.18049	-387.055668	-387.045103	-387.044159	-387.093983	36.34	
C	 0.0108073373	 1.6073384626	 0.1656268748	-0.386354
C	-0.0212072304	 0.0802563261	 0.0544925249	-0.186206
C	 0.8851176981	-0.5795451209	 1.0777037899	 0.154519
O	 0.4731569957	-0.3136497199	 2.4412010868	-0.289675
C	 0.2146813063	-1.7028621969	 2.702304873	-0.073666
C	 0.7539221112	-2.1235171029	 1.3074057025	-0.271301
C	-0.1100040094	-2.9020562831	 0.4447285728	 0.110035
C	-0.836167257	-3.5537412685	-0.2625441658	 0.044872
C	-1.7094594149	-4.3439993461	-1.1185380185	-0.497826
H	 1.0150418376	 1.9997704393	-0.0304518707	 0.111039
H	-0.6745423129	 2.0698459704	-0.5506915345	 0.110023
H	-0.2812785806	 1.9217500197	 1.1715615932	 0.136456
H	-1.043186574	-0.2899465178	 0.1920100079	 0.105418
H	 0.2963510667	-0.2418086714	-0.9454783429	 0.098906
H	 1.9240823729	-0.2550917477	 0.925945513	 0.073183
H	 0.7829754832	-2.0761403196	 3.5620895127	 0.103415
H	-0.8514270927	-1.9073509999	 2.8550762983	 0.106278
H	 1.7374009312	-2.5964835442	 1.3802458355	 0.104583
H	-1.9833808926	-3.7918974595	-2.0244384294	 0.149167
H	-1.2247521053	-5.2751114733	-1.4324298065	 0.148397
H	-2.6378997203	-4.6115941664	-0.601919077	 0.148738
12.5905	49.996	74.7649	101.9026	137.8194	193.2045	228.3007	276.1394	306.6444	385.1268	443.0414	475.3011	546.6792	695.401	754.7279	826.9172	869.6811	925.4932	954.0165	984.9155	1022.7235	1048.0793	1052.5532	1055.5849	1073.467	1110.9408	1153.4998	1165.9307	1199.9055	1225.2091	1268.6421	1288.3626	1328.795	1355.6726	1367.5497	1403.9795	1410.9582	1415.1998	1473.5407	1478.0674	1478.692	1497.8338	1510.0263	1526.2271	2366.1425	3000.4763	3020.1473	3025.9297	3030.4098	3034.6881	3055.6361	3070.9393	3073.8571	3086.5187	3086.6702	3102.1559	3118.4598	12.5889	49.9998	74.7654	101.9038	137.82	193.2048	228.3013	276.1394	306.6437	385.1261	443.0416	475.3007	546.6787	695.401	754.7279	826.9171	869.6811	925.4935	954.0164	984.9154	1022.7237	1048.0794	1052.5532	1055.585	1073.4669	1110.9405	1153.4996	1165.9306	1199.9053	1225.2089	1268.6412	1288.362	1328.7944	1355.6721	1367.5495	1403.979	1410.9576	1415.2001	1473.5399	1478.0677	1478.6922	1497.8335	1510.0258	1526.2269	2366.1423	3000.4764	3020.1474	3025.9297	3030.4098	3034.6882	3055.6362	3070.9394	3073.8571	3086.5186	3086.6703	3102.1559	3118.4598
CCC1OCC1C#CC	CC[C@H]1OC[C@H]1C#CC	
InChI=1S/C8H12O/c1-3-5-7-6-9-8(7)4-2/h7-8H,4,6H2,1-2H3	InChI=1S/C8H12O/c1-3-5-7-6-9-8(7)4-2/h7-8H,4,6H2,1-2H3/t7-,8-/m1/s1
