18
gdb 131820	5.54908	0.66666	0.65103	7.1665	73.16	-0.2473	0.0184	0.2657	1702.4563	0.148602	-435.270227	-435.261219	-435.260274	-435.306171	31.162	
O	-0.0594602205	 1.4500025088	 0.010408714	-0.415439
C	 0.0338912678	 0.0374670369	 0.0016408726	-0.070442
C	-1.387462417	-0.5132845906	 0.012840647	-0.172707
C	-1.4141689583	-2.0447522428	 0.0048182615	-0.191337
N	-2.7657126451	-2.5879517186	 0.0146717941	 0.000322
C	-3.5523645601	-2.8749034848	 1.0951925356	 0.016576
N	-4.7307430142	-3.3023052635	 0.7197391328	-0.222804
N	-4.7418551145	-3.2996754794	-0.6614052707	-0.222835
C	-3.5696678742	-2.8707952289	-1.0541268947	 0.016581
H	 0.8305407635	 1.8143272222	 0.0030037286	 0.291148
H	 0.5680871675	-0.3255293866	-0.8925183777	 0.089841
H	 0.5859093942	-0.335331104	 0.8808260176	 0.089841
H	-1.908499244	-0.1380045832	 0.9001165842	 0.125982
H	-1.9260907763	-0.1285014349	-0.8597501585	 0.12604
H	-0.9040827481	-2.4356036261	-0.8817144577	 0.130988
H	-0.8871268113	-2.4451798362	 0.8770818226	 0.131021
H	-3.2139244265	-2.7611821742	 2.1138982632	 0.138612
H	-3.2475663931	-2.7532810639	-2.0776897646	 0.13861
24.5717	74.1365	83.5676	103.8536	225.5168	266.0984	326.676	329.4325	464.8338	654.5881	696.8461	740.5024	760.2005	816.7107	846.4895	869.3204	958.6719	1021.8507	1027.9176	1041.2868	1086.0603	1093.723	1114.8708	1206.3874	1210.6663	1233.7674	1241.3099	1290.0324	1310.9693	1316.5513	1383.3577	1399.0405	1405.6587	1469.2936	1484.4332	1497.6852	1501.4445	1529.3172	1553.8055	2954.4338	2978.8724	3043.7671	3053.6471	3080.3577	3105.2306	3257.7993	3262.0948	3831.1824
OCCCN1C=NN=C1	OCCCn1cnnc1	
InChI=1S/C5H9N3O/c9-3-1-2-8-4-6-7-5-8/h4-5,9H,1-3H2	InChI=1S/C5H9N3O/c9-3-1-2-8-4-6-7-5-8/h4-5,9H,1-3H2
