23
gdb 121255	3.87597	0.86591	0.78033	1.5006	84.85	-0.2261	0.0829	0.3091	1562.526	0.206618	-388.284538	-388.27543	-388.274486	-388.318774	34.803	
C	-0.0384692106	 1.5856816609	-0.0205427024	-0.380197
C	 0.0340135955	 0.0564881546	-0.0097760088	-0.168907
C	 0.7315409688	-0.5019149677	 1.2375104251	-0.179539
C	 0.7817506452	-2.032726235	 1.2893579941	-0.007546
C	 1.6291210104	-2.6740898487	 0.1603168693	-0.102222
O	 2.1607403487	-3.8960351257	 0.6679545331	-0.259159
C	 2.2380361257	-3.7862405726	 2.0662580419	 0.11466
C	 2.9282002869	-2.5858309572	 2.6608354579	-0.330782
C	 1.410509118	-2.6317206261	 2.5430422494	-0.095096
H	 0.9630303163	 2.0296130978	 0.001935649	 0.114416
H	-0.5463749966	 1.9561704503	-0.9164285955	 0.111816
H	-0.5844712718	 1.9620350368	 0.8518391265	 0.114108
H	-0.9805182633	-0.3597276298	-0.0712017426	 0.094963
H	 0.5571778861	-0.2877804834	-0.9113423577	 0.100163
H	 1.7543929483	-0.1051107746	 1.2955511803	 0.09281
H	 0.2129595853	-0.1325554914	 2.1321381547	 0.092743
H	-0.2446861596	-2.418787128	 1.2244884023	 0.074442
H	 1.0548595195	-2.9099939199	-0.7394813554	 0.110118
H	 2.4448018047	-1.9945757619	-0.1320807641	 0.091369
H	 2.2791244071	-4.7557290912	 2.5482278215	 0.098807
H	 3.3473683108	-2.6966573118	 3.6552106543	 0.111438
H	 3.4971617036	-1.9291269682	 2.0113765721	 0.115694
H	 0.814043791	-2.6839103572	 3.4466063051	 0.085901
78.7725	93.422	113.2083	184.5578	242.8188	265.6484	308.8227	369.2614	417.4842	508.449	650.0739	695.6544	744.3713	766.3853	804.6347	852.7964	887.7377	898.8532	946.4916	964.4642	974.5628	1019.8873	1025.8343	1039.083	1051.2962	1077.4397	1092.0305	1100.2614	1137.2968	1165.121	1179.5061	1200.1878	1239.5257	1262.4669	1292.4991	1314.1111	1322.7133	1335.4248	1359.1142	1384.634	1395.5482	1406.5105	1413.9199	1477.5219	1483.0847	1493.1166	1499.4727	1509.6901	1523.5579	2978.7502	3006.6646	3009.917	3018.3183	3029.3223	3034.5084	3058.2761	3086.0652	3095.5741	3101.7461	3132.3893	3170.781	3185.9454	3217.2937
CCCC1COC2CC12	CCC[C@H]1CO[C@H]2C[C@@H]12	
InChI=1S/C8H14O/c1-2-3-6-5-9-8-4-7(6)8/h6-8H,2-5H2,1H3	InChI=1S/C8H14O/c1-2-3-6-5-9-8-4-7(6)8/h6-8H,2-5H2,1H3/t6-,7-,8-/m0/s1
