13
gdb 129896	5.60406	1.3403	1.08279	2.1761	68.83	-0.2	-0.0222	0.1778	1011.1554	0.092701	-445.088722	-445.082024	-445.08108	-445.119507	26.136	
N	 0.0262624549	 1.3521882366	 0.163150036	-0.5903
C	-0.0319681083	-0.0268161486	 0.0560803379	 0.315002
C	-1.1614667325	-0.8341032708	 0.0330142838	-0.234419
N	-0.6272596085	-2.1163765473	-0.0093767522	 0.048046
N	-0.9971668246	-3.417507248	-0.0558582823	-0.145565
N	 0.084718319	-4.1169836623	-0.0840978709	-0.084441
N	 1.1551267751	-3.2710593435	-0.0580208448	-0.371884
C	 0.730310753	-1.9843290677	-0.0105784502	 0.560488
N	 1.1556085142	-0.7433900279	 0.0252701395	-0.44217
H	 0.9132515028	 1.7214838685	-0.1497304657	 0.257581
H	-0.7549378973	 1.8450248121	-0.2439527576	 0.251062
H	-2.2161242591	-0.6344435392	 0.0579132508	 0.1381
H	 2.0872602913	-3.6459168318	-0.0714308844	 0.2985
163.0266	269.9877	324.0855	325.3943	338.4938	436.0018	530.3941	574.4665	581.7399	628.2825	673.988	725.6237	748.517	811.1757	887.7775	994.6712	1022.7743	1035.4132	1088.1137	1180.6417	1243.7452	1310.7181	1363.1457	1396.5991	1429.3576	1464.527	1582.5334	1645.9494	1669.6854	3311.8428	3564.4429	3667.3676	3700.4006
NC1=CN2N=NNC2=N1	Nc1cn2nn[nH]c2n1	
InChI=1S/C3H4N6/c4-2-1-9-3(5-2)6-7-8-9/h1H,4H2,(H,5,6,8)	InChI=1S/C3H4N6/c4-2-1-9-3(5-2)6-7-8-9/h1H,4H2,(H,5,6,8)
