21
gdb 92660	2.24021	1.78297	1.45751	2.2797	77.23	-0.228	0.0631	0.2911	1025.1791	0.184692	-424.212206	-424.203997	-424.203052	-424.244835	32.303	
O	-0.6647460689	 1.3255702892	 0.8849204919	-0.418525
C	-0.1625272058	 0.1758571096	 0.2349541923	 0.071886
C	 0.4682330618	-0.9122193317	 1.1561008401	-0.274512
C	-0.7605776179	-1.8468135437	 0.9284905381	-0.038035
C	-1.7207596371	-2.0274429489	 2.1077463804	-0.21015
C	-2.4264945096	-0.7082538432	 2.4376646294	-0.236584
C	-3.2284533954	-0.1920337844	 1.2367295869	-0.03791
O	-2.6448767754	-0.4432939041	-0.0469443673	-0.270718
C	-1.3058950278	-0.8344983337	-0.1286978428	 0.139721
H	 0.0859252206	 1.8372662955	 1.2028960007	 0.284461
H	 0.460347713	 0.4631998949	-0.6234937029	 0.063257
H	 1.4103198094	-1.3190610929	 0.7797782571	 0.097335
H	 0.6222577038	-0.5841877981	 2.1886323792	 0.095406
H	-0.4956487445	-2.8213110245	 0.5096037108	 0.064004
H	-2.4693673303	-2.7866603741	 1.8469578299	 0.097989
H	-1.1775418857	-2.4069365066	 2.9815530985	 0.092103
H	-3.111690518	-0.8334476093	 3.2829769649	 0.091547
H	-1.6890778772	 0.0436969642	 2.7297360325	 0.113084
H	-4.2074110491	-0.6883912459	 1.2075866641	 0.092521
H	-3.4012961045	 0.8860965111	 1.3365348906	 0.102856
H	-1.1787638212	-1.1918144334	-1.1548013044	 0.080263
86.1792	128.0776	220.5237	236.7194	267.0891	345.366	406.6016	432.9759	484.6954	570.2524	631.3946	739.3399	763.196	815.6448	844.8538	863.179	893.2497	917.3155	939.1346	991.4292	1028.5651	1043.795	1072.6454	1103.3802	1130.512	1154.6012	1169.2571	1195.593	1221.9194	1237.9372	1248.0951	1277.1611	1285.9245	1304.6949	1324.2998	1349.4404	1363.6271	1389.9845	1391.0658	1420.2059	1431.8482	1471.6	1487.8867	1495.7768	1516.6946	2994.2519	3010.2968	3018.1516	3045.7514	3049.607	3050.6498	3053.8829	3059.1666	3069.4991	3102.4567	3107.3255	3815.806
OC1CC2CCCOC12	O[C@H]1C[C@H]2CCCO[C@@H]12	
InChI=1S/C7H12O2/c8-6-4-5-2-1-3-9-7(5)6/h5-8H,1-4H2	InChI=1S/C7H12O2/c8-6-4-5-2-1-3-9-7(5)6/h5-8H,1-4H2/t5-,6+,7-/m1/s1
