20
gdb 45367	2.80656	1.56445	1.37131	3.9088	77.64	-0.234	0.0332	0.2672	1025.9069	0.175631	-403.216363	-403.209075	-403.208131	-403.248181	29.719	
O	-0.0125267357	-0.11756496	-0.0283517105	-0.378376
C	-0.030365735	 1.0981788968	 0.0162229432	 0.387522
C	-1.3374481173	 1.8950687146	 0.0678299848	-0.317283
C	-1.1745727256	 3.4028300445	-0.1899307111	-0.018641
C	-0.6854637735	 3.6948530947	-1.6374719935	-0.212353
C	 0.8718270874	 3.7232354056	-1.5518329894	-0.206185
C	 1.172102224	 3.2991121666	-0.0949008234	 0.008736
C	-0.0056439895	 3.9126132487	 0.6732364095	-0.217001
N	 1.1184009571	 1.8445176772	 0.0659950877	-0.295108
H	-2.0209669712	 1.4313251192	-0.6498512168	 0.12575
H	-1.7704920853	 1.7201359221	 1.0604881908	 0.125064
H	-2.1175734014	 3.9125763726	 0.0249123669	 0.068523
H	-1.0478708819	 2.9406141502	-2.3415580989	 0.106652
H	-1.0682074452	 4.6589669521	-1.9836364332	 0.101583
H	 1.353780064	 3.0562391199	-2.2705517899	 0.102653
H	 1.2554475394	 4.7327015389	-1.7326786764	 0.099784
H	 2.1496500283	 3.6387989176	 0.2548796501	 0.075357
H	 0.0607218661	 5.0052376518	 0.6524906145	 0.098224
H	-0.0509585232	 3.5843882094	 1.7151610682	 0.103201
H	 1.9651158285	 1.3087175977	-0.0615254725	 0.241898
86.6273	119.0971	334.6049	380.0266	403.208	444.0282	483.5282	513.7014	580.5621	641.464	726.0574	765.9463	796.4704	827.8076	853.212	880.2322	899.0345	942.2855	969.8182	996.6085	1014.7695	1053.4347	1073.7671	1099.6522	1146.8316	1173.8309	1194.3533	1211.1911	1259.2517	1272.0766	1304.5488	1308.8797	1320.8938	1347.5198	1349.7247	1372.5958	1397.6004	1455.1535	1468.526	1485.0025	1491.1602	1510.3999	1791.1399	3039.3579	3046.2832	3049.8695	3057.0311	3071.0609	3085.6571	3088.5668	3090.7451	3103.615	3109.9464	3604.1952
O=C1CC2CCC(C2)N1	O=C1C[C@@H]2CC[C@@H](C2)N1	
InChI=1S/C7H11NO/c9-7-4-5-1-2-6(3-5)8-7/h5-6H,1-4H2,(H,8,9)	InChI=1S/C7H11NO/c9-7-4-5-1-2-6(3-5)8-7/h5-6H,1-4H2,(H,8,9)/t5-,6+/m1/s1
