22
gdb 15830	4.28159	0.95593	0.83468	1.4314	78.9	-0.258	0.077	0.335	1452.7751	0.19881	-350.197235	-350.18744	-350.186496	-350.232266	35.552	
C	-0.0079108563	 1.5455313521	-0.0851400666	-0.382026
C	-0.0011396808	 0.0180980203	 0.0134835367	-0.164024
C	-1.4038349535	-0.5947726228	-0.0394206669	-0.177004
C	-1.4159637355	-2.1202759857	 0.1281675776	 0.105066
O	-0.807072703	-2.5154887383	 1.3596129431	-0.432271
C	-2.8086450778	-2.6965010915	-0.0192440236	 0.009972
C	-3.3141286678	-3.1346470554	-1.3720636228	-0.266178
C	-2.9909783184	-4.1605961025	-0.315126823	-0.27167
H	 1.0077538643	 1.9520075623	-0.0484580888	 0.110928
H	-0.4676177227	 1.883540827	-1.0209258425	 0.110654
H	-0.5744383472	 1.9940764926	 0.7389852901	 0.110138
H	 0.6032697453	-0.3995334062	-0.8029475695	 0.091447
H	 0.4851196339	-0.2985735299	 0.9422037515	 0.108964
H	-2.0308932645	-0.1518996125	 0.7502661782	 0.077878
H	-1.8916984126	-0.342152427	-0.9900148596	 0.096424
H	-0.772000293	-2.5669668622	-0.6416187323	 0.077342
H	-1.3805602845	-2.2177421409	 2.0745641135	 0.273442
H	-3.5469907827	-2.2404512021	 0.6392126249	 0.071317
H	-4.3542485078	-2.9523018592	-1.6184635552	 0.110349
H	-2.6384987845	-3.046109045	-2.2170211242	 0.111209
H	-2.0948075645	-4.7586962486	-0.4414062142	 0.118863
H	-3.8114459962	-4.6860507445	 0.1607941734	 0.109179
59.6996	84.8616	105.4654	128.8503	222.7992	246.3902	254.9469	282.872	335.67	392.6661	487.2346	537.5386	746.7103	771.7066	828.7337	842.4925	868.0735	901.3949	936.0846	948.9816	992.483	1045.1086	1057.2048	1076.2075	1083.5394	1104.9444	1118.9702	1134.3478	1173.426	1196.0069	1226.1602	1242.9662	1280.3458	1293.7219	1327.9149	1352.7153	1393.4744	1409.4153	1413.0827	1431.4034	1470.6742	1477.0507	1494.0499	1500.0641	1506.7446	1511.2603	2988.5191	3018.4675	3022.9181	3027.0406	3043.2744	3070.8804	3095.3267	3099.7761	3111.8626	3128.8394	3135.7986	3206.9204	3222.6619	3798.6015
CCCC(O)C1CC1	CCC[C@@H](O)C1CC1	
InChI=1S/C7H14O/c1-2-3-7(8)6-4-5-6/h6-8H,2-5H2,1H3	InChI=1S/C7H14O/c1-2-3-7(8)6-4-5-6/h6-8H,2-5H2,1H3/t7-/m1/s1
