15
gdb 27085	3.45004	1.08895	0.83005	4.9137	74.42	-0.1867	0.0257	0.2124	1301.1722	0.114268	-450.155885	-450.147438	-450.146494	-450.189476	30.622	
O	-0.3894840631	 1.3159981764	-0.0235080158	-0.432126
C	-0.0498502308	-0.001397351	 0.0209112127	 0.191611
C	 0.0157510911	-0.9721411375	-0.9480856771	 0.320322
N	-0.2021643282	-0.8069583396	-2.308434083	-0.389081
C	-0.0353225451	-1.7743185087	-3.2657710075	 0.090739
N	-0.304735144	-1.5354458667	-4.4905552327	-0.497566
N	 0.3404725102	-2.1825819204	-0.3908484475	-0.321594
C	 0.4598124432	-1.9585310684	 0.901471582	 0.010812
N	 0.2342934506	-0.6561465505	 1.2108591579	-0.288677
H	 0.3894791056	 1.8472684396	-0.2309449188	 0.307876
H	-0.5715860039	 0.077657345	-2.6241355231	 0.253446
H	 0.3384806264	-2.7113861868	-2.8463310565	 0.126815
H	-0.1169432627	-2.362092986	-5.0529889282	 0.219378
H	 0.7022293892	-2.7006131289	 1.6464156661	 0.136123
H	 0.2169236914	-0.2336636467	 2.1238529515	 0.271922
65.8806	114.6957	138.0351	254.4305	262.624	299.7728	331.9298	442.9189	470.8656	549.0569	573.5963	648.9748	681.7816	723.5291	777.6733	798.7558	862.7273	956.7395	1070.4881	1093.2501	1116.6654	1148.5271	1223.9517	1279.2253	1325.3309	1337.3732	1393.1199	1399.4658	1436.3466	1508.2197	1527.1408	1691.0792	1734.6073	3109.1342	3257.1992	3514.1944	3620.6408	3668.8041	3748.9745
OC1=C(NC=N)N=CN1	Oc1c(NC=N)nc[nH]1	
InChI=1S/C4H6N4O/c5-1-6-3-4(9)8-2-7-3/h1-2,9H,(H2,5,6)(H,7,8)	InChI=1S/C4H6N4O/c5-1-6-3-4(9)8-2-7-3/h1-2,9H,(H2,5,6)(H,7,8)
