22
gdb 71393	3.02728	1.41186	1.35883	1.4164	85.85	-0.2291	0.0908	0.3199	1109.7556	0.19324	-367.164145	-367.155308	-367.154363	-367.196728	35.344	
C	 0.048539168	 1.496260821	 0.091572529	-0.498453
C	-0.0381090308	 0.0035862842	 0.0504553873	 0.341386
C	-1.286227179	-0.8655820937	-0.1484154369	-0.309238
C	-0.3777297056	-2.0634413064	 0.2186041317	-0.111104
C	 0.5846243383	-1.0282232613	 0.9160904099	-0.104457
N	 1.1886305727	-0.7522025029	-0.4175082028	-0.205287
C	 0.690142421	-2.0931008623	-0.9103792779	 0.359417
C	 1.7711445301	-3.1393486483	-0.6472093565	-0.430806
C	 0.2698124798	-2.1183428327	-2.3754164243	-0.453803
H	 1.0524897789	 1.8146179587	 0.3847964425	 0.132291
H	-0.16603903	 1.9285855758	-0.8924727214	 0.121929
H	-0.6714216378	 1.9108708455	 0.8056854842	 0.11544
H	-2.0079124715	-0.6582317031	 0.6474359487	 0.100277
H	-1.8051236715	-0.8729691571	-1.1117678207	 0.091579
H	-0.7930820703	-2.9782064041	 0.6407166172	 0.064226
H	 1.1203357355	-0.9873162858	 1.8558228696	 0.090762
H	 2.0670624169	-3.1533137795	 0.4057139081	 0.114835
H	 1.408829667	-4.1383142147	-0.9128255373	 0.108476
H	 2.6624363419	-2.9282863319	-1.246249986	 0.120846
H	 1.152233102	-2.0164803798	-3.016069495	 0.121584
H	-0.2170333413	-3.0682501305	-2.6235767196	 0.112541
H	-0.4143646443	-1.3067488711	-2.62957473	 0.11756
154.3894	165.5045	187.6271	217.293	244.784	292.348	322.845	368.4527	400.5687	480.796	533.5216	593.761	654.8511	730.5561	778.9402	816.4009	873.8765	886.5901	924.6455	944.4299	946.5613	975.5918	997.895	1002.8872	1018.3441	1027.5032	1064.118	1137.9091	1150.721	1158.3174	1193.0941	1199.8736	1243.0155	1258.0136	1271.2625	1305.8383	1392.8615	1401.5848	1416.5651	1432.7715	1475.7445	1483.2066	1485.4867	1492.2077	1497.0308	1501.6258	1521.3142	3029.5357	3032.0448	3037.5753	3047.9104	3088.8312	3094.8605	3096.0656	3103.8404	3111.5412	3116.0769	3116.9928	3129.3645	3194.4783
CC12CC3C1N2C3(C)C	C[C@]12C[C@@H]3[C@H]1N2C3(C)C	
InChI=1S/C8H13N/c1-7(2)5-4-8(3)6(5)9(7)8/h5-6H,4H2,1-3H3	InChI=1S/C8H13N/c1-7(2)5-4-8(3)6(5)9(7)8/h5-6H,4H2,1-3H3/t5-,6-,8+,9?/m1/s1
