17
gdb 8464	2.90921	2.10614	1.56964	2.9374	70.53	-0.2528	0.0258	0.2786	883.4288	0.140944	-363.850707	-363.842697	-363.841753	-363.882658	30.076	
C	-0.0950612018	 1.4730380387	 0.0316604989	-0.489135
C	 0.0442597302	-0.0101574235	 0.0668609152	 0.420379
C	 1.1772622894	-0.8730653465	-0.3672992454	-0.371797
C	 0.619386038	-1.0057342675	 1.061531336	 0.123198
C	 1.438937195	-0.8818619018	 2.3105776195	-0.490679
C	-0.7143912198	-1.6682148377	 0.9368026232	 0.404126
N	-1.2908044339	-2.6108955286	 1.5294407066	-0.561483
O	-1.1834295271	-0.7996462131	-0.0468744098	-0.311063
H	 0.8670732909	 1.9490746356	 0.2415391632	 0.130525
H	-0.4275297279	 1.806743143	-0.9573644079	 0.139877
H	-0.8244663412	 1.8149191821	 0.7719151498	 0.13751
H	 1.0147320488	-1.6537835215	-1.1041812243	 0.126697
H	 2.1520880433	-0.3944839382	-0.4077889337	 0.120287
H	 2.2286154422	-0.1339079527	 2.189558108	 0.117852
H	 0.8178382508	-0.5916947222	 3.1633033566	 0.13463
H	 1.9172781612	-1.8355114636	 2.5566754713	 0.141556
H	-2.244724268	-2.7340952427	 1.1853000327	 0.22752
139.1714	161.4158	167.5597	202.5982	239.9877	337.0054	368.314	464.2771	505.9575	609.8762	655.4577	696.4584	744.6971	833.1722	867.6532	883.1363	953.4885	969.7257	974.5319	994.4199	1066.2026	1100.9153	1115.8466	1168.528	1190.216	1247.3042	1360.8396	1399.0162	1417.6592	1435.1498	1474.2645	1481.892	1493.0602	1497.8526	1514.4979	1828.112	3036.2369	3037.5519	3101.6893	3102.8047	3109.7244	3116.3105	3119.7316	3207.6645	3475.327
CC12CC1(C)C(=N)O2	C[C@@]12C[C@]1(C)[C]([NH])O2	
InChI=1S/C6H9NO/c1-5-3-6(5,2)8-4(5)7/h7H,3H2,1-2H3	InChI=1S/C6H9NO/c1-5-3-6(5,2)8-4(5)7/h7H,3H2,1-2H3/t5-,6-/m1/s1
