16
gdb 16746	4.18703	1.55416	1.48939	3.636	63.89	-0.2442	-0.017	0.2272	886.5501	0.130878	-383.74363	-383.736599	-383.735655	-383.775444	26.061	
O	-0.6291475716	 0.6103504121	 0.0234962579	-0.255438
C	-0.0706418557	 1.6774656146	 0.0511908817	 0.148186
C	 1.4374457891	 1.8475409379	-0.0079653084	-0.080781
C	 1.8570783858	 2.7318172316	-1.2249496475	-0.273677
C	 2.0757142453	 4.1142225037	-0.6497937657	 0.057456
O	 0.9802494022	 4.5715389376	 0.1590218336	-0.25572
C	 2.1413888133	 4.0356142643	 0.8131406772	 0.057418
C	 1.9685306562	 2.5986154404	 1.2544063262	-0.273586
H	-0.6355699667	 2.6309018098	 0.1240276431	 0.100681
H	 1.8599013439	 0.8433558913	-0.0806359513	 0.096407
H	 2.7925002373	 2.3626315327	-1.6597195844	 0.11608
H	 1.1065786993	 2.7274515588	-2.0226507279	 0.123454
H	 2.5819598394	 4.8845955134	-1.225634183	 0.099915
H	 2.7007606732	 4.7424103698	 1.4205124114	 0.099927
H	 1.2925080095	 2.50510928	 2.1110259907	 0.123572
H	 2.9373952595	 2.189552542	 1.5615112361	 0.116107
59.3779	117.088	264.5493	326.2561	345.9137	385.4846	455.3299	667.4514	762.9533	812.5024	833.3245	862.8517	910.9764	930.8131	941.9701	961.405	1009.1649	1035.9682	1080.8728	1116.3714	1127.7693	1197.027	1223.4047	1226.5158	1265.1697	1312.875	1313.2669	1327.5233	1349.984	1415.8142	1445.5745	1475.6445	1485.3363	1827.5448	2919.8197	3043.5405	3044.8675	3082.0318	3083.6663	3097.3315	3145.5846	3158.1031
O=CC1CC2OC2C1	O=C[C@H]1C[C@H]2O[C@H]2C1	
InChI=1S/C6H8O2/c7-3-4-1-5-6(2-4)8-5/h3-6H,1-2H2	InChI=1S/C6H8O2/c7-3-4-1-5-6(2-4)8-5/h3-6H,1-2H2/t4-,5+,6-
