14
gdb 20745	3.37377	2.3451	1.39521	1.8048	69.97	-0.2208	-0.0408	0.18	836.3972	0.109257	-374.891074	-374.884171	-374.883227	-374.922115	25.802	
C	-0.0455172861	 1.4766976478	 0.031188431	-0.461371
C	-0.0250593971	-0.0167028288	 0.0133808608	 0.345723
N	-0.0635733683	-0.6234328956	-1.1370131481	-0.262913
N	-0.0453477543	-1.9644054244	-1.1285358988	-0.099762
N	 0.0083870366	-2.7730076264	-0.0741214556	-0.186789
C	 0.0478698061	-2.196198035	 1.088672677	-0.03492
C	 0.0364407405	-0.7535260653	 1.2839614196	 0.18342
N	 0.0742890488	-0.1147243365	 2.4025218272	-0.537273
H	 0.8444175826	 1.8575040668	 0.5430794741	 0.149871
H	-0.0926165481	 1.8707976123	-0.9847043857	 0.129964
H	-0.9011822935	 1.8328566607	 0.6143492198	 0.149854
H	-0.0758462043	-2.4097351565	-2.0302185905	 0.29206
H	 0.0917345762	-2.860766202	 1.9477570266	 0.123185
H	 0.115307611	-0.7705325173	 3.1865010028	 0.208952
104.2687	171.9106	285.6178	296.1272	388.4442	452.0259	481.5442	530.7378	604.0378	614.1619	738.5741	779.3171	854.6162	905.1207	930.224	977.3575	1055.7095	1112.0646	1129.6249	1206.2671	1257.0124	1366.3729	1405.3339	1436.1066	1463.4337	1463.7774	1480.8	1602.559	1634.9206	1668.1699	3044.8539	3098.4876	3151.1317	3165.264	3434.0162	3668.087
CC1=NNN=CC1=N	Cc1n[nH]ncc1[NH]	
InChI=1S/C4H6N4/c1-3-4(5)2-6-8-7-3/h2H,1H3,(H2,5,8)	InChI=1S/C4H11N4/c1-3-4(5)2-6-8-7-3/h3-8H,2H2,1H3
