13
gdb 50063	3.02005	1.00164	0.93752	4.1425	68.07	-0.2652	-0.0916	0.1736	1253.7532	0.085032	-456.511569	-456.502829	-456.501885	-456.546297	30.06	
O	-0.0405354519	-0.0560992366	 0.5368912883	-0.241721
C	 0.5046869987	 0.5279652964	-0.3647769466	 0.133388
C	 1.330833108	 1.7579151063	-0.1205025783	-0.050013
O	 2.3235811962	 2.0593897692	-1.0942025849	-0.211469
C	 1.244883326	 2.9632254532	-1.0016194963	-0.054801
C	 0.2900031583	 3.0218219264	-2.1739111252	 0.248977
O	 0.2013009067	 2.1407301675	-2.9986080628	-0.285294
C	-0.5169761689	 4.2246035999	-2.2175567268	 0.252706
C	-1.1769223868	 5.2312412416	-2.2334822003	-0.408087
H	 0.4547465843	 0.2049849321	-1.4206088367	 0.132319
H	 1.6093489658	 1.9218059003	 0.9200581344	 0.129752
H	 1.4691486657	 3.9240446925	-0.5385039695	 0.126456
H	-1.7713667221	 6.1127848411	-2.2626822154	 0.227786
34.3069	82.7222	138.853	185.2077	234.4426	255.1802	332.554	360.9424	479.1262	502.5561	608.1878	666.0742	717.4448	749.4036	813.4568	882.9469	909.8509	1012.432	1039.0566	1085.8913	1128.0241	1148.8587	1255.1539	1331.3461	1393.5915	1445.7784	1771.6088	1820.0162	2213.1391	2982.8633	3118.6134	3134.5046	3490.5746
O=CC1OC1C(=O)C#C	O=C[C@H]1O[C@H]1C(=O)C#C	
InChI=1S/C6H4O3/c1-2-4(8)6-5(3-7)9-6/h1,3,5-6H	InChI=1S/C6H4O3/c1-2-4(8)6-5(3-7)9-6/h1,3,5-6H/t5-,6+/m1/s1
