17
gdb 20941	7.16636	1.09964	0.97256	1.4371	71.69	-0.1896	0.0351	0.2247	1194.0315	0.144361	-360.061672	-360.053733	-360.052789	-360.094667	28.892	
C	 0.017127049	 1.5363003464	-0.0261143692	-0.39563
C	-0.126061805	 0.0217200731	-0.136217072	-0.111294
N	 0.8481700792	-0.5164354928	-1.075339362	-0.380063
C	 0.8651155074	-1.8822368536	-1.3201987005	 0.414955
N	 1.2877561254	-2.3461414971	-2.4967859234	-0.334775
N	 1.2337958207	-3.6951818003	-2.3594911906	-0.182682
C	 0.7808362435	-4.0859769967	-1.1505342724	-0.017639
C	 0.5236485482	-2.9370613837	-0.4322892484	-0.287012
H	 1.0290530356	 1.8079614159	 0.2880848386	 0.129505
H	-0.1808004918	 2.0220131277	-0.9887339144	 0.116244
H	-0.6945515672	 1.9388763618	 0.7001019646	 0.118571
H	 0.057315516	-0.4318765366	 0.8449279232	 0.110934
H	-1.1619646999	-0.2386902009	-0.413871914	 0.091251
H	 0.9095226506	 0.0088665211	-1.9381182062	 0.233179
H	 1.5114821731	-4.2710421799	-3.1339162443	 0.271282
H	 0.6759673762	-5.1279497813	-0.8911826465	 0.126424
H	 0.1531775389	-2.8722055731	 0.5765888575	 0.09675
55.5603	75.6922	146.4209	259.77	325.9547	345.5953	418.7255	440.1742	617.7003	646.983	725.7782	753.7331	767.4705	815.442	820.7546	928.2549	942.6824	997.7843	1059.1244	1079.4604	1126.2686	1150.6291	1173.6721	1220.7122	1293.518	1323.3638	1347.6958	1400.4063	1417.7608	1474.7215	1492.9637	1499.6735	1502.272	1520.9502	1533.7128	1610.3676	2952.6529	3034.0626	3045.0349	3102.2275	3121.4116	3255.0647	3280.1589	3570.9704	3693.8795
CCNC1=NNC=C1	CCNc1n[nH]cc1	
InChI=1S/C5H9N3/c1-2-6-5-3-4-7-8-5/h3-4H,2H2,1H3,(H2,6,7,8)	InChI=1S/C5H9N3/c1-2-6-5-3-4-7-8-5/h3-4H,2H2,1H3,(H2,6,7,8)
