20
gdb 7445	3.05389	1.45308	1.25685	3.5447	72.24	-0.2276	0.0624	0.29	1084.0968	0.176126	-382.36611	-382.356248	-382.355304	-382.400801	35.587	
C	 0.074278413	 1.495077612	-0.0908783447	-0.389816
C	-0.0183239477	-0.0278439649	 0.0722899435	 0.040207
C	 0.7100275808	-0.5211268566	 1.3286974865	-0.38938
N	-1.4107509395	-0.4985826785	 0.0341197733	-0.0984
C	-2.3133707914	-0.1722438681	 1.1233362946	-0.356545
C	-1.8256086748	-1.2172408062	-1.0648034872	 0.449819
N	-3.1434628035	-1.6713964329	-1.0146326123	-0.573393
O	-1.1264303783	-1.4171082979	-2.0463402978	-0.414235
H	 1.1228919688	 1.8062096535	-0.1346929713	 0.116609
H	-0.4157709071	 1.812067166	-1.0153467857	 0.130125
H	-0.3893574925	 2.0300039964	 0.745968271	 0.107227
H	 0.4406618891	-0.4895599952	-0.8032817238	 0.131032
H	 0.2896776532	-0.0904968892	 2.2446175027	 0.108231
H	 0.6576712553	-1.6110105071	 1.4082612216	 0.119385
H	 1.7648648607	-0.232919912	 1.2874581951	 0.119495
H	-3.2927280744	 0.1269716673	 0.738639033	 0.142508
H	-2.4543614287	-1.0040587677	 1.8302116619	 0.11633
H	-1.9130894605	 0.6698305704	 1.6909306241	 0.136089
H	-3.5211154828	-1.9504673047	-0.1221347334	 0.247526
H	-3.3231476396	-2.3329274246	-1.7550598812	 0.257188
46.3587	84.1556	148.4795	179.7732	226.8669	235.853	250.6982	307.5519	365.5143	422.5987	441.4469	469.2142	539.9774	576.679	616.1425	725.9376	780.1442	881.5094	928.1476	945.9312	1010.1548	1092.3151	1107.2937	1143.2963	1147.2936	1178.7767	1230.7002	1283.7402	1365.379	1385.4392	1397.9539	1416.7655	1431.3666	1479.8283	1484.7565	1487.2293	1501.3266	1501.9713	1508.4216	1527.1137	1625.5355	1774.0984	2985.3712	3029.8359	3034.2979	3077.1135	3089.1183	3093.8576	3112.8348	3117.744	3121.7769	3131.0357	3576.2584	3687.519
CC(C)N(C)C(N)=O	CC(C)N(C)C(=O)N	
InChI=1S/C5H12N2O/c1-4(2)7(3)5(6)8/h4H,1-3H3,(H2,6,8)	InChI=1S/C5H12N2O/c1-4(2)7(3)5(6)8/h4H,1-3H3,(H2,6,8)
