20
gdb 118909	2.50466	1.06715	0.9705	3.756	75.5	-0.2453	0.0344	0.2797	1325.6835	0.16986	-440.305176	-440.295179	-440.294235	-440.340323	36.031	
C	 0.0875661808	 1.6132638242	-0.0887258809	-0.451834
C	-0.0155917139	 0.0891807617	-0.0343029395	 0.149632
C	-1.4586386979	-0.4320839599	-0.0177587973	-0.260673
C	-2.2886264271	 0.0410083589	 1.1834334758	-0.079991
O	-3.5941816828	-0.5184832787	 1.1751140128	-0.417939
C	 0.9279969773	-0.6640821004	-1.0358131482	-0.212655
N	 1.6639849513	-1.160394922	 0.1285387111	-0.326286
C	 0.8799326883	-0.5479477663	 1.0708652848	 0.41182
O	 0.8984962012	-0.5361829639	 2.2749871244	-0.375196
H	 1.1292681796	 1.9333844346	-0.1908966956	 0.12127
H	-0.4776583746	 2.014330505	-0.9373841329	 0.119409
H	-0.3059370075	 2.0647505387	 0.8260250897	 0.142155
H	-1.9707969846	-0.1359344455	-0.9421159618	 0.105165
H	-1.4383009339	-1.5311749697	-0.0095019273	 0.08842
H	-1.7534158904	-0.1801618872	 2.1168227139	 0.12394
H	-2.4376859959	 1.1242356575	 1.1413822449	 0.110795
H	-3.510989144	-1.4581898132	 1.3650637107	 0.281224
H	 0.4426084794	-1.4478323686	-1.6266661852	 0.110308
H	 1.5151508915	-0.0164226717	-1.695082911	 0.110245
H	 2.4581630132	-1.7769856337	 0.2160819315	 0.250189
83.6149	86.1753	105.2562	169.0972	194.7046	220.2901	278.7259	295.6981	317.6464	360.4074	390.0917	491.1784	537.6853	719.3885	761.1808	764.2138	794.8073	871.1267	943.8211	984.4867	998.1141	1009.5631	1056.9341	1071.6613	1127.6497	1140.9618	1157.323	1184.1749	1247.2337	1252.9903	1294.6077	1318.0303	1344.5786	1391.1624	1401.6699	1417.3516	1421.0756	1481.0946	1495.2266	1500.3604	1518.0144	1526.9171	1879.0156	3004.2436	3020.756	3031.7491	3036.1336	3049.0241	3082.2565	3088.0572	3099.6191	3115.5959	3608.7537	3818.219
CC1(CCO)CNC1=O	C[C@@]1(CCO)CNC1=O	
InChI=1S/C6H11NO2/c1-6(2-3-8)4-7-5(6)9/h8H,2-4H2,1H3,(H,7,9)	InChI=1S/C6H11NO2/c1-6(2-3-8)4-7-5(6)9/h8H,2-4H2,1H3,(H,7,9)/t6-/m1/s1
