21
gdb 83002	2.46486	1.74241	1.54065	1.6757	80.47	-0.2458	0.0716	0.3174	999.8092	0.1855	-387.068233	-387.060779	-387.059835	-387.099696	30.708	
C	-0.1569852503	 1.5252617663	-0.0163068641	-0.440796
C	 0.0255410261	 0.0210468851	 0.0178400978	 0.000106
C	 1.3174628106	-0.6916452648	-0.2919262062	-0.065539
C	 2.6458972385	 0.0539787616	-0.1452693093	-0.258737
C	 2.8252619006	 0.3576095115	 1.3529023041	 0.125602
O	 2.4183449021	 1.6815330344	 1.7908021784	-0.290024
C	 1.4705491907	 1.1194973771	 2.7287709936	-0.096121
C	 1.6567034226	-0.2940078749	 2.1348989167	-0.070742
C	 0.6865932946	-0.8322936925	 1.092139163	-0.085015
H	 0.7219140674	 2.066444557	 0.334758997	 0.155539
H	-0.3614017851	 1.8441851756	-1.0450322703	 0.107401
H	-1.0154884217	 1.830744441	 0.5925474435	 0.110061
H	-0.8377218795	-0.4951751944	-0.3998580179	 0.081921
H	 1.2912579206	-1.5127151553	-1.0010643234	 0.078255
H	 3.4626939898	-0.5883195085	-0.4910412704	 0.099819
H	 2.6986389713	 0.9800482747	-0.7280007412	 0.116705
H	 3.8422392092	 0.1464272205	 1.7048587264	 0.07497
H	 1.8302470953	 1.2197098109	 3.7609528523	 0.097054
H	 0.4808179831	 1.5777096877	 2.6454451863	 0.107895
H	 1.9119245852	-1.0713626313	 2.8573693965	 0.072812
H	 0.1599485389	-1.7434398417	 1.3560104872	 0.078833
164.6164	177.3038	233.1547	288.695	300.3817	377.2439	457.7715	569.4745	642.0347	659.3563	721.0362	745.1003	810.6504	828.6879	875.9316	889.3853	921.1466	958.2834	996.2836	1005.3406	1027.0979	1043.0179	1048.9577	1075.6459	1108.0599	1115.8875	1137.6349	1148.2853	1172.0627	1200.7606	1215.9209	1255.1858	1257.2254	1312.3915	1324.1297	1339.8979	1354.9792	1371.0461	1379.2276	1423.4468	1440.4126	1478.2208	1507.439	1517.0822	1531.5777	3015.8876	3025.6088	3028.6578	3046.7437	3077.9474	3082.5449	3084.2769	3091.6777	3106.4504	3146.4448	3149.7362	3161.4655
CC1C2CC3OCC3C12	C[C@H]1[C@H]2C[C@H]3OC[C@H]3[C@@H]12	
InChI=1S/C8H12O/c1-4-5-2-7-6(3-9-7)8(4)5/h4-8H,2-3H2,1H3	InChI=1S/C8H12O/c1-4-5-2-7-6(3-9-7)8(4)5/h4-8H,2-3H2,1H3/t4-,5+,6+,7+,8-/m0/s1
