17
gdb 8288	6.29125	0.98081	0.95232	4.1717	67.31	-0.2588	0.0191	0.2779	1226.299	0.14128	-400.977243	-400.96895	-400.968005	-401.010913	29.768	
O	 0.5441078007	 0.3345647677	-0.8593221641	-0.425782
C	-0.1711413881	-0.3665376118	 0.1194517314	 0.172277
C	 0.1343484828	-0.1389864878	 1.6284388832	-0.28522
C	-1.3761350987	-0.2891047885	 1.9095457473	 0.114468
C	-1.6585607059	-0.0093137456	 0.4087568238	-0.291684
O	-1.6402240305	-1.6440030002	 2.2760873541	-0.196014
C	-2.9019461323	-1.9294658051	 2.6512840065	 0.126331
N	-3.2447329928	-3.1257437109	 2.8624749068	-0.43926
H	 0.482204352	 1.2758505052	-0.6643479907	 0.277003
H	-0.0711462081	-1.4233983891	-0.1376976515	 0.116381
H	 0.7987260138	-0.8364136418	 2.1407374765	 0.12503
H	 0.4666514377	 0.8875643176	 1.8147047626	 0.097831
H	-1.8269501949	 0.386811664	 2.6433375137	 0.083292
H	-1.8470417155	 1.0568539523	 0.2400289107	 0.09669
H	-2.442584178	-0.5948188373	-0.0759432775	 0.117202
H	-3.539793553	-1.0402218193	 2.756842517	 0.082815
H	-4.2161074492	-3.1589885894	 3.1649836503	 0.22864
48.3692	86.3475	103.3525	218.647	296.3677	325.2627	373.557	448.6833	462.6853	587.2364	675.7807	793.7383	822.0138	880.9359	906.2499	931.6895	983.3032	994.1209	1046.5093	1070.9398	1082.4102	1111.7054	1162.8348	1197.5167	1201.4373	1259.5689	1268.3843	1286.2172	1298.8521	1337.6199	1377.8365	1425.7614	1433.8103	1452.6075	1480.8647	1746.2689	3013.9711	3042.6299	3049.965	3062.7876	3093.2027	3120.0466	3132.8202	3516.8409	3803.2087
OC1CC(C1)OC=N	O[C@H]1C[C@@H](C1)O[CH][NH]	
InChI=1S/C5H9NO2/c6-3-8-5-1-4(7)2-5/h3-7H,1-2H2	InChI=1S/C5H9NO2/c6-3-8-5-1-4(7)2-5/h3-7H,1-2H2/t4-,5-
