17
gdb 89701	3.6742	1.23367	1.13711	3.2424	72.79	-0.261	0.0043	0.2652	1088.6189	0.138635	-417.991664	-417.984338	-417.983394	-418.023342	29.298	
O	 0.0387196625	 1.3681672136	-0.024112096	-0.444218
C	 0.0104426495	-0.0353881396	-0.0248387747	 0.180648
C	 0.5394941654	-0.685839996	 1.3026454699	-0.283169
C	-0.7881159555	-1.3310005801	 1.7586273277	 0.225784
C	-1.2621632039	-2.0609810828	 0.4660042944	-0.268997
C	-1.429321289	-0.591337614	 0.0218412749	-0.05193
N	-1.7598196104	-0.1988220649	 1.4514054146	-0.374373
C	-0.8485561727	-1.95004048	 3.0648758481	 0.163673
N	-0.9051820963	-2.4608348582	 4.1003165641	-0.334112
H	-0.5514497836	 1.6377364558	 0.6939760172	 0.287867
H	 0.5632718814	-0.3637321863	-0.9074520713	 0.092979
H	 1.324902347	-1.429114413	 1.1533328125	 0.119293
H	 0.8908923744	 0.0773262096	 1.9980350013	 0.129821
H	-0.5499593319	-2.7088746494	-0.0534930817	 0.113108
H	-2.2178729233	-2.570350207	 0.6059560398	 0.120686
H	-2.1138756957	-0.271586167	-0.7617297233	 0.090833
H	-2.7011752779	-0.5296437406	 1.6661602024	 0.232105
125.1594	151.626	218.5391	346.2508	428.728	455.4986	515.6751	532.3527	544.513	552.0319	605.8733	703.827	834.6723	839.2109	850.1014	896.8783	929.11	975.7715	985.628	1006.2131	1036.1468	1081.2775	1119.771	1125.5353	1164.699	1187.7092	1222.7463	1240.5197	1267.4111	1287.3324	1296.3461	1326.7258	1356.4874	1447.8462	1483.1568	1503.3219	2357.1601	3054.8648	3083.369	3096.7174	3125.6328	3143.3185	3144.4336	3459.1883	3744.3127
OC1CC2(CC1N2)C#N	O[C@H]1C[C@@]2(C[C@H]1N2)C#N	
InChI=1S/C6H8N2O/c7-3-6-1-4(8-6)5(9)2-6/h4-5,8-9H,1-2H2	InChI=1S/C6H8N2O/c7-3-6-1-4(8-6)5(9)2-6/h4-5,8-9H,1-2H2/t4-,5+,6+/m1/s1
