13
gdb 130409	2.16071	1.78656	0.99651	4.0572	67.87	-0.2686	-0.0845	0.1841	1090.5986	0.089687	-448.899816	-448.891835	-448.890891	-448.93326	27.959	
N	 0.5030505241	 1.052967018	-0.6490164952	-0.50581
C	-0.2093447663	 0.1538164649	 0.2512372269	-0.288786
C	 0.7368962177	-0.4648401429	 1.2306085819	 0.172369
C	 2.0921543113	-0.6437265242	 1.2029424402	 0.266171
O	 2.4614029693	-1.2704468383	 2.3359023836	-0.204906
N	 1.2820112328	-1.4781655201	 3.0761101479	 0.004462
N	 0.3134790159	-1.0060670485	 2.4228944423	-0.16287
C	 3.1051827687	-0.3190653365	 0.2721378384	 0.287705
N	 3.967428644	-0.0752435646	-0.4596588225	-0.331954
H	-0.0631454047	 1.2644004468	-1.4620482017	 0.245904
H	 0.7117465983	 1.933885289	-0.1907747744	 0.243063
H	-1.0353194388	 0.6056115934	 0.822782913	 0.127912
H	-0.6591440023	-0.6459873569	-0.3506926205	 0.146741
43.6902	135.8524	178.8808	206.6262	234.8766	299.2021	420.1941	497.7777	529.854	616.861	679.9516	693.4105	738.3307	766.2941	836.7556	975.1722	1019.9579	1086.4116	1179.5265	1188.5404	1191.7894	1317.089	1358.8758	1422.1047	1459.5713	1491.6443	1627.0227	1667.4403	2359.682	2983.2577	3045.1416	3515.8981	3600.381
NCC1=C(ON=N1)C#N	NCc1c(onn1)C#N	
InChI=1S/C4H4N4O/c5-1-3-4(2-6)9-8-7-3/h1,5H2	InChI=1S/C4H4N4O/c5-1-3-4(2-6)9-8-7-3/h1,5H2
