24
gdb 7193	4.78057	0.71908	0.65464	1.3804	82.57	-0.261	0.0809	0.3419	1784.4509	0.221625	-351.41268	-351.401793	-351.400849	-351.449117	38.496	
C	-0.0817929257	 1.6124235491	 0.1313320284	-0.377936
C	 0.0062562647	 0.0886692236	 0.0010187237	-0.178087
C	 0.7786733425	-0.5597814559	 1.1562131364	-0.156818
C	 0.8222929474	-2.1004673172	 1.143197166	 0.019462
C	 1.5747182873	-2.6445034262	-0.0815829787	-0.390675
C	 1.4237895452	-2.613300461	 2.4640268782	-0.164916
C	 1.362977001	-4.1240661711	 2.6590458392	-0.086713
O	 1.8156936721	-4.4031740733	 3.9775851255	-0.421568
H	 0.9154519262	 2.0664784457	 0.1436072828	 0.113332
H	-0.6375167366	 2.0540509725	-0.7019141455	 0.109269
H	-0.5862977043	 1.902703205	 1.0596965897	 0.113112
H	-1.0068432415	-0.3340943474	-0.0385775024	 0.092077
H	 0.4776505542	-0.1609484619	-0.9567929803	 0.097746
H	 1.8080072786	-0.1721884694	 1.1678314399	 0.08882
H	 0.3258182898	-0.2336672008	 2.102419805	 0.088721
H	-0.2173366451	-2.4589647761	 1.0879580344	 0.066472
H	 1.5571333451	-3.7377085882	-0.1169404432	 0.111921
H	 1.1364150007	-2.2860744933	-1.0170498971	 0.114404
H	 2.6254601885	-2.3296835231	-0.0631812646	 0.11145
H	 2.4701013301	-2.291040326	 2.547836998	 0.098562
H	 0.892182956	-2.1561854304	 3.3073620489	 0.101506
H	 0.3274251567	-4.4754609641	 2.5124499382	 0.08071
H	 1.9896218811	-4.6378217052	 1.9146813794	 0.085559
H	 1.8250938361	-5.3573836853	 4.0953801385	 0.283588
64.8886	75.8916	88.1623	121.7752	125.7551	230.0632	245.8048	254.0531	266.7654	310.6121	330.0882	385.5118	463.5393	537.4397	745.7578	794.4136	841.0346	874.5687	900.1879	955.9894	969.5517	1020.2136	1036.4603	1046.3109	1066.2981	1087.5214	1142.4552	1174.9155	1193.7502	1235.2669	1244.274	1274.7851	1298.5933	1318.5745	1333.638	1336.9566	1376.0168	1379.0147	1398.995	1411.1926	1416.2753	1463.4369	1478.0018	1491.1288	1495.0086	1499.2174	1500.2015	1507.854	1512.8799	1529.0796	2956.8886	2982.6072	2997.2589	2999.9578	3017.6873	3023.9447	3028.7149	3030.588	3033.0399	3059.9322	3068.7737	3096.101	3096.7748	3100.2465	3110.0875	3829.1846
CCCC(C)CCO	CCC[C@@H](C)CCO	
InChI=1S/C7H16O/c1-3-4-7(2)5-6-8/h7-8H,3-6H2,1-2H3	InChI=1S/C7H16O/c1-3-4-7(2)5-6-8/h7-8H,3-6H2,1-2H3/t7-/m1/s1
