17
gdb 129819	5.74034	0.94056	0.85882	4.8888	76.74	-0.2061	0.0265	0.2327	1332.1946	0.139056	-414.178118	-414.169863	-414.168919	-414.21141	30.803	
N	 0.1483850141	 1.3763738129	 0.1693158046	-0.606039
C	-0.0403142747	-0.0003016166	 0.0388808602	 0.408604
C	-1.1764021823	-0.788545393	 0.0472931192	-0.399407
C	-0.6935685873	-2.1179588345	-0.0322266186	 0.39534
N	 0.63393008	-2.1587126144	-0.084462169	-0.333171
N	 1.011111317	-0.852078665	-0.0446498572	-0.245061
C	-1.4832257018	-3.368649714	-0.0743612287	-0.103618
C	-1.16376491	-4.4131330483	-1.0915222757	-0.228628
N	-0.8483478547	-4.6369915665	 0.3231202024	-0.319861
H	 0.7833293395	 1.7648887798	-0.5180872446	 0.251373
H	-0.7276204479	 1.8798042976	 0.1349487794	 0.257987
H	-2.2004817946	-0.4537575142	 0.084796227	 0.094225
H	 1.98779082	-0.6244028141	 0.0279794826	 0.268102
H	-2.5146751285	-3.2635399623	 0.2521205619	 0.085208
H	-1.9564674511	-5.039530142	-1.4929636691	 0.11092
H	-0.3507493212	-4.1909109556	-1.7768105142	 0.11922
H	 0.1408460534	-4.4454876098	 0.4755340198	 0.244807
49.6781	146.5732	173.2684	176.1221	283.2687	332.1295	405.3981	439.0433	487.3515	646.9214	666.9241	725.8598	737.3963	758.441	784.2489	831.3027	884.3772	973.8163	991.1397	1020.8977	1048.315	1099.1356	1109.2677	1137.7774	1162.6902	1174.6351	1206.9848	1267.6466	1311.2294	1319.006	1381.6978	1449.0375	1495.4599	1517.6842	1537.2383	1619.5298	1660.772	3104.1381	3139.0152	3196.9277	3260.0419	3485.234	3533.7452	3631.2366	3675.992
NC1=CC(=NN1)C1CN1	Nc1cc(n[nH]1)[C@H]1CN1	
InChI=1S/C5H8N4/c6-5-1-3(8-9-5)4-2-7-4/h1,4,7H,2H2,(H3,6,8,9)	InChI=1S/C5H8N4/c6-5-1-3(8-9-5)4-2-7-4/h1,4,7H,2H2,(H3,6,8,9)/t4-/m1/s1
