18
gdb 47742	2.53277	1.79085	1.18444	3.4386	73.34	-0.2348	0.0271	0.2619	1048.1529	0.149466	-439.109602	-439.101796	-439.100852	-439.141903	30.461	
O	 0.02488923	-0.0517224678	 0.055746836	-0.392562
C	 0.0093067242	 1.1673202167	 0.0152595952	 0.374632
N	-1.1505235205	 1.8876504815	 0.0279453326	-0.350367
C	-1.2426815153	 3.3379834518	-0.0303685712	-0.155947
C	 0.076521138	 3.9327528204	 0.4482998438	-0.100382
O	 1.1463856778	 3.3544331532	-0.278409915	-0.297218
C	 1.2737811012	 1.9834257841	-0.0051660107	 0.314584
C	 2.3728207362	 1.5454505055	 0.9515102439	-0.309601
C	 2.5165024742	 1.3326568251	-0.5313129172	-0.309575
H	-1.9916664088	 1.3305842775	-0.0012984889	 0.249498
H	-1.4495246418	 3.6812794552	-1.0536312427	 0.118213
H	-2.0633167846	 3.6802925972	 0.6109735775	 0.113471
H	 0.104623385	 5.0082985445	 0.2576033013	 0.11597
H	 0.2032958612	 3.7604519482	 1.52791083	 0.104417
H	 2.9473500358	 2.3456789567	 1.4038769854	 0.119657
H	 2.1732420586	 0.681859164	 1.574350495	 0.13657
H	 2.4050159388	 0.3258143943	-0.9141558194	 0.143585
H	 3.1917368401	 1.9846995116	-1.0729998256	 0.125056
83.8547	144.1896	252.5419	265.8783	292.9714	404.4958	433.366	478.2582	528.1671	567.2275	635.4294	690.8312	749.3728	781.3458	866.8402	892.4397	918.8989	950.9666	965.6529	1012.602	1052.0736	1080.7607	1090.1558	1124.5004	1129.1373	1203.9161	1232.1474	1262.3765	1283.6527	1308.8165	1369.8836	1401.8781	1415.8657	1435.4176	1474.0211	1477.0426	1497.7705	1518.0581	1778.6303	2993.3811	3007.072	3058.242	3104.445	3142.2468	3147.8542	3237.0705	3250.9547	3615.1861
O=C1NCCOC11CC1	O=C1NCCOC21CC2	
InChI=1S/C6H9NO2/c8-5-6(1-2-6)9-4-3-7-5/h1-4H2,(H,7,8)	InChI=1S/C6H9NO2/c8-5-6(1-2-6)9-4-3-7-5/h1-4H2,(H,7,8)
