23
gdb 59634	2.67888	1.13129	1.01445	1.5963	88.3	-0.2321	0.0215	0.2536	1344.4555	0.205349	-388.3175	-388.307614	-388.30667	-388.352009	37.528	
C	 0.192192313	 1.4847958215	 0.1002237768	-0.404438
C	-0.0226552193	-0.0301367026	 0.1265176309	 0.134585
O	 0.4846538631	-0.6025661116	 1.3279132426	-0.438795
C	-1.4970141491	-0.4438724621	-0.1081822497	-0.042527
C	-1.6834829964	-1.9884481805	-0.1316763296	-0.224501
C	-2.2776014288	-2.3670177192	 1.2470217842	-0.291138
C	-2.802061282	-1.0519864088	 1.7880844278	 0.331506
C	-3.657357919	-0.9943507679	 3.0147886983	-0.492177
C	-2.3992240264	-0.0243924877	 1.0331176649	-0.203684
H	 1.2494079307	 1.7145502958	 0.2581999544	 0.121364
H	-0.1167077827	 1.91317174	-0.859523288	 0.109145
H	-0.3813856815	 1.9802791011	 0.8915080441	 0.108744
H	 0.5802876678	-0.4827378046	-0.6708094389	 0.081732
H	-0.1293268472	-0.3555121774	 2.0307755969	 0.274405
H	-1.8104653641	 0.0071336457	-1.0587239214	 0.067016
H	-2.3897593288	-2.257465011	-0.9227162275	 0.095884
H	-0.7454559852	-2.5095865265	-0.3369615232	 0.104941
H	-3.0697808527	-3.1221616008	 1.1711124011	 0.095844
H	-1.5182860401	-2.78444943	 1.9211831	 0.111315
H	-3.1448713313	-1.4407210618	 3.8766303362	 0.126355
H	-3.9295733694	 0.0323218431	 3.2746548659	 0.122043
H	-4.5823930773	-1.5686617183	 2.8768457716	 0.127168
H	-2.6550571533	 1.0120627837	 1.2304037625	 0.08521
86.4577	94.8046	134.7805	188.0722	222.8142	239.5872	279.7017	317.0479	358.4094	376.2549	443.6136	475.8996	569.4489	603.4822	733.1979	781.2919	843.9441	864.3373	882.4103	905.1558	949.813	965.7896	1008.1906	1015.1334	1037.5612	1056.0719	1069.9716	1110.6593	1134.0194	1177.9869	1188.4131	1236.9674	1266.0875	1283.4565	1290.2011	1324.0184	1343.9276	1363.5754	1373.4209	1403.1619	1413.168	1429.4301	1476.1367	1479.575	1488.523	1489.823	1495.4178	1499.2194	1712.8883	3014.0202	3015.7069	3021.1124	3030.3137	3031.5901	3043.7206	3060.5534	3062.7722	3098.2575	3105.8766	3109.1216	3115.8902	3176.82	3768.7207
CC(O)C1CCC(C)=C1	C[C@@H](O)[C@H]1CCC(=C1)C	
InChI=1S/C8H14O/c1-6-3-4-8(5-6)7(2)9/h5,7-9H,3-4H2,1-2H3	InChI=1S/C8H14O/c1-6-3-4-8(5-6)7(2)9/h5,7-9H,3-4H2,1-2H3/t7-,8+/m1/s1
