19
gdb 73324	2.91761	1.98206	1.41262	1.4777	78.97	-0.2446	0.0748	0.3194	944.1154	0.16096	-385.810518	-385.803664	-385.80272	-385.841171	29.23	
O	 0.0216414814	 1.479300584	 0.0798291879	-0.489377
C	-0.0073870433	 0.0847587473	 0.0314685627	 0.383931
C	 0.8387084511	-0.6841152326	 1.0958191872	-0.27938
C	 0.4810622708	-2.18445814	 0.7898302302	-0.353479
C	-0.4717199197	-1.9026168481	-0.3604044956	 0.339758
C	-1.4437612421	-2.3860012098	-1.4605319095	-0.358251
C	-1.4330628187	-0.8286411734	-1.585691353	-0.082046
C	-1.3524123381	-0.6466084959	-0.0393923668	-0.090977
C	 0.0913773537	-0.7560435182	-1.2648389887	-0.131171
H	 0.9416531504	 1.7645137636	 0.0787540557	 0.276139
H	 1.910125124	-0.4828582625	 0.9770112908	 0.088721
H	 0.5570630773	-0.3831914775	 2.1095657416	 0.105806
H	 1.3551959254	-2.7743989108	 0.4982773187	 0.100493
H	 0.0053691883	-2.6817003777	 1.6403336023	 0.10269
H	-1.0105831189	-2.9509160205	-2.2924297414	 0.093101
H	-2.379100469	-2.8484090142	-1.1282538508	 0.093936
H	-1.9896498751	-0.2155385952	-2.2935789907	 0.075945
H	-2.1802036396	-0.632898887	 0.6722351919	 0.064966
H	 0.9223211623	-0.8731320614	-1.9643735925	 0.059195
227.7581	240.58	300.5242	316.8129	354.5912	455.7512	479.3177	616.6327	685.0713	708.2084	723.085	816.5266	822.3843	856.8269	874.2612	923.0166	931.2358	932.502	980.7923	988.6296	1036.4416	1041.351	1058.9894	1068.3416	1102.0198	1141.9651	1153.5135	1183.6289	1188.9739	1195.5329	1207.8742	1218.6713	1232.6214	1265.0132	1289.4248	1310.5369	1318.1215	1404.6782	1486.0713	1508.3919	1511.3027	3033.0243	3035.2034	3051.6483	3079.5003	3084.2647	3093.1019	3095.1652	3098.9845	3120.828	3803.5086
OC12CCC34CC(C13)C24	O[C@@]12CC[C@@]34C[C@@H]([C@H]13)[C@@H]24	
InChI=1S/C8H10O/c9-8-2-1-7-3-4(5(7)8)6(7)8/h4-6,9H,1-3H2	InChI=1S/C8H10O/c9-8-2-1-7-3-4(5(7)8)6(7)8/h4-6,9H,1-3H2/t4-,5-,6+,7+,8-
