19
gdb 73009	2.75778	1.53506	1.20923	1.523	75.67	-0.2133	0.0579	0.2712	1086.4983	0.158434	-422.956213	-422.947846	-422.946901	-422.989258	31.496	
C	 0.1173590966	 1.5538156659	 0.0856778724	-0.502631
C	-0.0003456683	 0.0597685386	 0.0577036977	 0.152596
C	-0.8796217174	-0.7740064469	-0.8696567563	-0.126975
O	-1.130901655	-1.7638798614	 0.1671025135	-0.289718
C	-0.3926516342	-0.9846519033	 1.1116755374	-0.043841
C	 1.0252734611	-0.8677151558	 0.6685814742	 0.415974
C	 2.0028552201	-1.8947610152	 0.111415412	-0.364619
C	 2.9810481036	-1.2594991125	 1.1247519221	-0.078468
O	 1.9855457725	-0.296326727	 1.5579411171	-0.323117
H	 0.7564800817	 1.8667192604	 0.9152069518	 0.145626
H	 0.5718806837	 1.9284717736	-0.8397541387	 0.118871
H	-0.8601882148	 2.0355287909	 0.196595693	 0.119403
H	-1.812529483	-0.271607519	-1.1545620996	 0.108205
H	-0.4137105307	-1.213200969	-1.7609658893	 0.101241
H	-0.7457232284	-0.9200431942	 2.1356209262	 0.107814
H	 1.7337775392	-2.9361579361	 0.2918746285	 0.126499
H	 2.2739477926	-1.7644414638	-0.9383530322	 0.11277
H	 3.2946161745	-1.9076971545	 1.9502073629	 0.110942
H	 3.8590160761	-0.7620001909	 0.6997285972	 0.109426
79.5206	148.8457	178.7426	190.2513	231.6441	261.0844	365.5038	423.7665	509.8986	567.2873	663.365	750.436	796.054	854.0872	906.1114	924.2795	963.2413	967.8327	994.1619	997.9737	1012.5184	1030.3338	1105.8512	1118.9975	1133.4301	1154.4422	1162.3682	1192.6286	1213.0238	1221.2254	1246.8074	1293.0387	1340.9244	1349.6475	1413.471	1468.6687	1490.0595	1491.7569	1499.8902	1516.9735	1530.2919	3009.3137	3024.8399	3033.2407	3055.8525	3075.1912	3079.9451	3080.8181	3120.8614	3134.119	3170.033
CC12COC1C21CCO1	C[C@]12CO[C@H]1[C@]12CCO1	
InChI=1S/C7H10O2/c1-6-4-8-5(6)7(6)2-3-9-7/h5H,2-4H2,1H3	InChI=1S/C7H10O2/c1-6-4-8-5(6)7(6)2-3-9-7/h5H,2-4H2,1H3/t5-,6+,7+/m1/s1
