21
gdb 108138	3.36744	1.31107	1.25041	1.4801	81.36	-0.2187	0.0836	0.3023	1135.1178	0.183833	-387.071833	-387.063802	-387.062858	-387.104409	31.818	
C	 0.1558530141	 1.5016358727	 0.1044897002	-0.376001
C	-0.0986714786	 0.0068806343	-0.1341513393	-0.301011
C	 0.6930362649	-0.5285869677	-1.2846187965	 0.505972
O	 0.3961566046	-0.010874396	-2.5919576035	-0.352157
C	 0.8948761325	-1.2602298184	-3.1802320898	 0.096873
C	 2.3115400635	-1.0001524398	-3.6798494029	-0.207017
C	 3.0540589142	-0.5535629909	-2.3871421945	-0.228294
C	 2.1361888116	-1.0115729214	-1.2510877227	-0.121766
C	 1.0228825269	-1.9015275614	-1.7837340303	-0.242271
H	 1.2037845997	 1.6857074485	 0.3622571845	 0.116236
H	-0.0744524591	 2.0783567978	-0.7957854459	 0.13712
H	-0.4665536591	 1.8799653074	 0.9207366154	 0.109082
H	 0.1555655666	-0.5715144055	 0.7621118869	 0.099958
H	-1.1645982591	-0.1621695844	-0.330874165	 0.106399
H	 0.1843544839	-1.6748343029	-3.8976174435	 0.075819
H	 2.7395632172	-1.9225381636	-4.0901195221	 0.095988
H	 2.3283742542	-0.2386089595	-4.4644738681	 0.105971
H	 4.0413110883	-1.0172949342	-2.3049473475	 0.09657
H	 3.1997032369	 0.5304303695	-2.3703722618	 0.109092
H	 2.5476475416	-1.2308076334	-0.2714406176	 0.082288
H	 0.7492455252	-2.8949548612	-1.4554730458	 0.091148
81.5495	128.3757	200.2044	214.6944	306.7996	339.7092	414.3569	486.6868	611.7958	717.4783	730.3955	751.8993	797.1095	822.8235	857.2121	876.3798	896.6682	902.8615	923.6146	967.9417	990.0437	1004.8792	1014.1163	1035.0256	1049.6647	1082.4968	1108.8329	1162.393	1181.4055	1206.1065	1228.5309	1254.9831	1281.916	1292.8524	1304.5368	1326.6395	1344.4078	1359.5011	1406.9675	1462.1383	1473.1364	1474.5277	1497.363	1499.5777	1510.3042	3027.3564	3036.9299	3039.6835	3055.2862	3064.7677	3086.1155	3098.8498	3103.6257	3108.5665	3118.8483	3171.1776	3201.3961
CCC12OC3CCC1C23	CC[C@@]12O[C@H]3CC[C@@H]1[C@@H]23	
InChI=1S/C8H12O/c1-2-8-5-3-4-6(9-8)7(5)8/h5-7H,2-4H2,1H3	InChI=1S/C8H12O/c1-2-8-5-3-4-6(9-8)7(5)8/h5-7H,2-4H2,1H3/t5-,6+,7-,8-/m1/s1
