18
gdb 48949	3.56923	1.40629	1.34917	3.3925	75.83	-0.2463	-0.0232	0.2231	1006.06	0.150403	-401.960842	-401.954004	-401.95306	-401.992113	27.604	
O	-0.1261394441	 0.0726612171	 0.2603202814	-0.266499
C	 0.0331423589	 1.2435720471	 0.0103588007	 0.056235
C	 1.3524733969	 1.9016812107	-0.0403188051	 0.265811
C	 2.6496702765	 1.2498200021	 0.4186627582	-0.292196
C	 3.547061984	 2.4851968805	 0.1938829059	-0.06695
C	 3.226851394	 2.8445389237	-1.2735965422	-0.234513
C	 1.713396014	 2.9196845975	-1.0973824474	-0.074586
N	 1.3959648762	 3.3726857219	 0.2623743054	-0.161258
C	 2.7172310029	 3.5606304756	 0.9213514279	-0.155729
H	-0.8215570723	 1.9209472865	-0.205891313	 0.079908
H	 2.6085872649	 0.9235532118	 1.4614479608	 0.114238
H	 2.9228078275	 0.3930738214	-0.202860288	 0.116083
H	 4.5973717044	 2.3945705207	 0.4639805923	 0.076602
H	 3.6591054816	 3.7993426367	-1.589517503	 0.108534
H	 3.5281178015	 2.0695462983	-1.9843739696	 0.110965
H	 1.0324554946	 3.2074874349	-1.8895365721	 0.101566
H	 2.6215415218	 3.3924865633	 1.9974010445	 0.112102
H	 3.0676540967	 4.5823217399	 0.7477997032	 0.109684
100.5655	189.2431	255.4556	413.7162	429.7432	457.6886	474.4683	638.4614	670.9636	758.3985	801.2172	824.3358	902.7532	912.07	925.0386	928.9591	944.5686	952.1667	970.3661	1030.0442	1046.6149	1064.5718	1080.7543	1142.6927	1153.3893	1176.4694	1219.8511	1242.3668	1253.498	1282.5419	1292.3961	1303.854	1349.1124	1376.4319	1425.2756	1484.6427	1490.2515	1515.1909	1809.7496	2898.7322	3052.5691	3058.6255	3066.8272	3100.3235	3109.5307	3113.8521	3141.3036	3187.5881
O=CC12CC3CC1N2C3	O=C[C@@]12C[C@H]3C[C@@H]1N2C3	
InChI=1S/C7H9NO/c9-4-7-2-5-1-6(7)8(7)3-5/h4-6H,1-3H2	InChI=1S/C7H9NO/c9-4-7-2-5-1-6(7)8(7)3-5/h4-6H,1-3H2/t5-,6+,7+,8?/m1/s1
