19
gdb 109728	2.77582	1.10415	1.05796	4.1286	73.08	-0.2526	-0.035	0.2176	1252.1518	0.1576	-460.163876	-460.154373	-460.153429	-460.198607	34.895	
C	-0.0434949036	 1.5238218253	-0.0596651216	-0.478756
C	 0.0420613963	 0.0173547271	-0.1679144521	 0.413525
O	 1.1064511524	-0.5335929832	-0.4285242535	-0.362037
C	-1.2148063045	-0.7391825442	 0.0178947171	-0.225486
C	-1.3226782601	-2.1417926693	-0.6083692108	 0.110071
O	-0.2401878041	-2.6903799225	-1.2854496301	-0.430602
C	-1.2948868368	-2.032946161	 0.8735029653	-0.087536
C	-0.1055954823	-2.6105640951	 1.6236067925	-0.106429
O	-0.0456435715	-4.0168842121	 1.4484157823	-0.424968
H	 0.9421830548	 1.9651148179	-0.209422528	 0.147454
H	-0.7406909748	 1.9149221189	-0.8095177856	 0.148266
H	-0.437752478	 1.8115108906	 0.9213193057	 0.147262
H	-2.1139338013	-0.1326813077	 0.0260104203	 0.09742
H	-2.2618032802	-2.3727040591	-1.1025180491	 0.114611
H	 0.5226022812	-2.0986325811	-1.1306054545	 0.313014
H	-2.2503988574	-2.1412930211	 1.3782988249	 0.105903
H	 0.8266770584	-2.1277716479	 1.3101505329	 0.115689
H	-0.220614957	-2.4358053183	 2.6976240658	 0.108638
H	 0.0817959687	-4.1568370873	 0.5011919085	 0.293959
69.6721	82.0704	127.7498	136.1045	205.1949	263.4824	312.6299	335.1072	414.0743	472.4189	503.9144	627.4948	632.961	661.2734	667.0032	753.8852	786.2487	856.4378	942.5482	965.0256	972.6073	1009.0134	1051.4377	1065.5334	1094.0129	1119.5521	1137.9987	1196.365	1232.1904	1243.0694	1348.0823	1376.5797	1381.0689	1407.1608	1417.5405	1440.3021	1461.7399	1473.5198	1485.6694	1514.57	1734.3054	3036.9688	3043.2244	3086.6233	3097.6705	3149.0138	3154.9915	3156.5166	3170.8542	3533.1639	3771.6232
CC(=O)C1C(O)C1CO	CC(=O)[C@H]1[C@@H](O)[C@H]1CO	
InChI=1S/C6H10O3/c1-3(8)5-4(2-7)6(5)9/h4-7,9H,2H2,1H3	InChI=1S/C6H10O3/c1-3(8)5-4(2-7)6(5)9/h4-7,9H,2H2,1H3/t4-,5+,6-/m0/s1
