21
gdb 102385	1.69157	1.53594	1.07105	2.5907	78.84	-0.2506	0.0248	0.2754	1261.0362	0.181049	-420.407471	-420.396612	-420.395668	-420.443174	38.997	
C	 0.1505241188	 1.5695095453	-0.0575952995	-0.405272
C	 0.0420355318	 0.0481374363	 0.0770682127	-0.183479
C	-1.4076387355	-0.4973282489	 0.0286034386	 0.070913
C	-2.2200474604	-0.0417237304	 1.273401097	-0.093416
O	-1.6444300463	-0.4516774388	 2.4905808627	-0.415045
N	-2.1297037079	-0.0423288749	-1.1554136279	-0.296175
C	-1.5985716555	-0.4672380836	-2.4503162935	-0.339175
C	-1.3407683383	-1.9863492738	 0.0965521261	 0.249824
N	-1.3416324393	-3.1421879381	 0.1553475229	-0.354004
H	 1.2040172637	 1.8618840468	-0.0934742615	 0.118629
H	-0.3384015495	 1.9300200162	-0.9656450867	 0.134157
H	-0.3007400789	 2.0869616699	 0.7936700733	 0.127662
H	 0.6266765755	-0.4388893856	-0.7097389921	 0.111742
H	 0.470163037	-0.2777115441	 1.0291373282	 0.128686
H	-2.2479624266	 1.0494520192	 1.2817071064	 0.133624
H	-3.2548853242	-0.403427191	 1.1680218284	 0.096549
H	-1.7017875837	-1.4130221242	 2.5431690098	 0.299769
H	-3.0999379265	-0.330203763	-1.0810023357	 0.227815
H	-2.2995487419	-0.1567401942	-3.2291981942	 0.128477
H	-0.6451713939	 0.0302062481	-2.6493779394	 0.133233
H	-1.4442099084	-1.5543598112	-2.5356628256	 0.125487
77.4429	112.3828	116.9108	135.1946	163.857	205.274	224.4153	259.915	293.3101	315.3428	394.3564	408.3087	441.0744	448.3338	570.9545	643.4203	695.8155	755.5872	797.3392	875.8874	972.2904	991.5375	1028.9146	1075.2754	1099.2159	1110.3076	1143.3983	1161.0027	1196.1724	1234.0013	1257.1643	1323.8134	1370.1385	1397.4026	1408.6056	1415.3433	1460.3963	1482.9254	1490.1256	1494.6135	1500.1602	1504.8789	1511.0212	1525.8623	2328.6786	2984.4201	2985.8888	3048.7312	3057.1488	3083.0216	3097.0824	3111.9072	3120.0162	3120.617	3130.4045	3520.3509	3793.2546
CCC(CO)(NC)C#N	CC[C@@](CO)(NC)C#N	
InChI=1S/C6H12N2O/c1-3-6(4-7,5-9)8-2/h8-9H,3,5H2,1-2H3	InChI=1S/C6H12N2O/c1-3-6(4-7,5-9)8-2/h8-9H,3,5H2,1-2H3/t6-/m1/s1
