18
gdb 46924	2.7155	1.59043	1.25129	5.4134	71.82	-0.2304	0.0514	0.2818	1035.3267	0.15137	-435.274342	-435.266312	-435.265368	-435.307319	30.506	
O	 0.0037942074	-0.1068865655	 0.0382326623	-0.418762
C	-0.0141179057	 1.1092477683	-0.0801998403	 0.432147
N	-1.2189611598	 1.7749304702	-0.1623435556	-0.322395
C	-1.5554640586	 3.183213029	-0.0963550261	-0.188991
C	-0.7807467048	 4.0192149227	 0.913270363	-0.0173
N	-0.0177534177	 3.3290156508	 1.9603832411	-0.321234
C	 0.6991547456	 4.0391579816	 0.8942125374	-0.017301
C	 1.4698623336	 3.2239806949	-0.1353144984	-0.188992
N	 1.1698399451	 1.8071197482	-0.193098633	-0.322394
H	-1.9683854446	 1.128007912	 0.017023673	 0.250482
H	-1.449929423	 3.6676883307	-1.0801978368	 0.111695
H	-2.621336922	 3.2314085314	 0.1470748585	 0.115255
H	-1.2809433913	 4.9515651322	 1.1710363421	 0.086673
H	-0.0138532554	 3.8642017027	 2.8232622014	 0.23701
H	 1.1805208024	 4.984735562	 1.1393383208	 0.086673
H	 1.3260118154	 3.7050904416	-1.1159473616	 0.111695
H	 2.5399644887	 3.300964231	 0.0806037186	 0.115255
H	 1.9407902246	 1.1806869162	-0.0332998763	 0.250482
59.5439	100.5912	181.94	284.1981	298.3113	395.0485	422.4791	492.7229	507.6915	531.3543	682.5709	728.3359	748.4515	767.6996	796.2546	853.6195	864.7596	971.3403	978.4483	1036.268	1050.5542	1073.9835	1158.1728	1171.7736	1181.0844	1224.079	1267.6743	1295.6675	1313.3273	1352.4783	1393.4332	1403.3452	1460.2519	1463.8013	1468.7573	1489.8739	1510.5029	1521.0018	1781.0181	2971.9968	2979.0735	3069.3152	3070.5486	3111.0877	3122.093	3522.3793	3655.8334	3658.8162
O=C1NCC2NC2CN1	O=C1NC[C@H]2N[C@H]2CN1	
InChI=1S/C5H9N3O/c9-5-6-1-3-4(8-3)2-7-5/h3-4,8H,1-2H2,(H2,6,7,9)	InChI=1S/C5H9N3O/c9-5-6-1-3-4(8-3)2-7-5/h3-4,8H,1-2H2,(H2,6,7,9)/t3-,4+
