20
gdb 107249	2.89378	1.40365	1.09457	3.5473	78.56	-0.2124	0.064	0.2764	1174.3038	0.168811	-403.057713	-403.048779	-403.047835	-403.091148	34.307	
C	-1.7600780107	 1.5603755269	 2.0472032118	-0.397218
C	-0.3930212123	 1.4126546884	 1.369626661	-0.307767
C	 0.5203766605	 0.4003432829	 2.0016468556	 0.268708
N	 0.1005682968	-0.9363067015	 2.4789102273	-0.357906
C	 0.7715193442	 0.01157941	 3.4095866685	-0.167129
C	 2.3104175925	-0.0523052146	 3.1261555379	-0.063592
O	 2.5511264364	-0.9861177462	 2.0704426324	-0.260342
C	 2.0905284899	 0.3229404612	 1.7280701855	 0.395589
C	 2.8677602995	 1.1293454491	 0.7403618565	-0.51053
H	-1.6531977153	 1.8117011916	 3.1076345012	 0.121904
H	-2.33736257	 2.3586872793	 1.572362509	 0.121196
H	-2.3542146714	 0.6436289843	 1.9727336173	 0.123831
H	-0.5374830312	 1.1524662971	 0.3118386318	 0.111683
H	 0.113644015	 2.386587494	 1.3719154248	 0.106207
H	-0.8970916492	-0.8726453451	 2.6854025463	 0.225825
H	 0.3014197023	 0.3430908102	 4.3262331057	 0.094249
H	 3.1190377626	 0.1608077432	 3.8157543788	 0.102636
H	 2.6785618172	 0.7837426558	-0.2823990345	 0.133192
H	 2.5973078161	 2.1889029588	 0.7926123759	 0.123422
H	 3.9385344871	 1.0333655848	 0.9390483269	 0.136044
73.1447	143.9507	174.9186	194.3328	226.3157	280.7678	313.187	393.7948	446.8094	482.1744	559.6853	625.8394	694.9967	772.753	779.508	823.976	836.2617	863.535	896.1425	931.1765	951.4066	989.4233	1017.3969	1022.904	1077.2035	1100.0573	1114.6014	1126.7845	1167.8343	1230.3784	1248.0724	1288.1058	1318.7997	1370.5886	1402.4024	1407.725	1424.1375	1462.3113	1484.9269	1487.5006	1495.5521	1499.7821	1506.6096	3010.2234	3032.9344	3035.7229	3039.6365	3094.5779	3102.1459	3110.2984	3119.3399	3181.9817	3201.0178	3463.7983
CCC12NC1C1OC21C	CC[C@]12N[C@H]1[C@H]1O[C@@]21C	
InChI=1S/C7H11NO/c1-3-7-4(8-7)5-6(7,2)9-5/h4-5,8H,3H2,1-2H3	InChI=1S/C7H11NO/c1-3-7-4(8-7)5-6(7,2)9-5/h4-5,8H,3H2,1-2H3/t4-,5+,6+,7-/m0/s1
