20
gdb 102018	1.94128	1.23254	0.8571	1.8908	77.23	-0.2337	-0.0435	0.1902	1425.2892	0.167237	-440.304092	-440.293226	-440.292282	-440.341163	37.176	
C	-0.255325808	 1.1594237948	 0.068292568	-0.382185
C	 0.0543987587	-0.328101933	-0.080676706	-0.290284
C	 0.7345046542	-0.6841054379	-1.3827504901	 0.38132
O	 0.9216974347	 0.103562048	-2.2815255731	-0.309871
C	 1.2277086036	-2.1473477425	-1.551038614	-0.176333
N	 1.5320244378	-2.5004313645	-2.9227277159	-0.283371
C	 0.3700832444	-2.9464508039	-3.6915786784	-0.322122
C	 2.4707504822	-2.3814090097	-0.6732174052	 0.146203
O	 2.5327469072	-2.1829092077	 0.5115222094	-0.242386
H	 0.6626987907	 1.7527472788	 0.0491720944	 0.132174
H	-0.889165255	 1.5127923338	-0.7488614608	 0.131198
H	-0.768245324	 1.3514017164	 1.0145061915	 0.114883
H	 0.6883113087	-0.7075627023	 0.7307605778	 0.16044
H	-0.8629751468	-0.9331709408	-0.0264870744	 0.12265
H	 0.4551538218	-2.8174823024	-1.1514087124	 0.117508
H	 1.9037930932	-1.6635301723	-3.3671349725	 0.23419
H	 0.680964057	-3.1552029325	-4.7188882538	 0.127264
H	-0.0134304349	-3.8801221614	-3.2656553983	 0.123278
H	-0.4566259591	-2.2189306399	-3.7263318528	 0.109042
H	 3.3272071937	-2.7747558108	-1.2610862531	 0.106401
47.8607	77.0349	81.5414	96.5358	173.2922	186.6018	196.0245	220.7442	257.7811	334.1265	378.6381	419.2173	503.0365	603.766	639.0508	760.0762	795.3133	836.5313	959.5434	984.0551	1006.5556	1023.1	1049.3348	1101.2715	1121.1449	1143.6849	1166.3546	1209.6029	1227.9606	1284.3068	1323.9934	1375.6183	1385.828	1414.1935	1454.7819	1458.6637	1491.4483	1493.8091	1498.6449	1503.8616	1530.5233	1797.2767	1826.105	2916.0207	2976.2157	3012.447	3037.2781	3051.8269	3061.4884	3064.7773	3109.7018	3123.2805	3127.0535	3489.5606
CCC(=O)C(NC)C=O	CCC(=O)[C@@H](NC)C=O	
InChI=1S/C6H11NO2/c1-3-6(9)5(4-8)7-2/h4-5,7H,3H2,1-2H3	InChI=1S/C6H11NO2/c1-3-6(9)5(4-8)7-2/h4-5,7H,3H2,1-2H3/t5-/m0/s1
