25
gdb 93836	2.21666	1.29644	0.98215	1.4569	88.17	-0.2572	0.0738	0.3309	1345.2194	0.230249	-389.520616	-389.510951	-389.510007	-389.554223	38.475	
C	-0.2397951045	 1.5774292475	-0.0438415844	-0.399692
C	 0.006214679	 0.0598357235	-0.0128850234	 0.037987
C	 0.7452249316	-0.4289100052	-1.2766762679	-0.225302
C	 2.2256292628	-0.0178105595	-1.2926290471	-0.219347
C	 2.9519079415	-0.5096560261	-0.0364933022	 0.126561
O	 4.2936114526	-0.0392151651	 0.028098769	-0.442922
C	 2.2424288921	-0.0264466901	 1.2263689589	-0.183237
C	 0.7593075057	-0.43739149	 1.2494370873	 0.02756
C	 0.0859467318	-0.0254130935	 2.5634359775	-0.413935
H	 0.6887642561	 2.1552928784	-0.0096469176	 0.119107
H	-0.7648612782	 1.8573464278	-0.9634588214	 0.109096
H	-0.8590668145	 1.9011305876	 0.7973420304	 0.11479
H	-0.9814970767	-0.4213113072	-0.0056772831	 0.062168
H	 0.6813617813	-1.5245466899	-1.3219832685	 0.089312
H	 0.2411993748	-0.0539481814	-2.1749659915	 0.089039
H	 2.716317971	-0.420409627	-2.1889866545	 0.077219
H	 2.3279027873	 1.0730108615	-1.3425650067	 0.103592
H	 2.9415820411	-1.6146725463	-0.0384775732	 0.055967
H	 4.7397963912	-0.3074636186	-0.7816244295	 0.27596
H	 2.7598263779	-0.4285153711	 2.1046811711	 0.095722
H	 2.3420064439	 1.0650930955	 1.2818495602	 0.100537
H	 0.7301402814	-1.5367641338	 1.2027606717	 0.065735
H	 0.1579154917	 1.0535219711	 2.7355523271	 0.116926
H	-0.976003778	-0.2950962863	 2.5688485474	 0.106747
H	 0.5614870474	-0.5233238016	 3.4149851605	 0.110409
111.7546	157.6766	213.4273	236.4787	251.6508	277.0583	288.8656	293.629	360.8	401.1073	423.1542	452.173	485.5647	525.2583	624.2459	751.8694	813.507	852.9281	889.9277	932.3775	950.3099	983.7784	994.1275	1012.689	1033.0445	1057.2395	1073.309	1100.8941	1129.6996	1139.6897	1177.1591	1183.6397	1244.3655	1245.7419	1286.5675	1312.3305	1330.1062	1336.8744	1352.7629	1369.3833	1385.7243	1390.2083	1402.087	1413.1315	1421.6528	1439.8452	1482.2611	1485.9455	1495.8817	1497.8163	1509.1255	1509.6031	1515.8428	2933.1234	2981.7498	3000.8408	3012.7467	3020.0022	3027.7256	3032.1265	3040.6139	3054.1624	3065.955	3071.6427	3094.4019	3097.7314	3102.7897	3114.7355	3811.0892
CC1CCC(O)CC1C	C[C@H]1CC[C@@H](O)C[C@H]1C	
InChI=1S/C8H16O/c1-6-3-4-8(9)5-7(6)2/h6-9H,3-5H2,1-2H3	InChI=1S/C8H16O/c1-6-3-4-8(9)5-7(6)2/h6-9H,3-5H2,1-2H3/t6-,7+,8+/m0/s1
