17
gdb 102372	1.90048	1.40206	1.26363	3.3381	65.44	-0.2406	-0.0447	0.1959	1132.5856	0.130237	-496.082203	-496.071449	-496.070505	-496.119293	35.711	
C	-0.1930639991	 1.2503399631	 0.3230462237	-0.265313
O	 0.0243912806	-0.1457200471	 0.1193675812	-0.28597
C	 0.6399487681	-0.5235981597	-1.0883904837	 0.16201
C	 0.7445054639	-2.059546232	-0.9984913833	-0.135996
O	 1.2568915149	-2.5253800459	-2.2318516	-0.416772
C	-0.2895605933	-0.1767524396	-2.2650667897	 0.13359
O	 0.0117831767	 0.4896191922	-3.2176055578	-0.237796
C	 2.0426544203	 0.0510000975	-1.3153945083	 0.146852
O	 2.6456432465	 0.685582542	-0.4898825473	-0.261927
H	 0.749233721	 1.7806710055	 0.4758275628	 0.153144
H	-0.7350685657	 1.7070316204	-0.5159742572	 0.119782
H	-0.8104508883	 1.3270214161	 1.2202438431	 0.133635
H	 1.3905629142	-2.3093947601	-0.1456800129	 0.123505
H	-0.2627955424	-2.4480149398	-0.7867712393	 0.111631
H	 1.3439350218	-3.4818681472	-2.1892664966	 0.302265
H	-1.3174164972	-0.5831599359	-2.1232345763	 0.092893
H	 2.4751587681	-0.1975743694	-2.3025220984	 0.124465
29.8617	64.8133	103.8753	107.876	178.4082	204.1544	215.2565	230.5108	261.9158	295.4974	329.7133	415.4281	469.3509	547.1478	644.606	773.3713	922.5993	934.058	980.0771	1042.0448	1105.6386	1121.3773	1165.4834	1177.8952	1192.2436	1223.9438	1261.0936	1277.1665	1400.6281	1414.1736	1440.4088	1477.4247	1485.8614	1518.9358	1523.9547	1826.6349	1839.3429	2872.33	2964.1593	2990.539	3014.3338	3035.7965	3104.723	3142.1433	3840.8152
COC(CO)(C=O)C=O	COC(CO)(C=O)C=O	
InChI=1S/C5H8O4/c1-9-5(2-6,3-7)4-8/h2-3,8H,4H2,1H3	InChI=1S/C5H8O4/c1-9-5(2-6,3-7)4-8/h2-3,8H,4H2,1H3
