17
gdb 17946	3.39504	2.22277	2.10109	0.8347	66.77	-0.229	0.0897	0.3187	762.325	0.143872	-363.818953	-363.812413	-363.811469	-363.849254	25.994	
C	-0.1283570436	 1.4956335548	-0.0416026265	-0.524375
C	 0.0860851752	 0.0187927167	 0.0416685818	 0.346529
C	 0.8217968764	-0.871343989	-0.8717198635	-0.100604
C	 1.718979526	-1.7939315494	-0.0606233811	-0.108573
O	 1.3717155248	-1.5500335695	 1.3085715245	-0.263075
C	 0.0991318554	-0.9233739967	 1.2769092145	 0.01971
C	-0.9331051058	-1.7765093414	 0.5046802883	-0.181124
N	-0.6678126004	-1.0171625731	-0.7666379789	-0.195409
H	 0.7083361227	 2.036861967	 0.4145171403	 0.128192
H	-0.211598901	 1.8115658654	-1.0856715602	 0.133406
H	-1.0461983054	 1.797575198	 0.4745713431	 0.125093
H	 1.1439812914	-0.5332064729	-1.8502807489	 0.101375
H	 1.5731806053	-2.8533445446	-0.3132646828	 0.105708
H	 2.7780163874	-1.5531140247	-0.2072494272	 0.112026
H	-0.1370418231	-0.5513058227	 2.2734596898	 0.086088
H	-0.7535948819	-2.8560494988	 0.4647869438	 0.104375
H	-1.9672394034	-1.5907950992	 0.8054830329	 0.11066
185.3405	209.813	256.0213	286.3127	431.4541	461.7412	591.1684	666.1831	695.4161	766.5172	812.1052	858.567	910.3147	918.3461	939.3529	976.9714	991.3626	1054.1687	1085.623	1102.9399	1105.372	1125.5317	1176.8359	1193.3795	1218.8021	1245.9518	1275.8852	1299.4297	1327.7681	1371.1601	1409.7467	1455.6958	1484.492	1492.5218	1496.2304	1523.9724	3005.5737	3029.2599	3046.4754	3058.0231	3090.9033	3105.0937	3109.8432	3125.0343	3179.6068
CC12C3COC1CN23	C[C@@]12[C@H]3CO[C@@H]1CN23	
InChI=1S/C6H9NO/c1-6-4-3-8-5(6)2-7(4)6/h4-5H,2-3H2,1H3	InChI=1S/C6H9NO/c1-6-4-3-8-5(6)2-7(4)6/h4-5H,2-3H2,1H3/t4-,5-,6-,7?/m1/s1
