16
gdb 9125	5.72167	0.8129	0.72135	2.3901	73.42	-0.2633	-0.0291	0.2342	1563.1457	0.128151	-383.747239	-383.737747	-383.736803	-383.783732	31.213	
C	-0.0292222813	 1.5834916469	 0.017456542	-0.368349
C	 0.0315118733	 0.046717038	-0.0465282119	-0.330071
C	 0.7079878497	-0.4571879581	-1.2333750166	 0.245329
C	 1.2714350095	-0.8534589463	-2.2226049387	-0.082802
C	 1.93023279	-1.4122527446	-3.3765823082	 0.256754
O	 2.0683055441	-2.5927270024	-3.5885628619	-0.359836
O	 2.3767748686	-0.4391230286	-4.1967565208	-0.217866
C	 3.0474831244	-0.9060121723	-5.3745202075	-0.239926
H	 0.9761021006	 2.0124411451	 0.0226428215	 0.134768
H	-0.5650410862	 1.9876689263	-0.8452375735	 0.134768
H	-0.5463547482	 1.9027619413	 0.9266425504	 0.121008
H	 0.5417679523	-0.3457644493	 0.8424480612	 0.143512
H	-0.9833221742	-0.3702811177	-0.016395954	 0.143512
H	 3.9268351395	-1.4984505752	-5.1091376663	 0.142545
H	 2.3794190098	-1.5234144979	-5.9804644662	 0.142558
H	 3.3403847781	-0.0093020051	-5.9203593594	 0.134096
14.0072	71.7102	94.922	127.2661	188.1884	191.6024	251.2936	306.9043	405.1548	414.7198	544.479	585.31	774.4258	780.5658	806.6626	922.4177	1002.6112	1077.8609	1100.1237	1109.8737	1177.1786	1212.2427	1280.6919	1281.7957	1346.8789	1410.792	1464.5554	1471.1834	1480.7431	1494.5727	1496.7017	1504.5705	1789.2836	2353.9664	3024.6936	3048.7658	3051.4721	3053.1886	3123.7901	3125.5962	3128.6319	3160.4244
CCC#CC(=O)OC	CCC#CC(=O)OC	
InChI=1S/C6H8O2/c1-3-4-5-6(7)8-2/h3H2,1-2H3	InChI=1S/C6H8O2/c1-3-4-5-6(7)8-2/h3H2,1-2H3
