18
gdb 10432	2.651	1.96601	1.47703	1.7201	68.2	-0.241	-0.0297	0.2113	932.5515	0.151782	-384.927962	-384.91946	-384.918516	-384.960942	30.699	
C	 0.2873358243	 1.4344520672	 0.150087399	-0.261379
O	 0.2358510861	 0.025339252	 0.286814831	-0.286407
C	-1.0279874739	-0.5308209826	 0.016644531	 0.334439
C	-1.6255020761	-0.4342741593	-1.4166945291	-0.277131
C	-1.952810883	-1.9503378608	-1.341344291	-0.214066
C	-0.9764931217	-2.0798662471	-0.1430815138	-0.280325
C	-2.0104880941	-0.1656957472	 1.118457484	 0.097339
O	-3.1994527928	-0.034501083	 0.9770142552	-0.24808
H	 1.3083237078	 1.739555153	 0.388562387	 0.13383
H	 0.0501545089	 1.752145133	-0.8746629978	 0.11735
H	-0.4026961513	 1.945948944	 0.8376306331	 0.11446
H	-2.4629643188	 0.2520945846	-1.5484653334	 0.117002
H	-0.8392845686	-0.2148651457	-2.1431539655	 0.108103
H	-2.9894179413	-2.1223022248	-1.0461582285	 0.12565
H	-1.7293117912	-2.5533357546	-2.2227200702	 0.10447
H	 0.0345351339	-2.3610807632	-0.4473763511	 0.120607
H	-1.2764840924	-2.6894540931	 0.712939243	 0.107843
H	-1.5203555758	-0.0670427924	 2.1151420471	 0.086296
87.8876	129.2222	151.3712	187.9827	212.1809	270.8495	294.3577	400.931	455.257	571.7815	611.6772	728.82	792.4326	866.0486	906.5212	933.3399	941.2752	974.178	1050.6894	1085.4539	1114.2059	1178.1752	1182.2282	1191.49	1214.4389	1234.1735	1249.9951	1276.2277	1281.1908	1289.3431	1397.563	1458.0018	1476.8844	1481.9824	1490.0935	1499.427	1507.6586	1825.6355	2867.0536	2987.8884	3041.2214	3062.9824	3071.1502	3079.9388	3116.3019	3124.3264	3130.1568	3142.6947
COC1(CCC1)C=O	COC1(CCC1)C=O	
InChI=1S/C6H10O2/c1-8-6(5-7)3-2-4-6/h5H,2-4H2,1H3	InChI=1S/C6H10O2/c1-8-6(5-7)3-2-4-6/h5H,2-4H2,1H3
