16
gdb 20060	4.45204	1.6151	1.49269	1.1921	63.67	-0.2462	0.0232	0.2694	875.6831	0.133212	-379.900475	-379.893581	-379.892636	-379.932279	25.308	
C	 1.0421731164	 0.9580010785	 0.196116947	-0.237795
N	 0.4653250322	 0.1790841245	-0.9153112774	-0.325882
C	-0.2904091244	 0.325908944	 0.3354349022	 0.005249
C	-0.5323356372	-0.9360342727	 1.1500034594	 0.000805
C	 0.6259197987	-1.9626408797	 1.1348668723	-0.131686
O	 1.1554674558	-1.9109466954	 2.4857146609	-0.224278
C	 0.2864538319	-1.1358688694	 3.1741261124	 0.12419
N	-0.6845451222	-0.579413381	 2.5799099412	-0.273915
H	 1.9154049187	 0.5100303529	 0.6631322811	 0.125304
H	 1.0858307757	 2.0403048855	 0.1130608704	 0.116336
H	 0.0982230531	 0.7977686402	-1.6324356812	 0.23577
H	-1.1425826117	 1.0020185085	 0.3395340801	 0.095831
H	-1.4628325908	-1.3926699628	 0.7961773581	 0.08974
H	 0.2808618847	-2.9831031622	 0.9479803266	 0.117424
H	 1.4199969679	-1.7203989536	 0.427998685	 0.143508
H	 0.507980651	-1.0493316573	 4.232536172	 0.139397
68.9845	92.4084	218.5809	266.058	412.9993	485.9643	560.503	743.9786	789.606	876.9797	890.3937	896.2048	911.5109	954.3053	966.8413	968.5434	1010.5574	1021.9574	1072.325	1119.0733	1120.6264	1146.211	1196.0972	1207.0006	1257.1212	1277.1552	1292.9124	1318.959	1369.7549	1374.4335	1431.8647	1514.2036	1529.0707	1701.9155	3042.3477	3069.0267	3110.58	3133.0972	3133.8011	3193.2242	3212.238	3514.0241
C1NC1C1COC=N1	C1N[C@H]1[C@H]1COC=N1	
InChI=1S/C5H8N2O/c1-4(6-1)5-2-8-3-7-5/h3-6H,1-2H2	InChI=1S/C5H8N2O/c1-4(6-1)5-2-8-3-7-5/h3-6H,1-2H2/t4-,5-/m1/s1
