17
gdb 126534	4.82638	0.88298	0.79918	5.233	76.95	-0.2531	-0.0874	0.1657	1439.423	0.13504	-414.14348	-414.134874	-414.13393	-414.178483	30.229	
C	-0.0116968828	 1.5742486567	 0.1077865103	-0.383539
C	-0.0421028527	 0.0508846039	 0.2427095026	-0.168278
C	-1.3948699138	-0.5495474856	-0.1960496212	-0.276224
C	-1.4026222708	-2.044830533	-0.0872282278	 0.357865
C	-1.9209575887	-2.7434829645	 1.0048355163	-0.016995
N	-1.8678386897	-4.0637362108	 1.0594885351	-0.160216
N	-1.3022738389	-4.7143036829	 0.0424830923	-0.057543
N	-0.8178060737	-4.0703981146	-0.9944041249	-0.062877
N	-0.8580807768	-2.7444453047	-1.0816834346	-0.223963
H	 0.9565252711	 1.9747679261	 0.4217190961	 0.124008
H	-0.1810636117	 1.8824427253	-0.9293658719	 0.124984
H	-0.7842538797	 2.0449373755	 0.7255892972	 0.118919
H	 0.7498351826	-0.3991848133	-0.366164668	 0.129146
H	 0.1615226814	-0.2372083447	 1.2815792467	 0.105602
H	-2.2028600315	-0.1324294811	 0.416009193	 0.112934
H	-1.5884411114	-0.2791476683	-1.2390378586	 0.136271
H	-2.391237603	-2.239751604	 1.8458530073	 0.139906
23.5457	87.7171	89.9001	205.4696	249.7424	307.5964	317.0185	342.2325	513.2838	645.0673	686.8189	748.3465	835.2377	853.158	879.2276	891.0376	918.2078	970.7433	1042.855	1066.6738	1094.5608	1099.9445	1107.2597	1213.9598	1249.2378	1291.4134	1318.6663	1334.2677	1367.7148	1375.4794	1415.5152	1478.6881	1492.6239	1499.6251	1508.4075	1521.598	1586.185	3028.647	3034.3179	3041.4227	3067.814	3093.4409	3106.4949	3111.5039	3163.1431
CCCC1=CN=NN=N1	CCCc1cnnnn1	
InChI=1S/C5H8N4/c1-2-3-5-4-6-8-9-7-5/h4H,2-3H2,1H3	InChI=1S/C5H8N4/c1-2-3-5-4-6-8-9-7-5/h4H,2-3H2,1H3
