13
gdb 21669	3.53255	2.38996	1.42598	1.2477	67.92	-0.1994	-0.0343	0.1651	798.1841	0.098734	-390.952586	-390.945885	-390.944941	-390.98316	25.685	
N	 0.0161649842	 1.3031761565	 0.0893935581	-0.550656
C	-0.0047951412	-0.0460485031	 0.0404469184	 0.435646
N	-1.1416425467	-0.6948603534	 0.0372493429	-0.330122
N	-1.0466693933	-2.0417289586	 0.0254689597	-0.088887
N	 0.0369068634	-2.7826743822	 0.0122105321	-0.189067
C	 1.18466253	-2.1501724262	 0.0025028511	-0.066675
C	 1.3077217165	-0.7153922017	 0.0072624358	 0.208813
N	 2.3665353415	 0.0243100343	-0.0199235358	-0.579211
H	 0.9192063607	 1.7269366372	-0.062700682	 0.2819
H	-0.8303453418	 1.8241187299	-0.0578808648	 0.26207
H	-1.9249218938	-2.5324199192	 0.0303012438	 0.290061
H	 2.0708117195	-2.7768400743	-0.012695001	 0.115147
H	 3.2121447511	-0.5473763691	-0.0494782482	 0.21098
131.1451	253.2601	303.3778	336.9957	398.6228	463.8288	492.5423	547.1524	570.5534	616.1503	642.3883	761.233	795.9318	837.2093	897.2565	949.2042	1013.4285	1127.6353	1167.0148	1261.6528	1335.9671	1387.7725	1451.939	1514.1171	1556.2636	1595.9713	1649.4365	1662.7238	3180.589	3457.4675	3581.896	3667.6639	3731.0448
NC1=NNN=CC1=N	Nc1n[nH]ncc1[NH]	
InChI=1S/C3H5N5/c4-2-1-6-8-7-3(2)5/h1H,(H2,4,8)(H2,5,6,7)	InChI=1S/C3H10N5/c4-2-1-6-8-7-3(2)5/h2-4,6-8H,1,5H2
