21
gdb 96578	2.39829	1.43199	1.03022	2.1383	80.61	-0.2418	0.0116	0.2535	1212.9275	0.183626	-424.217933	-424.209259	-424.208315	-424.250779	34.066	
O	-0.2203625754	 1.5448274368	-0.0980075822	-0.44281
C	-0.0053013016	 0.1403682104	-0.0048207864	 0.045407
C	-1.4220867254	-0.4703475792	 0.1054048958	-0.070346
O	-1.4669082537	-1.8688870099	-0.0375983805	-0.238547
C	-0.7987338403	-2.6388081221	 0.9502657599	-0.066278
C	 0.4485643498	-3.3438410075	 0.4042809348	-0.180817
C	 1.6451176566	-2.42669627	 0.063250639	-0.258197
C	 1.4496059966	-1.5473317483	-1.1507902448	-0.048427
C	 0.7492623656	-0.4137934237	-1.1784389505	-0.070535
H	 0.6409446087	 1.9719068528	-0.1343738003	 0.283356
H	 0.5395421976	-0.0932452928	 0.9238992491	 0.066445
H	-1.8654976494	-0.1448787468	 1.0592788173	 0.094361
H	-2.0317075733	-0.0615453642	-0.706267181	 0.116557
H	-0.541690489	-2.0205476664	 1.8232319211	 0.088577
H	-1.5062235558	-3.4034326477	 1.2980863743	 0.100523
H	 0.7702861056	-4.0727721376	 1.1600290012	 0.090852
H	 0.1560185252	-3.916225658	-0.4835313356	 0.110058
H	 1.869526339	-1.809869515	 0.9443988943	 0.103231
H	 2.5255002729	-3.0584236913	-0.0959120324	 0.098072
H	 1.906515676	-1.8974351417	-2.0739630252	 0.088532
H	 0.6304295706	 0.1401519722	-2.1074910177	 0.089986
126.1785	170.7282	177.1805	258.8003	276.6624	292.2149	345.1307	360.0311	419.2384	455.7741	509.9938	568.9517	610.6824	749.443	780.5011	860.0095	892.4677	910.4625	942.9022	1000.1278	1008.6345	1022.8115	1051.1625	1075.9365	1107.4389	1138.5551	1162.7521	1212.7032	1244.8479	1260.4252	1266.3318	1283.7179	1316.4687	1344.3978	1357.5178	1370.0425	1388.7682	1401.7511	1412.7072	1434.4903	1470.5994	1488.5074	1494.4729	1503.542	1718.1005	2963.0279	2984.7175	2994.4551	3011.3783	3019.2669	3036.7692	3063.5948	3073.8065	3087.4148	3138.117	3161.3733	3824.5665
OC1COCCCC=C1	O[C@H]1COCCCC=C1	
InChI=1S/C7H12O2/c8-7-4-2-1-3-5-9-6-7/h2,4,7-8H,1,3,5-6H2/b4-2-	InChI=1S/C7H12O2/c8-7-4-2-1-3-5-9-6-7/h2,4,7-8H,1,3,5-6H2/b4-2-/t7-/m1/s1
