21
gdb 64706	3.65865	1.07935	1.01244	0.6782	87.63	-0.2558	0.0525	0.3083	1268.2389	0.181181	-349.896232	-349.887189	-349.886245	-349.929549	35.64	
C	-0.027494268	 1.6474625044	 0.1795661821	-0.455107
C	 0.0363413675	 0.1266468083	 0.0694225648	 0.333736
C	-1.3697969501	-0.4702401824	-0.1690661923	-0.41612
C	-1.9809730871	-0.059086879	-1.4279088883	 0.310205
C	-2.4630695517	 0.2823082843	-2.4753204386	-0.448901
C	 1.0854630897	-0.4888172304	-0.929194544	-0.284503
C	 1.700735864	-1.287988709	 0.225683593	-0.03347
C	 2.2004421077	-0.3506433263	 1.286668107	-0.302814
C	 0.7280455235	-0.6431471103	 1.2151280149	-0.074525
H	 0.9622843862	 2.0802227429	 0.3489809334	 0.111517
H	-0.4354123758	 2.0868895883	-0.7362245126	 0.129294
H	-0.6717568238	 1.9517831206	 1.013125488	 0.109475
H	-1.2991367321	-1.5652219042	-0.1419361927	 0.127074
H	-2.0239750142	-0.1852777568	 0.6664281611	 0.123628
H	-2.8994503947	 0.5802719577	-3.3961645827	 0.192813
H	 0.6139312203	-1.099686622	-1.7018523233	 0.109731
H	 1.7579928824	 0.2242074664	-1.4174445202	 0.09281
H	 2.030246676	-2.318349524	 0.1719071782	 0.083112
H	 2.7158878225	-0.8179719326	 2.1200051011	 0.110565
H	 2.5956406206	 0.6256915768	 1.0169217583	 0.104919
H	 0.2009560771	-1.0947013324	 2.0493286927	 0.076562
78.5949	125.0005	186.3987	231.7303	249.5931	326.0576	349.7918	376.3364	400.3427	432.3874	534.3797	615.8662	634.2755	663.2305	757.237	790.828	832.6079	859.151	903.7082	931.3171	954.2555	958.6086	985.2338	992.9471	1005.34	1046.7797	1069.0451	1089.7267	1137.7255	1147.1318	1161.4637	1205.5936	1236.7896	1252.5588	1297.0386	1304.7419	1338.306	1363.376	1414.0869	1468.6168	1484.6462	1491.8841	1498.5029	1506.9852	2234.2829	3011.191	3029.2976	3045.4576	3046.0416	3095.1	3108.4062	3109.7045	3113.7754	3158.2553	3181.9152	3199.0458	3506.634
CC1(CC#C)CC2CC12	C[C@@]1(CC#C)C[C@H]2C[C@@H]12	
InChI=1S/C9H12/c1-3-4-9(2)6-7-5-8(7)9/h1,7-8H,4-6H2,2H3	InChI=1S/C9H12/c1-3-4-9(2)6-7-5-8(7)9/h1,7-8H,4-6H2,2H3/t7-,8-,9-/m1/s1
