18
gdb 51202	3.84691	1.14831	1.04295	3.2987	76.99	-0.2364	-0.0236	0.2128	1172.0153	0.146929	-401.857239	-401.849454	-401.84851	-401.890485	29.426	
O	-0.5875692688	 0.7212100987	 0.7022487436	-0.240257
C	 0.0910153074	 1.0175549288	-0.246875802	 0.158174
C	 1.3310615438	 1.8910672769	-0.1728256789	-0.418398
C	 1.2894467809	 3.014344772	-1.1785529076	 0.358739
C	 0.2497740866	 4.1337155422	-1.33592197	-0.300748
C	 1.1919446974	 4.2630794571	-2.5323439428	-0.00024
C	 2.4687102672	 3.8893965369	-1.7230144393	-0.111511
C	 2.781045546	 2.8129123964	-2.7540864794	-0.194293
N	 1.2581713347	 2.7223470802	-2.7175719673	-0.187453
H	-0.1507277756	 0.6585714148	-1.2704289669	 0.102293
H	 1.4321381072	 2.2764400931	 0.8463883036	 0.127594
H	 2.1996505312	 1.2498455128	-0.3827217299	 0.125303
H	-0.7736963406	 3.8183256373	-1.557377827	 0.114237
H	 0.2753571565	 4.935836189	-0.5941069476	 0.104348
H	 1.1312829086	 4.913017727	-3.406246235	 0.08816
H	 3.1271877995	 4.5552210834	-1.1547609897	 0.069245
H	 3.1708449771	 3.1302018328	-3.7265343759	 0.10481
H	 3.2880554109	 1.8998194006	-2.425156038	 0.099996
52.3458	71.7147	166.5772	257.6085	345.3813	429.6424	458.2561	472.1134	650.5379	695.5187	761.9725	804.5854	847.6481	869.298	883.9094	914.4082	924.4876	969.8703	1019.8436	1026.7562	1042.1259	1074.9353	1091.9649	1115.7589	1146.9935	1156.7606	1170.8301	1207.916	1226.4495	1241.8276	1265.4291	1282.2114	1311.0036	1337.76	1421.3892	1447.5692	1492.3647	1521.1681	1832.6198	2907.8933	3013.8506	3036.005	3049.2244	3056.8814	3093.2063	3095.446	3110.543	3121.8992
O=CCC12CC3C1CN23	O=CC[C@@]12C[C@H]3[C@@H]1CN23	
InChI=1S/C7H9NO/c9-2-1-7-3-6-5(7)4-8(6)7/h2,5-6H,1,3-4H2	InChI=1S/C7H9NO/c9-2-1-7-3-6-5(7)4-8(6)7/h2,5-6H,1,3-4H2/t5-,6-,7+/m0/s1
