18
gdb 73587	2.21833	2.08218	1.55008	2.8673	70.	-0.2238	0.0624	0.2861	929.6994	0.149139	-439.030282	-439.02293	-439.021986	-439.061721	29.747	
O	 0.0579704523	 1.4649419535	-0.1424713692	-0.487152
C	 0.0274211148	 0.0627604439	-0.0258244972	 0.406644
C	-1.3577390994	-0.4734795511	-0.3893409342	-0.278893
C	-1.6574754577	-1.5476581738	 0.6837856724	-0.069995
O	-0.8036900002	-1.2845010375	 1.8112135222	-0.267444
C	 0.313290846	-0.5630239037	 1.3815468721	 0.058279
C	 1.540952315	-1.291830985	 0.780194363	-0.089678
N	 1.0579316956	-2.1094666914	-0.3577185768	-0.334837
C	 1.2908895622	-0.6610898658	-0.5516992691	-0.153083
H	 0.9232823251	 1.7738811381	 0.1479237725	 0.276693
H	-2.0605223866	 0.3611703903	-0.3241799632	 0.117877
H	-1.4021538185	-0.8903175766	-1.3973595607	 0.111185
H	-2.6898249512	-1.5039190586	 1.0454808087	 0.096829
H	-1.4567145719	-2.5498288123	 0.29558893	 0.117891
H	 0.6035378002	 0.1664328758	 2.1453610417	 0.076228
H	 2.4741655325	-1.5347813862	 1.2741036035	 0.092536
H	 1.8654246098	-2.6037414269	-0.7357002923	 0.233717
H	 1.9822128623	-0.2933818826	-1.3012928535	 0.093202
132.7683	201.0281	264.3202	286.5058	332.2166	358.4347	468.7593	537.768	619.3626	653.8207	702.7089	773.1959	811.1471	837.9576	867.8354	904.6728	935.7009	960.8909	981.9207	1002.4419	1009.2871	1067.3221	1086.414	1098.6555	1116.9914	1135.7324	1170.1485	1211.8128	1242.965	1252.8894	1263.5295	1300.2905	1337.4764	1349.6788	1369.7337	1386.025	1412.0366	1474.1936	1516.4733	3045.8272	3056.6893	3070.6947	3090.4361	3126.324	3176.5014	3189.9071	3473.6859	3799.3951
OC12CCOC1C1NC21	O[C@]12CCO[C@H]1[C@H]1N[C@@H]21	
InChI=1S/C6H9NO2/c8-6-1-2-9-5(6)3-4(6)7-3/h3-5,7-8H,1-2H2	InChI=1S/C6H9NO2/c8-6-1-2-9-5(6)3-4(6)7-3/h3-5,7-8H,1-2H2/t3-,4+,5-,6-/m0/s1
