16
gdb 27201	3.42163	1.55403	1.07708	1.4003	80.96	-0.1723	0.0089	0.1812	1065.7933	0.126793	-400.780552	-400.773298	-400.772353	-400.811989	28.769	
N	 0.1068387676	 1.3880709758	 0.1636054981	-0.594416
C	-0.0646508031	 0.0147032068	 0.0538493184	 0.202456
C	-1.1397786114	-0.8226743351	 0.0329825552	 0.20888
C	-2.5902226921	-0.9106167499	 0.0281957975	-0.232121
C	-2.9557283733	-2.2071278926	-0.0054990312	-0.086881
C	-1.7508552593	-3.1433916107	-0.0264306908	-0.420863
C	-0.6070549467	-2.1633022334	 0.0002922236	 0.23778
C	 0.7365545088	-2.0577799276	 0.0033953887	-0.198609
O	 1.0840896734	-0.713714756	 0.0379459529	-0.188789
H	 0.9722733125	 1.7025190985	-0.2573541151	 0.255301
H	-0.6772553074	 1.9103529259	-0.2024787716	 0.255252
H	-3.2722103092	-0.0695423192	 0.0520486691	 0.09023
H	-3.9746652478	-2.573215705	-0.0157522217	 0.092573
H	-1.7514354963	-3.8243082032	 0.83513847	 0.125022
H	-1.747876302	-3.782335782	-0.9195821471	 0.123651
H	 1.5690513661	-2.7394263223	-0.0146973761	 0.130534
152.6408	180.9653	222.2572	281.8032	346.2576	448.4824	526.0103	602.3259	613.6461	655.9182	662.8709	682.6432	726.886	747.14	799.3073	858.5076	929.6571	942.4045	954.6854	995.0333	1046.7662	1103.7358	1145.2206	1152.0937	1214.2094	1256.9162	1285.7067	1300.534	1385.1801	1429.3297	1456.9158	1606.5658	1627.8466	1653.8992	1711.3659	3017.6937	3039.8591	3198.9141	3222.7381	3285.7887	3541.8493	3643.0942
NC1=C2C=CCC2=CO1	Nc1c2C=CCc2co1	
InChI=1S/C7H7NO/c8-7-6-3-1-2-5(6)4-9-7/h1,3-4H,2,8H2	InChI=1S/C7H7NO/c8-7-6-3-1-2-5(6)4-9-7/h1,3-4H,2,8H2
