19
gdb 111364	2.05639	1.67448	1.10801	5.2885	79.28	-0.2473	0.0293	0.2767	1150.8016	0.159976	-382.042449	-382.033816	-382.032872	-382.075847	32.391	
C	-0.0465293853	 1.5206542646	 0.1216392925	-0.393124
C	 0.1637973642	 0.0027967457	 0.1126511938	-0.19728
C	 0.7054882338	-0.5255449146	-1.2090518814	 0.012099
C	 0.9235251097	-2.0381691894	-1.3582554902	-0.072562
N	-0.4118085918	-2.6703259968	-1.2600633751	-0.318724
C	 0.0406083896	-2.1143087812	-2.5502737609	-0.056643
C	-0.2425930404	-0.6025634008	-2.494592439	-0.187604
C	-1.6352138385	-0.1979901095	-2.374909778	 0.311499
N	-2.7391339177	 0.1360446137	-2.2912653366	-0.348304
H	 0.8883143921	 2.0536964299	-0.0870376862	 0.107004
H	-0.7840569606	 1.8259798183	-0.6265969132	 0.138732
H	-0.4101625737	 1.8570036635	 1.0970323835	 0.118424
H	 0.8770752706	-0.2745825359	 0.9003426428	 0.093886
H	-0.7718916301	-0.5141274779	 0.3456640403	 0.135454
H	 1.6105923882	 0.0188515611	-1.4964806472	 0.084054
H	 1.8229958235	-2.5950309263	-1.1271889399	 0.10206
H	-0.2820522708	-3.6801500969	-1.3022902145	 0.237628
H	 0.1004861115	-2.7234400158	-3.4426852475	 0.109127
H	 0.2100946358	-0.0721409018	-3.3353890129	 0.124275
100.6733	114.2202	137.6913	186.0056	216.9179	274.0195	367.4212	393.6296	500.3725	560.3106	632.1035	683.3085	761.4596	802.7023	838.4751	844.8242	907.224	929.4936	965.2801	986.8947	1016.8303	1029.634	1074.1018	1097.1403	1108.0896	1125.2991	1148.5314	1179.3538	1247.4958	1257.4725	1296.9078	1315.7379	1331.7098	1348.6105	1384.4825	1396.9089	1417.4928	1487.8062	1502.3205	1508.166	2352.6591	3022.6513	3033.2842	3056.3955	3084.9886	3091.0516	3105.2415	3115.2033	3190.1345	3205.3348	3487.2067
CCC1C2NC2C1C#N	CC[C@H]1[C@H]2N[C@H]2[C@H]1C#N	
InChI=1S/C7H10N2/c1-2-4-5(3-8)7-6(4)9-7/h4-7,9H,2H2,1H3	InChI=1S/C7H10N2/c1-2-4-5(3-8)7-6(4)9-7/h4-7,9H,2H2,1H3/t4-,5+,6-,7+/m1/s1
