21
gdb 96481	2.38359	1.50629	0.99138	2.1284	82.24	-0.2364	0.0211	0.2575	1240.438	0.182472	-424.225824	-424.21677	-424.215826	-424.259684	34.36	
C	 0.7551012452	 1.5834244948	-0.3299658461	-0.400188
C	 0.0751543316	 0.23719688	-0.0611449472	 0.035524
O	 0.1813103858	-0.4646775579	-1.2907315511	-0.23785
C	-0.3688687943	-1.7458361712	-1.3584772068	 0.006579
O	 0.5490178834	-2.7371976137	-1.0056330588	-0.222111
C	 0.687001682	-2.9637731442	 0.3797689369	-0.138438
C	 0.8501092375	-1.7872468749	 1.3022330222	-0.157609
C	 0.6092775979	-0.4785689869	 1.1727642223	 0.275929
C	 0.765286028	 0.4169401582	 2.3844010582	-0.472896
H	 1.831752184	 1.4449305653	-0.4652169108	 0.129062
H	 0.345021843	 2.006250162	-1.2498879764	 0.126178
H	 0.5885669955	 2.2926010969	 0.482917667	 0.117098
H	-0.9971667632	 0.4320058005	 0.1391621885	 0.076561
H	-1.2866367634	-1.8146347555	-0.7463615933	 0.073934
H	-0.6104845458	-1.9221042568	-2.4101183892	 0.111569
H	-0.1769017641	-3.5503209757	 0.7489703601	 0.100177
H	 1.5603073767	-3.6189470019	 0.4815893982	 0.12071
H	 1.1618166182	-2.1232783139	 2.2922071552	 0.081886
H	 0.9673715798	-0.1696005638	 3.2834276105	 0.120148
H	 1.5827570981	 1.1359358921	 2.2602890875	 0.131574
H	-0.1444524961	 1.0044904866	 2.563994573	 0.122163
48.4555	133.7654	210.5072	229.8394	259.0456	282.0337	324.7077	360.1729	373.0795	418.8656	449.1949	572.4481	609.7438	706.9229	767.2805	830.424	867.9648	921.2443	992.3357	1015.3711	1023.1874	1054.3282	1083.9773	1097.2309	1108.0361	1126.811	1166.8369	1203.6575	1234.7845	1283.4024	1326.7903	1336.3394	1365.8575	1387.0376	1405.8696	1406.6828	1418.8364	1448.6329	1479.2148	1485.1683	1485.3078	1499.5242	1503.9024	1504.6103	1742.9634	2902.4057	2916.2335	2939.8154	3020.8421	3049.3769	3052.6346	3073.203	3091.7319	3110.4916	3119.6277	3127.8586	3139.3307
CC1OCOCC=C1C	C[C@H]1OCOCC=C1C	
InChI=1S/C7H12O2/c1-6-3-4-8-5-9-7(6)2/h3,7H,4-5H2,1-2H3	InChI=1S/C7H12O2/c1-6-3-4-8-5-9-7(6)2/h3,7H,4-5H2,1-2H3/t7-/m1/s1
