22
gdb 64438	2.17664	1.6425	1.20498	3.5945	82.16	-0.234	0.0343	0.2683	1147.5567	0.195686	-404.410401	-404.401198	-404.400254	-404.443961	35.698	
C	 0.0198780693	 1.5377027924	-0.0208596531	-0.413572
C	-0.0024035145	-0.0005553508	-0.0126739395	 0.164342
C	-1.4689395148	-0.4791170095	 0.0864361621	-0.411316
C	 0.6719223745	-0.5448691783	-1.2913553528	-0.227969
C	 1.0468744695	-2.0226451197	-1.175306099	-0.218581
C	 2.0347397608	-2.2082545395	-0.0275872179	-0.148197
N	 1.542673583	-1.5573043642	 1.178213372	-0.323867
C	 0.7037062464	-0.4813256504	 1.2721803385	 0.404013
O	 0.4823770771	 0.0440059742	 2.3510046982	-0.398581
H	 1.0441244729	 1.9193416358	-0.088255291	 0.109362
H	-0.5405096912	 1.9186934852	-0.881407896	 0.102513
H	-0.4248199155	 1.9287799238	 0.8956874731	 0.140117
H	-2.0500463879	-0.0854720291	-0.7544761751	 0.109179
H	-1.5495998831	-1.5702847192	 0.0721006658	 0.113055
H	-1.9165829032	-0.1224537724	 1.0171791553	 0.139205
H	 0.0074900201	-0.3779837224	-2.1470928929	 0.095815
H	 1.583996772	 0.0336080321	-1.4914261783	 0.095073
H	 0.1551516183	-2.6333604734	-0.9956876249	 0.11054
H	 1.501378064	-2.3835071929	-2.1034321821	 0.101748
H	 2.1859212329	-3.2720647052	 0.186866773	 0.109491
H	 3.0152690683	-1.7977781865	-0.3163437782	 0.105292
H	 1.978314641	-1.79341142	 2.0587397728	 0.242338
62.4165	144.3732	206.1696	242.9113	256.6819	290.2074	304.6951	343.8122	376.0526	454.4771	458.1224	537.0727	598.648	650.6948	667.927	767.4937	831.0577	871.4059	901.1913	942.5739	952.1045	987.0838	1020.685	1026.8963	1071.0633	1112.8646	1175.2638	1185.3844	1229.6662	1246.8101	1252.6303	1300.4789	1345.2936	1375.5335	1382.8061	1390.7243	1397.8671	1419.3076	1475.5222	1478.4672	1487.2281	1494.3799	1498.7091	1501.4053	1516.1033	1528.3089	1767.5716	2976.5125	3013.5768	3032.6713	3036.9079	3041.1323	3054.3559	3062.382	3087.7988	3096.8137	3103.0153	3124.7215	3139.1614	3599.1879
CC1(C)CCCNC1=O	CC1(C)CCCNC1=O	
InChI=1S/C7H13NO/c1-7(2)4-3-5-8-6(7)9/h3-5H2,1-2H3,(H,8,9)	InChI=1S/C7H13NO/c1-7(2)4-3-5-8-6(7)9/h3-5H2,1-2H3,(H,8,9)
