19
gdb 70880	2.5505	1.5834	1.36579	0.9192	75.62	-0.2203	0.065	0.2853	1053.7097	0.157059	-422.966523	-422.957746	-422.956802	-422.999229	34.033	
C	-0.1437931154	 1.4604093803	 0.0272028135	-0.509135
C	-0.0022802221	-0.0285712859	-0.0639138846	 0.242228
C	 0.9385162091	-0.8581789077	-0.9374370471	-0.309382
C	 0.1189670617	-2.0929562913	-0.4702719986	 0.333738
C	 0.0997228265	-3.4103801151	-1.1786755668	-0.505802
O	 0.4460985429	-2.1773262286	 0.9517050788	-0.322911
C	-0.3015346395	-0.9823977078	 1.1402990607	-0.051674
C	-1.084396119	-1.085332579	-0.1256765637	 0.224081
O	-2.3968444166	-0.9651367237	-0.4969916422	-0.447322
H	 0.7660748914	 1.9225237038	 0.4266393337	 0.122341
H	-0.3415986129	 1.9036509848	-0.9551833729	 0.123985
H	-0.9757699113	 1.7376836456	 0.6835356561	 0.122102
H	 0.7857596308	-0.6457382378	-1.9997418503	 0.099522
H	 2.0070195353	-0.8794376677	-0.6974811517	 0.093915
H	 1.0954167587	-3.8672391591	-1.1560146286	 0.133777
H	-0.601950863	-4.101756509	-0.7024733805	 0.123932
H	-0.1941266469	-3.2785379881	-2.2241440769	 0.127118
H	-0.5279907403	-0.641154228	 2.1422475126	 0.105581
H	-2.9129298795	-1.6290308659	-0.0245475315	 0.293905
171.2259	173.248	182.7117	186.2808	202.2086	286.0234	337.8714	375.8104	421.2869	484.5466	559.8103	569.992	643.9624	659.5083	770.2805	818.261	827.489	881.2897	922.0124	938.5567	971.1318	1013.7994	1036.6274	1081.7676	1130.3937	1148.0966	1164.3262	1180.8438	1221.71	1250.4108	1297.0682	1339.5898	1349.1255	1413.4951	1418.9077	1465.4701	1477.7363	1485.3551	1488.6897	1493.978	1516.5283	3024.0775	3034.7867	3040.2181	3085.2467	3092.9229	3101.2715	3103.6879	3116.5814	3204.1646	3780.439
CC12CC3(C)OC1C23O	C[C@@]12C[C@@]3(C)O[C@@H]1[C@@]23O	
InChI=1S/C7H10O2/c1-5-3-6(2)7(5,8)4(5)9-6/h4,8H,3H2,1-2H3	InChI=1S/C7H10O2/c1-5-3-6(2)7(5,8)4(5)9-6/h4,8H,3H2,1-2H3/t4-,5+,6+,7+/m0/s1
