23
gdb 120644	3.05706	0.79397	0.71212	2.1141	83.34	-0.2447	0.083	0.3277	1694.9322	0.202679	-425.399712	-425.388635	-425.387691	-425.43631	39.722	
C	 0.1399426153	 1.1341349664	-0.4337058838	-0.244991
O	-0.0914553669	-0.0318196481	 0.330931784	-0.276386
C	-1.3723456657	-0.5860628819	 0.1915487343	 0.42149
C	-2.4770947989	 0.1963431133	 0.8696705149	-0.453362
C	-1.6560545042	-1.3472293828	-1.0841994957	-0.353974
C	-1.4061532746	-2.0902205941	 0.2203584172	-0.07322
C	-0.1482495308	-2.9097776972	 0.4085072394	-0.195473
C	-0.2478849398	-4.2855480357	-0.2404974988	-0.06478
O	 0.9663652396	-4.9767502066	 0.0151596396	-0.421625
H	 1.193486001	 1.3930726687	-0.3031052772	 0.126148
H	-0.0576518562	 0.9660991091	-1.5020516546	 0.105745
H	-0.4716150454	 1.9832267333	-0.0978131916	 0.107702
H	-2.6188245276	 1.1812785298	 0.4117027545	 0.116597
H	-3.4283261846	-0.338422175	 0.7976040865	 0.116147
H	-2.24392781	 0.3435769581	 1.9294468388	 0.124828
H	-2.6568356969	-1.326464275	-1.5028720472	 0.105679
H	-0.8595230485	-1.3795129404	-1.8208142109	 0.113719
H	-2.2917584993	-2.511460644	 0.6922795695	 0.079078
H	 0.7102414475	-2.3763881814	-0.0079639933	 0.116135
H	 0.0575544179	-3.0442775277	 1.4773871886	 0.104724
H	-1.1114308946	-4.8333212808	 0.1729165474	 0.077949
H	-0.4248672866	-4.1725542492	-1.3222251332	 0.084512
H	 0.9106311796	-5.8436902686	-0.3966913884	 0.283357
62.8264	88.8981	101.3572	107.1901	185.9836	192.952	222.1576	261.8179	263.8917	307.3459	320.847	391.7649	448.9575	497.4495	604.6502	688.2582	794.1256	837.686	874.2156	919.909	935.1023	983.0188	1013.3195	1038.621	1066.8182	1089.5077	1115.2982	1118.2616	1131.1149	1180.1684	1182.2351	1219.3129	1227.1832	1241.8485	1273.5767	1303.9715	1306.8305	1335.2323	1409.7239	1426.0645	1461.1487	1474.0207	1479.7656	1481.8663	1493.8814	1497.7844	1505.0603	1511.333	1528.0139	2956.7545	2985.4114	2990.3126	3031.8337	3041.4802	3042.1302	3095.2895	3101.3747	3112.5416	3114.3663	3123.4171	3126.411	3210.9721	3831.106
COC1(C)CC1CCO	CO[C@@]1(C)C[C@H]1CCO	
InChI=1S/C7H14O2/c1-7(9-2)5-6(7)3-4-8/h6,8H,3-5H2,1-2H3	InChI=1S/C7H14O2/c1-7(9-2)5-6(7)3-4-8/h6,8H,3-5H2,1-2H3/t6-,7+/m1/s1
