17
gdb 84734	2.64913	1.71543	1.09546	1.9328	79.37	-0.1959	-0.0253	0.1706	1080.6657	0.138123	-418.05697	-418.048784	-418.04784	-418.089946	30.552	
C	-0.3766610951	 1.3909764016	-0.0545336926	-0.345309
N	-0.0730165582	-0.0354673762	 0.0309266729	-0.142313
C	 0.3844679207	-0.6265847658	-1.1654923316	-0.012915
C	 0.2807667358	-1.9103803889	-1.5317344066	-0.133049
C	-0.2487291755	-2.9708686275	-0.6984781994	-0.121963
C	-0.2029355025	-2.9471961101	 0.6392298022	-0.038756
N	 0.3663595946	-1.9239308037	 1.4158345804	-0.367893
C	 0.1285728675	-0.5479912197	 1.304680269	 0.456486
O	 0.1116421802	 0.1440994107	 2.3020268908	-0.384738
H	 0.519045954	 1.977225946	-0.2992915793	 0.125312
H	-1.1281553903	 1.5572104518	-0.8313133153	 0.128865
H	-0.7562319756	 1.7258315372	 0.9081352985	 0.166503
H	 0.8292867326	 0.0956273607	-1.8454780686	 0.105582
H	 0.6515316695	-2.1725381113	-2.517885814	 0.098176
H	-0.6785292052	-3.8437374492	-1.1774213824	 0.097893
H	-0.591303587	-3.7758192501	 1.2236263246	 0.112903
H	 0.4717377145	-2.1429950757	 2.3955085315	 0.255218
92.1902	104.2625	130.5736	230.2507	323.8685	358.6178	377.3343	437.0717	532.2865	599.5626	617.2271	692.0034	748.7217	776.4852	779.7147	813.3064	924.9994	938.1089	939.7329	978.8487	1015.4182	1110.2512	1156.6078	1162.5241	1227.5427	1265.8534	1294.0413	1355.8057	1423.0253	1448.1195	1470.9894	1485.7038	1496.9215	1514.6137	1699.6315	1720.5567	1789.0244	3017.5019	3089.3632	3151.1404	3168.257	3178.0681	3179.6197	3195.1128	3618.1935
CN1C=CC=CNC1=O	Cn1cccc[nH]c1=O	
InChI=1S/C6H8N2O/c1-8-5-3-2-4-7-6(8)9/h2-5H,1H3,(H,7,9)	InChI=1S/C6H8N2O/c1-8-5-3-2-4-7-6(8)9/h2-5H,1H3,(H,7,9)
