21
gdb 122066	1.94318	0.98141	0.7383	5.2725	80.38	-0.2564	0.0219	0.2782	1610.0708	0.18174	-420.407291	-420.396682	-420.395737	-420.444067	37.449	
C	-0.1587178299	 1.4673666519	 0.2203609143	-0.408709
C	 0.0646346785	-0.0345702259	 0.0218402925	-0.189431
C	 0.7416703784	-0.3860190253	-1.3208503288	-0.099336
N	 2.1194801351	 0.1028552255	-1.3672379254	-0.313386
C	 2.7830463979	-0.0069316798	-2.6713560062	-0.168882
C	 4.2591612081	 0.3421091331	-2.4933631476	-0.055489
O	 4.8783746834	-0.5035954694	-1.5505253559	-0.416593
C	 0.7319827241	-1.8478646434	-1.5090203765	 0.304392
N	 0.6960801283	-2.9931897833	-1.6560205716	-0.325599
H	 0.779849444	 2.0243722566	 0.3099518784	 0.124442
H	-0.7319393361	 1.8990268842	-0.6074080089	 0.125309
H	-0.720336662	 1.6456509742	 1.1415058308	 0.133211
H	 0.6780472066	-0.4436732623	 0.8311011475	 0.128508
H	-0.8979615161	-0.553957166	 0.0552838015	 0.127127
H	 0.1238594796	 0.0341661012	-2.1371820575	 0.106086
H	 2.1187803236	 1.075197487	-1.0756575495	 0.227953
H	 2.7013774006	-1.0471289358	-3.0040682971	 0.141867
H	 2.3245650602	 0.632048119	-3.445699126	 0.08613
H	 4.7871455209	 0.2238975038	-3.4454207117	 0.11169
H	 4.3489332097	 1.4054910958	-2.2027227216	 0.075329
H	 4.2277629752	-0.6218036311	-0.8454998909	 0.285382
44.1763	68.851	94.5759	131.6179	154.4872	191.3058	231.7388	276.3404	325.0172	333.7677	435.1787	483.9651	500.1565	544.7694	624.7252	740.9737	797.3081	857.4362	892.152	908.4243	967.8126	1008.3799	1053.6592	1093.3153	1101.3551	1119.9612	1149.9882	1175.8046	1238.922	1255.7426	1284.4611	1322.4702	1356.3893	1376.3912	1385.2008	1392.2642	1415.3825	1446.026	1478.3826	1480.6161	1498.3669	1502.4352	1510.7823	1521.636	2361.3439	2920.736	2930.8335	2959.6336	3035.4075	3054.8499	3070.2842	3080.7386	3086.92	3110.1644	3113.3088	3522.852	3754.9984
CCC(NCCO)C#N	CC[C@@H](NCCO)C#N	
InChI=1S/C6H12N2O/c1-2-6(5-7)8-3-4-9/h6,8-9H,2-4H2,1H3	InChI=1S/C6H12N2O/c1-2-6(5-7)8-3-4-9/h6,8-9H,2-4H2,1H3/t6-/m1/s1
