18
gdb 74966	2.50331	1.6263	1.44001	1.8711	77.62	-0.2127	-0.0007	0.2119	1011.888	0.149652	-401.961319	-401.95369	-401.952746	-401.993249	29.895	
C	-0.0678961198	 1.5000319406	 0.0470229505	-0.514817
C	-0.023808043	 0.0103281642	-0.0021263273	 0.371479
C	-0.0485328999	-0.8089629632	-1.0714516263	-0.185831
C	 0.0637201358	-2.2421275152	-0.6022645825	-0.178924
C	 1.4676299309	-2.4249510814	 0.0441984419	-0.171367
N	 1.4458338965	-1.5027068744	 1.227904791	-0.302664
C	 0.0835138411	-0.8774358118	 1.2196625603	-0.226497
C	-0.7656139247	-2.0604546213	 0.7025324199	 0.432413
O	-1.7036341643	-2.6523257293	 1.1455287714	-0.330355
H	 0.847597644	 1.9033833968	 0.4968963316	 0.140327
H	-0.1758068995	 1.9292298285	-0.953198764	 0.126688
H	-0.9047280268	 1.8529324363	 0.6623685192	 0.132557
H	-0.11405527	-0.5099840179	-2.1106885618	 0.101035
H	-0.2506657773	-3.0275161106	-1.2855884502	 0.085659
H	 1.6248261171	-3.4650357767	 0.3513177258	 0.105295
H	 2.2710349838	-2.1432808628	-0.6433655998	 0.109727
H	 1.5346790907	-2.0523947053	 2.0777727915	 0.225583
H	-0.1721791245	-0.4426044866	 2.1841978488	 0.079693
119.2886	179.0048	194.7251	231.8658	291.4483	398.5154	455.343	540.5399	571.7605	643.5213	697.3585	774.6514	791.0755	829.6196	858.3058	877.8096	907.8211	942.8595	980.2172	999.5586	1010.0722	1059.9925	1076.3341	1098.6957	1150.1052	1172.9541	1203.2187	1225.863	1267.6671	1278.1199	1328.4915	1356.8497	1411.9103	1422.7809	1477.8883	1486.653	1516.4077	1669.3628	1887.8487	3020.7852	3031.3196	3071.4073	3073.2485	3108.933	3140.5612	3149.9933	3202.4044	3504.6079
CC1=CC2CNC1C2=O	CC1=C[C@H]2CN[C@@H]1C2=O	
InChI=1S/C7H9NO/c1-4-2-5-3-8-6(4)7(5)9/h2,5-6,8H,3H2,1H3	InChI=1S/C7H9NO/c1-4-2-5-3-8-6(4)7(5)9/h2,5-6,8H,3H2,1H3/t5-,6-/m0/s1
