16
gdb 34116	3.58859	1.47973	1.38157	1.6445	75.01	-0.2358	0.0279	0.2637	960.5811	0.125405	-400.654533	-400.647838	-400.646894	-400.685413	27.792	
C	 0.004460058	-1.1676837333	 0.0286864	-0.315764
C	-0.0076398059	 0.0349315344	 0.0376039187	 0.052067
C	-0.0071958313	 1.470108122	 0.0267450631	 0.19545
C	-0.8374339442	 2.2385050259	-1.0409642675	-0.259432
C	-0.0522055629	 3.5417849174	-0.8422821803	 0.036121
O	 1.2788122404	 3.1405845565	-1.2885963968	-0.284398
C	 1.3318180304	 2.3933507719	-0.0861960983	 0.071199
C	 0.4047975499	 3.3376461947	 0.6844179231	-0.064844
N	-0.2908281579	 2.2087198036	 1.2984782181	-0.342572
H	 0.0145149708	-2.2295144372	 0.0262794097	 0.18277
H	-0.7222749383	 1.8620698426	-2.058499747	 0.125665
H	-1.895922667	 2.278931794	-0.7696226636	 0.10079
H	-0.3999175595	 4.4785863576	-1.2729040539	 0.087545
H	 2.2965654172	 1.9892138708	 0.2088788479	 0.107471
H	 0.7065906331	 4.1932890791	 1.2848361656	 0.093012
H	-1.2857330128	 2.3417226499	 1.4798221412	 0.21492
143.0204	156.9341	387.5953	447.6205	476.5506	529.2538	565.5869	573.4665	615.239	662.469	698.6944	728.7129	781.6447	828.3115	858.3107	893.118	938.5041	946.415	975.4072	1000.0823	1028.7549	1041.0797	1062.5747	1107.973	1146.6127	1167.2492	1208.3644	1224.4974	1266.0303	1276.3893	1314.9828	1323.9675	1345.8552	1472.1415	2237.4175	3068.3204	3135.5526	3140.96	3149.0533	3166.56	3452.8405	3502.242
C#CC12CC3OC1C3N2	C#C[C@]12C[C@@H]3O[C@H]1[C@@H]3N2	
InChI=1S/C7H7NO/c1-2-7-3-4-5(8-7)6(7)9-4/h1,4-6,8H,3H2	InChI=1S/C7H7NO/c1-2-7-3-4-5(8-7)6(7)9-4/h1,4-6,8H,3H2/t4-,5+,6-,7-/m0/s1
