21
gdb 77871	2.31256	1.43321	1.24376	1.2807	84.35	-0.2177	0.027	0.2446	1161.5655	0.181494	-387.095993	-387.086774	-387.08583	-387.129181	35.832	
C	-0.1135206835	 1.5651374883	 0.0211648077	-0.420972
C	 0.0557144586	 0.0645648387	 0.0829707763	-0.070882
C	 1.3703459077	-0.6796450167	-0.2021522755	-0.212807
C	 2.6478147502	 0.0892946636	-0.0930941346	 0.346541
C	 3.5388093738	 0.3184992215	-1.2735846961	-0.49831
C	 2.8364371316	 0.5172042551	 1.1620805189	-0.17955
C	 1.7346132289	 0.0754476866	 2.09784546	-0.342317
C	 0.7634538614	-0.6827908115	 1.183721273	 0.374137
O	 0.1927720821	-1.8605097134	 1.6780693392	-0.469389
H	 0.8021006374	 2.0900324178	 0.3046533751	 0.12613
H	-0.3804808591	 1.8851312294	-0.9921170648	 0.114884
H	-0.9135169988	 1.8987765912	 0.6924443681	 0.110391
H	-0.8012223278	-0.4957680953	-0.2861929066	 0.084852
H	 1.3150897836	-1.5535169283	-0.8432661828	 0.087144
H	 3.0182311203	 0.8736996612	-2.0640566658	 0.126397
H	 4.4372035354	 0.8774662741	-0.9977020151	 0.121138
H	 3.8544742697	-0.6331765058	-1.7198647711	 0.125793
H	 3.6752307282	 1.1218198604	 1.4908115429	 0.084152
H	 2.1033155888	-0.6055673808	 2.8763007834	 0.113388
H	 1.2594805637	 0.9195821642	 2.6159769319	 0.100259
H	-0.5893689221	-1.6210772105	 2.1868469761	 0.279021
125.5137	177.4472	184.8714	215.166	221.9595	268.1045	276.2545	298.5275	392.9094	443.5725	482.693	555.1472	604.0005	642.3322	732.273	774.976	812.819	888.5676	928.7214	943.4357	971.708	991.2585	1016.8197	1034.0358	1062.8157	1082.6547	1115.3219	1124.9705	1155.1859	1185.8021	1225.9929	1247.9608	1291.7443	1314.7463	1339.5862	1371.5855	1411.7683	1414.3847	1446.6495	1477.7379	1478.4736	1489.3551	1499.4862	1501.7914	1702.949	3011.4293	3017.3713	3028.37	3041.4743	3063.2937	3082.2411	3109.3783	3112.8966	3131.04	3164.0396	3185.3918	3795.8449
CC1C2C(C)=CCC12O	C[C@H]1[C@H]2C(=CC[C@@]12O)C	
InChI=1S/C8H12O/c1-5-3-4-8(9)6(2)7(5)8/h3,6-7,9H,4H2,1-2H3	InChI=1S/C8H12O/c1-5-3-4-8(9)6(2)7(5)8/h3,6-7,9H,4H2,1-2H3/t6-,7+,8+/m0/s1
