25
gdb 115342	3.10909	1.06069	0.89373	1.5065	88.8	-0.237	0.0775	0.3146	1449.563	0.228754	-389.512256	-389.501936	-389.500992	-389.5473	38.72	
C	-0.2545499112	 1.7061842581	 0.3472074218	-0.383237
C	-0.0038730309	 0.1999897997	 0.2213127022	-0.19651
C	-1.2858430126	-0.5890480428	-0.0136973214	 0.158424
O	-1.8515314925	-0.1903266644	-1.2673137192	-0.280898
C	-2.6802455818	-1.2367228495	-1.7658418248	-0.07155
C	-2.5473347285	-2.4249629987	-0.7890758703	 0.006705
C	-2.7216246003	-3.7924824612	-1.4463316582	-0.424543
C	-1.1913538753	-2.1266424604	-0.0979692188	-0.033752
C	 0.0322880705	-2.6298634367	-0.8720849584	-0.401425
H	 0.6817203466	 2.2509379396	 0.5024440455	 0.105908
H	-0.7307600361	 2.0910733764	-0.5581491757	 0.136399
H	-0.9146386828	 1.9278605487	 1.19343144	 0.108875
H	 0.689677949	 0.0109549252	-0.604684678	 0.1026
H	 0.4719887869	-0.1790980505	 1.1349741394	 0.090342
H	-1.995528661	-0.3381906987	 0.7967472653	 0.05261
H	-3.7188832454	-0.8891152256	-1.8491637871	 0.092416
H	-2.3380977408	-1.5049449487	-2.7754895861	 0.091946
H	-3.3235684789	-2.3170681079	-0.0207901242	 0.075428
H	-2.0027726129	-3.9484219875	-2.2566153212	 0.120341
H	-2.5948179096	-4.6033246957	-0.7212795571	 0.115148
H	-3.7250305469	-3.8901347826	-1.8750978653	 0.115309
H	-1.176827416	-2.5578817539	 0.9095182706	 0.065312
H	 0.0810741584	-2.2007103196	-1.8781449151	 0.125764
H	 0.9587768376	-2.3661671931	-0.3541287827	 0.116256
H	 0.0136518247	-3.7189480502	-0.9715772813	 0.112133
89.325	94.1039	115.0854	167.9093	221.3509	224.1559	239.997	290.0624	308.612	314.6002	394.9403	471.495	513.2475	634.8599	694.8682	770.6249	785.0409	840.487	899.3606	930.7927	955.1172	967.0195	1017.5815	1035.1073	1037.6599	1064.1938	1076.4779	1103.2831	1145.424	1168.7076	1179.9066	1192.5811	1223.5608	1270.6047	1295.7566	1319.7869	1332.0256	1344.6184	1365.3762	1383.7718	1399.7446	1408.4107	1410.3774	1416.4774	1426.7648	1474.1002	1493.7607	1496.0246	1497.9762	1503.7348	1509.5837	1512.1317	1530.4498	2919.1464	2995.7489	3009.1486	3026.1019	3031.4836	3032.3303	3035.3788	3040.9123	3043.905	3074.0275	3093.1891	3100.7329	3105.3309	3110.0325	3110.7248	3124.3775
CCC1OCC(C)C1C	CC[C@H]1OC[C@@H](C)[C@H]1C	
InChI=1S/C8H16O/c1-4-8-7(3)6(2)5-9-8/h6-8H,4-5H2,1-3H3	InChI=1S/C8H16O/c1-4-8-7(3)6(2)5-9-8/h6-8H,4-5H2,1-3H3/t6-,7-,8-/m1/s1
