16
gdb 43747	4.66199	0.94728	0.88622	3.6236	75.53	-0.2409	-0.02	0.2209	1290.1423	0.122374	-400.681083	-400.67272	-400.671776	-400.714601	31.365	
O	 0.2298550256	-0.0092014877	-0.0945051498	-0.305617
C	 0.0965870746	 1.1723082944	 0.0255914499	 0.461477
C	-1.1437203121	 2.1137640648	 0.0658119766	-0.386684
C	-0.1501881702	 3.2802789549	-0.0890910661	 0.348274
C	-0.350213371	 4.5298935385	-0.9079158141	-0.48341
C	-1.3121627308	 5.4521729687	-0.3081940546	 0.309837
C	-2.1095299283	 6.1958362489	 0.195528836	-0.437968
N	 0.6762059784	 3.2305956758	 1.1170954221	-0.349601
C	 1.0390676057	 2.3521291499	-0.057712439	-0.259555
H	-1.7763455503	 1.9408326675	-0.8098145642	 0.130991
H	-1.7463936266	 2.1177981726	 0.9752896738	 0.138111
H	 0.6163466281	 5.0349861217	-1.0391609189	 0.133411
H	-0.6889885381	 4.2514584099	-1.914408968	 0.145011
H	-2.8119625602	 6.8575097023	 0.6389679645	 0.20464
H	 1.3330117877	 4.0126367025	 1.0841647877	 0.237
H	 2.0180342374	 2.4263483352	-0.5152027957	 0.114082
55.669	84.6978	139.1491	279.8725	330.8335	353.8797	418.0702	435.8239	464.2322	555.4322	632.1751	644.0294	654.3301	716.2652	763.2063	852.9684	902.6005	930.0973	955.9944	976.6882	1005.263	1026.3014	1063.6449	1114.1172	1128.2898	1191.5714	1198.3726	1284.9525	1333.4087	1346.688	1408.0198	1450.2836	1458.6398	1897.89	2243.6292	3012.708	3046.7103	3069.8604	3136.6135	3197.8833	3449.683	3505.5331
O=C1CC2(CC#C)NC12	O=C1C[C@@]2(CC#C)N[C@@H]12	
InChI=1S/C7H7NO/c1-2-3-7-4-5(9)6(7)8-7/h1,6,8H,3-4H2	InChI=1S/C7H7NO/c1-2-3-7-4-5(9)6(7)8-7/h1,6,8H,3-4H2/t6-,7+/m0/s1
