15
gdb 25918	4.52262	1.08477	0.88133	1.7162	70.71	-0.1969	-0.0185	0.1784	1237.9921	0.114944	-450.196547	-450.188413	-450.187469	-450.229345	30.653	
N	-0.0678924217	 1.372711176	-0.0319654655	-0.562585
C	 0.0658217851	 0.0108395337	 0.0841324487	 0.479671
O	 1.1188395831	-0.5608864421	 0.2393503604	-0.360626
N	-1.1600103883	-0.6927402998	 0.0454298525	-0.085376
C	-2.4456953734	-0.2203551427	 0.1501592421	 0.012482
N	-3.3291770262	-1.1810372705	 0.0967609325	-0.316074
C	-2.6005272215	-2.3487815751	-0.0511990368	 0.283878
N	-3.2731613101	-3.5558347022	-0.2097294503	-0.592477
C	-1.258611308	-2.0812837239	-0.0756702544	-0.182197
H	 0.8101797344	 1.8583288568	-0.1282261431	 0.273701
H	-0.837639609	 1.7513209578	-0.5594916633	 0.266396
H	-2.6682906246	 0.8231526723	 0.3104253599	 0.135701
H	-4.2067213965	-3.51115786	 0.1762722694	 0.252789
H	-2.7712460142	-4.3590394835	 0.1416772444	 0.247535
H	-0.3761580991	-2.6869147368	-0.1698150564	 0.147183
80.0283	124.0622	189.7038	247.5182	328.8646	377.0253	418.096	428.8079	521.0174	544.426	617.5209	648.2491	670.7912	689.1094	741.985	768.8066	773.005	811.449	994.3734	1024.039	1092.671	1101.8306	1151.5347	1263.788	1305.6733	1356.5949	1387.8572	1444.437	1531.5513	1622.7873	1625.1937	1662.5052	1827.5117	3258.5351	3309.258	3554.4024	3594.0376	3653.517	3712.1194
NC(=O)N1C=NC(N)=C1	NC(=O)n1cnc(N)c1	
InChI=1S/C4H6N4O/c5-3-1-8(2-7-3)4(6)9/h1-2H,5H2,(H2,6,9)	InChI=1S/C4H6N4O/c5-3-1-8(2-7-3)4(6)9/h1-2H,5H2,(H2,6,9)
