18
gdb 7857	4.58137	1.13258	1.05307	4.1365	69.03	-0.2326	0.0377	0.2703	1160.7571	0.154232	-381.137593	-381.12893	-381.127986	-381.171354	31.663	
C	 0.0753930166	 1.5748591784	-0.052267409	-0.395079
C	 0.4065376975	 0.1027902162	-0.0396675172	-0.002941
N	 1.7701931656	-0.2848684108	 0.367812335	-0.344645
C	 0.6174110745	-0.7123003812	 1.1909834353	-0.017874
C	 0.5352908198	-0.1727521152	 2.6069538267	-0.305829
C	 1.6328535546	-0.7211909096	 3.5291236633	 0.368412
N	 2.8964933456	-0.4423887923	 3.0964192968	-0.505281
O	 1.3907871513	-1.312041371	 4.5634812418	-0.36186
H	 0.5581367936	 2.1041432223	 0.7717885254	 0.130218
H	 0.4207798106	 2.0327473641	-0.9851100554	 0.124362
H	-1.0063329411	 1.7303228648	 0.0192542517	 0.122987
H	-0.0103426123	-0.44776814	-0.8823908461	 0.089095
H	 2.1122746459	-1.0577777874	-0.1956428254	 0.236292
H	 0.3378451153	-1.7617409545	 1.1118123966	 0.096632
H	 0.6103699077	 0.9187432833	 2.6014023615	 0.119371
H	-0.4226934503	-0.4438397541	 3.0555895879	 0.126525
H	 3.0348694953	-0.1130365237	 2.1507076727	 0.267766
H	 3.6652127399	-0.850577479	 3.6030142883	 0.25185
57.1543	68.0063	148.1176	199.5293	235.2823	348.4077	393.5374	420.6632	464.0072	482.5727	566.4599	620.4368	723.4166	771.375	828.3721	868.9439	911.1622	939.6858	984.7237	1014.6614	1037.5532	1089.3579	1130.9816	1158.3358	1176.517	1241.0969	1272.7194	1278.2593	1304.5829	1356.4537	1400.3127	1426.4607	1461.5717	1466.1887	1490.5271	1502.1765	1619.9844	1804.9473	3039.6592	3064.6742	3100.1324	3104.5232	3115.7646	3126.9472	3135.1349	3511.3334	3539.6068	3697.8127
CC1NC1CC(N)=O	C[C@H]1N[C@H]1CC(=O)N	
InChI=1S/C5H10N2O/c1-3-4(7-3)2-5(6)8/h3-4,7H,2H2,1H3,(H2,6,8)	InChI=1S/C5H10N2O/c1-3-4(7-3)2-5(6)8/h3-4,7H,2H2,1H3,(H2,6,8)/t3-,4+/m1/s1
