17
gdb 31177	2.61167	1.30621	0.87933	6.6992	81.95	-0.189	-0.0107	0.1783	1277.1534	0.136662	-418.051794	-418.042952	-418.042008	-418.085586	32.192	
C	-0.0280908809	 1.4324672565	 0.1585364434	-0.344295
N	-0.0306696441	 0.0299087276	-0.21611633	-0.380622
C	-1.1689082774	-0.7324807063	-0.0790457135	 0.333367
C	-1.3314594607	-2.1240696105	-0.0185807085	 0.101114
C	-0.2818794384	-3.1092594317	-0.0181225199	 0.059047
O	-0.4364433022	-4.3153679462	 0.0360086738	-0.312407
C	-2.7475980295	-2.3695779444	 0.0536222873	-0.231696
C	-3.3832918582	-1.1698978964	 0.0399277981	-0.087941
N	-2.4084682321	-0.1705879056	-0.0357684918	-0.319042
H	 0.9880883715	 1.8191528171	 0.063937848	 0.142805
H	-0.6564061865	 2.0155079353	-0.5258003305	 0.132007
H	-0.3754469709	 1.6123846019	 1.1875794952	 0.12563
H	 0.8143975078	-0.4701536503	 0.009389005	 0.256395
H	 0.7542006832	-2.6875455805	-0.071931355	 0.017404
H	-3.1983488281	-3.3469714159	 0.1121652976	 0.12247
H	-4.4266768128	-0.9053613945	 0.0828578449	 0.123845
H	-2.5979138107	 0.814699064	-0.0832325541	 0.261919
66.0997	153.3767	163.185	175.107	221.131	244.5235	328.0778	377.3675	436.6709	492.7098	567.6655	623.6136	662.961	700.8244	732.7922	802.7652	857.1975	913.4678	1020.5017	1041.0089	1075.9608	1094.5684	1147.6014	1161.9922	1199.5843	1297.6713	1336.1977	1379.0323	1441.0283	1455.4313	1466.088	1488.1663	1520.0273	1554.8833	1571.1909	1630.6892	1766.3956	2787.3988	2984.5077	3050.3286	3130.334	3264.3907	3284.0216	3631.7243	3687.5798
CNC1=C(C=O)C=CN1	CNc1c(C=O)cc[nH]1	
InChI=1S/C6H8N2O/c1-7-6-5(4-9)2-3-8-6/h2-4,7-8H,1H3	InChI=1S/C6H8N2O/c1-7-6-5(4-9)2-3-8-6/h2-4,7-8H,1H3
