18
gdb 23492	3.21903	1.45865	1.24926	1.4991	78.68	-0.2234	0.0243	0.2476	1042.0307	0.149426	-401.889888	-401.882565	-401.881621	-401.921577	29.464	
O	-0.1671344927	 1.3289978702	-0.030648601	-0.405142
N	 0.0242750045	-0.0759266138	-0.0124980404	-0.299033
C	-1.0901876378	-0.6727149869	 0.0838725476	 0.47551
C	-1.4135744367	-2.1153638654	 0.0215603194	-0.165831
C	-2.5812970392	-2.4143526363	 0.9747759923	-0.039197
C	-2.818605794	-1.4767481593	 2.1604000548	-0.242503
C	-3.0988092298	-0.0969238558	 1.5023773502	-0.208723
C	-2.5620555693	-0.2602024683	 0.0694234581	-0.145653
C	-2.8697456036	-1.7408312417	-0.3234508601	-0.083734
H	 0.7352419864	 1.6481848553	-0.133351871	 0.302928
H	-0.7867711868	-2.9060737478	-0.3703157705	 0.09911
H	-2.800282074	-3.4720537523	 1.0748823239	 0.091659
H	-3.6678535456	-1.8172198048	 2.7602598321	 0.100874
H	-1.9473262057	-1.4417060712	 2.8220847116	 0.112013
H	-4.1749967016	 0.1059285658	 1.4709491219	 0.099814
H	-2.61555713	 0.7307644719	 2.0273828413	 0.117607
H	-2.8151484114	 0.5392989894	-0.6253315624	 0.092362
H	-3.4874582127	-2.098706699	-1.1347399579	 0.097941
102.1698	172.1459	238.9178	278.7857	367.5321	443.1014	478.7383	580.3103	664.2597	697.9574	742.7236	770.3234	801.3335	830.0028	856.4832	887.4537	905.1247	938.4052	963.7073	977.4213	1016.841	1035.5483	1059.455	1065.0016	1093.2728	1147.0577	1172.7623	1203.7866	1230.911	1252.2912	1262.3013	1297.5717	1313.6971	1338.7532	1388.273	1413.6761	1484.1966	1502.7411	1782.4498	3042.3902	3051.5748	3086.1441	3107.5695	3131.7217	3172.5713	3198.0078	3218.397	3824.5547
ON=C1C2C3CCC1C23	ON=C1[C@H]2[C@H]3CC[C@@H]1[C@@H]23	
InChI=1S/C7H9NO/c9-8-7-4-2-1-3-5(4)6(3)7/h3-6,9H,1-2H2	InChI=1S/C7H9NO/c9-8-7-4-2-1-3-5(4)6(3)7/h3-6,9H,1-2H2/t3-,4+,5-,6-/m0/s1
