21
gdb 65125	3.25467	1.24232	1.14555	2.0406	81.59	-0.2323	0.079	0.3113	1172.391	0.182159	-387.001991	-386.993731	-386.992787	-387.034824	32.904	
C	 0.0355183454	 1.539522179	-0.0024184641	-0.456334
C	 0.1010120148	 0.0218381303	 0.0018344619	 0.31564
C	 1.0384909764	-0.6328875556	-0.9882982061	-0.304593
C	 1.3826238487	-0.6272545758	 0.4797104927	-0.301773
C	-1.2424986742	-0.6462360184	 0.2171087006	-0.031725
C	-1.462435936	-1.9380898372	 1.0592297748	 0.018437
C	-1.2509388506	-1.1438036959	 2.3733270727	-0.229418
C	-2.1749617538	-0.3419261465	 1.4301732959	 0.028827
O	-2.9021247309	-1.5972204702	 1.127118061	-0.309431
H	 1.0079306464	 1.9765925858	-0.2503678293	 0.112896
H	-0.6902205674	 1.9008046858	-0.7405478869	 0.118456
H	-0.2651834484	 1.9297048125	 0.9769489075	 0.116601
H	 0.7327404291	-1.5759508613	-1.4301014935	 0.111355
H	 1.605691	 0.0067964203	-1.6564329762	 0.108908
H	 2.1837696725	 0.0226929859	 0.8170459125	 0.109304
H	 1.3275177366	-1.5690196692	 1.0142502095	 0.114264
H	-1.8249270729	-0.6743654988	-0.7094746499	 0.084057
H	-1.206529012	-2.9723975111	 0.8245617864	 0.090588
H	-1.748110395	-1.5689584697	 3.2460191264	 0.105696
H	-0.2599131086	-0.7462510135	 2.5934629749	 0.107623
H	-2.77590042	 0.5448591636	 1.6352115293	 0.090622
64.495	155.5499	196.7276	234.0694	299.6044	318.7928	402.5446	422.5258	509.1654	582.2019	731.6823	778.6049	789.6656	826.1188	856.9763	873.3511	889.6371	896.9121	922.8901	953.6643	961.3519	1010.8694	1031.968	1042.4865	1060.135	1073.4936	1082.815	1101.4352	1122.9001	1148.2472	1173.6244	1191.4349	1204.6562	1219.0582	1261.1058	1278.4942	1298.9193	1340.6048	1381.7069	1415.5859	1468.1853	1488.134	1491.7328	1498.5347	1508.4126	3021.1689	3061.1323	3081.3918	3082.326	3097.9087	3104.6781	3113.9064	3124.0794	3130.4978	3159.7942	3202.5563	3217.9384
CC1(CC1)C1C2CC1O2	CC1(CC1)[C@H]1[C@H]2C[C@@H]1O2	
InChI=1S/C8H12O/c1-8(2-3-8)7-5-4-6(7)9-5/h5-7H,2-4H2,1H3	InChI=1S/C8H12O/c1-8(2-3-8)7-5-4-6(7)9-5/h5-7H,2-4H2,1H3/t5-,6+,7+
