18
gdb 50837	4.83209	0.83197	0.77665	5.564	75.52	-0.2473	-0.031	0.2163	1480.3259	0.147495	-439.124558	-439.115543	-439.114599	-439.16013	31.678	
O	-0.6422715766	 0.342913283	-0.2166926829	-0.250454
C	-0.201240841	 1.4566719861	-0.2632591486	 0.166244
N	 1.1335116901	 1.8318173056	-0.1303695007	-0.355599
C	 2.2521160114	 1.0070025849	 0.0923640226	 0.424883
O	 2.1794374691	-0.1927529657	 0.1757667712	-0.308039
C	 3.543083636	 1.782155011	 0.2719986395	-0.105383
C	 3.9674992562	 2.0705917134	 1.7546139116	-0.222838
C	 5.4213894972	 1.689698406	 1.3705574753	-0.211397
C	 4.86586596	 0.993340873	 0.1001841447	-0.226492
H	-0.8313299628	 2.3563809248	-0.4246715831	 0.082854
H	 1.3107047601	 2.8239024993	-0.1910673905	 0.254435
H	 3.5362201199	 2.7058304918	-0.3159993485	 0.072014
H	 3.7808195678	 3.0747783277	 2.1415058478	 0.101489
H	 3.5204546509	 1.3390849928	 2.4328861295	 0.126769
H	 6.0203038058	 2.5718469098	 1.1273271406	 0.104241
H	 5.9804172588	 1.0751481611	 2.078860368	 0.107716
H	 4.6780979244	-0.0709174764	 0.2567847111	 0.13749
H	 5.4067131127	 1.129202502	-0.8384631374	 0.102069
26.7411	56.0758	109.0539	171.515	200.1949	242.6327	300.7798	335.5892	565.6226	605.0379	616.3822	718.9613	754.9814	796.7443	869.4732	914.8892	932.7669	941.0925	960.4431	1011.2324	1026.9875	1039.7299	1102.9763	1141.6954	1161.1012	1210.9241	1238.2634	1253.6969	1262.0096	1280.2429	1284.7304	1374.7845	1446.7374	1476.0288	1487.3796	1498.6339	1507.5352	1806.6446	1870.8536	2913.0185	3048.8688	3060.8594	3063.9224	3075.2048	3108.608	3123.1224	3137.069	3610.9153
O=CNC(=O)C1CCC1	O=CNC(=O)C1CCC1	
InChI=1S/C6H9NO2/c8-4-7-6(9)5-2-1-3-5/h4-5H,1-3H2,(H,7,8,9)	InChI=1S/C6H9NO2/c8-4-7-6(9)5-2-1-3-5/h4-5H,1-3H2,(H,7,8,9)
