16
gdb 32559	2.68732	1.49352	0.9657	4.4823	76.1	-0.2058	-0.012	0.1938	1152.4394	0.126762	-434.098825	-434.090702	-434.089758	-434.131709	30.197	
O	-0.0089996099	 1.4171879016	-0.0537554618	-0.431081
C	-0.0071463694	-0.0029657101	-0.069161082	-0.164202
C	-1.4156293791	-0.5026837726	 0.0184168307	 0.207882
C	-2.4695789183	 0.3285992721	 0.0969409812	-0.081103
N	-3.7493812459	-0.1935190086	 0.1755830173	-0.315342
C	-3.9203032575	-1.5472457064	 0.1722512424	 0.093677
N	-2.9710267115	-2.4091848672	 0.1003730726	-0.321621
C	-1.6372416624	-1.953179736	 0.0173067316	 0.272163
N	-0.6332051711	-2.749812722	-0.0575701135	-0.548354
H	 0.9031135895	 1.7141075435	-0.1051993719	 0.292842
H	 0.4529597374	-0.4058612636	-0.9843440697	 0.119924
H	 0.5687494055	-0.4249457994	 0.7685541238	 0.119914
H	-2.3725691217	 1.4049498313	 0.1023499638	 0.151054
H	-4.5473548997	 0.4162871952	 0.234900993	 0.267796
H	-4.954375691	-1.8824892445	 0.2368102453	 0.12667
H	-0.9774255448	-3.7120126132	-0.0452629627	 0.209782
85.026	129.9241	203.4082	205.6993	269.3506	348.8154	410.6354	440.7959	510.073	559.4542	561.4926	600.7095	778.3936	780.2408	881.9793	901.8389	912.0708	961.9011	1018.1134	1043.0668	1063.8805	1090.5818	1198.6704	1211.7537	1231.1508	1233.8164	1303.0416	1406.9793	1425.7485	1459.4743	1496.6086	1520.3927	1650.2485	1669.0351	1725.6126	2987.9374	3008.3426	3144.9169	3243.1912	3459.5065	3659.458	3848.5782
OCC1=CNC=NC1=N	OCC1=CNCN=C1[NH]	
InChI=1S/C5H7N3O/c6-5-4(2-9)1-7-3-8-5/h1,3,9H,2H2,(H2,6,7,8)	InChI=1S/C5H8N3O/c6-5-4(2-9)1-7-3-8-5/h1,6-7,9H,2-3H2
