16
gdb 98714	2.89739	1.19073	1.00245	3.5385	71.61	-0.2589	-0.0045	0.2545	1207.7767	0.123664	-434.049666	-434.040694	-434.03975	-434.084157	31.512	
C	-0.0906486261	 0.9865729339	 0.667120323	-0.225607
O	-0.1587693895	-0.3478801365	 0.1544429749	-0.230259
C	-1.3889908038	-0.7907238314	-0.1494703592	 0.455938
N	-2.4355918929	-0.1001605323	 0.0260481473	-0.554992
N	-1.2884711652	-2.0623016931	-0.7548867263	-0.124707
C	-0.5064811222	-3.1279422519	-0.1712894153	-0.229189
C	-2.0080099992	-3.2289829123	-0.2535599967	-0.169838
C	-2.7796771458	-3.1594724471	 0.965464542	 0.292881
N	-3.4225492641	-3.1239837402	 1.9256786551	-0.317807
H	 0.9682856263	 1.1764487211	 0.8448541031	 0.130326
H	-0.4950373089	 1.6968929913	-0.0582253649	 0.144395
H	-0.6615317399	 1.0715913682	 1.5949540976	 0.147227
H	-3.271428009	-0.6020810365	-0.2614575558	 0.232269
H	 0.0968221014	-3.7104971593	-0.8609554691	 0.142416
H	-0.0776598028	-2.9652142788	 0.8128231901	 0.157135
H	-2.4599948484	-3.8480675452	-1.0235496255	 0.149812
47.2325	100.6142	146.8202	173.7611	185.7688	239.0646	291.7298	336.6128	467.7003	532.9523	553.4126	644.2663	754.3942	780.1408	808.1416	835.0952	926.6664	973.3918	1034.7825	1048.9647	1107.1729	1117.3418	1132.3439	1161.33	1182.9941	1218.0021	1298.5351	1364.9962	1393.4926	1476.8141	1478.0335	1500.5639	1509.0102	1734.0063	2358.6979	3052.4764	3121.396	3129.4123	3152.4623	3156.5627	3217.1825	3538.0983
COC(=N)N1CC1C#N	CO[C]([NH])N1C[C@H]1C#N	
InChI=1S/C5H7N3O/c1-9-5(7)8-3-4(8)2-6/h4,7H,3H2,1H3	InChI=1S/C5H7N3O/c1-9-5(7)8-3-4(8)2-6/h4,7H,3H2,1H3/t4-,8?/m1/s1
