19
gdb 30655	4.08209	0.97509	0.81513	2.4506	77.63	-0.2215	0.0252	0.2467	1406.888	0.160636	-419.24902	-419.240073	-419.239129	-419.283243	33.037	
C	-0.4141097167	 1.5781680093	 0.2011341953	-0.387244
C	-0.469164046	 0.0561960449	 0.3452530164	-0.185545
C	 0.8498977764	-0.5405204007	 0.8481286218	-0.017726
O	 1.2529953966	 0.009672745	 2.1104544512	-0.434796
C	 0.8140573103	-2.0381709698	 0.927113321	 0.295737
C	 0.0162429435	-3.0210054862	 0.3932495732	-0.179498
N	 0.4500114215	-4.2708795101	 0.7740744798	-0.260903
C	 1.4985956534	-4.0531569462	 1.5346595239	 0.01232
N	 1.7658312501	-2.7235262425	 1.6550677018	-0.295487
H	 0.3282085949	 1.8765519243	-0.5472836627	 0.117029
H	-1.3829081478	 1.9784616989	-0.1108418846	 0.113114
H	-0.1353735541	 2.0469692834	 1.1484576571	 0.127793
H	-1.2700823112	-0.2348811845	 1.0381806213	 0.096861
H	-0.7142456684	-0.4070081786	-0.6177123226	 0.111672
H	 1.6549526162	-0.2247477898	 0.1695493719	 0.10219
H	 0.5691420175	-0.2219232496	 2.7507894293	 0.280253
H	-0.842860993	-2.901820871	-0.2491597678	 0.106178
H	 2.0941662238	-4.8088350361	 2.0250508731	 0.129019
H	 2.4763802029	-2.2795408407	 2.2137684706	 0.269034
53.4027	98.5574	140.2156	178.5826	224.7266	290.2015	343.9064	372.9966	459.2246	480.5343	582.2583	661.6974	690.0938	759.6063	804.3203	815.6107	857.0112	894.522	940.7287	975.2474	1022.6283	1062.4838	1098.6549	1107.7713	1128.6582	1151.189	1236.2768	1250.4438	1280.1496	1305.0057	1328.4791	1366.3461	1399.08	1408.1202	1416.5155	1429.8167	1483.8236	1495.7911	1499.6174	1509.6879	1601.8557	3006.2388	3023.7245	3040.0441	3065.2303	3105.9098	3123.6955	3248.4029	3251.8239	3658.5848	3781.7671
CCC(O)C1=CN=CN1	CC[C@@H](O)c1cnc[nH]1	
InChI=1S/C6H10N2O/c1-2-6(9)5-3-7-4-8-5/h3-4,6,9H,2H2,1H3,(H,7,8)	InChI=1S/C6H10N2O/c1-2-6(9)5-3-7-4-8-5/h3-4,6,9H,2H2,1H3,(H,7,8)/t6-/m1/s1
