21
gdb 80054	2.39576	1.89788	1.44587	0.5139	86.34	-0.2133	0.0185	0.2317	1019.7858	0.183351	-349.936724	-349.928704	-349.92776	-349.96855	32.753	
C	-0.0335383906	 1.611319111	 0.0115819292	-0.419529
C	 0.0961441333	 0.0937529157	 0.0178041665	-0.016482
C	 1.1399973465	-0.6699958215	-0.9169099145	-0.124473
C	 2.4044088555	 0.1522476599	-1.0027017193	-0.091972
C	 2.9926060787	 0.1647154639	 0.1986421833	-0.083603
C	 2.24800446	-0.7355920959	 1.1240778672	-0.127174
C	 1.3696161487	-1.6352822209	 0.2926661624	-0.124472
C	 0.6929584807	-0.6481500041	 1.2150613191	 0.332262
C	-0.0084121843	-0.8714354133	 2.5248600116	-0.505089
H	 0.9267790605	 2.0996940892	 0.1933950055	 0.119185
H	-0.4230252694	 1.9718081575	-0.9476392159	 0.107277
H	-0.731110321	 1.9372791882	 0.7916200049	 0.109017
H	-0.882826889	-0.3584398825	-0.1799501531	 0.071844
H	 0.740364115	-1.0598572274	-1.8522959234	 0.060951
H	 2.674141235	 0.7589823136	-1.8584309682	 0.091809
H	 3.8533783468	 0.7523722818	 0.4939770888	 0.091786
H	 2.7197931099	-1.1294169946	 2.0178009362	 0.07607
H	 1.3821458666	-2.7194864057	 0.2958422746	 0.0805
H	 0.5368674028	-1.5844201263	 3.1527304912	 0.115891
H	-0.1022878296	 0.0614203292	 3.0934862363	 0.121105
H	-1.0190508061	-1.2690489078	 2.3722591375	 0.115097
174.6001	192.2092	207.5739	211.7158	258.7078	308.5105	442.7569	472.4849	572.5409	593.5398	685.2668	715.0663	753.6287	789.7403	808.6451	836.1181	865.4465	895.3176	909.5094	940.6396	948.5548	988.3526	1015.1628	1039.0344	1072.1389	1079.5761	1111.5019	1120.8496	1125.8266	1158.3524	1198.7483	1223.0447	1273.3165	1274.744	1303.4876	1358.7935	1373.1642	1401.614	1412.078	1429.7335	1486.7959	1491.8688	1496.9899	1501.8393	1643.1475	3017.3832	3026.6636	3035.0167	3075.6328	3085.0203	3088.8494	3115.0905	3121.1199	3165.4897	3175.1725	3194.1546	3219.3212
CC1C2C=CC3C2C13C	C[C@H]1[C@H]2C=C[C@@H]3[C@H]2[C@]13C	
InChI=1S/C9H12/c1-5-6-3-4-7-8(6)9(5,7)2/h3-8H,1-2H3	InChI=1S/C9H12/c1-5-6-3-4-7-8(6)9(5,7)2/h3-8H,1-2H3/t5-,6+,7+,8-,9+/m0/s1
