20
gdb 29857	4.47348	1.1707	0.95673	1.6296	88.33	-0.1942	0.0421	0.2363	1266.0285	0.174065	-366.059729	-366.051663	-366.050719	-366.092348	31.166	
C	 0.021660382	 1.4361668167	 0.0096626812	-0.330054
N	-0.056584211	-0.0082508958	 0.0023165685	 0.023561
C	-0.0257924343	-0.7962680068	-1.1311618426	-0.283108
C	 0.0320976263	-2.1047208426	-0.7190581565	 0.269683
C	 0.0377419005	-3.5038452575	-1.2682475607	-0.34794
C	 0.4736014451	-4.3375182953	-0.0239281472	-0.192989
C	 0.0513421777	-3.5173520166	 1.2339939982	-0.347942
C	 0.0398190569	-2.1123855149	 0.7000249685	 0.269636
C	-0.0133802743	-0.8084524765	 1.126820518	-0.283082
H	 1.0586981866	 1.7945133389	 0.0041988031	 0.133264
H	-0.4885146921	 1.8369730682	-0.8699881612	 0.136499
H	-0.4757662563	 1.8271152598	 0.9009536186	 0.13651
H	-0.0399464403	-0.3395734797	-2.1086095501	 0.110614
H	-0.9632620661	-3.805154126	-1.6068622269	 0.101653
H	 0.7132273155	-3.654229292	-2.1168525854	 0.099464
H	 0.0568768665	-5.3486196243	-0.0271246074	 0.089359
H	 1.56439891	-4.4360065959	-0.0303883237	 0.103127
H	-0.9459101799	-3.8223753244	 1.5802653701	 0.101652
H	 0.7360586902	-3.6768348533	 2.0734930199	 0.099463
H	-0.0167544329	-0.3623186119	 2.1092289054	 0.110631
97.2052	117.6041	181.359	238.8721	274.492	283.6088	481.8324	517.3747	602.9627	644.9111	645.9759	678.8021	709.4595	745.2389	801.4317	858.2264	893.8561	906.0443	994.454	1020.2997	1060.5853	1079.6669	1103.168	1146.2066	1146.5063	1178.9571	1189.8316	1229.3542	1250.1228	1299.1067	1312.0945	1338.075	1385.7359	1390.6546	1445.0148	1462.072	1485.3333	1489.3607	1490.1598	1507.1939	1513.7685	1570.8035	1622.5618	3007.2228	3007.4879	3020.918	3042.7263	3062.2431	3066.3349	3090.8468	3096.2472	3125.106	3246.3257	3250.0366
CN1C=C2CCCC2=C1	Cn1cc2CCCc2c1	
InChI=1S/C8H11N/c1-9-5-7-3-2-4-8(7)6-9/h5-6H,2-4H2,1H3	InChI=1S/C8H11N/c1-9-5-7-3-2-4-8(7)6-9/h5-6H,2-4H2,1H3
