18
gdb 69679	3.23324	1.32325	1.20351	2.7105	82.98	-0.2007	0.0481	0.2489	1107.922	0.146045	-364.686242	-364.678029	-364.677085	-364.718547	32.715	
C	 0.0336790853	 1.5895341656	 0.0427748037	-0.510983
C	 0.1170784619	 0.0972803873	 0.0568502068	 0.342311
N	-0.8061709488	-0.7611081623	 0.8304855884	-0.355581
C	 0.6606352524	-0.867816468	 1.0370854726	-0.124185
C	 1.2651566767	-1.7338549061	-0.0985582894	-0.086162
C	 0.2713696564	-2.2143778791	-1.1418973865	-0.20249
C	-1.0300513606	-2.8043820877	-0.9787426361	 0.347981
C	-2.0681132937	-3.4127716274	-0.9794167962	-0.453123
C	 0.6948432703	-0.7556689629	-1.1169920255	-0.136191
H	 0.962908496	 2.0334857069	-0.3311498978	 0.12673
H	-0.7836197064	 1.9348015873	-0.601940103	 0.132564
H	-0.1430264886	 1.9801154101	 1.0508498789	 0.117885
H	-1.1773745422	-0.1960229577	 1.594873683	 0.223987
H	 1.1071972054	-0.7115385116	 2.0106952965	 0.09325
H	 2.264744192	-2.1473612445	-0.0507772183	 0.093946
H	 0.8225327039	-2.7188868881	-1.9366935193	 0.117063
H	-3.0064653107	-3.9055932364	-0.925066635	 0.181055
H	 1.1907044908	-0.3058912554	-1.9689116526	 0.091944
103.2807	163.1942	210.7194	248.558	278.0253	341.4229	390.5251	467.0679	583.4565	604.2268	611.6447	629.0981	666.9437	716.2408	735.0138	819.3015	836.9229	870.3758	916.8009	940.2756	955.2877	976.5534	990.4449	1017.1544	1064.6398	1074.901	1108.0803	1135.791	1184.1764	1226.1809	1283.7827	1305.3974	1336.7221	1402.447	1412.8071	1458.0002	1481.0314	1499.3746	2229.949	3021.0278	3082.4884	3095.5393	3099.2956	3177.9042	3188.4607	3198.3001	3460.7596	3506.5549
CC12NC1C1C(C#C)C21	C[C@]12N[C@H]1[C@H]1[C@@H](C#C)[C@@H]21	
InChI=1S/C8H9N/c1-3-4-5-6(4)8(2)7(5)9-8/h1,4-7,9H,2H3	InChI=1S/C8H9N/c1-3-4-5-6(4)8(2)7(5)9-8/h1,4-7,9H,2H3/t4-,5+,6-,7+,8-/m1/s1
