19
gdb 36907	4.46732	0.95963	0.905	2.631	75.7	-0.2414	0.0779	0.3193	1337.6442	0.158192	-422.951635	-422.943459	-422.942515	-422.985386	31.034	
C	 0.3145049317	 1.4360619972	 0.1450869841	-0.2927
C	 1.1893219705	 0.2026338626	 0.0247626266	-0.286897
C	-0.3138985593	 0.0960937545	-0.044881334	 0.146499
O	-1.0280251462	-0.4138540294	 1.0409521125	-0.255742
C	-1.2322024286	-1.7979184121	 0.9926741603	 0.138398
C	-0.0961075386	-2.7995402176	 1.4493642352	-0.292734
C	-1.0945757807	-3.3415170513	 2.4779292587	 0.029222
O	-1.4122500546	-2.2500487248	 3.3430267867	-0.235793
C	-2.1220688828	-2.3492480808	 2.1058874477	-0.014686
H	 0.2173521463	 1.8749772208	 1.1314359829	 0.13061
H	 0.2839942812	 2.144279303	-0.67503438	 0.114084
H	 1.7650677596	 0.0522363578	-0.8820746593	 0.111196
H	 1.666261591	-0.1463649902	 0.9328821905	 0.123355
H	-0.7613315358	-0.1314757459	-1.0137687508	 0.082417
H	-1.6183122101	-2.1017771109	 0.0078167509	 0.072669
H	 0.1928855471	-3.5026303285	 0.6654796225	 0.104114
H	 0.7886194765	-2.3415126167	 1.8937396293	 0.11712
H	-1.2094096856	-4.3449220342	 2.8695022902	 0.106484
H	-3.2042672114	-2.3805037532	 2.1556693461	 0.102382
47.5366	86.085	116.6548	228.0618	305.8042	368.5053	416.0213	490.2165	579.8478	734.8268	759.0031	804.0341	819.487	842.1851	848.3005	872.9952	919.6033	948.6358	972.3274	991.7304	1016.7458	1029.7609	1048.6	1060.9022	1073.7481	1117.5869	1127.933	1180.7598	1193.9767	1199.2565	1204.8615	1238.9534	1242.8482	1249.9854	1291.183	1362.5366	1386.949	1421.8621	1453.3755	1465.3929	1499.6493	2990.0845	3077.551	3086.6691	3137.3801	3140.8223	3142.8066	3183.8167	3200.1641	3223.1492	3236.8799
C1CC1OC1CC2OC12	C1CC1O[C@H]1C[C@H]2O[C@@H]12	
InChI=1S/C7H10O2/c1-2-4(1)8-5-3-6-7(5)9-6/h4-7H,1-3H2	InChI=1S/C7H10O2/c1-2-4(1)8-5-3-6-7(5)9-6/h4-7H,1-3H2/t5-,6+,7-/m0/s1
