15
gdb 51444	3.24464	1.11067	0.90539	3.902	66.07	-0.2508	-0.0459	0.2049	1227.3258	0.109961	-457.73578	-457.727545	-457.726601	-457.769871	28.999	
O	-0.5799880534	 0.5366368995	 0.6617297235	-0.238491
C	 0.2164032348	 0.8501970932	-0.1850670902	 0.150113
C	 1.2981673205	 1.8957045735	 0.0156801435	-0.299647
C	 1.3250739421	 2.9324457836	-1.1092745055	-0.17315
C	 2.5514037137	 3.8583936631	-1.2124449272	 0.019034
O	 3.6706534909	 3.0164543792	-1.4506285916	-0.229549
C	 2.8835078575	 3.4294393365	-2.5937791504	-0.10634
C	 1.6827584844	 2.487809944	-2.5725276393	 0.416395
O	 1.1467875457	 1.783671003	-3.3735373244	-0.294554
H	 0.2087150462	 0.3761351744	-1.190171254	 0.105442
H	 1.1451596874	 2.3662470558	 0.9917388358	 0.126084
H	 2.267263955	 1.3794276666	 0.0285000529	 0.142283
H	 0.3847546991	 3.4963839865	-1.1574067235	 0.120672
H	 2.7219876838	 4.8225429787	-0.7498990404	 0.128239
H	 3.3975256722	 3.9307299425	-3.4044378392	 0.13347
60.244	73.7549	113.3777	180.2234	216.6359	315.174	435.6284	499.4679	548.8484	644.6095	731.7339	773.4021	823.2704	850.5293	870.2521	901.7114	953.9859	1017.4919	1034.4279	1061.3701	1075.4133	1125.1657	1168.7592	1211.5447	1221.8879	1253.7301	1284.7284	1339.5093	1359.3082	1434.3794	1465.1137	1832.6142	1898.5626	2910.1774	3029.431	3044.2051	3095.4457	3198.9962	3212.0686
O=CCC1C2OC2C1=O	O=CC[C@H]1[C@H]2O[C@H]2C1=O	
InChI=1S/C6H6O3/c7-2-1-3-4(8)6-5(3)9-6/h2-3,5-6H,1H2	InChI=1S/C6H6O3/c7-2-1-3-4(8)6-5(3)9-6/h2-3,5-6H,1H2/t3-,5-,6+/m1/s1
