17
gdb 125634	2.34454	1.56182	0.96692	1.7209	70.92	-0.2098	0.0422	0.252	1180.3029	0.13696	-455.169159	-455.16039	-455.159445	-455.202582	32.456	
C	-0.2671302569	 1.5282580404	-0.2121331687	-0.496119
C	-0.0913950634	 0.0531449455	-0.0331686819	 0.270438
N	-0.1181322663	-0.7565640745	-1.0865957455	-0.30631
N	 0.0622925532	-2.0049575003	-0.5651347209	-0.276494
C	 0.1962909337	-1.9840545227	 0.7753336301	 0.404906
O	 0.3989220996	-3.1101158922	 1.479722291	-0.432094
C	 0.1031201013	-0.6633568311	 1.1794778604	-0.033149
C	 0.1802712684	-0.2286250533	 2.6074782466	-0.213394
O	 1.033764651	-1.1086476872	 3.370467295	-0.421297
H	 0.5656983364	 2.0899382004	 0.2270651528	 0.1206
H	-0.3183040674	 1.7647274663	-1.2769403615	 0.143205
H	-1.1863055368	 1.8889204099	 0.263829247	 0.126339
H	 0.1089214454	-2.8048281456	-1.1722453803	 0.274288
H	 0.6027457906	-2.8097284169	 2.3837920999	 0.308296
H	 0.5208817478	 0.8120239981	 2.6936229756	 0.111761
H	-0.7880827193	-0.2899065532	 3.1185846486	 0.127478
H	 1.9313785027	-0.9844149536	 3.0404057218	 0.291547
98.4924	123.2344	163.7805	194.4331	242.6279	281.8828	356.7233	388.2187	444.0801	472.9277	508.9423	599.0557	671.5249	704.8304	709.6786	760.1879	803.7737	968.0915	996.9543	999.6251	1063.8119	1087.7927	1139.086	1198.2205	1215.0792	1272.5543	1363.3376	1394.2347	1402.1504	1407.9667	1437.7281	1481.9159	1488.1926	1509.0234	1515.0938	1604.2555	1638.5333	3011.571	3028.5433	3049.1913	3076.5756	3131.6577	3633.4402	3683.238	3796.0337
CC1=NNC(O)=C1CO	Cc1n[nH]c(O)c1CO	
InChI=1S/C5H8N2O2/c1-3-4(2-8)5(9)7-6-3/h8H,2H2,1H3,(H2,6,7,9)	InChI=1S/C5H8N2O2/c1-3-4(2-8)5(9)7-6-3/h8H,2H2,1H3,(H2,6,7,9)
