16
gdb 96795	3.20212	1.36355	1.02156	2.6067	73.83	-0.2579	-0.0192	0.2387	1141.2191	0.125439	-434.090227	-434.082289	-434.081344	-434.123228	29.23	
C	-0.0515871019	 1.4174458439	 0.0686765059	-0.343295
N	 0.0123209131	-0.0344541067	 0.0656310042	-0.320997
C	 0.585315131	-0.6172527155	-0.8987169481	 0.438601
N	 1.1937091611	-0.0933665234	-2.0439048828	-0.393051
C	 1.6076519233	-1.0661315214	-2.9516125136	 0.418901
O	 2.1669189646	-0.8693390397	-3.9932645659	-0.344893
N	 1.2388095945	-2.3539371754	-2.4231460722	-0.151055
C	 2.0439284522	-2.6897427324	-1.2273357358	-0.247943
C	 0.6869589024	-2.0985775876	-1.0747683493	-0.119903
H	 0.886017928	 1.8529179963	 0.4409656029	 0.127481
H	-0.2548552973	 1.8507487004	-0.9232651131	 0.10619
H	-0.848992168	 1.7406329868	 0.7423301665	 0.136655
H	 1.3690890404	 0.8830745774	-2.2168352529	 0.273625
H	 2.1779443172	-3.7534704075	-1.0625118105	 0.144804
H	 2.9093033006	-2.0708449315	-1.0069215503	 0.141612
H	-0.147014531	-2.7068302236	-0.7466877248	 0.133267
66.8497	123.1868	162.1774	212.1366	270.2747	355.4963	444.5712	505.3061	555.1826	642.6613	664.0813	718.1683	790.9663	810.9784	843.4033	882.3851	961.2628	1003.9094	1042.3382	1072.3681	1104.6216	1113.3528	1148.776	1164.9195	1170.6281	1257.2368	1316.1988	1356.2478	1372.0054	1437.5613	1488.7981	1503.3271	1511.04	1791.0117	1881.463	2976.6561	3039.1055	3104.0688	3121.7215	3196.2327	3218.0633	3660.4893
CN=C1NC(=O)N2CC12	CN=C1NC(=O)N2C[C@@H]12	
InChI=1S/C5H7N3O/c1-6-4-3-2-8(3)5(9)7-4/h3H,2H2,1H3,(H,6,7,9)	InChI=1S/C5H7N3O/c1-6-4-3-2-8(3)5(9)7-4/h3H,2H2,1H3,(H,6,7,9)/t3-,8?/m0/s1
