23
gdb 82555	2.64698	1.66358	1.31018	0.0732	89.78	-0.2544	0.0949	0.3493	1092.7669	0.208642	-351.11641	-351.108827	-351.107883	-351.147795	32.418	
C	-0.1381821269	 1.5395488446	-0.0309194853	-0.421112
C	 0.0087940909	 0.0202264822	-0.0752719588	-0.004765
C	 0.9448587896	-0.5382963987	-1.2025972344	-0.02028
C	 2.4249068209	-0.4756702441	-0.6419140281	-0.331591
C	 1.8191215061	-1.4650861062	 0.3828310842	 0.360705
C	 2.0302052006	-2.2777484974	 1.6773260744	-0.352858
C	 0.5892344224	-1.7937464441	 2.0974716748	-0.283769
C	 0.795869371	-0.5929868583	 1.1186787111	 0.041529
C	 0.9859264812	-2.0327290312	-0.8007095543	-0.260053
H	 0.835430995	 2.0324067078	 0.0687225563	 0.112621
H	-0.6111622517	 1.9210929968	-0.9424655044	 0.108607
H	-0.7541783599	 1.851929427	 0.8194992496	 0.11254
H	-0.9848409744	-0.4281826415	-0.1950570036	 0.068023
H	 0.7296665738	-0.2255529006	-2.2261879923	 0.056018
H	 3.1286311736	-0.9052370291	-1.3600703118	 0.092895
H	 2.80890423	 0.4742104702	-0.2581933317	 0.08819
H	 2.207659004	-3.3520971395	 1.5823225164	 0.094659
H	 2.7938344298	-1.8473954107	 2.3325586773	 0.102791
H	-0.1834522087	-2.4941988687	 1.771833937	 0.104941
H	 0.4285112604	-1.5575022621	 3.1517772873	 0.093497
H	 1.3073471781	 0.2024493276	 1.674987587	 0.064168
H	 0.0347711458	-2.5327476688	-0.5950402723	 0.085153
H	 1.5949242084	-2.6467003053	-1.4700818484	 0.088089
170.4096	225.42	245.6134	283.1405	315.6793	386.0896	491.8174	508.3786	553.7375	599.5533	671.9869	781.732	789.6053	815.6672	848.2084	863.0573	885.846	901.2714	947.2723	968.5915	988.6781	1011.349	1022.4181	1050.9288	1068.9069	1076.3633	1085.9622	1137.4461	1157.9197	1166.4045	1173.9181	1188.135	1215.759	1228.0611	1231.9051	1243.5038	1263.6219	1285.2824	1294.8182	1303.1464	1347.0042	1394.7493	1411.9439	1479.3601	1486.2618	1494.1881	1497.9553	1499.8746	1523.0307	3018.7957	3025.6877	3028.3153	3044.8275	3048.9772	3052.0771	3065.5667	3091.6769	3092.8298	3097.0705	3101.2166	3103.0756	3108.8651	3122.0877
CC1C2CC3(CCC13)C2	C[C@H]1[C@H]2C[C@]3(CC[C@H]13)C2	
InChI=1S/C9H14/c1-6-7-4-9(5-7)3-2-8(6)9/h6-8H,2-5H2,1H3	InChI=1S/C9H14/c1-6-7-4-9(5-7)3-2-8(6)9/h6-8H,2-5H2,1H3/t6-,7-,8+,9+/m0/s1
