20
gdb 81824	2.09612	1.67978	1.14089	2.1791	85.47	-0.2252	0.0512	0.2764	1159.4909	0.169205	-365.943115	-365.933792	-365.932848	-365.976671	35.737	
C	-0.1156657521	 1.5926869994	-0.1929567473	-0.40965
C	 0.0022832191	 0.0821250617	-0.0758110677	 0.013803
C	 0.6868976027	-0.6814792872	-1.2177279191	-0.124919
N	 2.0855194813	-0.181997757	-1.2728153931	-0.364211
C	 1.724286093	-1.2512086671	-0.3160726344	 0.347339
C	 2.4285281473	-2.5710498076	-0.2854385744	-0.510241
C	 1.1000935561	-0.5330341042	 0.9056607261	-0.265705
C	 1.9405066972	 0.3495047205	 1.6883170311	 0.365354
C	 2.6312812729	 1.0783569828	 2.3504552211	-0.475909
H	 0.8438881203	 2.0289931428	-0.4779135438	 0.147194
H	-0.8602370417	 1.8616292898	-0.9505442242	 0.105006
H	-0.4258845974	 2.0367638953	 0.758103067	 0.116889
H	-0.9670315543	-0.3660278397	 0.1614647902	 0.074207
H	 0.2199843688	-1.1123324779	-2.0961227657	 0.089355
H	 2.5357170475	-0.6353958052	-2.0678470943	 0.223737
H	 2.5700973872	-2.9645846372	-1.2981658325	 0.117364
H	 3.4163137185	-2.477892922	 0.1806376529	 0.137646
H	 1.8578807628	-3.3110576198	 0.286074731	 0.124411
H	 0.6228197773	-1.2675361902	 1.562889263	 0.097538
H	 3.2486817336	 1.7239576725	 2.9240625342	 0.190792
108.2813	118.9106	173.0039	201.6982	212.92	229.1015	334.3912	341.4125	370.664	507.7927	532.6431	569.6874	613.5046	631.856	676.3851	707.183	786.7099	854.9264	874.3137	896.973	964.468	990.1734	1007.6718	1060.0276	1068.1799	1096.3415	1115.2555	1128.5077	1134.7651	1191.9577	1247.1519	1290.4155	1312.4029	1342.0796	1372.1918	1404.8593	1410.8427	1453.2398	1481.3889	1487.0887	1498.5757	1500.9119	2231.6844	3023.6667	3036.081	3045.3552	3066.0621	3088.1543	3094.6547	3098.8665	3135.3257	3177.8994	3469.1439	3504.4898
CC1C2NC2(C)C1C#C	C[C@H]1[C@H]2N[C@@]2(C)[C@H]1C#C	
InChI=1S/C8H11N/c1-4-6-5(2)7-8(6,3)9-7/h1,5-7,9H,2-3H3	InChI=1S/C8H11N/c1-4-6-5(2)7-8(6,3)9-7/h1,5-7,9H,2-3H3/t5-,6+,7-,8+/m1/s1
