18
gdb 34999	2.32429	1.63398	1.55956	1.1136	82.15	-0.2225	0.0308	0.2533	992.8185	0.148288	-364.757643	-364.749706	-364.748762	-364.790102	31.001	
C	 0.171905644	-1.2645516908	 0.1575553215	-0.48069
C	 0.1127793286	-0.0628839869	 0.1285564078	 0.367212
C	 0.0157792334	 1.3663868569	 0.0513899697	-0.209681
C	 0.4423006199	 2.233410633	 1.2053243888	-0.026905
C	 0.9754629665	 1.6250244344	 2.4919307404	-0.288976
C	 2.3600674874	 1.0559988418	 2.36681572	-0.060362
C	 3.0472202391	 1.0453793496	 1.2302843225	-0.031804
C	 2.5360919211	 1.6055084122	-0.0657129572	-0.207215
N	 1.2107621924	 2.2305388934	-0.03778364	-0.118491
H	 0.2276100123	-2.3244386545	 0.1917861583	 0.199451
H	-0.8050021284	 1.7196958227	-0.5702707559	 0.110768
H	-0.1318858376	 3.1478550931	 1.3440473848	 0.095813
H	 0.9718608365	 2.3976264991	 3.2716814604	 0.112105
H	 0.2862080052	 0.8456408739	 2.8460429365	 0.124689
H	 2.7933511166	 0.6400671487	 3.2723746741	 0.088024
H	 4.0508403085	 0.6284880061	 1.1976914534	 0.085857
H	 3.23792344	 2.371926903	-0.4233197685	 0.116782
H	 2.5320931044	 0.8208518845	-0.8339936466	 0.123422
83.309	120.7329	144.029	320.3522	338.5471	379.0653	500.59	528.9474	586.5388	593.225	615.1384	658.1009	675.0596	694.2679	796.7478	841.2295	920.6393	940.5888	951.0892	959.3347	993.8686	1017.8346	1059.3561	1079.7839	1131.1256	1149.6701	1198.0927	1233.7942	1268.5841	1332.7859	1354.796	1362.9003	1374.0242	1399.4835	1425.0687	1473.9225	1477.974	1743.4263	2229.4638	3005.2741	3009.4254	3033.5682	3035.7454	3110.234	3119.209	3148.8881	3172.224	3502.8005
C#CC1C2CC=CCN12	C#C[C@H]1[C@H]2CC=CCN12	
InChI=1S/C8H9N/c1-2-7-8-5-3-4-6-9(7)8/h1,3-4,7-8H,5-6H2	InChI=1S/C8H9N/c1-2-7-8-5-3-4-6-9(7)8/h1,3-4,7-8H,5-6H2/t7-,8+,9?/m0/s1
