18
gdb 6032	3.05036	1.50556	1.38164	2.3844	64.09	-0.2397	-0.0124	0.2274	996.73	0.149752	-422.09479	-422.084963	-422.084019	-422.129519	35.16	
C	 0.298272165	 1.4499573077	 0.0382434982	-0.47355
C	-0.1928675418	 0.021752026	 0.0126475878	 0.361455
O	-0.6446458146	-0.5365249382	 0.9881308449	-0.324225
C	-0.1114659031	-0.7401832869	-1.3211121151	 0.263159
C	-1.5370747264	-1.0479090342	-1.8125434772	-0.420551
O	 0.5871992119	 0.05983185	-2.2645793178	-0.479351
C	 0.6834438019	-2.036017675	-1.0828181639	-0.105529
O	 0.8740454129	-2.6253048818	-2.3664117636	-0.437517
H	 1.3564776265	 1.4847163666	-0.2381672614	 0.150035
H	-0.2261029295	 2.0435403072	-0.7173722284	 0.150044
H	 0.1450576416	 1.8702603906	 1.0326162161	 0.131432
H	-2.0461875629	-0.1191536841	-2.0841130108	 0.120893
H	-1.4923743115	-1.6918780507	-2.6945937556	 0.129342
H	-2.1096548056	-1.5515853903	-1.0297437991	 0.133784
H	 0.8846470189	-0.5525611197	-2.9500147939	 0.2881
H	 1.6493792219	-1.7879117064	-0.6204282594	 0.096089
H	 0.1298011184	-2.6943145327	-0.4037452154	 0.118651
H	 1.5356999564	-3.3181557084	-2.2925672454	 0.297738
29.7773	132.4982	153.4164	183.7993	231.5912	242.8281	250.319	303.2425	344.2236	364.2886	436.9767	447.3379	518.8333	587.7315	599.8261	734.2687	854.4543	933.0584	965.4878	988.5456	1015.0062	1071.9071	1115.2394	1146.0571	1197.8856	1215.1514	1247.4999	1282.6149	1377.916	1384.6487	1409.7485	1437.8651	1453.0269	1462.4762	1492.7819	1496.4508	1512.9598	1802.2658	3001.1331	3047.7265	3049.2245	3065.2432	3111.4667	3125.6611	3134.4309	3158.8102	3769.4382	3846.2943
CC(=O)C(C)(O)CO	CC(=O)[C@@](C)(O)CO	
InChI=1S/C5H10O3/c1-4(7)5(2,8)3-6/h6,8H,3H2,1-2H3	InChI=1S/C5H10O3/c1-4(7)5(2,8)3-6/h6,8H,3H2,1-2H3/t5-/m0/s1
