21
gdb 94324	2.67815	1.32523	1.07399	2.0388	78.85	-0.2485	0.072	0.3205	1226.1753	0.179112	-424.204607	-424.194686	-424.193742	-424.239105	36.596	
C	 0.2581545291	 1.5734516061	-0.0735982404	-0.395084
C	-0.0136505659	 0.0869246152	 0.0510263857	 0.052753
O	 0.7955259705	-0.713702592	-0.8533966004	-0.298557
C	 1.4575061351	-1.4044324713	 0.2276246295	-0.161699
C	 0.6160916158	-0.6413431116	 1.2439619341	 0.3048
O	 1.1321269048	 0.0069101519	 2.3887507545	-0.314551
C	 0.100869246	-0.9986600008	 2.5681855808	 0.298609
C	-1.2331832557	-0.4603210782	 3.0338782573	-0.459199
C	 0.5724405701	-2.2682869219	 3.2415138295	-0.459352
H	 1.3076162958	 1.7968112727	 0.1355052694	 0.129021
H	 0.0204353916	 1.9120451343	-1.0864584324	 0.125347
H	-0.3598491645	 2.1368008964	 0.6330957755	 0.121713
H	-1.0806267446	-0.1287957345	-0.1008032839	 0.077682
H	 1.3048785734	-2.4902777103	 0.1825403668	 0.103825
H	 2.5326960576	-1.1893871307	 0.2690143647	 0.113013
H	-1.4903593957	 0.4637035579	 2.5113529098	 0.129584
H	-2.028487427	-1.1927893576	 2.8583379225	 0.123446
H	-1.2050446576	-0.2481312114	 4.1081502264	 0.128234
H	 0.6496914059	-2.120639416	 4.3241682728	 0.128131
H	-0.1347429444	-3.0859888915	 3.0650131424	 0.123192
H	 1.5539956097	-2.5698089568	 2.8685693651	 0.129091
79.0609	137.196	149.4162	170.8885	194.6866	205.2036	237.8907	268.9129	355.0163	411.6992	451.3716	463.4102	556.8972	558.2431	704.2524	797.0911	872.9788	880.8117	940.3602	947.4317	990.6179	1001.4967	1020.8898	1061.8425	1082.3606	1125.1807	1142.2265	1152.6247	1162.4451	1190.6377	1253.781	1283.8106	1337.1818	1371.3653	1404.0573	1407.8601	1417.3785	1471.6659	1472.8822	1483.3891	1484.5118	1489.5394	1499.3055	1514.7075	1545.5687	3002.1776	3012.1439	3033.6577	3038.512	3041.2431	3055.2908	3095.9345	3100.6308	3112.3685	3125.0598	3125.6415	3128.2585
CC1OCC11OC1(C)C	C[C@H]1OC[C@]21OC2(C)C	
InChI=1S/C7H12O2/c1-5-7(4-8-5)6(2,3)9-7/h5H,4H2,1-3H3	InChI=1S/C7H12O2/c1-5-7(4-8-5)6(2,3)9-7/h5H,4H2,1-3H3/t5-,7-/m1/s1
