18
gdb 14787	7.81918	0.6445	0.62055	1.5179	66.81	-0.2594	-0.031	0.2284	1733.3413	0.151052	-422.068015	-422.058418	-422.057474	-422.104194	32.	
O	-0.1433058117	 1.4326748224	 0.1055023775	-0.419518
C	 0.0332374275	 0.0416800582	-0.0705635987	-0.059706
C	-1.2992542337	-0.6905853195	-0.0818611506	-0.073975
O	-2.0474195849	-0.1589173976	-1.1634631732	-0.257902
C	-3.3711748757	-0.6402857364	-1.230587188	-0.057352
C	-4.0500315133	-0.0044775927	-2.4435460394	-0.281685
C	-5.5365927307	-0.2811016225	-2.4712024299	 0.153725
O	-6.1251916919	-0.7887130016	-3.3894611087	-0.229519
H	-0.7966040126	 1.6986581357	-0.5519399716	 0.287704
H	 0.5725668829	-0.1828566829	-1.004515	 0.096045
H	 0.6432540124	-0.3169833914	 0.7647712978	 0.111225
H	-1.1507385599	-1.7757162179	-0.2040901562	 0.0922
H	-1.830933524	-0.5190473351	 0.8675544059	 0.098049
H	-3.3770745735	-1.7383553618	-1.3211366091	 0.106414
H	-3.9187666453	-0.3874699273	-0.3063306099	 0.095978
H	-3.9130586477	 1.0836032217	-2.3702610005	 0.129526
H	-3.5993105373	-0.3491812203	-3.3767931678	 0.13344
H	-6.0792016908	 0.033440789	-1.5483739677	 0.07535
44.1165	51.7656	84.5477	103.0836	145.8516	189.1828	269.3738	359.0414	378.0374	439.3677	526.5708	554.2104	789.5368	865.2703	871.363	910.7425	1003.4549	1044.0085	1084.5903	1110.3112	1130.6787	1146.9115	1158.0398	1228.3946	1237.1902	1265.566	1279.5065	1310.0908	1383.9511	1388.5872	1431.2913	1435.2634	1447.2866	1468.2355	1498.407	1503.0643	1532.2626	1839.5282	2852.8505	2956.2611	2971.865	2981.1545	2992.6635	3013.3165	3026.5815	3082.0681	3119.2039	3799.5089
OCCOCCC=O	OCCOCCC=O	
InChI=1S/C5H10O3/c6-2-1-4-8-5-3-7/h2,7H,1,3-5H2	InChI=1S/C5H10O3/c6-2-1-4-8-5-3-7/h2,7H,1,3-5H2
