18
gdb 25920	2.59979	1.62956	1.01424	2.0236	81.43	-0.2124	-0.0264	0.186	1155.7632	0.147697	-402.023368	-402.014768	-402.013823	-402.056643	32.326	
C	-0.0508426276	 1.5276965996	-0.0249705027	-0.501483
C	 0.0666666693	 0.0152331469	-0.0168814234	 0.418505
O	 1.137393046	-0.5463780828	-0.0327212202	-0.32781
N	-1.1421068639	-0.7001337437	 0.0074580412	-0.134828
C	-2.4207834566	-0.1346153402	 0.0246282587	-0.084945
C	-3.3357764775	-1.1402505403	 0.0459228154	-0.174107
C	-2.6122540443	-2.3757028999	 0.0418631472	-0.230637
C	-1.2735318184	-2.1015423592	 0.0181518763	 0.316283
C	-0.12765388	-3.0578269745	 0.0054106777	-0.466043
H	 0.9591175574	 1.9350835661	-0.0435304454	 0.151901
H	-0.6007621896	 1.8787523299	-0.9031461432	 0.151393
H	-0.5732812797	 1.8905760677	 0.8650421316	 0.151261
H	-2.5534355122	 0.9324264767	 0.0198840451	 0.126546
H	-4.4079521805	-1.0179468069	 0.0626664276	 0.105306
H	-3.0354768142	-3.3690845338	 0.0550759268	 0.101245
H	 0.5014682916	-2.9384423633	-0.8810509787	 0.141245
H	 0.5300036135	-2.9275214823	 0.8693548101	 0.141165
H	-0.5271588235	-4.07560859	 0.0183137359	 0.115004
67.5293	139.1918	180.1918	226.7042	237.0432	261.0943	337.5898	427.0925	501.3882	571.7658	618.0677	648.1315	652.0673	689.413	708.1888	804.8869	860.1267	884.3364	952.674	1005.0331	1040.9128	1053.8644	1067.7142	1078.7537	1151.4121	1217.4795	1257.3911	1322.6456	1339.8838	1389.1419	1423.782	1437.0619	1473.1072	1474.0234	1478.9318	1481.7641	1541.102	1627.0423	1803.5726	3044.747	3051.541	3104.9994	3117.8244	3120.4731	3166.7518	3240.484	3254.9567	3297.7486
CC(=O)N1C=CC=C1C	CC(=O)n1cccc1C	
InChI=1S/C7H9NO/c1-6-4-3-5-8(6)7(2)9/h3-5H,1-2H3	InChI=1S/C7H9NO/c1-6-4-3-5-8(6)7(2)9/h3-5H,1-2H3
