25
gdb 121003	4.88373	0.69223	0.63223	0.2125	96.02	-0.2236	0.036	0.2596	1890.1867	0.228924	-352.389167	-352.378931	-352.377987	-352.424672	38.255	
C	 0.150556547	 1.4298075314	 0.6840953994	-0.380196
C	 0.00197768	-0.0134654809	 0.1945354181	-0.165402
C	 0.6995963117	-0.2674598802	-1.1469725357	-0.183092
C	 0.59199446	-1.7101556838	-1.6478557697	 0.038857
C	-0.8515392771	-2.1918074206	-1.9701638583	-0.258652
C	-0.6522256954	-3.1326182926	-3.1323417632	-0.168506
C	 0.5641539189	-3.0342916641	-3.6729475066	 0.337704
C	 1.0946024735	-3.7728934881	-4.8608272081	-0.491139
C	 1.391736568	-1.9936240886	-2.9467245845	-0.32609
H	 1.2053063105	 1.6958274332	 0.8169620542	 0.112105
H	-0.2786696459	 2.137491314	-0.0341078733	 0.112501
H	-0.3545105432	 1.5823226296	 1.6431736166	 0.109268
H	 0.4104566595	-0.7000296042	 0.9483502851	 0.092066
H	-1.0635102179	-0.2604415743	 0.1063354588	 0.098984
H	 0.2822105814	 0.4080478866	-1.9080461727	 0.087894
H	 1.7609134091	 0.0024543453	-1.0535061775	 0.087682
H	 0.9893102247	-2.3741560411	-0.8687135353	 0.069995
H	-1.3370109453	-2.6665260839	-1.109607022	 0.097798
H	-1.4985812097	-1.3477361397	-2.2568507573	 0.096543
H	-1.4391950571	-3.7828491761	-3.5018435885	 0.078441
H	 0.3548507621	-4.4665591328	-5.2702933419	 0.120182
H	 1.3891390165	-3.0800233339	-5.6601087411	 0.121914
H	 1.994553111	-4.3465721293	-4.6037745683	 0.121337
H	 1.4897714002	-1.0870852775	-3.5647541163	 0.095897
H	 2.4158150974	-2.3302217784	-2.7414898317	 0.09391
56.1468	95.7789	101.5854	162.3232	187.8981	244.7471	253.9841	277.5761	309.6108	394.8746	436.3837	455.5828	588.4998	664.5776	746.7291	820.1073	835.3679	873.1597	885.1325	904.24	924.3103	957.638	996.3339	1033.2345	1039.747	1044.1634	1061.9104	1087.1852	1130.569	1143.1639	1156.9115	1198.6735	1223.8322	1271.8059	1285.0601	1296.7759	1315.1063	1327.1412	1335.5996	1357.5224	1377.4545	1398.2967	1413.4112	1414.1355	1479.3624	1481.7331	1484.836	1489.9447	1492.6323	1497.9454	1501.0902	1510.6708	1725.3008	2982.7362	2983.1696	2997.6581	3008.0956	3013.0911	3016.4293	3027.9864	3028.5188	3038.9153	3050.6739	3055.9471	3056.8133	3094.8025	3099.676	3106.3384	3177.4844
CCCC1CC=C(C)C1	CCC[C@H]1CC=C(C)C1	
InChI=1S/C9H16/c1-3-4-9-6-5-8(2)7-9/h5,9H,3-4,6-7H2,1-2H3	InChI=1S/C9H16/c1-3-4-9-6-5-8(2)7-9/h5,9H,3-4,6-7H2,1-2H3/t9-/m0/s1
