20
gdb 36198	3.20878	1.16173	1.02216	4.0624	82.33	-0.2802	0.0312	0.3114	1228.6224	0.171847	-366.00816	-365.999595	-365.998651	-366.04292	32.065	
N	-0.0129916211	-1.1846141289	 0.1167197698	-0.311325
C	-0.0318704097	-0.029153548	 0.1383015243	 0.264732
C	-0.0180748318	 1.4348140293	 0.1593277097	-0.455602
C	 1.3808356081	 1.9997451322	-0.0680387485	 0.393257
C	 2.4170148592	 1.8281227127	 1.0781871782	-0.281398
C	 2.7028584184	 3.3607900136	 1.0562440169	-0.219123
C	 1.678898813	 3.5483530722	-0.0937667344	-0.086846
C	 2.2673057595	 3.4017990536	-1.5215251339	-0.219124
C	 1.9821210655	 1.8690690308	-1.4957410561	-0.281397
H	-0.7088372259	 1.7984083049	-0.6113271852	 0.145812
H	-0.4154399755	 1.770696687	 1.1250118619	 0.145814
H	 1.973486175	 1.4825766254	 2.0160779956	 0.106655
H	 3.260104043	 1.1727601617	 0.8454613537	 0.108384
H	 2.4190378661	 3.8653432432	 1.9828205192	 0.104218
H	 3.7281927898	 3.653452036	 0.8132295522	 0.101764
H	 0.9058562127	 4.3059659898	 0.0489035812	 0.063158
H	 1.6975172274	 3.9332677196	-2.2873933102	 0.104218
H	 3.317083992	 3.6921683638	-1.6198588644	 0.101764
H	 2.8514437272	 1.2112457168	-1.5732321551	 0.108384
H	 1.2533431268	 1.5503689542	-2.2461222748	 0.106657
22.3418	64.5747	111.7218	237.1863	323.2465	357.5496	372.5772	400.4336	468.5794	625.0075	685.8153	738.531	749.2254	845.3742	870.1953	898.2672	902.0701	917.1871	938.6924	961.1425	981.294	1029.3603	1036.9943	1068.0038	1138.8457	1141.6797	1184.0891	1221.5254	1231.3332	1243.8961	1258.3884	1260.2175	1281.6796	1300.356	1308.4383	1326.0631	1329.8949	1461.259	1472.5338	1484.8115	1485.6326	1503.42	2357.9431	3030.2132	3053.3385	3053.9248	3058.5545	3060.5285	3067.8847	3083.2119	3095.1381	3100.2072	3113.1215	3118.6273
N#CCC12CCC1CC2	N#CC[C@]12CC[C@H]1CC2	
InChI=1S/C8H11N/c9-6-5-8-3-1-7(8)2-4-8/h7H,1-5H2	InChI=1S/C8H11N/c9-6-5-8-3-1-7(8)2-4-8/h7H,1-5H2/t7-,8+
