13
gdb 21560	7.25433	1.2934	1.09995	3.9683	70.35	-0.2125	0.0019	0.2144	1005.4811	0.096745	-357.628001	-357.620666	-357.619722	-357.659308	27.447	
N	 0.1241034352	 1.405300501	 0.1302523721	-0.61561
C	-0.0380275103	 0.0221725217	 0.0371778563	 0.3976
C	-1.1542699554	-0.7875991469	 0.0225433308	-0.387988
C	-0.63798054	-2.1124871146	 0.0026170784	 0.220226
N	 0.6986064839	-2.1245948675	-0.0009904833	-0.301112
N	 1.033045075	-0.8147383932	 0.0270581411	-0.242307
C	-1.3889028853	-3.3154055092	-0.0246298787	 0.271829
C	-2.0594843152	-4.3144086625	-0.0471049833	-0.41862
H	 0.7536877313	 1.7860283236	-0.5668500985	 0.252535
H	-0.7617577136	 1.8896349509	 0.0758021621	 0.258922
H	-2.1876826995	-0.4842140203	 0.0112399324	 0.104049
H	 2.0045896605	-0.5616592661	 0.092133768	 0.272829
H	-2.6404959566	-5.2026974668	-0.0658571974	 0.187647
137.832	151.0468	168.5349	299.5705	366.4281	451.6255	514.032	536.4651	563.6389	578.3505	660.3758	664.0832	719.9575	737.1827	763.4639	794.2055	998.925	1048.9339	1108.7581	1169.0075	1186.3198	1322.3919	1424.8986	1466.4118	1502.4513	1620.9262	1661.3434	2239.7035	3274.2112	3505.1903	3530.4936	3628.9527	3670.4932
NC1=CC(=NN1)C#C	Nc1cc(n[nH]1)C#C	
InChI=1S/C5H5N3/c1-2-4-3-5(6)8-7-4/h1,3H,(H3,6,7,8)	InChI=1S/C5H5N3/c1-2-4-3-5(6)8-7-4/h1,3H,(H3,6,7,8)
