19
gdb 17820	3.89102	1.57542	1.35685	2.2627	71.71	-0.2395	0.071	0.3105	984.6983	0.166187	-365.016028	-365.007978	-365.007034	-365.048952	29.575	
C	 0.2560635508	 1.571377457	-0.2159555841	-0.404202
C	 0.15180554	 0.086881979	 0.0405476871	 0.006757
N	 1.4027813507	-0.6958303469	 0.1017487395	-0.338083
C	 0.5516639735	-0.609374855	 1.2964962324	-0.042143
C	 1.1439999314	 0.0170848566	 2.5376976249	 0.134919
C	 2.3796918646	-0.7152476187	 3.1214327171	-0.284931
C	 3.1349222508	 0.5769220387	 2.7582310546	-0.054857
O	 1.9188592532	 1.2149009186	 2.3148188946	-0.278141
H	 1.1098146106	 1.9946789633	 0.3106362663	 0.158966
H	 0.3647893135	 1.759413208	-1.2899919834	 0.108721
H	-0.6530035044	 2.0819162041	 0.1214922514	 0.108046
H	-0.6777331613	-0.3912137825	-0.4825749165	 0.077397
H	 1.2888999829	-1.5949610209	-0.357388113	 0.227132
H	-0.043063301	-1.4891202245	 1.5524934682	 0.076106
H	 0.3376074557	 0.2069359882	 3.2599888179	 0.074754
H	 2.3241518609	-0.9382699509	 4.1878408108	 0.106989
H	 2.6848161227	-1.6070044688	 2.5723490846	 0.11156
H	 3.5951657779	 1.1204246927	 3.5916986672	 0.09788
H	 3.8590514675	 0.4792723921	 1.9419862104	 0.11313
65.3742	85.0778	170.1906	222.3582	233.5761	288.1075	391.7448	498.2598	636.7674	725.0091	777.3372	797.3044	834.2669	880.4988	931.0103	946.3137	969.6763	1010.7566	1014.2931	1039.6194	1075.3	1104.7728	1105.8777	1158.0922	1168.8395	1192.7093	1219.7185	1256.2724	1262.6602	1275.3962	1277.8924	1356.8012	1378.1373	1401.2836	1428.4052	1469.0522	1482.2521	1501.4834	1503.8388	1525.0888	3002.1497	3024.8367	3034.0352	3069.7049	3076.3644	3082.4517	3088.6256	3092.0912	3139.9014	3171.3589	3504.7477
CC1NC1C1CCO1	C[C@H]1N[C@H]1[C@H]1CCO1	
InChI=1S/C6H11NO/c1-4-6(7-4)5-2-3-8-5/h4-7H,2-3H2,1H3	InChI=1S/C6H11NO/c1-4-6(7-4)5-2-3-8-5/h4-7H,2-3H2,1H3/t4-,5-,6-/m1/s1
