15
gdb 12152	3.55743	1.51419	1.19296	3.222	68.63	-0.2488	0.0222	0.271	1000.5986	0.117296	-362.65229	-362.644086	-362.643142	-362.685156	29.653	
C	-0.0730994094	 1.5763281391	-0.0025667863	-0.410626
C	-0.0034428949	 0.0575738591	 0.0204527194	-0.155771
C	 0.7322469051	-0.6689626936	-1.1696290871	-0.156903
N	 1.6716434947	-1.1896730879	-0.1649577708	-0.320304
C	 1.0906905907	-0.5749477101	 0.918299299	 0.430798
O	 1.3654248794	-0.5459486856	 2.0867523358	-0.359531
C	-0.0217313977	-1.6646479336	-1.913930311	 0.322098
C	-0.6438726621	-2.4823645698	-2.5377077494	-0.436299
H	 0.9029196847	 2.0160688593	-0.2324668022	 0.12576
H	-0.7933330206	 1.9302386137	-0.7465152283	 0.126582
H	-0.3840025122	 1.9488013675	 0.9777881005	 0.143817
H	-0.9822579607	-0.3873119685	 0.2150607988	 0.117716
H	 1.2054903084	 0.0388981551	-1.8608100492	 0.111857
H	 2.4394801608	-1.8400433843	-0.2470411522	 0.255914
H	-1.194994156	-3.2065356506	-3.085508667	 0.204894
55.7511	138.6824	199.2593	215.4602	219.2756	293.2384	420.2815	445.232	504.0536	560.1294	629.5885	661.5791	698.527	737.3544	815.7212	863.3394	966.1271	1045.1355	1070.1102	1090.4699	1116.6447	1173.3508	1205.5545	1255.6981	1331.7832	1368.1939	1377.4902	1409.7298	1494.7167	1495.8321	1897.7852	2237.3312	3029.8373	3038.1278	3088.2498	3110.5842	3116.4846	3501.302	3609.0658
CC1C(NC1=O)C#C	C[C@H]1[C@@H](NC1=O)C#C	
InChI=1S/C6H7NO/c1-3-5-4(2)6(8)7-5/h1,4-5H,2H3,(H,7,8)	InChI=1S/C6H7NO/c1-3-5-4(2)6(8)7-5/h1,4-5H,2H3,(H,7,8)/t4-,5-/m0/s1
