17
gdb 79479	2.20422	1.91965	1.21672	5.3499	77.63	-0.2475	0.017	0.2645	1035.9615	0.136878	-380.791162	-380.783613	-380.782669	-380.823113	29.278	
C	-0.1585248887	 1.6009951404	 0.0160490278	-0.422515
C	-0.0426532363	 0.0860035062	 0.0038924259	-0.069144
C	 1.1655788868	-0.5858816226	-0.6870870706	-0.096826
C	 2.1245946674	-0.3349525405	 0.5323905377	-0.061512
N	 2.5436398895	-1.761986006	 0.6988710027	-0.338863
C	 1.1141477051	-1.8329701703	 0.2617004494	-0.061524
C	 0.7125775451	-0.6153678537	 1.1651423092	 0.258807
C	 0.3821095334	-0.6449405068	 2.5636435577	 0.163305
N	 0.0838493032	-0.6414132269	 3.6812098344	-0.34792
H	 0.8001587102	 2.0803202455	 0.2389531964	 0.120975
H	-0.4993566162	 1.9704484016	-0.9567599344	 0.124605
H	-0.8811759474	 1.9319448999	 0.768864903	 0.136903
H	-1.0049776402	-0.3845968066	-0.2265753775	 0.086434
H	 1.448216847	-0.5879827323	-1.7400524343	 0.086074
H	 2.7829351361	 0.5085191788	 0.7364123279	 0.104376
H	 3.1600071953	-2.0376237061	-0.0706924133	 0.214194
H	 0.5588995597	-2.7632781006	 0.1412322181	 0.102631
121.3476	162.854	215.1643	217.7757	274.3125	434.0686	496.4834	546.0743	555.4982	599.2153	732.1952	748.7819	823.8817	872.0818	901.9033	906.6772	919.4813	956.3877	1045.4074	1050.6583	1079.3525	1083.764	1104.5272	1119.6487	1143.1226	1172.7371	1191.8867	1236.6865	1249.9859	1269.0258	1292.2155	1333.9724	1399.7428	1417.3997	1492.5965	1499.3531	2349.4994	3035.2709	3047.1705	3102.6037	3106.8222	3115.2197	3123.5849	3132.416	3403.7978
CC1C2C3NC2C13C#N	C[C@H]1[C@H]2[C@@H]3N[C@H]2[C@]13C#N	
InChI=1S/C7H8N2/c1-3-4-5-7(3,2-8)6(4)9-5/h3-6,9H,1H3	InChI=1S/C7H8N2/c1-3-4-5-7(3,2-8)6(4)9-5/h3-6,9H,1H3/t3-,4-,5-,6+,7+/m0/s1
