18
gdb 35113	3.1145	1.39075	1.08598	4.4244	80.68	-0.2627	0.0025	0.2652	1118.0324	0.15009	-364.830129	-364.822485	-364.821541	-364.862459	29.768	
N	-0.6175786634	-0.788676951	-1.2539970515	-0.328954
C	-0.3371056096	 0.149340341	-0.6399328125	 0.272531
C	 0.0175650941	 1.3458511622	 0.1412335102	-0.213711
C	-0.5202132587	 1.2391911642	 1.555552922	-0.051985
C	 0.129010932	 1.6927775546	 2.6243944433	-0.07139
C	 1.4803910822	 2.3491057929	 2.591336856	-0.278922
C	 2.2445140551	 2.1113183542	 1.3010624118	-0.043764
C	 2.4778325413	 0.7049633997	 0.8086461095	-0.281764
C	 1.5216968643	 1.6088566778	 0.0736815392	-0.024179
H	-0.4950100866	 2.1874681306	-0.3496332349	 0.136583
H	-1.5019838662	 0.7876662725	 1.6566999595	 0.112332
H	-0.3454711723	 1.6076232701	 3.5987557259	 0.100345
H	 1.3487238318	 3.4306855896	 2.7426471502	 0.119312
H	 2.0750376887	 2.0084603291	 3.4497033564	 0.115248
H	 3.0461962711	 2.8204204948	 1.118682151	 0.090856
H	 3.4227194946	 0.469909348	 0.33272129	 0.118431
H	 2.0524253687	-0.1079028712	 1.3879818851	 0.12835
H	 1.8512347827	 1.9878748008	-0.8879341414	 0.100681
71.2053	142.4126	201.1271	301.1666	337.8551	403.5606	453.1268	507.5364	564.8897	619.3187	701.4635	754.0962	797.8209	827.9849	855.5808	903.712	941.8926	969.7483	1003.8713	1016.6339	1034.2745	1066.378	1072.93	1116.9128	1138.2516	1143.7343	1209.0188	1230.4526	1243.9114	1288.7599	1312.2922	1356.8868	1370.7434	1416.1137	1421.6763	1475.8053	1492.2027	1728.436	2356.1189	2988.676	3001.329	3028.0998	3136.8033	3149.0507	3156.3389	3162.8154	3185.2351	3223.6024
N#CC1C=CCC2CC12	N#C[C@H]1C=CC[C@H]2C[C@@H]12	
InChI=1S/C8H9N/c9-5-7-3-1-2-6-4-8(6)7/h1,3,6-8H,2,4H2	InChI=1S/C8H9N/c9-5-7-3-1-2-6-4-8(6)7/h1,3,6-8H,2,4H2/t6-,7+,8+/m0/s1
