16
gdb 133780	2.52793	1.32808	1.08756	2.3359	58.38	-0.2587	0.0716	0.3303	1117.6819	0.119537	-569.368927	-569.360199	-569.359254	-569.402914	31.574	
C	 0.2119501142	 0.9997071928	 0.2408636928	-0.248954
O	-0.1861500607	-0.0380450553	-0.642369363	-0.231297
C	-1.3859394454	-0.6280426924	-0.2877042769	 0.134959
C	-1.6568449223	-1.9936141898	-0.8222083195	-0.337001
C	-1.4363842341	-1.8105541415	 0.6666668793	-0.22495
C	-0.2050537837	-2.3739362767	 1.3091913495	 0.300425
F	 0.8314814667	-2.4757150113	 0.4695305887	-0.074425
F	 0.1968553095	-1.6141119791	 2.3505829149	-0.089003
F	-0.4433194837	-3.6016154109	 1.8047317247	-0.081353
H	 1.1413305831	 1.4119933391	-0.1567706763	 0.133405
H	-0.5439426874	 1.7979098505	 0.2832395	 0.107516
H	 0.3854207171	 0.6196899526	 1.2543900278	 0.12513
H	-2.2246419357	 0.0661384405	-0.2065354567	 0.094258
H	-2.6509649053	-2.243665826	-1.1724440219	 0.125454
H	-0.8413354853	-2.4524341671	-1.3688115152	 0.148504
H	-2.2946970669	-1.8780559854	 1.3265743419	 0.117332
57.2421	123.4698	159.4975	193.7276	214.5306	280.4116	323.307	385.6002	474.948	514.9947	528.4813	601.0872	705.4298	779.4564	795.6955	837.5856	982.7931	1000.9711	1068.0559	1080.6282	1101.4669	1132.5552	1154.9179	1168.3244	1179.3015	1191.1811	1223.2961	1267.0791	1292.7937	1401.8492	1427.1399	1474.8661	1488.6452	1500.3395	1512.9607	2994.8153	3069.8784	3083.2171	3131.8111	3150.0941	3173.1414	3243.1372
COC1CC1C(F)(F)F	CO[C@H]1C[C@H]1C(F)(F)F	
InChI=1S/C5H7F3O/c1-9-4-2-3(4)5(6,7)8/h3-4H,2H2,1H3	InChI=1S/C5H7F3O/c1-9-4-2-3(4)5(6,7)8/h3-4H,2H2,1H3/t3-,4+/m1/s1
