17
gdb 7736	3.43918	1.77804	1.21531	4.452	72.51	-0.235	-0.0255	0.2094	984.6315	0.144043	-363.922407	-363.914882	-363.913938	-363.954067	28.438	
C	 0.0327227407	 1.5168389205	 0.0315335907	-0.479866
C	-0.0369907887	 0.0188361877	-0.0078768357	 0.304374
C	-0.0409094773	-0.6837796516	-1.148315486	-0.24237
C	-0.0174900129	-2.1658126676	-1.1920554278	 0.393669
O	 0.1372372536	-2.7919283736	-2.2274337392	-0.383136
N	-0.1375512666	-2.7880738453	 0.0316529566	-0.333701
C	-0.6887639142	-2.0937350709	 1.1857973638	-0.171209
C	-0.0494385091	-0.7107434988	 1.3162363424	-0.284397
H	 0.907772781	 1.8495929822	 0.6049503977	 0.133432
H	 0.0946161704	 1.9473676008	-0.9705647347	 0.132346
H	-0.8459389132	 1.9368207115	 0.537298515	 0.131552
H	-0.0012480596	-0.2040602953	-2.1203043025	 0.103144
H	-0.2688912003	-3.7870598566	-0.034723753	 0.243298
H	-1.7815086251	-1.9794553235	 1.0996725724	 0.105518
H	-0.4936121768	-2.6900077033	 2.0818797933	 0.112521
H	 0.9845264199	-0.8036612791	 1.6791332512	 0.125518
H	-0.590732622	-0.1282291973	 2.0701206457	 0.10931
129.6063	155.4318	200.6911	238.9154	299.7109	423.3083	463.6005	488.9089	502.8865	573.1632	682.0925	738.6387	794.5505	888.3579	899.2669	924.6196	1003.5923	1027.764	1041.0205	1099.4672	1118.9291	1168.2081	1226.1624	1260.3704	1300.8131	1351.3159	1381.1703	1402.5737	1410.9323	1462.1604	1474.3363	1478.4247	1482.8696	1516.7525	1704.7953	1780.7413	2970.2572	3008.4761	3018.5262	3064.1728	3066.8946	3077.9235	3121.8811	3193.7499	3609.6817
CC1=CC(=O)NCC1	CC1=CC(=O)NCC1	
InChI=1S/C6H9NO/c1-5-2-3-7-6(8)4-5/h4H,2-3H2,1H3,(H,7,8)	InChI=1S/C6H9NO/c1-5-2-3-7-6(8)4-5/h4H,2-3H2,1H3,(H,7,8)
