18
gdb 108448	2.25141	1.73862	1.23533	2.5043	72.34	-0.2221	-0.0288	0.1933	1063.1237	0.14635	-439.043609	-439.034889	-439.033945	-439.077356	31.996	
C	 0.0924521402	 1.4590003283	 0.051863788	-0.272709
O	 0.0678550819	 0.0353233364	 0.001815636	-0.289253
C	 0.6388125367	-0.5678050192	 1.1120229933	 0.315716
C	 2.189447829	-0.5539890617	 1.269251462	-0.245468
N	 2.1768262385	-2.0071306086	 1.6001395536	-0.318305
C	 0.7296408905	-2.1230984172	 1.2787808953	-0.096043
C	-0.1386147576	-2.0756330861	 2.5637277844	-0.330392
C	-0.1578249942	-0.5371256524	 2.4464110731	 0.340238
O	-0.6772769295	 0.3419172011	 3.0725471503	-0.299696
H	 1.1234886472	 1.8405512646	 0.0726461514	 0.111459
H	-0.3954231438	 1.811094976	-0.8591548089	 0.130105
H	-0.4448439653	 1.8367133805	 0.9281448731	 0.146992
H	 2.6476745609	-0.315846078	 0.3017871499	 0.110852
H	 2.6297137562	 0.0807562265	 2.0446329709	 0.11498
H	 2.7701377409	-2.5578669936	 0.9916902842	 0.226346
H	 0.4430928039	-2.8149310304	 0.4872357628	 0.08486
H	-1.1477287699	-2.4832526328	 2.4336910787	 0.13398
H	 0.3122217646	-2.4922196633	 3.4664275719	 0.136337
65.2174	101.4966	145.3055	185.1398	219.7354	294.439	325.2721	425.9826	465.2288	510.7887	607.4418	673.7317	696.3129	752.4583	845.9842	922.916	949.433	1006.3313	1007.8225	1030.0273	1042.177	1058.2549	1094.2092	1122.8337	1153.8724	1179.4257	1184.1643	1215.0135	1232.6204	1257.5061	1305.547	1347.9363	1379.761	1417.2915	1479.6423	1487.8532	1501.8032	1510.9395	1879.0714	2999.1055	3023.839	3050.8392	3079.4291	3079.9221	3118.5959	3126.9669	3132.0673	3548.4241
COC12CNC1CC2=O	CO[C@]12CN[C@H]1CC2=O	
InChI=1S/C6H9NO2/c1-9-6-3-7-4(6)2-5(6)8/h4,7H,2-3H2,1H3	InChI=1S/C6H9NO2/c1-9-6-3-7-4(6)2-5(6)8/h4,7H,2-3H2,1H3/t4-,6+/m0/s1
