18
gdb 127478	2.40703	1.58463	0.97099	0.9216	77.11	-0.1927	0.0336	0.2263	1201.3616	0.147362	-435.287286	-435.277287	-435.276343	-435.322762	34.995	
C	 0.0022403658	 1.3841273635	-0.0605327357	-0.32378
N	 0.0026635046	-0.0565418232	 0.0297537006	-0.027365
N	 0.0270118769	-0.7980251625	-1.1022680741	-0.338729
C	 0.0619417964	-2.0593381507	-0.6804403193	 0.22498
N	 0.1573593766	-3.1828009841	-1.5322181232	-0.612173
C	 0.0658201698	-2.1262163778	 0.7270084552	 0.137788
O	 0.1096379662	-3.2485589752	 1.5007211175	-0.461095
C	 0.0231922284	-0.8182583349	 1.1667055726	 0.291957
C	 0.0183732231	-0.2634796839	 2.550145399	-0.513838
H	 0.9272548467	 1.8149309169	 0.3409659964	 0.13162
H	-0.0811908419	 1.6411129565	-1.1160830494	 0.157443
H	-0.8462934297	 1.8137548989	 0.4826542759	 0.132614
H	 0.4722047739	-2.8923380533	-2.4520968828	 0.248199
H	-0.7433970811	-3.6386615895	-1.6511310065	 0.244423
H	 0.4226947085	-3.9610786353	 0.9288848579	 0.296463
H	 0.8457609729	 0.4361768304	 2.7181506754	 0.129227
H	-0.912316686	 0.2678603865	 2.7849016687	 0.130574
H	 0.1224102989	-1.0842176622	 3.2633779717	 0.151692
41.6364	93.4558	123.076	145.3709	170.3194	233.6681	255.3711	296.7527	336.0159	352.5778	419.9114	575.8035	593.6138	630.6676	634.8294	714.714	745.6484	876.1195	889.3711	1022.6333	1059.9232	1061.6228	1147.7789	1164.0609	1181.6304	1277.4644	1298.9199	1368.6825	1410.2237	1417.5743	1457.0557	1479.3737	1488.764	1490.9978	1505.2928	1526.0729	1567.5462	1638.2954	1679.4302	3019.4051	3024.1905	3066.2662	3077.8137	3126.3655	3159.6129	3486.9101	3576.097	3775.3279
CN1N=C(N)C(O)=C1C	Cn1nc(N)c(O)c1C	
InChI=1S/C5H9N3O/c1-3-4(9)5(6)7-8(3)2/h9H,1-2H3,(H2,6,7)	InChI=1S/C5H9N3O/c1-3-4(9)5(6)7-8(3)2/h9H,1-2H3,(H2,6,7)
