15
gdb 9707	3.65185	1.7013	1.61958	5.4272	65.93	-0.2443	0.003	0.2473	852.1274	0.120278	-358.868473	-358.861031	-358.860086	-358.900128	27.443	
C	 0.0295107504	 1.4959088621	 0.0689282958	-0.412415
C	-0.0308468162	-0.0404282063	-0.0116812859	 0.140878
C	 0.777138149	-0.601839504	-1.2373672377	-0.225658
N	 2.0076889752	-1.0430447596	-0.5749788335	-0.297343
C	 1.7193289805	-1.1383482313	 0.770399628	 0.065555
N	 0.6305295316	-0.6167009661	 1.1896091114	-0.265561
C	-1.433212753	-0.4808889386	-0.0669272435	 0.27927
N	-2.5350591177	-0.8195599675	-0.1450977739	-0.34507
H	 1.0758024096	 1.8133383372	 0.0621236813	 0.132161
H	-0.4883567311	 1.9522115783	-0.7795239201	 0.129611
H	-0.4338643856	 1.8387486648	 0.9959166184	 0.149958
H	 0.2530559613	-1.4342958109	-1.7199565498	 0.131199
H	 0.9729773788	 0.171867587	-1.984021445	 0.127455
H	 2.5706955058	-1.7583128972	-1.0102356471	 0.253135
H	 2.4415701214	-1.6056452581	 1.4337147915	 0.136824
86.321	178.9632	193.4411	252.4744	328.1093	355.3252	473.6055	527.9098	551.1083	569.6438	635.9662	790.3665	849.0987	930.902	945.4561	966.1723	973.2189	1020.8114	1121.7754	1138.0733	1162.6304	1198.2895	1245.5205	1314.5676	1342.1036	1403.1697	1449.4421	1483.3315	1491.3514	1520.5094	1682.4687	2360.2824	3038.4955	3047.4507	3095.2809	3124.5422	3142.9268	3188.8037	3616.1572
CC1(CNC=N1)C#N	C[C@]1(CN[CH][N]1)C#N	
InChI=1S/C5H7N3/c1-5(2-6)3-7-4-8-5/h4H,3H2,1H3,(H,7,8)	InChI=1S/C5H7N3/c1-5(2-6)3-7-4-8-5/h4H,3H2,1H3,(H,7,8)/t5-/m1/s1
