18
gdb 119811	5.65404	0.77649	0.69438	2.4962	73.91	-0.2684	-0.0189	0.2495	1610.0662	0.147102	-439.152407	-439.143554	-439.14261	-439.18697	31.668	
C	 0.023456747	 1.6018517419	-0.0688949886	-0.386552
C	-0.0055413932	 0.0737414786	 0.0084438494	-0.161808
C	 0.6839933149	-0.5795406772	-1.1917863103	-0.30168
C	 0.6765743114	-2.0699355223	-1.1513835067	 0.429766
N	 0.181755515	-2.8277724286	-0.260119566	-0.296719
C	 0.4448433861	-4.1913806432	-0.7010236997	-0.317028
C	 1.1899330471	-4.051617455	-2.0237151193	 0.404453
O	 1.6263276324	-4.8568627489	-2.7833149094	-0.310835
O	 1.2938584988	-2.6808538978	-2.2342316922	-0.235198
H	 1.0509500417	 1.981650609	-0.0939047074	 0.116766
H	-0.4854872695	 1.9666061391	-0.9680834691	 0.11677
H	-0.4739663458	 2.0469091468	 0.7977101437	 0.11921
H	 0.4789122475	-0.2684410263	 0.9288544708	 0.117815
H	-1.0391348013	-0.2833042564	 0.0648179004	 0.117631
H	 0.2135027223	-0.2676379744	-2.1343007608	 0.134544
H	 1.7296514345	-0.2519215641	-1.271444735	 0.134582
H	 1.0520229399	-4.7420990551	 0.0257586442	 0.159119
H	-0.4822734489	-4.7581968959	-0.8400831439	 0.159164
52.252	73.4964	127.24	168.0855	250.7715	253.6397	319.3018	346.5966	522.2697	528.5181	626.9995	691.8968	734.888	746.5548	860.4873	880.829	905.5642	936.8173	990.7532	1035.7938	1054.331	1116.8338	1128.7201	1136.2313	1187.3365	1204.7835	1254.0142	1291.63	1322.0505	1342.7347	1413.1951	1417.1367	1445.3378	1464.8342	1488.7804	1501.5686	1508.9995	1735.3427	1919.8877	3021.1524	3031.2454	3045.9817	3052.487	3053.3545	3079.5613	3087.0684	3104.1829	3108.8713
CCCC1=NCC(=O)O1	CCCC1=NCC(=O)O1	
InChI=1S/C6H9NO2/c1-2-3-5-7-4-6(8)9-5/h2-4H2,1H3	InChI=1S/C6H9NO2/c1-2-3-5-7-4-6(8)9-5/h2-4H2,1H3
