23
gdb 122684	4.92227	0.63042	0.58466	2.3583	83.03	-0.2386	0.0833	0.3219	1937.0963	0.205902	-425.432958	-425.422815	-425.421871	-425.46974	36.08	
O	-0.0933482225	 1.4693497185	 0.0582738582	-0.421304
C	 0.0105783467	 0.0531478493	 0.034193549	-0.075474
C	-1.3980479187	-0.5238927073	 0.0334389068	-0.165897
C	-1.4119474257	-2.0542253209	-0.0170402162	-0.204164
C	-2.8187013871	-2.642900969	 0.0208582501	 0.156083
C	-2.8862566725	-4.1751780588	-0.0289498292	-0.240011
C	-4.1954920694	-4.4636927498	 0.7172487456	-0.232331
C	-4.186417893	-3.369760492	 1.793425183	-0.055631
O	-3.4605533043	-2.2696375584	 1.2478023002	-0.277796
H	 0.7955700973	 1.8352384987	 0.0761160419	 0.283325
H	 0.5558460563	-0.2897550189	-0.8616593193	 0.077805
H	 0.5645227639	-0.3205306495	 0.9115042255	 0.081987
H	-1.9244432154	-0.1830509895	 0.9302627175	 0.126476
H	-1.9403338549	-0.1135103808	-0.827617916	 0.099743
H	-0.9153730641	-2.4052551627	-0.9322519504	 0.089237
H	-0.8460201579	-2.4639657297	 0.830160357	 0.093816
H	-3.4020756751	-2.2235857927	-0.817148483	 0.062703
H	-2.8702048369	-4.562446556	-1.0506460793	 0.10101
H	-2.0330316635	-4.6047010642	 0.5098967181	 0.100133
H	-5.0518724192	-4.3339347585	 0.0468495575	 0.106842
H	-4.2480543801	-5.4706284286	 1.1384314402	 0.101749
H	-5.1924726423	-3.0334753018	 2.0696604282	 0.10027
H	-3.6865292917	-3.7192660374	 2.7091970449	 0.091429
37.7707	61.7139	80.9701	108.3537	145.9558	211.966	260.2904	282.0513	303.6355	451.0791	504.0289	585.379	667.0374	756.2938	823.5345	865.2347	883.8109	904.2315	935.6609	953.2617	1015.4021	1024.7365	1035.5721	1054.4975	1078.9756	1114.7228	1127.9357	1168.5613	1191.7512	1202.4602	1218.7026	1237.6025	1257.6928	1293.0226	1303.4596	1313.8643	1315.9933	1338.5117	1363.2243	1372.1613	1400.5292	1412.9815	1463.3596	1472.657	1485.7365	1498.1182	1501.2365	1528.959	1533.1976	2946.8158	2951.2848	2976.3382	2989.2432	3009.0112	3035.068	3037.1817	3042.8516	3050.2597	3057.1664	3096.5498	3101.0278	3109.0649	3830.7934
OCCCC1CCCO1	OCCC[C@H]1CCCO1	
InChI=1S/C7H14O2/c8-5-1-3-7-4-2-6-9-7/h7-8H,1-6H2	InChI=1S/C7H14O2/c8-5-1-3-7-4-2-6-9-7/h7-8H,1-6H2/t7-/m0/s1
