15
gdb 66042	2.56269	1.30914	1.13165	4.9809	72.17	-0.2683	-0.0127	0.2557	1112.1962	0.11109	-416.745439	-416.736524	-416.73558	-416.779301	32.215	
N	-0.0132810063	 1.4851845665	-0.1019756762	-0.533265
C	 0.0319171036	 0.028475909	-0.0599520936	 0.021693
C	 0.0603961513	-0.4848361877	 1.4080313365	-0.080668
O	-1.3353901652	-0.8506979458	 1.361980767	-0.270004
C	-1.412139981	-0.5958663999	-0.0449644319	-0.016069
C	-2.5140114067	 0.2835152828	-0.4317193873	 0.295543
N	-3.3816687698	 0.9606139959	-0.783413484	-0.323613
C	 0.9666426569	-0.588810062	-0.9917773605	 0.279579
C	 1.7461709731	-1.0706845183	-1.7706279458	-0.448973
H	 0.9166225192	 1.8547287578	 0.0779950773	 0.242248
H	-0.274379648	 1.7986876167	-1.0336033642	 0.249819
H	 0.7042911268	-1.3538482843	 1.5759657672	 0.118799
H	 0.2550657838	 0.2955511553	 2.1485542031	 0.127814
H	-1.4773546492	-1.5247320001	-0.6242440158	 0.128324
H	 2.4352155216	-1.496678686	-2.4584038519	 0.208773
60.8576	133.3221	139.3805	180.2317	230.7682	243.1726	350.985	388.8193	461.131	503.9861	555.8979	590.2647	643.825	652.0649	661.0274	832.8309	888.01	937.0494	945.1429	982.5182	1024.0647	1060.22	1141.3359	1178.9459	1219.5979	1266.24	1290.0186	1348.4285	1363.8767	1506.7528	1655.9258	2227.9314	2359.1273	3038.5581	3046.5089	3109.1625	3484.806	3495.6243	3564.2524
NC1(COC1C#N)C#C	N[C@]1(CO[C@H]1C#N)C#C	
InChI=1S/C6H6N2O/c1-2-6(8)4-9-5(6)3-7/h1,5H,4,8H2	InChI=1S/C6H6N2O/c1-2-6(8)4-9-5(6)3-7/h1,5H,4,8H2/t5-,6-/m0/s1
