17
gdb 79311	3.83599	1.23612	1.14027	1.1729	81.25	-0.2268	0.036	0.2628	1101.4353	0.135768	-384.607466	-384.599719	-384.598775	-384.639392	30.93	
O	-0.1111933178	 1.4795487124	-0.0748337959	-0.439771
C	-0.0119338903	 0.0749937897	-0.0993152303	 0.143542
C	-1.3275723581	-0.6769297742	-0.1218886933	-0.146102
C	-1.7569540655	-0.8177446044	-1.5768554859	-0.123313
C	-0.7153895811	-0.1048537293	-2.4381418418	-0.229725
C	 0.3356494676	-0.6454785099	-1.4373487382	-0.187037
C	-0.7075633101	-1.7642722554	-1.0038737018	 0.331843
C	-0.635804548	-3.1633168157	-0.8592026412	 0.002144
C	-0.5549517574	-4.3601913032	-0.7458508605	-0.375911
H	 0.7740803568	 1.8466824968	 0.0152471529	 0.28299
H	 0.6244164737	-0.3013295824	 0.7126799531	 0.075961
H	-2.020276789	-0.8298976816	 0.694788247	 0.101415
H	-2.7781847701	-1.0726907149	-1.8277660127	 0.101203
H	-0.6196962053	-0.5785195334	-3.4179699542	 0.103857
H	-0.7833768919	 0.9819721289	-2.5378547772	 0.106371
H	 1.3683394847	-0.8218229205	-1.7298504537	 0.07779
H	-0.4885722682	-5.4145639629	-0.6442646462	 0.17474
113.5168	148.8231	244.1449	273.5238	314.3958	427.894	459.6938	512.0139	555.7156	570.7283	629.8817	650.1252	718.6984	737.2742	816.8445	870.5755	904.891	946.9487	963.6161	978.801	1003.1542	1011.4761	1042.1934	1092.0021	1103.5371	1131.8329	1158.2843	1179.8471	1225.5759	1249.1263	1265.5525	1305.9299	1337.0392	1417.8931	1435.4784	1489.9722	2228.8554	3018.5086	3058.8496	3118.28	3143.5893	3204.1958	3214.9287	3504.2428	3816.746
OC1C2C3CC1C23C#C	O[C@H]1[C@H]2[C@H]3C[C@@H]1[C@@]23C#C	
InChI=1S/C8H8O/c1-2-8-4-3-5(8)7(9)6(4)8/h1,4-7,9H,3H2	InChI=1S/C8H8O/c1-2-8-4-3-5(8)7(9)6(4)8/h1,4-7,9H,3H2/t4-,5+,6-,7-,8+/m1/s1
