23
gdb 97658	2.75041	0.80714	0.69042	0.0623	97.41	-0.2228	0.0578	0.2805	1781.7257	0.203329	-351.134353	-351.123296	-351.122352	-351.171567	39.924	
C	 0.0007756027	 1.6036521817	 0.0073225081	-0.361859
C	-0.009425529	 0.063853508	 0.0090986415	-0.317281
C	-1.356502318	-0.4989795939	 0.0063434561	 0.091114
C	-2.4777095043	-0.9443833452	-0.0031108755	-0.007568
C	-3.8284769143	-1.4450897789	 0.0210880582	 0.164661
C	-4.8042591427	-0.5950410619	 0.8238296008	-0.456626
C	-4.3565402144	-2.1420460517	-1.228925942	-0.32034
C	-4.0529788995	-2.9566466794	-0.0017788078	-0.015322
C	-2.9044764004	-3.9377122621	 0.0185158732	-0.411841
H	 1.0284503308	 1.9795634531	 0.009727009	 0.111563
H	-0.5080259285	 1.9942562901	-0.8781805635	 0.126621
H	-0.511664623	 1.9961753454	 0.8899537218	 0.126254
H	 0.5413122798	-0.304311558	-0.8664623561	 0.125024
H	 0.5421972805	-0.3025079786	 0.885026605	 0.124531
H	-4.8656152124	 0.4192433413	 0.4163439842	 0.122911
H	-5.8076122438	-1.0319028897	 0.80087588	 0.109663
H	-4.4888596941	-0.5190009451	 1.8693849547	 0.122872
H	-5.3915628482	-1.9601144817	-1.4993917721	 0.109003
H	-3.6787893993	-2.2281896466	-2.0712068597	 0.116396
H	-4.9206685583	-3.2714493521	 0.5734913963	 0.083385
H	-2.0439558948	-3.5469910411	-0.5309051705	 0.127054
H	-2.5764875956	-4.1437757731	 1.043220502	 0.117048
H	-3.198199113	-4.8893983303	-0.4381523039	 0.112736
22.7714	71.583	107.4637	151.941	191.3953	196.0029	228.6966	243.0459	281.8326	331.759	350.0689	425.2661	487.6563	527.8604	567.6798	607.2922	763.7667	786.8477	819.0424	871.0297	924.9925	943.3922	969.9358	1020.8831	1058.0835	1068.3191	1099.9684	1104.1428	1109.8729	1118.6722	1139.2462	1194.3776	1254.3392	1286.2547	1335.4814	1362.0863	1399.7194	1408.7144	1411.9807	1423.4547	1476.9928	1481.8165	1487.803	1492.9751	1494.4202	1499.4754	1503.4545	1505.71	2355.0044	3014.2016	3030.992	3031.7567	3040.0527	3042.8088	3090.2255	3100.7381	3104.9925	3112.5965	3115.5324	3122.1441	3127.8739	3135.4267	3217.2655
CCC#CC1(C)CC1C	CCC#C[C@@]1(C)C[C@H]1C	
InChI=1S/C9H14/c1-4-5-6-9(3)7-8(9)2/h8H,4,7H2,1-3H3	InChI=1S/C9H14/c1-4-5-6-9(3)7-8(9)2/h8H,4,7H2,1-3H3/t8-,9+/m1/s1
