17
gdb 73883	2.40568	1.58043	1.11228	4.1307	77.67	-0.2453	-0.063	0.1823	1107.7459	0.135478	-421.798962	-421.79104	-421.790096	-421.831597	29.65	
C	-0.0342871114	 1.4649421874	 0.0748211393	-0.520966
C	 0.0135978326	-0.0162397182	-0.0109311175	 0.245596
C	 0.018870763	-0.8875449171	-1.0432010273	 0.173804
C	-0.0295543712	-0.6740601775	-2.4766259255	 0.037408
O	-0.0856475477	-1.5670692454	-3.2983356566	-0.283289
C	 0.0772423098	-2.2359502731	-0.304932772	-0.036473
C	-1.0130588937	-2.0412665615	 0.7887774957	-0.22515
C	 0.0697930696	-0.992967444	 1.1849918313	-0.023804
O	 1.079531934	-1.9470353084	 0.732516814	-0.283244
H	 0.8474872216	 1.8471497571	 0.6045845623	 0.150134
H	-0.0773489349	 1.9397239138	-0.9078250077	 0.142188
H	-0.9079430556	 1.7929207499	 0.6525519467	 0.144294
H	-0.0139704637	 0.3916464578	-2.7953067593	 0.064693
H	 0.2390436215	-3.1502191934	-0.8698451932	 0.107008
H	-2.0055235189	-1.6977849983	 0.4890604188	 0.104369
H	-1.0581519159	-2.8720905516	 1.495720606	 0.117459
H	 0.217272101	-0.6063902674	 2.1932932048	 0.085972
110.0353	160.2617	163.8019	187.3774	245.2299	277.1255	490.9897	538.106	587.8772	610.6283	635.6326	740.6199	835.0573	840.0057	854.9163	910.6406	929.9531	1013.6572	1023.1279	1029.2501	1054.5205	1072.0485	1115.8295	1164.4026	1203.1312	1211.9143	1237.2634	1254.8962	1293.7221	1359.3607	1409.6116	1425.7259	1474.0356	1476.0275	1485.4419	1683.4469	1764.325	2880.6054	3020.7836	3067.0553	3067.8318	3122.9168	3128.2349	3141.5607	3168.8096
CC1=C(C=O)C2CC1O2	CC1=C(C=O)[C@@H]2C[C@H]1O2	
InChI=1S/C7H8O2/c1-4-5(3-8)7-2-6(4)9-7/h3,6-7H,2H2,1H3	InChI=1S/C7H8O2/c1-4-5(3-8)7-2-6(4)9-7/h3,6-7H,2H2,1H3/t6-,7+/m1/s1
