18
gdb 50833	4.98095	0.76645	0.71502	7.1553	81.27	-0.2237	-0.0332	0.1905	1565.6991	0.148114	-439.082493	-439.07385	-439.072906	-439.116529	31.433	
O	 0.2279560847	-0.2123061535	 0.2875920732	-0.30397
C	 0.1311119957	 0.9999447272	 0.2618395133	 0.132279
C	 1.2579076381	 1.9071428674	 0.1079808154	-0.295744
H	 2.2430484428	 1.4622323286	 0.0149695993	 0.091089
C	 1.1494305647	 3.2522841777	 0.0715677453	 0.398833
O	-0.0150667706	 3.9053058209	 0.1806296296	-0.402043
C	 2.3261994369	 4.1736102389	-0.1500285678	-0.078168
C	 2.5624234616	 4.7101051825	-1.5982792709	-0.234156
C	 2.653839105	 6.1160469229	-0.9599179626	-0.158361
N	 2.0196580626	 5.5677665939	 0.2679892098	-0.337941
H	 0.2422051833	 4.8533754079	 0.2433058892	 0.298644
H	 2.409767747	 5.8682013723	 1.1549238988	 0.235345
H	-0.857659293	 1.4947641719	 0.3623772788	 0.074867
H	 3.2372474404	 3.7512719076	 0.2858747034	 0.093897
H	 3.4436722793	 4.3335156785	-2.1157332701	 0.124191
H	 1.6840089045	 4.583252905	-2.2329502259	 0.131836
H	 3.6900632624	 6.4405809535	-0.807445835	 0.110427
H	 2.0932742648	 6.9292230968	-1.4290911137	 0.118974
62.7751	118.0282	135.1793	176.0899	200.8688	286.2022	330.2043	366.3125	479.5352	635.1906	685.466	733.0157	769.6738	825.796	842.6803	865.0646	939.985	953.5473	981.9411	1013.2769	1035.7803	1038.3605	1095.5687	1121.7889	1138.7884	1186.3462	1210.4162	1256.7285	1262.0955	1307.8893	1351.0767	1361.7258	1378.4366	1434.6897	1445.9643	1486.9148	1525.4275	1718.6332	1769.3732	2909.0915	3030.4997	3055.9726	3085.7288	3095.2835	3155.8933	3188.8826	3436.6437	3529.8174
O=C[CH-]C(=O)C1CC[NH2+]1	O=CC=C(O)[C@H]1CCN1	
InChI=1S/C6H8NO2/c8-4-2-6(9)5-1-3-7-5/h2,4-5,7H,1,3H2/q-1/p+1	InChI=1S/C6H9NO2/c8-4-2-6(9)5-1-3-7-5/h2,4-5,7,9H,1,3H2/t5-/m1/s1
