16
gdb 97269	4.19748	0.88258	0.7359	3.7906	79.76	-0.2692	-0.0749	0.1943	1479.0901	0.122655	-434.099365	-434.089635	-434.088691	-434.134454	33.101	
C	 0.0892232184	 1.4268091883	 0.0821821002	-0.319489
N	 0.0206840241	-0.02090186	 0.0668809058	-0.237452
C	 0.5624292556	-0.6190288021	-0.9056205731	 0.109116
N	 0.5327457641	-2.0186482048	-0.9824036584	-0.154888
C	-0.1394337733	-2.7503811521	 0.0903794179	-0.347586
C	 1.1382705699	-2.6165678077	-2.0629711689	 0.374758
O	 1.7010176531	-2.0323626441	-2.9636913482	-0.336482
C	 1.072450303	-4.0898459788	-2.0852131658	 0.214761
N	 1.0685702067	-5.2414218589	-2.1832332902	-0.321812
H	 0.6208456149	 1.8570692862	-0.7797811239	 0.110724
H	-0.9265952443	 1.8363958421	 0.108093594	 0.137553
H	 0.5870776505	 1.7552951729	 1.0011802489	 0.137553
H	 1.0827484874	-0.1546908225	-1.745333037	 0.146323
H	-0.0816490343	-3.8199744905	-0.1045304414	 0.169359
H	 0.3363854964	-2.5204412902	 1.0459756264	 0.158785
H	-1.1844978922	-2.4390802776	 0.1485254135	 0.15878
61.3861	117.8492	135.8592	138.1496	183.7294	206.1703	220.9688	308.1034	335.1331	398.6408	419.4599	462.379	534.8883	674.3177	757.0031	799.1564	981.8133	1000.3284	1067.1693	1129.6686	1141.1258	1155.8368	1158.6086	1308.6061	1346.9498	1418.0334	1445.6346	1468.7936	1471.8843	1478.9173	1500.0796	1519.7068	1745.7291	1764.4665	2347.3902	2988.0377	3066.1799	3070.9967	3085.819	3118.2434	3132.5644	3173.5287
CN=CN(C)C(=O)C#N	CN=CN(C)C(=O)C#N	
InChI=1S/C5H7N3O/c1-7-4-8(2)5(9)3-6/h4H,1-2H3	InChI=1S/C5H7N3O/c1-7-4-8(2)5(9)3-6/h4H,1-2H3
