21
gdb 107352	3.15388	1.15266	0.96725	2.8816	82.3	-0.2387	-0.0154	0.2233	1291.5511	0.182364	-387.122582	-387.113796	-387.112852	-387.156207	33.908	
C	-0.4292474972	 1.5185433255	-0.1019259238	-0.377101
C	-0.047045989	 0.0388961382	 0.033786719	-0.27689
C	 0.8350714487	-0.4643894441	-1.0890175353	 0.373555
C	 0.2058004473	-0.9185900645	-2.386629502	-0.332861
C	 0.8678789009	-1.9360207226	-1.4867879941	-0.098605
C	 2.2840645871	-2.3393253588	-1.8381060692	-0.333685
C	 3.0739771806	-1.0218645968	-1.8927376719	 0.380011
O	 4.1615082055	-0.8778246654	-2.3856736637	-0.304928
C	 2.2492562058	 0.0813743732	-1.2120046145	-0.392071
H	 0.4563382793	 2.1623500665	-0.0889661833	 0.11969
H	-0.95898248	 1.7027938934	-1.0423927381	 0.118967
H	-1.0799106698	 1.833688286	 0.7194809808	 0.112858
H	 0.4646074118	-0.1189763772	 0.993399477	 0.094062
H	-0.9587236229	-0.5705470225	 0.0698785106	 0.094078
H	-0.8780247072	-0.9276992734	-2.4376771441	 0.112536
H	 0.6870650958	-0.6649991622	-3.32806283	 0.112896
H	 0.2340686768	-2.6465566561	-0.9675594607	 0.085759
H	 2.7299523133	-2.9688561265	-1.056634011	 0.128531
H	 2.392083404	-2.8801445393	-2.7834356125	 0.129696
H	 2.3415312019	 1.0153709853	-1.7743138564	 0.128983
H	 2.6859886472	 0.2625405411	-0.2195906469	 0.12452
79.0113	86.4274	152.5045	205.4419	272.6657	337.5072	374.599	404.3501	470.1775	476.3707	579.0635	626.3599	704.2609	781.8102	788.835	815.1743	837.3915	903.2396	919.3476	940.6628	985.1536	1032.368	1054.7151	1062.6094	1069.8549	1095.2143	1110.1614	1150.7109	1169.1242	1207.7317	1231.6281	1260.7407	1283.1198	1303.8135	1353.2832	1367.3333	1403.69	1411.2998	1452.5648	1456.8311	1479.5109	1497.4896	1498.0997	1507.4892	1847.5782	3008.8295	3019.0498	3031.2643	3034.7005	3046.6551	3083.9595	3085.3028	3103.3226	3106.2703	3113.8036	3166.8239	3201.2985
CCC12CC1CC(=O)C2	CC[C@]12C[C@H]1CC(=O)C2	
InChI=1S/C8H12O/c1-2-8-4-6(8)3-7(9)5-8/h6H,2-5H2,1H3	InChI=1S/C8H12O/c1-2-8-4-6(8)3-7(9)5-8/h6H,2-5H2,1H3/t6-,8-/m1/s1
