19
gdb 76799	1.98988	1.92184	1.23773	1.409	70.64	-0.254	0.0471	0.3011	1062.3744	0.157795	-460.124711	-460.115658	-460.114714	-460.158091	34.458	
C	-0.3054449752	 1.3997831368	-0.0386129125	-0.401078
C	-0.1230603875	-0.1127925515	-0.0150052656	-0.099743
C	 1.0538716321	-0.6428078538	-0.9210340143	 0.074561
O	 1.5716106834	 0.1545668302	-1.9467342103	-0.430439
C	 1.9017837496	-0.7411268314	 0.3504938204	 0.302018
C	 3.2990231863	-1.0671804263	 0.6034020683	-0.264144
O	 2.8657259015	 0.3118530874	 0.5331595091	-0.29471
C	 0.6591873871	-0.6566498199	 1.2416885592	 0.074563
O	 0.779471801	 0.1268028873	 2.3939283848	-0.430441
H	 0.6349343838	 1.9323477102	 0.1364690503	 0.110828
H	-0.6889360984	 1.7232221025	-1.0099924968	 0.126907
H	-1.0081353806	 1.7120272975	 0.7385522404	 0.126908
H	-1.0792931264	-0.6116778423	-0.1927072706	 0.070801
H	 0.8206333811	-1.6241161131	-1.3461553737	 0.092522
H	 2.1697484068	 0.7858845438	-1.5249395609	 0.293309
H	 3.6074965816	-1.3943326014	 1.5945288394	 0.131155
H	 3.9384398929	-1.3827139345	-0.2188518054	 0.131156
H	 0.2930442309	-1.6426185176	 1.5448392171	 0.092519
H	 1.4866987599	 0.7618526661	 2.2184707712	 0.293309
80.1287	180.7901	201.022	205.8945	227.8758	234.69	259.8487	415.0674	416.8297	443.3021	512.1032	558.4909	634.0045	636.3586	774.6604	801.0067	804.8334	854.6748	911.0235	953.5815	1026.3987	1066.6944	1102.8619	1113.5517	1135.4176	1165.1639	1169.3849	1174.8057	1178.4326	1256.513	1274.4234	1296.9249	1324.4533	1363.454	1411.8132	1419.0298	1430.0573	1465.3534	1494.197	1500.1011	1524.2909	3043.5636	3057.6721	3058.2466	3075.8378	3093.6184	3109.7788	3122.8695	3184.7164	3757.3198	3760.91
CC1C(O)C2(CO2)C1O	C[C@H]1[C@@H](O)[C@]2(CO2)[C@H]1O	
InChI=1S/C6H10O3/c1-3-4(7)6(2-9-6)5(3)8/h3-5,7-8H,2H2,1H3	InChI=1S/C6H10O3/c1-3-4(7)6(2-9-6)5(3)8/h3-5,7-8H,2H2,1H3/t3-,4+,5-,6+
