16
gdb 93076	2.31397	1.74599	1.06843	3.7467	67.07	-0.2697	-0.0133	0.2564	1092.4259	0.124193	-475.06451	-475.056407	-475.055463	-475.097651	29.539	
C	-0.1171915707	 1.4355282577	 0.0908100621	-0.400043
C	 0.0379280609	-0.0662114509	-0.0917589181	 0.089024
C	 0.8443260093	-0.4319454356	-1.3325462987	-0.153916
N	 0.9031036809	-1.8415199277	-1.6554375053	-0.237966
C	 0.6491748807	-2.7579282666	-0.8404433721	 0.128777
O	 0.3097018149	-2.7463236927	 0.5053282359	-0.243044
C	 0.7134351438	-1.8230899565	 1.4516923975	 0.46909
O	 1.0092849003	-2.1905890723	 2.5439692744	-0.330793
O	 0.7198810519	-0.5379062001	 1.0964383311	-0.249666
H	 0.861903648	 1.920935816	 0.1417435388	 0.138094
H	-0.6751674182	 1.860789938	-0.747849844	 0.129545
H	-0.6569791737	 1.6529697713	 1.0150629543	 0.141276
H	-0.9466814678	-0.546224036	-0.1358104963	 0.112489
H	 0.4153973815	 0.0826500175	-2.2005108827	 0.125272
H	 1.8668149851	-0.0481925193	-1.2215621023	 0.13565
H	 0.6534613432	-3.7977189426	-1.1591431748	 0.146211
73.1846	114.7886	163.8766	213.2693	274.4273	343.0818	418.2468	434.7401	479.2393	548.4153	620.4574	747.2983	778.2621	853.9098	895.2606	925.7379	958.258	964.1924	1015.3127	1068.2084	1114.6094	1146.6147	1165.2627	1217.1925	1273.1562	1335.2234	1383.6028	1403.3085	1414.7749	1428.7954	1468.7288	1486.4485	1499.0109	1774.151	1893.0073	3027.2121	3044.8878	3051.0465	3065.5338	3125.7052	3134.4809	3171.6194
CC1CN=COC(=O)O1	C[C@H]1CN=COC(=O)O1	
InChI=1S/C5H7NO3/c1-4-2-6-3-8-5(7)9-4/h3-4H,2H2,1H3	InChI=1S/C5H7NO3/c1-4-2-6-3-8-5(7)9-4/h3-4H,2H2,1H3/t4-/m0/s1
