18
gdb 102955	2.78666	0.89434	0.69518	4.2278	77.76	-0.2579	0.0063	0.2643	1566.7395	0.145173	-439.038206	-439.028033	-439.027089	-439.074546	35.55	
O	 0.0827174883	 1.4354044336	 0.3255226508	-0.420788
C	 0.0431516867	 0.0593185663	 0.0442342122	-0.054679
C	-1.4047380208	-0.5014305391	-0.0449406306	-0.217863
C	-2.1025429989	-0.1090194997	-1.3561088038	-0.084173
O	-2.0602816263	 1.3168370328	-1.4798515847	-0.200661
C	-2.8482549037	 1.8794502013	-2.4214267729	 0.130743
N	-2.7357521576	 3.1086771686	-2.6726890036	-0.434663
C	-1.4140243298	-1.9555545729	 0.0707453883	 0.299567
C	-1.3944867244	-3.1555243697	 0.1373760799	-0.442353
H	-0.4282639636	 1.8875282978	-0.3569530315	 0.300201
H	 0.5778884539	-0.1982388162	-0.8853321065	 0.09247
H	 0.5595499021	-0.4443940582	 0.8659248158	 0.1214
H	-1.9644599346	-0.0606717027	 0.7900555142	 0.12732
H	-1.5806580123	-0.5680750999	-2.2052268802	 0.125717
H	-3.1420401087	-0.4578390239	-1.3560319919	 0.124078
H	-3.5481577903	 1.1697461122	-2.8824403522	 0.09586
H	-3.4106819717	 3.3876957771	-3.3813887983	 0.236479
H	-1.3835063585	-4.2146113272	 0.2165199351	 0.201345
39.3858	87.0777	100.2223	133.1857	147.9642	158.3674	255.4287	309.2562	380.5271	432.7439	493.0908	508.5099	515.8701	641.0393	649.4116	658.794	824.0661	882.0503	910.6104	986.8108	1023.9325	1043.579	1091.9361	1097.1235	1117.7234	1132.1886	1218.0322	1270.2648	1284.8162	1296.1386	1333.9369	1381.0099	1404.6745	1432.3942	1447.1309	1502.9592	1513.2507	1751.3629	2237.192	2967.2721	3016.6087	3032.9496	3036.1201	3072.0439	3090.458	3503.2494	3523.9836	3786.7821
OCC(COC=N)C#C	OC[C@@H](CO[CH][NH])C#C	
InChI=1S/C6H9NO2/c1-2-6(3-8)4-9-5-7/h1,5-8H,3-4H2	InChI=1S/C6H9NO2/c1-2-6(3-8)4-9-5-7/h1,5-8H,3-4H2/t6-/m0/s1
