20
gdb 95621	2.0603	1.82979	1.173	4.2072	76.3	-0.252	0.0254	0.2773	1110.2296	0.171852	-440.30618	-440.297308	-440.296364	-440.339551	33.91	
C	 0.0032484596	 1.5815176677	-0.0200703651	-0.393615
C	 0.1332554585	 0.0580946906	 0.015142451	-0.061802
C	 0.7868252994	-0.5119690798	-1.2528230459	 0.094918
O	 2.0644457399	 0.1047514193	-1.3863606811	-0.426987
C	 0.9157576724	-2.0332218908	-1.122028464	-0.253147
C	 1.7335664641	-2.35974286	 0.1193179828	-0.060794
O	 1.1969192727	-1.75946324	 1.3049459226	-0.262462
C	 0.8206759356	-0.4417939641	 1.2782956466	 0.395371
N	 0.9217842087	 0.2827391072	 2.3103759581	-0.505976
H	 0.9881638036	 2.0479562489	-0.0751981655	 0.140819
H	-0.5749541396	 1.8874578804	-0.8986235724	 0.095748
H	-0.4958979757	 1.9441094074	 0.878760627	 0.137666
H	-0.8749023028	-0.3819153273	 0.0463721423	 0.100316
H	 0.1512155711	-0.2579106806	-2.1143266262	 0.067014
H	 2.4476271315	-0.1697635585	-2.2252942684	 0.285548
H	-0.0814230224	-2.4835760652	-1.0545508532	 0.109422
H	 1.4070171293	-2.4602534743	-2.0053168222	 0.092401
H	 1.7522878119	-3.4332452938	 0.3213331129	 0.113388
H	 2.7647112068	-2.0120611283	-0.0152271307	 0.115218
H	 1.3673970354	-0.2494759888	 3.0609077014	 0.216955
74.7166	125.0304	208.9892	229.6795	258.2413	283.7201	302.7987	380.1775	414.5178	485.64	510.9573	564.3078	616.0492	721.5168	772.16	867.4936	891.0417	917.4844	933.295	986.455	999.7232	1028.1054	1061.1595	1103.4679	1123.0419	1134.2351	1164.0259	1210.542	1237.0103	1267.807	1294.3132	1325.6419	1353.7856	1362.2613	1391.6497	1408.1328	1423.7963	1441.8432	1475.8614	1488.0755	1499.7213	1506.1682	1744.6891	2984.016	3001.0495	3030.0114	3037.4788	3048.0884	3073.998	3104.6108	3127.4092	3156.2311	3461.3147	3820.8604
CC1C(O)CCOC1=N	C[C@H]1[C@@H](O)CCO[C]1[NH]	
InChI=1S/C6H11NO2/c1-4-5(8)2-3-9-6(4)7/h4-5,7-8H,2-3H2,1H3	InChI=1S/C6H11NO2/c1-4-5(8)2-3-9-6(4)7/h4-5,7-8H,2-3H2,1H3/t4-,5-/m0/s1
