20
gdb 118561	1.81277	1.25527	0.99105	4.4571	74.39	-0.2464	0.0349	0.2813	1337.0003	0.169306	-477.395942	-477.385602	-477.384658	-477.432028	36.066	
C	-0.8118965257	 0.8652838217	-0.0867712404	-0.237048
O	-0.3067429494	-0.455631436	-0.0974408366	-0.245194
C	 0.6286904911	-0.690702534	-1.1377592045	-0.08637
C	 1.0045755427	-2.1727768432	-1.1846776197	 0.066901
C	 1.5771197491	-2.7139049227	 0.1359605403	-0.086743
O	 0.7396620635	-2.5963540885	 1.2696834782	-0.413351
O	-0.0371997542	-2.9539726782	-1.7735846895	-0.217128
C	-1.1495475741	-3.2680992532	-1.0610659669	 0.099317
N	-2.1362010452	-3.7589477656	-1.6791937273	-0.440388
H	-0.0103299704	 1.6017900007	 0.0711200165	 0.115167
H	-1.3229020886	 1.099337879	-1.0309853645	 0.125314
H	-1.5278305832	 0.9331435466	 0.7346498239	 0.139242
H	 0.1966544321	-0.4027916345	-2.1069976952	 0.118491
H	 1.5380831806	-0.088246648	-0.9765732677	 0.098661
H	 1.817211363	-2.2517264167	-1.9172468225	 0.106515
H	 1.794284294	-3.7795407945	 0.0094693541	 0.124991
H	 2.540597544	-2.2004385285	 0.2974453497	 0.092471
H	 0.3705917102	-1.7023919921	 1.2507734443	 0.292356
H	-1.0591769088	-3.0915971231	 0.0111465951	 0.123183
H	-2.8740969707	-3.9785941791	-1.0123164873	 0.223613
53.5088	85.3582	111.4043	142.375	168.0063	190.993	223.135	253.6834	302.7327	334.4013	372.7987	492.5842	579.0405	585.9222	780.3282	830.2482	843.0392	911.2795	942.5896	964.8664	1052.0889	1056.2346	1062.8807	1126.7433	1158.7897	1166.0739	1189.1306	1216.1581	1249.773	1274.0015	1301.0299	1350.3558	1388.8884	1404.7751	1416.5951	1433.0596	1466.5234	1478.8291	1486.6952	1494.6269	1500.2528	1520.5977	1729.9817	2958.8321	2970.961	2991.5078	3025.7158	3046.6716	3046.8024	3078.2534	3129.4896	3133.075	3507.168	3735.9886
COCC(CO)OC=N	COC[C@@H](CO)O[CH][NH]	
InChI=1S/C5H11NO3/c1-8-3-5(2-7)9-4-6/h4-7H,2-3H2,1H3	InChI=1S/C5H11NO3/c1-8-3-5(2-7)9-4-6/h4-7H,2-3H2,1H3/t5-/m1/s1
