20
gdb 122096	3.02771	0.69592	0.58506	2.8037	77.16	-0.2719	0.0183	0.2902	1862.8576	0.168406	-440.280782	-440.269855	-440.268911	-440.317983	37.158	
C	-0.0206447199	 1.422318085	 0.2423115644	-0.248964
O	-0.0206523221	 0.0666750289	-0.1711124292	-0.229089
C	-1.2713425542	-0.5711613305	-0.067200277	-0.026111
C	-1.1815112133	-1.9319756493	-0.7693525954	-0.211652
C	-0.9193224504	-1.7907211254	-2.2702963426	-0.176648
C	-0.7944617801	-3.1396939722	-2.9667773586	-0.079975
O	-0.5709657017	-2.8923830568	-4.3453688189	-0.419805
C	-1.6698808635	-0.7364966775	 1.352030807	 0.272171
N	-1.9749884441	-0.8583083008	 2.4599460682	-0.324585
H	 0.9907830722	 1.7990600006	 0.0802796506	 0.139785
H	-0.7278536737	 2.0208721738	-0.350530364	 0.114026
H	-0.2765499003	 1.5214963729	 1.3055973815	 0.135247
H	-2.0531704049	 0.0394040191	-0.5508212875	 0.111411
H	-0.3812722127	-2.5052618061	-0.2879703789	 0.126995
H	-2.1177418123	-2.4722029969	-0.588371003	 0.118904
H	-1.7342050396	-1.2298944076	-2.7449481474	 0.105577
H	-0.0011161445	-1.2196889543	-2.4343307598	 0.130367
H	 0.0365339282	-3.7114094811	-2.5218899207	 0.08943
H	-1.7136504359	-3.7287266546	-2.8101468924	 0.085345
H	-0.478777777	-3.7384662571	-4.7927805164	 0.28757
62.8798	71.8816	82.773	113.5751	143.0287	168.0813	210.6225	256.6056	267.9162	286.4288	312.6682	421.4573	481.0991	586.8255	606.3576	756.8524	831.8662	908.8036	960.9429	1024.4215	1047.5993	1058.3421	1091.2637	1139.8207	1154.6715	1184.7107	1205.7221	1229.579	1241.9781	1289.507	1307.908	1318.3243	1344.7889	1368.6449	1397.3358	1466.2957	1476.5494	1481.3995	1488.6077	1502.4388	1507.9449	1530.0892	2352.2053	2957.1935	2962.4816	2983.1437	2992.7789	3036.0224	3044.3297	3053.4168	3081.1669	3105.6988	3133.2056	3831.5539
COC(CCCO)C#N	CO[C@@H](CCCO)C#N	
InChI=1S/C6H11NO2/c1-9-6(5-7)3-2-4-8/h6,8H,2-4H2,1H3	InChI=1S/C6H11NO2/c1-9-6(5-7)3-2-4-8/h6,8H,2-4H2,1H3/t6-/m0/s1
