20
gdb 72194	3.33909	1.78423	1.54724	1.6404	80.89	-0.2166	0.0843	0.3009	942.9453	0.173915	-365.965994	-365.959237	-365.958293	-365.996587	28.871	
C	 0.021657832	 1.4606433672	 0.0055360978	-0.488113
C	-0.0054521787	-0.0485325185	-0.020825201	 0.33497
C	-1.1560368355	-0.7663243377	-0.7112006738	-0.289763
C	-0.7170524817	-2.2345849943	-0.661568288	-0.00912
C	-0.9190784426	-2.8197320361	 0.7569123913	-0.24624
C	 0.4940455664	-2.288107805	 1.0410169373	 0.01371
C	 0.7037604091	-0.7726377688	 1.128041143	-0.15428
C	 1.2466538553	-0.8178960208	-0.2957411612	-0.067079
N	 0.8098892353	-2.2377502786	-0.4424437044	-0.155588
H	 0.9590890749	 1.836665246	 0.4281809957	 0.118406
H	-0.0770862857	 1.8706361518	-1.0062922946	 0.118095
H	-0.7984639598	 1.864673244	 0.6096227228	 0.119655
H	-2.1264751612	-0.6190601774	-0.2240180801	 0.097714
H	-1.2449287576	-0.3980341528	-1.7413568656	 0.094785
H	-1.0454446577	-2.8311666727	-1.5139571545	 0.072881
H	-1.7532999014	-2.4319285812	 1.3463950603	 0.094892
H	-0.9417852489	-3.9120606469	 0.7626333636	 0.105678
H	 1.1772236557	-2.8715155518	 1.6650446356	 0.071749
H	 1.0655841078	-0.218771746	 1.9873078858	 0.081064
H	 2.1548394142	-0.4398292904	-0.7511873601	 0.086585
200.1363	215.7757	292.5824	337.9935	404.2883	473.2523	562.6453	651.9262	680.2778	721.6821	766.8464	837.1345	851.7764	854.1127	881.5931	935.8263	940.7758	956.8412	962.3386	993.0231	1017.6544	1027.9541	1054.419	1069.593	1076.4359	1085.0031	1136.2944	1161.9392	1182.5158	1221.1465	1233.586	1247.0226	1262.0082	1271.4066	1307.6357	1350.4198	1353.8156	1405.5146	1418.6809	1479.3888	1490.3024	1497.1273	1505.1564	3019.5928	3024.632	3055.6722	3063.9138	3067.5833	3084.0652	3094.111	3096.3608	3118.1115	3163.8787	3176.2881
CC12CC3CC4C1C2N34	C[C@]12C[C@@H]3C[C@@H]4[C@H]1[C@H]2N34	
InChI=1S/C8H11N/c1-8-3-4-2-5-6(8)7(8)9(4)5/h4-7H,2-3H2,1H3	InChI=1S/C8H11N/c1-8-3-4-2-5-6(8)7(8)9(4)5/h4-7H,2-3H2,1H3/t4-,5+,6-,7+,8-/m0/s1
