16
gdb 74830	4.06514	1.20999	1.04961	2.5767	71.96	-0.2525	-0.0355	0.217	1137.8683	0.12317	-437.904824	-437.896802	-437.895858	-437.93745	29.759	
C	-0.0678047089	 1.4333216592	-0.0224434971	-0.480556
C	-0.0370600576	-0.0529234197	-0.0645292366	 0.384235
N	-0.0798883205	-0.7982116717	-1.0994550077	-0.289624
C	 0.0407937853	-2.1548230055	-0.659952385	-0.046236
C	 1.2944038347	-2.5305725734	 0.0698040034	-0.339765
C	 0.1255544553	-2.0582061657	 0.8934613099	 0.277324
O	 0.0419496613	-0.6727852489	 1.1579789629	-0.27652
C	-0.606121569	-2.929836922	 1.8276087198	 0.08303
O	-0.5526604003	-4.1366639228	 1.7981299201	-0.273569
H	 0.8775683088	 1.8238990058	 0.3675746451	 0.151846
H	-0.2318681	 1.8222508971	-1.026714517	 0.159332
H	-0.8636963755	 1.7767169177	 0.6452755427	 0.150672
H	-0.5459366353	-2.9096080407	-1.1693528895	 0.126353
H	 1.4948039653	-3.5913900303	 0.1707626503	 0.153503
H	 2.1570522871	-1.8774084692	-0.0070353556	 0.130916
H	-1.2364995008	-2.3769461901	 2.5567056342	 0.08906
114.1544	132.3533	154.5374	226.298	245.6866	330.2946	405.4196	453.4229	507.3901	634.9777	647.7768	717.068	740.2638	788.873	902.5026	931.0133	962.8429	993.0745	1024.3353	1055.5098	1067.0843	1074.9909	1107.484	1146.8921	1210.3688	1284.8746	1294.7882	1360.1304	1409.2196	1423.2317	1451.7851	1473.1785	1476.1613	1708.7008	1806.054	2908.1428	3051.7703	3109.7144	3135.4924	3167.7481	3192.6322	3237.1437
CC1=NC2CC2(O1)C=O	CC1=N[C@H]2C[C@]2(O1)C=O	
InChI=1S/C6H7NO2/c1-4-7-5-2-6(5,3-8)9-4/h3,5H,2H2,1H3	InChI=1S/C6H7NO2/c1-4-7-5-2-6(5,3-8)9-4/h3,5H,2H2,1H3/t5-,6-/m0/s1
