19
gdb 91772	2.42795	1.82938	1.62453	3.0211	69.38	-0.2496	0.0617	0.3114	934.164	0.162507	-460.16364	-460.156486	-460.155542	-460.19476	29.552	
O	 0.0724010831	 1.4110300519	-0.1797743607	-0.423216
C	 0.0340383112	 0.0069267545	-0.0118822207	 0.097859
C	 0.694135078	-0.5334061241	 1.2977551554	-0.291135
C	-0.431814631	-1.3253878685	 2.0039222622	 0.115089
C	-1.2824038276	-1.8172239814	 0.8191713722	-0.234319
C	-1.4370962142	-0.4782925989	 0.0832682665	 0.097484
O	-2.2625206817	 0.3732749306	 0.872926344	-0.261796
C	-1.7272208606	 0.6481333619	 2.1484659492	 0.020615
O	-1.2588981673	-0.4980156623	 2.8259542478	-0.271434
H	 0.9917998421	 1.6718177442	-0.2903920672	 0.28606
H	 0.4863058144	-0.4901814382	-0.8829770135	 0.072487
H	 1.5292269567	-1.2038739293	 1.0737479286	 0.100383
H	 1.075289424	 0.2795629803	 1.9217374161	 0.113263
H	-0.0598608888	-2.1127938463	 2.6618763604	 0.077279
H	-0.7424030528	-2.5535637851	 0.212971671	 0.09327
H	-2.2408564872	-2.2335324873	 1.1326778221	 0.113431
H	-1.9204984767	-0.5331347122	-0.8934790389	 0.081274
H	-0.9243833369	 1.3921063509	 2.0529264104	 0.098842
H	-2.5432751947	 1.0543245592	 2.7505188653	 0.114564
161.1188	251.7158	285.4811	325.7583	382.0001	410.6139	431.5634	449.7543	555.9943	607.1168	733.6999	797.2029	816.1904	841.922	874.3937	925.3058	936.5926	966.5139	1001.5262	1016.4625	1041.0674	1070.9421	1085.4159	1142.5296	1170.9445	1199.7643	1221.9751	1226.9838	1247.5973	1258.4516	1292.3094	1311.4084	1330.5829	1360.7075	1379.317	1387.8722	1429.9057	1446.2233	1472.297	1485.417	1537.7405	2982.7135	3013.1167	3047.3275	3055.8586	3096.1535	3102.02	3104.4774	3107.9272	3127.9454	3824.2479
OC1CC2CC1OCO2	O[C@H]1C[C@@H]2C[C@H]1OCO2	
InChI=1S/C6H10O3/c7-5-1-4-2-6(5)9-3-8-4/h4-7H,1-3H2	InChI=1S/C6H10O3/c7-5-1-4-2-6(5)9-3-8-4/h4-7H,1-3H2/t4-,5+,6-/m1/s1
