14
gdb 128595	2.71376	1.44824	0.95004	6.792	67.18	-0.2552	-0.0605	0.1947	1153.1446	0.100564	-469.996139	-469.988083	-469.987139	-470.029336	28.013	
C	 0.8771638546	 0.6154176507	 0.1430957015	-0.258329
O	-0.5169851158	 0.893072614	-0.0073380026	-0.255278
C	-1.3265685543	-0.1469836933	 0.1902378111	 0.468216
C	-1.1567490232	-1.4657741191	 0.5134895374	-0.213059
N	-2.4029175721	-2.0448206443	 0.5751672093	-0.154281
N	-3.3197212268	-1.1853298556	 0.3154839775	-0.111419
N	-2.6847171858	 0.0200897488	 0.0680534652	-0.124687
C	-3.3728594133	 1.2071497276	-0.2554565734	 0.183915
O	-4.5612912125	 1.2904854446	-0.3475126972	-0.246049
H	 1.1974896467	-0.1424729816	-0.5798552663	 0.146282
H	 1.395027156	 1.5545619743	-0.0483477973	 0.156466
H	 1.0919649339	 0.2704321638	 1.1602054872	 0.146282
H	-0.2586155051	-2.0275957409	 0.7013846628	 0.135907
H	-2.6643374824	 2.0373907509	-0.4094675951	 0.126034
85.5545	146.3529	166.2508	182.7326	213.7413	255.6386	345.0128	404.2386	593.4631	686.4901	694.938	710.877	787.3801	794.6901	975.4135	1025.8036	1034.4496	1110.545	1129.928	1180.6461	1216.2002	1269.281	1295.9066	1391.1721	1430.1558	1463.6269	1481.7738	1488.2377	1503.0814	1630.811	1851.6683	3013.7794	3030.5158	3101.5441	3162.7111	3288.0929
COC1=CN=NN1C=O	COc1cnnn1C=O	
InChI=1S/C4H5N3O2/c1-9-4-2-5-6-7(4)3-8/h2-3H,1H3	InChI=1S/C4H5N3O2/c1-9-4-2-5-6-7(4)3-8/h2-3H,1H3
