21
gdb 74614	2.50861	1.88089	1.37882	0.3598	86.98	-0.2084	0.0274	0.2357	1032.0127	0.18313	-349.940376	-349.932365	-349.93142	-349.972147	32.916	
C	-0.0095012395	 1.5077736131	 0.0357811994	-0.501779
C	-0.0787043031	 0.0147487433	-0.0135484052	 0.276001
C	 0.0085364665	-0.7789500535	-1.0886596248	-0.195636
C	-0.0003727567	-2.2082888815	-0.6711988582	-0.074526
C	 0.9323849692	-2.6469861645	 0.4892898874	-0.072666
C	 1.415228426	-1.4589744476	 1.308812126	-0.263547
C	-0.0539488304	-0.8614478576	 1.2378782133	 0.231727
C	-0.6385609186	-0.2949316565	 2.5155737919	-0.503891
C	-0.5106580856	-2.278635157	 0.7391892301	-0.116046
H	 0.873739394	 1.8540180535	 0.5896041291	 0.12311
H	 0.0389440421	 1.9354044853	-0.9695160396	 0.12144
H	-0.880964726	 1.9381948288	 0.5448550464	 0.123212
H	 0.128620352	-0.4491907988	-2.1141130967	 0.085561
H	-0.2540962473	-2.9974371334	-1.3699457989	 0.078428
H	 1.3897504053	-3.6291877191	 0.4630904658	 0.081349
H	 1.6458340913	-1.7733476939	 2.3310539873	 0.096788
H	 2.2303354863	-0.8369600968	 0.9222750607	 0.086149
H	-0.1104292193	 0.6119822791	 2.8304618048	 0.1161
H	-1.6966765066	-0.0379625751	 2.3892686376	 0.116412
H	-0.5672199031	-1.0194815653	 3.3336084857	 0.113846
H	-1.3510225264	-2.8657347226	 1.0920690879	 0.077968
154.9575	193.1005	227.3254	241.1161	295.0146	316.2874	401.9824	464.452	562.9213	572.2366	622.2416	735.8382	755.6892	776.3737	795.4296	825.0971	851.3291	870.2984	948.1448	963.7699	976.4761	999.0502	1014.4337	1021.065	1050.4514	1063.1757	1088.2137	1122.6899	1136.6387	1161.6947	1199.5433	1235.6865	1249.8134	1276.3248	1311.6457	1348.2477	1376.8234	1408.6344	1415.1778	1477.2945	1482.2662	1486.6142	1496.4999	1499.054	1691.9374	3011.0044	3023.4567	3031.5012	3055.2501	3087.4292	3090.2476	3094.4507	3106.2771	3166.5312	3172.1128	3184.7753	3198.8684
CC1=CC2C3CC1(C)C23	CC1=C[C@H]2[C@H]3C[C@]1(C)[C@@H]23	
InChI=1S/C9H12/c1-5-3-6-7-4-9(5,2)8(6)7/h3,6-8H,4H2,1-2H3	InChI=1S/C9H12/c1-5-3-6-7-4-9(5,2)8(6)7/h3,6-8H,4H2,1-2H3/t6-,7+,8-,9-/m0/s1
