20
gdb 23284	3.80596	1.08115	1.03064	1.2416	83.3	-0.2333	0.024	0.2573	1248.2894	0.171941	-403.102074	-403.093902	-403.092958	-403.134475	32.654	
C	-0.1538133933	 1.4987623952	 0.0710014156	-0.437384
C	 0.0196117854	-0.0140917135	 0.028548939	 0.046983
C	 0.7759221326	-0.6358877991	-1.1928063477	-0.038887
C	 2.1007716937	-0.2962106912	-0.4488332559	-0.243453
C	 1.2410487493	-0.6268778816	 0.8179555922	-0.111723
C	 0.9858749732	-2.089659586	 0.5822548009	 0.474925
C	 0.6371643905	-2.1483743556	-0.9025614132	-0.312629
N	 1.0581956369	-2.998371728	 1.4637434266	-0.295977
O	 0.7519089456	-4.2617529191	 0.9065584299	-0.399109
H	 0.7695558395	 2.0466556577	-0.134286116	 0.119263
H	-0.8969116662	 1.8163356157	-0.6689530709	 0.118408
H	-0.5144198632	 1.8161541837	 1.0553268657	 0.120643
H	-0.9424336676	-0.4885923001	 0.2547780342	 0.07165
H	 0.585448279	-0.3037203852	-2.2137557334	 0.063031
H	 2.9731639861	-0.9256100815	-0.6444288161	 0.100066
H	 2.3837735746	 0.75409007	-0.5094132932	 0.105367
H	 1.5133158563	-0.3148647093	 1.8244166616	 0.07398
H	-0.3700194473	-2.5424045319	-1.0709674686	 0.12095
H	 1.3396660643	-2.7725023326	-1.4638018802	 0.120731
H	 0.8455137207	-4.8433625175	 1.6684018696	 0.303166
100.4939	191.1278	206.6864	270.5117	286.017	328.2341	398.5831	427.326	456.47	559.4212	576.5708	659.6019	781.035	798.6984	826.6513	837.9804	878.5797	934.6356	957.4083	968.0075	986.6259	1013.2087	1061.0343	1074.4525	1084.9385	1095.9462	1105.1794	1168.9043	1197.001	1217.8591	1238.6118	1255.6752	1267.4827	1278.3107	1303.7969	1396.2347	1404.4329	1416.7549	1473.6323	1496.2692	1498.1944	1516.5854	1783.1706	3030.679	3035.2717	3053.1437	3068.5434	3092.4987	3093.5924	3109.9713	3110.8902	3138.6209	3142.9867	3818.9344
CC1C2CC1C(C2)=NO	C[C@H]1[C@H]2C[C@@H]1C(=NO)C2	
InChI=1S/C7H11NO/c1-4-5-2-6(4)7(3-5)8-9/h4-6,9H,2-3H2,1H3	InChI=1S/C7H11NO/c1-4-5-2-6(4)7(3-5)8-9/h4-6,9H,2-3H2,1H3/t4-,5-,6-/m0/s1
