15
gdb 129488	4.13147	1.17135	0.91356	3.1994	71.56	-0.2169	-0.0089	0.208	1197.5027	0.114684	-450.192838	-450.184545	-450.1836	-450.225863	30.806	
N	-0.1643624917	 1.3202576403	 0.0377469727	-0.570938
C	 0.0383973523	-0.0168260468	 0.0255676997	 0.514413
O	 1.1080557127	-0.5865237491	 0.0325059447	-0.388187
N	-1.176769498	-0.748703664	 0.0129388299	-0.047701
C	-1.2863361709	-2.1053915798	 0.0086723134	 0.032203
C	-2.622536815	-2.400500948	-0.0122068496	-0.326965
C	-3.2728962202	-1.1297473106	-0.0176719231	 0.407519
N	-4.6356811162	-0.8930442139	-0.1059103594	-0.585074
N	-2.4018071719	-0.1320273351	 0.0035039914	-0.365785
H	 0.6390164257	 1.9194946322	-0.0148664924	 0.270484
H	-1.1020076356	 1.6816968948	-0.023919426	 0.280725
H	-0.4007594868	-2.7183470586	 0.0177091089	 0.164234
H	-3.0792446719	-3.3766174835	-0.0323970431	 0.108545
H	-5.2065321171	-1.5742336999	 0.3730683381	 0.252521
H	-4.8891307954	 0.0515992121	 0.1494438147	 0.254008
76.0301	130.2237	185.2892	197.8369	285.7354	336.2559	389.1767	423.6365	537.0098	588.5696	609.0924	634.6126	677.7105	724.5518	745.3231	763.3025	780.1197	879.8583	981.4318	1009.3147	1057.5332	1100.3796	1128.1791	1209.0504	1287.9986	1362.2187	1430.6705	1465.3036	1516.1255	1585.0159	1610.9368	1655.5214	1831.3358	3264.9468	3293.0419	3560.8752	3606.5677	3661.224	3758.5692
NC(=O)N1C=CC(N)=N1	NC(=O)n1ccc(N)n1	
InChI=1S/C4H6N4O/c5-3-1-2-8(7-3)4(6)9/h1-2H,(H2,5,7)(H2,6,9)	InChI=1S/C4H6N4O/c5-3-1-2-8(7-3)4(6)9/h1-2H,(H2,5,7)(H2,6,9)
