21
gdb 123012	4.1699	0.63845	0.60313	3.7184	77.07	-0.2609	0.0755	0.3364	1903.6599	0.179923	-461.326727	-461.316283	-461.315339	-461.363977	36.497	
C	 0.2552532373	 1.3635933141	-0.3034884611	-0.421821
C	 0.0704521874	-0.063427837	 0.1498672836	 0.077392
O	 1.2421911108	-0.86929594	 0.3097890737	-0.25581
C	 0.4518697908	-0.5912618211	 1.4698270398	 0.048012
C	 1.0790715544	 0.2344741853	 2.5606258632	-0.082376
O	 1.7815198523	-0.6412172899	 3.418777199	-0.262539
C	 2.4417854353	 0.0096271797	 4.4898811394	-0.068095
C	 3.2884673468	-1.0465244164	 5.1826413065	-0.056409
O	 4.2365294643	-1.6059212037	 4.2977068852	-0.421101
H	 1.0822860839	 1.8540528891	 0.2129150621	 0.129091
H	 0.4653269082	 1.390027885	-1.3777443863	 0.133835
H	-0.65959864	 1.9402918694	-0.1289033768	 0.124066
H	-0.74679117	-0.5856095679	-0.3529272722	 0.090459
H	-0.097087901	-1.4544392771	 1.8505048924	 0.096917
H	 1.7595538453	 0.9854812353	 2.1358839287	 0.100911
H	 0.2921446189	 0.7682009598	 3.1217322985	 0.09148
H	 3.0881796343	 0.8145201858	 4.1053772218	 0.097202
H	 1.7141156879	 0.4550276702	 5.1885648186	 0.086408
H	 3.842298045	-0.5915850454	 6.0105307633	 0.107286
H	 2.6231615212	-1.8173291427	 5.6041286937	 0.09268
H	 3.7447299168	-1.8411499726	 3.5016093968	 0.292413
28.8736	53.1741	101.5524	111.6439	161.6454	184.1793	219.0261	296.2035	341.817	390.574	446.3086	483.2157	494.168	575.1862	767.7243	833.921	877.5423	905.6811	922.8548	988.3013	1023.2577	1046.918	1085.161	1103.6796	1118.8134	1143.5524	1154.0675	1173.2713	1188.8886	1239.327	1257.2092	1273.1132	1306.5603	1356.8093	1385.1318	1396.4492	1413.2071	1432.9092	1444.7684	1472.3534	1490.1681	1493.1302	1500.346	1512.5089	1522.5296	2954.4846	2966.5891	2976.6265	3009.04	3022.8138	3040.9976	3078.0926	3079.2025	3100.9964	3101.543	3138.2516	3790.8518
CC1OC1COCCO	C[C@H]1O[C@H]1COCCO	
InChI=1S/C6H12O3/c1-5-6(9-5)4-8-3-2-7/h5-7H,2-4H2,1H3	InChI=1S/C6H12O3/c1-5-6(9-5)4-8-3-2-7/h5-7H,2-4H2,1H3/t5-,6+/m1/s1
