16
gdb 75101	3.07064	1.40864	0.9771	3.2859	75.28	-0.2659	-0.0474	0.2185	1157.6437	0.124316	-437.951935	-437.943749	-437.942804	-437.985421	30.085	
C	 0.0167021835	 1.548351074	 0.2090977054	-0.47089
C	-0.0124128516	 0.0574749975	 0.0261273259	 0.25068
C	-1.1295002355	-0.6745936104	 0.0580598993	-0.165623
C	-1.1455113672	-2.1556100349	-0.1257381507	-0.421596
C	 0.2062782843	-2.8004226324	-0.3506445916	 0.416842
O	 0.3643304749	-3.9744844551	-0.5099140258	-0.305132
O	 1.3066528956	-1.9829015043	-0.3720339556	-0.238812
C	 1.2815145484	-0.6031438935	-0.1995253577	 0.342617
N	 2.3687289466	 0.0431502675	-0.2408119069	-0.495441
H	 0.6448919735	 1.8226330903	 1.0616432994	 0.148436
H	 0.4550896505	 2.0382178529	-0.6652544636	 0.148534
H	-0.9917501826	 1.9376616464	 0.3685885289	 0.116375
H	-2.0882402038	-0.1909961486	 0.2243005198	 0.111505
H	-1.5966789717	-2.6594696913	 0.7392683387	 0.162971
H	-1.779038336	-2.4441525803	-0.9750299875	 0.163056
H	 3.1546867014	-0.5877045579	-0.4061234779	 0.236476
40.9934	118.5288	165.6941	235.9173	306.9307	361.613	373.3065	451.1446	511.0036	557.8023	580.0224	693.9808	728.8675	757.8725	851.5164	902.0498	916.3486	970.8256	981.1607	1075.2882	1077.4904	1095.7497	1171.0481	1183.7062	1211.1238	1320.49	1358.0515	1405.8389	1419.336	1439.3484	1470.1817	1486.9649	1718.2788	1744.7183	1869.2834	3028.667	3047.2806	3049.9086	3109.4368	3128.6215	3168.9695	3482.9664
CC1=CCC(=O)OC1=N	CC1=C(OC(=O)C[CH]1)[NH]	
InChI=1S/C6H7NO2/c1-4-2-3-5(8)9-6(4)7/h2,7H,3H2,1H3	InChI=1S/C6H7NO2/c1-4-2-3-5(8)9-6(4)7/h2,7H,3H2,1H3
