18
gdb 121600	4.46374	0.66731	0.58871	20.8468	76.64	-0.149	-0.0438	0.1052	1824.5058	0.145981	-476.176524	-476.166086	-476.165142	-476.215384	34.627	
C	 0.1237864237	 1.483750968	 0.0080183598	-0.351936
N	-0.020206001	-0.0056197075	 0.0017258448	-0.247334
H	 0.4447330562	-0.4042369183	-0.8181107405	 0.317422
H	 0.4601941254	-0.4126315725	 0.8084245273	 0.317407
C	-1.4542483208	-0.5295336567	 0.0127139934	-0.18024
C	-1.4569365838	-2.0391243527	 0.005125811	-0.342496
C	-2.9336174454	-2.549252876	 0.0172600436	 0.23613
O	-3.8271187956	-1.7362989492	 0.0318807571	-0.313694
C	-3.0162388822	-4.132426699	 0.0086584745	 0.29261
O	-4.1538901027	-4.5990563346	 0.016481406	-0.436708
O	-1.8666407477	-4.6270465683	-0.0037383382	-0.489485
H	 1.1815278365	 1.7503448434	-0.0007140031	 0.180661
H	-0.3743039995	 1.8798558779	-0.8769198451	 0.196051
H	-0.3572713296	 1.8706688462	 0.90634189	 0.19606
H	-1.9295502188	-0.1133969183	 0.9033965694	 0.169644
H	-1.9463008794	-0.1043696836	-0.8645181024	 0.169581
H	-0.9693783559	-2.4672593556	-0.8767413407	 0.143147
H	-0.9522625394	-2.4757904933	 0.873090703	 0.14318
20.6252	30.0879	40.12	95.9794	119.3981	222.8644	231.307	277.3769	329.3153	369.4403	427.8059	523.6488	704.2141	708.9556	772.5559	779.0884	829.5283	872.5839	972.4467	986.8876	994.8306	1048.155	1053.9242	1151.7882	1230.5951	1230.7662	1302.2781	1309.7179	1349.0848	1367.4363	1393.1573	1422.6055	1456.4234	1481.1915	1494.6773	1498.739	1653.7822	1782.5201	1802.4466	3061.6292	3077.9211	3090.5509	3102.8539	3150.0104	3173.0179	3181.0873	3425.8976	3476.8734
C[NH2+]CCC(=O)C([O-])=O	C[NH2]CCC(=O)C(=O)[O]	
InChI=1S/C5H9NO3/c1-6-3-2-4(7)5(8)9/h6H,2-3H2,1H3,(H,8,9)	InChI=1S/C5H9NO3/c1-6-3-2-4(7)5(8)9/h2-3,6H2,1H3
