14
gdb 17146	4.25572	2.00874	1.63524	1.9701	68.46	-0.2371	0.0112	0.2483	787.0932	0.106238	-345.27049	-345.264196	-345.263252	-345.300706	25.12	
C	-0.0273325826	-1.1207220311	 0.06601263	-0.36849
C	-0.0345649929	 0.0817160877	 0.0563368416	 0.088405
C	-0.0279883601	 1.5082992467	 0.0212291874	 0.445455
O	-0.7016854426	 2.2888420516	 1.0632788089	-0.3582
C	-0.1400637988	 3.2891258173	 0.1658684409	 0.047783
C	 1.1821188593	 2.5084626309	-0.1055103085	-0.134209
C	 1.0170344986	 2.617404117	-1.6355199829	-0.279962
C	-0.4383276283	 2.4904768377	-1.1396759309	-0.134206
H	-0.0248714715	-2.1827993541	 0.0807915285	 0.188744
H	-0.2964163259	 4.3419415436	 0.3925499776	 0.099962
H	 2.0794245698	 2.5009060667	 0.5123326594	 0.093718
H	 1.29422697	 3.5735752221	-2.0864856196	 0.104046
H	 1.4044549274	 1.7852596303	-2.2281013632	 0.113235
H	-1.3763355324	 2.4625473537	-1.6931247992	 0.093718
141.4529	172.7491	362.9544	462.6347	516.6813	551.3013	568.1392	615.7161	693.9183	737.7074	776.5162	813.3053	853.6683	889.0545	893.1582	919.5474	998.4046	1026.2548	1049.0894	1071.7568	1105.4304	1144.3762	1167.1643	1177.8034	1238.188	1241.3936	1266.8843	1345.0565	1512.0903	2236.7371	3060.6739	3118.9798	3127.7398	3128.5416	3148.0327	3500.1166
C#CC12OC3C1CC23	C#C[C@@]12O[C@H]3[C@@H]1C[C@@H]23	
InChI=1S/C7H6O/c1-2-7-4-3-5(7)6(4)8-7/h1,4-6H,3H2	InChI=1S/C7H6O/c1-2-7-4-3-5(7)6(4)8-7/h1,4-6H,3H2/t4-,5+,6-,7+
