18
gdb 109185	2.85293	1.12986	0.83712	2.4636	77.	-0.224	-0.0072	0.2168	1362.0806	0.147621	-435.28445	-435.275111	-435.274167	-435.319248	33.217	
C	 0.6170674245	 1.3589596661	-0.0215734001	-0.337978
N	 0.1658179627	-0.0227083658	 0.0364450832	-0.324755
C	 0.5047263032	-0.706326499	 1.0468479408	 0.399352
C	 0.1473114919	-2.1624591196	 1.3360010948	-0.264079
N	 0.8346543681	-2.5190494924	 2.586320927	-0.302663
C	 1.4291131919	-1.4566358736	 2.9758489672	 0.330342
C	 2.2407696369	-1.3168402471	 4.2336297803	-0.171019
O	 3.3563692759	-0.4544084309	 4.0514737145	-0.415023
N	 1.2722864016	-0.3424767422	 2.1577774609	-0.37449
H	 1.7149943726	 1.4371040223	-0.0682653398	 0.105952
H	 0.2176245616	 1.8363552162	-0.9195537	 0.127212
H	 0.2808737281	 1.9472042308	 0.8466935858	 0.108753
H	-0.9360895526	-2.286003535	 1.4466114372	 0.142705
H	 0.4595132025	-2.8223439785	 0.5198471192	 0.141351
H	 1.6273445122	-0.8461486332	 5.0103305874	 0.139366
H	 2.519300983	-2.316290238	 4.5855989051	 0.132815
H	 4.0010334739	-0.9158738979	 3.5047141266	 0.29511
H	 1.8024568419	 0.5046783779	 2.2709399897	 0.267049
75.5999	80.764	107.1479	150.6164	209.9968	235.2148	284.5953	343.2928	427.0825	471.9533	506.7447	570.0797	631.9077	679.8024	752.2448	888.4861	967.7765	977.1563	982.4253	1023.1802	1037.1858	1075.8903	1107.7095	1158.3277	1176.7928	1193.4343	1210.1196	1259.853	1301.0613	1371.3729	1404.8167	1436.7348	1440.3084	1456.2726	1486.1753	1493.9949	1507.096	1709.1611	1781.909	2966.9466	3013.067	3040.6276	3047.2173	3079.7754	3086.0759	3102.6139	3674.3245	3813.341
CN=C1CN=C(CO)N1	CN=C1CN=C(CO)N1	
InChI=1S/C5H9N3O/c1-6-4-2-7-5(3-9)8-4/h9H,2-3H2,1H3,(H,6,7,8)	InChI=1S/C5H9N3O/c1-6-4-2-7-5(3-9)8-4/h9H,2-3H2,1H3,(H,6,7,8)
