23
gdb 103303	2.49248	1.31369	1.2767	1.2598	86.08	-0.2536	0.0699	0.3236	1196.6435	0.20457	-388.249759	-388.240114	-388.23917	-388.283795	37.553	
C	-0.0199165268	 1.5941977724	 0.0626171543	-0.397365
C	-0.1665069224	 0.0733517022	-0.0938557044	-0.261264
C	 0.6615031358	-0.503221592	-1.2458427404	 0.438017
O	 0.1409752027	-0.0171237724	-2.4754889891	-0.497505
C	 2.2242710846	-0.6234382061	-1.1385717147	-0.126834
C	 2.0068839263	-1.8176831376	-0.1671890509	-0.279256
C	 0.9720823068	-2.0370574468	-1.3171108111	 0.293898
C	-0.0301370993	-3.1504727134	-1.4688753772	-0.521935
C	 2.1444896833	-1.6687854871	-2.2897189977	-0.266035
H	 1.0217138838	 1.8787400457	 0.2460910559	 0.121451
H	-0.3656087816	 2.1375646926	-0.8248422823	 0.106271
H	-0.6173299819	 1.9579365049	 0.9037716899	 0.119206
H	 0.0911104017	-0.4008190276	 0.8555377337	 0.101039
H	-1.2169319764	-0.1717283122	-0.2911992175	 0.104884
H	 0.1823365573	 0.9437608658	-2.4615479669	 0.277107
H	 2.9494731887	 0.1856803811	-1.0328523712	 0.060742
H	 2.8218161984	-2.5453381838	-0.1362784642	 0.090066
H	 1.6371982668	-1.617453103	 0.8390046773	 0.087929
H	-0.7187810781	-3.1857772331	-0.6171599762	 0.114886
H	-0.6251079167	-3.0115793936	-2.3775762454	 0.130093
H	 0.4686471924	-4.1234099938	-1.5358063682	 0.11612
H	 1.8689228738	-1.30326916	-3.2759896601	 0.109069
H	 2.9654597506	-2.3898375423	-2.3301009635	 0.079418
62.4207	132.5102	184.302	199.6309	218.4946	238.7193	280.7153	346.6176	366.275	433.3245	482.4923	557.525	579.4477	648.397	675.1932	773.4081	795.4493	803.1718	900.3737	903.502	943.0635	965.3932	996.9804	1012.4838	1018.7746	1028.9827	1071.0053	1089.6194	1103.814	1162.334	1172.1083	1186.0113	1196.5403	1215.6139	1230.4601	1238.5211	1288.5966	1316.7344	1337.4009	1390.7077	1406.6985	1410.7819	1476.7505	1489.0705	1491.9374	1497.1104	1504.2346	1509.1636	1543.7229	3026.6523	3027.8919	3041.1325	3062.2886	3065.9562	3081.4403	3091.4637	3093.0577	3100.017	3104.9933	3107.2399	3128.9114	3164.8841	3823.277
CCC1(O)C2CC1(C)C2	CC[C@@]1(O)[C@H]2C[C@]1(C)C2	
InChI=1S/C8H14O/c1-3-8(9)6-4-7(8,2)5-6/h6,9H,3-5H2,1-2H3	InChI=1S/C8H14O/c1-3-8(9)6-4-7(8,2)5-6/h6,9H,3-5H2,1-2H3/t6-,7+,8-/m1/s1
