15
gdb 13323	6.22519	1.14588	0.99944	3.8264	62.99	-0.2514	-0.0226	0.2287	1118.9433	0.118567	-399.825597	-399.817796	-399.816852	-399.859527	26.251	
O	 0.1359015431	-0.1841510864	 0.0464143313	-0.242397
C	 0.050473819	 0.9982199219	-0.1547911239	 0.180883
C	 1.2493422201	 1.9335022773	-0.1478344526	-0.398343
C	 1.1866264898	 2.9640442277	-1.2290020571	 0.421987
N	 0.3149914355	 3.0222522716	-2.150388421	-0.309898
C	 0.6554484539	 4.1916794613	-2.974979826	-0.185824
C	 1.9401640126	 4.7687403812	-2.3238463199	-0.112273
O	 2.1715017545	 3.9004109071	-1.1884838598	-0.257156
H	-0.9230906079	 1.4952897867	-0.3364240319	 0.104114
H	 1.2822701969	 2.4477221235	 0.8236865716	 0.151865
H	 2.1699850366	 1.3465425043	-0.2214394157	 0.154625
H	 0.8133202517	 3.8827668025	-4.0130796771	 0.12336
H	-0.1753089133	 4.9049882542	-2.9708344586	 0.121286
H	 2.8187610368	 4.7224565151	-2.9729190802	 0.124111
H	 1.8255842907	 5.790570022	-1.9532521289	 0.12366
41.5015	56.4594	95.8692	186.5203	228.5644	384.9984	460.3904	592.9088	698.0518	758.5341	806.956	830.3747	926.3008	978.7418	992.6507	1013.9505	1052.554	1076.422	1122.2908	1189.9077	1202.7023	1218.1148	1246.8374	1308.6073	1353.4139	1396.3354	1427.0155	1442.3425	1503.3408	1526.7721	1740.4683	1838.8526	2941.2127	3023.4436	3044.851	3059.784	3074.3957	3093.4831	3108.9525
O=CCC1=NCCO1	O=CCC1=NCCO1	
InChI=1S/C5H7NO2/c7-3-1-5-6-2-4-8-5/h3H,1-2,4H2	InChI=1S/C5H7NO2/c7-3-1-5-6-2-4-8-5/h3H,1-2,4H2
