16
gdb 48960	3.38454	1.57222	1.34477	2.2119	68.83	-0.2418	-0.0383	0.2035	950.9457	0.125533	-437.826315	-437.819604	-437.81866	-437.857607	26.598	
O	-0.8374791345	 1.1100081992	 0.6263983962	-0.259359
C	 0.193606359	 0.8880107978	 0.0390782023	 0.035144
C	 1.336082448	 1.83214385	 0.0018286788	 0.234751
N	 1.3439561552	 3.0872690313	 0.7782012957	-0.362477
C	 2.422875536	 3.5059323664	-0.1870093733	-0.077329
C	 3.5693118857	 2.6147876506	 0.3262019743	-0.189412
C	 2.8486752818	 1.3223512723	-0.0992634916	 0.017444
O	 2.8181030543	 1.4710984026	-1.551736652	-0.288634
C	 1.8620260725	 2.4968733197	-1.3014883992	 0.042935
H	 0.3411999206	-0.0396842208	-0.5557965656	 0.091745
H	 0.4711372257	 3.5735560124	 0.5745671378	 0.231043
H	 2.5844463599	 4.569209196	-0.3495883286	 0.085058
H	 4.5130267344	 2.7145939917	-0.2122483882	 0.114758
H	 3.7064319443	 2.7332322644	 1.4012317142	 0.122898
H	 3.1833602692	 0.3438634326	 0.2386271513	 0.098543
H	 1.2745288579	 2.8356760938	-2.1544312019	 0.102892
97.7447	167.4308	255.4993	384.5867	440.3627	516.6618	558.8087	646.9132	742.2442	770.7018	789.0816	843.7493	865.2589	889.2167	913.3045	923.9854	963.0747	983.8875	1005.8197	1020.6781	1068.514	1078.04	1121.5859	1161.0476	1174.0869	1219.2393	1243.0596	1255.5201	1268.1198	1302.4597	1333.8271	1351.3148	1426.9611	1464.6069	1810.141	2896.4708	3087.8944	3129.2048	3148.8993	3151.6786	3155.347	3475.4666
O=CC12NC3CC1OC23	O=C[C@@]12N[C@H]3C[C@@H]1O[C@@H]23	
InChI=1S/C6H7NO2/c8-2-6-4-1-3(7-6)5(6)9-4/h2-5,7H,1H2	InChI=1S/C6H7NO2/c8-2-6-4-1-3(7-6)5(6)9-4/h2-5,7H,1H2/t3-,4-,5+,6+/m0/s1
