18
gdb 17212	4.3134	1.79883	1.56046	2.3043	71.21	-0.213	0.0642	0.2772	868.496	0.155769	-343.904609	-343.897788	-343.896844	-343.935754	26.816	
C	-0.3396289729	 1.3728506473	 0.1445658788	-0.309289
N	 1.0649753653	 0.938724056	 0.0026685114	-0.363199
C	 0.0063869431	-0.0616979016	 0.0413889602	 0.347935
C	-0.0651449927	-1.2023975848	 1.0621328247	-0.24734
N	-0.4898237517	-2.1615289909	-0.0097999216	-0.124343
C	-1.9766742913	-2.1860124351	-0.2134194885	-0.161859
C	-1.8830395045	-1.1905974453	-1.4008776098	-0.245897
C	-0.3843954675	-1.0593766925	-1.0535884071	-0.067866
H	-0.5872721714	 1.8077409004	 1.109627655	 0.120124
H	-0.8339524618	 1.8427111012	-0.7031542331	 0.111723
H	 1.3826016074	 1.0818648523	-0.9537734391	 0.230405
H	 0.9085981705	-1.4689370935	 1.4849947068	 0.11561
H	-0.7885498934	-1.0921514474	 1.878258764	 0.100821
H	-2.3425207828	-3.1851222423	-0.4669438412	 0.10736
H	-2.5421526641	-1.8233251907	 0.6529176593	 0.098823
H	-2.0657651209	-1.649089871	-2.3751161729	 0.10815
H	-2.4751392362	-0.275471823	-1.3268940326	 0.104027
H	 0.3416998447	-1.1932453892	-1.8633624242	 0.074814
68.2155	190.2848	271.8577	315.3032	399.7693	453.326	541.938	714.6113	760.7418	783.0537	821.0372	876.5504	900.4686	920.2802	932.3942	955.971	986.2154	987.5773	1018.3796	1045.1727	1072.6853	1107.7814	1126.2264	1162.1382	1194.8227	1197.1191	1223.1852	1259.3895	1262.5247	1273.9548	1293.2019	1308.1504	1325.6706	1417.9827	1480.1851	1488.8954	1512.1606	1513.4071	3027.2777	3031.0653	3039.6391	3066.2863	3078.6751	3083.0961	3097.5317	3119.8405	3181.695	3487.009
C1NC11CN2CCC12	C1N[C@]21CN1CC[C@@H]21	
InChI=1S/C6H10N2/c1-2-8-4-6(3-7-6)5(1)8/h5,7H,1-4H2	InChI=1S/C6H10N2/c1-2-8-4-6(3-7-6)5(1)8/h5,7H,1-4H2/t5-,6+/m0/s1
