18
gdb 11126	6.6141	0.96348	0.91721	2.8786	69.88	-0.2487	-0.021	0.2276	1264.8314	0.151926	-384.926844	-384.918218	-384.917274	-384.960796	30.289	
C	-0.6199367836	 1.5074157683	-0.0694740077	-0.244195
O	-0.2602955726	 0.2599554019	 0.484001951	-0.237423
C	-1.0786978337	-0.7933193971	 0.0605610748	 0.171962
C	-0.8564839312	-1.3839556084	-1.3621306631	-0.278602
C	-0.8782112431	-2.8210062334	-0.7374864956	-0.095428
C	-0.6972277614	-2.1550949657	 0.6683762157	-0.280422
C	-2.2082308961	-3.5035834818	-0.8964425849	 0.170989
O	-2.3677625353	-4.6180738543	-1.3237896214	-0.255026
H	 0.0624708588	 2.2542414155	 0.3424654857	 0.131133
H	-0.5300491034	 1.5135175738	-1.166014347	 0.110165
H	-1.6528506441	 1.7844488093	 0.1934253179	 0.107242
H	-2.1389480372	-0.544613927	 0.2276667243	 0.067451
H	-1.5942135185	-1.1615997884	-2.1371981682	 0.108115
H	 0.1418630608	-1.1398079635	-1.7329658413	 0.121696
H	-0.0930336338	-3.5055962117	-1.0598322534	 0.09586
H	 0.3531548621	-2.1561725476	 0.9668665947	 0.128056
H	-1.3047602763	-2.532634535	 1.4941378095	 0.111845
H	-3.0836890713	-2.8848184349	-0.579807091	 0.06658
62.7083	70.9617	108.3555	184.2406	237.3286	282.3154	316.9417	402.4634	437.1614	494.369	675.1098	810.455	871.7327	887.2518	891.7439	967.5686	973.9913	1048.3111	1054.245	1099.551	1142.3394	1167.9913	1184.2736	1202.0243	1210.5166	1248.0894	1256.5235	1269.8151	1299.2856	1317.2097	1395.7426	1437.361	1462.6801	1480.2921	1487.1287	1491.9372	1509.2108	1831.4578	2830.2153	2969.9089	2979.2401	3025.3353	3062.1491	3069.9734	3107.7087	3119.2284	3123.0359	3130.2681
COC1CC(C1)C=O	CO[C@H]1C[C@@H](C1)C=O	
InChI=1S/C6H10O2/c1-8-6-2-5(3-6)4-7/h4-6H,2-3H2,1H3	InChI=1S/C6H10O2/c1-8-6-2-5(3-6)4-7/h4-6H,2-3H2,1H3/t5-,6-
