13
gdb 130140	3.28659	1.46848	1.01563	2.5708	64.44	-0.225	-0.0522	0.1728	1057.6819	0.091937	-486.138849	-486.131381	-486.130436	-486.170727	28.428	
N	-0.0113739684	 1.3437490471	 0.1375747457	-0.548011
C	-0.0432235283	-0.0175952277	 0.0455380285	 0.296686
N	-1.154133338	-0.6761208012	 0.0196363968	-0.276527
N	-1.0633947503	-2.0426445742	-0.0069987989	-0.313998
C	 0.0687750564	-2.8132881691	-0.0174240558	 0.497944
O	 0.0804282308	-4.0242410231	-0.0369614717	-0.388039
N	 1.2343760556	-2.0373602201	-0.0085255003	-0.428865
C	 1.3014026287	-0.6627691215	 0.0076605671	 0.420174
O	 2.3408780344	-0.0354103628	-0.0201626221	-0.366957
H	 0.8731486299	 1.7628806254	-0.1060367103	 0.277783
H	-0.8507322906	 1.846689409	-0.0995073986	 0.267244
H	-1.9455530311	-2.5282542159	-0.0169869923	 0.283534
H	 2.1054492309	-2.551332166	-0.035116398	 0.279031
109.1464	157.5385	303.2264	321.3603	382.412	391.3845	469.6514	482.5981	494.6187	536.1125	560.7121	617.431	700.1358	715.5101	748.6985	811.316	837.7611	989.2814	1063.4527	1222.7337	1281.2803	1341.1519	1397.9345	1434.8181	1491.7517	1602.7557	1695.6509	1796.2557	1832.0455	3586.6355	3606.5176	3659.9453	3713.7815
NC1=NNC(=O)NC1=O	Nc1n[nH]c(=O)[nH]c1=O	
InChI=1S/C3H4N4O2/c4-1-2(8)5-3(9)7-6-1/h(H2,4,6)(H2,5,7,8,9)	InChI=1S/C3H4N4O2/c4-1-2(8)5-3(9)7-6-1/h(H2,4,6)(H2,5,7,8,9)
