21
gdb 89316	2.57541	1.58598	1.21868	1.1301	78.45	-0.2372	0.0651	0.3023	1110.8324	0.181451	-424.219428	-424.210582	-424.209637	-424.251982	35.451	
C	-0.051703792	 1.5125557825	-0.0257695025	-0.410051
C	 0.0851717796	 0.001624196	 0.0413608864	 0.093629
O	 0.9660690126	-0.5137773282	-0.9790486088	-0.32599
C	 1.9247774012	-1.2856354904	-0.2119592191	 0.43743
C	 2.932540248	-1.925782008	-1.1222345463	-0.484804
C	 2.2743361274	-0.3255396218	 0.959350425	-0.309044
C	 0.7838322445	-0.5869896021	 1.2917517108	 0.354752
O	 0.2939592537	-0.2491251954	 2.5485606088	-0.483218
C	 1.0213815519	-2.0521228346	 0.7913292794	-0.339377
H	 0.9103530119	 2.0141660333	 0.1051265037	 0.122111
H	-0.4618113969	 1.8112456505	-0.9949119249	 0.123497
H	-0.7313018318	 1.8617486985	 0.7585669161	 0.113893
H	-0.9105884614	-0.4537331755	-0.0826005821	 0.059239
H	 3.4686004855	-1.1624775009	-1.6949133398	 0.127554
H	 3.6600542597	-2.5040039652	-0.54601714	 0.11737
H	 2.4366086485	-2.5961946964	-1.8309414681	 0.126886
H	 2.9403522233	-0.7751314961	 1.6977015762	 0.103626
H	 2.5938451822	 0.6867179658	 0.7070560347	 0.099741
H	-0.6275772982	-0.5265361892	 2.6024372071	 0.281524
H	 0.1757736973	-2.6077071029	 0.3762139372	 0.090501
H	 1.5807443131	-2.6529773698	 1.5104760362	 0.10073
181.2045	197.6372	203.4881	234.2697	245.2803	255.1616	285.57	399.6869	428.6887	492.7037	506.4006	542.6426	595.6334	610.255	690.2225	809.3789	820.6788	877.6338	901.2175	940.7827	964.0548	972.8906	1013.2454	1027.0083	1094.9795	1102.5376	1120.7748	1147.1467	1150.634	1186.9281	1206.0449	1207.4541	1280.2453	1318.1506	1347.1845	1379.5266	1397.4673	1409.8227	1422.0623	1471.2715	1480.7524	1487.5924	1493.2468	1496.585	1520.6885	2967.0512	3040.5734	3042.3457	3058.7791	3081.3138	3109.8122	3111.8447	3119.5787	3123.8754	3132.7363	3145.9189	3796.9824
CC1OC2(C)CC1(O)C2	C[C@H]1O[C@@]2(C)C[C@]1(O)C2	
InChI=1S/C7H12O2/c1-5-7(8)3-6(2,4-7)9-5/h5,8H,3-4H2,1-2H3	InChI=1S/C7H12O2/c1-5-7(8)3-6(2,4-7)9-5/h5,8H,3-4H2,1-2H3/t5-,6-,7-/m1/s1
