20
gdb 83297	2.31066	1.89083	1.46217	2.1022	77.16	-0.2136	-0.012	0.2016	995.1993	0.173771	-403.169811	-403.162149	-403.161205	-403.201785	30.606	
C	-0.2596682692	 1.5541711896	 0.0621508688	-0.424906
C	 0.0435608597	 0.0649223896	-0.0232889589	-0.058382
N	 0.7115097963	-0.4294124943	-1.2629747948	-0.103386
C	 2.0363166986	 0.2286408254	-1.4095436276	-0.174535
C	 2.9341240454	-0.3423976747	-0.2582441015	-0.238487
C	 1.9619515108	-1.3552058727	 0.4118887437	-0.129566
C	 1.1302230071	-1.7843285085	-0.8227375833	-0.198726
C	 0.932069681	-0.480550421	 1.1216522482	 0.416558
O	 0.830887844	-0.2326611185	 2.2954412259	-0.340242
H	 0.6452120572	 2.1671933664	 0.0933494713	 0.122627
H	-0.8678064924	 1.8743231757	-0.7881070098	 0.127717
H	-0.8122200931	 1.7476320141	 0.985104744	 0.141238
H	-0.9103707834	-0.4785346674	 0.038164935	 0.107506
H	 2.4391009095	-0.0378709838	-2.3903346337	 0.110174
H	 1.935595775	 1.3136458643	-1.3835842979	 0.112205
H	 3.8156735467	-0.8609094608	-0.6464424461	 0.107754
H	 3.2809855415	 0.4246407803	 0.4385685957	 0.118997
H	 2.4300438141	-2.1098212288	 1.0414530116	 0.085341
H	 0.2619110912	-2.4056827813	-0.587065266	 0.110151
H	 1.7248079899	-2.2801851235	-1.5951857946	 0.107963
99.5886	167.5278	204.3713	247.4303	324.6671	448.8359	470.9139	497.776	539.2282	643.1519	711.8172	770.8523	803.9907	821.3087	841.5137	882.9668	891.3576	933.7096	951.9361	983.3196	1029.5155	1036.3492	1072.6425	1092.0432	1129.6789	1167.7519	1186.1343	1192.8542	1229.2417	1269.2522	1287.0147	1291.0062	1302.0171	1317.2985	1338.455	1364.2359	1403.6369	1485.0168	1494.0496	1499.8288	1507.9293	1524.5557	1851.1666	3003.5662	3049.252	3055.3168	3056.6796	3070.8255	3102.247	3109.7177	3118.3832	3128.7606	3135.0542	3138.7439
CC1N2CCC(C2)C1=O	C[C@H]1N2CC[C@H](C2)C1=O	
InChI=1S/C7H11NO/c1-5-7(9)6-2-3-8(5)4-6/h5-6H,2-4H2,1H3	InChI=1S/C7H11NO/c1-5-7(9)6-2-3-8(5)4-6/h5-6H,2-4H2,1H3/t5-,6-/m1/s1
