12
gdb 25363	5.43644	0.94672	0.80631	2.9842	68.23	-0.2721	-0.0935	0.1786	1282.8951	0.076962	-472.664437	-472.657014	-472.65607	-472.697075	25.611	
O	 0.0353979957	-0.0474314294	-0.0015655186	-0.24418
C	 0.0241981286	 1.1572169781	 0.0082556173	 0.085853
C	 1.237942965	 1.9942671344	 0.0020334224	 0.293481
N	 1.2830020295	 3.290167189	 0.0124946541	-0.298363
C	 2.6332973267	 3.5945545354	 0.0002990968	 0.136612
C	 3.1861006235	 4.9579351289	 0.0058351261	 0.080495
O	 2.5284223474	 5.9672691968	 0.0212964936	-0.243681
C	 3.3373435073	 2.4194041889	-0.017528832	-0.057806
O	 2.467427158	 1.3948981831	-0.0164147891	-0.140094
H	-0.9005635601	 1.7644383263	 0.0239718298	 0.125557
H	 4.2982372548	 4.9828020124	-0.0064929314	 0.080853
H	 4.3860460134	 2.1704425262	-0.0311888389	 0.181272
90.8216	138.2782	145.6998	233.8386	245.8671	342.4219	472.4469	522.7909	654.5215	713.4704	769.5012	793.8322	839.9787	952.1959	1014.3739	1027.1244	1029.6351	1165.9432	1221.4044	1327.3644	1343.3051	1391.4809	1433.3148	1569.9151	1583.1352	1806.9852	1816.9604	2887.1405	2966.4167	3282.2212
O=CC1=NC(C=O)=CO1	O=Cc1nc(C=O)co1	
InChI=1S/C5H3NO3/c7-1-4-3-9-5(2-8)6-4/h1-3H	InChI=1S/C5H3NO3/c7-1-4-3-9-5(2-8)6-4/h1-3H
