19
gdb 74436	2.96173	1.57289	1.2666	1.4968	80.43	-0.2188	0.0183	0.2371	1053.7126	0.159495	-385.867598	-385.859874	-385.85893	-385.899192	31.751	
C	 0.0705679674	 1.4757588954	 0.0534852345	-0.500559
C	-0.0381118621	-0.0122265714	-0.0414725664	 0.346232
C	-0.0748193927	-0.7783110266	-1.1398084945	-0.315266
C	 0.0044135347	-2.2362605833	-0.7431067672	 0.396805
O	-0.4139501926	-3.1943156669	-1.6696762733	-0.496003
C	 1.441366171	-2.4971806725	-0.1730759744	-0.256929
C	 0.9149382441	-2.1198595414	 1.2082517535	-0.074474
C	-0.0520364562	-0.9014011588	 1.161760286	-0.140278
C	-0.5116529078	-2.270243449	 0.7507305658	-0.154622
H	 1.006997453	 1.7742838181	 0.5416148109	 0.130076
H	 0.0384852214	 1.9453837941	-0.9332284211	 0.123692
H	-0.7428153742	 1.8963749119	 0.6586463804	 0.123901
H	 0.0355917813	-0.4456337081	-2.1660401422	 0.091352
H	-1.273061173	-2.9191299585	-2.0083561942	 0.275286
H	 1.647165254	-3.5702208049	-0.2096651647	 0.113158
H	 2.2713508311	-1.9367408608	-0.6157226528	 0.088038
H	 1.3595019837	-2.4069939996	 2.1536486836	 0.086145
H	-0.3324553618	-0.5079927617	 2.1335266584	 0.078383
H	-1.3457141214	-2.8283790261	 1.1593589278	 0.085064
158.2409	178.6837	256.8498	303.7771	318.5655	360.9723	422.8152	456.6018	560.773	583.1572	622.1611	717.3972	761.4978	774.6799	806.5181	819.6248	916.8899	924.7954	947.5985	961.9484	996.8414	1008.156	1032.8208	1050.669	1060.2744	1074.7989	1123.6239	1129.3864	1162.3664	1205.7348	1247.3061	1253.4772	1310.5014	1340.3144	1360.2111	1382.4187	1412.995	1479.1073	1483.5767	1489.6093	1689.9707	3016.6256	3041.8714	3062.1184	3108.6321	3111.2029	3163.3391	3175.7592	3189.3723	3193.4048	3800.0935
CC1=CC2(O)CC3C1C23	CC1=C[C@@]2(O)C[C@H]3[C@@H]1[C@@H]23	
InChI=1S/C8H10O/c1-4-2-8(9)3-5-6(4)7(5)8/h2,5-7,9H,3H2,1H3	InChI=1S/C8H10O/c1-4-2-8(9)3-5-6(4)7(5)8/h2,5-7,9H,3H2,1H3/t5-,6+,7-,8+/m0/s1
