22
gdb 33071	4.52018	0.74845	0.67749	1.8821	91.56	-0.1899	0.051	0.2409	1758.9898	0.194363	-367.267667	-367.257634	-367.25669	-367.303455	36.599	
C	-0.0894949364	 1.595362525	-0.0103667602	-0.37826
C	-0.1158863649	 0.0667573971	-0.0795808113	-0.145796
C	 0.8329325662	-0.5037961405	-1.1506689337	-0.306482
C	 0.8107523979	-2.0021170926	-1.239939562	 0.295837
C	 1.8010972424	-2.8637237891	-0.8281757275	-0.195092
N	 1.3753885323	-4.1511887957	-1.0610670882	-0.296866
C	 0.1209216818	-4.1396770767	-1.6238391685	 0.328297
C	-0.5921943306	-5.3980629492	-1.9946442192	-0.501711
C	-0.2498457097	-2.8189925338	-1.7425137051	-0.326251
H	 0.9150119767	 1.9643855429	 0.226866814	 0.110079
H	-0.384713368	 2.0411850292	-0.9671585491	 0.110739
H	-0.7720304324	 1.9738594652	 0.7572804992	 0.107629
H	 0.1551002756	-0.3576418345	 0.894979528	 0.094353
H	-1.1367655553	-0.2782127851	-0.2851382754	 0.096407
H	 0.5667593569	-0.0660227217	-2.1229164652	 0.094701
H	 1.855061885	-0.1655743234	-0.9371964755	 0.089111
H	 2.7685061771	-2.6660049976	-0.3934860581	 0.107136
H	 1.9101572668	-4.9798232468	-0.8677945156	 0.252282
H	-0.7607301215	-6.0517174414	-1.1291812829	 0.123494
H	-1.5694670566	-5.1586482751	-2.4200288585	 0.136384
H	-0.0421677187	-5.9841439538	-2.7422090108	 0.123267
H	-1.1872112946	-2.4708982922	-2.1526129448	 0.080743
48.4114	80.9735	90.429	105.9678	221.4671	242.5752	264.0446	308.5168	366.8908	390.9101	456.6466	613.4673	644.9966	672.6291	711.3516	744.0695	756.755	809.3503	873.4443	895.6753	974.0193	993.878	1013.3454	1043.9034	1062.1009	1085.505	1111.8627	1134.2364	1175.7936	1242.2034	1280.777	1301.1776	1323.5367	1327.7742	1383.55	1410.4928	1417.1996	1428.9227	1449.3353	1480.7228	1480.8631	1492.3214	1499.3242	1503.7149	1510.0562	1552.2348	1636.2235	3004.2558	3013.0402	3025.4664	3027.7033	3038.0575	3055.3253	3062.7371	3093.3058	3098.0307	3121.347	3230.5959	3253.3558	3678.5734
CCCC1=CNC(C)=C1	CCCc1c[nH]c(C)c1	
InChI=1S/C8H13N/c1-3-4-8-5-7(2)9-6-8/h5-6,9H,3-4H2,1-2H3	InChI=1S/C8H13N/c1-3-4-8-5-7(2)9-6-8/h5-6,9H,3-4H2,1-2H3
