18
gdb 35824	2.30667	1.80544	1.33563	3.9906	73.74	-0.28	0.0157	0.2957	1006.9766	0.149924	-401.950437	-401.942761	-401.941817	-401.983389	29.024	
N	 0.1339191885	-0.8068842573	 1.2435103855	-0.338748
C	 0.0881590639	 0.1913717051	 0.6625221621	 0.288618
C	 0.0260413608	 1.4753739071	-0.0728592442	-0.060577
O	-0.846419636	 2.383349852	 0.5736061474	-0.239013
C	-0.0998700752	 3.0712284243	 1.5870845564	-0.110068
C	 1.3390949595	 3.1757677155	 1.0544940332	-0.013738
C	 2.4696886504	 2.3519709941	 1.7425950116	-0.239991
C	 2.6670913907	 1.5373804585	 0.4321587004	-0.241805
C	 1.395424354	 2.2031114531	-0.1626204474	-0.040126
H	-0.397332666	 1.2683551295	-1.0599161093	 0.131734
H	-0.5922167935	 4.035065328	 1.7353129981	 0.118508
H	-0.1379608337	 2.5100636393	 2.5314604026	 0.111635
H	 1.6200839767	 4.2042816412	 0.8242195278	 0.083848
H	 3.3352158537	 2.9248478817	 2.0804970992	 0.107367
H	 2.1078049415	 1.7488435832	 2.5795919724	 0.11901
H	 3.5667356389	 1.8246425095	-0.1160028214	 0.105862
H	 2.6499214971	 0.4498089658	 0.5236664486	 0.129323
H	 1.4988071286	 2.6478097096	-1.1530820429	 0.08816
45.847	107.5938	162.0004	266.2946	345.7458	368.6566	496.1383	583.491	657.532	674.8514	708.3114	759.8033	835.9127	882.4029	912.9504	933.1629	940.2885	964.8062	975.4728	1026.9076	1075.0866	1085.4155	1119.4045	1130.2753	1195.3752	1229.8324	1237.2392	1261.178	1261.9569	1278.6015	1294.2401	1324.9829	1329.635	1362.4607	1379.2385	1477.8384	1494.5674	1517.1138	2348.9329	3006.814	3064.5411	3072.0467	3074.0163	3087.511	3098.4492	3106.7315	3115.9043	3131.6764
N#CC1OCC2CCC12	N#C[C@H]1OC[C@H]2CC[C@@H]12	
InChI=1S/C7H9NO/c8-3-7-6-2-1-5(6)4-9-7/h5-7H,1-2,4H2	InChI=1S/C7H9NO/c8-3-7-6-2-1-5(6)4-9-7/h5-7H,1-2,4H2/t5-,6-,7-/m1/s1
