13
gdb 18824	4.50187	2.42362	1.98411	4.8286	55.87	-0.26	0.0054	0.2654	669.1361	0.097732	-398.575776	-398.570441	-398.569497	-398.605138	21.273	
O	-0.0160366735	-0.0195245398	 0.0620588629	-0.328273
C	 0.0116999723	 1.1670745102	 0.0080773723	 0.443253
O	-1.1075287787	 1.957666138	 0.1528411774	-0.226165
C	-0.6892786166	 3.2989540547	-0.0118958104	 0.085572
C	 0.4785719132	 3.8278246789	 0.8168726713	-0.119289
C	 1.3199723677	 2.6501362263	 1.2775852263	-0.199549
N	 1.183713404	 2.016364623	-0.1164480304	-0.221014
C	 0.6597456141	 3.3292421509	-0.6131435217	-0.065226
H	-1.4883598172	 3.9664171546	-0.3018444769	 0.131775
H	 0.4882675178	 4.839304031	 1.2032687192	 0.108103
H	 2.3678744335	 2.9071740245	 1.439311887	 0.136446
H	 0.9590524206	 2.027958519	 2.1026390196	 0.137548
H	 1.002991493	 3.7746922488	-1.5369636466	 0.11682
158.5446	330.0607	454.7852	518.0506	651.6269	736.554	763.0279	774.87	812.514	826.9946	849.7047	922.1307	963.64	990.6897	1006.8526	1024.0209	1043.349	1062.5063	1076.6537	1119.1052	1139.2035	1180.8997	1229.1127	1304.4709	1315.8573	1403.0529	1512.0294	1916.4606	3056.5353	3123.9483	3194.1112	3207.453	3230.524
O=C1OC2C3CN1C23	O=C1O[C@H]2[C@H]3CN1[C@@H]23	
InChI=1S/C5H5NO2/c7-5-6-1-2-3(6)4(2)8-5/h2-4H,1H2	InChI=1S/C5H5NO2/c7-5-6-1-2-3(6)4(2)8-5/h2-4H,1H2/t2-,3+,4-/m0/s1
