20
gdb 17784	5.79367	1.01273	0.9947	2.0418	75.34	-0.2326	0.0821	0.3147	1264.6652	0.176905	-348.935935	-348.927923	-348.926979	-348.968933	30.194	
C	 0.0970782072	 1.5855117407	 0.2046403759	-0.380961
C	 0.0302443658	 0.0696454028	 0.0024064436	-0.155245
C	 0.8809801143	-0.417134761	-1.1800810458	-0.235979
C	 0.8513864292	-1.9303232569	-1.3360858606	 0.05442
C	-0.3364078676	-2.7171860712	-1.9708983771	 0.040793
C	 0.0687823271	-2.2361954068	-3.384854416	-0.229024
C	 1.3327352918	-2.6822162262	-2.611006976	 0.020057
O	 0.5789782293	-3.8700752068	-2.1429209389	-0.310347
H	 1.1243620039	 1.9136435245	 0.3987375072	 0.114918
H	-0.2568135532	 2.1199414571	-0.6840770209	 0.113938
H	-0.5194070711	 1.9031956807	 1.0512427417	 0.113205
H	 0.3598867896	-0.4388405028	 0.9176375049	 0.098987
H	-1.0130051576	-0.2346380571	-0.1531779177	 0.097796
H	 0.5480520199	 0.0867508799	-2.0944931936	 0.095473
H	 1.9229643813	-0.1043744585	-1.0249659646	 0.098653
H	 1.2071422849	-2.4330690727	-0.4313028652	 0.079703
H	-1.3289433565	-2.9250904879	-1.5690832877	 0.089852
H	-0.227767112	-2.9051977116	-4.1933023625	 0.107815
H	-0.0519960177	-1.1831348677	-3.6449318587	 0.096625
H	 2.3474484314	-2.8459933685	-2.9767853381	 0.089319
67.2939	85.5732	133.4426	245.8204	297.2908	344.3274	369.2338	550.4823	627.9993	720.2523	744.0263	794.7531	832.5573	875.986	889.1748	913.591	918.0722	929.3971	1009.0128	1031.1403	1046.7928	1079.4322	1090.1998	1128.5539	1148.4887	1167.7173	1171.272	1201.882	1221.155	1254.3194	1268.529	1287.474	1308.1775	1331.5623	1381.6547	1408.5786	1414.88	1478.0394	1489.6343	1497.6829	1500.1669	1511.0837	3011.6682	3020.9828	3029.6193	3042.8994	3059.2367	3071.7247	3080.6695	3096.6718	3102.5748	3105.4148	3113.181	3151.1249
CCCC1C2CC1O2	CCC[C@H]1[C@H]2C[C@@H]1O2	
InChI=1S/C7H12O/c1-2-3-5-6-4-7(5)8-6/h5-7H,2-4H2,1H3	InChI=1S/C7H12O/c1-2-3-5-6-4-7(5)8-6/h5-7H,2-4H2,1H3/t5-,6+,7-
