19
gdb 49066	2.42989	1.60382	1.26639	2.767	75.35	-0.2468	-0.0266	0.2202	1059.4393	0.160047	-423.033365	-423.025387	-423.024442	-423.06642	30.34	
O	-0.0245867125	-0.1271877094	-0.1595145737	-0.256912
C	 0.006333349	 1.0605210693	 0.0445704791	 0.087673
C	 1.2409614253	 1.919224915	 0.0368257775	 0.221891
C	 1.1835976245	 3.1835612566	 0.9468637241	-0.299423
C	 1.4313307342	 4.1113349402	-0.2732462959	-0.248652
C	 1.3687402854	 2.8819199357	-1.2249818633	 0.084288
O	 2.5420834972	 2.5305354345	-1.9079929237	-0.245164
C	 3.4406000329	 1.9468196033	-0.9664807216	-0.097928
C	 2.5568542945	 1.1351458557	-0.0037677786	-0.302449
H	-0.9361608025	 1.626601666	 0.2353513834	 0.071529
H	 0.2039064911	 3.3258521127	 1.413080107	 0.108528
H	 1.939664653	 3.2090455674	 1.7352395297	 0.108426
H	 0.6635201994	 4.8670038487	-0.4536064264	 0.107389
H	 2.406309993	 4.6038163834	-0.2862755168	 0.115659
H	 0.5479670044	 2.8890853215	-1.9459817737	 0.09003
H	 4.1563968915	 1.3402630951	-1.5261633926	 0.118454
H	 4.0008686964	 2.7269759462	-0.4289333962	 0.093875
H	 3.010928465	 1.0209025253	 0.9842036469	 0.105222
H	 2.3531692383	 0.1394385129	-0.4053871451	 0.137565
66.5919	81.4492	216.3612	240.7701	269.8613	354.2316	422.6139	491.8657	580.2857	657.1812	722.3929	737.8996	811.4722	825.9226	866.0507	908.8062	959.9908	972.6514	974.1601	996.812	1021.3177	1061.9642	1093.0592	1155.0113	1171.7121	1208.2695	1229.909	1234.0507	1249.0125	1262.3816	1271.873	1277.0238	1338.2204	1354.0876	1394.1465	1430.7594	1470.1471	1484.9105	1491.8265	1524.042	1816.1545	2849.7898	2987.6713	3051.9477	3066.6929	3069.2292	3083.127	3099.7438	3101.5817	3119.3964	3126.0112
O=CC12CCC1OCC2	O=C[C@]12CC[C@H]1OCC2	
InChI=1S/C7H10O2/c8-5-7-2-1-6(7)9-4-3-7/h5-6H,1-4H2	InChI=1S/C7H10O2/c8-5-7-2-1-6(7)9-4-3-7/h5-6H,1-4H2/t6-,7-/m1/s1
