16
gdb 126705	2.08687	1.86318	1.06654	6.236	66.42	-0.2343	0.0235	0.2578	1099.994	0.124892	-471.234028	-471.225471	-471.224527	-471.26762	31.111	
C	-0.0662342646	 1.572360968	-0.1469651079	-0.385923
C	-0.045672299	 0.0575264394	 0.0623723492	-0.169699
N	-1.3689796156	-0.5470199539	 0.002014143	-0.175741
C	-2.104913443	-0.8918926439	 1.1339135147	 0.510852
O	-1.7659275275	-0.8353203417	 2.2845310255	-0.408199
O	-3.3108259674	-1.3141147772	 0.672279324	-0.239864
N	-3.3413226652	-1.2500844008	-0.7564533706	-0.220092
C	-2.179072002	-0.7740750268	-1.0800537573	 0.451421
N	-1.805404902	-0.4549024822	-2.3670807024	-0.591028
H	 0.9511383347	 1.9697959397	-0.0854261269	 0.127476
H	-0.4802857244	 1.8300459661	-1.1253433479	 0.138939
H	-0.6711301199	 2.0557847189	 0.62481174	 0.146803
H	 0.6032840966	-0.4328948207	-0.6722132768	 0.112251
H	 0.3374112181	-0.1928937432	 1.0549045236	 0.1604
H	-2.4880722284	-0.7768670106	-3.0418573303	 0.276748
H	-0.8696117204	-0.7467734911	-2.61793569	 0.265654
62.3332	104.6056	172.6731	211.4823	276.3283	298.5388	353.4925	360.7715	408.2958	592.2117	617.3542	650.8314	720.8049	736.9447	778.6916	785.878	799.8575	934.189	967.5041	1036.1648	1103.4481	1138.5829	1158.744	1219.7746	1311.7643	1360.7762	1389.1945	1413.8377	1480.3925	1491.8422	1506.417	1547.8319	1625.0139	1688.7255	1878.5465	3040.9891	3048.3357	3106.4147	3123.9503	3134.1033	3543.5246	3640.2359
CCN1C(=O)ON=C1N	CCn1c(=O)onc1N	
InChI=1S/C4H7N3O2/c1-2-7-3(5)6-9-4(7)8/h2H2,1H3,(H2,5,6)	InChI=1S/C4H7N3O2/c1-2-7-3(5)6-9-4(7)8/h2H2,1H3,(H2,5,6)
