21
gdb 63190	3.17709	1.50314	1.4253	0.9176	89.17	-0.2066	-0.0278	0.1787	1043.2454	0.18214	-349.859691	-349.851691	-349.850746	-349.891424	33.101	
C	 0.0652277393	 1.510085299	-0.1252451016	-0.430324
C	-0.0371044177	-0.0201068302	-0.0310087025	 0.269714
C	-1.5123094832	-0.4539948452	-0.0030825708	-0.425243
C	 0.8394690536	-0.6444755572	-1.1305019492	-0.14111
C	 1.6042093917	-1.6268691422	-0.6165044269	 0.034693
C	 3.0123086931	-1.2256831516	-0.158146214	-0.261514
C	 2.2559823996	-1.0009362706	 1.2064669987	-0.085341
C	 1.1755294074	-1.9722080953	 0.8241570473	-0.119044
C	 0.719678939	-0.6094672277	 1.1900901688	-0.056781
H	 1.1088707417	 1.8372801498	-0.1606571454	 0.116549
H	-0.4438132488	 1.8898251973	-1.017796147	 0.112382
H	-0.4027768661	 1.9749356575	 0.7499648751	 0.112487
H	-2.0235282148	-0.1322205036	-0.9164916687	 0.112762
H	-1.5998333138	-1.5418022936	 0.0676404296	 0.118512
H	-2.0410073921	-0.0127898262	 0.8501280361	 0.106305
H	 1.1832400043	-0.0197919882	-1.9520274055	 0.088071
H	 3.7388621122	-2.0354610001	-0.0221897205	 0.103454
H	 3.4796662258	-0.3807857513	-0.6724533206	 0.098466
H	 2.7673750915	-0.9628481839	 2.1660316756	 0.08765
H	 0.9209699728	-2.937719718	 1.2405382378	 0.086114
H	 0.3388039245	-0.4083862789	 2.1917268639	 0.072198
133.1736	220.7367	223.1363	258.0666	314.7843	337.7672	378.7911	457.4109	533.9619	574.6649	637.3777	709.0256	760.0524	786.3683	801.1892	850.326	875.8806	891.7059	925.213	947.2257	962.306	973.6527	998.1159	1015.313	1036.4708	1045.6112	1058.221	1091.0865	1129.7258	1175.7693	1203.6502	1215.6898	1229.1428	1233.4573	1273.1431	1302.5117	1366.6126	1392.4893	1415.4806	1483.0893	1483.4942	1497.9112	1501.6293	1506.0333	1593.9894	3023.3094	3024.7213	3027.8322	3089.2947	3089.4883	3094.3324	3103.8241	3109.4401	3110.6318	3131.8924	3146.8514	3197.0851
CC1(C)C=C2CC3C2C13	CC1(C)[CH][C]2C[C@@H]3[C@H]2[C@H]13	
InChI=1S/C9H12/c1-9(2)4-5-3-6-7(5)8(6)9/h4,6-8H,3H2,1-2H3	InChI=1S/C9H12/c1-9(2)4-5-3-6-7(5)8(6)9/h4,6-8H,3H2,1-2H3/t6-,7+,8-/m1/s1
