23
gdb 122983	4.37796	0.59983	0.57452	2.3266	83.4	-0.2447	0.0782	0.3229	2007.8724	0.203016	-425.400801	-425.38992	-425.388975	-425.437809	39.101	
C	 0.1005381419	 1.591240513	 0.3618279378	-0.456516
C	-0.0386833054	 0.1174264317	 0.0451701598	 0.456356
C	 1.1351450843	-0.6540072662	-0.5116243881	-0.318072
C	 0.6493741266	-0.8975238395	 0.9054352102	-0.311785
O	-1.3144014577	-0.2860245252	-0.377107984	-0.290018
C	-1.6887997008	 0.1525727342	-1.6727496785	-0.076534
C	-2.9963422432	-0.5361816386	-2.0393050964	-0.179752
C	-3.5151599519	-0.1199910083	-3.4091124189	-0.072552
O	-4.7267746454	-0.8211921479	-3.6438254091	-0.419567
H	 1.0908460422	 1.8045824985	 0.7739301895	 0.116301
H	-0.0260253906	 2.2148780675	-0.5295971874	 0.116879
H	-0.6505281066	 1.8941673641	 1.0990700666	 0.12429
H	 0.9204933342	-1.4244204733	-1.2435931784	 0.11505
H	 2.0782073704	-0.1382180794	-0.6586377791	 0.108939
H	 1.2570747674	-0.5475431988	 1.7327601092	 0.108537
H	 0.1087091289	-1.8181414809	 1.0910751784	 0.122474
H	-1.8165675485	 1.2465126695	-1.6934615217	 0.087329
H	-0.8995843592	-0.0956946506	-2.4003319769	 0.086127
H	-2.8525672137	-1.6217168865	-2.0235374646	 0.113088
H	-3.7532008473	-0.3028446062	-1.2829130611	 0.11624
H	-3.6756793137	 0.9707135127	-3.4339571931	 0.084297
H	-2.7642325152	-0.3538698552	-4.1822078338	 0.08381
H	-5.0615093266	-0.5612671649	-4.5068806403	 0.285079
42.5376	61.6964	102.5856	119.8983	147.9776	217.025	237.0745	266.5133	287.5793	329.5571	394.2129	413.304	456.4839	546.2241	721.7751	779.1233	780.2745	857.1957	890.357	921.066	931.4206	957.5162	1030.4458	1034.8707	1053.0098	1061.4795	1076.5892	1089.1724	1112.7514	1136.396	1178.8011	1189.6156	1230.6935	1244.6451	1288.8421	1303.5845	1306.5356	1319.4429	1339.7564	1413.2189	1433.9631	1453.8288	1467.6048	1484.6957	1492.0132	1499.3036	1507.6213	1523.8283	1535.3441	2954.6887	2970.8775	2978.959	2998.1368	3033.6296	3051.0383	3096.0168	3097.3743	3113.0253	3132.1963	3138.7534	3216.738	3232.5119	3830.2066
CC1(CC1)OCCCO	CC1(CC1)OCCCO	
InChI=1S/C7H14O2/c1-7(3-4-7)9-6-2-5-8/h8H,2-6H2,1H3	InChI=1S/C7H14O2/c1-7(3-4-7)9-6-2-5-8/h8H,2-6H2,1H3
