20
gdb 108769	2.89469	1.10915	0.87278	3.8264	84.06	-0.2119	-0.0459	0.1659	1370.1797	0.172102	-403.179477	-403.170516	-403.169572	-403.213676	33.338	
C	-0.186645829	 1.5528528351	 0.0208962521	-0.376695
C	 0.0580216666	 0.0312739758	 0.0177665953	-0.275497
C	 0.781420003	-0.4463684544	-1.2145179146	 0.307905
C	 2.0874257343	-0.7660518219	-1.2113510576	-0.262089
C	 2.7730080398	-1.3159624877	-2.394380017	 0.36465
O	 3.9501612448	-1.6209950571	-2.3865231183	-0.333667
C	 1.8873920213	-1.5325667443	-3.6243982896	-0.283498
N	 0.7540505208	-0.6131462325	-3.724647835	-0.290954
C	-0.0263182477	-0.5715806285	-2.4921577963	-0.26546
H	 0.7614652416	 2.0978745971	-0.0067123837	 0.129521
H	-0.7828348209	 1.8712770614	-0.8397790811	 0.122372
H	-0.7250607548	 1.8507050079	 0.9252635253	 0.123981
H	 0.6317920464	-0.2447630549	 0.9082428013	 0.114068
H	-0.9088341068	-0.485133397	 0.0891018742	 0.110825
H	 2.6926467496	-0.6773359886	-0.312447347	 0.095651
H	 2.508098831	-1.4666618753	-4.5214868448	 0.12801
H	 1.5016757063	-2.5622464872	-3.5783672348	 0.126749
H	 1.1116937367	 0.3195901568	-3.9092545116	 0.222013
H	-0.6317473896	-1.4907619596	-2.4257481877	 0.125938
H	-0.7482044135	 0.2495138751	-2.563597499	 0.116176
58.7549	94.1643	133.7718	195.8206	249.3087	280.4474	312.9397	437.377	470.0456	477.121	548.8248	564.6116	650.8517	782.4879	790.3944	853.9803	888.0869	896.0446	941.9812	953.848	987.2568	1061.9582	1079.7386	1098.0538	1155.2224	1166.2231	1201.3105	1260.4534	1269.5454	1317.1673	1326.0213	1344.2908	1355.3804	1388.213	1408.8095	1451.7578	1466.0556	1483.8126	1497.7135	1499.1343	1506.9204	1683.6509	1775.0919	2979.0017	3004.6165	3019.6501	3040.6836	3061.5994	3073.1603	3103.4469	3112.2879	3117.1903	3161.9855	3505.7097
CCC1=CC(=O)CNC1	CCC1=CC(=O)CNC1	
InChI=1S/C7H11NO/c1-2-6-3-7(9)5-8-4-6/h3,8H,2,4-5H2,1H3	InChI=1S/C7H11NO/c1-2-6-3-7(9)5-8-4-6/h3,8H,2,4-5H2,1H3
