17
gdb 65065	2.32207	1.57834	1.22139	1.2064	74.22	-0.2549	0.0167	0.2716	1073.578	0.132634	-421.746295	-421.737366	-421.736421	-421.779724	34.11	
O	 0.1021455969	 1.1722312869	 0.7784157773	-0.460068
C	 0.0862871821	-0.0573847589	 0.1105851224	 0.311364
C	 0.9557017041	-0.1521660688	-1.0991860738	-0.314954
C	 1.3174614694	-0.9247814671	 0.1565747759	-0.317967
C	-1.2759835367	-0.7158036769	 0.1172251185	 0.157377
C	-2.2052360309	-0.5353561444	-1.0152146301	-0.210824
O	-1.4797555608	-1.7550066859	-0.8492113796	-0.268267
C	-1.8021221653	-0.9606115749	 1.4427953404	 0.272158
C	-2.183088751	-1.1231592002	 2.5717462502	-0.410559
H	-0.0828979108	 0.9976211	 1.7095810678	 0.286682
H	 0.5901438289	-0.7184335039	-1.9472901201	 0.130311
H	 1.539516624	 0.7297315028	-1.3347606131	 0.123209
H	 2.1472589788	-0.5588313125	 0.750266225	 0.116912
H	 1.1896297295	-2.0013688312	 0.1419614677	 0.127671
H	-3.2770829113	-0.6059654112	-0.8443267324	 0.127282
H	-1.8889573132	 0.0891335167	-1.8483516821	 0.126954
H	-2.5423868439	-1.2828517202	 3.5586647559	 0.20272
64.1082	127.2825	177.3329	240.5774	246.4868	318.1702	359.5903	368.1384	441.8255	487.6302	541.7913	585.9705	599.3175	622.8949	677.1572	778.3783	823.9292	881.1016	907.5515	915.8154	951.2258	974.0474	995.4528	1052.3292	1088.6835	1130.8696	1148.6484	1171.0664	1195.2387	1270.3273	1302.6089	1366.2878	1400.9897	1442.5193	1496.4764	1515.4221	2233.5822	3095.0922	3137.9449	3146.3878	3191.9829	3227.8964	3243.2835	3499.3037	3777.0508
OC1(CC1)C1(CO1)C#C	OC1(CC1)[C@]1(CO1)C#C	
InChI=1S/C7H8O2/c1-2-7(5-9-7)6(8)3-4-6/h1,8H,3-5H2	InChI=1S/C7H8O2/c1-2-7(5-9-7)6(8)3-4-6/h1,8H,3-5H2/t7-/m1/s1
