19
gdb 95972	2.2863	1.54209	1.17248	3.2254	71.07	-0.2499	-0.0299	0.22	1122.9468	0.15865	-460.181447	-460.172369	-460.171425	-460.216079	32.927	
C	 0.1297689517	 1.3821198471	-0.2553985593	-0.477292
C	 0.1000825731	-0.118786802	-0.0524313751	 0.410213
O	 1.1245664492	-0.7726064389	-0.0217355467	-0.328418
C	-1.2696466285	-0.7597801272	 0.114078686	-0.182308
C	-1.8923049977	-1.0661870543	-1.2650489847	-0.089655
O	-1.2869562228	-2.2703909893	-1.6908901769	-0.247256
C	-1.0495397643	-3.0890841892	-0.5464259971	-0.099083
C	-1.2072289351	-2.1946637252	 0.7153691468	 0.108089
O	-0.2426091527	-2.4109562016	 1.7108502414	-0.442824
H	 1.1301701821	 1.7002497596	-0.5504585931	 0.148621
H	-0.6050938561	 1.7022489644	-1.0005852292	 0.139708
H	-0.1402071046	 1.8733732101	 0.6875477551	 0.150988
H	-1.9133049751	-0.091040377	 0.6936523935	 0.090622
H	-2.9842260637	-1.1756997019	-1.1563971928	 0.097723
H	-1.703869265	-0.3041563963	-2.0274032486	 0.114948
H	-1.7532106523	-3.9318134915	-0.5316561576	 0.097865
H	-0.0314624479	-3.4858276313	-0.6070255189	 0.117403
H	-2.1705611466	-2.3994316112	 1.1934478101	 0.095034
H	 0.6044803863	-2.1560166944	 1.3165714373	 0.295624
50.7894	79.4873	124.4793	135.1757	225.5895	273.7202	304.7699	410.4718	471.0806	533.3334	585.7096	606.2671	684.2774	704.933	806.8865	852.3007	933.916	967.4727	970.8377	978.1862	1022.3533	1054.316	1101.6572	1127.7109	1144.6387	1189.0919	1206.6766	1223.8589	1245.0711	1281.6104	1328.2457	1354.4251	1373.337	1388.3802	1403.3707	1461.4922	1467.2403	1475.1526	1509.8951	1520.6807	1781.1708	2964.2189	3013.7956	3036.754	3052.8637	3071.5578	3077.4713	3083.5439	3100.2799	3155.2833	3723.6539
CC(=O)C1COCC1O	CC(=O)[C@H]1COC[C@H]1O	
InChI=1S/C6H10O3/c1-4(7)5-2-9-3-6(5)8/h5-6,8H,2-3H2,1H3	InChI=1S/C6H10O3/c1-4(7)5-2-9-3-6(5)8/h5-6,8H,2-3H2,1H3/t5-,6-/m1/s1
