21
gdb 79340	3.19454	1.4853	1.38465	1.4595	80.88	-0.2253	0.0952	0.3205	1059.5687	0.184258	-387.101806	-387.094016	-387.093071	-387.133472	31.883	
C	-0.0557725287	 1.5533155868	-0.0077613606	-0.413589
C	 0.0163254005	 0.0282953639	-0.0114975233	 0.0223
C	 0.9237065626	-0.566906534	-1.0871216066	-0.16266
C	 2.2789071867	-0.6645582216	-0.4179771146	 0.052294
O	 2.1628578703	-0.1832256841	 0.908550306	-0.262059
C	 0.80786978	-0.5895278096	 1.1732489393	 0.041022
C	 0.8272964163	-2.0903741867	 0.8197024869	-0.281463
C	 1.4422505359	-1.9155235368	-0.568295631	 0.287446
C	 1.8074325192	-3.0690705807	-1.4599995316	-0.502219
H	 0.9414562384	 1.9836732784	 0.1167758099	 0.132918
H	-0.4762522899	 1.9296890488	-0.9462176673	 0.109119
H	-0.6894248904	 1.9165641401	 0.8088099909	 0.107703
H	-0.9911611392	-0.4015893822	-0.0515131021	 0.069191
H	 0.8053226676	-0.3584096851	-2.1429728623	 0.080004
H	 3.2375687579	-0.4857144809	-0.8848420451	 0.09706
H	 0.5264839299	-0.2962226263	 2.1831190219	 0.075365
H	 1.4684447326	-2.6675059043	 1.4933556093	 0.099058
H	-0.1731133523	-2.5336202203	 0.8034838272	 0.09608
H	 0.9221252171	-3.6418778912	-1.7602239389	 0.117319
H	 2.2992959109	-2.7230806945	-2.3753509042	 0.11564
H	 2.4943152946	-3.7585974297	-0.9553775939	 0.11947
179.5801	212.7036	218.6376	221.1248	270.8202	324.5341	433.358	497.6885	564.4969	603.2177	704.8519	723.1797	764.307	857.8193	867.2336	889.2051	916.4885	934.32	950.9487	963.6447	989.5974	1024.375	1033.8516	1041.8507	1064.9195	1078.8892	1117.7564	1135.1912	1161.0196	1181.4172	1239.9612	1245.9068	1264.841	1276.0603	1302.1757	1340.1175	1375.3364	1405.3406	1417.2446	1424.8998	1488.3872	1490.7866	1496.0298	1501.6337	1502.8364	3020.4068	3032.6857	3041.4198	3050.8957	3079.0571	3090.9153	3093.8861	3099.1812	3120.7639	3141.9455	3193.4366	3216.7618
CC1C2C3OC1CC23C	C[C@H]1[C@H]2[C@H]3O[C@@H]1C[C@@]23C	
InChI=1S/C8H12O/c1-4-5-3-8(2)6(4)7(8)9-5/h4-7H,3H2,1-2H3	InChI=1S/C8H12O/c1-4-5-3-8(2)6(4)7(8)9-5/h4-7H,3H2,1-2H3/t4-,5-,6+,7-,8+/m1/s1
