15
gdb 53897	1.96591	1.74694	0.92682	3.5605	74.02	-0.2167	-0.0095	0.2072	1174.4112	0.11274	-450.209037	-450.199357	-450.198413	-450.243945	34.659	
N	 1.0605719121	-0.5236401972	 0.8775158871	-0.552599
C	-0.0140621946	 0.0142308669	 0.2722874483	 0.388563
N	 0.0706429781	 1.3181234458	-0.1186277209	-0.573239
H	-0.7840769535	 1.7566897489	-0.4275056337	 0.284968
H	 0.7024398121	 1.9179929979	 0.3875217183	 0.26205
C	-1.1724465971	-0.7390917849	 0.0410884472	-0.097841
C	-2.3036057107	-0.0827906478	-0.4861102146	 0.187637
N	-3.2367024917	 0.4598750712	-0.9221639281	-0.39978
C	-1.2086962877	-2.180632417	 0.3161149659	 0.407421
N	-2.3705434945	-2.8219246724	 0.0173256173	-0.564472
O	-0.2520544953	-2.8047816112	 0.7944977011	-0.437183
H	 1.9608728257	-0.0922831226	 0.7503713047	 0.255983
H	 0.9835759459	-1.5367852418	 1.0163614045	 0.301626
H	-3.1615751353	-2.3475879867	-0.382426434	 0.275529
H	-2.4198214935	-3.8090780092	 0.1998412768	 0.261336
47.0093	98.1485	138.1088	142.0781	197.1026	251.1915	349.7924	413.2013	416.9156	427.8971	497.3325	516.167	537.6997	552.1804	590.6668	622.0154	701.448	712.3808	760.448	806.3753	1068.0074	1089.0885	1120.0185	1169.5626	1260.2543	1401.9292	1479.8045	1544.0484	1614.6222	1645.6054	1677.0807	1720.528	2290.7888	3321.5663	3580.8402	3612.0326	3670.7973	3693.4274	3748.9443
NC(=[NH2+])[C-](C#N)C(N)=O	NC(=[NH2])[C](C#N)C(=O)N	
InChI=1S/C4H5N4O/c5-1-2(3(6)7)4(8)9/h(H3,6,7)(H2,8,9)/q-1/p+1	InChI=1S/C4H6N4O/c5-1-2(3(6)7)4(8)9/h6-7H2,(H2,8,9)
