18
gdb 30129	3.61044	1.08635	1.05632	1.2483	77.17	-0.2326	0.0057	0.2383	1216.3041	0.148835	-401.970277	-401.962224	-401.96128	-402.003774	30.12	
C	-0.0659781466	 1.5361034367	-0.1798368039	-0.407887
C	-0.0160452582	 0.0371018722	 0.0015633995	 0.022819
C	 1.2624921629	-0.7279322308	-0.2189559765	-0.309111
C	 0.7044858741	-0.607996793	 1.1800011986	-0.131683
C	 1.3820294984	 0.188712828	 2.2188454853	 0.262248
C	 2.6207638073	 0.7438706693	 2.2480966958	-0.122208
O	 2.7814441151	 1.3873442424	 3.4462340596	-0.141105
C	 1.6140779823	 1.1745021153	 4.0913279074	 0.07338
N	 0.7483121927	 0.4808587008	 3.4320919249	-0.308512
H	 0.8571711605	 2.0092915676	 0.1670719426	 0.116987
H	-0.2009041504	 1.7969777603	-1.2352219692	 0.115129
H	-0.8954212804	 1.9756951737	 0.3844386432	 0.124143
H	-0.9265283344	-0.4788960917	-0.2914447347	 0.088187
H	 1.2265362871	-1.6985478477	-0.7008943852	 0.113083
H	 2.1489887482	-0.1495703473	-0.4601851663	 0.10926
H	 0.2139690093	-1.4896416688	 1.5816713243	 0.100988
H	 3.4581928032	 0.7738602442	 1.5737612532	 0.14509
H	 1.5222557489	 1.5981971188	 5.0793144314	 0.149192
39.7914	109.2387	168.7848	212.3642	276.4924	351.1115	421.0671	503.0681	619.9755	647.2397	729.3975	768.1876	785.9848	846.9462	852.9471	878.8678	926.7892	936.4026	983.8448	1029.3439	1077.201	1087.8831	1098.0934	1110.5824	1142.5144	1147.0169	1196.2555	1205.4731	1235.0942	1258.4247	1340.5111	1389.3682	1415.2495	1422.8951	1488.078	1494.8338	1501.966	1562.1217	1629.051	3032.1157	3092.8893	3106.7982	3130.2086	3140.7243	3152.6802	3213.3872	3273.5212	3298.373
CC1CC1C1=COC=N1	C[C@H]1C[C@H]1c1cocn1	
InChI=1S/C7H9NO/c1-5-2-6(5)7-3-9-4-8-7/h3-6H,2H2,1H3	InChI=1S/C7H9NO/c1-5-2-6(5)7-3-9-4-8-7/h3-6H,2H2,1H3/t5-,6+/m0/s1
