15
gdb 28660	5.66489	0.98619	0.83996	1.6706	87.77	-0.2133	-0.0171	0.1962	1288.0188	0.113351	-383.53102	-383.523377	-383.522433	-383.562909	30.066	
O	 0.0644372449	 1.377238995	 0.1214461282	-0.438471
C	 0.0588063491	 0.0195195714	 0.0383295019	 0.387146
C	 0.0798936778	-0.6621414621	-1.1805552617	-0.245553
C	 0.0728267842	-2.0499008117	-1.2018728955	-0.181935
C	 0.0445938825	-2.788274241	-0.0093592562	 0.145191
C	 0.0236410617	-2.0853603015	 1.2083543738	-0.187858
C	 0.0305814927	-0.7008142413	 1.2353866876	-0.175345
C	 0.0373523899	-4.2116161049	-0.0317250959	 0.217865
C	 0.0312079799	-5.416291767	-0.050825092	-0.42402
H	 0.084685739	 1.7487901239	-0.7666880011	 0.299127
H	 0.1018595833	-0.1049396111	-2.113523667	 0.089149
H	 0.0892519195	-2.5753592016	-2.1497823706	 0.108352
H	 0.0017458077	-2.6429433973	 2.1376885315	 0.108495
H	 0.0144773671	-0.1567720161	 2.1726774682	 0.10879
H	 0.0257603707	-6.4776638946	-0.067109441	 0.189067
105.6794	145.6794	259.8911	383.5451	397.4636	416.8766	421.6539	459.0606	531.5456	542.5434	570.9648	642.3931	659.0811	714.3069	740.5995	823.6771	849.972	856.5299	935.2642	964.0185	1024.574	1121.7857	1190.8881	1196.9461	1228.9148	1307.8854	1315.2607	1365.7087	1459.7486	1542.6726	1617.1848	1653.5876	2224.0306	3158.1374	3192.25	3200.6951	3207.8849	3504.783	3821.8647
OC1=CC=C(C=C1)C#C	Oc1ccc(cc1)C#C	
InChI=1S/C8H6O/c1-2-7-3-5-8(9)6-4-7/h1,3-6,9H	InChI=1S/C8H6O/c1-2-7-3-5-8(9)6-4-7/h1,3-6,9H
