17
gdb 66203	2.33865	1.54789	1.40594	2.2064	73.88	-0.2499	0.0226	0.2725	1021.277	0.136596	-417.97225	-417.963754	-417.962809	-418.005031	32.285	
N	-0.0288844139	 1.4502936166	 0.0771015412	-0.532998
C	 0.0308968869	-0.0170892263	-0.0326067871	-0.018192
C	 0.7341839667	-0.5469028124	 1.2315469661	-0.071228
O	 0.6812802899	-1.9713873659	 1.3097991858	-0.221692
C	-0.4915511406	-2.5308744034	 0.9231516911	 0.137174
N	-1.4864152175	-1.9930951718	 0.3605021753	-0.268302
C	-1.4090151298	-0.5833834216	 0.0090757489	-0.165653
C	 0.7354892571	-0.4732984924	-1.2386763852	 0.359227
C	 1.324105535	-0.803298928	-2.234304986	-0.504721
H	 0.8962359114	 1.8362982368	-0.0983700761	 0.234824
H	-0.6165998237	 1.811437007	-0.6709207308	 0.237987
H	 1.793101458	-0.2800536793	 1.2456000822	 0.120501
H	 0.2402354024	-0.1075379356	 2.1053102599	 0.124856
H	-0.4901661196	-3.592593475	 1.1604851884	 0.126591
H	-1.9806536262	 0.0097574756	 0.7335654916	 0.124688
H	-1.888335926	-0.4478134158	-0.9665552933	 0.115395
H	 1.8382028698	-1.1031561786	-3.1140918419	 0.201544
108.7986	131.9129	193.6169	221.9785	235.4136	314.5953	386.5429	430.4367	472.0425	502.7057	591.7048	610.8523	635.9034	646.621	709.4994	844.8979	903.5734	932.2682	950.6137	968.8927	985.7392	1018.5749	1066.4898	1142.5151	1164.7009	1192.3364	1240.1426	1303.5647	1323.7877	1356.749	1395.0257	1413.2863	1481.1919	1504.9011	1662.4857	1740.6588	2224.4309	3029.3268	3047.3016	3068.8846	3114.4126	3166.8287	3474.9883	3499.429	3548.0112
NC1(COC=NC1)C#C	N[C@]1(COC=NC1)C#C	
InChI=1S/C6H8N2O/c1-2-6(7)3-8-5-9-4-6/h1,5H,3-4,7H2	InChI=1S/C6H8N2O/c1-2-6(7)3-8-5-9-4-6/h1,5H,3-4,7H2/t6-/m1/s1
