14
gdb 33697	4.08736	1.47577	1.38005	4.2357	69.04	-0.2558	0.0102	0.266	916.9215	0.102866	-399.503416	-399.497347	-399.496402	-399.533909	24.609	
N	-0.0837706808	-1.133848831	-0.0590894932	-0.354322
C	-0.0298278483	 0.022443875	-0.0106863315	 0.140427
C	 0.0323118074	 1.4360805776	 0.040896569	 0.231706
C	-0.9904439376	 2.3541104171	 0.7393790446	 0.019299
O	-0.3516675527	 3.3381743719	 1.4807476673	-0.213996
C	 0.7800004121	 3.5905760169	 0.6947264595	 0.077802
C	 0.5004538461	 3.3926338868	-0.7826394385	-0.12896
C	 1.2817773365	 2.3408008634	-0.0004949207	-0.209187
C	-0.7569595414	 2.5062768687	-0.7409443846	-0.18083
H	-1.9026155382	 1.965111987	 1.1691936236	 0.140693
H	 1.4369072076	 4.3567129906	 1.0813314248	 0.127123
H	 0.8060256291	 4.0544653427	-1.5793307309	 0.110851
H	 2.3097093116	 2.0165306281	-0.0652428259	 0.117367
H	-1.5019199713	 2.3679137053	-1.5107632735	 0.122027
145.0231	162.3762	474.0951	500.4363	525.9082	584.1693	631.4714	718.3116	756.0334	760.9122	769.8077	836.2023	856.475	882.3728	923.2519	939.5843	990.9164	997.7139	1024.7163	1029.7674	1040.5988	1090.0136	1120.0666	1141.1858	1207.7831	1233.3626	1252.3701	1284.4444	1372.2951	1404.3985	2341.0433	3222.715	3227.2531	3229.9704	3234.8748	3240.8593
N#CC12C3OC4C(C14)C23	N#C[C@@]12[C@H]3O[C@@H]4[C@@H]([C@H]14)[C@@H]23	
InChI=1S/C7H5NO/c8-1-7-3-2-4(7)6(7)9-5(2)3/h2-6H	InChI=1S/C7H5NO/c8-1-7-3-2-4(7)6(7)9-5(2)3/h2-6H/t2-,3-,4+,5+,6-,7+/m0/s1
