17
gdb 40523	3.26887	1.3841	1.18155	1.4044	67.81	-0.2495	0.0442	0.2936	1063.224	0.13557	-458.884756	-458.877139	-458.876195	-458.917403	28.524	
C	 0.2520415013	 1.453079183	 0.0285170984	-0.181733
O	 1.2227141862	 0.4339288747	-0.2101049518	-0.228122
C	-0.1429291783	 0.0402079918	-0.06457508	-0.023605
C	-0.480971963	-0.7587676221	 1.1509248144	 0.40086
C	 0.2898406608	-0.5791145967	 2.4709790023	-0.137739
O	 0.3709904006	-2.0174587756	 2.6556382471	-0.290755
C	-0.2811580218	-2.27426717	 1.4039068786	 0.00019
C	-1.8108175542	-2.3267622001	 1.515319685	-0.104105
O	-1.907169077	-0.8860440771	 1.3395360162	-0.338206
H	 0.3086617729	 1.9340834849	 1.0037418141	 0.121893
H	 0.054330897	 2.1184579612	-0.8097100546	 0.125962
H	-0.6224260243	-0.3004363374	-0.9823499876	 0.102385
H	 1.2867225937	-0.1391316982	 2.35913401	 0.120831
H	-0.2713006763	-0.080826746	 3.2681704067	 0.111819
H	 0.2502744771	-2.9924643267	 0.7772819706	 0.096294
H	-2.3232214975	-2.8573713651	 0.7031531125	 0.107035
H	-2.1928682372	-2.6616761306	 2.4848778682	 0.116995
66.4782	130.9467	177.5514	231.1147	323.896	377.0696	431.5007	482.7631	633.4573	717.6587	834.4914	871.3283	877.025	906.7268	917.2372	970.9256	991.6094	999.9947	1039.3498	1068.536	1085.5828	1115.339	1119.2467	1154.782	1161.7005	1168.7604	1180.1417	1195.4546	1269.0877	1284.6179	1315.3942	1337.7101	1376.8641	1442.5373	1499.5907	1503.0519	1529.8126	3021.6234	3033.2305	3086.0036	3090.3288	3093.8075	3101.6811	3112.9443	3179.4989
C1OC1C12COC1CO2	C1O[C@H]1[C@]12CO[C@H]1CO2	
InChI=1S/C6H8O3/c1-4(7-1)6-3-8-5(6)2-9-6/h4-5H,1-3H2	InChI=1S/C6H8O3/c1-4(7-1)6-3-8-5(6)2-9-6/h4-5H,1-3H2/t4-,5+,6-/m1/s1
