19
gdb 86805	4.5964	0.77513	0.73647	2.286	72.7	-0.2639	0.014	0.2779	1569.4343	0.157093	-460.189327	-460.179649	-460.178705	-460.225546	34.393	
C	 0.0480688115	 1.4075236721	-0.2217010192	-0.479361
C	-0.0550061098	-0.0850555373	-0.0195314442	 0.422147
O	-0.3770695813	-0.6356741997	 1.002476049	-0.352011
O	 0.2667838932	-0.7432417919	-1.1572330111	-0.250732
C	 0.2207566737	-2.1716850384	-1.0903975539	 0.165929
C	-1.1471792456	-2.8571737642	-1.3090302651	-0.292258
C	-0.4136183086	-3.8768414887	-2.2261791138	 0.162957
O	-1.0452806829	-4.3674178263	-3.3782411494	-0.428237
C	 0.7587657925	-2.8614382838	-2.3567004187	-0.311819
H	-0.1866022376	 1.9172299844	 0.7118389225	 0.148746
H	 1.0555174979	 1.6741609038	-0.5528790657	 0.149727
H	-0.6459151354	 1.7272533772	-1.0045151727	 0.148566
H	 0.7038890006	-2.4999521522	-0.1688727777	 0.106867
H	-1.692014412	-3.2197035649	-0.4368360034	 0.119873
H	-1.7998249572	-2.2079169609	-1.903400519	 0.098898
H	-0.1062831153	-4.762193872	-1.6629948472	 0.099167
H	-1.3395037505	-3.6142648883	-3.9014428258	 0.277325
H	 0.608605749	-2.2121143781	-3.2259896338	 0.10519
H	 1.7849605778	-3.2332875009	-2.3579906705	 0.109025
35.5967	53.1265	74.5164	115.2611	189.9767	293.8415	324.6528	342.1989	431.2021	440.7211	472.7201	570.9742	611.7867	671.5073	791.1053	800.8313	906.8854	915.8946	956.3699	1008.4951	1025.8225	1063.9348	1066.8701	1076.5023	1087.8427	1163.7215	1188.7701	1201.2291	1249.3607	1263.3808	1265.7899	1297.4142	1337.4417	1385.4377	1403.036	1444.1568	1464.2976	1469.2698	1476.039	1493.8183	1823.7854	3050.3719	3056.439	3057.0578	3078.9964	3099.4699	3121.7255	3123.9369	3135.4273	3169.2916	3807.545
CC(=O)OC1CC(O)C1	CC(=O)O[C@H]1C[C@@H](O)C1	
InChI=1S/C6H10O3/c1-4(7)9-6-2-5(8)3-6/h5-6,8H,2-3H2,1H3	InChI=1S/C6H10O3/c1-4(7)9-6-2-5(8)3-6/h5-6,8H,2-3H2,1H3/t5-,6+
