22
gdb 105197	1.82581	1.57113	1.03918	2.7627	83.74	-0.2288	-0.0131	0.2157	1281.8984	0.191237	-404.34476	-404.334224	-404.33328	-404.380275	38.498	
C	 1.818420483	-1.5523774476	 0.7654004806	-0.384032
C	 0.6148266096	-0.665104085	 0.4188234304	-0.254849
C	 0.6664801196	-0.1137797992	-0.9991386486	 0.202298
C	 0.3318355793	-1.0301561218	-2.1483290927	-0.284812
N	-0.5499837774	 0.0667051955	-1.8292103376	-0.118624
C	-1.867480748	-0.2276067279	-1.2854532072	-0.317709
C	 1.6822896603	 0.9957902774	-1.2027798338	 0.365909
C	 1.8099614706	 1.6148733535	-2.5807416304	-0.495745
O	 2.3670309902	 1.3699098266	-0.274131592	-0.311605
H	 1.8810363275	-2.4162374192	 0.0946141176	 0.106957
H	 2.749935472	-0.9881498466	 0.6894144741	 0.143788
H	 1.7334791764	-1.9305084882	 1.7889635021	 0.110895
H	-0.3051753241	-1.2399574063	 0.5556886446	 0.09088
H	 0.5767512736	 0.1772626883	 1.1165491739	 0.116872
H	 0.8621424571	-0.9721279187	-3.0955576373	 0.115622
H	 0.0221589667	-2.0369179893	-1.8653248477	 0.112538
H	-1.9376301745	-1.1808877437	-0.7414718804	 0.109197
H	-2.1751512574	 0.5799975985	-0.6145915134	 0.131146
H	-2.5761330284	-0.2661062646	-2.1189480824	 0.129148
H	 2.3837248975	 0.9457789262	-3.2331947764	 0.13813
H	 0.8288328801	 1.7611074766	-3.0361481873	 0.156136
H	 2.3516528764	 2.5574230955	-2.4954044561	 0.137857
51.3065	106.2591	139.319	164.7361	177.1393	216.3995	232.5476	242.6992	320.4225	346.0344	423.0202	449.7247	491.6012	526.9676	601.0358	655.8762	764.7691	779.7662	858.648	908.7924	956.9633	1001.0247	1017.2108	1042.9055	1075.6036	1096.2924	1121.3964	1144.0978	1160.2894	1177.2831	1206.1132	1291.1736	1316.0159	1362.2779	1376.7555	1381.9151	1405.5672	1452.414	1466.6351	1474.4	1477.6167	1489.3529	1496.0794	1504.6284	1513.943	1515.6271	1788.078	2991.2622	3037.9648	3042.5455	3056.6131	3072.7391	3080.6678	3094.2157	3104.0995	3108.6937	3117.0935	3138.3038	3162.6362	3167.6578
CCC1(CN1C)C(C)=O	CC[C@]1(CN1C)C(=O)C	
InChI=1S/C7H13NO/c1-4-7(6(2)9)5-8(7)3/h4-5H2,1-3H3	InChI=1S/C7H13NO/c1-4-7(6(2)9)5-8(7)3/h4-5H2,1-3H3/t7-,8?/m0/s1
