17
gdb 105850	2.13008	1.62788	1.22217	1.5942	70.07	-0.2332	0.0109	0.244	1084.3499	0.135225	-455.090627	-455.081922	-455.080977	-455.124032	32.412	
C	 0.1844632008	 1.417025209	-0.2908751342	-0.335376
N	-0.1385129232	 0.0301381857	 0.0642805905	-0.380855
C	 0.553980063	-0.4660876293	 1.1842532968	 0.157722
C	 2.0208588258	-0.9465498796	 1.0731855079	 0.10352
O	 3.0768402556	-0.4919902709	 1.8417898654	-0.423081
C	 0.9996293326	-1.8918687379	 1.5727207949	-0.059684
O	 0.7755203085	-1.5926333252	 2.9797465345	-0.300277
C	 0.2261823786	-0.3419035288	 2.6409088722	 0.37947
N	-0.3901772027	 0.4849532327	 3.3494669417	-0.554405
H	 1.2499010953	 1.4867853893	-0.5295179255	 0.133819
H	-0.3811733099	 1.6939675454	-1.1847510121	 0.119925
H	-0.0364473913	 2.1406749964	 0.5061371529	 0.131479
H	-1.1397589286	-0.0760998889	 0.1889680548	 0.231093
H	 2.3015097843	-1.0715016927	 0.0311818813	 0.132045
H	 2.8865491063	-0.7321112572	 2.7579884736	 0.300935
H	 0.706290867	-2.8723095792	 1.2221007018	 0.130101
H	-0.4598601321	 0.1775262313	 4.3207542035	 0.233571
88.7194	126.1915	153.8642	178.6543	251.8813	276.3872	359.6437	400.2163	433.8751	471.0515	646.1124	654.3864	709.9857	738.4144	796.9672	832.3694	862.3165	904.7511	939.3503	962.2101	995.4702	1027.1699	1058.0068	1102.9475	1160.2053	1171.2743	1191.4442	1250.6708	1279.2534	1306.742	1398.6756	1453.5448	1480.2895	1484.0051	1494.2825	1524.2062	1826.8531	3006.0099	3082.3676	3116.7943	3168.8267	3210.6182	3481.2658	3523.084	3775.5017
CNC12C(O)C1OC2=N	CN[C@]12[C@@H](O)[C@H]1O[C]2[NH]	
InChI=1S/C5H8N2O2/c1-7-5-2(8)3(5)9-4(5)6/h2-3,6-8H,1H3	InChI=1S/C5H8N2O2/c1-7-5-2(8)3(5)9-4(5)6/h2-3,6-8H,1H3/t2-,3+,5+/m0/s1
