20
gdb 113312	2.54589	1.00716	0.82883	3.7015	81.02	-0.279	0.0269	0.3059	1460.2775	0.169659	-403.151992	-403.14184	-403.140896	-403.187579	36.392	
C	-0.2651982313	 1.5146892403	 0.1967017583	-0.377621
C	 0.21737036	 0.087586247	-0.0929230798	-0.211708
C	 0.8239960331	-0.5571207827	 1.1385291446	-0.026272
C	-0.0011356812	-1.3187681791	 2.1338010824	-0.307898
C	 1.0098989552	-2.0692952693	 1.2770195549	 0.11448
C	 0.520661811	-3.0582669395	 0.2198497278	-0.134937
O	 0.1892144966	-4.3162319347	 0.7700052037	-0.413401
C	 2.2168121842	-2.5185751389	 1.9255405892	 0.228703
N	 3.1827277633	-2.9245836893	 2.4184361467	-0.351256
H	 0.5610276304	 2.1502832946	 0.532392898	 0.122213
H	-0.6955365358	 1.9713607596	-0.6992513915	 0.119363
H	-1.0293569161	 1.5208527612	 0.9805916906	 0.123858
H	-0.6241419783	-0.5092895498	-0.4600221299	 0.10507
H	 0.9604882209	 0.1081234265	-0.8995873071	 0.110955
H	 1.6425274109	 0.0165461658	 1.5663284655	 0.109231
H	 0.2067483969	-1.2081105412	 3.1912223178	 0.137371
H	-1.0419642768	-1.5114907497	 1.8937294016	 0.131066
H	-0.3957461234	-2.6799590496	-0.2380696412	 0.115119
H	 1.2778654831	-3.1500172964	-0.5728421995	 0.107423
H	 0.9943397273	-4.7086943447	 1.1264227681	 0.298242
64.6711	79.3883	127.9508	136.6403	154.4944	232.3702	256.2752	304.3621	322.4942	364.5712	417.1015	482.09	576.2704	631.1076	695.957	779.485	811.3792	908.8953	933.0744	938.9784	955.2124	999.1485	1054.8872	1073.8025	1077.1892	1100.0249	1128.1684	1185.7881	1203.9541	1278.4846	1301.2482	1306.7074	1351.1836	1384.7754	1409.5541	1420.7598	1434.712	1481.2525	1485.2276	1498.0983	1503.5832	1508.0184	2339.8815	2997.2425	3031.7332	3036.5463	3069.7504	3105.3646	3110.0677	3112.235	3137.306	3141.9255	3229.3297	3800.9133
CCC1CC1(CO)C#N	CC[C@H]1C[C@]1(CO)C#N	
InChI=1S/C7H11NO/c1-2-6-3-7(6,4-8)5-9/h6,9H,2-3,5H2,1H3	InChI=1S/C7H11NO/c1-2-6-3-7(6,4-8)5-9/h6,9H,2-3,5H2,1H3/t6-,7+/m0/s1
