15
gdb 29060	2.80325	1.72761	1.06887	2.1082	84.16	-0.2249	-0.0621	0.1628	1049.5265	0.11611	-413.022437	-413.015095	-413.014151	-413.054873	28.083	
N	 0.0100374538	 1.318379682	 0.0076966506	-0.478358
C	 0.0001000965	-0.0148637655	 0.0008216656	 0.390613
N	-1.1709172261	-0.6068674158	 0.0044810642	-0.36505
C	-1.4366591818	-1.9303478608	-0.0011117943	 0.090018
N	-0.7141790462	-3.0181882101	-0.0111814826	-0.290839
C	 0.6446040779	-3.0247515422	-0.0190975576	 0.009212
C	 1.5706960266	-2.0243158464	-0.0190626007	-0.150759
C	 1.3908274387	-0.5971121977	-0.0103314664	 0.247928
N	 2.338121231	 0.2801923628	-0.0110021645	-0.553714
H	 0.9138278552	 1.7736455414	 0.004983333	 0.29029
H	-0.8643397356	 1.816035688	 0.0155381538	 0.271146
H	-2.5118413115	-2.1186250914	 0.0041675563	 0.115713
H	 1.0540235062	-4.0350118243	-0.0269133851	 0.111
H	 2.6118400398	-2.3412669218	-0.0267853557	 0.092056
H	 3.2554146553	-0.1669215082	-0.0186515365	 0.220745
37.6047	166.3758	310.3469	356.507	400.6322	409.3694	441.5289	489.9601	509.8962	621.9839	685.4368	722.4233	780.4305	783.7547	851.4836	887.2077	904.5776	984.9741	995.2603	1025.7038	1029.5276	1136.3423	1267.8945	1334.2671	1359.3284	1436.9389	1468.2578	1484.1596	1509.4819	1572.7302	1588.6036	1643.1598	1663.4717	3114.2305	3122.6171	3149.5885	3468.0793	3537.7795	3714.2742
NC1=NC=NC=CC1=N	NC1=NC=N[CH]C=C1[NH]	
InChI=1S/C5H6N4/c6-4-1-2-8-3-9-5(4)7/h1-3H,(H3,6,7,8,9)	InChI=1S/C5H6N4/c6-4-1-2-8-3-9-5(4)7/h1-3H,(H3,6,7,8,9)
