21
gdb 93678	2.1967	1.60233	1.2662	1.9374	73.32	-0.2432	0.0541	0.2973	1110.6712	0.181304	-461.370477	-461.360815	-461.359871	-461.40463	36.87	
C	 0.6163728626	 1.3701371821	-0.2762377597	-0.423106
C	-0.1655231665	 0.129617684	 0.1556930296	 0.079455
O	-0.2416228889	-0.8645373951	-0.8668085588	-0.263691
C	 0.9473583617	-1.6424433843	-0.8197548467	-0.112281
C	 1.4388162471	-1.6514559037	 0.6448947055	 0.329329
C	 1.4214980279	-3.0282569281	 1.2981084147	-0.476409
O	 2.7700473067	-1.1102084895	 0.6579093341	-0.474377
C	 0.468262065	-0.6360474865	 1.3423940878	 0.080387
O	 1.1146385643	 0.1496346915	 2.313134338	-0.438739
H	 1.6589477161	 1.1337650871	-0.5104440454	 0.126732
H	 0.1546882972	 1.807488231	-1.1654569352	 0.12146
H	 0.608362488	 2.1152170338	 0.5245146767	 0.125207
H	-1.1993288441	 0.4133802244	 0.3764440352	 0.080685
H	 0.7015066855	-2.6403355695	-1.1938853746	 0.104009
H	 1.7388092399	-1.2196693424	-1.4528981842	 0.106996
H	 2.1378614109	-3.6994940889	 0.8130008929	 0.124354
H	 1.6757144028	-2.9523010154	 2.3626748956	 0.123353
H	 0.4262289957	-3.4766071045	 1.2271724296	 0.133354
H	 3.2129858433	-1.4359847744	 1.4488512116	 0.286171
H	-0.3194706914	-1.189099746	 1.862877851	 0.086992
H	 1.9706842161	 0.3796503345	 1.9264599622	 0.280118
52.2548	145.7407	164.5883	232.2843	241.3783	265.5867	291.5484	319.3876	352.8921	411.1846	430.2054	488.1624	562.6084	584.4655	612.9624	711.5721	765.4906	840.2733	894.2149	947.1782	954.5657	962.324	1038.3113	1062.8222	1102.4934	1115.3672	1130.0821	1161.0773	1177.3318	1189.801	1251.1823	1284.4999	1308.5893	1332.5964	1361.5504	1385.078	1402.4602	1405.7789	1409.4513	1442.3527	1492.1577	1493.2386	1496.3254	1501.2173	1519.3923	3014.0622	3022.9972	3044.052	3052.3942	3068.6748	3082.4254	3092.6128	3113.0558	3118.0861	3123.0888	3747.6878	3810.2329
CC1OCC(C)(O)C1O	C[C@H]1OC[C@@](C)(O)[C@H]1O	
InChI=1S/C6H12O3/c1-4-5(7)6(2,8)3-9-4/h4-5,7-8H,3H2,1-2H3	InChI=1S/C6H12O3/c1-4-5(7)6(2,8)3-9-4/h4-5,7-8H,3H2,1-2H3/t4-,5+,6-/m1/s1
