23
gdb 102464	1.90424	1.14609	0.82297	1.6271	83.06	-0.2639	0.0179	0.2818	1538.0499	0.203239	-425.474588	-425.463164	-425.462219	-425.512324	39.536	
C	 0.2247371005	 1.3578017075	-0.1762910253	-0.393783
C	-0.0006392615	-0.156987081	-0.1939246329	-0.186468
C	-1.466475345	-0.5843686256	 0.0770220326	-0.083891
C	-2.4344092836	-0.1898760184	-1.0476843107	-0.172934
C	-3.9058698484	-0.4489141913	-0.7091407415	-0.394429
C	-1.4769428952	-2.0907332274	 0.2905496409	 0.442499
O	-1.7198888007	-2.9216525096	-0.5499536567	-0.370097
O	-1.1296249198	-2.4029055123	 1.5585501211	-0.235122
C	-1.0421834925	-3.8040281365	 1.8437539732	-0.240246
H	 1.2858145914	 1.5884535486	-0.3130498127	 0.115934
H	-0.3254656733	 1.8677684011	-0.9722065773	 0.123357
H	-0.0896281091	 1.7920300107	 0.7792429595	 0.116899
H	 0.3140944422	-0.5724444248	-1.1593684957	 0.109188
H	 0.6377427313	-0.6187798637	 0.5674324914	 0.108254
H	-1.779907585	-0.1205403034	 1.0205792232	 0.088643
H	-2.2973913499	 0.8724405774	-1.2742229033	 0.093075
H	-2.1607029601	-0.7489019811	-1.9489679011	 0.115732
H	-4.0880274533	-1.5131938486	-0.5342025894	 0.132175
H	-4.210832442	 0.101142461	 0.1885473902	 0.109136
H	-4.5572557109	-0.1316112135	-1.5291516279	 0.112566
H	-2.0042654805	-4.2935263909	 1.6724214906	 0.139786
H	-0.2904738127	-4.2820471757	 1.2102095399	 0.138631
H	-0.7584244517	-3.8770349727	 2.8938264319	 0.131095
35.2104	71.3137	100.3788	112.092	127.3102	182.9064	197.0193	224.6812	254.0661	263.3371	328.5514	348.8476	439.057	470.2664	660.3252	753.1313	771.6189	795.9877	868.6834	903.8769	938.8191	1019.5693	1027.4178	1042.9876	1058.2146	1117.8287	1124.4133	1176.3697	1179.6787	1202.4038	1217.5163	1273.3817	1296.7416	1334.903	1358.8435	1373.3903	1396.2213	1410.0856	1414.6828	1471.8089	1478.6523	1481.6723	1490.7799	1497.6738	1498.4262	1499.8511	1507.1856	1510.2705	1811.4844	3027.1408	3033.031	3034.2169	3036.9879	3046.5314	3050.5095	3068.7535	3082.1616	3100.8826	3102.1704	3111.7514	3116.5066	3124.1847	3156.6596
CCC(CC)C(=O)OC	CCC(CC)C(=O)OC	
InChI=1S/C7H14O2/c1-4-6(5-2)7(8)9-3/h6H,4-5H2,1-3H3	InChI=1S/C7H14O2/c1-4-6(5-2)7(8)9-3/h6H,4-5H2,1-3H3
