21
gdb 89795	3.12207	1.34685	1.12249	1.8073	82.23	-0.2536	0.0923	0.346	1173.3269	0.183301	-387.077913	-387.069727	-387.068783	-387.110384	32.733	
C	 0.0680838813	 1.585544608	 0.0378023592	-0.404189
C	 0.0374268399	 0.056562348	 0.0172825941	 0.002171
C	 0.7503424833	-0.5721321189	-1.2133369775	-0.322343
C	 1.2789780951	-1.926860843	-0.7364518186	 0.369822
C	 0.7335333073	-3.2355718235	-1.2596260548	-0.318098
C	 2.1442609259	-2.8115487326	-1.5899205485	-0.320623
C	 1.4864660635	-1.7721550352	 0.7403124236	-0.034669
O	 2.1762360012	-0.5614038676	 1.101987978	-0.272956
C	 0.7431795987	-0.5946791725	 1.1982535911	 0.038209
H	 1.1017801061	 1.9434595307	 0.0803648664	 0.130956
H	-0.3998376804	 2.003048976	-0.8597424652	 0.11273
H	-0.4645088881	 1.9847893555	 0.9076149994	 0.110573
H	-1.0068474984	-0.2851496149	 0.0437952503	 0.074185
H	 0.0850189518	-0.6599447333	-2.0768011344	 0.095463
H	 1.5890417956	 0.0670084646	-1.5071328297	 0.11367
H	 0.595934124	-4.0548649068	-0.5605630533	 0.110477
H	-0.0134268107	-3.1936052946	-2.045592496	 0.111781
H	 2.3549989294	-2.483949395	-2.6027891398	 0.113004
H	 2.9637519265	-3.3423222483	-1.1165435691	 0.114656
H	 1.6940065276	-2.6353523	 1.3690307358	 0.088358
H	 0.3425709504	-0.4984777067	 2.2053939791	 0.086822
94.0378	164.377	221.8154	240.5459	278.0589	322.8816	373.6637	437.326	516.5758	566.2092	630.6665	777.9499	793.1953	823.2993	850.7717	854.5727	896.8573	931.7566	946.9755	948.4826	957.8944	991.6915	1024.4073	1052.308	1060.2056	1079.1836	1102.069	1135.4563	1147.4814	1189.576	1195.7508	1252.691	1284.127	1294.2269	1306.2739	1330.9662	1354.03	1389.9297	1407.8586	1441.607	1467.997	1487.6228	1497.8139	1502.1439	1505.9225	3009.0825	3031.1492	3050.3986	3094.0684	3097.5396	3107.6438	3122.3818	3128.2178	3129.8628	3142.9831	3200.9682	3216.2006
CC1CC2(CC2)C2OC12	C[C@H]1CC2(CC2)[C@H]2O[C@@H]12	
InChI=1S/C8H12O/c1-5-4-8(2-3-8)7-6(5)9-7/h5-7H,2-4H2,1H3	InChI=1S/C8H12O/c1-5-4-8(2-3-8)7-6(5)9-7/h5-7H,2-4H2,1H3/t5-,6-,7-/m0/s1
