17
gdb 69611	3.62046	1.18944	1.15287	2.0477	80.38	-0.2263	0.0121	0.2385	1139.5365	0.13323	-384.581099	-384.572901	-384.571957	-384.613429	32.336	
C	-0.1028199975	 1.5417668044	 0.0199043803	-0.495182
C	 0.0005321305	 0.045493495	 0.0139476319	 0.311122
C	-0.8698637764	-0.8966527256	 0.8028708988	-0.334543
C	 0.6194574299	-0.9006862692	 1.0358592076	-0.1939
C	 1.3776231201	-1.6335197716	-0.1224326015	 0.282915
O	 0.4112194364	-2.1208745959	-1.0826051104	-0.282441
C	 0.7585454047	-0.7376873788	-1.1111781261	-0.128441
C	 2.657546468	-2.2403847017	-0.0396031484	 0.176325
C	 3.7466780616	-2.7360867603	 0.0830571972	-0.361466
H	 0.8618548166	 2.0129316387	-0.2026568623	 0.121526
H	-0.8254686823	 1.8952778116	-0.7256970856	 0.12451
H	-0.4311069431	 1.9057419262	 0.998444931	 0.124105
H	-1.4413066613	-0.4202521062	 1.5941017639	 0.112172
H	-1.3529507042	-1.7420934486	 0.3296078581	 0.137848
H	 1.0873840855	-0.6655408305	 1.9823237419	 0.099104
H	 1.1473851095	-0.3312032991	-2.0381933472	 0.115288
H	 4.7074845019	-3.1785513684	 0.1767467908	 0.191057
110.7305	145.9735	205.0394	249.4714	285.2407	393.8758	421.9209	471.8683	513.3633	544.1686	585.355	602.1926	651.7352	673.101	781.7637	801.105	836.5358	895.9959	915.4231	928.0851	968.7617	1001.3999	1010.0971	1072.7566	1098.2488	1117.7297	1123.0523	1193.0494	1232.1168	1280.2715	1371.7156	1418.7409	1423.9017	1478.3792	1485.3139	1499.3318	2238.7914	3019.9469	3076.0931	3100.197	3136.0132	3183.1727	3207.8897	3229.1403	3502.216
CC12CC1C1(OC21)C#C	C[C@]12C[C@H]1[C@]1(O[C@@H]21)C#C	
InChI=1S/C8H8O/c1-3-8-5-4-7(5,2)6(8)9-8/h1,5-6H,4H2,2H3	InChI=1S/C8H8O/c1-3-8-5-4-7(5,2)6(8)9-8/h1,5-6H,4H2,2H3/t5-,6+,7+,8-/m1/s1
