25
gdb 119984	1.96501	1.10041	0.84919	0.9983	90.32	-0.2325	0.0801	0.3125	1557.0679	0.226637	-389.480055	-389.468777	-389.467832	-389.517147	40.493	
C	-0.131950015	 1.4178096473	-0.0607465715	-0.387083
C	-0.232262419	-0.0557602775	 0.2935029836	-0.031841
O	-1.2969237786	-0.6245754715	-0.4542963238	-0.247983
C	-1.4662443471	-1.9897712278	-0.2263587992	 0.10579
C	-2.4203384994	-2.4569269068	 0.8582512473	-0.075182
C	-3.0993294932	-1.4707430703	 1.7852742498	-0.409222
C	-2.7947163405	-2.5738922139	-0.6143213063	-0.062258
C	-3.8630438904	-1.7202375915	-1.2703119645	-0.187519
C	-3.6615866917	-1.6125165018	-2.7868817127	-0.373574
H	 0.6910663778	 1.8865247552	 0.4870354379	 0.1144
H	 0.0471063971	 1.5432061258	-1.132393921	 0.126901
H	-1.0590777834	 1.9394939424	 0.1939900972	 0.125232
H	 0.7095068637	-0.5765588055	 0.0539848839	 0.087369
H	-0.4104333479	-0.188745116	 1.3712680118	 0.092856
H	-0.5633233052	-2.5764652542	-0.4059210567	 0.074651
H	-2.1510136938	-3.3967418924	 1.3348156259	 0.077146
H	-3.1582126606	-0.4755259669	 1.3392384283	 0.130073
H	-4.1174600963	-1.7899001234	 2.0345416685	 0.113994
H	-2.5447886287	-1.3796387125	 2.7257532423	 0.110724
H	-2.7439389507	-3.5824467145	-1.0205373556	 0.077416
H	-4.8496760223	-2.1516219649	-1.0566381997	 0.089805
H	-3.8593464851	-0.7167772304	-0.8381027578	 0.108044
H	-4.4572021134	-1.0216161114	-3.2519978082	 0.104909
H	-2.7045886855	-1.1324268428	-3.0123057462	 0.128805
H	-3.6615901309	-2.6013188448	-3.2596010935	 0.106547
50.7457	68.7747	103.7834	119.0986	146.7732	179.7904	215.2764	232.8529	254.7455	292.7135	321.8063	389.8845	499.1987	564.2951	615.3635	746.3874	782.3018	806.7724	819.3619	858.1066	915.4499	957.6955	984.4945	1004.3054	1041.9658	1067.7281	1088.4519	1119.191	1129.5164	1151.9226	1153.5631	1183.1059	1187.956	1199.3321	1262.3748	1293.4765	1295.686	1337.5761	1363.6091	1388.713	1401.2133	1407.0651	1413.8545	1425.7654	1462.0799	1483.1052	1484.1243	1497.5424	1499.5466	1500.7198	1503.0039	1508.1816	1529.1055	2968.9674	3005.4642	3023.0678	3030.4571	3031.3328	3044.1925	3074.8944	3083.9245	3085.5127	3101.4683	3111.4082	3117.5454	3118.0376	3120.0189	3120.6163	3135.593
CCOC1C(C)C1CC	CCO[C@H]1[C@@H](C)[C@H]1CC	
InChI=1S/C8H16O/c1-4-7-6(3)8(7)9-5-2/h6-8H,4-5H2,1-3H3	InChI=1S/C8H16O/c1-4-7-6(3)8(7)9-5-2/h6-8H,4-5H2,1-3H3/t6-,7+,8-/m0/s1
