16
gdb 125385	3.21693	1.17092	0.86661	4.2885	75.03	-0.2283	0.0068	0.2351	1284.4795	0.124988	-434.087857	-434.079102	-434.078158	-434.122461	30.627	
C	 0.0002909625	 1.534931764	 0.0658184485	-0.507014
C	-0.0486254293	 0.0410154794	 0.0198757024	 0.082053
C	-0.0437412787	-0.8060991536	-1.0697750166	-0.094131
N	-0.0936103523	-2.0742727277	-0.5958606024	-0.20593
N	-0.1444045433	-2.130548169	 0.7545208274	-0.321448
C	-0.1081960011	-0.8564527181	 1.1123392457	 0.404566
O	-0.1501645004	-0.4388516228	 2.4072123926	-0.219571
C	 0.1597650141	-1.3285803022	 3.3921157011	 0.112845
N	-0.0085827661	-0.9789923877	 4.5905186769	-0.435238
H	 0.8611779787	 1.8899482019	 0.6422360337	 0.138725
H	 0.0722030629	 1.955738779	-0.9405633112	 0.121464
H	-0.8937879327	 1.9517111977	 0.5417264104	 0.141444
H	-0.0076326855	-0.5962215526	-2.1275636697	 0.139539
H	-0.1199877256	-2.9326144489	-1.1170362021	 0.27775
H	 0.5422047206	-2.2766764875	 3.0085222388	 0.131927
H	 0.2885861161	-1.7307082321	 5.2099360044	 0.233019
55.8496	74.5664	92.9143	156.7549	246.9465	267.6197	348.6307	419.0751	475.2899	516.5557	653.1601	663.4213	728.3895	795.9302	828.0611	850.2604	948.1441	1008.4353	1047.6088	1055.1776	1068.5996	1089.1498	1178.5407	1258.169	1282.0444	1325.7637	1404.6885	1411.057	1425.1356	1481.314	1488.1747	1496.584	1529.1844	1630.9106	1744.2364	3036.207	3088.4386	3114.0561	3115.4825	3257.4204	3514.3085	3691.0554
CC1=CNN=C1OC=N	Cc1c[nH]nc1O[CH][NH]	
InChI=1S/C5H7N3O/c1-4-2-7-8-5(4)9-3-6/h2-3,6H,1H3,(H,7,8)	InChI=1S/C5H7N3O/c1-4-2-7-8-5(4)9-3-6/h2-3,6H,1H3,(H,7,8)
