18
gdb 46668	2.81265	1.79108	1.34936	2.7209	76.83	-0.2249	-0.0243	0.2006	976.2903	0.149322	-401.881093	-401.874212	-401.873268	-401.912322	28.271	
O	 0.0170414096	 0.050075706	 0.3405642227	-0.310079
C	 0.000115923	 1.2279473227	 0.1047155037	 0.301988
C	-1.2610796629	 2.1185163301	-0.063753049	-0.313102
C	-0.7583761724	 3.582207059	-0.1940850549	-0.206804
N	 0.5661739271	 3.371159681	-0.8076232911	-0.129343
C	 1.9163816516	 3.8376673533	-0.2603010116	-0.026608
C	 1.659658267	 3.1296730706	 1.0928281874	-0.268011
C	 1.1439900247	 2.1961136265	-0.0692744652	 0.21641
C	 2.4768581563	 2.4827701275	-0.8104549635	-0.277443
H	-1.7592604582	 1.7915457555	-0.9831445863	 0.145886
H	-1.959127327	 1.9525938327	 0.7602323024	 0.131132
H	-1.3848199009	 4.1803048142	-0.8605648364	 0.109484
H	-0.7555445721	 4.0780528709	 0.7860968149	 0.096918
H	 2.3043840477	 4.8401941979	-0.4465672866	 0.09058
H	 2.5286896645	 2.7815299887	 1.6557585822	 0.106171
H	 0.9154012767	 3.565530653	 1.7578145154	 0.109504
H	 2.4370000489	 2.3636123483	-1.8926663182	 0.116265
H	 3.3954553762	 2.1085540222	-0.358721246	 0.107051
100.2588	185.7845	303.3012	365.7799	481.7286	506.7117	551.785	596.0642	605.6534	624.6041	762.1574	783.3817	824.7876	858.702	890.1387	913.1785	951.2477	960.5496	992.9911	1020.8838	1053.1994	1062.591	1090.3976	1123.4173	1130.1521	1158.4011	1185.8302	1205.4608	1213.8382	1225.0273	1231.5065	1274.5614	1297.1364	1333.5869	1443.6326	1475.8534	1505.7963	1543.8681	1853.051	3006.1466	3057.1992	3076.1877	3085.7858	3088.7637	3105.6107	3114.536	3150.502	3172.8626
O=C1CCN2C3CC12C3	O=C1CCN2[C@H]3C[C@@]12C3	
InChI=1S/C7H9NO/c9-6-1-2-8-5-3-7(6,8)4-5/h5H,1-4H2	InChI=1S/C7H9NO/c9-6-1-2-8-5-3-7(6,8)4-5/h5H,1-4H2/t5-,7+
