20
gdb 91055	3.91772	1.227	1.13722	1.4464	86.06	-0.2227	0.0128	0.2355	1160.8088	0.172559	-365.950537	-365.942921	-365.941976	-365.982399	30.969	
C	-0.0979297644	 1.5666188135	 0.0748568044	-0.398087
C	 0.0777847897	 0.0469379862	 0.0122982291	 0.00744
C	 0.8852966919	-0.4401386993	-1.2460066371	-0.266218
C	 1.4866972069	-1.7601317007	-0.7482984817	-0.03489
C	 2.9471041555	-2.2932833044	-0.7600824965	-0.087854
N	 3.830486051	-1.2838022238	-0.1445947342	-0.32295
C	 3.0074047245	-2.1848237683	 0.738079951	-0.194687
C	 1.667019267	-1.4977929395	 0.7308188046	 0.332046
C	 0.8976081546	-0.5167760306	 1.1836580453	-0.23507
H	 0.8739545958	 2.0698164	 0.1235511661	 0.120567
H	-0.6247636749	 1.935904484	-0.8115898681	 0.111501
H	-0.6771051011	 1.8665831117	 0.9549448275	 0.10955
H	-0.9246265395	-0.4099154129	-0.0054015654	 0.073645
H	 0.2594253047	-0.5236172147	-2.1398728591	 0.085218
H	 1.6865774345	 0.2799623103	-1.4458605423	 0.113964
H	 0.8165640816	-2.614130099	-0.9184992335	 0.078647
H	 3.3520861172	-3.0630757455	-1.4060409125	 0.089352
H	 4.7731051997	-1.6776113287	-0.1542467184	 0.2273
H	 3.4880106139	-2.8152637481	 1.4747266848	 0.098903
H	 0.8706686912	-0.0838570403	 2.1774560762	 0.091627
98.551	200.7441	233.2223	245.4485	298.346	449.4836	460.8034	515.6945	599.6639	652.5485	688.6965	795.0312	809.4009	823.4586	858.4109	868.0495	886.2958	912.0941	925.8333	954.4839	1006.6112	1023.9787	1055.2219	1081.5763	1105.6685	1110.3875	1130.7738	1140.8236	1168.2245	1198.0176	1238.2921	1258.8101	1290.7987	1295.1685	1308.8412	1348.0794	1356.9349	1366.1915	1409.1858	1479.7955	1496.0222	1500.5712	1735.8893	2970.493	3010.4101	3026.6328	3042.8552	3093.4068	3095.3004	3099.5848	3182.4965	3191.3556	3201.951	3447.8315
CC1CC2C3NC3C2=C1	C[C@H]1C[C@H]2[C@H]3N[C@H]3[C]2[CH]1	
InChI=1S/C8H11N/c1-4-2-5-6(3-4)8-7(5)9-8/h2,4,6-9H,3H2,1H3	InChI=1S/C8H11N/c1-4-2-5-6(3-4)8-7(5)9-8/h2,4,6-9H,3H2,1H3/t4-,6-,7+,8-/m1/s1
