18
gdb 31716	5.40712	0.83106	0.76393	0.4419	75.3	-0.2258	0.0142	0.24	1514.7526	0.147219	-439.121948	-439.11263	-439.111686	-439.157348	32.633	
C	 0.1910700397	 1.4932429439	-0.1734668693	-0.378756
C	-0.0817326898	 0.0085668436	 0.1221959137	-0.288878
C	 0.6052060511	-0.4801682226	 1.3506908229	 0.379834
N	 0.078094603	-0.9216201242	 2.4506741638	-0.358976
C	 1.1629829759	-1.231231782	 3.2654104613	 0.247078
C	 0.9799346115	-1.7798617856	 4.6396533497	-0.190915
O	 2.2627675724	-1.9804704473	 5.209109855	-0.419217
C	 2.3060529888	-0.9523239601	 2.5998049517	-0.110003
O	 1.9629406546	-0.4672443648	 1.3636335166	-0.180191
H	 1.2611502836	 1.6745208303	-0.305695294	 0.13343
H	-0.3234042912	 1.8009482836	-1.0882200729	 0.1183
H	-0.1616249166	 2.1259585337	 0.6463246916	 0.129096
H	-1.1505076106	-0.1679434397	 0.2642758873	 0.133822
H	 0.2391920878	-0.598429606	-0.7333596312	 0.122469
H	 0.3739301442	-1.0764375224	 5.2334724898	 0.108165
H	 0.4065669336	-2.7192968782	 4.5820638247	 0.108376
H	 2.1449698971	-2.3397900144	 6.0924530854	 0.292815
H	 3.353811425	-1.0290921479	 2.8252577839	 0.15355
39.5964	51.4602	132.518	164.1766	207.8584	224.5959	262.4098	333.8194	372.6491	490.2912	642.8496	657.2564	717.3427	746.1742	764.9161	795.9995	952.8162	979.6731	1012.6088	1050.206	1073.25	1088.0935	1103.3555	1130.6414	1200.554	1231.7622	1234.4093	1270.6584	1295.2884	1344.4887	1369.355	1410.0509	1468.7074	1473.3939	1497.824	1506.5054	1514.0374	1615.8113	1649.906	2967.5873	2987.4342	3036.2692	3044.807	3104.2217	3117.4373	3127.8043	3314.8442	3844.1363
CCC1=NC(CO)=CO1	CCc1nc(CO)co1	
InChI=1S/C6H9NO2/c1-2-6-7-5(3-8)4-9-6/h4,8H,2-3H2,1H3	InChI=1S/C6H9NO2/c1-2-6-7-5(3-8)4-9-6/h4,8H,2-3H2,1H3
