18
gdb 102895	3.05157	0.79008	0.64997	3.0958	79.67	-0.2688	0.0121	0.2809	1675.2776	0.14454	-401.916494	-401.906172	-401.905227	-401.952661	35.829	
C	-0.0270353717	 1.4141399693	 0.2303404587	-0.249825
O	-0.0466342702	 0.059787573	-0.1897858184	-0.232565
C	-1.2988052851	-0.5706369748	-0.0625528705	-0.029345
C	-1.223453455	-1.9358898776	-0.7563452441	-0.198123
C	-0.917414824	-1.7904260476	-2.2598712077	-0.367497
C	-0.8579830388	-3.0787016708	-2.9373114122	 0.286326
C	-0.8134589906	-4.1540304122	-3.471796503	-0.42552
C	-1.6806312862	-0.7286854641	 1.3610637274	 0.273765
N	-1.9718550273	-0.8426187404	 2.4734297648	-0.319975
H	 0.9829791657	 1.7840533702	 0.0461116427	 0.141687
H	-0.7441629602	 2.0203056167	-0.3424359161	 0.114374
H	-0.2568858384	 1.5087576129	 1.2996577458	 0.138111
H	-2.0841817777	 0.0415552351	-0.5391875212	 0.111662
H	-0.4453496552	-2.5329853781	-0.2727136571	 0.141551
H	-2.1736799786	-2.4582493579	-0.6133846417	 0.13345
H	-1.6866257944	-1.1634189088	-2.7309782675	 0.128812
H	 0.0315004284	-1.2576373955	-2.380063309	 0.15492
H	-0.7701890808	-5.0979308795	-3.9561126909	 0.198193
59.4633	84.3376	99.9495	110.0568	172.8965	194.6023	240.9382	284.7276	317.4642	347.245	456.8241	462.0473	591.3281	611.4906	622.7096	647.5873	763.0301	870.6443	929.7682	991.9009	1039.136	1049.7001	1088.1045	1150.6066	1183.6054	1186.6623	1242.2563	1269.0409	1315.1685	1341.5257	1367.2746	1389.5839	1472.0447	1480.9604	1485.859	1489.2963	1508.0065	2242.2669	2353.4886	2958.1312	2994.1123	3019.3253	3056.8553	3067.166	3076.4593	3117.6537	3135.4572	3506.9152
COC(CCC#C)C#N	CO[C@@H](CCC#C)C#N	
InChI=1S/C7H9NO/c1-3-4-5-7(6-8)9-2/h1,7H,4-5H2,2H3	InChI=1S/C7H9NO/c1-3-4-5-7(6-8)9-2/h1,7H,4-5H2,2H3/t7-/m0/s1
