19
gdb 91842	3.61886	1.17168	1.0612	4.4385	80.76	-0.2172	0.0301	0.2473	1186.3495	0.160607	-382.070057	-382.061518	-382.060574	-382.103338	31.918	
C	 0.7621106214	 1.43123427	 0.0252320757	-0.335538
N	 0.11182925	 0.1353519261	-0.0390048878	-0.056243
C	 0.3794660993	-0.6919079542	-1.2189533552	-0.187601
C	 1.1210317916	-1.9283014831	-0.728341192	-0.079028
C	 2.3175182979	-1.7115265863	 0.1476675636	-0.326018
C	 0.9608002169	-1.9493573569	 0.7895266552	 0.196203
C	 0.1580623333	-0.6950517511	 1.1629279921	-0.245857
C	 0.7226994689	-3.1627065202	 1.5136278084	 0.198035
N	 0.5224734288	-4.1318596795	 2.1139015088	-0.34772
H	 1.8632116964	 1.399098773	 0.1245834897	 0.095328
H	 0.5274919159	 2.0024351028	-0.8780654797	 0.127572
H	 0.3685828322	 1.9972336211	 0.8749389459	 0.128695
H	-0.5555530093	-1.0029449416	-1.7071087132	 0.109596
H	 0.9583429458	-0.1247058569	-1.9564634036	 0.108764
H	 1.0455844774	-2.8493086149	-1.2942376297	 0.112673
H	 3.0383135701	-2.5172315582	 0.2200410672	 0.139547
H	 2.7382357797	-0.7156903095	 0.2354415931	 0.129245
H	 0.6125522114	-0.1460754699	 1.9945535017	 0.114606
H	-0.8471490277	-1.0037558107	 1.4818085396	 0.117739
84.486	125.0161	143.0314	160.1508	290.7069	306.8491	374.2914	390.6306	485.7558	550.5041	575.7707	635.9952	698.834	823.8097	844.9918	898.253	930.132	943.7754	1018.4154	1031.848	1062.0876	1069.8479	1083.0964	1105.1392	1147.1914	1160.9125	1215.2744	1241.1504	1247.3408	1286.8958	1324.4321	1356.159	1367.5301	1408.3917	1465.1538	1486.4165	1498.2063	1503.3145	1508.2664	1519.9847	2348.3744	2925.8919	2993.89	3003.3972	3056.7158	3061.6147	3067.9715	3106.8176	3142.1561	3188.0113	3233.4674
CN1CC2CC2(C1)C#N	CN1C[C@H]2C[C@]2(C1)C#N	
InChI=1S/C7H10N2/c1-9-3-6-2-7(6,4-8)5-9/h6H,2-3,5H2,1H3	InChI=1S/C7H10N2/c1-9-3-6-2-7(6,4-8)5-9/h6H,2-3,5H2,1H3/t6-,7-/m1/s1
