15
gdb 94971	3.60976	1.38984	1.19136	3.8567	60.15	-0.2615	-0.0097	0.2518	1006.8707	0.113195	-494.914594	-494.907202	-494.906258	-494.946704	27.586	
O	-0.0896717501	 1.338978835	 0.2312101391	-0.434228
C	-0.0534437618	-0.0432027196	-0.075786135	 0.091941
C	 0.5863138704	-0.8956187949	 1.0385554642	-0.138315
O	-0.421678179	-1.0459878262	 2.0404430965	-0.244759
C	-1.6507405448	-1.1494622314	 1.3728094179	-0.065036
C	-1.5084884553	-0.502108865	-0.0232891886	 0.08077
O	-1.7245142093	-1.7961911268	-0.6653456127	-0.261691
C	-1.8701088324	-2.4488524553	 0.5441504411	 0.410773
O	-2.0737573465	-3.602668736	 0.72286271	-0.308672
H	 0.8097293518	 1.6439407511	 0.3851344847	 0.29292
H	 0.4019063465	-0.2410450392	-1.0551047997	 0.094904
H	 0.892608818	-1.8740640634	 0.6403929453	 0.121194
H	 1.4534841224	-0.4206589372	 1.5047460031	 0.115414
H	-2.4621258841	-0.8673474657	 2.0429553889	 0.127372
H	-2.2198983759	 0.2460813547	-0.3672538947	 0.117413
95.8073	142.7904	228.1261	269.0229	281.4615	367.2471	450.0052	474.8967	672.7935	721.3745	775.9058	815.5074	857.4652	874.7764	938.501	961.885	983.7998	995.5223	1038.7286	1096.7717	1124.7021	1144.5787	1179.2404	1205.0151	1242.1011	1279.9318	1301.3388	1330.7174	1352.3724	1378.916	1421.8827	1500.2598	1946.2843	3003.1378	3029.1593	3099.6781	3130.1699	3148.302	3826.7737
OC1COC2C1OC2=O	O[C@H]1CO[C@H]2[C@@H]1OC2=O	
InChI=1S/C5H6O4/c6-2-1-8-4-3(2)9-5(4)7/h2-4,6H,1H2	InChI=1S/C5H6O4/c6-2-1-8-4-3(2)9-5(4)7/h2-4,6H,1H2/t2-,3+,4-/m0/s1
