19
gdb 106875	2.29764	1.4172	1.04614	2.7934	77.81	-0.2436	-0.0344	0.2092	1206.4379	0.157249	-423.000242	-422.991191	-422.990247	-423.034381	33.189	
C	-0.37556222	 1.3629957287	-0.0097137753	-0.375381
C	 0.0847461849	-0.1022928648	 0.0020691431	-0.293624
C	 0.8322862886	-0.4883577705	-1.2424850229	 0.230456
C	 0.1712361805	-0.8856914927	-2.5302334196	-0.370647
C	 1.0783430179	-1.8833393367	-1.8557918411	 0.297457
O	 2.4473044811	-1.6016642616	-2.1368690848	-0.323828
C	 2.3303698599	-0.2998468889	-1.500367017	-0.135554
C	 0.6705049893	-3.1950165453	-1.3412898967	 0.07097
O	-0.4718197842	-3.4765704704	-1.053324898	-0.27879
H	 0.4749272076	 2.048766051	-0.0875229122	 0.117581
H	-1.0397391051	 1.5584536281	-0.8573901418	 0.124537
H	-0.9172120459	 1.6071067019	 0.9087728265	 0.11979
H	 0.7197774512	-0.2833305224	 0.8783920509	 0.103611
H	-0.7814657049	-0.7655600209	 0.1068898515	 0.129833
H	-0.8853978015	-1.1193082955	-2.449402096	 0.14508
H	 0.5015671393	-0.4810523225	-3.4830008555	 0.122712
H	 2.6325910144	 0.5148609257	-2.1682114587	 0.11229
H	 2.9253606688	-0.2684886842	-0.5803593906	 0.114119
H	 1.5111882283	-3.9096363289	-1.2073912417	 0.089388
64.1457	100.2426	149.2712	203.4238	218.3347	223.2052	327.6288	352.8587	425.4194	441.1056	545.8826	656.9842	756.0469	767.0154	788.9184	819.7076	924.2944	971.1306	981.6901	987.0952	1030.0704	1045.4195	1053.9351	1072.9951	1093.443	1152.7334	1158.4006	1225.357	1267.0898	1312.2899	1347.9908	1360.8909	1401.1777	1411.5324	1418.7114	1475.0336	1485.8172	1498.539	1507.0551	1517.4478	1788.6576	2903.6372	3024.5647	3028.4617	3035.7396	3067.4116	3077.6788	3105.0183	3112.8495	3118.9267	3221.0946
CCC12CC1(OC2)C=O	CC[C@]12C[C@]1(OC2)C=O	
InChI=1S/C7H10O2/c1-2-6-3-7(6,4-8)9-5-6/h4H,2-3,5H2,1H3	InChI=1S/C7H10O2/c1-2-6-3-7(6,4-8)9-5-6/h4H,2-3,5H2,1H3/t6-,7+/m1/s1
