16
gdb 71278	2.67296	2.02707	1.45236	1.5199	67.4	-0.2447	-0.0312	0.2136	896.4529	0.125087	-437.861166	-437.854278	-437.853334	-437.892157	27.996	
O	 0.0531589282	 1.4024938707	 0.004941734	-0.494149
C	-0.017059394	 0.0264918537	-0.0198276542	 0.3209
C	 0.3866716103	-0.7356861601	-1.3390590023	-0.315879
C	-0.8234501889	-1.6505388672	-1.1246433845	-0.033804
C	-1.3733978404	-0.7537293067	-0.0652897599	-0.131657
N	-0.956459168	-2.1206561358	 0.2653076129	-0.105599
C	 0.2400938442	-2.0987444364	 1.120467503	-0.28398
C	 0.726989526	-0.6508391813	 1.1139233859	 0.356239
O	 1.506599635	-0.0913758135	 1.8437281988	-0.342622
H	 0.6853445429	 1.6254380114	 0.7073480485	 0.292984
H	 0.223832245	-0.0603967691	-2.1820210696	 0.133523
H	 1.3863782721	-1.1780389915	-1.4113102274	 0.104485
H	-1.3376547245	-2.2250065658	-1.8862404134	 0.104001
H	-2.3694872964	-0.3909016633	 0.1567836812	 0.107631
H	-0.0355046869	-2.4024945913	 2.1351864696	 0.146622
H	 1.0167621353	-2.7853691738	 0.7677279574	 0.141307
122.9599	261.4768	309.261	347.3653	396.8275	435.6997	501.0458	519.2497	636.1077	649.4972	711.0574	745.1252	776.7969	855.7803	878.9012	932.1641	946.0177	997.4993	1021.2432	1031.8854	1054.8177	1066.4771	1112.7578	1152.9238	1170.653	1212.3916	1236.2159	1264.2936	1290.1957	1327.5808	1368.5254	1410.9955	1457.5023	1490.7904	1843.3384	3041.3056	3054.8134	3096.8878	3117.0065	3179.1504	3195.9186	3686.1406
OC12CC3C1N3CC2=O	O[C@]12C[C@@H]3[C@H]1N3CC2=O	
InChI=1S/C6H7NO2/c8-4-2-7-3-1-6(4,9)5(3)7/h3,5,9H,1-2H2	InChI=1S/C6H7NO2/c8-4-2-7-3-1-6(4,9)5(3)7/h3,5,9H,1-2H2/t3-,5-,6+,7?/m1/s1
