15
gdb 45017	2.48105	1.77871	1.15233	2.0321	68.75	-0.2651	-0.0284	0.2367	1017.5011	0.114689	-453.979662	-453.972482	-453.971538	-454.011589	27.511	
N	-0.1082567346	 1.2551293195	 0.382333817	-0.515052
C	-0.0186677807	 0.0362299023	 0.0270217913	 0.415776
N	 1.16614172	-0.6738168403	-0.1755623039	-0.391797
C	 1.3377404715	-1.9179598091	-0.7677863651	 0.410162
O	 2.4284894606	-2.4394938772	-0.8002434843	-0.345913
C	 0.1118513078	-2.5320959721	-1.4290443893	-0.373714
C	-1.2082551938	-2.0278511893	-0.9070829086	 0.041747
O	-1.3437680144	-2.0010419746	 0.5101633201	-0.24668
C	-1.267973592	-0.7467711573	-0.1871445084	-0.006221
H	 0.8095780085	 1.6941119159	 0.4823908969	 0.215353
H	 2.0283257079	-0.26256199	 0.1594074511	 0.256221
H	 0.1856079412	-2.3227578305	-2.5041494469	 0.147445
H	 0.1937067812	-3.6166166459	-1.3152619758	 0.156083
H	-2.0965159596	-2.3585579333	-1.4443600525	 0.110718
H	-2.1707368535	-0.1443172682	-0.1749045615	 0.125871
89.9209	130.2802	262.4618	331.6218	368.2299	476.4691	523.1532	538.0187	545.5597	651.3497	676.1545	735.4389	798.8848	863.5057	887.1758	919.378	928.2253	970.764	1025.4541	1079.6728	1129.3117	1147.4058	1224.2868	1266.3749	1294.6521	1340.2655	1362.8863	1416.4605	1419.6918	1446.7252	1471.2924	1733.6785	1813.4127	3041.7139	3101.161	3119.1545	3177.3404	3451.4442	3583.7657
N=C1NC(=O)CC2OC12	[NH][C]1NC(=O)C[C@H]2O[C@@H]12	
InChI=1S/C5H6N2O2/c6-5-4-2(9-4)1-3(8)7-5/h2,4H,1H2,(H2,6,7,8)	InChI=1S/C5H6N2O2/c6-5-4-2(9-4)1-3(8)7-5/h2,4H,1H2,(H2,6,7,8)/t2-,4-/m1/s1
