19
gdb 34814	4.7945	1.08467	1.00069	0.6968	87.95	-0.2524	0.0467	0.2991	1226.2585	0.158923	-348.647947	-348.640068	-348.639123	-348.679953	31.983	
C	-0.1141905261	-1.2277317563	-0.1341659092	-0.450941
C	-0.0413468987	-0.0301721507	-0.0418097429	 0.320305
C	 0.0185989546	 1.4144052598	 0.0424989574	-0.184362
C	 0.0989804418	 2.1157706792	 1.4506347833	-0.129537
C	 1.5713162635	 1.6119270993	 1.5526522412	-0.239044
C	 1.4156084134	 2.1403294313	 0.0936853718	-0.129538
C	 0.66008574	 3.3371338173	 0.6997224362	 0.474191
C	 0.0173533716	 4.5367009585	 0.0978059146	-0.375685
C	 1.1106162601	 4.6757238611	 1.1610873217	-0.389701
H	-0.175666254	-2.2847475114	-0.2129477839	 0.188288
H	-0.6966980962	 1.877669554	-0.6431589442	 0.095476
H	-0.6712484773	 2.099293425	 2.2227190045	 0.078585
H	 2.2320693389	 2.1869202554	 2.2041775939	 0.096182
H	 1.7101932168	 0.5361547388	 1.667932499	 0.110844
H	 2.1641562385	 2.1521815046	-0.6995194312	 0.078585
H	 0.2698932352	 4.8126529899	-0.9214591776	 0.114104
H	-0.9986065917	 4.7889810039	 0.3859174111	 0.114104
H	 0.8120570268	 5.0195356331	 2.1466995571	 0.114072
H	 2.0803399528	 5.0431812972	 0.8395480671	 0.114071
127.6972	131.7826	232.1139	255.2412	292.5723	412.9579	470.4399	508.8776	584.1588	613.9854	637.3668	651.0311	745.5568	779.3754	811.9979	882.0468	882.2324	899.2312	920.1401	948.8062	990.1962	1018.0164	1043.7606	1051.7292	1061.7162	1076.6967	1086.0277	1115.8557	1157.3116	1169.1668	1180.2219	1193.4842	1200.0785	1235.942	1241.6254	1363.0934	1414.1508	1462.5058	1502.8466	1527.311	2228.4331	3066.7959	3072.7939	3106.206	3111.0473	3118.8108	3122.5521	3144.0544	3195.2557	3209.3217	3504.2988
C#CC1C2CC1C21CC1	C#C[C@H]1[C@H]2C[C@@H]1C12CC1	
InChI=1S/C9H10/c1-2-6-7-5-8(6)9(7)3-4-9/h1,6-8H,3-5H2	InChI=1S/C9H10/c1-2-6-7-5-8(6)9(7)3-4-9/h1,6-8H,3-5H2/t6-,7+,8-
