17
gdb 50034	3.30038	1.14218	1.03926	4.05	78.45	-0.2244	-0.0206	0.2038	1190.5733	0.134893	-421.822922	-421.814867	-421.813922	-421.856066	30.097	
O	-0.0897874004	 0.0113724567	 0.0644299131	-0.275631
C	 0.0242278219	 1.2047514569	 0.2132698353	 0.170758
C	 1.2999411151	 1.9390156409	 0.077501726	-0.186428
C	 1.2644858147	 3.4075455082	-0.3548810571	-0.366542
C	 1.5941847701	 3.1003071484	 1.0573101846	 0.424204
O	 0.6350844649	 3.4118334577	 2.0386265456	-0.30405
C	 1.2889277224	 3.5683859434	 3.3020629234	-0.133406
C	 2.7577719471	 3.5064236626	 2.9867201184	-0.106738
C	 2.9218038678	 3.2378692132	 1.6946127452	-0.146282
H	-0.8489945358	 1.841294326	 0.4741997575	 0.080748
H	 2.1420449297	 1.3303055279	-0.2341060213	 0.105961
H	 2.0441822458	 3.7530016287	-1.0243286639	 0.129809
H	 0.2818619646	 3.8324009937	-0.5348914808	 0.13717
H	 0.9800724196	 4.5259423525	 3.7438208865	 0.118932
H	 0.9764533862	 2.7698146295	 3.9934235609	 0.117339
H	 3.5321696289	 3.649047913	 3.7284386407	 0.116254
H	 3.8516150173	 3.1114740007	 1.1568614057	 0.117901
67.277	122.8028	138.941	212.0452	308.2013	356.2756	415.9966	452.3886	546.8201	592.564	728.9054	782.5789	829.8051	851.5336	854.1187	889.6695	949.9282	955.9163	967.2543	1039.3189	1041.9219	1054.2004	1068.024	1071.678	1120.2854	1170.2309	1198.7415	1226.7101	1275.2998	1328.6816	1383.9096	1402.9526	1445.4446	1473.2303	1516.6882	1677.289	1808.4468	2897.1356	2980.3782	3019.1164	3130.6109	3174.5171	3218.3096	3223.3392	3241.5129
O=CC1CC11OCC=C1	O=C[C@H]1C[C@]21OCC=C2	
InChI=1S/C7H8O2/c8-5-6-4-7(6)2-1-3-9-7/h1-2,5-6H,3-4H2	InChI=1S/C7H8O2/c8-5-6-4-7(6)2-1-3-9-7/h1-2,5-6H,3-4H2/t6-,7-/m1/s1
