18
gdb 86718	3.4105	1.12303	0.96277	2.9584	71.86	-0.2369	-0.0218	0.2152	1217.9725	0.148526	-439.075398	-439.067213	-439.066269	-439.108788	30.91	
O	 0.0406931111	 1.3913850599	-0.0166551438	-0.437816
C	-0.0166394275	-0.0168071999	-0.1144067862	 0.154706
C	 0.7832084962	-0.7498029043	 1.0016179597	-0.28958
C	 0.0376777304	-2.0796375045	 1.289446889	-0.068722
C	 0.1468389185	-2.4922834556	 2.7410691142	 0.153444
O	 0.6235014075	-3.5271544659	 3.1315975161	-0.252049
C	-1.4013402402	-1.7760089764	 0.8734614169	-0.067411
N	-1.9009106836	-0.4847940407	 1.406048486	-0.350555
C	-1.4234467366	-0.5793692415	 0.007037184	-0.078019
H	-0.4423542946	 1.6237048541	 0.7865178688	 0.287229
H	 0.3899572404	-0.2599734547	-1.1020408666	 0.094317
H	 1.8264819345	-0.9144060829	 0.7267033122	 0.118379
H	 0.7771736409	-0.1153543692	 1.8935323079	 0.115372
H	 0.4253957163	-2.8988091157	 0.6759773615	 0.094498
H	-0.2636825278	-1.7379723694	 3.4500827223	 0.087385
H	-2.103815134	-2.5928634369	 0.7460250591	 0.102087
H	-2.9171161126	-0.5019732049	 1.4199397657	 0.240047
H	-2.1329395891	-0.4598584513	-0.8045723566	 0.09669
68.5421	79.8408	154.514	248.6924	335.3415	384.4948	404.4815	439.7123	466.855	565.7001	629.9672	690.9358	803.8427	842.0381	889.4946	912.5995	916.9888	951.6426	984.3494	1016.3621	1063.525	1082.8123	1095.6346	1108.7239	1131.0365	1167.1374	1200.4432	1253.3177	1256.3646	1298.247	1303.3941	1327.105	1341.2782	1365.6051	1418.6862	1419.4985	1440.6723	1482.3734	1829.6957	2881.0136	3056.0315	3061.9686	3069.2776	3120.7403	3166.1949	3178.0026	3512.3966	3777.69
OC1CC(C=O)C2NC12	O[C@H]1C[C@@H](C=O)[C@H]2N[C@@H]12	
InChI=1S/C6H9NO2/c8-2-3-1-4(9)6-5(3)7-6/h2-7,9H,1H2	InChI=1S/C6H9NO2/c8-2-3-1-4(9)6-5(3)7-6/h2-7,9H,1H2/t3-,4-,5+,6-/m0/s1
