19
gdb 89927	3.24962	1.30084	1.10528	3.5644	80.31	-0.2435	0.0112	0.2546	1145.8144	0.160586	-382.049496	-382.041187	-382.040243	-382.082318	32.015	
C	-0.5113272203	 1.3858126589	-0.0702072108	-0.411921
C	 0.052613417	-0.0281823344	-0.0295236929	 0.023692
C	 1.3468063063	-0.2964376308	-0.8693940055	-0.279382
C	 2.1197801717	-0.5936366207	 0.440444392	 0.241282
N	 2.5851160514	 0.6562908918	 1.1104376884	-0.359163
C	 1.4994400001	 0.5710344102	 2.1251640461	-0.175176
C	 0.7884928708	-0.4974975847	 1.2723046322	-0.109833
C	 3.0236278893	-1.7225651882	 0.4992714145	 0.180543
N	 3.754544295	-2.6184278617	 0.5525156798	-0.344263
H	 0.2631534748	 2.1313292775	 0.1334494817	 0.136711
H	-0.9232153487	 1.6008477855	-1.0619976235	 0.119532
H	-1.3176511682	 1.5175089516	 0.6596438024	 0.116035
H	-0.7372849339	-0.738754582	-0.2880450789	 0.084133
H	 1.2635634899	-1.1644031542	-1.5274369147	 0.116403
H	 1.751305604	 0.5508621163	-1.4264694736	 0.116024
H	 3.5281507475	 0.6091324909	 1.4787922858	 0.234604
H	 1.8211051651	 0.1646383504	 3.0921985864	 0.108327
H	 0.9779517762	 1.517640959	 2.2981618189	 0.109214
H	 0.3558931321	-1.3511117552	 1.7902216715	 0.093239
79.9089	136.1925	185.4486	235.9144	279.8449	326.2672	383.9868	419.4254	542.6416	549.2949	576.03	630.9188	706.1347	758.7097	841.9473	878.1276	927.2794	955.317	981.1124	994.11	1032.0959	1059.8149	1078.6129	1119.0494	1125.0965	1141.9035	1186.2849	1195.0517	1221.1769	1251.0154	1285.0355	1317.3121	1323.4383	1365.1534	1392.1617	1410.4799	1467.1846	1493.6452	1501.0756	1522.1647	2339.2345	3019.9024	3032.0339	3058.7802	3069.8547	3074.7701	3095.9905	3112.0809	3131.307	3132.9062	3545.7075
CC1CC2(NCC12)C#N	C[C@H]1C[C@]2(NC[C@@H]12)C#N	
InChI=1S/C7H10N2/c1-5-2-7(4-8)6(5)3-9-7/h5-6,9H,2-3H2,1H3	InChI=1S/C7H10N2/c1-5-2-7(4-8)6(5)3-9-7/h5-6,9H,2-3H2,1H3/t5-,6-,7-/m0/s1
