21
gdb 92139	2.69492	1.733	1.53543	1.2987	80.23	-0.2481	0.0778	0.3259	979.5591	0.186833	-387.107846	-387.100662	-387.099718	-387.139305	30.225	
O	-0.409011991	 1.3684337247	 0.6298940177	-0.437658
C	-0.0123349724	 0.1198532455	 0.0524165316	 0.097986
C	 0.9726862144	-0.6583839195	 0.9691059514	-0.238538
C	 0.3158848313	-1.9142226216	 1.5662952006	-0.029671
C	-0.0918172952	-2.8498930236	 0.4064474502	-0.221823
C	-1.3325080827	-2.1635094215	-0.1438818595	-0.068255
C	-1.9424223869	-1.3615524579	 0.9905163665	-0.041258
C	-1.0408687824	-1.5321173734	 2.2062394298	-0.222507
C	-1.2974693941	-0.6506854039	-0.1756943576	-0.017917
H	 0.3762395839	 1.9215589112	 0.6966341539	 0.276221
H	 0.4672930415	 0.3113673379	-0.919720181	 0.059954
H	 1.8683871097	-0.9475038162	 0.4069240774	 0.089286
H	 1.2974674625	 0.0158658023	 1.7697224719	 0.088464
H	 0.9956599418	-2.3960067753	 2.2739837191	 0.060318
H	 0.7121886195	-2.9704966816	-0.3290911329	 0.087635
H	-0.3531894682	-3.8486260201	 0.7764552277	 0.09254
H	-1.9501566099	-2.6785798089	-0.8709278568	 0.075291
H	-3.0151785098	-1.2845358317	 1.1233166462	 0.075369
H	-1.414644972	-2.3402198796	 2.8461600129	 0.089157
H	-0.968229239	-0.6248946505	 2.814804537	 0.103166
H	-1.9762690009	-0.1715516861	-0.8741166159	 0.082241
72.473	280.5662	303.3087	330.3164	379.4058	432.8065	492.7621	508.6021	624.5045	682.0117	768.9561	789.7783	822.2991	829.2417	865.8174	908.1768	909.1956	932.8635	976.8941	999.159	1022.2523	1037.6318	1046.9565	1077.1015	1092.8734	1101.9829	1109.8899	1159.7948	1178.597	1182.8685	1195.179	1240.0762	1284.9332	1295.1848	1313.5705	1333.9481	1336.8208	1359.3925	1367.5026	1385.4808	1430.8418	1437.5231	1476.8626	1486.7674	1504.8259	2968.5935	3024.0866	3026.7056	3030.945	3061.6235	3068.7548	3072.3046	3078.5957	3154.7261	3167.4079	3180.4111	3808.0447
OC1CC2CC3C(C2)C13	O[C@H]1C[C@@H]2C[C@H]3[C@@H](C2)[C@@H]13	
InChI=1S/C8H12O/c9-7-3-4-1-5-6(2-4)8(5)7/h4-9H,1-3H2	InChI=1S/C8H12O/c9-7-3-4-1-5-6(2-4)8(5)7/h4-9H,1-3H2/t4-,5+,6-,7-,8+/m0/s1
