19
gdb 32594	2.83671	1.2123	0.91488	1.1823	79.82	-0.1603	0.0678	0.2282	1304.7812	0.159269	-419.234354	-419.224608	-419.223664	-419.269103	36.003	
C	 0.0152978606	 1.5507577222	 0.0945282475	-0.371854
C	-0.0307162391	 0.0241546784	-0.0230244854	-0.152817
N	-1.3787279542	-0.513216211	-0.0015370729	-0.039832
C	-2.0944285237	-0.8913325569	 1.1385240846	-0.204126
C	-3.3586093856	-1.2561788194	 0.7452293102	 0.259732
N	-4.4362634233	-1.6457236897	 1.568301622	-0.605838
C	-3.43560694	-1.0955428115	-0.6753109941	-0.389189
C	-2.2010845691	-0.6373599225	-1.0767493872	 0.391635
O	-1.7012813826	-0.3012245501	-2.2975231263	-0.44811
H	 1.052585668	 1.9013497367	 0.1003094057	 0.112173
H	-0.5002076333	 2.0152821003	-0.7504569607	 0.13455
H	-0.4677204284	 1.8841837452	 1.0176385187	 0.126428
H	 0.4461867257	-0.295485718	-0.9537556736	 0.127961
H	 0.5211357006	-0.4397053189	 0.800860516	 0.111251
H	-1.6259986011	-0.8751034336	 2.1087909245	 0.096196
H	-4.1229253236	-1.9430194112	 2.4842869345	 0.233465
H	-4.9707380883	-2.4015185008	 1.1563791405	 0.235262
H	-4.29075405	-1.2836163576	-1.3066780695	 0.077415
H	-2.3809796428	-0.4740667615	-2.9551502044	 0.305697
48.4662	87.1973	186.7887	212.0957	220.4881	229.5015	295.0838	301.2021	317.1697	405.1365	511.4587	564.8067	591.548	639.2678	646.7043	660.9791	692.4917	787.3997	798.1234	829.3685	964.9163	1003.9748	1089.0591	1101.6572	1108.3742	1151.6052	1190.8545	1225.1356	1264.2641	1331.3798	1378.0533	1395.3226	1410.0619	1443.6682	1482.232	1491.3165	1506.0791	1571.571	1577.7581	1631.5118	1658.901	3040.1957	3051.8979	3094.753	3113.1126	3127.7245	3238.0327	3262.9301	3519.2726	3606.9133	3853.312
CCN1C=C(N)C=C1O	CCn1cc(N)cc1O	
InChI=1S/C6H10N2O/c1-2-8-4-5(7)3-6(8)9/h3-4,9H,2,7H2,1H3	InChI=1S/C6H10N2O/c1-2-8-4-5(7)3-6(8)9/h3-4,9H,2,7H2,1H3
