21
gdb 15086	2.86618	1.53809	1.12871	2.4223	74.73	-0.2374	0.0777	0.3151	1135.5927	0.187775	-366.226973	-366.217443	-366.216499	-366.261553	33.939	
C	 0.1894142405	 0.9383795533	 0.8618084614	-0.39332
C	 0.0865589453	-0.4186861043	 0.1639397159	-0.161774
C	 0.5619707293	-0.3913117658	-1.2942560061	 0.070748
O	 1.944013781	-0.0354578597	-1.3155915667	-0.25195
C	 2.2795305578	 1.0129120898	-2.2004486008	-0.239105
C	 0.3587122646	-1.7435927805	-1.963248016	 0.026073
C	 1.2352129507	-2.2195638426	-3.0577720012	-0.254075
N	 1.3197303217	-2.8288606255	-1.7156910759	-0.321435
H	 1.2224876456	 1.2967003431	 0.85634366	 0.128154
H	-0.4332960271	 1.6910522923	 0.3644469123	 0.108117
H	-0.1400326904	 0.8718869929	 1.9029309639	 0.113801
H	 0.6811146125	-1.1656860888	 0.7031807368	 0.110385
H	-0.9501603544	-0.7766227294	 0.1797351914	 0.096363
H	-0.021015842	 0.3660617168	-1.8416955237	 0.069985
H	 2.0090539252	 0.7822926746	-3.2407588032	 0.109369
H	 1.7903723443	 1.9558044099	-1.9160093708	 0.111489
H	 3.3627952256	 1.1483837833	-2.1417466368	 0.127829
H	-0.6793895838	-2.0731639867	-1.960629971	 0.085589
H	 0.8314222563	-2.8656942837	-3.8323508541	 0.113111
H	 2.0536231322	-1.5812126089	-3.3745766425	 0.113767
H	 2.1277609452	-2.4222029901	-1.2458064629	 0.236881
62.5486	94.1283	117.2288	166.9158	178.7711	211.1858	264.8439	295.7458	351.9955	397.422	501.0826	624.0444	759.3787	795.2498	850.0652	890.1805	936.4802	954.0712	996.45	1012.4962	1051.9242	1104.6084	1119.014	1138.0532	1148.8936	1162.3833	1181.9343	1193.6391	1228.9716	1274.9883	1291.4603	1302.8418	1323.2967	1381.2273	1388.9493	1406.6937	1416.371	1476.6402	1481.8606	1487.801	1497.2194	1502.5169	1507.6183	1513.2838	2975.3243	2989.2274	3031.2553	3033.6522	3037.6781	3068.1561	3100.2939	3110.3963	3113.8181	3118.2953	3120.001	3204.4923	3478.5031
CCC(OC)C1CN1	CC[C@@H](OC)[C@H]1CN1	
InChI=1S/C6H13NO/c1-3-6(8-2)5-4-7-5/h5-7H,3-4H2,1-2H3	InChI=1S/C6H13NO/c1-3-6(8-2)5-4-7-5/h5-7H,3-4H2,1-2H3/t5-,6-/m1/s1
