13
gdb 129023	3.90005	1.2234	0.93127	5.12	82.17	-0.2289	-0.0688	0.1601	1154.5302	0.089635	-411.727865	-411.720237	-411.719292	-411.760391	28.334	
N	 0.0063120865	 1.3418536218	 0.0080300055	-0.526866
C	-0.0148812401	 0.0634170365	 0.0013991053	 0.396342
C	-1.2510021294	-0.6920866328	 0.0040084279	-0.294487
C	-1.1914255087	-2.0431726606	-0.0034739538	 0.314477
N	 0.0644639717	-2.6311877166	-0.0133104811	-0.335104
N	 1.2290120084	-1.9438673568	-0.0158522851	-0.034935
N	 1.2127790929	-0.6861358178	-0.0090963967	-0.249016
C	-2.3047674155	-2.9215522715	-0.0021735773	 0.249566
C	-3.2249301842	-3.6968189566	-0.0013711212	-0.388559
H	 0.9801734181	 1.6547270289	 0.0044893035	 0.224479
H	-2.1973446037	-0.1699678359	 0.011840655	 0.140536
H	 0.1779668852	-3.6317433444	-0.0191959778	 0.284926
H	-4.0492467912	-4.3676699443	-0.0005530343	 0.218641
75.7495	126.3785	141.9503	346.6207	404.269	411.3658	467.6946	537.2765	537.7706	563.0806	621.634	667.264	690.3141	740.2801	755.8296	890.7839	902.829	918.1314	1041.1999	1058.6159	1122.3417	1193.7882	1308.5904	1361.1957	1430.1133	1589.3181	1650.6967	1706.3281	2235.2957	3239.8261	3454.0758	3496.1806	3658.5025
N=C1C=C(NN=N1)C#C	[NH]c1cc([nH]nn1)C#C	
InChI=1S/C5H4N4/c1-2-4-3-5(6)8-9-7-4/h1,3H,(H2,6,7,8)	InChI=1S/C5H9N4/c1-2-4-3-5(6)8-9-7-4/h1,4-9H,3H2
