22
gdb 88690	3.16419	0.95245	0.87599	1.5391	84.31	-0.2176	0.0749	0.2924	1444.741	0.191843	-404.298346	-404.288299	-404.287355	-404.33341	37.875	
C	 2.8354726459	-0.3309573839	 0.1422367053	-0.307248
N	 1.677262353	-1.1880978877	 0.345514045	-0.089718
C	 1.8189276813	-2.3163384981	 1.258129116	-0.262182
C	 0.9578342936	-1.1526909984	 1.6244499055	 0.00041
C	 1.3381891091	-0.2348858593	 2.7422454841	-0.042325
C	 0.584569399	 1.0686948736	 2.9832834452	-0.365237
C	 0.4972036164	-0.0623809177	 3.9788642599	 0.383028
C	-0.8019250969	-0.8043781732	 4.1980555173	-0.446811
O	 1.2792300285	 0.05615596	 5.1437167104	-0.465539
H	 3.5112814792	-0.2535477948	 1.0081782256	 0.099716
H	 3.4153717727	-0.7249651754	-0.698673506	 0.120481
H	 2.4998850474	 0.6774112345	-0.1200118887	 0.123136
H	 1.3848398411	-3.2588430579	 0.9329228837	 0.110295
H	 2.7590075629	-2.4160213855	 1.8016288144	 0.104889
H	-0.1163533965	-1.2635890127	 1.4849342173	 0.082489
H	 2.3989488683	-0.1840883719	 2.9624632786	 0.098539
H	 1.1675391035	 1.9397970162	 3.2607261169	 0.111275
H	-0.2814270218	 1.2731424861	 2.3608212989	 0.10997
H	-1.3880704063	-0.8883773921	 3.2797982462	 0.121769
H	-0.6112888917	-1.8108833252	 4.5836112595	 0.128522
H	-1.4205584946	-0.2731311486	 4.9321797403	 0.106233
H	 0.803811346	 0.627092802	 5.7582881449	 0.278309
41.1831	113.3071	153.176	183.59	215.4937	239.1776	295.8165	329.3008	377.46	380.2537	409.5844	443.5691	453.4195	554.3532	712.0376	735.3377	832.4429	874.9727	906.5814	924.2426	925.4246	970.9858	1030.1212	1037.4647	1046.6683	1074.9722	1096.8106	1112.1178	1125.5697	1132.7244	1162.0473	1202.6209	1213.7393	1239.087	1289.667	1318.8516	1341.3697	1380.083	1417.7496	1446.0778	1449.537	1479.4332	1487.9777	1489.8126	1499.4637	1508.6762	1516.7916	2978.1399	3026.2529	3065.7759	3080.7652	3089.1225	3101.345	3107.6579	3123.0273	3126.7278	3165.1549	3170.9779	3218.3816	3784.9852
CN1CC1C1CC1(C)O	CN1C[C@H]1[C@H]1C[C@]1(C)O	
InChI=1S/C7H13NO/c1-7(9)3-5(7)6-4-8(6)2/h5-6,9H,3-4H2,1-2H3	InChI=1S/C7H13NO/c1-7(9)3-5(7)6-4-8(6)2/h5-6,9H,3-4H2,1-2H3/t5-,6+,7+,8?/m1/s1
