21
gdb 74000	2.68218	1.8534	1.40979	0.5308	89.23	-0.2056	0.0089	0.2145	1012.3676	0.184345	-349.915701	-349.908255	-349.90731	-349.947109	30.89	
C	-0.154455962	 1.4174302076	-0.0376637635	-0.48886
C	-0.0024385328	-0.0487600219	 0.2099477983	 0.238113
C	-0.9795818574	-0.9404476816	 0.42549939	 0.059844
C	-2.2775365183	-1.1867395399	-0.3313316837	-0.294288
C	-1.4937805217	-2.4112151323	-0.9359176229	-0.020572
C	-0.2334908573	-2.105898335	-1.828575124	-0.243307
C	 0.7444768707	-2.1585009669	-0.5826362075	-0.018365
C	 1.3011810249	-0.8014089962	-0.0926298309	-0.304005
C	-0.5154510873	-2.3832255538	 0.2776782929	-0.05793
H	 0.4110360517	 2.0076278146	 0.6958848037	 0.126131
H	 0.2341240675	 1.7015789649	-1.0251512112	 0.117527
H	-1.201035311	 1.7295220585	 0.0263587959	 0.121551
H	-3.1164006166	-1.5539908769	 0.2714177571	 0.102621
H	-2.6308243606	-0.3902829941	-0.9933819118	 0.096639
H	-2.0846623835	-3.2847063927	-1.2224121777	 0.063335
H	-0.0406385807	-2.9196747786	-2.5316918727	 0.100632
H	-0.2510093674	-1.1680109479	-2.3909889511	 0.095419
H	 1.4884228183	-2.9578208534	-0.6440487885	 0.052727
H	 1.874921972	-0.2727931208	-0.8649291268	 0.096189
H	 1.9757312171	-0.922949127	 0.7676459139	 0.097503
H	-0.5682860758	-3.0635758767	 1.1293990404	 0.059096
144.1463	175.3482	223.1285	331.3224	351.6477	357.5476	475.1109	569.6972	591.4666	691.1893	720.7904	760.4899	802.0259	845.0573	872.3846	886.6723	920.0587	930.0255	958.9079	965.3614	1001.9726	1016.5325	1041.76	1074.0726	1078.3869	1103.1104	1129.6092	1145.7293	1168.7835	1209.6073	1217.357	1225.3988	1234.4155	1269.2916	1286.4865	1293.9686	1298.894	1334.872	1409.615	1467.6989	1472.4463	1480.6231	1484.5978	1488.1797	1705.9686	2996.4228	3006.6513	3029.4062	3041.6473	3049.0892	3053.669	3064.6829	3070.9257	3087.088	3093.7538	3102.292	3110.8506
CC1=C2CC3CC(C1)C23	C[C]1[C]2C[C@H]3C[C@@H](C1)[C@@H]23	
InChI=1S/C9H12/c1-5-2-6-3-7-4-8(5)9(6)7/h6-7,9H,2-4H2,1H3	InChI=1S/C9H12/c1-5-2-6-3-7-4-8(5)9(6)7/h6-7,9H,2-4H2,1H3/t6-,7-,9-/m1/s1
