20
gdb 102730	2.83158	0.96924	0.76322	3.4485	80.38	-0.2813	0.0198	0.3011	1506.049	0.169414	-403.136183	-403.126231	-403.125286	-403.172036	35.236	
C	-0.3080670927	 1.2289849802	 0.0966823756	-0.248881
O	 0.1216025365	-0.1205795919	 0.1374665151	-0.223579
C	 0.6918804712	-0.5830310109	-1.0628882551	-0.017202
C	 1.3370655673	-1.9549050348	-0.8057812354	-0.229925
C	 2.5519856523	-1.874950042	 0.0913324455	 0.018945
C	 2.4051319717	-1.8559640137	 1.5908933138	-0.24158
C	 2.9651404601	-3.076308158	 0.9062681384	-0.284051
C	-0.3289570541	-0.676235992	-2.1355650548	 0.266945
N	-1.1302597766	-0.74370475	-2.9655861895	-0.325548
H	 0.525990335	 1.907137474	-0.13702756	 0.112484
H	-1.1048114876	 1.3796193029	-0.6441595276	 0.13455
H	-0.6936378596	 1.4655482447	 1.0899994741	 0.138278
H	 1.4634951814	 0.1220044866	-1.4171461986	 0.109266
H	 0.574096627	-2.6041589015	-0.3625546935	 0.123386
H	 1.606171227	-2.3912827163	-1.7746585074	 0.121137
H	 3.3654892889	-1.2791589515	-0.3168748335	 0.082367
H	 3.0802115713	-1.2311273888	 2.1649628836	 0.111148
H	 1.4005010512	-1.9104948684	 1.9934775353	 0.123867
H	 2.3403158282	-3.9619918667	 0.8532526817	 0.114358
H	 4.0237781316	-3.288185132	 1.0060166224	 0.114035
48.5543	84.1371	94.9584	124.719	175.9682	228.7382	260.7229	287.2897	340.6906	367.5213	471.8831	569.8238	599.7232	772.2304	799.5538	833.8074	847.5424	916.0296	939.0373	968.938	1047.142	1048.9871	1065.8368	1077.1733	1135.5063	1145.3728	1157.6225	1184.2057	1196.8366	1222.062	1232.9933	1272.1249	1308.1313	1360.0858	1369.9197	1421.5789	1467.5092	1473.6663	1480.7006	1488.7781	1508.311	1509.1467	2351.0095	2962.1468	2991.3634	3040.1015	3051.3514	3084.348	3129.1829	3132.0813	3132.3927	3142.691	3211.961	3230.0015
COC(CC1CC1)C#N	CO[C@@H](CC1CC1)C#N	
InChI=1S/C7H11NO/c1-9-7(5-8)4-6-2-3-6/h6-7H,2-4H2,1H3	InChI=1S/C7H11NO/c1-9-7(5-8)4-6-2-3-6/h6-7H,2-4H2,1H3/t7-/m0/s1
