22
gdb 108316	2.76788	1.29524	1.03873	1.982	83.07	-0.209	0.0702	0.2792	1266.2832	0.193316	-404.303882	-404.294612	-404.293668	-404.337788	35.022	
C	 0.0174411444	 1.5354877483	 0.0030310137	-0.382725
C	 0.0375564903	 0.0046459262	 0.1047073159	-0.268617
C	-1.3496787009	-0.5833850199	 0.0224811207	 0.459977
C	-2.3375227779	-0.4387487101	 1.2049820395	-0.223133
N	-2.8241047503	-1.8211756602	 0.9677400606	-0.074438
C	-2.9150357726	-2.7020051922	 2.1098264858	-0.325252
C	-1.7620515908	-2.0797026617	-0.0306972107	-0.11915
C	-2.2350254598	-1.7678216718	-1.4561961791	-0.080627
O	-1.9804803481	-0.3521479859	-1.2650595492	-0.341376
H	 1.0319238283	 1.9438886965	 0.0209468451	 0.11159
H	-0.4628126757	 1.8475302509	-0.9283561827	 0.140992
H	-0.5375803633	 1.9821326493	 0.8350095641	 0.117383
H	 0.644037544	-0.4131481563	-0.7077669075	 0.10109
H	 0.5038316875	-0.3098696878	 1.0465781901	 0.095441
H	-1.8136540701	-0.3242960528	 2.1677168572	 0.083614
H	-3.1040160284	 0.3372622394	 1.1132579221	 0.10847
H	-3.7037697572	-2.3499403105	 2.7833279032	 0.122811
H	-3.1847518002	-3.7114032662	 1.781484144	 0.119877
H	-1.9781432401	-2.7716968519	 2.6968829592	 0.086239
H	-1.1033726488	-2.9309632936	 0.1594188587	 0.068826
H	-1.6036826271	-2.17768315	-2.256084563	 0.093017
H	-3.2893374434	-1.9803981898	-1.6590016876	 0.105993
82.2221	105.3757	168.5966	214.3653	221.1731	256.5881	302.786	344.6177	359.1388	381.8542	457.1072	625.8887	686.1656	762.7704	787.2909	877.856	926.0326	946.3807	970.6169	981.2589	996.3755	1013.9876	1024.4936	1060.7388	1099.2355	1122.7674	1154.392	1163.1825	1178.9628	1188.4179	1218.611	1231.1498	1271.0466	1293.0113	1329.683	1340.2852	1352.4091	1386.9664	1409.261	1454.5835	1476.7709	1484.3102	1499.3789	1500.7609	1502.6576	1504.1549	1509.9054	2913.0281	2972.0648	3007.0318	3027.1928	3039.5401	3053.3146	3063.3975	3071.4875	3076.0982	3081.7526	3096.8887	3105.9902	3122.6801
CCC12CN(C)C1CO2	CC[C@]12CN(C)[C@H]1CO2	
InChI=1S/C7H13NO/c1-3-7-5-8(2)6(7)4-9-7/h6H,3-5H2,1-2H3	InChI=1S/C7H13NO/c1-3-7-5-8(2)6(7)4-9-7/h6H,3-5H2,1-2H3/t6-,7-/m0/s1
