12
gdb 127543	3.2204	1.37912	0.97152	4.7806	76.06	-0.2274	-0.0955	0.1319	1104.871	0.077565	-464.941949	-464.934345	-464.9334	-464.974638	26.484	
C	-0.0275060789	 1.384064365	 0.0944025767	-0.306414
N	 0.0132064443	-0.060847443	-0.0733505852	 0.195352
N	 0.1671948771	-0.5746395767	-1.2806236167	-0.337406
C	 0.1653526523	-1.9592826931	-1.1011648617	 0.347997
O	 0.2803003183	-2.8293672837	-1.9333339497	-0.369392
N	-0.1277988433	-4.208767012	 1.5399837156	-0.176093
N	-0.0830518504	-3.1830572758	 1.0697079905	 0.145116
C	-0.0140157359	-2.072650345	 0.3837908035	 0.293765
N	-0.1018824579	-0.8382328024	 0.9649451475	-0.310941
H	 0.9075885766	 1.8077623036	-0.2763871104	 0.17376
H	-0.8578335643	 1.782901677	-0.4911805152	 0.173754
H	-0.1594102679	 1.5937955161	 1.1539158451	 0.170501
94.3713	134.119	144.1376	195.8828	321.0508	347.4022	443.3591	524.1563	559.0627	642.2163	663.3612	667.4636	744.4337	835.5457	1020.2934	1089.8183	1122.4734	1148.6775	1239.8365	1350.7875	1409.3207	1446.7015	1469.7626	1471.4341	1514.0353	1808.3596	2225.6783	3072.8355	3149.264	3191.1529
CN1N=C2ON=NC2=N1	Cn1nc(=O)c([N][N])n1	
InChI=1S/C3H3N5O/c1-8-5-2-3(6-8)9-7-4-2/h1H3	InChI=1S/C3H6N5O/c1-8-6-2(5-4)3(9)7-8/h2,6H,1H3,(H,7,9)
