16
gdb 19896	4.08175	1.76633	1.54427	3.1043	68.4	-0.2203	-0.0248	0.1954	849.837	0.129924	-346.526651	-346.519829	-346.518885	-346.558267	26.283	
O	-0.4698855127	 0.6092524916	-1.0974423678	-0.255053
C	-0.0605784364	 1.084515942	-0.0681523888	 0.104167
C	 1.0999289371	 2.0422608383	-0.0013741493	-0.10926
C	 1.1774837397	 3.5320067907	-0.2916741309	-0.07546
C	 0.0471982711	 4.4163304456	 0.2896927482	-0.041163
C	-1.0138895794	 3.6616462945	 1.0327342854	-0.310575
C	 0.332534434	 3.8593589949	 1.6773798384	-0.055767
C	 1.486058507	 2.9878145773	 1.0982524406	-0.101157
H	-0.4821355357	 0.7761667762	 0.9145613921	 0.090745
H	 1.9737180588	 1.5580607258	-0.4398539349	 0.124574
H	 1.8719500568	 3.9013577519	-1.0351706799	 0.099468
H	-0.0793003967	 5.4477417054	-0.011910838	 0.095172
H	-1.7915542174	 4.2924967744	 1.4550762182	 0.119021
H	-1.3912504787	 2.702877671	 0.6961936742	 0.126248
H	 0.4422953803	 4.4016397285	 2.6071121669	 0.095141
H	 2.4491668023	 2.9302099619	 1.5897712956	 0.093899
43.975	136.7402	291.2272	354.9403	384.8117	550.2135	632.5818	678.6674	706.3367	721.5209	782.1631	861.0587	871.2099	902.8262	921.9582	971.1435	999.4881	1021.2556	1026.9756	1043.287	1055.9666	1067.1428	1080.4137	1096.2494	1175.3236	1208.8088	1259.7864	1288.6609	1323.723	1336.2371	1404.1941	1432.0499	1497.0767	1810.5289	2875.2067	3107.9443	3127.548	3182.2595	3191.624	3195.8877	3201.4058	3209.7325
O=CC1C2C3CC3C12	O=C[C@H]1[C@H]2[C@H]3C[C@H]3[C@@H]12	
InChI=1S/C7H8O/c8-2-5-6-3-1-4(3)7(5)6/h2-7H,1H2	InChI=1S/C7H8O/c8-2-5-6-3-1-4(3)7(5)6/h2-7H,1H2/t3-,4+,5-,6+,7-
