12
gdb 130505	4.23863	1.72394	1.2255	2.8827	67.1	-0.2772	-0.0771	0.2001	895.5089	0.081819	-431.701585	-431.696028	-431.695083	-431.731552	21.674	
O	-0.1184444864	 1.2704748426	 0.0102393026	-0.228029
N	 1.1551588299	 1.8760078568	 0.0010901992	-0.099306
C	 2.0414516703	 0.9213754613	-0.0127223916	-0.095729
C	 1.4221261069	-0.3671092771	-0.013704242	 0.100303
C	 0.0557458717	-0.0599953151	 0.0012822462	 0.487652
N	-0.9381307494	-0.929800334	 0.006229397	-0.332263
C	-0.505325357	-2.1928436081	-0.004892528	 0.074812
N	 0.7646338319	-2.6355406106	-0.0196488781	-0.259779
C	 1.7351279007	-1.7249055493	-0.0241425377	-0.077373
H	 3.0900438721	 1.1843631777	-0.0215091234	 0.155483
H	-1.274466709	-2.9599543314	-0.0015075243	 0.1376
H	 2.7596906585	-2.0886537528	-0.0361048533	 0.136628
224.5828	243.0058	422.3506	439.0065	563.3369	604.9983	637.7534	662.7831	795.3551	832.3445	886.7021	902.7572	916.3838	951.8728	959.7713	1013.0052	1140.2462	1206.9291	1258.5732	1293.3741	1321.2691	1358.3941	1414.9951	1466.1174	1547.0345	1623.0531	1638.6945	3163.3735	3182.7573	3243.7444
O1N=CC2=C1N=CN=C2	o1ncc2c1ncnc2	
InChI=1S/C5H3N3O/c1-4-2-8-9-5(4)7-3-6-1/h1-3H	InChI=1S/C5H3N3O/c1-4-2-8-9-5(4)7-3-6-1/h1-3H
