12
gdb 5348	6.0286	1.54364	1.22896	2.0541	69.26	-0.2788	-0.0756	0.2032	889.37	0.08726	-340.456824	-340.450851	-340.449907	-340.487041	22.146	
N	 0.0174672556	-1.1649323049	-0.0036385865	-0.318555
C	 0.0022658745	-0.0079711771	 0.0032874725	 0.213972
C	-0.0172006222	 1.42344608	 0.0108780389	 0.196716
C	-1.2289637423	 2.1209682517	 0.030717505	-0.198472
C	-1.1866382188	 3.5109076611	 0.0373230478	 0.023261
N	-0.055223416	 4.2206735481	 0.0258076583	-0.256864
C	 1.0950627084	 3.5420831352	 0.0068879869	 0.023258
C	 1.1751535408	 2.1538167859	-0.0013498945	-0.198466
H	-2.1734380754	 1.5910256968	 0.040653173	 0.131102
H	-2.111577498	 4.0814732565	 0.0526677115	 0.126479
H	 2.0041506963	 4.1377080345	-0.0022274202	 0.126477
H	 2.1336808971	 1.6498761822	-0.0167981328	 0.131093
147.5866	166.8169	382.0766	396.5397	457.1809	567.3335	593.9941	683.2726	764.914	779.5687	853.4688	896.7011	997.5673	1006.8189	1007.1004	1094.4519	1108.6708	1223.9279	1249.7184	1278.3017	1354.3829	1440.7502	1522.1401	1588.0761	1629.3031	2350.5459	3164.6376	3167.6095	3214.4042	3214.65
N#CC1=CC=NC=C1	N#Cc1ccncc1	
InChI=1S/C6H4N2/c7-5-6-1-3-8-4-2-6/h1-4H	InChI=1S/C6H4N2/c7-5-6-1-3-8-4-2-6/h1-4H
