18
gdb 50752	3.2481	1.1778	0.90296	2.863	74.22	-0.2448	-0.0235	0.2213	1249.7456	0.147972	-439.100125	-439.091775	-439.090831	-439.133872	30.592	
O	-0.7977533512	 0.9071319996	 0.7946473632	-0.252376
C	 0.1618057072	 0.8126122841	 0.0751485457	 0.152974
C	 1.2691679832	 1.8648934125	-0.033922032	-0.05271
C	 1.3970062776	 2.670003172	 1.2636394509	-0.201702
C	 2.3211532213	 3.8765144272	 1.1245172704	-0.230523
C	 3.7842013898	 3.4859763579	 0.9724670328	-0.060246
O	 4.1482986121	 2.8549033242	-0.2634311819	-0.226985
C	 3.5980943521	 1.6824736835	-0.6662900289	 0.125171
N	 2.437739008	 1.1979248818	-0.5723388634	-0.270569
H	 0.3220140927	-0.0587376904	-0.5955321731	 0.094526
H	 0.908118757	 2.5571040882	-0.8182295141	 0.118641
H	 0.3891582291	 2.9788662756	 1.5544448163	 0.127023
H	 1.7631917374	 2.010241621	 2.0608950941	 0.104908
H	 2.0165846409	 4.5038651198	 0.2771128234	 0.10869
H	 2.2506994393	 4.5017711567	 2.023099706	 0.108684
H	 4.4261084602	 4.3693268971	 1.0120862985	 0.121131
H	 4.0739775888	 2.8174407535	 1.7950404983	 0.110905
H	 4.3519462646	 1.1156557557	-1.2151848263	 0.122457
47.9673	108.0727	152.4324	205.899	284.1785	348.7114	359.0055	391.0838	491.2268	542.7951	614.9953	746.7427	780.6649	832.6833	863.101	933.5651	954.4267	973.2084	988.0408	1075.308	1081.3094	1106.5868	1142.156	1166.3386	1216.0586	1248.349	1283.9121	1316.9308	1325.2065	1370.0838	1389.102	1395.5452	1420.8122	1437.3916	1473.2288	1482.4467	1498.8242	1754.7902	1836.4355	2911.72	2934.2873	3014.4623	3025.6951	3031.4171	3069.8233	3097.7611	3102.2652	3125.1595
O=CC1CCCOC=N1	O=C[C@H]1CCCOC=N1	
InChI=1S/C6H9NO2/c8-4-6-2-1-3-9-5-7-6/h4-6H,1-3H2	InChI=1S/C6H9NO2/c8-4-6-2-1-3-9-5-7-6/h4-6H,1-3H2/t6-/m1/s1
