14
gdb 8669	2.75045	1.75228	1.48619	1.2583	54.64	-0.263	-0.0538	0.2092	883.8239	0.103849	-456.81527	-456.806773	-456.805829	-456.848507	29.559	
O	 0.0164565974	 1.3285933064	 0.4085561679	-0.428793
C	-0.0439415689	-0.0856087458	 0.4189144487	-0.121494
C	-1.4946227532	-0.5287780247	 0.1181485106	 0.168665
O	-2.4000894616	 0.188026795	 0.9392944784	-0.463424
C	-1.8678676686	-0.201918118	-1.3379131731	 0.147805
O	-1.2216068956	 0.5398810364	-2.0369467751	-0.266652
C	-1.6614858909	-2.009445394	 0.3995807786	 0.121597
O	-1.4548688509	-2.8575289708	-0.4300764305	-0.245101
H	-0.0868359995	 1.5856882212	-0.5189562395	 0.306358
H	 0.6420941852	-0.5416838206	-0.3037903979	 0.131107
H	 0.2377137229	-0.4071855069	 1.4261623173	 0.126436
H	-1.9840434294	 1.0556527755	 1.0697439782	 0.30127
H	-2.8272840487	-0.634649931	-1.6824675681	 0.117567
H	-1.9753172383	-2.2406651428	 1.4398600946	 0.104658
85.9985	91.111	155.3959	198.009	238.4439	287.7207	318.7001	353.1039	453.3462	525.1284	572.1154	661.0603	672.4706	795.0588	941.8917	945.3983	988.233	1071.5873	1087.4573	1127.0301	1181.1644	1264.6449	1363.8179	1371.4243	1404.3477	1421.4043	1436.6834	1491.1604	1807.4295	1826.0668	2915.7377	2950.2683	3041.6468	3099.2294	3693.6745	3746.5848
OCC(O)(C=O)C=O	OCC(O)(C=O)C=O	
InChI=1S/C4H6O4/c5-1-4(8,2-6)3-7/h1-2,7-8H,3H2	InChI=1S/C4H6O4/c5-1-4(8,2-6)3-7/h1-2,7-8H,3H2
