14
gdb 129544	3.32604	1.14385	1.04545	2.6072	69.9	-0.2653	-0.0468	0.2185	1149.0404	0.099948	-432.79241	-432.784112	-432.783168	-432.82605	29.909	
N	 0.016268002	 1.4482773168	 0.1002691034	-0.49186
C	-0.0563821645	-0.015749426	-0.0060897745	-0.287215
C	-1.4474875625	-0.4645420889	 0.0886352687	 0.36053
C	-2.5856386265	-0.8405273475	 0.1501749985	-0.443456
C	 0.5935783651	-0.5733035157	-1.2516149045	 0.429549
C	 1.6472028882	-1.411489482	-1.4510029506	-0.218861
N	 1.8241628106	-1.5158196623	-2.8105146493	-0.104572
N	 0.9828145515	-0.8203358153	-3.426671466	-0.00464
O	 0.1446792824	-0.1774876209	-2.4395886467	-0.221794
H	 0.9849831021	 1.7437235415	 0.0113878307	 0.239243
H	-0.4916494141	 1.8653668457	-0.6748786858	 0.250472
H	 0.4993429097	-0.4310763451	 0.8441719341	 0.136912
H	-3.5938800716	-1.1701771557	 0.2084383859	 0.210866
H	 2.2709388776	-1.9360492045	-0.7479713838	 0.144825
47.2613	101.0068	172.3077	195.0166	262.8502	320.9073	386.7582	448.2116	561.5431	601.2342	646.2637	669.7423	697.2264	742.0199	763.744	826.1001	898.3424	914.5328	986.3933	1048.3858	1111.8368	1117.7253	1198.2837	1238.9862	1282.5579	1388.1866	1398.8333	1461.9015	1590.1986	1656.3175	2248.5406	3033.7886	3291.6716	3487.5689	3502.5559	3573.1322
NC(C#C)C1=CN=NO1	N[C@@H](C#C)c1cnno1	
InChI=1S/C5H5N3O/c1-2-4(6)5-3-7-8-9-5/h1,3-4H,6H2	InChI=1S/C5H5N3O/c1-2-4(6)5-3-7-8-9-5/h1,3-4H,6H2/t4-/m0/s1
