18
gdb 124695	3.97953	0.99314	0.85824	3.418	73.07	-0.257	0.011	0.268	1336.7543	0.148927	-435.290644	-435.281691	-435.280747	-435.325246	32.129	
C	 0.1968314218	 1.4146097887	 0.2145923716	-0.393238
C	-0.0609368607	-0.0819126938	-0.0410328473	-0.073982
C	-1.5552500316	-0.396623576	-0.1233514516	-0.08088
O	-2.1300777535	-0.0569919855	 1.1319983138	-0.427093
C	 0.6699731847	-0.5499035829	-1.2642666819	 0.346187
N	 0.0625093574	-0.9239924238	-2.3822106092	-0.276999
N	 1.1057702664	-1.2363682367	-3.1904013423	-0.183673
C	 2.2699592623	-1.0414106651	-2.5419768781	 0.014978
N	 2.0381839993	-0.6072615125	-1.3211637108	-0.30466
H	 1.2677452871	 1.6072228594	 0.3140853828	 0.129054
H	-0.183404224	 2.0186111936	-0.6169604774	 0.110008
H	-0.3115577848	 1.7273645105	 1.1286514947	 0.132499
H	 0.3439447895	-0.6411623084	 0.8119733753	 0.104943
H	-2.0103560746	 0.1785598587	-0.9433612338	 0.096681
H	-1.6981020998	-1.4621105301	-0.353808616	 0.093896
H	-3.0799897827	-0.1887816374	 1.0697174438	 0.285994
H	 0.9362624932	-1.5635170946	-4.1269621451	 0.280373
H	 3.23536961	-1.2268939341	-2.9887589285	 0.145913
33.052	105.5413	150.1504	188.2582	238.9295	245.7909	298.1443	368.8867	420.2753	471.6103	526.9448	679.5949	726.2925	789.3866	857.4831	885.7673	933.8215	988.9303	1001.6058	1045.7162	1074.2765	1103.4067	1118.1167	1160.0848	1169.2117	1221.4326	1263.6293	1279.0739	1314.0172	1351.6279	1370.3268	1394.6085	1459.5538	1470.7478	1481.0188	1498.6753	1509.2848	1519.9468	1554.283	2987.8369	3017.28	3035.9095	3043.188	3113.5137	3140.4813	3257.0052	3668.1387	3838.4444
CC(CO)C1=NNC=N1	C[C@@H](CO)c1n[nH]cn1	
InChI=1S/C5H9N3O/c1-4(2-9)5-6-3-7-8-5/h3-4,9H,2H2,1H3,(H,6,7,8)	InChI=1S/C5H9N3O/c1-4(2-9)5-6-3-7-8-5/h3-4,9H,2H2,1H3,(H,6,7,8)/t4-/m0/s1
