20
gdb 58704	1.9671	1.49138	1.22067	3.2325	78.79	-0.2785	0.0259	0.3044	1163.5565	0.170086	-403.15831	-403.148736	-403.147792	-403.192566	35.623	
C	 0.0918075315	 1.4149587309	-0.2198698133	-0.426758
C	-0.1077634773	-0.0820168533	 0.0125637381	 0.081118
O	 0.6410272759	-0.5451006353	 1.1240523457	-0.434249
C	-1.597562026	-0.494729717	 0.1532416139	 0.15912
C	-2.3971447923	-0.4528320994	-1.1953755948	-0.266479
C	-2.2078560143	-1.9869923647	-1.3318626553	-0.218343
C	-1.7766433253	-2.0512933663	 0.1572418648	-0.259145
C	-2.1906291133	 0.2048310039	 1.2863701162	 0.227425
N	-2.6354887149	 0.7592765122	 2.1997297661	-0.359093
H	 1.1583869872	 1.629037981	-0.3241527179	 0.13155
H	-0.4188366661	 1.7573401805	-1.1247316284	 0.123171
H	-0.2968540741	 1.9947559464	 0.6246322093	 0.13799
H	 0.2911703769	-0.6390944688	-0.8435039151	 0.09407
H	 0.3750037661	-0.0313785377	 1.8965797894	 0.292457
H	-3.4388941541	-0.1659662219	-1.0414756399	 0.125986
H	-1.9731271485	 0.1810955552	-1.9770971291	 0.112564
H	-3.093339246	-2.5615553015	-1.6078889938	 0.112047
H	-1.4005004156	-2.2527944899	-2.0182726873	 0.113636
H	-0.8738013912	-2.6070301699	 0.4132837132	 0.131408
H	-2.5870041787	-2.3673661346	 0.8165482381	 0.121525
85.8173	98.786	142.6	181.2498	205.1496	238.054	293.2153	335.7399	363.5349	434.8806	481.7566	532.7408	572.5572	665.223	701.5518	793.8498	825.1805	874.2391	924.1006	949.8243	958.5672	1017.0398	1037.9282	1060.1689	1091.4333	1115.1718	1145.4832	1201.0161	1214.3878	1257.0227	1263.9903	1276.2405	1293.1463	1316.1535	1357.5386	1409.6685	1423.5627	1477.3828	1485.9203	1493.1152	1495.8647	1506.2109	2338.7382	3039.372	3044.1085	3070.9087	3075.0794	3082.2452	3110.478	3116.2098	3125.5441	3132.9065	3143.459	3782.9203
CC(O)C1(CCC1)C#N	C[C@@H](O)C1(CCC1)C#N	
InChI=1S/C7H11NO/c1-6(9)7(5-8)3-2-4-7/h6,9H,2-4H2,1H3	InChI=1S/C7H11NO/c1-6(9)7(5-8)3-2-4-7/h6,9H,2-4H2,1H3/t6-/m1/s1
