21
gdb 120974	3.49575	0.89551	0.87937	2.8723	77.74	-0.2559	0.0805	0.3364	1421.3706	0.183203	-424.215543	-424.206682	-424.205737	-424.249661	33.359	
O	-0.4838208166	 1.4482269811	 0.5083010977	-0.420023
C	-0.147393524	 0.1042520806	 0.1958246787	-0.08021
C	-1.4402333342	-0.7026365939	 0.1673079888	-0.17453
C	-1.2396716817	-2.1780521217	-0.2159291322	-0.00097
C	-0.5607215804	-3.0219849853	 0.9088185941	-0.257301
C	-1.6950115474	-3.7518652136	 1.5968745642	 0.058325
O	-2.7893115976	-2.8979149779	 1.9648504778	-0.254837
C	-2.8999658927	-3.6784009418	 0.7646394693	 0.058106
C	-2.5917280323	-2.9025619486	-0.4979091469	-0.266632
H	 0.3299739734	 1.9577762384	 0.5582178511	 0.283856
H	 0.3512106308	 0.0372578731	-0.7864662327	 0.077868
H	 0.5521051206	-0.309344113	 0.9398621728	 0.08306
H	-1.9343950289	-0.6352594868	 1.1408985021	 0.12811
H	-2.1067586343	-0.2257076128	-0.5615004431	 0.098653
H	-0.619813413	-2.2085000526	-1.1191460495	 0.06916
H	 0.1321261472	-3.76180748	 0.4897625637	 0.099018
H	 0.0127237444	-2.4036354227	 1.6065018407	 0.10983
H	-1.4965642559	-4.572229892	 2.2827548203	 0.089934
H	-3.6760618818	-4.4400362013	 0.7770821329	 0.090487
H	-3.3876550807	-2.1984762907	-0.7608550153	 0.109881
H	-2.4966460949	-3.6114295187	-1.3296507745	 0.098215
75.7809	80.0719	130.3437	190.4324	265.9134	296.8414	320.8142	392.4613	409.8153	468.4986	664.4968	743.4034	791.688	818.3609	835.1862	863.8932	911.1986	912.7514	952.8033	969.3943	1015.981	1033.0697	1046.0414	1073.5955	1089.4193	1117.3165	1139.6605	1198.5801	1215.6247	1218.1508	1251.7753	1255.9656	1278.1463	1309.3161	1319.0072	1323.0374	1331.4833	1364.3604	1383.6412	1446.136	1461.9267	1477.1961	1488.1639	1500.4846	1527.3657	2951.3749	2982.2291	3025.4993	3033.773	3037.3724	3045.7119	3081.1271	3082.8567	3101.8229	3135.726	3148.9247	3830.6178
OCCC1CC2OC2C1	OCC[C@H]1C[C@H]2O[C@H]2C1	
InChI=1S/C7H12O2/c8-2-1-5-3-6-7(4-5)9-6/h5-8H,1-4H2	InChI=1S/C7H12O2/c8-2-1-5-3-6-7(4-5)9-6/h5-8H,1-4H2/t5-,6+,7-
