18
gdb 36375	4.97748	0.74745	0.70098	5.2878	77.94	-0.2761	0.0298	0.3059	1596.0375	0.146871	-401.926469	-401.917568	-401.916624	-401.961419	32.055	
N	 0.1846920768	-1.0317908076	-1.0786073819	-0.298077
C	 0.0956654397	-0.0036213125	-0.5596532021	 0.263426
C	-0.0050637136	 1.2926977179	 0.1114994302	-0.371544
C	 1.3444183209	 1.985564753	 0.2245691613	 0.048039
O	 1.7831389915	 2.7395438611	-0.901303075	-0.252361
C	 1.4905007424	 3.4477506244	 0.3133019324	 0.057425
C	 0.3685613434	 4.4279757156	 0.3023751689	-0.011262
C	 0.1553948991	 5.3066585452	 1.5155116633	-0.269945
C	 0.6868752922	 5.9043148592	 0.2422597401	-0.269206
H	-0.7098769863	 1.9198454175	-0.4402199778	 0.161349
H	-0.420733028	 1.1324449454	 1.1138055461	 0.158901
H	 2.1177232592	 1.3653206871	 0.6802419741	 0.110913
H	 2.3827073743	 3.8088919431	 0.8314945531	 0.095063
H	-0.5199949957	 4.1111921971	-0.2324300752	 0.090663
H	-0.8648661014	 5.5259412775	 1.8083482187	 0.121799
H	 0.8406106459	 5.1932340952	 2.3492100183	 0.118823
H	 1.7326435631	 6.1913453207	 0.2125197879	 0.122867
H	 0.0341544065	 6.5381119301	-0.3465740324	 0.123127
42.6709	61.4038	107.4692	167.2786	234.6826	293.4454	369.2007	384.6365	441.022	524.5724	573.6982	761.5366	802.5363	826.0785	828.9563	903.1334	921.6057	924.9535	957.2971	993.0439	1040.5567	1064.3226	1082.7737	1117.5915	1122.348	1156.5692	1198.5135	1210.8352	1221.3588	1246.5272	1297.8383	1315.7478	1339.9947	1420.6459	1447.1446	1470.1591	1493.2897	1516.1427	2366.1912	3046.6964	3075.0269	3098.0133	3112.5805	3134.9743	3139.1564	3170.0799	3214.6454	3229.8234
N#CCC1OC1C1CC1	N#CC[C@H]1O[C@H]1C1CC1	
InChI=1S/C7H9NO/c8-4-3-6-7(9-6)5-1-2-5/h5-7H,1-3H2	InChI=1S/C7H9NO/c8-4-3-6-7(9-6)5-1-2-5/h5-7H,1-3H2/t6-,7+/m1/s1
