15
gdb 44927	3.04614	1.47402	1.44326	0.9519	63.96	-0.2463	-0.0449	0.2014	944.0619	0.113287	-457.80237	-457.795537	-457.794592	-457.833832	26.755	
O	-0.0206235906	 0.0234851986	 0.100995899	-0.304881
C	-0.041329646	 1.220324089	 0.0359861803	 0.422092
C	-1.2683374542	 2.1528740848	-0.0194773765	-0.356803
C	-0.5605951761	 3.5255891005	 0.0167675045	-0.04585
O	 0.6248769498	 3.2828779426	-0.7607842087	-0.262066
C	 1.1550271169	 2.190372752	 0.0100683878	-0.045848
C	 1.2814408896	 2.8092431634	 1.4198827165	-0.356805
C	 0.0270134992	 3.7062377705	 1.4292190709	 0.422092
O	-0.401469371	 4.3742839482	 2.3276594363	-0.30488
H	-1.796684202	 2.017618617	-0.9679012593	 0.151674
H	-1.9635716217	 1.9544200957	 0.7996550561	 0.150261
H	-1.1140759192	 4.3781368707	-0.3694530653	 0.11454
H	 2.0629483692	 1.7974479402	-0.4411899164	 0.11454
H	 1.2777595352	 2.1013837652	 2.2521292321	 0.150262
H	 2.1817961409	 3.4268905315	 1.4893374127	 0.151673
89.4544	161.3984	276.3029	414.3948	452.5482	485.4245	518.2869	579.4736	596.9475	689.2212	707.1471	783.2153	814.3213	910.1073	926.0874	940.8173	964.6069	968.5725	1021.3665	1040.3188	1122.4257	1151.3866	1166.7931	1224.8812	1233.0711	1254.5902	1279.8906	1292.2396	1328.8763	1441.2947	1445.0743	1872.806	1876.2993	3067.5488	3068.21	3122.2201	3123.5366	3157.0184	3159.2218
O=C1CC2OC1CC2=O	O=C1C[C@@H]2O[C@H]1CC2=O	
InChI=1S/C6H6O3/c7-3-1-5-4(8)2-6(3)9-5/h5-6H,1-2H2	InChI=1S/C6H6O3/c7-3-1-5-4(8)2-6(3)9-5/h5-6H,1-2H2/t5-,6-/m0/s1
