25
gdb 100943	2.41954	0.95612	0.80559	2.2586	85.84	-0.2466	0.0742	0.3208	1604.8024	0.226025	-426.626592	-426.614791	-426.613847	-426.663942	42.129	
C	 0.9122306645	 1.1004475717	 0.9841960469	-0.383782
C	 0.4766807555	-0.3663398458	 0.9567865151	-0.193492
C	-0.9773210481	-0.5431560833	 0.4953818888	 0.144468
O	-1.1819043957	 0.0147263121	-0.7966133106	-0.440126
C	-1.4340504334	-2.0167148365	 0.4911274683	 0.089421
C	-2.950778988	-2.1462800627	 0.326998109	-0.173137
C	-3.441217165	-3.5930467781	 0.2495025892	-0.394461
O	-0.7850020368	-2.6567810216	-0.6183021556	-0.267975
C	 0.1040906232	-3.7029877233	-0.2892209444	-0.238572
H	 1.9657313846	 1.1977663087	 1.2634831328	 0.105367
H	 0.769672784	 1.5569758997	 0.0016043655	 0.132815
H	 0.3207135367	 1.6742655541	 1.7067294042	 0.11005
H	 1.1285270089	-0.9339716486	 0.2803292265	 0.096517
H	 0.5906346869	-0.8129909674	 1.9536134978	 0.084994
H	-1.6329557231	 0.0221343128	 1.1712135437	 0.074975
H	-0.8184855981	-0.6367651136	-1.4116977806	 0.285324
H	-1.1210382555	-2.4997779723	 1.4279641771	 0.064367
H	-3.4279658585	-1.6320169797	 1.1707974165	 0.092623
H	-3.2374576691	-1.5968185493	-0.5759169424	 0.116103
H	-4.5267563462	-3.6321177733	 0.1178716776	 0.112847
H	-2.9816569814	-4.1128252868	-0.5956911035	 0.126765
H	-3.1992148158	-4.1496417412	 1.1626012945	 0.106022
H	 0.5191808562	-4.0788200137	-1.228513056	 0.126812
H	 0.9315847429	-3.3613069441	 0.3484900815	 0.110022
H	-0.4109700087	-4.5285193479	 0.2218862581	 0.112052
63.5701	73.5048	97.9015	108.7854	151.0153	172.9508	212.2706	228.9421	247.3431	288.442	309.1232	332.4164	368.1473	475.043	500.6448	510.5041	702.3023	765.3444	790.1819	861.6873	888.5158	940.5991	974.5828	1006.2066	1042.4007	1067.4721	1081.7275	1114.702	1132.749	1139.5769	1177.6227	1182.6232	1219.5295	1260.584	1283.7385	1296.7185	1311.276	1347.9436	1380.1191	1389.4702	1395.971	1405.609	1408.8695	1432.8477	1478.7609	1482.4895	1485.8064	1490.5229	1496.0971	1497.9721	1507.1136	1509.6261	1514.5687	2987.4999	3003.7097	3016.294	3019.5111	3031.0505	3033.3857	3034.754	3042.1144	3056.5213	3078.4651	3098.9178	3099.7834	3107.8342	3116.6359	3124.7384	3757.7987
CCC(O)C(CC)OC	CC[C@@H](O)[C@@H](CC)OC	
InChI=1S/C7H16O2/c1-4-6(8)7(5-2)9-3/h6-8H,4-5H2,1-3H3	InChI=1S/C7H16O2/c1-4-6(8)7(5-2)9-3/h6-8H,4-5H2,1-3H3/t6-,7-/m1/s1
