16
gdb 111031	2.15109	1.6396	1.10306	3.8011	70.98	-0.2632	-0.011	0.2522	1105.9122	0.123034	-437.810416	-437.802181	-437.801236	-437.843682	30.074	
C	 0.0652411005	 1.2062573299	 0.4402879484	-0.25359
O	-0.1805763439	 0.1899758757	-0.5226719424	-0.245143
C	-1.3263051877	-0.5370736925	-0.284380901	 0.126883
C	-1.5953217457	-1.7620287974	-1.1857749231	-0.023282
C	-0.4394781568	-2.5374317055	-0.5094480106	-0.259404
C	-1.297716946	-1.859889945	 0.5904036609	 0.276817
O	-2.5178459614	-2.2597975161	-0.1324768709	-0.320694
C	-1.2452193182	-2.0144455138	 2.020717979	 0.16676
N	-1.1635967073	-2.1021364445	 3.1708154462	-0.345211
H	 0.9518211039	 1.7491292527	 0.108791241	 0.140652
H	-0.7820249262	 1.9026271482	 0.5057835796	 0.122566
H	 0.2521113702	 0.78157354	 1.4350753575	 0.13526
H	-2.2102158645	 0.0769146305	-0.0746848368	 0.102794
H	-1.9470393847	-1.7939510285	-2.2144036434	 0.116178
H	-0.525487072	-3.6230775271	-0.5433053586	 0.127407
H	 0.5736505898	-2.1634193165	-0.6520708059	 0.132008
74.3275	119.8537	172.4476	180.1744	227.9969	329.1156	401.4254	498.3748	519.267	556.9171	584.735	628.3711	753.1215	856.3657	915.061	943.619	963.889	978.9099	1034.9103	1062.7809	1102.5559	1143.7708	1180.164	1189.9271	1216.7768	1227.3022	1240.9075	1252.7142	1275.7424	1375.6289	1473.5586	1487.1591	1492.5235	1505.9694	2352.2132	3002.4397	3053.0166	3062.9247	3096.1179	3136.8266	3155.4105	3180.5684
COC1C2CC1(O2)C#N	CO[C@H]1[C@H]2C[C@@]1(O2)C#N	
InChI=1S/C6H7NO2/c1-8-5-4-2-6(5,3-7)9-4/h4-5H,2H2,1H3	InChI=1S/C6H7NO2/c1-8-5-4-2-6(5,3-7)9-4/h4-5H,2H2,1H3/t4-,5+,6-/m1/s1
