19
gdb 57979	3.23328	0.90408	0.82403	1.5751	77.87	-0.2692	0.0109	0.2801	1479.0995	0.155534	-423.030587	-423.020038	-423.019094	-423.068014	36.846	
C	-0.1031569597	 1.3820748001	-0.3628365109	-0.391876
C	-0.0873192146	-0.1066697956	 0.041714651	-0.08583
C	 0.5273596039	-0.3203042751	 1.4265534987	-0.385044
C	-1.5080710056	-0.6428428153	-0.006744495	 0.45961
O	-2.2266915068	-0.8288448078	 0.9409555319	-0.356339
O	-1.8819354252	-0.871877676	-1.2935974352	-0.246589
C	-3.2456613852	-1.293957473	-1.4935530102	-0.222972
C	-4.1265424459	-0.1645332017	-1.7579429836	 0.324635
C	-4.8582298218	 0.7598637083	-1.9869441776	-0.462069
H	 0.9173221993	 1.7755624478	-0.3815174913	 0.119722
H	-0.5452071248	 1.5178938981	-1.3528798585	 0.134232
H	-0.6807641036	 1.9717214012	 0.3565715693	 0.1304
H	 0.4864883488	-0.6543026339	-0.7144194981	 0.100424
H	-0.0655734912	 0.1859138677	 2.1927132431	 0.135868
H	 0.5672490102	-1.3815782246	 1.6871765531	 0.121298
H	 1.5458697831	 0.078319043	 1.4530667486	 0.110448
H	-3.2165274062	-1.9699925689	-2.3523691689	 0.142912
H	-3.5822576586	-1.8431427888	-0.6101776866	 0.163919
H	-5.5088807158	 1.5766896948	-2.1805923598	 0.207252
23.3679	38.6343	59.4631	197.2904	203.3591	211.8044	248.9084	294.0314	312.12	322.5713	359.0002	443.8713	592.1298	614.7571	640.2518	683.2548	757.2857	820.4561	897.0257	936.3338	948.7686	973.0535	1011.6024	1044.2835	1117.9779	1127.0662	1164.2264	1205.2122	1294.1325	1327.5921	1366.9897	1392.9407	1405.4223	1421.2013	1467.7442	1486.4962	1488.198	1499.9307	1512.1062	1823.8123	2244.123	3039.6715	3045.9148	3047.6776	3063.5805	3110.8375	3111.3704	3115.3454	3125.9196	3126.9251	3505.3355
CC(C)C(=O)OCC#C	CC(C)C(=O)OCC#C	
InChI=1S/C7H10O2/c1-4-5-9-7(8)6(2)3/h1,6H,5H2,2-3H3	InChI=1S/C7H10O2/c1-4-5-9-7(8)6(2)3/h1,6H,5H2,2-3H3
