19
gdb 47527	2.63641	1.75277	1.28228	2.8542	75.11	-0.2118	0.019	0.2308	1014.2395	0.163594	-419.208069	-419.200799	-419.199855	-419.239624	29.271	
O	 0.0262802346	-0.0905431504	-0.1923216125	-0.369873
C	 0.0329799953	 1.118662591	-0.0486017388	 0.362917
N	-1.1484272658	 1.8111544277	 0.1230459008	-0.301341
C	-1.4129293476	 3.2288288665	-0.1182980798	-0.185573
C	-0.4949080464	 4.2121687032	 0.6391704182	-0.155677
N	 0.9468563029	 3.9727926106	 0.5649047704	-0.098279
C	 1.377552394	 3.2590109611	-0.6810232156	-0.203523
C	 1.3356016557	 1.8970716013	 0.0619956918	-0.09951
C	 1.3719971961	 2.7676893667	 1.345560421	-0.181088
H	-1.9421217929	 1.1947768342	 0.0143097306	 0.243868
H	-1.3797605568	 3.4525502262	-1.1946746095	 0.113065
H	-2.4423969247	 3.4223814756	 0.1991265243	 0.114483
H	-0.7122340773	 5.212149002	 0.2414183895	 0.105873
H	-0.7651042712	 4.2274121429	 1.7006210107	 0.112764
H	 0.746680307	 3.3976564995	-1.5618932446	 0.111329
H	 2.4007015889	 3.5461013059	-0.9431731548	 0.112799
H	 2.1492896823	 1.1929158773	-0.1113601764	 0.09478
H	 2.3866855995	 2.9073400397	 1.7331050515	 0.109546
H	 0.7084316064	 2.482532059	 2.1660326032	 0.11344
106.2764	214.1475	256.9671	318.3604	356.9051	407.175	436.5634	526.5744	601.8746	672.1671	719.5917	757.1797	768.561	851.245	885.442	896.9737	915.3368	961.4114	979.2938	1015.8898	1072.6477	1102.3668	1119.4941	1133.0958	1158.1615	1225.4295	1258.814	1279.5915	1287.08	1298.8358	1312.6505	1328.8177	1361.3711	1381.4195	1410.0127	1469.0289	1483.6287	1494.7058	1512.6783	1530.5661	1779.5321	2989.9422	3019.2341	3039.1487	3051.5853	3067.1509	3078.6065	3099.8308	3105.3059	3117.1037	3593.8245
O=C1NCCN2CC1C2	O=C1NCCN2C[C@H]1C2	
InChI=1S/C6H10N2O/c9-6-5-3-8(4-5)2-1-7-6/h5H,1-4H2,(H,7,9)	InChI=1S/C6H10N2O/c9-6-5-3-8(4-5)2-1-7-6/h5H,1-4H2,(H,7,9)
