18
gdb 124771	2.65452	1.43566	1.01115	3.7571	74.08	-0.2534	-0.004	0.2494	1177.5521	0.147835	-435.268311	-435.259285	-435.25834	-435.302309	32.666	
C	 0.9530952642	-1.0257347766	-1.0787351332	-0.403718
C	 0.1525004636	-0.4815370648	 0.1032946954	-0.000933
O	 0.3016751715	 0.937465322	 0.232263941	-0.42147
C	-1.2979286389	-0.8658497063	 0.0385258299	 0.316525
C	-2.0659520111	-1.5093220966	-0.9087898207	-0.167146
N	-3.3537403465	-1.5653175227	-0.4773338825	-0.195437
N	-3.4292881067	-0.989670913	 0.6891776209	-0.147754
N	-2.193732932	-0.5621085028	 1.0168288355	-0.008867
C	-1.9706176033	 0.1108084787	 2.2829192046	-0.342165
H	 1.9920465007	-0.6995782672	-0.9939027508	 0.131826
H	 0.9267832604	-2.1189868121	-1.103446117	 0.131651
H	 0.5508312869	-0.6533399246	-2.027293294	 0.120881
H	 0.5876766368	-0.8717558712	 1.0318912907	 0.105909
H	-0.1030082745	 1.3412434092	-0.5447276314	 0.284868
H	-1.7699721532	-1.9298044921	-1.8562201907	 0.122102
H	-1.4481734836	-0.54708612	 2.9849939443	 0.143498
H	-1.3720792399	 1.0074726404	 2.1178156922	 0.165387
H	-2.9479049642	 0.3667941697	 2.6911533057	 0.164843
65.9626	110.2703	161.3853	186.1355	224.7035	254.5252	296.281	346.3309	396.0228	449.5898	512.6216	626.4133	715.4631	727.6333	749.26	854.6831	895.3962	981.5282	1025.3639	1039.1121	1079.7229	1105.4063	1148.0165	1156.0324	1193.6647	1272.7669	1283.5173	1307.8726	1340.1763	1358.1808	1402.9827	1417.4658	1436.6223	1477.0762	1489.5152	1490.6457	1495.7493	1510.9289	1580.1474	3031.1248	3040.0424	3050.0997	3110.626	3129.306	3132.4435	3173.371	3268.8574	3791.0855
CC(O)C1=CN=NN1C	C[C@@H](O)c1cnnn1C	
InChI=1S/C5H9N3O/c1-4(9)5-3-6-7-8(5)2/h3-4,9H,1-2H3	InChI=1S/C5H9N3O/c1-4(9)5-3-6-7-8(5)2/h3-4,9H,1-2H3/t4-/m1/s1
