19
gdb 8440	2.77523	2.1084	1.77199	2.442	70.98	-0.2238	0.0672	0.2911	869.2935	0.163824	-365.023075	-365.014669	-365.013724	-365.054993	32.567	
C	 0.059089866	 1.5302250673	 0.0592882755	-0.492279
C	-0.0235298429	 0.0352038654	-0.0206079921	 0.320254
C	-0.8759198442	-0.7965743857	 0.8545285971	-0.295218
N	 0.587519982	-0.8938590131	 1.0224153939	-0.163418
C	 1.0390785906	-1.7918638117	-0.0979491776	-0.215303
C	 0.5280558535	-0.8023353716	-1.1883275721	 0.340506
C	-0.4302114464	-1.2957348324	-2.2645614124	-0.459512
O	 1.5918448764	-0.0637778911	-1.7741505449	-0.471694
H	 1.0300267078	 1.8818806517	-0.2965709736	 0.143294
H	-0.7200179837	 1.9991097907	-0.5533446349	 0.116332
H	-0.077622754	 1.8605179712	 1.0930774247	 0.123774
H	-1.367190884	-0.2960394685	 1.6839473896	 0.118271
H	-1.4209462651	-1.6549736668	 0.4663410776	 0.103803
H	 2.1279769699	-1.8704407945	-0.1032393801	 0.107843
H	 0.5928635767	-2.7927490796	-0.0667445256	 0.092281
H	-1.2913556098	-1.818448851	-1.8402751497	 0.118863
H	-0.7923181675	-0.453694399	-2.8625569518	 0.127563
H	 0.0787930154	-1.997024739	-2.9385052659	 0.106989
H	 2.0071035492	-0.6208990924	-2.4409954378	 0.277653
154.3794	174.4136	218.3852	227.2563	251.0233	279.5113	341.7136	398.574	454.4938	484.2706	491.9204	630.648	657.7247	743.7967	844.1706	868.054	895.908	951.35	960.9008	980.9321	1031.4014	1088.076	1102.0106	1107.1521	1126.8075	1177.0351	1205.513	1237.4006	1258.0408	1287.255	1361.8073	1395.9509	1406.1395	1419.8201	1477.2282	1480.8931	1489.7355	1492.7638	1499.286	1513.7591	3022.7196	3032.984	3034.816	3090.6974	3099.4367	3100.7631	3113.5019	3120.7906	3130.9735	3188.1966	3807.9342
CC12CN1CC2(C)O	C[C@]12CN1C[C@]2(C)O	
InChI=1S/C6H11NO/c1-5-3-7(5)4-6(5,2)8/h8H,3-4H2,1-2H3	InChI=1S/C6H11NO/c1-5-3-7(5)4-6(5,2)8/h8H,3-4H2,1-2H3/t5-,6+,7?/m1/s1
