19
gdb 119249	1.76528	1.44241	0.89877	4.5797	73.79	-0.2653	0.0148	0.2801	1338.685	0.156402	-460.156207	-460.146432	-460.145487	-460.191621	34.444	
C	-0.1147957437	 1.3172904938	 0.0869429274	-0.229802
O	 0.5477833789	 0.1087988667	-0.2135888569	-0.239663
C	-0.2449856075	-0.7915438961	-0.9562518804	-0.117293
C	 0.4735357092	-2.1114205117	-1.0429069855	 0.402294
C	 0.2445375321	-3.0138807076	-2.2160221973	-0.319532
C	 1.5810216455	-2.3277397845	-2.041258274	-0.311865
O	 0.5604154418	-2.7784642022	 0.2044619081	-0.236763
C	 1.5417145305	-2.3802047884	 1.0543200342	 0.156915
O	 1.6350146806	-2.8279115457	 2.1572263552	-0.28008
H	-0.3881742163	 1.8684864634	-0.8261388456	 0.107331
H	-1.0297537958	 1.1433642432	 0.6731250629	 0.114408
H	 0.5737682773	 1.9272154743	 0.6755934614	 0.135414
H	-1.2206712023	-0.9413192056	-0.4661165794	 0.105762
H	-0.4349383412	-0.4045470296	-1.9706711585	 0.089832
H	 0.1943840104	-4.073890669	-1.9976674448	 0.138418
H	-0.4200626966	-2.6764522932	-3.0033216434	 0.121738
H	 1.8400226993	-1.5048285679	-2.6976892893	 0.128815
H	 2.4186964634	-2.9417727377	-1.7319987248	 0.13154
H	 2.2172430944	-1.6334439322	 0.6095992708	 0.102531
57.4575	94.9489	102.2739	157.2268	192.016	219.28	239.8266	298.737	346.1184	370.1851	454.1647	532.1359	595.6267	773.6088	804.2473	914.3109	934.9829	971.4734	994.5668	1013.4845	1040.5662	1050.6274	1068.8502	1085.6569	1146.845	1169.9425	1183.7116	1188.966	1226.9267	1243.0112	1303.337	1346.1415	1424.2007	1428.8809	1458.753	1479.2169	1486.6888	1495.2156	1500.5046	1518.0345	1862.1721	2964.0156	2979.9217	3001.3074	3026.7087	3028.3689	3123.1958	3142.7115	3145.1626	3226.6978	3239.516
COCC1(CC1)OC=O	COCC1(CC1)OC=O	
InChI=1S/C6H10O3/c1-8-4-6(2-3-6)9-5-7/h5H,2-4H2,1H3	InChI=1S/C6H10O3/c1-8-4-6(2-3-6)9-5-7/h5H,2-4H2,1H3
