17
gdb 104760	2.94343	1.10146	0.91796	2.4911	69.71	-0.275	0.0046	0.2796	1258.3225	0.135886	-455.117721	-455.108571	-455.107626	-455.151924	33.205	
O	 0.1221044656	 1.3808485009	-0.1835139497	-0.417203
C	 0.0584747595	 0.0571409962	 0.348854132	-0.140031
C	-1.3503981731	-0.4916375539	 0.2175630403	 0.268345
C	-2.4148974728	 0.2665780658	 0.9962493302	-0.135708
O	-2.6695310565	 1.5345763549	 0.426862104	-0.421392
N	-1.6733526067	-0.9229425728	-1.1483326949	-0.343826
C	-1.5865308712	-1.9405739201	-0.0809161374	-0.257912
C	-0.5080442145	-2.8969452939	-0.1740155403	 0.332744
N	 0.3523283293	-3.6678437571	-0.2175706432	-0.333913
H	-0.0140911292	 1.3005401414	-1.135648276	 0.303269
H	 0.7768536665	-0.6041751068	-0.1482541229	 0.13074
H	 0.3401815812	 0.1403224036	 1.4028889483	 0.126816
H	-3.3632932847	-0.283448744	 0.9750015594	 0.103793
H	-2.105154867	 0.3443075427	 2.0512191873	 0.101439
H	-1.806812166	 1.9593429575	 0.3131928293	 0.292713
H	-2.650304379	-0.730000778	-1.3609182099	 0.253616
H	-2.5108529613	-2.3689942964	 0.2983408835	 0.136508
88.3653	99.4121	117.9162	159.1508	233.0066	303.555	321.9904	345.728	416.2105	445.7948	475.996	580.9952	620.6583	655.3354	767.7282	880.4513	907.3046	937.7046	952.2542	983.7317	1038.9594	1062.7061	1082.6351	1095.4159	1188.137	1208.5131	1221.5589	1301.4074	1352.2337	1376.7342	1396.8052	1424.2531	1447.7591	1469.7193	1492.4172	1507.7346	2360.4715	2973.4307	3043.9022	3051.6709	3100.1681	3144.1337	3494.8491	3725.9916	3792.0776
OCC1(CO)NC1C#N	OCC1(CO)N[C@H]1C#N	
InChI=1S/C5H8N2O2/c6-1-4-5(2-8,3-9)7-4/h4,7-9H,2-3H2	InChI=1S/C5H8N2O2/c6-1-4-5(2-8,3-9)7-4/h4,7-9H,2-3H2/t4-/m0/s1
