17
gdb 44502	4.3185	1.42211	1.23462	4.3831	71.94	-0.2599	0.0103	0.2703	1003.8469	0.13868	-421.826074	-421.819628	-421.818684	-421.856998	26.361	
O	 0.0410879891	 0.0943574184	 0.6512101689	-0.327125
C	-0.0244836554	 1.1616839115	 0.1091807579	 0.415257
C	-1.3218828285	 1.9071156407	-0.1632328022	-0.40329
C	-1.1131767149	 3.2387039846	-0.8633996086	 0.003279
C	-0.0774459609	 3.2691168427	-2.0356263662	-0.100732
C	 0.0898847179	 4.7870651585	-1.7586237336	-0.231799
C	 0.0647204523	 4.132270425	-0.3516727586	-0.100726
C	 1.0050478902	 3.050923129	-0.9459765431	 0.164047
O	 1.1084733352	 1.7836031531	-0.3051319453	-0.247883
H	-1.9605936843	 1.2395554625	-0.7527626848	 0.142797
H	-1.8294355556	 2.0352740792	 0.799628976	 0.142817
H	-2.0529415065	 3.7654378651	-1.0540313506	 0.074327
H	-0.1514957162	 2.7678004331	-3.0010593039	 0.084142
H	 1.0294858194	 5.2479896922	-2.074207374	 0.100048
H	-0.7687725299	 5.4137920479	-2.0073787429	 0.104865
H	 0.1540412486	 4.6228345494	 0.6179823703	 0.084144
H	 2.0288710194	 3.343407527	-1.1823126193	 0.09583
90.1787	248.9227	389.8739	399.4324	441.8355	484.3102	570.1921	624.0369	755.3439	777.8511	790.3972	829.4386	859.3744	897.5636	903.8163	968.1815	993.0324	1020.8295	1021.9394	1074.4601	1087.3988	1105.4352	1115.3366	1157.4941	1166.4551	1189.5946	1203.7608	1221.7442	1243.216	1271.3517	1274.2643	1322.5021	1398.2536	1424.3219	1455.7081	1517.4977	1860.2535	3045.2171	3059.9705	3065.5583	3080.2698	3106.5311	3111.918	3120.617	3127.7921
O=C1CC2C3CC2C3O1	O=C1C[C@@H]2[C@H]3C[C@@H]2[C@H]3O1	
InChI=1S/C7H8O2/c8-6-2-3-4-1-5(3)7(4)9-6/h3-5,7H,1-2H2	InChI=1S/C7H8O2/c8-6-2-3-4-1-5(3)7(4)9-6/h3-5,7H,1-2H2/t3-,4-,5+,7+
