23
gdb 113545	2.95123	1.00679	0.93234	1.6603	86.63	-0.2212	0.0823	0.3036	1436.4479	0.204285	-388.266622	-388.256681	-388.255737	-388.301834	36.916	
C	 0.3249537985	 1.4520247945	 0.3380897781	-0.370438
C	-0.2309540143	 0.1463838668	-0.2405346242	-0.194046
C	 0.6232684837	-0.4204813131	-1.3564925003	-0.078123
C	 1.8921554001	-1.2054659824	-1.0281364937	-0.36952
C	 0.6934938179	-1.8991294837	-1.5838689224	 0.443299
O	-0.0691180384	-2.813545068	-0.7900544652	-0.308542
C	-0.3917806201	-3.5996427304	-1.959479098	-0.082579
C	 0.4987564651	-2.7155552086	-2.864541051	-0.117348
C	-0.1556014591	-2.0405898118	-4.0607897108	-0.408117
H	 1.3285915787	 1.303058272	 0.7498911869	 0.116376
H	 0.396372789	 2.2290222984	-0.431309502	 0.109552
H	-0.3150777738	 1.8347273761	 1.1395189516	 0.108998
H	-0.326733916	-0.6065316418	 0.5493392927	 0.113502
H	-1.2479899819	 0.3151551892	-0.6180474127	 0.093636
H	 0.6760052128	 0.197980034	-2.2513504897	 0.078492
H	 2.7693334929	-1.0829996759	-1.6563935907	 0.106746
H	 2.10784211	-1.3816416049	 0.0218128117	 0.118148
H	-0.0878356481	-4.6454888215	-1.8414081463	 0.102701
H	-1.4637677015	-3.5587902274	-2.1933956847	 0.097882
H	 1.4158831392	-3.22861014	-3.1701614353	 0.0819
H	-1.0743409784	-1.522756757	-3.766721757	 0.121991
H	 0.5137799617	-1.3038232663	-4.5178763377	 0.11879
H	-0.4116892878	-2.7749199284	-4.8321440991	 0.116701
64.6362	74.0153	123.2333	143.8197	214.8434	223.5142	253.8319	293.2307	364.0718	424.7338	447.6716	528.4568	619.528	751.7469	772.794	799.7833	871.9704	879.3007	900.3307	922.1265	954.2352	970.3768	1017.171	1037.1173	1039.669	1079.6198	1108.4736	1119.2946	1129.1697	1152.085	1183.7408	1187.0953	1210.5689	1264.4374	1280.4804	1314.1837	1341.9533	1359.2235	1382.4674	1409.7522	1410.8028	1426.8195	1482.2752	1489.597	1494.9389	1498.3478	1499.3897	1507.9653	1527.3988	3011.0361	3023.3813	3029.8771	3030.1003	3050.3239	3067.543	3068.5714	3095.4195	3097.8566	3103.1506	3105.1442	3115.3557	3117.1154	3203.4415
CCC1CC11OCC1C	CC[C@H]1C[C@]21OC[C@H]2C	
InChI=1S/C8H14O/c1-3-7-4-8(7)6(2)5-9-8/h6-7H,3-5H2,1-2H3	InChI=1S/C8H14O/c1-3-7-4-8(7)6(2)5-9-8/h6-7H,3-5H2,1-2H3/t6-,7+,8+/m1/s1
