24
gdb 88586	2.5707	1.12263	0.93105	1.324	90.6	-0.2148	0.0787	0.2935	1407.9782	0.216093	-368.369085	-368.358639	-368.357695	-368.404761	38.66	
C	-0.0102637057	 1.0821489379	-1.9618141166	-0.405628
C	-0.0179424432	-0.1230990563	-1.0439603405	-0.043632
C	 1.2190758825	-0.6460424987	-0.3466469953	-0.030572
C	 2.5805764973	 0.0036251549	-0.4796006131	-0.404453
C	 0.0944620976	-0.0250161103	 0.4697882303	-0.044934
C	 0.2492865335	 1.2920762091	 1.1667080072	 0.017005
C	-0.7032275051	 1.6966832505	 2.2435498007	-0.266503
N	 0.6893050716	 1.4077499054	 2.5648999054	-0.090243
C	 0.9677255708	 0.2035199374	 3.3330173345	-0.306583
H	 0.7250993344	 1.8364494144	-1.6736733468	 0.119427
H	 0.2235927235	 0.7787949184	-2.9883428829	 0.115527
H	-0.9914026865	 1.5696092268	-1.976741144	 0.118738
H	-0.7055953263	-0.8949631791	-1.3819976928	 0.081057
H	 1.2757093386	-1.7299534632	-0.2763005584	 0.079268
H	 2.5286007006	 1.0937712086	-0.5212885234	 0.119637
H	 3.2176905384	-0.2552954787	 0.373316531	 0.119769
H	 3.0896888859	-0.3375889509	-1.3879934266	 0.114136
H	-0.5234579415	-0.7347261374	 1.0113068686	 0.079023
H	 0.6577155168	 2.0902241927	 0.5521233824	 0.082133
H	-1.0210336525	 2.7303800462	 2.3584283625	 0.108749
H	-1.4542424157	 0.9600039281	 2.5310676699	 0.100101
H	 0.2753318712	-0.6327662272	 3.1505774195	 0.096754
H	 1.9833285804	-0.1412704974	 3.1126632353	 0.121596
H	 0.9193947834	 0.4516462588	 4.3984360832	 0.119627
40.3056	108.7339	149.2853	157.737	182.0172	188.7784	223.4137	252.5217	305.1724	392.6905	422.3472	476.2642	491.2301	601.1358	743.4178	753.2717	780.1196	826.6708	892.3637	943.0384	956.3907	972.5361	1028.4895	1037.7637	1045.4075	1095.6724	1102.7328	1122.7962	1132.2662	1138.9458	1157.743	1163.2095	1189.19	1202.7261	1211.9899	1273.8432	1312.4651	1339.2734	1378.0272	1417.6096	1423.7451	1423.8653	1449.9831	1462.3249	1487.3772	1490.5382	1492.314	1498.4729	1500.537	1511.8645	1516.4794	2982.2071	3031.1425	3034.5449	3064.0487	3078.2259	3086.0558	3087.8954	3097.4989	3106.7326	3114.3037	3124.8009	3130.9057	3133.9966	3149.5846	3164.9473
CC1C(C)C1C1CN1C	C[C@H]1[C@@H](C)[C@H]1[C@H]1CN1C	
InChI=1S/C8H15N/c1-5-6(2)8(5)7-4-9(7)3/h5-8H,4H2,1-3H3	InChI=1S/C8H15N/c1-5-6(2)8(5)7-4-9(7)3/h5-8H,4H2,1-3H3/t5-,6+,7-,8-,9?/m1/s1
