15
gdb 10013	4.27891	1.17842	0.92925	0.2063	72.53	-0.2401	-0.0857	0.1544	1187.1744	0.117128	-395.986255	-395.977365	-395.976421	-396.020416	30.043	
C	-0.3745281848	 1.7927954942	-0.349740194	-0.309005
N	-0.2725566414	 0.3636081026	-0.1167948533	-0.288704
C	 0.4834250138	-0.3888597529	-0.8103499315	 0.319592
N	 0.558345305	-1.7549769683	-0.5609534431	-0.326052
C	-0.1399674834	-2.430669499	 0.419288734	 0.098437
N	 0.0108528393	-3.6871417066	 0.5538116699	-0.465533
C	 1.3823476335	 0.0155651474	-1.9555565351	 0.098967
O	 1.4974512775	 1.139967442	-2.3661168774	-0.232936
H	 0.5868358764	 2.3054237595	-0.2291325475	 0.13499
H	-0.7290191409	 2.0270699687	-1.3602194279	 0.13498
H	-1.0831361231	 2.2054121678	 0.3729334431	 0.119126
H	 1.1671395224	-2.3273116104	-1.1282731087	 0.259007
H	-0.7812672529	-1.7681216898	 1.0027639086	 0.139629
H	-0.5700439932	-4.0314701643	 1.3156030053	 0.232205
H	 1.954515692	-0.825356521	-2.4142248523	 0.085297
57.2862	105.7673	133.8296	164.2435	170.5164	239.7535	265.2774	393.8635	437.1509	475.2762	513.3755	595.7093	805.2599	822.4744	855.8949	1003.4101	1078.2341	1086.2269	1102.6927	1105.1097	1140.6525	1242.4584	1311.7061	1392.1953	1431.356	1443.8044	1479.7148	1498.6998	1506.8596	1698.6807	1725.3533	1831.2675	2850.1421	3018.9571	3075.7161	3103.7087	3128.9788	3510.8131	3610.9353
CN=C(NC=N)C=O	CN=C(NC=N)C=O	
InChI=1S/C4H7N3O/c1-6-4(2-8)7-3-5/h2-3H,1H3,(H2,5,6,7)	InChI=1S/C4H7N3O/c1-6-4(2-8)7-3-5/h2-3H,1H3,(H2,5,6,7)
