21
gdb 71950	2.78092	1.84978	1.59741	1.3272	80.07	-0.2438	0.0879	0.3317	956.9813	0.186033	-387.108401	-387.101449	-387.100505	-387.139161	29.88	
C	-0.0160733837	 1.5516701866	 0.01405981	-0.498686
C	-0.0048499056	 0.0355892848	-0.0152440873	 0.325635
C	 0.2763056519	-0.6946824434	-1.3573722086	-0.280945
C	-0.697433692	-1.8097575158	-0.9076014371	-0.067666
C	-0.0332056837	-2.7784463937	 0.0987527312	-0.216981
C	-0.0503830036	-1.9121157905	 1.3766876137	 0.062163
C	 0.7896197026	-0.6392331257	 1.1363399809	-0.264981
O	-1.3897499832	-1.3928847961	 1.372353868	-0.256986
C	-1.346319237	-0.7887563918	 0.0961141808	 0.074932
H	 0.9943323384	 1.9598652563	-0.1087664283	 0.114731
H	-0.6362686548	 1.9606833683	-0.7913810877	 0.109372
H	-0.4105059929	 1.9251793755	 0.9658369389	 0.11883
H	-0.1153222886	-0.1310620432	-2.2104441538	 0.092393
H	 1.3112788142	-0.9814894123	-1.5710668823	 0.088198
H	-1.3129030912	-2.3019921764	-1.660684828	 0.064425
H	-0.645884521	-3.6710664645	 0.251621264	 0.103208
H	 0.9705813746	-3.0902316979	-0.2041593215	 0.094086
H	 0.1360616381	-2.4375512763	 2.3135562577	 0.07255
H	 1.8310953568	-0.8452684797	 0.87221297	 0.093784
H	 0.7760221144	-0.0146261666	 2.0346921388	 0.099554
H	-2.2915363637	-0.3075813778	-0.1494692894	 0.072385
207.4023	232.6878	257.0274	355.3631	384.6708	447.2504	536.868	546.791	613.875	704.3826	766.3139	817.0238	837.725	862.5125	883.9768	898.9271	917.5368	935.8794	942.2328	970.2779	983.8522	1015.7084	1036.7953	1070.2363	1085.2572	1101.0753	1153.6618	1174.694	1185.4615	1223.389	1232.8391	1243.23	1256.0828	1272.5602	1290.5751	1315.8091	1333.2649	1357.4381	1368.4147	1411.0331	1476.241	1479.6439	1492.6214	1495.964	1500.5345	3019.0058	3035.7248	3050.1015	3056.0383	3082.3083	3085.0292	3090.6828	3098.812	3101.7621	3108.6393	3118.7909	3136.8446
CC12CC3CC(C1)OC23	C[C@@]12C[C@H]3C[C@@H](C1)O[C@@H]23	
InChI=1S/C8H12O/c1-8-3-5-2-6(4-8)9-7(5)8/h5-7H,2-4H2,1H3	InChI=1S/C8H12O/c1-8-3-5-2-6(4-8)9-7(5)8/h5-7H,2-4H2,1H3/t5-,6+,7-,8-/m1/s1
