17
gdb 123480	5.17488	0.9331	0.87598	5.4847	74.53	-0.249	0.0052	0.2541	1323.3609	0.138344	-414.152129	-414.14442	-414.143476	-414.185436	28.31	
C	-0.1534413719	 1.6268525646	 0.1077283669	-0.283704
N	-0.2390107484	 0.2489912502	-0.3734561869	-0.083294
C	-0.2379450973	-0.7946010717	 0.6513090164	-0.217191
C	-1.4845168773	-0.455866944	-0.088670776	-0.21966
C	 1.2767206274	 2.0600446822	 0.1684185404	 0.355699
C	 1.9875209706	 2.9454609023	 0.9458640636	-0.171032
N	 3.2846706541	 2.9635520733	 0.5257758921	-0.188415
N	 3.4214258361	 2.1331059845	-0.4681736831	-0.117927
N	 2.2103215186	 1.5907862255	-0.6924549849	-0.211702
H	-0.7105727157	 2.2569500881	-0.5980623818	 0.132512
H	-0.6198534678	 1.7686011556	 1.0972630944	 0.107258
H	 0.3200379045	-1.6936582	 0.4088144292	 0.126655
H	-0.171544746	-0.4824020934	 1.6916859285	 0.123198
H	-2.2583421276	 0.0805114301	 0.4575789666	 0.117794
H	-1.851033217	-1.1028058112	-0.879947211	 0.126364
H	 1.6491685142	 3.5582443153	 1.7658787481	 0.1187
H	 2.0793779636	 0.8826442585	-1.3982338526	 0.284746
58.742	75.0961	132.9755	263.2291	326.8679	367.4812	425.2575	625.3759	678.5632	739.9271	750.1515	771.0831	835.9916	847.6069	906.9246	998.677	1005.4198	1022.7705	1053.9618	1072.7867	1075.5849	1117.6656	1124.1819	1135.4074	1173.3289	1179.5219	1229.6981	1267.2578	1315.9626	1326.4776	1368.5708	1373.0915	1452.6589	1487.6136	1497.0821	1522.1992	1608.2538	2963.2359	3031.1704	3101.4495	3106.7537	3186.7197	3201.0414	3268.2828	3653.9542
C(N1CC1)C1=CN=NN1	C(N1CC1)c1cnn[nH]1	
InChI=1S/C5H8N4/c1-2-9(1)4-5-3-6-8-7-5/h3H,1-2,4H2,(H,6,7,8)	InChI=1S/C5H8N4/c1-2-9(1)4-5-3-6-8-7-5/h3H,1-2,4H2,(H,6,7,8)
