15
gdb 46165	5.0069	1.02192	0.87579	5.3344	68.18	-0.2846	0.0231	0.3077	1238.9538	0.112492	-457.768618	-457.760536	-457.759592	-457.801848	29.281	
O	 0.009716319	 0.1515818457	 0.6976154831	-0.353466
C	-0.0129472789	 1.1666834068	 0.0721632171	 0.466046
O	-1.18830031	 1.7505558142	-0.2548179253	-0.254609
C	-1.2757425458	 2.9062681699	-1.0934494532	-0.067044
C	-0.0631032555	 3.8188577557	-0.8985181969	-0.236323
C	 1.1686283527	 2.9402165098	-1.1269522054	-0.067039
O	 1.1363410899	 1.782805425	-0.2867258815	-0.25461
C	-0.0912439465	 4.9534413554	-1.8081238604	 0.294849
C	-0.1144631787	 5.8713847772	-2.582719554	-0.418999
H	-1.3437295457	 2.59158116	-2.1416805709	 0.130872
H	-2.2076256966	 3.4038776117	-0.8197410696	 0.142547
H	-0.0537679672	 4.1716117181	 0.1408184295	 0.134525
H	 1.2165726755	 2.6271818885	-2.1767839466	 0.130874
H	 2.0934740413	 3.4636241374	-0.8786775401	 0.142548
H	-0.1350600236	 6.6931357945	-3.2558170561	 0.209827
79.0694	100.6251	133.7079	173.7768	305.9682	410.9315	437.1426	471.7181	504.817	596.0924	655.6648	664.6291	703.9841	761.4721	806.5602	915.9057	945.8679	1033.6759	1048.3977	1111.1915	1129.2382	1166.23	1178.5481	1236.4238	1287.2631	1315.3733	1341.9136	1418.5262	1425.6647	1511.0668	1520.3492	1885.7592	2243.7631	3027.9911	3037.7334	3048.8825	3119.3193	3121.7074	3501.2157
O=C1OCC(CO1)C#C	O=C1OCC(CO1)C#C	
InChI=1S/C6H6O3/c1-2-5-3-8-6(7)9-4-5/h1,5H,3-4H2	InChI=1S/C6H6O3/c1-2-5-3-8-6(7)9-4-5/h1,5H,3-4H2
