20
gdb 65516	3.11349	1.43865	1.22003	1.7661	77.75	-0.2408	0.0736	0.3144	1092.7152	0.170774	-403.079251	-403.070917	-403.069973	-403.111961	32.702	
C	-0.0614461264	 1.6563525723	 0.2398184377	-0.436234
C	-0.006814953	 0.1444200892	 0.0907241093	 0.363977
O	 0.9809596761	-0.2866607113	-0.9090379673	-0.33982
C	 1.5978944634	-1.1529773466	 0.0522367314	 0.101779
C	 2.1898167922	-0.3762100473	 1.1820613062	-0.319108
C	 0.7063763789	-0.6876038645	 1.1726233544	-0.152929
C	-1.3765613689	-0.4129840659	-0.257443555	-0.025858
C	-1.8444218555	-0.4273482009	-1.6627821238	-0.246048
N	-1.5254831316	-1.6880175512	-0.9632937994	-0.329766
H	 0.8983770579	 2.0654995311	 0.5619665487	 0.120333
H	-0.3314113806	 2.118035073	-0.7145990672	 0.130467
H	-0.8207106853	 1.9343207689	 0.978493069	 0.121259
H	 1.9164401761	-2.1335804009	-0.2813859311	 0.105706
H	 2.7619296738	-0.9606718516	 1.8964267949	 0.118088
H	 2.5622488213	 0.6292674532	 1.0119593316	 0.118122
H	 0.2077475127	-1.2454176068	 1.9537177265	 0.105346
H	-2.1093313152	-0.2597125738	 0.5341468765	 0.089305
H	-2.8953610553	-0.2756502042	-1.8907983409	 0.114366
H	-1.1486713011	-0.0835064852	-2.4228504849	 0.123392
H	-0.6024439596	-1.9833367175	-1.2761945767	 0.237624
83.0442	169.4273	192.3643	200.5927	269.6832	299.8572	374.6834	437.1156	485.3856	583.6091	630.4029	758.3528	796.3996	824.1384	856.5587	876.1427	907.8058	939.8745	960.9142	976.3846	984.5667	1014.4825	1030.2819	1044.9092	1062.6283	1084.1968	1099.4884	1120.1611	1148.5471	1167.4016	1185.7192	1224.4267	1245.5747	1272.4255	1298.861	1310.7451	1354.1915	1404.9592	1414.6649	1472.7647	1484.319	1490.9085	1503.7313	3042.2181	3108.2887	3112.9436	3116.0609	3121.2257	3129.1327	3179.4395	3202.2713	3202.7953	3212.1794	3491.8752
CC1(OC2CC12)C1CN1	C[C@]1(O[C@H]2C[C@@H]12)[C@H]1CN1	
InChI=1S/C7H11NO/c1-7(6-3-8-6)4-2-5(4)9-7/h4-6,8H,2-3H2,1H3	InChI=1S/C7H11NO/c1-7(6-3-8-6)4-2-5(4)9-7/h4-6,8H,2-3H2,1H3/t4-,5+,6-,7-/m1/s1
