23
gdb 110997	2.34221	1.37687	1.1627	1.588	84.76	-0.2552	0.0675	0.3227	1206.5342	0.207278	-388.283998	-388.275122	-388.274178	-388.317289	35.211	
C	-0.0161426979	 1.5082242411	 0.052413336	-0.500888
C	-0.0208865526	-0.0033058445	 0.0215929579	 0.3247
C	 0.2752392236	-0.8128994382	-1.280112182	-0.25945
C	-0.4299255524	-1.9596995336	-0.5039246065	-0.049534
C	 0.5776578403	-2.2240442275	 0.6331385777	-0.218888
C	 0.8889114849	-0.745733742	 1.0309374028	-0.245037
C	-1.3478903314	-0.8374245214	 0.0833632493	-0.009245
C	-2.1368662162	-1.0288901965	 1.3683954788	-0.116889
O	-3.271182668	-1.8689076784	 1.1782160392	-0.420352
H	 0.9893346252	 1.9019804813	-0.137647406	 0.11465
H	-0.6869673535	 1.9250954038	-0.7061431978	 0.113229
H	-0.336941863	 1.8898164029	 1.0288574811	 0.115084
H	-0.3042369991	-0.4571846309	-2.1357062544	 0.093077
H	 1.322709983	-0.9566006772	-1.56504695	 0.082765
H	-0.841862672	-2.8273352707	-1.0223623441	 0.052891
H	 0.1550696388	-2.8070900023	 1.456825591	 0.091936
H	 1.4620060751	-2.7587428406	 0.2748049931	 0.095883
H	 1.9415651232	-0.4832447114	 0.8847709374	 0.092491
H	 0.6370938391	-0.5187739386	 2.0713041678	 0.09481
H	-2.0401878221	-0.4854236662	-0.6894738003	 0.072619
H	-1.5030847065	-1.4083824944	 2.1827171642	 0.086277
H	-2.5402664041	-0.0658694103	 1.7020268702	 0.107993
H	-2.9495022847	-2.7195970742	 0.8630765047	 0.281879
68.6039	159.5132	220.2285	226.7332	254.3484	297.1169	309.5514	332.5764	438.2607	498.0093	553.0856	585.74	703.0958	778.8138	835.5016	844.0354	848.2112	892.8277	920.8139	953.8316	957.7241	981.0119	1000.9685	1025.8949	1057.1332	1077.4525	1105.3586	1140.2506	1151.383	1160.9682	1184.5294	1205.5651	1225.7882	1250.8615	1258.3384	1265.0656	1283.8106	1321.554	1353.1799	1353.4034	1402.034	1414.1005	1429.68	1489.9913	1493.9464	1495.23	1498.8255	1509.5864	1525.9925	2997.6106	3021.6285	3042.1042	3044.112	3047.8692	3054.6634	3064.1951	3077.4986	3083.0228	3093.5657	3095.3312	3097.0801	3109.5816	3815.5934
CC12CC(CC1)C2CO	C[C@@]12C[C@@H](CC1)[C@H]2CO	
InChI=1S/C8H14O/c1-8-3-2-6(4-8)7(8)5-9/h6-7,9H,2-5H2,1H3	InChI=1S/C8H14O/c1-8-3-2-6(4-8)7(8)5-9/h6-7,9H,2-5H2,1H3/t6-,7-,8+/m1/s1
