18
gdb 71996	1.97173	1.79691	1.73213	2.1033	72.32	-0.2142	0.0495	0.2636	970.4745	0.146429	-439.001568	-438.993067	-438.992123	-439.034008	32.98	
C	-0.0325223578	 1.4866402763	 0.1055852466	-0.53006
C	-0.0263432996	 0.0005105655	 0.0621546969	 0.231316
N	 0.3421624932	-0.8823078321	-1.1643885906	-0.195903
C	 1.3426027138	-1.6188509839	-0.2872647938	-0.246042
C	 0.5548943963	-1.1095163648	 0.89700815	 0.229848
O	 0.8521451533	-1.0347005876	 2.250092942	-0.471533
C	-0.9376058117	-1.1350490944	 0.4700568672	 0.303591
O	-1.9361226954	-1.1872416148	 1.416707565	-0.47367
C	-0.9463117734	-1.667326824	-0.9371341882	-0.228652
H	 0.961284626	 1.9015005399	-0.0952922176	 0.129165
H	-0.729559205	 1.8996462644	-0.6312458818	 0.131748
H	-0.3475218885	 1.8276313483	 1.0970421519	 0.1332
H	 1.4125093721	-2.6956024802	-0.482250999	 0.094374
H	 2.3290172159	-1.1576453234	-0.3898167049	 0.113032
H	 0.8858894503	-1.9330855211	 2.6021567355	 0.290039
H	-1.5078836941	-1.1314999996	 2.2825087157	 0.279838
H	-1.7393957105	-1.2524169762	-1.565054574	 0.114695
H	-0.860722695	-2.7460074925	-1.1131860309	 0.095014
150.3826	175.3742	184.2651	234.1236	244.4132	253.5919	378.2422	426.8351	448.9906	489.4991	553.1681	638.9563	672.674	680.6133	687.4814	811.0643	833.5915	845.0033	916.6363	1044.9646	1060.8112	1081.1895	1115.9209	1123.2205	1141.4781	1152.2675	1179.8812	1233.6391	1263.3404	1279.4343	1314.5174	1347.4502	1406.4346	1417.6759	1476.1873	1487.2314	1499.897	1507.6398	1533.6042	3025.7385	3028.5608	3036.5676	3091.1757	3093.0646	3096.3174	3104.9258	3738.5101	3768.3386
CC12N3CC1(O)C2(O)C3	C[C@@]12N3C[C@]1(O)[C@]2(O)C3	
InChI=1S/C6H9NO2/c1-4-5(8)2-7(4)3-6(4,5)9/h8-9H,2-3H2,1H3	InChI=1S/C6H9NO2/c1-4-5(8)2-7(4)3-6(4,5)9/h8-9H,2-3H2,1H3/t4-,5-,6+
