14
gdb 12050	4.09108	1.74506	1.54426	3.1053	61.7	-0.2602	0.0008	0.261	829.765	0.107033	-378.673937	-378.666836	-378.665892	-378.705083	26.654	
O	-0.0972213143	 1.4126345094	-0.0543507156	-0.456478
C	-0.0262100559	 0.0081282316	 0.0156906771	 0.244631
C	 0.192264289	-0.6787163277	 1.4110690658	-0.22409
N	-1.1287237772	-1.386938076	 1.330979203	-0.118546
C	-2.1367390164	-0.3185065327	 1.2463871976	-0.24737
C	-1.3969094838	-0.6657109689	 0.0183816862	-0.044625
C	 0.8789156764	-0.520623447	-1.0138845677	 0.228204
N	 1.6211222418	-0.9003848233	-1.8144679399	-0.330262
H	 0.7975729736	 1.7700987339	-0.0967218959	 0.296813
H	 1.0142643819	-1.3948342089	 1.4270908584	 0.140047
H	 0.2792749778	 0.0215319366	 2.2472436419	 0.120456
H	-3.1538591215	-0.6898251296	 1.3184712321	 0.135041
H	-1.9536875019	 0.6324512526	 1.739087406	 0.135102
H	-1.8429862195	-1.1571199602	-0.838105209	 0.121076
126.857	163.9341	214.1441	292.3364	343.9794	432.9369	478.45	527.4068	565.7572	656.1004	755.5116	786.7046	848.4093	911.2962	955.3818	984.0928	1048.4153	1071.785	1095.8562	1114.835	1130.3787	1180.8248	1215.8771	1240.312	1278.387	1318.9932	1394.0284	1477.9688	1502.7198	2352.5933	3057.9254	3119.64	3137.9013	3188.141	3213.6719	3798.6133
OC1(CN2CC12)C#N	O[C@]1(CN2C[C@@H]12)C#N	
InChI=1S/C5H6N2O/c6-2-5(8)3-7-1-4(5)7/h4,8H,1,3H2	InChI=1S/C5H6N2O/c6-2-5(8)3-7-1-4(5)7/h4,8H,1,3H2/t4-,5-,7?/m0/s1
