13
gdb 123674	2.89457	1.56981	1.19127	3.5397	72.47	-0.2362	-0.069	0.1672	985.2559	0.089704	-452.695727	-452.688882	-452.687938	-452.727446	25.606	
C	-0.0373274856	 1.57959529	-0.0802722232	-0.235595
C	 1.4833275223	 1.382626519	 0.1379663206	-0.042322
O	 1.1755706403	 0.1235385727	 0.8183205495	-0.271169
C	 0.0978106388	 0.0359672275	-0.166748426	-0.045253
C	 0.9025244237	-0.1440290162	-1.4509927696	 0.299581
C	 1.9684593639	 0.8620741549	-1.2579120574	 0.35802
O	 2.9110209983	 1.196637402	-1.9234801873	-0.333907
N	 0.6727819853	-1.7548599417	-3.2454053857	-0.238541
N	 0.7658197936	-1.0067546568	-2.3935797992	 0.03453
H	-0.5331563454	 1.8973420118	 0.8384170662	 0.130022
H	-0.3935429823	 2.1286783506	-0.9540220425	 0.120838
H	 2.1394993529	 2.062552689	 0.6755921546	 0.113284
H	-0.6930233456	-0.6744132127	 0.0644491002	 0.110513
93.7979	145.8803	191.2421	388.4056	454.8818	505.1372	532.7631	558.2115	603.9245	696.2724	735.2983	841.0861	861.3768	874.267	900.0257	960.135	1015.6475	1027.3169	1097.1286	1163.9636	1174.5374	1217.8223	1245.8684	1266.7459	1282.752	1464.3159	1481.7534	1846.3901	2207.6349	3074.677	3147.4775	3152.6911	3166.1315
C1C2OC1C1=C2ON=N1	C1[C@H]2O[C@@H]1[C](C2=O)[N][N]	
InChI=1S/C5H4N2O2/c1-2-4-5(3(1)8-2)9-7-6-4/h2-3H,1H2	InChI=1S/C5H4N2O2/c6-7-4-2-1-3(9-2)5(4)8/h2-3H,1H2/t2-,3+/m0/s1
