16
gdb 8852	4.77422	1.32106	1.04839	1.7763	65.83	-0.2481	0.0017	0.2498	1095.0799	0.129948	-417.102409	-417.093384	-417.09244	-417.136614	30.305	
C	-0.0703682538	 1.3569204395	 0.0038499718	-0.237527
O	-0.0029361687	-0.0729031992	-0.0496801166	-0.256237
C	 0.6360106735	-0.5647105882	-1.1293944802	 0.540011
O	 1.1250836049	 0.1153816492	-2.0022234152	-0.409762
N	 0.649454359	-1.9497909247	-1.0917119585	-0.167026
C	 0.0327621103	-2.6982726414	 0.0037772918	-0.340679
C	 1.2738953462	-2.6221830746	-2.1388704612	 0.100871
N	 1.3300579693	-3.8911061853	-2.1802970289	-0.476365
H	 0.9324649234	 1.7898744806	 0.0270292476	 0.14468
H	-0.6046685813	 1.7507323025	-0.863967831	 0.144661
H	-0.6088023678	 1.5896431705	 0.922488877	 0.135684
H	-1.0355037141	-2.4789380308	 0.0660958334	 0.137426
H	 0.1833399565	-3.7552334501	-0.208967301	 0.173795
H	 0.4993287713	-2.4395792556	 0.9569646479	 0.137432
H	 1.6807665269	-1.9238908492	-2.8707239978	 0.141649
H	 1.8238122644	-4.1895843231	-3.0184070092	 0.231389
70.2233	98.3544	107.3937	144.4791	199.6695	202.7352	293.3436	331.2792	358.351	458.2986	549.9571	740.7613	782.3759	826.1503	840.7576	985.0218	1080.4163	1081.4152	1153.013	1160.8501	1183.1006	1211.8779	1227.151	1351.4413	1370.8997	1415.5004	1453.3701	1481.8173	1483.0215	1499.8471	1500.4501	1510.4983	1719.9435	1810.3542	3055.1689	3059.3983	3123.8447	3131.6722	3135.8097	3161.0029	3173.8565	3515.8928
COC(=O)N(C)C=N	COC(=O)N(C)C=N	
InChI=1S/C4H8N2O2/c1-6(3-5)4(7)8-2/h3,5H,1-2H3	InChI=1S/C4H8N2O2/c1-6(3-5)4(7)8-2/h3,5H,1-2H3
