21
gdb 56499	2.51878	1.22008	1.03232	0.0781	90.37	-0.2549	0.0393	0.2942	1269.2921	0.177756	-349.896885	-349.885974	-349.88503	-349.931857	41.236	
C	 0.070940496	 1.5685122227	 0.0065403323	-0.40957
C	-0.0080421953	 0.0292479224	 0.0515284013	-0.161068
C	 0.7533980196	-0.4833425646	 1.1900712655	 0.338299
C	 1.3883566673	-0.8751981806	 2.1335979921	-0.478767
C	-1.4831684722	-0.5332254368	 0.0401716619	 0.051296
C	-1.4415249336	-2.078156171	-0.0047273888	-0.413761
C	-2.272183901	-0.0738995309	 1.2862601071	-0.412579
C	-2.1539339676	-0.0512551448	-1.1721081588	 0.345197
C	-2.7101639254	 0.3245707259	-2.1701550723	-0.490912
H	 1.1115891529	 1.88511209	-0.099307865	 0.124578
H	-0.5010720123	 1.9511964005	-0.8418250114	 0.133068
H	-0.3194361904	 2.0126753945	 0.9255672911	 0.12755
H	 0.4608326869	-0.3530214118	-0.864746801	 0.112266
H	 1.9557862109	-1.2282197999	 2.9588898101	 0.194268
H	-0.9511477001	-2.4677749215	 0.8908844467	 0.130623
H	-2.4555230992	-2.4832807653	-0.0565883553	 0.120858
H	-0.8913982724	-2.4288555277	-0.8828529582	 0.120338
H	-2.3933583772	 1.0114713446	 1.3088411568	 0.124308
H	-3.2697466281	-0.5210724943	 1.2838539903	 0.121893
H	-1.7504752079	-0.3876782203	 2.1948321835	 0.128928
H	-3.2059340409	 0.6571827388	-3.0484433379	 0.193187
66.9873	132.2782	173.0366	184.0255	204.7991	226.3107	248.7372	273.3717	275.1899	343.4506	363.5002	399.9171	486.412	539.9831	555.9906	583.1614	621.4248	623.4327	639.858	641.7123	711.6934	828.7748	897.8578	947.5834	949.5286	1014.3405	1043.071	1079.0472	1108.5039	1176.8444	1211.4199	1235.9344	1327.0134	1336.8806	1394.2301	1404.473	1417.4799	1483.8725	1484.3294	1495.6177	1498.0072	1501.3365	1512.7265	2225.9096	2229.7204	3018.4893	3043.3891	3048.7001	3052.7864	3116.8814	3121.9633	3124.0242	3128.4653	3130.6863	3136.1852	3501.1073	3503.1935
CC(C#C)C(C)(C)C#C	C[C@@H](C#C)C(C)(C)C#C	
InChI=1S/C9H12/c1-6-8(3)9(4,5)7-2/h1-2,8H,3-5H3	InChI=1S/C9H12/c1-6-8(3)9(4,5)7-2/h1-2,8H,3-5H3/t8-/m0/s1
