16
gdb 125981	3.66856	1.33077	1.04744	4.0338	71.22	-0.2168	0.0207	0.2375	1120.5762	0.125996	-434.07564	-434.067641	-434.066697	-434.108987	28.973	
C	 0.145305734	 1.6185156279	 0.0718975116	-0.400013
C	 0.0058392545	 0.1021861116	 0.0381799571	-0.144042
C	 0.5525345918	-0.6504726816	-1.2528979331	-0.18589
N	 1.4592757165	-1.381759459	-0.3459630504	-0.126384
C	 1.0535436316	-0.7230100236	 0.7705100132	 0.414472
N	 1.7160678911	-1.0070896231	 1.8433172516	-0.336065
N	 2.6222538611	-1.9457744058	 1.3405153589	-0.320009
C	 2.5532179818	-2.2005859887	-0.0316401928	 0.440942
O	 3.2379876047	-2.927381072	-0.7133893829	-0.420973
H	 1.1643832606	 1.9278301653	-0.1792412354	 0.13255
H	-0.54282985	 2.0847626353	-0.6400172917	 0.127587
H	-0.0872538955	 2.0027644804	 1.069054052	 0.142817
H	-1.0167808747	-0.2001290843	 0.2807698784	 0.116501
H	-0.1599379572	-1.2915433256	-1.7755840963	 0.139431
H	 1.0753736358	-0.0064317676	-1.964132941	 0.139687
H	 3.316248654	-2.3388532393	 1.9517653609	 0.27939
43.0155	109.2649	186.4433	218.4635	261.8208	340.0314	388.0307	468.5842	598.0152	661.6385	708.9957	716.7964	737.6487	771.0631	872.8322	915.1476	973.4378	1038.8691	1087.2263	1101.0006	1136.3571	1160.5036	1178.8733	1235.2185	1259.415	1301.1519	1349.9958	1373.3237	1412.1794	1437.7013	1493.2013	1495.2577	1512.049	1672.5836	1847.2465	3041.2845	3069.0327	3073.2834	3114.2808	3119.0417	3130.0186	3695.4837
CC1CN2C1=NNC2=O	C[C@H]1Cn2c1n[nH]c2=O	
InChI=1S/C5H7N3O/c1-3-2-8-4(3)6-7-5(8)9/h3H,2H2,1H3,(H,7,9)	InChI=1S/C5H7N3O/c1-3-2-8-4(3)6-7-5(8)9/h3H,2H2,1H3,(H,7,9)/t3-/m0/s1
