20
gdb 92187	2.63599	1.87506	1.68398	2.8598	76.88	-0.2066	0.0704	0.2769	921.7772	0.174529	-403.103451	-403.096574	-403.095629	-403.134151	29.377	
O	 0.0254722802	 1.3761368929	-0.2334556711	-0.432087
C	 0.0208367479	-0.0299201426	-0.0037812674	 0.114102
C	 0.6664962805	-0.4382142171	 1.3494403222	-0.252304
C	-0.4368123116	-0.5740529163	 2.4050815542	-0.048825
C	-1.4079554693	 0.6254961413	 2.2614760576	-0.170105
N	-2.2152051809	-0.156201294	 1.2670621342	-0.139313
C	-1.6223434206	-1.4334882751	 1.8376250126	 0.021506
C	-1.4577761354	-1.992515935	 0.4201902841	-0.258711
C	-1.4352703503	-0.5014223025	-0.0020321039	 0.004484
H	 0.9405245497	 1.674867475	-0.2312406207	 0.280528
H	 0.5401607367	-0.5381967318	-0.8318698004	 0.065446
H	 1.2139262045	-1.3810664771	 1.240447499	 0.100444
H	 1.3982477402	 0.3211046356	 1.6514960151	 0.08846
H	-0.0425854273	-0.828652029	 3.3927467248	 0.056871
H	-2.02966742	 0.7893806778	 3.147715114	 0.097201
H	-1.0069751755	 1.576411855	 1.9087357406	 0.117998
H	-2.2114655204	-1.9776546806	 2.5812252495	 0.066583
H	-0.5918141902	-2.612252487	 0.1738062372	 0.09514
H	-2.3704758785	-2.4973424607	 0.0974844705	 0.113768
H	-1.9487618896	-0.1968729986	-0.9161463019	 0.078814
195.6576	272.6976	281.8441	357.6349	402.9558	417.3161	449.1727	539.0148	684.5569	722.9296	737.9589	790.1108	831.0047	855.1992	866.9889	918.1487	948.4544	976.4101	979.5986	987.3323	1020.9816	1050.4532	1067.4305	1097.3969	1109.6096	1119.2387	1176.7462	1191.1403	1200.8306	1219.5188	1253.1833	1267.463	1274.7528	1294.7616	1299.1382	1323.7462	1332.8152	1365.0944	1383.5564	1424.7182	1473.0126	1492.2363	1502.2311	2963.9744	3027.8851	3046.6942	3056.445	3062.7087	3069.2371	3073.4771	3088.6514	3121.4907	3130.2772	3813.4546
OC1CC2CN3C2CC13	O[C@H]1C[C@H]2CN3[C@H]2C[C@H]13	
InChI=1S/C7H11NO/c9-7-1-4-3-8-5(4)2-6(7)8/h4-7,9H,1-3H2	InChI=1S/C7H11NO/c9-7-1-4-3-8-5(4)2-6(7)8/h4-7,9H,1-3H2/t4-,5-,6+,7-/m0/s1
