21
gdb 107936	3.95726	1.16893	1.08598	1.6193	82.42	-0.2213	0.0783	0.2996	1229.5528	0.18127	-387.039091	-387.030337	-387.029393	-387.07219	34.139	
C	 0.0701805458	 1.5322063797	 0.0846607343	-0.382419
C	-0.0111874175	 0.0012532411	 0.0323691637	-0.309942
C	 0.5730071147	-0.5592070342	-1.2304172721	 0.450008
C	 0.0092946462	-0.3013559653	-2.6582282457	-0.316798
C	 0.8057664356	-1.5410074023	-3.0701358315	 0.284164
C	 0.7444592901	-2.3031019223	-4.3588617501	-0.50666
C	 2.0581411435	-1.4745898337	-2.1736002319	 0.060525
O	 2.0047180026	-0.2781178974	-1.4030931696	-0.335734
C	 0.8043504437	-2.0698203713	-1.6334879667	-0.267566
H	 1.1073477008	 1.8641154606	-0.0124847613	 0.141199
H	-0.506825668	 1.9885040778	-0.7261226576	 0.118876
H	-0.3244787238	 1.9108619865	 1.0318043381	 0.111452
H	 0.5244646485	-0.4317800719	 0.8852845915	 0.10916
H	-1.0541396488	-0.3302804786	 0.1092856608	 0.10005
H	-1.0681188425	-0.4868935064	-2.7073855198	 0.095244
H	 0.254763393	 0.664168822	-3.1136518834	 0.094047
H	 1.082771273	-1.6859676235	-5.1994096255	 0.123782
H	 1.3834225915	-3.192659314	-4.3239293315	 0.118082
H	-0.2751251717	-2.6388770948	-4.5808872333	 0.119162
H	 3.0210138596	-1.9003184128	-2.4261858119	 0.101307
H	 0.5489994638	-3.0224637694	-1.1887058365	 0.09206
81.7224	143.0193	187.7534	211.553	240.2177	276.0766	349.1659	368.2785	457.7537	539.7198	581.7359	657.287	750.0262	768.14	793.4069	820.4445	865.5809	897.5746	919.6436	943.1067	958.7955	986.4186	1018.4729	1028.6364	1051.7172	1070.6768	1108.4137	1140.806	1149.8886	1174.441	1191.5139	1246.8792	1295.1574	1296.9002	1322.6167	1385.751	1405.9869	1407.7157	1424.7719	1475.2892	1486.0102	1490.5839	1497.3367	1500.2266	1508.901	3020.0411	3029.48	3036.7698	3042.4442	3066.164	3080.7456	3087.6664	3097.3853	3109.6721	3123.2465	3192.303	3206.284
CCC12CC3(C)C(O1)C23	CC[C@@]12C[C@@]3(C)[C@@H](O1)[C@@H]23	
InChI=1S/C8H12O/c1-3-8-4-7(2)5(8)6(7)9-8/h5-6H,3-4H2,1-2H3	InChI=1S/C8H12O/c1-3-8-4-7(2)5(8)6(7)9-8/h5-6H,3-4H2,1-2H3/t5-,6+,7-,8+/m1/s1
