22
gdb 75897	2.32326	1.50018	1.15977	3.6435	81.63	-0.2356	0.037	0.2727	1173.4581	0.19417	-404.412514	-404.402906	-404.401961	-404.446228	36.989	
C	-0.2231664845	 1.5477025542	-0.0396601482	-0.412426
C	 0.0774376058	 0.0522040043	 0.0023362477	-0.125625
C	 0.9637112813	-0.4036905915	-1.1666853814	 0.409424
O	 0.97815367	 0.0464719333	-2.2924862031	-0.390267
N	 1.7294660682	-1.4357196403	-0.69831735	-0.31419
C	 1.4397118899	-1.8184858134	 0.671291128	-0.196371
C	 0.776227132	-0.5401653472	 1.2618405425	 0.273937
C	 1.8730252847	 0.3949657321	 1.800555548	-0.424932
C	-0.2109856315	-0.8851047867	 2.3804126237	-0.441923
H	 0.6831001477	 2.1482180612	 0.0745131379	 0.123736
H	-0.6583798529	 1.7977744539	-1.0104517969	 0.140138
H	-0.9296153755	 1.8384806065	 0.7440311063	 0.108357
H	-0.8701200083	-0.4918067719	-0.1328616043	 0.094308
H	 2.291271494	-1.9851571859	-1.3289666939	 0.248787
H	 0.7514581796	-2.6759224531	 0.7179579614	 0.09761
H	 2.3524587317	-2.0927542725	 1.2108790631	 0.107099
H	 2.6100730024	 0.6388949069	 1.028942437	 0.126038
H	 1.4507522332	 1.3327943396	 2.1717577094	 0.120294
H	 2.4019960775	-0.0817384308	 2.6328167845	 0.11002
H	 0.297371816	-1.3755013899	 3.2185785961	 0.112951
H	-0.6917643981	 0.0175484624	 2.7718766364	 0.120211
H	-0.9986131433	-1.5579690809	 2.025267206	 0.112823
81.5	163.7236	191.3135	220.2766	234.3428	258.4928	296.7262	308.617	341.8801	371.8154	464.4841	514.7668	532.4736	543.1717	663.8813	705.4689	763.1504	819.6022	882.0122	933.4685	956.5909	988.7735	1021.169	1052.2721	1070.9197	1090.4345	1118.0878	1188.5731	1209.1346	1216.4453	1262.1006	1282.6833	1329.0419	1341.4892	1361.5874	1403.3063	1406.9657	1420.0866	1450.9381	1484.7059	1486.8171	1491.8623	1500.7481	1507.1755	1512.8103	1531.1411	1826.0383	2986.5017	2990.9226	3025.3831	3034.7544	3044.7765	3060.7129	3090.5376	3099.6176	3100.4778	3112.6481	3114.9147	3125.9264	3640.4204
CC1C(=O)NCC1(C)C	C[C@H]1C(=O)NCC1(C)C	
InChI=1S/C7H13NO/c1-5-6(9)8-4-7(5,2)3/h5H,4H2,1-3H3,(H,8,9)	InChI=1S/C7H13NO/c1-5-6(9)8-4-7(5,2)3/h5H,4H2,1-3H3,(H,8,9)/t5-/m0/s1
