16
gdb 129594	3.05106	1.30629	0.96552	3.495	72.04	-0.2136	0.0276	0.2412	1175.1457	0.126125	-434.053505	-434.045315	-434.04437	-434.087332	29.964	
N	 0.2062478178	 1.2837484316	 0.7862893311	-0.611541
C	 0.0540528789	 0.0334165419	 0.1887114599	 0.27642
C	-1.0393241251	-0.5875430053	-0.4042100709	 0.192851
C	-0.5555945429	-1.8796497336	-0.7347631045	-0.08443
N	 0.7116598627	-2.0546019088	-0.3964604606	-0.235429
N	 1.0611518329	-0.8716284321	 0.174941165	-0.2368
C	-2.3546912987	 0.0253863629	-0.6480693675	-0.088405
C	-3.5407405366	-0.74235447	-1.0487340932	-0.177875
O	-3.4377875621	-0.2426908017	 0.2785557959	-0.233634
H	 0.9568524405	 1.8403273813	 0.3945368472	 0.253495
H	-0.6532055864	 1.8162281373	 0.7809005969	 0.262659
H	-1.0900603591	-2.6791946708	-1.2273844239	 0.108685
H	 1.9757205221	-0.770237733	 0.5811487452	 0.270271
H	-2.3299007876	 1.074923513	-0.9499058225	 0.077593
H	-4.297723496	-0.2744773035	-1.6780345325	 0.109576
H	-3.4702733206	-1.824824519	-1.1475970257	 0.116564
28.8576	149.3206	164.7441	182.3344	271.9144	320.444	438.785	469.6	510.4972	624.5856	661.2359	699.3626	750.6331	752.0939	811.1654	887.2723	914.2113	956.3403	1006.2897	1090.0227	1102.7927	1121.2097	1159.7355	1164.1621	1198.3911	1244.9377	1293.0462	1343.6759	1391.6419	1422.8989	1471.6169	1527.0794	1561.09	1620.465	1660.877	3073.6615	3079.625	3160.9593	3239.6246	3530.7517	3630.5706	3673.7845
NC1=C(C=NN1)C1CO1	Nc1c(cn[nH]1)[C@H]1CO1	
InChI=1S/C5H7N3O/c6-5-3(1-7-8-5)4-2-9-4/h1,4H,2H2,(H3,6,7,8)	InChI=1S/C5H7N3O/c6-5-3(1-7-8-5)4-2-9-4/h1,4H,2H2,(H3,6,7,8)/t4-/m1/s1
