14
gdb 84193	3.71671	1.07651	0.86674	2.5043	70.9	-0.2748	-0.0669	0.2079	1235.9295	0.100286	-436.722662	-436.714606	-436.713661	-436.755708	29.25	
O	 0.4644316799	 1.3713916728	-0.2050378268	-0.433375
C	 0.2358628549	 0.012838875	 0.0563204223	 0.027269
C	 0.7469417569	-0.4688816018	 1.3861667188	-0.179765
C	-0.1420326719	-1.2654595713	 2.0024413304	 0.177243
C	-1.4443061603	-1.4001124988	 1.2325746408	-0.423238
C	-1.2635641173	-0.326905047	 0.1581053629	 0.352674
O	-2.1157889479	 0.2583817257	-0.4536396704	-0.299184
C	 0.067817017	-1.9290053518	 3.2420725797	 0.216794
N	 0.2078301113	-2.4842969036	 4.2487621574	-0.321553
H	-0.3209390649	 1.6909429234	-0.6718929051	 0.30092
H	 0.6678377958	-0.6185210668	-0.7457726745	 0.11366
H	 1.7310284862	-0.2212710155	 1.7623733066	 0.144842
H	-1.5554129644	-2.3883757162	 0.7678663642	 0.160921
H	-2.3405683852	-1.2242225139	 1.8342535638	 0.162791
81.3515	114.6444	151.8935	244.6423	307.075	336.1058	418.4512	459.5973	497.7391	564.6458	569.0854	623.9213	698.8304	766.5127	868.9078	897.4986	965.7209	1026.3882	1090.1961	1117.4573	1153.4747	1183.7383	1221.401	1271.1062	1314.8247	1339.92	1409.3586	1449.2263	1661.3312	1861.0864	2341.4916	2905.3021	3037.6032	3097.7325	3228.5264	3743.5036
OC1C=C(CC1=O)C#N	O[C@H]1C=C(CC1=O)C#N	
InChI=1S/C6H5NO2/c7-3-4-1-5(8)6(9)2-4/h1,5,8H,2H2	InChI=1S/C6H5NO2/c7-3-4-1-5(8)6(9)2-4/h1,5,8H,2H2/t5-/m0/s1
