19
gdb 56219	3.75057	0.88544	0.75885	8.4196	73.94	-0.2323	0.01	0.2422	1488.5552	0.158596	-456.402097	-456.392093	-456.391149	-456.438208	35.101	
C	-0.2135152436	 1.3029806628	 0.1622377879	-0.484324
C	-0.0302089268	-0.1597685423	-0.1759685816	 0.376666
N	-0.525885903	-1.1429729677	 0.4947823686	-0.537453
N	 0.7323253284	-0.4051463838	-1.2711923228	-0.271361
H	 1.051511105	 0.3763062305	-1.8154692478	 0.252242
C	 1.0550833933	-1.7509125357	-1.7243050111	-0.194338
C	-0.1430050874	-2.5426580381	-2.3213533021	-0.319647
C	-0.4625654896	-3.8507587223	-1.5868907954	 0.380305
O	-0.6475145364	-3.7424927376	-0.2716620971	-0.382123
O	-0.5432687813	-4.9069747393	-2.1631770246	-0.338495
H	-0.8914182249	 1.4224555839	 1.0082711721	 0.142153
H	 0.7470154752	 1.7625787451	 0.4173225703	 0.15059
H	-0.6277396408	 1.8498560903	-0.6913778251	 0.144932
H	-1.0557892478	-0.8231760574	 1.2981594068	 0.226396
H	-0.5941988578	-2.7889000467	 0.0360034851	 0.334157
H	 1.842772093	-1.6506324061	-2.4736923319	 0.119387
H	 1.482349224	-2.3013358493	-0.8798418038	 0.145292
H	-1.0358160158	-1.9092480159	-2.2930873508	 0.129158
H	 0.042387396	-2.8040169903	-3.3639694266	 0.126462
44.3057	68.8215	96.9317	108.9522	169.9896	224.9818	274.3814	294.499	337.0872	442.8632	468.5323	587.1489	593.5058	645.0046	698.2291	791.403	792.3555	891.3994	940.3425	972.271	999.1493	1012.9719	1049.2442	1061.8974	1105.2024	1183.813	1209.5931	1293.4993	1303.7973	1331.8774	1373.7997	1402.1649	1410.6723	1466.7856	1476.4215	1479.4085	1487.2076	1508.9198	1572.6321	1690.6141	1847.0388	3032.5329	3043.8979	3054.4149	3061.8528	3104.5374	3107.3919	3129.5787	3144.9948	3550.3006	3676.5682
CC(N)=[NH+]CCC([O-])=O	CC(=N)NCCC(=O)O	
InChI=1S/C5H10N2O2/c1-4(6)7-3-2-5(8)9/h2-3H2,1H3,(H2,6,7)(H,8,9)	InChI=1S/C5H10N2O2/c1-4(6)7-3-2-5(8)9/h2-3H2,1H3,(H2,6,7)(H,8,9)
