19
gdb 36733	4.12984	0.80186	0.77738	1.6563	78.22	-0.2468	0.0301	0.2769	1517.7654	0.157961	-422.977198	-422.96798	-422.967036	-423.012703	33.011	
C	 0.5906279704	-1.1481062821	-0.201204195	-0.416098
C	 0.3991075953	 0.0371097105	-0.1911716786	 0.283397
C	 0.1334715032	 1.4696649282	-0.1873201657	-0.216492
O	 1.32218579	 2.1762815216	 0.1126271915	-0.263051
C	 1.1449667358	 3.585410657	 0.200160911	 0.111665
C	 2.419924463	 4.1641685102	 0.82101586	-0.243658
C	 3.3064699331	 4.3368199392	-0.413435219	-0.066339
O	 2.4218494701	 4.7834714871	-1.4369878509	-0.259415
C	 1.1175907898	 4.2675804707	-1.1878572029	-0.078322
H	 0.7667461202	-2.1953456488	-0.2084471511	 0.201795
H	-0.2732589907	 1.7669819655	-1.1678168247	 0.121183
H	-0.6456167361	 1.7012926003	 0.5595573437	 0.118918
H	 0.2414540652	 3.8077188801	 0.7852873452	 0.068426
H	 2.2053459205	 5.1371071848	 1.2736075518	 0.107766
H	 2.8317578112	 3.4967216317	 1.5795520368	 0.117646
H	 4.0907820333	 5.0895959421	-0.2955735701	 0.106118
H	 3.7741941803	 3.3803875093	-0.6898389512	 0.105254
H	 0.8384268259	 3.5459514242	-1.9674136874	 0.101182
H	 0.4015727794	 5.0985700986	-1.2193974633	 0.100026
34.8685	60.8668	116.2397	125.2767	197.1268	282.3653	333.0399	360.638	440.9735	533.3441	610.6063	647.6885	676.8823	747.6108	858.2061	878.2503	923.409	933.5125	959.8271	985.5986	999.2947	1033.2746	1066.4344	1110.5159	1119.7188	1152.6608	1194.6181	1230.9536	1251.4151	1258.4176	1295.1099	1325.6409	1356.314	1370.6579	1405.2592	1430.8128	1470.4979	1500.1537	1507.3833	1521.8284	2248.9668	2954.6262	2978.2955	2997.2357	3000.8191	3013.1498	3045.3086	3063.4119	3089.4868	3132.1583	3505.9048
C#CCOC1CCOC1	C#CCO[C@H]1CCOC1	
InChI=1S/C7H10O2/c1-2-4-9-7-3-5-8-6-7/h1,7H,3-6H2	InChI=1S/C7H10O2/c1-2-4-9-7-3-5-8-6-7/h1,7H,3-6H2/t7-/m0/s1
