14
gdb 126486	1.9626	1.80476	1.00356	3.0802	69.3	-0.3189	-0.0857	0.2332	1125.6726	0.100768	-432.843962	-432.835924	-432.834979	-432.877465	28.252	
C	 0.0059803736	 1.4813801576	-0.3068449981	-0.393593
C	-0.0475563735	-0.0043941329	 0.0906125407	-0.311504
C	-1.4344469061	-0.5610536085	 0.0591469016	 0.250774
N	-2.1002756239	-0.8911660529	 1.1318750751	-0.121626
O	-3.3242483362	-1.3424964889	 0.7027488309	-0.137375
N	-3.4328675531	-1.299571859	-0.6418695526	-0.13523
C	-2.2858885852	-0.8222426639	-1.0658997002	 0.20143
C	-2.0000271497	-0.6276379224	-2.4434738545	 0.266299
N	-1.7117680959	-0.4479997631	-3.5489045253	-0.322217
H	 1.037438817	 1.840499861	-0.2657452698	 0.135136
H	-0.3632498635	 1.6361155767	-1.3247007503	 0.145439
H	-0.5964819364	 2.0895980804	 0.3734536294	 0.138829
H	 0.5806532416	-0.5906181172	-0.5895706714	 0.138642
H	 0.3474479015	-0.1446466168	 1.0999914146	 0.144996
50.4145	124.2398	165.2541	188.1269	222.6751	334.0107	393.787	530.7091	553.4445	590.0693	647.2905	682.8691	776.3202	802.9367	904.1131	952.6989	978.5633	1062.5981	1079.961	1106.8259	1229.1575	1281.9226	1353.4677	1405.1333	1416.2197	1479.7799	1492.1038	1499.38	1509.8922	1597.3512	2365.0537	3047.354	3051.0533	3102.2406	3126.7513	3128.2384
CCC1=NON=C1C#N	CCc1nonc1C#N	
InChI=1S/C5H5N3O/c1-2-4-5(3-6)8-9-7-4/h2H2,1H3	InChI=1S/C5H5N3O/c1-2-4-5(3-6)8-9-7-4/h2H2,1H3
