17
gdb 33428	2.76746	1.04336	0.80075	4.5772	76.91	-0.3043	-0.0081	0.2962	1391.241	0.135734	-380.878209	-380.869151	-380.868206	-380.912942	32.195	
N	 0.2515164176	-1.1933891195	-0.131132494	-0.31275
C	 0.1384289367	-0.0453263631	-0.0874950706	 0.319279
C	 0.009111901	 1.417822505	-0.022800364	-0.298633
C	 1.3941936163	 2.1316279446	 0.0590243941	-0.218051
C	 2.1460123482	 1.8073429521	 1.3281699501	 0.007672
C	 3.0348447732	 0.5894361975	 1.4156458938	-0.24693
C	 3.6463190803	 1.9646637301	 1.3670209842	-0.282959
C	-0.76923503	 1.9126621337	-1.1668993755	 0.293939
N	-1.3618792443	 2.3423438534	-2.05958053	-0.300603
H	-0.5563178016	 1.657193643	 0.8875549456	 0.176894
H	 1.9814028055	 1.852321762	-0.8211949972	 0.134886
H	 1.1997235936	 3.2070929288	-0.0119279999	 0.135429
H	 1.6182187464	 2.0809567855	 2.23898904	 0.091099
H	 3.0593543014	 0.043128195	 2.3512908118	 0.124942
H	 3.1206526011	-0.0387963717	 0.5362128302	 0.133387
H	 4.1466658336	 2.2662165018	 0.4526102617	 0.120216
H	 4.0915033409	 2.3683849418	 2.2690693697	 0.122182
53.1782	90.1215	123.7641	138.7493	208.5923	247.1338	348.2656	388.272	395.9617	503.1341	579.9008	592.1856	774.2263	794.4073	831.5497	843.0511	920.6737	939.7082	980.7843	1029.1673	1059.028	1069.9456	1089.028	1130.4835	1140.6422	1197.4068	1229.2245	1245.0892	1283.8787	1326.046	1354.0394	1419.6282	1471.821	1483.4771	1510.1714	2367.8665	2373.3097	3034.2561	3050.1833	3096.9549	3132.9135	3135.7305	3146.686	3216.4651	3233.4267
N#CC(CC1CC1)C#N	N#CC(CC1CC1)C#N	
InChI=1S/C7H8N2/c8-4-7(5-9)3-6-1-2-6/h6-7H,1-3H2	InChI=1S/C7H8N2/c8-4-7(5-9)3-6-1-2-6/h6-7H,1-3H2
