20
gdb 12885	2.59028	2.20532	1.716	1.5467	74.53	-0.2421	0.0855	0.3276	896.0114	0.177733	-349.004902	-348.996883	-348.995939	-349.036647	30.831	
C	-0.1614994729	 1.5677632975	-0.0079696583	-0.430139
C	 0.0232898024	 0.0644648046	 0.0551952594	-0.04903
C	 1.3317369742	-0.6493947758	-0.2186357582	-0.121556
C	 2.6162248373	 0.1466245088	-0.0999493702	-0.094902
O	 2.5409909341	 0.8457500602	 1.1417879039	-0.255434
C	 1.6895251655	 0.12584632	 2.0283096952	-0.135762
C	 0.7254572677	-0.6834489855	 1.1710910035	 0.302977
C	 0.1087546006	-1.9169449915	 1.7857657288	-0.486127
H	 0.710360179	 2.1014474506	 0.3732821477	 0.145306
H	-0.3330424185	 1.8903210526	-1.0411884804	 0.112328
H	-1.0347725749	 1.8749533875	 0.5784577617	 0.111613
H	-0.8360830536	-0.4832705278	-0.3283193477	 0.078257
H	 1.3360294974	-1.5293896907	-0.8532688327	 0.081738
H	 3.48313548	-0.5336985765	-0.1200568241	 0.09163
H	 2.7590030931	 0.8998408019	-0.8833184236	 0.105777
H	 2.2719403029	-0.5591040638	 2.6673392538	 0.087309
H	 1.2036961393	 0.8622596905	 2.6794639227	 0.103868
H	-0.5631314833	-1.6595252454	 2.6134598393	 0.119102
H	-0.4787884601	-2.473143146	 1.0490419533	 0.117492
H	 0.8762217997	-2.5928066011	 2.1817212259	 0.115555
182.5365	195.2273	197.6577	214.6259	234.3539	248.047	316.894	456.8618	499.3958	572.8027	690.4827	720.5522	805.7848	860.7983	928.2475	932.1195	960.9245	991.3736	1001.1287	1052.8046	1069.4733	1093.1358	1121.1477	1129.4208	1146.9469	1162.623	1223.7869	1246.4809	1253.1236	1300.5595	1349.666	1366.4592	1379.8987	1414.0985	1420.6715	1467.6381	1489.1924	1499.3504	1502.6681	1507.1261	1517.7216	1526.5399	2961.6202	2972.6521	3020.0663	3031.0856	3048.4457	3054.3202	3076.3713	3083.0918	3099.5089	3112.9547	3140.3248	3165.0563
CC1C2COCC12C	C[C@H]1[C@H]2COC[C@@]12C	
InChI=1S/C7H12O/c1-5-6-3-8-4-7(5,6)2/h5-6H,3-4H2,1-2H3	InChI=1S/C7H12O/c1-5-6-3-8-4-7(5,6)2/h5-6H,3-4H2,1-2H3/t5-,6+,7-/m0/s1
