18
gdb 44046	2.53629	1.7926	1.59359	2.7819	75.95	-0.2513	0.024	0.2753	947.3904	0.148598	-401.892355	-401.885022	-401.884078	-401.92394	29.445	
N	 0.0637243951	 1.1254197671	-0.5214815787	-0.549646
C	 0.0005684335	-0.0445402353	-0.0770757348	 0.35546
O	 1.0035231783	-0.8441807334	 0.4943292589	-0.305983
C	 0.0397805887	-1.926382447	 0.6737518451	 0.381891
C	-0.6838507021	-1.996117224	 2.0408147847	-0.299923
C	-1.8713150524	-1.1743392177	 1.4039574456	-0.299196
C	-1.0717848116	-1.1019205495	 0.0647934458	 0.137838
C	-1.2359877567	-2.1518220563	-1.0791453095	-0.299196
C	-0.0445143648	-2.9797438905	-0.457924833	-0.299923
H	 1.0066055457	 1.5088634568	-0.4311795391	 0.228492
H	-0.9426731207	-3.0026194986	 2.3775517854	 0.110875
H	-0.1433453775	-1.4865277418	 2.8403026186	 0.12508
H	-2.8025922881	-1.7385660459	 1.3174041496	 0.113163
H	-2.0917030352	-0.212049402	 1.868884459	 0.125975
H	-2.1967729419	-2.670650535	-1.0503373487	 0.113163
H	-1.0789730556	-1.770211111	-2.0893179501	 0.125975
H	 0.8573393657	-3.026084422	-1.0707224339	 0.12508
H	-0.3004927506	-3.9906058638	-0.132255385	 0.110875
106.8116	166.5625	242.0369	288.2444	353.0603	374.7864	596.1303	632.9913	638.6335	708.2293	709.3177	715.0685	735.9227	835.9922	869.1748	882.3996	886.4351	893.6496	923.7901	961.9532	997.7324	1026.5179	1143.6764	1156.9415	1167.7421	1208.3249	1221.5375	1221.5703	1235.9712	1241.4952	1252.3506	1269.519	1285.5893	1314.1438	1456.9875	1463.3697	1470.1618	1483.6019	1811.4261	3068.9249	3070.0396	3072.701	3075.317	3120.7934	3122.3465	3136.391	3139.4317	3471.3704
N=C1OC23CCC12CC3	[NH][C]1O[C@@]23CC[C@@]12CC3	
InChI=1S/C7H9NO/c8-5-6-1-3-7(6,9-5)4-2-6/h8H,1-4H2	InChI=1S/C7H9NO/c8-5-6-1-3-7(6,9-5)4-2-6/h8H,1-4H2/t6-,7-
