17
gdb 6497	3.79831	1.42583	1.21884	6.2975	64.42	-0.2434	0.0321	0.2756	1012.2327	0.142397	-401.022328	-401.014375	-401.01343	-401.054859	30.028	
N	-0.4344448309	 0.9670048163	-0.3411640265	-0.576465
H	 0.1137536102	 0.1143793954	-0.309784012	 0.245241
H	 0.3995044748	 2.5310561452	-0.6616646954	 0.31408
H	-1.2558508276	 0.7818500823	-0.9116570656	 0.244272
C	-0.8184913584	 1.407298943	 0.9973918169	 0.319279
C	-1.2374373097	 2.8692409559	 1.0074315881	-0.390055
C	-0.1474698108	 3.864474586	 0.5803866668	 0.405616
O	 0.6411967565	 3.461289387	-0.4247055958	-0.373321
O	-0.0289112081	 4.9466840841	 1.0920088689	-0.333081
C	-1.4727627042	 0.4470621245	 1.9617099359	-0.309543
C	-0.0279667544	 0.8649772015	 2.1534781259	-0.290868
H	-2.0919206361	 3.008123429	 0.3292497696	 0.122891
H	-1.5734964116	 3.1703127659	 2.0007870852	 0.13321
H	-2.2162536453	 0.8279062388	 2.6537095346	 0.123647
H	-1.6606335937	-0.5634678732	 1.6136244445	 0.111277
H	 0.7456838855	 0.1317494904	 1.9480788246	 0.116838
H	 0.2124912439	 1.5401255979	 2.9670313644	 0.136981
77.1152	90.5301	221.4701	301.4937	326.8664	339.1876	386.0153	432.3867	475.4026	574.4293	668.3449	766.3575	778.5431	861.0741	869.4308	910.0253	943.8575	948.2712	971.7003	972.4622	1005.2125	1052.3422	1080.4204	1159.3	1180.8067	1187.3953	1277.534	1313.8522	1330.2182	1394.1992	1460.2389	1464.4921	1484.429	1504.3799	1644.6939	1859.2016	3015.7248	3122.323	3127.9018	3132.8992	3209.1134	3222.913	3294.9133	3486.483	3579.1997
[NH3+]C1(CC([O-])=O)CC1	NC1(CC(=O)O)CC1	
InChI=1S/C5H9NO2/c6-5(1-2-5)3-4(7)8/h1-3,6H2,(H,7,8)	InChI=1S/C5H9NO2/c6-5(1-2-5)3-4(7)8/h1-3,6H2,(H,7,8)
