21
gdb 73444	2.19871	1.85586	1.52711	1.018	81.54	-0.2363	0.0777	0.314	1016.0818	0.183553	-387.077644	-387.069433	-387.068489	-387.109629	33.289	
C	-0.0238263933	 1.5226773048	-0.0688638986	-0.519331
C	-0.0148638777	 0.0280613948	 0.0129304362	 0.307213
C	 0.4542220702	-1.0427396805	-0.976546236	-0.181376
C	 1.2232733267	-1.7753816258	 0.1182318123	-0.242181
C	 0.4781161438	-0.8905414691	 1.1727943255	-0.099076
C	-0.7814912084	-1.5979754819	 1.699537711	-0.20795
C	-1.6262189597	-1.8565459933	 0.422675289	-0.29465
C	-1.020260743	-0.899287013	-0.6057335624	 0.375116
O	-1.8478239837	-0.3512370044	-1.588578349	-0.486604
H	 0.9868955663	 1.9417527041	-0.0060042217	 0.111567
H	-0.4700872052	 1.8436086846	-1.0146344893	 0.134668
H	-0.6160489662	 1.9622313468	 0.7431917961	 0.115222
H	 0.75707557	-0.908889359	-2.0104706236	 0.073713
H	 1.1009368464	-2.8622403402	 0.2056894779	 0.083409
H	 2.2916822577	-1.545758091	 0.0788908023	 0.099134
H	 1.1036750316	-0.4435528087	 1.946361286	 0.065317
H	-0.5451086729	-2.5150135785	 2.2487935547	 0.092538
H	-1.3227359554	-0.9348591685	 2.3837213339	 0.097082
H	-1.5738632809	-2.9021988454	 0.0975741281	 0.090982
H	-2.6828186165	-1.6142505452	 0.5681444601	 0.103452
H	-1.9515148498	-1.0017406606	-2.2910907023	 0.281755
185.5062	192.2886	197.9531	216.775	277.8266	329.8255	379.8248	385.59	488.633	558.18	613.5609	650.3173	697.8331	756.4585	831.0288	852.8225	891.6769	906.6057	936.7158	953.133	978.1408	1001.3059	1039.241	1075.9885	1088.2239	1122.2711	1131.0241	1150.5906	1195.0854	1210.9943	1226.2527	1242.4581	1267.8956	1274.3697	1290.9253	1315.7572	1336.0233	1355.221	1411.4133	1468.4707	1485.2806	1490.9036	1493.581	1497.8081	1512.0047	3019.6346	3021.0789	3032.7149	3038.6131	3074.5506	3075.7863	3083.9321	3091.8964	3104.0095	3108.5713	3156.2742	3799.5816
CC12C3CC1CCC23O	C[C@@]12[C@H]3C[C@@H]1CC[C@@]23O	
InChI=1S/C8H12O/c1-7-5-2-3-8(7,9)6(7)4-5/h5-6,9H,2-4H2,1H3	InChI=1S/C8H12O/c1-7-5-2-3-8(7,9)6(7)4-5/h5-6,9H,2-4H2,1H3/t5-,6+,7-,8-/m0/s1
