20
gdb 65983	2.2487	1.49205	1.36879	2.3251	79.08	-0.2631	0.0287	0.2918	1095.0613	0.170884	-403.138371	-403.129517	-403.128573	-403.171873	33.562	
C	 0.047975186	 1.6123010272	-0.1404621124	-0.44683
C	-0.0286840645	 0.0918795827	 0.0177543697	 0.154281
C	 0.9401326364	-0.7157187037	-0.8913685296	-0.119122
O	 1.7009851228	-1.1429379335	 0.2836938212	-0.261163
C	 0.86522183	-0.4495245	 1.1272661299	 0.412797
N	 0.8863139426	-0.3259707115	 2.3764699443	-0.553056
C	-1.4652425353	-0.3938282872	 0.0279723097	-0.044087
C	-1.8717769738	-1.7111783642	 0.6402203019	-0.288719
C	-2.2756309782	-0.4148732473	 1.299309286	-0.270603
H	 1.0844709161	 1.9613631047	-0.1757791557	 0.121032
H	-0.4518094957	 1.9272687885	-1.0630239994	 0.115932
H	-0.4475406757	 2.1023894136	 0.7016825388	 0.142936
H	 0.5070316467	-1.5765449876	-1.4055025564	 0.120438
H	 1.5688023802	-0.1330457772	-1.5695529613	 0.114717
H	 1.6646423032	-0.8421166675	 2.7907717348	 0.226649
H	-2.0044033243	-0.1078529278	-0.8729014164	 0.083099
H	-2.6294109986	-2.2947827202	 0.1291871953	 0.108628
H	-1.1120848157	-2.3038280422	 1.1381031872	 0.125154
H	-1.7612185413	-0.1536591006	 2.2171391719	 0.150043
H	-3.314198141	-0.1076698461	 1.2482794407	 0.107873
83.1354	115.8213	154.8465	212.3457	215.0559	246.7541	329.2124	377.063	445.3656	505.8812	641.4017	696.7261	757.9372	792.1498	835.1847	855.3546	872.5781	898.5825	933.6345	963.0734	971.3274	990.4553	1022.3491	1061.3913	1079.9855	1094.8341	1141.6777	1156.278	1173.3816	1199.0259	1209.861	1230.4831	1241.3224	1281.8045	1371.2551	1394.4484	1414.8244	1466.5298	1490.386	1493.0186	1503.8503	1514.6667	1812.0899	3034.5637	3060.4322	3102.8942	3120.7829	3122.7511	3124.5201	3135.5885	3139.5114	3216.961	3232.8356	3471.3963
CC1(COC1=N)C1CC1	C[C@]1(CO[C]1[NH])C1CC1	
InChI=1S/C7H11NO/c1-7(5-2-3-5)4-9-6(7)8/h5,8H,2-4H2,1H3	InChI=1S/C7H11NO/c1-7(5-2-3-5)4-9-6(7)8/h5,8H,2-4H2,1H3/t7-/m0/s1
