17
gdb 84772	2.2873	1.53553	1.31406	3.2546	72.61	-0.2722	-0.0025	0.2697	1056.3128	0.135501	-418.039052	-418.030353	-418.029409	-418.073006	31.941	
C	 0.0784879983	 1.6096576261	-0.1990288293	-0.399768
C	 0.0273889836	 0.0992991174	 0.0113856949	-0.019635
N	 0.6425868866	-0.6259315227	-1.1114556429	-0.259619
C	 1.4369336552	-1.4701645968	-0.6103456051	 0.113211
O	 1.5976490848	-1.5386660373	 0.7371226617	-0.24274
C	 0.7848583675	-0.4630117411	 1.2892704985	 0.199266
C	 1.7212720571	 0.503821786	 2.0160069624	-0.429224
C	-0.1648187128	-1.0609152259	 2.2382814392	 0.268664
N	-0.934071999	-1.4910994779	 2.9853653674	-0.333004
H	 1.1044765823	 1.9709348797	-0.3043687871	 0.126134
H	-0.45704261	 1.8523725834	-1.119767515	 0.143317
H	-0.4019117913	 2.1423519527	 0.6268275656	 0.126073
H	-1.0235308193	-0.2046127932	 0.0677914539	 0.120085
H	 2.0398087888	-2.1825926506	-1.1619943807	 0.153181
H	 2.4432814378	 0.9204762496	 1.310674098	 0.139523
H	 1.1588459671	 1.3199170931	 2.475245509	 0.144152
H	 2.2641380833	-0.0297178626	 2.7990585495	 0.150384
28.1393	154.4139	184.7852	227.5557	256.2792	291.6552	303.24	374.5948	439.8954	515.7237	562.3965	575.538	621.663	734.5755	828.8895	867.9052	919.7812	940.1155	961.9832	1033.8574	1064.0099	1106.1191	1136.3393	1160.2989	1186.3299	1206.2271	1320.0994	1332.8481	1371.1625	1405.8533	1414.466	1475.0419	1483.9033	1494.38	1506.4412	1716.4763	2358.8725	3044.8753	3049.4	3059.8541	3123.9175	3131.8083	3140.866	3144.1493	3221.326
CC1N=COC1(C)C#N	C[C@H]1N=CO[C@]1(C)C#N	
InChI=1S/C6H8N2O/c1-5-6(2,3-7)9-4-8-5/h4-5H,1-2H3	InChI=1S/C6H8N2O/c1-5-6(2,3-7)9-4-8-5/h4-5H,1-2H3/t5-,6-/m1/s1
