21
gdb 87737	4.47255	0.86182	0.81458	0.8739	90.88	-0.2501	0.0513	0.3014	1486.3645	0.180908	-349.902074	-349.892722	-349.891778	-349.936246	35.976	
C	 0.0062664232	 1.5074504334	-0.1132317157	-0.405396
C	 0.0561238853	 0.0002440628	-0.0032395931	-0.047035
C	 1.3679887853	-0.7392769963	-0.1606345466	-0.368576
C	 0.6919567273	-0.6874246388	 1.1766377519	 0.364065
C	 1.1634864039	-0.0163559485	 2.4733825668	-0.308016
C	 0.1888759621	-0.961785312	 3.2579975557	-0.153311
C	 0.0668635633	-1.8428565498	 1.9665209441	-0.306711
C	 0.6612995305	-1.5837327562	 4.4766006075	 0.313239
C	 1.0732841868	-2.1094590313	 5.4773135507	-0.457785
H	 0.9128550899	 1.9668509832	 0.2939822595	 0.116387
H	-0.0791366295	 1.8224401081	-1.1590830638	 0.118447
H	-0.8497036219	 1.924259555	 0.4301832792	 0.114352
H	-0.8160536734	-0.5072111123	-0.4117369453	 0.080719
H	 1.3755653372	-1.6831387304	-0.6973588824	 0.108217
H	 2.2664992136	-0.1435382733	-0.2973624826	 0.107314
H	 2.2088219149	-0.2340071536	 2.7092548667	 0.111335
H	 0.9892988827	 1.0561241819	 2.5895774673	 0.105316
H	-0.7573732755	-0.4445802533	 3.4453379817	 0.101952
H	-0.9419666645	-2.1610955089	 1.6905433398	 0.102836
H	 0.7160562855	-2.7214337083	 2.0213508344	 0.110931
H	 1.4316033634	-2.5713309613	 6.3634604842	 0.191719
48.6605	120.1167	181.1971	187.6648	217.2171	241.6709	334.3516	404.9845	444.4479	461.5787	524.6472	546.5683	616.4736	622.3429	695.157	776.1171	831.9434	858.2898	880.9391	910.2164	929.786	962.3071	1016.6056	1039.5876	1053.8949	1074.222	1104.6173	1113.8159	1129.9342	1183.6525	1202.1926	1224.2985	1234.8314	1245.6042	1253.0249	1334.4834	1352.5223	1407.1654	1428.9728	1474.7858	1489.2555	1491.4331	1497.0652	1505.3763	2232.022	3025.0893	3051.2147	3052.3257	3057.9352	3085.4804	3093.6949	3106.4902	3111.523	3113.8444	3122.7108	3197.5465	3505.6218
CC1CC11CC(C1)C#C	C[C@H]1C[C@]21C[C@@H](C2)C#C	
InChI=1S/C9H12/c1-3-8-5-9(6-8)4-7(9)2/h1,7-8H,4-6H2,2H3	InChI=1S/C9H12/c1-3-8-5-9(6-8)4-7(9)2/h1,7-8H,4-6H2,2H3/t7-,8-,9-/m0/s1
