14
gdb 12186	3.50492	1.53383	1.27078	5.4165	63.64	-0.2711	-0.0518	0.2194	962.4572	0.106302	-378.723954	-378.716157	-378.715213	-378.756559	27.56	
C	 0.2477591737	 1.5816224364	-0.0483026313	-0.390373
C	 0.0717285127	 0.0745339027	 0.0526123031	-0.068924
N	 0.9596379029	-0.7487384006	-0.8192236758	-0.321062
C	 1.3503576803	-1.6689244629	 0.2740509203	-0.249823
C	 2.77651403	-1.9361472922	 0.4065858243	 0.314044
N	 3.9065995619	-2.1424974283	 0.532399066	-0.314206
C	 0.6880695551	-0.6451923807	 1.2611242932	 0.389443
O	 0.6996905055	-0.4918744003	 2.4377870115	-0.256895
H	 1.3033091513	 1.8505583369	 0.0377787252	 0.141072
H	-0.1240913084	 1.9469222608	-1.010048316	 0.130437
H	-0.3121698045	 2.0786166749	 0.7494804699	 0.138602
H	-0.9941263638	-0.1939256389	-0.0229380415	 0.107836
H	 0.503252998	-1.2033823015	-1.6008208791	 0.237657
H	 0.8004582852	-2.6210759364	 0.3108182603	 0.14219
62.8771	128.906	190.3924	202.4448	239.8483	362.7958	408.5851	525.285	535.5639	582.1738	637.9927	760.51	851.2403	892.6423	954.1149	993.3716	1054.3545	1074.2471	1081.5164	1136.1822	1148.2626	1265.4304	1307.4969	1366.3225	1382.0863	1404.9805	1483.8365	1494.6841	1935.3099	2358.0447	2982.4589	3002.0303	3045.8518	3119.2297	3132.3702	3557.567
CC1NC(C#N)C1=O	C[C@H]1N[C@@H](C#N)C1=O	
InChI=1S/C5H6N2O/c1-3-5(8)4(2-6)7-3/h3-4,7H,1H3	InChI=1S/C5H6N2O/c1-3-5(8)4(2-6)7-3/h3-4,7H,1H3/t3-,4+/m1/s1
