20
gdb 10608	2.33437	1.7719	1.33471	0.9909	71.42	-0.2418	0.0796	0.3214	1045.7037	0.174331	-386.11246	-386.102907	-386.101963	-386.146413	34.843	
C	-0.7364518791	 1.3832504059	 0.6345710657	-0.378233
C	-0.0411847376	 0.1338806408	 0.0835789518	-0.245902
C	 0.9092399068	-0.491980485	 1.0858805724	 0.419638
C	 0.3627767138	-1.3807951323	 2.1757534548	-0.378987
C	 1.1949054665	-1.9699546455	 1.0533865679	 0.026766
O	 0.5883839367	-2.7369684238	 0.0537623355	-0.421843
O	 1.9661358861	 0.322292695	 1.5246546585	-0.283656
C	 2.9587506012	 0.5754091882	 0.5477503303	-0.25222
H	-0.002528743	 2.1286602519	 0.9538862865	 0.125742
H	-1.3821402491	 1.8397153233	-0.1217159903	 0.106539
H	-1.3552662941	 1.1376867258	 1.5040121308	 0.114538
H	-0.7722382017	-0.6231159719	-0.2123045297	 0.112734
H	 0.5096915944	 0.3867238898	-0.8310714725	 0.096571
H	 0.8158098877	-1.3053975676	 3.1575737899	 0.120029
H	-0.7039337073	-1.5795818225	 2.1628040373	 0.111728
H	 2.2132811777	-2.261978076	 1.3101034625	 0.091996
H	 0.2964748722	-3.5643769437	 0.4506279685	 0.288858
H	 3.3508157669	-0.3565037655	 0.1165344249	 0.109945
H	 2.5887902122	 1.2071200199	-0.271436432	 0.111419
H	 3.7707738497	 1.1033843431	 1.0536569171	 0.124337
76.041	119.9827	163.9351	181.9344	205.7139	218.8893	273.7807	302.5366	328.5391	417.9836	452.1221	497.9965	583.8617	687.8579	782.994	832.8739	885.0105	957.7361	964.8746	1001.1309	1024.1314	1052.8445	1100.8099	1108.335	1116.4613	1176.2254	1184.2373	1214.4442	1245.1175	1271.1956	1306.0161	1329.8835	1377.0864	1407.9255	1410.5969	1468.7004	1481.0151	1487.1079	1495.4621	1500.9739	1508.5507	1512.8152	2993.5764	3033.2	3038.4521	3046.8528	3091.9555	3101.0838	3106.0154	3114.4843	3118.1032	3132.4691	3228.0628	3802.2684
CCC1(CC1O)OC	CC[C@]1(C[C@H]1O)OC	
InChI=1S/C6H12O2/c1-3-6(8-2)4-5(6)7/h5,7H,3-4H2,1-2H3	InChI=1S/C6H12O2/c1-3-6(8-2)4-5(6)7/h5,7H,3-4H2,1-2H3/t5-,6-/m1/s1
