17
gdb 68286	2.34794	1.54167	1.45196	2.7104	69.19	-0.2447	-0.036	0.2087	1001.4521	0.134024	-458.912114	-458.903712	-458.902768	-458.944872	32.343	
O	 0.0750315281	 1.3010256071	-0.1575736137	-0.465077
C	 0.0840233158	-0.0683208988	-0.0420531322	 0.357833
C	 0.7119321645	-1.0282506624	-1.0733836877	-0.274393
C	 0.0959122209	-1.941291477	 0.0348767149	-0.123712
C	 0.7104451254	-0.9617301859	 1.0797687884	-0.30547
C	-1.1697117798	-1.0336577309	 0.005810987	 0.277681
O	-1.9411302261	-0.8675303805	 1.1824185772	-0.491631
C	-2.1224638712	-1.0760842972	-1.1694113855	 0.07674
O	-2.0193425787	-1.7747569832	-2.1468763994	-0.252736
H	-0.3339784554	 1.6689030541	 0.6343724335	 0.293635
H	 0.2727582343	-1.0768858262	-2.0670387626	 0.130543
H	 1.8028791937	-1.0169085954	-1.1061185816	 0.101852
H	 0.1054146792	-3.0277864494	 0.0617898027	 0.089761
H	 1.8013305438	-0.9472514007	 1.1298454846	 0.098509
H	 0.2450474789	-0.9279239217	 2.0629016134	 0.109882
H	-2.4577766573	-1.6666421076	 1.3317320527	 0.290468
H	-2.9953600862	-0.3996963042	-1.0277386518	 0.086116
78.2275	163.6425	202.2833	257.7563	294.1592	311.3731	354.135	409.2357	450.9634	496.5543	552.562	640.0192	679.1927	705.056	784.5241	813.7308	921.5054	948.644	960.2653	1002.5192	1027.7126	1047.1379	1085.9366	1113.5964	1143.8005	1158.3616	1182.0199	1196.6202	1205.8127	1250.3704	1288.2734	1306.015	1386.7922	1411.3929	1494.1264	1542.8236	1816.7642	2882.9796	3077.4247	3087.532	3154.4124	3163.4826	3174.6929	3800.5307	3804.9591
OC12CC(C1)C2(O)C=O	O[C@@]12C[C@@H](C1)[C@]2(O)C=O	
InChI=1S/C6H8O3/c7-3-6(9)4-1-5(6,8)2-4/h3-4,8-9H,1-2H2	InChI=1S/C6H8O3/c7-3-6(9)4-1-5(6,8)2-4/h3-4,8-9H,1-2H2/t4-,5-,6-/m1/s1
