16
gdb 34892	2.33694	1.76982	1.23118	2.4802	73.05	-0.2576	-0.0024	0.2553	1016.2462	0.125317	-396.856952	-396.849422	-396.848478	-396.889064	28.791	
N	-0.1397037271	-1.1870605616	-0.1463126076	-0.331308
C	-0.0865126524	-0.0352982656	-0.0578723125	 0.305147
C	 0.0235766834	 1.4145892658	 0.0482084167	-0.21925
N	-0.2917878939	 2.0161609775	 1.4027769617	-0.133525
C	 0.7339707982	 1.5112065779	 2.340694706	-0.247042
C	 1.1194370793	 2.6023262874	 1.4257291017	-0.098001
C	 1.4361942168	 2.0420849133	 0.0618818284	 0.35524
C	 2.6956765949	 1.5643691712	-0.543884538	-0.306851
N	 2.0355703882	 2.8027642406	-1.0133612609	-0.370753
H	-0.6267077769	 1.8857645514	-0.6948397335	 0.139048
H	 0.5043876516	 1.7703960707	 3.3689740661	 0.137979
H	 1.1371988856	 0.5111888485	 2.2006363943	 0.139853
H	 1.3077390196	 3.6234757145	 1.7365371346	 0.121501
H	 3.6400413916	 1.716596474	-0.0293116515	 0.131909
H	 2.6486379485	 0.6744833952	-1.1665062993	 0.135496
H	 1.5513603526	 2.6447600791	-1.8940890162	 0.240558
105.835	131.698	190.2082	281.6152	323.8671	392.3106	480.6849	493.6584	558.4388	629.8632	742.4846	790.283	811.6951	864.0082	926.2984	942.7953	966.4651	981.9774	1005.2281	1043.5318	1050.6216	1089.5095	1118.4982	1124.8257	1144.9504	1208.9493	1225.3955	1252.5434	1275.7348	1324.4139	1328.4303	1439.0691	1501.211	1517.4768	2350.1198	3070.3182	3110.6054	3116.5443	3187.5242	3199.6492	3211.266	3497.4092
N#CC1N2CC2C11CN1	N#C[C@H]1N2C[C@H]2[C@]21CN2	
InChI=1S/C6H7N3/c7-1-4-6(3-8-6)5-2-9(4)5/h4-5,8H,2-3H2	InChI=1S/C6H7N3/c7-1-4-6(3-8-6)5-2-9(4)5/h4-5,8H,2-3H2/t4-,5+,6-,9?/m1/s1
