20
gdb 66424	2.65374	1.62669	1.29539	1.5932	83.53	-0.2036	0.0795	0.2831	1091.8921	0.168506	-365.917672	-365.908812	-365.907867	-365.950411	34.355	
C	-0.0625776991	 1.4419084689	 0.0379839795	-0.517158
C	 0.0598082995	-0.0411765472	 0.0312491613	 0.395419
C	 1.0917518853	-0.9966641771	-0.5119973895	-0.228553
C	 0.6884884638	-1.0366906765	 0.972891864	-0.228552
C	-0.4557548325	-2.0207007022	 0.611721126	 0.308233
C	-1.2533726345	-2.9807491426	 1.42626568	-0.524734
N	-1.0901205665	-0.9967458279	-0.3068053183	-0.295698
C	-0.064567335	-1.9818751076	-0.8286910196	 0.30823
C	-0.3278661308	-2.8888872565	-1.9816771899	-0.524731
H	 0.8927527481	 1.9034768953	 0.3100375073	 0.121371
H	-0.3535650328	 1.8157504809	-0.9500303115	 0.127731
H	-0.8183737451	 1.7696082665	 0.7604721701	 0.127734
H	 2.0670009573	-0.8228615875	-0.9464336136	 0.088407
H	 1.307872244	-0.898215087	 1.8488149136	 0.088407
H	-1.7170066151	-2.4775599487	 2.2825540618	 0.126139
H	-2.0539533891	-3.4173855523	 0.8211670665	 0.13086
H	-0.6268368001	-3.7949288391	 1.8080635009	 0.119948
H	-0.3020418169	-2.3370677638	-2.9283627375	 0.12614
H	 0.4168528267	-3.6912446985	-2.0347928182	 0.119947
H	-1.3183952873	-3.3445258271	-1.886962453	 0.130858
175.5334	177.8864	193.3444	196.1469	202.3578	219.4789	291.3511	349.3415	370.9908	551.2808	588.9848	671.2919	676.2676	751.2281	763.5322	812.4065	838.8192	852.6815	868.819	898.9172	940.017	989.1106	1028.9608	1078.8292	1092.0763	1103.599	1120.9216	1126.9243	1164.5033	1190.0692	1245.1201	1324.983	1399.2367	1404.0415	1408.8027	1448.2943	1472.9627	1473.1856	1475.3736	1484.5574	1487.1106	1497.4417	1502.557	3023.7941	3024.6294	3026.0067	3085.9142	3086.7334	3089.9763	3099.7352	3104.3928	3107.7393	3198.3232	3209.1862
CC12C3C1C1(C)N2C31C	C[C@@]12[C@H]3[C@@H]1[C@@]1(C)N2[C@@]31C	
InChI=1S/C8H11N/c1-6-4-5(6)8(3)7(4,2)9(6)8/h4-5H,1-3H3	InChI=1S/C8H11N/c1-6-4-5(6)8(3)7(4,2)9(6)8/h4-5H,1-3H3/t4-,5+,6-,7+,8-,9?
