16
gdb 34135	2.83717	1.76145	1.38779	4.1409	77.78	-0.2433	-0.0234	0.2198	944.697	0.126488	-363.572507	-363.565926	-363.564982	-363.60337	26.838	
N	-0.0014434004	-1.1336153972	 0.0326133894	-0.347189
C	-0.0184425766	 0.0230505962	 0.0354002831	 0.155651
C	-0.0367089439	 1.4650637856	 0.0342458592	 0.23516
C	-0.716567095	 2.4051613619	 1.0608158004	-0.289151
C	-0.0580040124	 3.349511343	 0.0287612847	-0.070002
C	 1.2195401449	 2.4314277748	-0.0193049042	-0.09176
C	 1.7151257724	 2.4351423548	-1.4555210069	-0.103468
C	 0.5962588051	 2.4203718464	-2.1829826561	-0.103464
C	-0.5151946011	 2.4085427322	-1.1471894155	-0.091756
H	-1.8084280546	 2.380308376	 1.0857095737	 0.110254
H	-0.2960285409	 2.4002603433	 2.0690422256	 0.110253
H	-0.0632046778	 4.4402776586	 0.0146296832	 0.087321
H	 1.9190905621	 2.4270831955	 0.8162057256	 0.083307
H	 2.7476877914	 2.4387600614	-1.7730303992	 0.115769
H	 0.4675727984	 2.4086603023	-3.2555088423	 0.115769
H	-1.5623857616	 2.3811522253	-1.4473698409	 0.083307
132.9059	165.7738	366.4986	408.9636	462.0612	522.538	545.9284	582.9007	695.3039	728.3076	783.8064	807.2428	822.4603	901.5535	915.654	920.173	952.3015	960.4373	990.1295	1016.0625	1048.1279	1069.3021	1125.3545	1130.7565	1143.7671	1200.0475	1202.3446	1219.3826	1256.7283	1257.2916	1316.4791	1330.6303	1518.0316	1633.8491	2345.2094	3063.1709	3110.927	3125.6393	3127.712	3130.4105	3229.9025	3255.7676
N#CC12CC3C1C=CC23	N#C[C@@]12C[C@H]3[C@@H]1C=C[C@@H]23	
InChI=1S/C8H7N/c9-4-8-3-5-6(8)1-2-7(5)8/h1-2,5-7H,3H2	InChI=1S/C8H7N/c9-4-8-3-5-6(8)1-2-7(5)8/h1-2,5-7H,3H2/t5-,6-,7+,8-
