23
gdb 83000	2.43025	1.63136	1.44921	0.1907	87.37	-0.2515	0.0714	0.3228	1070.8243	0.208939	-351.139928	-351.132053	-351.131108	-351.171835	32.651	
C	-0.1496360376	 1.5096697165	-0.0407629264	-0.426308
C	 0.0269296254	 0.0069428392	 0.0104480768	 0.00417
C	 1.3154076239	-0.718730907	-0.2931351071	-0.058883
C	 2.6470772766	 0.0304255086	-0.1680042077	-0.262124
C	 2.9171441579	 0.2363373439	 1.346725666	 0.01319
C	 2.7245988117	 1.6367403623	 2.0040609931	-0.233167
C	 1.4970656789	 1.1018788775	 2.7994199696	-0.239168
C	 1.6699037262	-0.2979234145	 2.1235746659	-0.004483
C	 0.6864057871	-0.832925551	 1.0914732134	-0.082147
H	 0.7391526588	 2.0621755662	 0.2636924672	 0.124969
H	-0.3857756172	 1.8188247697	-1.0657440523	 0.111101
H	-0.9788339526	 1.8349920913	 0.5970970947	 0.116182
H	-0.8432788749	-0.5035630787	-0.399796323	 0.079479
H	 1.278573986	-1.5476999155	-0.9927804042	 0.074857
H	 3.4405147935	-0.5708074373	-0.6224224288	 0.096765
H	 2.6403725419	 0.9850909553	-0.7084284711	 0.096685
H	 3.8628321955	-0.2310426191	 1.6326853516	 0.065187
H	 3.5621794228	 1.9516448917	 2.6315993714	 0.092432
H	 2.5168541674	 2.4523750174	 1.3056128053	 0.098694
H	 1.6469543796	 1.0849158856	 3.8818556197	 0.092747
H	 0.5486326703	 1.6031044216	 2.6011006532	 0.102547
H	 1.8854420727	-1.0906111636	 2.8450141712	 0.062635
H	 0.148758926	-1.7357268901	 1.3643185416	 0.074638
131.0107	176.3646	207.8681	240.9324	284.2471	357.8807	454.0901	554.2228	637.7847	648.3316	675.3419	738.4933	743.3288	787.8982	810.6786	853.439	896.064	907.8772	941.2625	960.9408	977.515	1007.1647	1032.9574	1049.9336	1073.2002	1089.3091	1109.5568	1124.9541	1140.7604	1144.6293	1188.9742	1214.7739	1226.3688	1252.2867	1256.0594	1264.2773	1275.4416	1311.7484	1324.1022	1336.4133	1356.1632	1373.3547	1419.7552	1440.9279	1476.544	1484.9469	1500.7457	1507.7672	1509.6241	3028.793	3032.7065	3050.7671	3054.4573	3060.8527	3070.2063	3077.9116	3081.5788	3098.2274	3105.1936	3125.482	3143.3465	3149.2085	3156.4704
CC1C2CC3CCC3C12	C[C@H]1[C@H]2C[C@H]3CC[C@H]3[C@@H]12	
InChI=1S/C9H14/c1-5-8-4-6-2-3-7(6)9(5)8/h5-9H,2-4H2,1H3	InChI=1S/C9H14/c1-5-8-4-6-2-3-7(6)9(5)8/h5-9H,2-4H2,1H3/t5-,6+,7+,8+,9+/m0/s1
