20
gdb 57905	2.86986	1.07434	0.98026	4.6576	78.22	-0.241	0.0143	0.2553	1332.8181	0.168418	-440.289735	-440.279345	-440.278401	-440.325926	36.147	
C	 0.4713025469	 1.3775631392	-0.7437779588	-0.43085
C	 0.0598604843	 0.0374274469	-0.1922225315	 0.082193
O	 1.0971062724	-0.8934761558	 0.0943356125	-0.226775
C	 0.3514758965	-0.3998913125	 1.1958963095	-0.084014
C	 1.1115458476	 0.4941463083	 2.1585920112	 0.391078
O	 2.2608354556	 0.8292205949	 1.9311564795	-0.375466
N	 0.4324282516	 0.8846446495	 3.2856157243	-0.094
C	 1.1387852968	 1.642253	 4.3050535092	-0.344306
C	-0.9727344289	 0.6300672006	 3.5422731226	-0.338066
H	 1.3418538241	 1.7612652718	-0.2095604264	 0.163753
H	 0.7265369469	 1.2795516826	-1.803987767	 0.129823
H	-0.3534055636	 2.094218401	-0.6635033068	 0.114761
H	-0.8187661667	-0.4130298075	-0.6603909815	 0.09048
H	-0.3087332729	-1.1407589865	 1.6453589245	 0.103576
H	 0.7066296164	 2.6449319299	 4.4165914388	 0.121028
H	 1.0750690022	 1.1322567803	 5.27441754	 0.121506
H	 2.1812540845	 1.7308724413	 4.0043283286	 0.17262
H	-1.4966083115	 0.3444470178	 2.6311102462	 0.144322
H	-1.119359645	-0.156081765	 4.2962275103	 0.127619
H	-1.445595457	 1.544977043	 3.9184484849	 0.13072
41.9113	85.1838	92.058	137.8251	180.7046	202.6835	215.1946	239.9362	346.3162	376.7784	399.277	443.1838	476.459	613.6627	731.3244	784.4868	837.2898	866.7663	962.4315	1008.4729	1038.014	1081.5012	1088.1963	1130.2489	1138.3791	1172.8441	1174.9928	1184.6889	1284.7685	1295.9809	1369.6873	1404.9217	1428.3828	1436.9772	1455.8561	1473.0348	1488.8981	1492.8315	1499.402	1504.4793	1504.8994	1540.9337	1758.3413	3004.0391	3014.6596	3038.9177	3057.8962	3061.8134	3077.609	3099.98	3109.4568	3149.0975	3152.6126	3170.7705
CC1OC1C(=O)N(C)C	C[C@H]1O[C@H]1C(=O)N(C)C	
InChI=1S/C6H11NO2/c1-4-5(9-4)6(8)7(2)3/h4-5H,1-3H3	InChI=1S/C6H11NO2/c1-4-5(9-4)6(8)7(2)3/h4-5H,1-3H3/t4-,5-/m1/s1
