16
gdb 50500	3.67201	0.97168	0.90723	2.8928	69.78	-0.269	-0.0406	0.2284	1273.8041	0.124278	-437.90531	-437.896885	-437.895941	-437.939993	29.462	
O	 0.1618743568	-0.0715702825	-0.1505046065	-0.238528
C	 0.1815741295	 1.1277483633	-0.0876884146	 0.15242
C	 1.4183873306	 1.9688664006	 0.1458043182	-0.090719
C	 1.6313457121	 3.0028750183	-1.0001573847	-0.117919
O	 1.5580619682	 4.3051734911	-0.4160822652	-0.231008
C	 1.9011790738	 4.1942189245	 0.9478445141	-0.044124
C	 1.2671347131	 2.8634396824	 1.4009915797	-0.262226
C	 3.369577385	 4.1968426053	 1.1439717027	 0.27143
N	 4.5158554913	 4.1871812343	 1.2887990173	-0.314776
H	-0.7503348384	 1.7320087125	-0.2075127624	 0.08162
H	 2.2751983059	 1.2992600147	 0.234149982	 0.118976
H	 2.6076865347	 2.8464696822	-1.4727473726	 0.134281
H	 0.8593552863	 2.9586623977	-1.7747753666	 0.127804
H	 1.4845752141	 5.0620501276	 1.4664186184	 0.141459
H	 0.2111329504	 3.0507903353	 1.6204454473	 0.125316
H	 1.7352512067	 2.4331459628	 2.2867042129	 0.145997
29.5322	83.9361	102.9657	182.5578	280.2644	318.3106	343.2131	407.1252	498.3966	578.4062	716.1181	754.1957	835.125	868.8217	937.2762	950.3713	958.5546	998.1392	1004.5683	1085.2168	1107.9762	1139.8415	1202.9514	1239.6264	1266.1119	1293.3719	1308.879	1334.4167	1364.8156	1389.5733	1424.0068	1482.806	1511.5913	1841.7448	2354.7485	2843.8169	3036.7228	3059.233	3083.4499	3086.7022	3107.4791	3138.6498
O=CC1COC(C1)C#N	O=C[C@H]1CO[C@@H](C1)C#N	
InChI=1S/C6H7NO2/c7-2-6-1-5(3-8)4-9-6/h3,5-6H,1,4H2	InChI=1S/C6H7NO2/c7-2-6-1-5(3-8)4-9-6/h3,5-6H,1,4H2/t5-,6-/m0/s1
