16
gdb 20945	7.30996	1.0923	0.96972	3.3489	67.88	-0.2178	0.0045	0.2223	1180.6608	0.131474	-379.913838	-379.906165	-379.905221	-379.946624	27.614	
C	 0.0274928295	 1.5378210381	 0.0310426714	-0.396217
C	-0.1574258797	 0.0325677696	-0.1303648506	-0.119437
N	 0.7916769999	-0.494369096	-1.1042557002	-0.384521
C	 0.8399178932	-1.8456327795	-1.3649552483	 0.458654
N	 1.2222922623	-2.2860866113	-2.5491703246	-0.250527
O	 1.2325041912	-3.6839003808	-2.4405618974	-0.167151
C	 0.839629329	-4.0222825821	-1.210247084	 0.090746
C	 0.5686943106	-2.9246245376	-0.4633444651	-0.334352
H	 1.0481467466	 1.7720108669	 0.3465051102	 0.133364
H	-0.1661825592	 2.061914503	-0.911810248	 0.121335
H	-0.6685067802	 1.9308861256	 0.7770278431	 0.124131
H	 0.0274113936	-0.4626453232	 0.829435918	 0.115997
H	-1.2007510638	-0.1900829494	-0.4076690048	 0.101511
H	 0.867433578	 0.0574061356	-1.9490547806	 0.244069
H	 0.8003318149	-5.0808686982	-1.001696802	 0.146095
H	 0.2393842939	-2.8840825309	 0.5603700028	 0.116302
60.6905	78.2056	148.2681	260.4419	321.3503	345.4357	435.1528	590.1916	612.645	727.4815	759.0134	774.4026	817.3995	864.9085	906.1595	922.9591	944.4348	1011.8432	1067.7835	1105.063	1149.858	1174.2853	1188.2679	1296.5683	1336.7961	1363.0827	1411.7139	1431.5951	1487.9677	1498.7031	1503.5163	1523.1679	1535.4687	1640.8664	2968.907	3037.5794	3054.8763	3106.3898	3124.9224	3255.8233	3289.9921	3576.1107
CCNC1=NOC=C1	CCNc1nocc1	
InChI=1S/C5H8N2O/c1-2-6-5-3-4-8-7-5/h3-4H,2H2,1H3,(H,6,7)	InChI=1S/C5H8N2O/c1-2-6-5-3-4-8-7-5/h3-4H,2H2,1H3,(H,6,7)
