21
gdb 83512	2.91713	1.42243	1.37205	1.3361	83.25	-0.2307	0.0196	0.2502	1093.1674	0.183842	-387.100585	-387.092391	-387.091446	-387.132805	32.658	
C	-0.1155116843	 1.5311183488	 0.0305623465	-0.431147
C	 0.0374681046	 0.0143919538	-0.0157474573	 0.031557
C	 1.0837805414	-0.5907516479	-1.0069218532	-0.103982
C	 2.3884053005	-0.0298157375	-0.3660007176	-0.076488
O	 2.1189494617	-0.0651277025	 1.0413556323	-0.279397
C	 0.7779676366	-0.6288097223	 1.1729060329	-0.006701
C	 0.8591909627	-2.0882555728	 0.738912015	 0.353568
C	 0.8785502046	-3.2489708776	 1.6755663759	-0.516589
C	 1.0373001064	-2.0487484831	-0.5895750592	-0.194602
H	 0.8029651545	 2.0218610279	 0.3602104115	 0.135513
H	-0.3880770596	 1.9296799413	-0.9528422568	 0.111198
H	-0.9102017668	 1.8128905089	 0.7297607946	 0.113784
H	-0.9325892142	-0.4629911482	-0.1751261539	 0.074073
H	 0.96308839	-0.3675153328	-2.0672850483	 0.062742
H	 3.2633437399	-0.6466044205	-0.600489222	 0.09562
H	 2.5917782975	 1.0031924206	-0.6740546612	 0.0946
H	 0.4323381482	-0.418606796	 2.1854552038	 0.063966
H	-0.0411578172	-3.3022897096	 2.2719309792	 0.123374
H	 0.990709798	-4.1960841607	 1.1397760838	 0.122791
H	 1.7088075965	-3.1615920276	 2.3878521312	 0.136433
H	 1.240994299	-2.8864972223	-1.2464361472	 0.089689
146.8801	172.6547	184.8629	233.5177	265.1959	300.9208	361.8689	445.1966	514.397	563.5466	611.578	739.4975	751.5728	829.3216	854.2178	877.4776	881.6035	913.5871	948.0887	950.8217	992.0367	1002.9355	1049.1534	1063.136	1066.9236	1089.7603	1118.9536	1158.5867	1202.2592	1219.0322	1249.4751	1275.906	1283.984	1287.1516	1332.1385	1362.5114	1378.5187	1404.6424	1411.4852	1479.3208	1487.8205	1491.035	1501.5828	1527.0125	1690.1222	3016.2908	3018.9904	3035.1846	3059.2315	3063.884	3076.8542	3092.634	3104.7723	3113.4334	3119.2591	3128.4267	3196.0264
CC1C2COC1C(C)=C2	C[C@H]1[C@H]2CO[C@@H]1C(=C2)C	
InChI=1S/C8H12O/c1-5-3-7-4-9-8(5)6(7)2/h3,6-8H,4H2,1-2H3	InChI=1S/C8H12O/c1-5-3-7-4-9-8(5)6(7)2/h3,6-8H,4H2,1-2H3/t6-,7+,8+/m0/s1
