19
gdb 88076	3.28253	1.3148	1.22844	2.003	76.04	-0.2327	0.085	0.3177	1109.0161	0.158886	-422.994875	-422.986806	-422.985862	-423.027425	31.254	
C	-0.0655855129	 1.5354103773	 0.117695705	-0.402153
C	-0.0309382955	 0.0231139659	 0.0930895808	-0.073569
C	 1.2539038629	-0.7181100923	-0.246459182	-0.371201
C	 0.6941790852	-0.7398942652	 1.1574863416	 0.453779
O	 1.3371167345	 0.0056406958	 2.1701946785	-0.301817
C	 1.7844950586	-0.8794716769	 3.1966296451	-0.119512
C	 0.9128078641	-2.1122053907	 3.0776084549	 0.022547
O	-0.4831259495	-1.8068735676	 3.0187878163	-0.252472
C	 0.2278001289	-2.0119321718	 1.7871528944	-0.068706
H	 0.859823043	 1.9411719851	 0.5327400867	 0.132056
H	-0.198301506	 1.9381481645	-0.8920775019	 0.112986
H	-0.8920449618	 1.8972720354	 0.7379159631	 0.124168
H	-0.9462151767	-0.445253772	-0.2613827226	 0.089953
H	 1.2056687119	-1.6152063706	-0.856121304	 0.107273
H	 2.144631636	-0.1153976581	-0.390299056	 0.119768
H	 2.8403397235	-1.1610864459	 3.0568379986	 0.097955
H	 1.6814052437	-0.3581290222	 4.1534295361	 0.12027
H	 1.1916182709	-3.0483324233	 3.5533801722	 0.10341
H	-0.0766912307	-2.8620493774	 1.1840913634	 0.105265
99.2428	151.913	179.9196	190.2461	302.0051	358.8744	385.2606	447.1369	508.009	583.9186	728.1407	796.183	812.6982	842.3822	879.7088	888.2823	900.1218	942.9777	961.8182	977.6418	1017.0746	1037.8146	1047.5615	1086.5154	1103.3765	1115.9399	1138.0233	1189.1085	1220.6075	1241.5797	1254.2575	1281.1607	1328.8888	1369.6696	1406.2004	1423.2858	1443.0717	1486.4592	1492.776	1503.1098	1508.8156	2982.9554	3037.183	3078.4297	3097.2262	3119.1713	3122.5245	3138.2676	3154.0563	3167.7855	3213.5762
CC1CC11OCC2OC12	C[C@H]1C[C@]21OC[C@H]1O[C@@H]21	
InChI=1S/C7H10O2/c1-4-2-7(4)6-5(9-6)3-8-7/h4-6H,2-3H2,1H3	InChI=1S/C7H10O2/c1-4-2-7(4)6-5(9-6)3-8-7/h4-6H,2-3H2,1H3/t4-,5+,6+,7+/m0/s1
