15
gdb 34163	3.96544	1.59951	1.40975	1.9125	74.29	-0.2473	0.017	0.2643	913.9589	0.112428	-383.366299	-383.359872	-383.358928	-383.396891	26.793	
C	-0.0276489759	-1.12709865	 0.0497777906	-0.336491
C	-0.0567111294	 0.0745462059	 0.0271995953	 0.050259
C	-0.0684900371	 1.5052676678	-0.0289972293	 0.433433
O	-0.9803534231	 2.1850560863	 0.8736342993	-0.332614
C	-0.8437920415	 3.3181400202	-0.0098470803	 0.061453
C	 0.6553932852	 3.7293769083	-0.0319922222	-0.102811
C	 0.9238310738	 3.0318272278	-1.3476184747	-0.103743
C	 1.2614031262	 2.329997175	-0.0553579461	-0.161817
C	-0.5034495119	 2.420280056	-1.2393210588	-0.171412
H	-0.0083346977	-2.1886566169	 0.0755602951	 0.186603
H	-1.640233226	 4.0539412273	 0.0772962942	 0.087019
H	 1.1498979503	 4.5778932324	 0.4196824989	 0.098142
H	 1.5425854467	 3.3055945459	-2.1885249504	 0.096594
H	 2.2197983412	 2.0779936354	 0.3754199036	 0.101609
H	-1.1924218508	 2.1171494087	-2.0224159152	 0.093777
148.501	155.8892	431.5079	464.6965	531.8163	562.6169	594.8045	618.5111	679.1376	746.9303	776.27	806.4755	812.2396	840.3872	855.3086	868.841	886.5853	931.9355	943.3018	993.2087	1007.7822	1023.7352	1038.21	1056.3054	1111.7964	1167.845	1181.2705	1215.1136	1249.8254	1278.4288	1292.2318	1354.0664	2240.7636	3146.7719	3164.9607	3213.2016	3220.3002	3236.9269	3501.6346
C#CC12OC3C4C(C14)C23	C#C[C@@]12O[C@H]3[C@@H]4[C@@H]([C@H]14)[C@@H]23	
InChI=1S/C8H6O/c1-2-8-5-3-4(5)7(9-8)6(3)8/h1,3-7H	InChI=1S/C8H6O/c1-2-8-5-3-4(5)7(9-8)6(3)8/h1,3-7H/t3-,4+,5-,6+,7-,8+/m0/s1
