16
gdb 12471	3.59285	1.91441	1.30955	5.9222	69.52	-0.2079	-0.004	0.2038	903.7191	0.134049	-379.961889	-379.954628	-379.953684	-379.993426	27.347	
O	-0.0116802451	-0.1755100867	-0.0071543582	-0.39532
C	-0.0269044982	 1.0485566915	-0.0319558505	 0.357096
N	-1.2237899152	 1.7170750573	 0.1549432318	-0.332265
C	-1.5097394999	 3.0993468789	-0.1574628642	-0.16201
C	-0.6731576298	 4.0884007563	 0.6652563287	-0.15315
N	 0.6836168465	 4.1977900504	 0.1699478389	-0.296635
C	 1.4856717525	 3.1376687219	-0.1332902224	 0.00611
C	 1.2073609297	 1.8181335928	-0.2391466609	-0.191165
H	-2.0032909792	 1.0801266978	 0.2191523856	 0.240096
H	-1.3746958004	 3.3270297716	-1.2248836079	 0.118796
H	-2.5631493359	 3.270954976	 0.0802347989	 0.115763
H	-1.1251589542	 5.0833356582	 0.6008440487	 0.109506
H	-0.6995955713	 3.7706207352	 1.7178129745	 0.118785
H	 1.1474479892	 5.0758161911	 0.3251727664	 0.249651
H	 2.508296897	 3.4447899935	-0.3387354795	 0.113126
H	 2.0398090143	 1.1737683342	-0.4923659699	 0.101616
106.8516	116.5425	274.2627	295.2007	378.0069	390.641	462.504	498.4903	546.2402	631.8594	731.5124	741.8651	825.7689	839.325	906.3333	970.7029	980.4696	1012.5732	1083.8958	1150.7947	1174.4703	1267.3384	1297.1031	1329.8782	1334.79	1391.4596	1401.6523	1447.7845	1458.2899	1490.7419	1499.0044	1547.229	1691.9228	1746.292	2993.5885	3005.4731	3074.9233	3091.1161	3159.4524	3212.3334	3621.4498	3660.7548
O=C1NCCNC=C1	O=C1NCCNC=C1	
InChI=1S/C5H8N2O/c8-5-1-2-6-3-4-7-5/h1-2,6H,3-4H2,(H,7,8)	InChI=1S/C5H8N2O/c8-5-1-2-6-3-4-7-5/h1-2,6H,3-4H2,(H,7,8)
