19
gdb 108444	2.21547	1.73905	1.21929	2.1867	75.73	-0.2221	-0.0249	0.1972	1088.8713	0.157725	-423.006931	-422.998089	-422.997145	-423.040897	32.637	
C	-0.1178925934	 1.4290614238	-0.1117296388	-0.271419
O	-0.0941326735	 0.0061674247	-0.0904076027	-0.292254
C	 0.6782232745	-0.5577257101	-1.0963946721	 0.338397
C	 0.1468617746	-0.5004150835	-2.5692491467	-0.304567
C	 0.2486031567	-2.0524909679	-2.6667510121	-0.220865
C	 0.8413779194	-2.1215319369	-1.2376995834	-0.103621
C	 2.38862498	-1.9766126382	-1.177049206	-0.356535
C	 2.2154118641	-0.4558755569	-0.9876863278	 0.339713
O	 2.9703385996	 0.4385472346	-0.7291951728	-0.304485
H	 0.8861013984	 1.8471937262	 0.0174681348	 0.144376
H	-0.544396123	 1.8100907267	-1.0507596898	 0.108938
H	-0.7557230053	 1.7426227503	 0.7172925238	 0.127972
H	-0.8826643244	-0.1359463604	-2.5898859097	 0.120195
H	 0.7392930323	 0.0807435466	-3.2795826812	 0.11017
H	-0.7260561723	-2.5360997414	-2.7582504141	 0.111207
H	 0.897045031	-2.441089647	-3.4562491983	 0.102801
H	 0.3929998181	-2.8061483839	-0.5202052768	 0.085504
H	 2.8510168494	-2.4359980837	-0.297332535	 0.138568
H	 2.9521091337	-2.2862411426	-2.0621442313	 0.125904
52.3996	112.0021	135.7227	177.6231	220.4513	288.4325	315.7268	419.9581	467.1234	506.8456	582.2321	666.6132	731.0268	773.0399	821.5349	866.6735	927.4075	965.685	1004.8365	1009.7084	1030.1836	1039.7105	1075.0435	1128.2426	1148.9008	1177.4793	1184.086	1211.9511	1215.8494	1229.2328	1246.9332	1275.9785	1301.3267	1316.3356	1433.4591	1466.7217	1479.1369	1487.1706	1493.2841	1512.4146	1874.1876	3000.9603	3052.7463	3061.4702	3067.7126	3077.8265	3103.8865	3106.6807	3125.917	3128.9024	3134.4689
COC12CCC1CC2=O	CO[C@]12CC[C@H]1CC2=O	
InChI=1S/C7H10O2/c1-9-7-3-2-5(7)4-6(7)8/h5H,2-4H2,1H3	InChI=1S/C7H10O2/c1-9-7-3-2-5(7)4-6(7)8/h5H,2-4H2,1H3/t5-,7+/m0/s1
