18
gdb 35912	3.00683	1.42511	1.0865	4.154	75.75	-0.2299	0.0233	0.2532	1105.6178	0.150787	-398.102961	-398.095235	-398.094291	-398.135326	29.854	
N	-0.0115711327	-1.167130173	 0.0348090646	-0.322831
C	 0.0083657278	-0.0122813619	-0.0024570453	 0.295217
C	-0.0085746117	 1.453736312	-0.0002782466	-0.134053
C	-0.9228596392	 1.992883161	 1.1391441761	-0.191196
N	-0.7950478312	 3.4312148529	 1.2967228733	-0.276836
C	 0.5718041313	 3.8029612893	 1.6702139584	-0.201909
C	 1.670427646	 3.151104562	 0.8201039444	-0.019126
C	 2.193244649	 1.8032957147	 1.1832786811	-0.244005
N	 1.3692763683	 1.9680395421	-0.0115366382	-0.092413
H	-0.456788875	 1.7776703321	-0.9497915819	 0.126757
H	-1.9602427169	 1.7291442953	 0.9131652631	 0.126318
H	-0.6670510443	 1.5138766782	 2.0913859704	 0.126429
H	-1.0560263085	 3.8952576147	 0.4307800663	 0.221158
H	 0.6595918869	 4.8904817338	 1.6054639745	 0.115703
H	 0.7084932628	 3.5374692445	 2.7260711678	 0.12015
H	 2.3457102398	 3.8427768726	 0.3209723111	 0.102005
H	 3.2267571135	 1.5305331918	 0.99032412	 0.127125
H	 1.7589108142	 1.3262449178	 2.060098771	 0.121507
82.4951	141.453	193.9415	283.8181	351.6972	386.4755	442.0975	461.7755	539.4198	582.4755	665.448	728.359	775.5885	821.0038	895.8941	925.6971	934.9498	967.1511	1010.8527	1039.9587	1065.4594	1111.6058	1122.6734	1139.7265	1162.4927	1169.0152	1217.5566	1300.3196	1321.9267	1341.1167	1351.2551	1363.3524	1389.9389	1392.5595	1481.1803	1486.3856	1494.1796	1511.6414	2357.4929	3011.1283	3026.1134	3042.7106	3092.6161	3093.8991	3100.2825	3125.5169	3186.9884	3497.9575
N#CC1CNCC2CN12	N#C[C@H]1CNC[C@H]2CN12	
InChI=1S/C6H9N3/c7-1-5-2-8-3-6-4-9(5)6/h5-6,8H,2-4H2	InChI=1S/C6H9N3/c7-1-5-2-8-3-6-4-9(5)6/h5-6,8H,2-4H2/t5-,6-,9?/m0/s1
