17
gdb 43219	2.90175	1.86568	1.65248	3.9439	71.05	-0.2301	-0.0216	0.2084	876.7457	0.139372	-417.959286	-417.952926	-417.951982	-417.989755	26.578	
O	 0.0973348998	 0.0395956921	 0.2204122824	-0.317477
C	 0.0368079715	 1.2271702982	 0.1222882552	 0.477341
C	-1.0879709338	 2.2676463965	-0.0347014597	-0.134716
C	-1.3709304864	 2.8291171251	 1.3640852566	-0.190871
N	-0.0625655054	 3.0302252704	 2.0152696363	-0.301428
C	 0.9361475981	 3.4543218285	 1.0309557186	-0.014677
C	 0.3173604909	 4.3594704299	-0.0651181139	-0.181543
N	-0.0975472797	 3.1305609249	-0.8254008087	-0.157128
C	 1.020343108	 2.3632077393	-0.0985303397	-0.131262
H	-1.9926562367	 2.0039087181	-0.5838322336	 0.103099
H	-1.9648155443	 3.7514186793	 1.2703810825	 0.101992
H	-1.9655123311	 2.1135856503	 1.9420299171	 0.12604
H	-0.1365776338	 3.7177053199	 2.7572581359	 0.224849
H	 1.8582372539	 3.7482004207	 1.5367087378	 0.081125
H	-0.478356835	 5.054906795	 0.219350998	 0.10343
H	 1.0578821556	 4.896226275	-0.6648670362	 0.115398
H	 1.9779104685	 2.2188191568	-0.6014170384	 0.095829
148.7645	281.708	341.402	412.879	479.016	521.9365	532.914	615.9244	708.8437	742.5153	786.0622	824.0466	834.8829	855.5072	889.3773	932.7091	982.5285	1000.9161	1018.6908	1058.7202	1074.6798	1111.6112	1125.5707	1157.3514	1171.1335	1189.6656	1207.2072	1237.0494	1256.311	1268.516	1288.63	1319.294	1392.8185	1456.9484	1493.3649	1523.1006	1910.834	2978.2595	3048.4914	3063.9325	3086.9282	3100.1558	3107.2606	3110.7016	3528.2003
O=C1C2CNC3CN2C13	O=C1[C@H]2CN[C@@H]3CN2[C@H]13	
InChI=1S/C6H8N2O/c9-6-4-1-7-3-2-8(4)5(3)6/h3-5,7H,1-2H2	InChI=1S/C6H8N2O/c9-6-4-1-7-3-2-8(4)5(3)6/h3-5,7H,1-2H2/t3-,4-,5+/m1/s1
