18
gdb 8184	2.77829	2.51288	1.75081	2.2124	66.82	-0.2481	0.0678	0.3159	807.829	0.155247	-384.929959	-384.922888	-384.921944	-384.960619	28.962	
O	-0.146562911	 1.3752281397	-0.0669544484	-0.453383
C	-0.0142011578	-0.0382147673	 0.0337568758	 0.065959
C	 0.4644383294	-0.5826878164	 1.4146975044	-0.251485
C	-0.8028963023	-1.3747112839	 1.8066362664	-0.024118
C	-1.9305304144	-0.3629906753	 1.4631424832	-0.288118
C	-1.4279376023	-0.6393326666	 0.0063635508	 0.440375
O	-2.1809537014	-0.3778293978	-1.130080844	-0.500417
C	-1.1642741965	-2.0916383388	 0.4690319384	-0.273733
H	 0.7262256148	 1.7588697978	-0.1906917755	 0.287256
H	 0.5860984672	-0.4196064995	-0.8033166855	 0.066881
H	 1.3546945606	-1.2141381331	 1.3369715785	 0.092914
H	 0.6771347993	 0.2403809169	 2.1035443985	 0.099018
H	-0.7873542335	-1.9139302757	 2.7522685522	 0.064441
H	-2.930716405	-0.7712025112	 1.6204088213	 0.09822
H	-1.8551571395	 0.654497991	 1.8529238931	 0.099049
H	-2.0252767613	 0.5492962654	-1.3507786334	 0.284525
H	-0.3872561128	-2.6664852181	-0.0449202229	 0.08695
H	-2.0870200735	-2.6714082371	 0.5350390471	 0.105665
164.0027	234.0534	269.9532	365.7116	378.2006	419.7966	435.25	490.5957	560.5966	609.0957	683.9855	812.6164	832.4995	861.9608	899.8678	923.8946	957.0882	996.8305	999.1703	1010.105	1058.6036	1082.823	1107.3091	1140.0487	1152.4189	1192.0944	1213.3481	1233.6644	1257.0156	1259.0845	1287.361	1313.7715	1349.6265	1398.815	1428.6093	1481.7687	1485.2147	1527.5107	3007.0236	3047.5096	3051.8251	3069.8642	3097.8034	3121.8592	3128.0666	3135.2706	3777.7166	3834.2188
OC1CC2CC1(O)C2	O[C@H]1C[C@H]2C[C@]1(O)C2	
InChI=1S/C6H10O2/c7-5-1-4-2-6(5,8)3-4/h4-5,7-8H,1-3H2	InChI=1S/C6H10O2/c7-5-1-4-2-6(5,8)3-4/h4-5,7-8H,1-3H2/t4-,5-,6-/m0/s1
