16
gdb 18194	4.39812	1.66034	1.38152	2.0546	69.67	-0.2525	0.053	0.3055	903.4423	0.130931	-346.564574	-346.557567	-346.556623	-346.595692	27.222	
C	 0.0121695643	-1.2222818281	-0.0433052029	-0.452516
C	 0.0101656486	-0.0208965575	-0.0074170509	 0.319012
C	 0.0087025863	 1.4343446702	 0.0375591828	-0.18967
C	-0.644273687	 2.0344588059	 1.3201373136	-0.226432
C	-0.0005690486	 3.4293705345	 1.4914976361	-0.251271
C	 1.3763729217	 3.2698760953	 0.8772998039	 0.05005
O	 2.0515130672	 2.0710851643	 1.2914803291	-0.252298
C	 1.3959084436	 2.0787092639	 0.0225245516	 0.044757
H	 0.0191786756	-2.2836517976	-0.0722536109	 0.19476
H	-0.5205883728	 1.8131277926	-0.8491424461	 0.104905
H	-1.7323293792	 2.0704275878	 1.2420299683	 0.108176
H	-0.3886764387	 1.3994143503	 2.1692121024	 0.134043
H	-0.5496588793	 4.1992110589	 0.9349709841	 0.10499
H	 0.0352360875	 3.7442231463	 2.5387916379	 0.113759
H	 2.0185135928	 4.1292595998	 0.7020391377	 0.095929
H	 2.0395681179	 1.9640062635	-0.8454116567	 0.101805
108.1936	149.8873	244.9423	324.9615	389.2768	496.8739	509.0515	619.3434	633.6914	653.7662	667.3075	825.1442	831.2402	861.7278	879.0841	934.6078	961.4624	1019.1996	1045.0248	1060.7155	1080.6254	1108.0161	1176.7496	1218.5483	1258.4835	1289.8566	1308.2086	1314.7675	1330.7886	1365.9518	1435.5724	1481.2527	1493.7314	2238.6263	3001.3889	3035.6693	3082.9562	3089.934	3137.1302	3144.9587	3158.5043	3504.7056
C#CC1CCC2OC12	C#C[C@H]1CC[C@H]2O[C@@H]12	
InChI=1S/C7H8O/c1-2-5-3-4-6-7(5)8-6/h1,5-7H,3-4H2	InChI=1S/C7H8O/c1-2-5-3-4-6-7(5)8-6/h1,5-7H,3-4H2/t5-,6+,7-/m0/s1
