18
gdb 23412	3.62776	1.22194	0.96824	0.7982	82.69	-0.2292	0.009	0.2382	1206.033	0.148213	-401.891221	-401.883391	-401.882446	-401.923599	30.716	
O	-0.2067028512	 1.4126620042	 0.1961175576	-0.39318
N	 0.0177441206	 0.0226720101	 0.178200205	-0.223733
C	-1.0703703868	-0.6171821499	 0.0306202725	 0.370791
C	-2.4858820454	-0.0544435704	-0.1366110914	-0.3337
C	-3.2827427255	-1.2666615316	-0.5988968463	-0.228199
C	-2.5653291869	-2.3763283488	-0.4419322972	 0.273656
C	-2.2145486518	-3.6718159049	-1.1377780464	-0.310045
C	-0.7439327547	-3.1024945805	-1.1582658451	-0.233715
C	-1.1521487988	-2.1257597774	 0.0099727725	-0.130623
H	 0.6866310926	 1.7601998468	 0.2881270588	 0.305185
H	-2.8395327674	 0.3999364709	 0.7998896168	 0.128879
H	-2.4958079119	 0.7551372939	-0.8764705886	 0.13281
H	-4.2334106486	-1.1752406856	-1.1116381418	 0.094815
H	-2.2834597402	-4.5526356555	-0.4908760448	 0.113347
H	-2.7027901457	-3.8886908036	-2.0901311163	 0.112306
H	 0.0638886128	-3.8062497485	-0.9474623078	 0.106933
H	-0.5350612647	-2.561876111	-2.0831063954	 0.118046
H	-0.8807840064	-2.5666208282	 0.9762749577	 0.096428
78.0637	177.4945	211.4828	256.4456	337.4843	348.3755	407.873	497.8865	517.6052	641.8825	680.3429	714.2801	770.5659	796.1813	824.0885	878.1238	926.7944	939.3061	953.4433	975.0161	999.7269	1033.3882	1064.2457	1112.2018	1148.789	1175.7265	1203.0687	1208.1615	1233.091	1248.0991	1279.7624	1298.631	1322.9588	1401.2472	1464.3726	1475.8341	1487.7536	1724.5808	1756.9527	3011.0914	3035.9763	3050.4519	3052.7398	3071.9525	3110.5171	3138.9957	3195.2625	3819.8646
ON=C1CC=C2CCC12	ON=C1C[CH][C]2CC[C@@H]12	
InChI=1S/C7H9NO/c9-8-7-4-2-5-1-3-6(5)7/h2,6,9H,1,3-4H2	InChI=1S/C7H9NO/c9-8-7-4-2-5-1-3-6(5)7/h2,6,9H,1,3-4H2/t6-/m1/s1
