25
gdb 121922	3.84747	0.6172	0.59083	0.4371	86.72	-0.2487	0.0665	0.3152	2037.7553	0.225659	-426.622268	-426.61033	-426.609386	-426.660032	42.299	
C	 0.0230858205	 1.43694231	-0.0043756576	-0.227029
O	 0.0087067654	 0.030872421	-0.0050888086	-0.233028
C	 0.6682066266	-0.5229573885	 1.1141393504	-0.05213
C	 0.589517018	-2.0415721532	 1.020226383	-0.236095
C	 1.2265266436	-2.7376237565	 2.2286175357	 0.130529
O	 0.5579672884	-2.3842871629	 3.4418489418	-0.439267
C	 1.3607822682	-4.2698466841	 2.0678310571	 0.032286
C	 2.2040608704	-4.8510549873	 3.2104697243	-0.393893
C	 0.0030480706	-4.9833511131	 1.9767234554	-0.408131
H	 1.0495329656	 1.8370096444	-0.03683351	 0.101466
H	-0.5131894805	 1.7723720655	-0.8957150373	 0.123952
H	-0.4744571296	 1.8519256958	 0.8870317974	 0.101987
H	 1.7232088266	-0.1964086066	 1.1379880138	 0.081148
H	 0.2045665007	-0.1775558168	 2.0513577832	 0.096886
H	-0.4657548671	-2.3290560837	 0.929005227	 0.099379
H	 1.0843645803	-2.3698236631	 0.0987002549	 0.104736
H	 2.2400496234	-2.3358368995	 2.3619610536	 0.081081
H	-0.3675650138	-2.6346387338	 3.3479897132	 0.27985
H	 1.8955766468	-4.4370267886	 1.1225003138	 0.071441
H	 1.7368132823	-4.6346026452	 4.1757562147	 0.12751
H	 2.3082051246	-5.9363565773	 3.113032815	 0.104972
H	 3.2094055846	-4.4166018539	 3.2227435895	 0.107924
H	 0.1448822391	-6.0605558702	 1.8467840335	 0.117877
H	-0.5779655375	-4.8485499816	 2.8971212508	 0.108775
H	-0.6006228973	-4.6279290908	 1.1362413453	 0.117771
59.9056	64.7951	84.5621	115.4958	133.2849	215.0591	232.378	234.7351	240.467	283.2582	289.4988	304.1484	338.048	402.776	467.7817	554.0999	608.3285	796.8951	807.8035	907.2278	928.059	963.7175	980.2718	1000.3741	1037.1744	1050.7139	1096.199	1112.5576	1155.1981	1171.312	1179.991	1201.3645	1222.5476	1228.6852	1282.5373	1288.7609	1315.2109	1344.9415	1366.4842	1384.101	1396.7401	1415.1481	1420.5944	1429.635	1481.7309	1485.3278	1486.5165	1488.7262	1495.0098	1505.8153	1508.0182	1513.5971	1534.2401	2945.6866	2966.7569	2998.3103	3007.7422	3008.1992	3019.1739	3027.389	3030.7296	3034.5278	3074.8894	3092.3001	3098.4216	3107.2292	3110.32	3114.4518	3804.942
COCCC(O)C(C)C	COCC[C@@H](O)C(C)C	
InChI=1S/C7H16O2/c1-6(2)7(8)4-5-9-3/h6-8H,4-5H2,1-3H3	InChI=1S/C7H16O2/c1-6(2)7(8)4-5-9-3/h6-8H,4-5H2,1-3H3/t7-/m1/s1
