15
gdb 15295	6.00049	0.97826	0.89019	2.7013	69.17	-0.2548	-0.034	0.2208	1234.6235	0.116733	-362.606004	-362.597743	-362.596799	-362.639426	29.347	
O	-0.2498077738	 0.2692976011	 0.737751217	-0.256566
C	 0.3295701763	 0.6811666394	-0.235614786	 0.174516
C	 1.3947340258	 1.7217282088	-0.1805778919	-0.137339
N	 2.3068135665	 1.7684719597	-1.3438197992	-0.321049
C	 1.4225166029	 2.8965121473	-1.1203235494	-0.000119
C	 0.3458218035	 3.1695445338	-2.1632573814	-0.357357
C	 0.8097639669	 4.1027815261	-3.184095079	 0.290046
C	 1.2148863814	 4.8816506026	-4.0044132741	-0.432724
H	 0.1128026342	 0.2994042679	-1.256921514	 0.087147
H	 1.7861871937	 1.8961083862	 0.8188650444	 0.109117
H	 3.2572127952	 1.9655428341	-1.0443800793	 0.248039
H	 1.8511753931	 3.8014612139	-0.6929116942	 0.110724
H	 0.0455170892	 2.2267546137	-2.6318366753	 0.14337
H	-0.543808395	 3.5777946683	-1.6665539843	 0.142003
H	 1.5624841802	 5.5632719772	-4.7406478235	 0.200192
55.7512	81.9688	131.6872	222.9009	282.9232	336.0968	384.6009	444.5144	473.2497	543.0332	621.9419	650.4408	823.6075	840.1124	910.1031	940.5125	972.7427	1007.2034	1014.031	1051.9613	1125.1901	1187.1942	1223.597	1239.3227	1269.0114	1322.2169	1364.9955	1417.3666	1459.1475	1467.7569	1822.9903	2241.5664	2900.6471	3030.1019	3078.8548	3125.152	3147.3169	3506.5605	3521.5538
O=CC1NC1CC#C	O=C[C@H]1N[C@H]1CC#C	
InChI=1S/C6H7NO/c1-2-3-5-6(4-8)7-5/h1,4-7H,3H2	InChI=1S/C6H7NO/c1-2-3-5-6(4-8)7-5/h1,4-7H,3H2/t5-,6+/m0/s1
