15
gdb 29460	3.39647	1.62165	1.09947	1.6575	73.3	-0.1759	0.0364	0.2122	1026.564	0.115038	-416.832543	-416.824828	-416.823884	-416.86496	29.182	
N	 0.0139734244	 1.4392016783	 0.1664170611	-0.605827
C	 0.0399553486	 0.0366945679	 0.0401313613	 0.05519
C	-1.0406037877	-0.8204736195	 0.0059054849	-0.152185
N	-0.5862161089	-2.1540468445	-0.0313549522	-0.422233
C	 0.7634134102	-2.0860919845	-0.0290792177	 0.421537
C	 1.2152913172	-0.7866894152	 0.0175192849	 0.231739
C	 2.6511719611	-0.9174399118	 0.0209323825	-0.366542
C	 2.9092324402	-2.2514433146	-0.0240767959	-0.0253
O	 1.738863292	-3.0089336611	-0.0557196744	-0.222929
H	 0.7033457811	 1.8857175188	-0.4267219626	 0.240321
H	-0.8958728185	 1.8252003792	-0.0540671492	 0.236178
H	-2.0973519928	-0.6097310428	 0.0118247176	 0.106045
H	-1.162056994	-2.9751650286	-0.0425861338	 0.266465
H	 3.4012116604	-0.1424617057	 0.0588525103	 0.107656
H	 3.8161303168	-2.8311230658	-0.0374109568	 0.129883
59.7292	172.5824	216.0556	226.443	276.0447	416.7712	529.2928	555.6473	594.4948	614.1667	644.3626	675.2305	691.2368	743.8439	785.8289	810.181	812.3075	913.367	1011.7552	1061.6402	1076.2509	1128.5085	1170.8648	1221.2691	1286.1332	1334.4812	1346.921	1500.0138	1528.8789	1554.5198	1612.587	1619.7054	1657.9605	3250.1633	3265.4612	3293.572	3520.6483	3609.5621	3707.4121
NC1=CNC2=C1C=CO2	Nc1c[nH]c2c1cco2	
InChI=1S/C6H6N2O/c7-5-3-8-6-4(5)1-2-9-6/h1-3,8H,7H2	InChI=1S/C6H6N2O/c7-5-3-8-6-4(5)1-2-9-6/h1-3,8H,7H2
