18
gdb 38586	3.62701	1.70473	1.52761	2.7191	74.98	-0.2355	0.0721	0.3076	910.656	0.149964	-401.836108	-401.829819	-401.828875	-401.866328	27.164	
C	 0.0815196599	 1.4319071337	 0.1245189486	-0.253043
C	 1.3304505018	 0.645890984	-0.0622678558	-0.18526
N	-0.0057482694	-0.0238605398	-0.0214384677	-0.096883
C	-0.3571143938	-0.495269806	-1.4055599107	-0.194472
C	 0.5607412651	 0.2688007408	-2.3678095999	-0.058209
C	 1.8367278849	-0.299294703	-3.0637222194	 0.013613
C	 2.6119176561	 1.0035913238	-2.679465916	-0.305989
C	 1.7888226047	 0.5006785364	-1.4680155297	 0.458557
O	 2.2634088613	-0.8914613408	-1.7938320654	-0.345555
H	-0.160929863	 1.8036441343	 1.1157871229	 0.122801
H	-0.252163256	 2.0734251742	-0.6878868953	 0.110969
H	 2.0052001205	 0.4369987904	 0.7609874068	 0.108149
H	-0.1767192714	-1.5704523026	-1.4258477107	 0.129461
H	-1.4190263322	-0.3081628162	-1.5836003572	 0.103849
H	 0.1182170959	 1.1482195962	-2.8414158878	 0.078465
H	 1.9342480769	-0.904324847	-3.9655965189	 0.098406
H	 3.6920471283	 0.8805834159	-2.6033133636	 0.114669
H	 2.3133055106	 1.9486290855	-3.1404121801	 0.100472
206.017	276.7512	382.274	407.9374	427.8615	520.4303	622.8387	673.7683	706.816	756.178	764.022	788.2072	815.7582	858.7536	892.1067	932.424	978.5536	990.989	1009.5449	1029.0117	1065.9992	1070.6864	1096.3552	1112.3783	1117.5837	1135.0337	1152.3862	1186.2644	1198.2844	1223.2056	1237.0785	1260.3187	1278.3147	1336.2878	1366.2833	1389.9378	1477.892	1487.4972	1503.2133	3063.2386	3073.6238	3081.0102	3108.4452	3114.2516	3133.2463	3155.3683	3170.3097	3191.7583
C1C2N1CC1C3CC21O3	C1[C@H]2N1C[C@@H]1[C@H]3C[C@@]21O3	
InChI=1S/C7H9NO/c1-5-4-2-8-3-6(8)7(1,4)9-5/h4-6H,1-3H2	InChI=1S/C7H9NO/c1-5-4-2-8-3-6(8)7(1,4)9-5/h4-6H,1-3H2/t4-,5-,6-,7+,8?/m1/s1
