17
gdb 24331	3.5471	1.5308	1.08336	0.8792	78.77	-0.2134	0.0198	0.2332	1068.8107	0.13918	-384.736086	-384.729214	-384.72827	-384.767624	27.399	
C	 0.0025170203	 1.5025669553	-0.1271194067	-0.3997
C	 1.3772264136	 2.0765541847	 0.1084787497	-0.04607
C	 2.4757531287	 1.3657553447	 0.3588902663	-0.04607
C	 2.5385539123	-0.1383651189	 0.4509262737	-0.3997
C	 1.1931641071	-0.7621603043	 0.2262934545	 0.186569
C	 0.80433058	-2.0645459621	 0.2232576155	-0.126143
O	-0.5288497147	-2.165592932	-0.0276441918	-0.147182
C	-0.9975920835	-0.8986128149	-0.1875545191	-0.126143
C	 0.0075389052	 0.0049964191	-0.0439862441	 0.186569
H	-0.6990086728	 1.9335255678	 0.6019911658	 0.121265
H	-0.3668372777	 1.839780061	-1.1066071959	 0.121316
H	 1.4483244511	 3.1605908105	 0.0644286105	 0.08501
H	 3.4177235622	 1.8862953801	 0.5133598089	 0.08501
H	 3.2718281059	-0.5146017867	-0.2772854569	 0.121319
H	 2.9443574228	-0.4238930985	 1.4323832647	 0.121262
H	 1.3226073687	-2.997524387	 0.3744242309	 0.131344
H	-2.0519857191	-0.813995159	-0.394931646	 0.131344
65.4088	215.3786	295.9439	388.4514	388.9404	473.2537	578.1176	616.4214	648.3532	678.6331	707.0464	731.0215	760.4572	879.3375	908.7385	913.2685	973.5204	976.9168	982.5036	1015.1488	1082.9575	1165.1585	1182.6266	1195.7153	1210.0292	1213.7576	1248.1394	1288.733	1350.2031	1358.5416	1409.3147	1414.8616	1473.1198	1475.3847	1582.4195	1646.8603	1732.3279	2996.4855	2997.1068	3009.8795	3010.3142	3145.2434	3168.4569	3266.7646	3271.7553
C1C=CCC2=COC=C12	C1C=CCc2cocc12	
InChI=1S/C8H8O/c1-2-4-8-6-9-5-7(8)3-1/h1-2,5-6H,3-4H2	InChI=1S/C8H8O/c1-2-4-8-6-9-5-7(8)3-1/h1-2,5-6H,3-4H2
