17
gdb 62550	2.69131	1.23355	1.04245	1.3995	70.42	-0.2474	-0.0423	0.2051	1175.9906	0.131885	-458.975208	-458.965648	-458.964704	-459.010358	34.062	
C	-0.4238983197	 1.4335172322	-0.0797459289	-0.459199
C	 0.0497633295	 0.0022059528	 0.0729408113	 0.275714
O	-1.00533816	-0.8870901347	 0.4276535992	-0.46396
C	 0.8705709438	-0.6480164908	-1.103636438	-0.129159
C	 1.9359914671	-1.1667102488	-0.0821399585	-0.386142
C	 1.2802908414	-0.2783885391	 0.9817068273	 0.363989
O	 1.5870870587	 0.0997211347	 2.0737835051	-0.293051
C	 0.1587537125	-1.7009920838	-1.916646126	 0.171091
O	-0.0585729728	-1.6083390822	-3.0973073239	-0.257077
H	 0.392502562	 2.0917952516	-0.3913393661	 0.129508
H	-1.2252344979	 1.4879965494	-0.8224680188	 0.141846
H	-0.8053098456	 1.8068123527	 0.8772535849	 0.129912
H	-1.3438764094	-0.6122729015	 1.2878331995	 0.294577
H	 1.261876523	 0.1150084699	-1.7782208535	 0.102689
H	 1.8164876448	-2.2308334233	 0.1525382628	 0.145734
H	 2.9875431714	-0.9731528248	-0.3024572139	 0.14323
H	-0.1514197488	-2.5968162542	-1.3381091425	 0.090298
39.7573	62.5852	149.0604	205.5477	219.4689	254.2447	272.6328	331.7629	375.2715	416.1791	443.5136	509.3037	555.1942	674.0312	736.0432	774.6499	860.8913	943.8079	962.3122	1030.9102	1043.4754	1068.1842	1093.0359	1133.8914	1176.5025	1212.1048	1222.3203	1270.8218	1292.5482	1356.2706	1406.0398	1425.951	1432.147	1483.0794	1486.4483	1826.384	1894.877	2908.8341	3034.8125	3050.1163	3104.0234	3108.1059	3120.7875	3125.381	3797.3397
CC1(O)C(CC1=O)C=O	C[C@@]1(O)[C@@H](CC1=O)C=O	
InChI=1S/C6H8O3/c1-6(9)4(3-7)2-5(6)8/h3-4,9H,2H2,1H3	InChI=1S/C6H8O3/c1-6(9)4(3-7)2-5(6)8/h3-4,9H,2H2,1H3/t4-,6+/m0/s1
