17
gdb 54396	3.34072	1.43609	1.2364	2.1167	72.39	-0.2424	-0.0248	0.2176	1041.3897	0.134474	-421.794512	-421.786529	-421.785585	-421.827673	30.324	
C	-0.6227058611	 1.3382405922	 0.0533361656	-0.482578
C	 0.2205730731	 0.0883312077	-0.0265453835	 0.24154
O	 0.929021898	-0.3065882171	 0.8721411579	-0.305747
C	 0.1429406827	-0.7012860825	-1.3095196627	 0.310308
C	-0.8614782568	-1.8908299892	-1.5233476238	-0.247233
C	-0.5390912933	-1.4293783022	-2.9756248784	 0.002037
O	-0.4932210039	-0.0538927331	-2.4642809643	-0.322177
C	 0.9593278053	-1.7752424538	-3.0846452834	-0.090605
C	 1.4257903977	-1.286143667	-1.9356179849	-0.110759
H	-0.3425428436	 2.0234203493	-0.754019064	 0.158661
H	-1.6777250256	 1.0941842527	-0.1103060772	 0.147007
H	-0.48846891	 1.8144531121	 1.0249112185	 0.137874
H	-0.5544708401	-2.8857066688	-1.1989673	 0.115809
H	-1.8804906244	-1.644849308	-1.2142930051	 0.110426
H	-1.2066540756	-1.5742974806	-3.8233654121	 0.087669
H	 1.4567655916	-2.2899826882	-3.8929010911	 0.117377
H	 2.4093174961	-1.2697317935	-1.4928789217	 0.13039
40.7373	124.8366	172.8125	181.7438	339.3324	424.8538	496.1086	530.7166	573.8116	608.4835	624.3735	711.5249	760.1932	830.3003	865.7148	877.7505	904.5114	915.5905	939.2564	964.4694	1004.1058	1031.6649	1050.7923	1065.258	1119.0341	1146.5313	1203.7121	1232.3273	1262.2492	1299.6672	1340.4225	1386.9401	1452.8686	1463.0925	1485.9245	1615.1585	1805.7698	3043.3992	3068.3068	3103.9461	3140.1552	3147.8223	3158.3895	3241.217	3271.4778
CC(=O)C12CC(O1)C=C2	CC(=O)[C@@]12C[C@@H](O1)C=C2	
InChI=1S/C7H8O2/c1-5(8)7-3-2-6(4-7)9-7/h2-3,6H,4H2,1H3	InChI=1S/C7H8O2/c1-5(8)7-3-2-6(4-7)9-7/h2-3,6H,4H2,1H3/t6-,7+/m0/s1
