19
gdb 107253	2.51499	1.58324	1.18124	3.3198	74.69	-0.2427	0.0502	0.2929	1111.8899	0.156082	-422.944632	-422.935766	-422.934822	-422.978064	33.613	
C	-0.5164889678	 1.1949080302	-0.0027495157	-0.380769
C	-0.0728201649	 1.4094744856	 1.4517730263	-0.314639
C	 0.7179350671	 0.2572482993	 1.9863659597	 0.394549
O	 0.0503912266	-0.9739128553	 2.2780604769	-0.266477
C	 0.8346204026	-0.3661731289	 3.3059192774	-0.128525
C	 2.3501666706	-0.702700771	 3.0304037466	-0.109983
O	 2.4213646128	-1.4988164957	 1.8459673619	-0.260196
C	 2.2610209885	-0.0863342376	 1.7050895253	 0.369026
C	 3.2234304466	 0.6871246447	 0.8661549651	-0.51441
H	-1.1267643997	 0.2914151216	-0.0875345363	 0.140549
H	-1.1080515386	 2.0436622738	-0.357859674	 0.115049
H	 0.3432925916	 1.0822460844	-0.6709891168	 0.120707
H	 0.5281123242	 2.3241744354	 1.532087424	 0.102601
H	-0.9507225573	 1.5502331893	 2.0922486888	 0.11482
H	 0.3622569821	-0.1406862469	 4.2546130128	 0.108771
H	 3.1616352507	-0.7623153566	 3.745777256	 0.108049
H	 3.0191189022	 0.5416982166	-0.2005200883	 0.136428
H	 3.1548177669	 1.7590657542	 1.0786337702	 0.126469
H	 4.2471467858	 0.3580959369	 1.0642617399	 0.137982
76.0754	128.671	179.4267	194.0153	229.3438	249.3921	363.5032	381.8687	447.4637	478.4761	590.3815	608.4568	727.6741	748.7341	784.8523	823.3026	835.5667	863.6677	921.4133	961.1191	982.9668	1002.4915	1020.586	1060.4929	1094.4246	1106.8983	1144.8754	1209.8653	1211.3028	1250.3112	1306.3536	1344.4038	1401.7224	1408.4026	1455.3271	1462.1991	1475.6251	1484.7215	1493.3997	1497.4944	1508.6027	3027.7779	3033.5097	3041.4528	3068.542	3095.3206	3110.2659	3118.3765	3121.3905	3184.9942	3194.7654
CCC12OC1C1OC21C	CC[C@]12O[C@H]1[C@H]1O[C@@]21C	
InChI=1S/C7H10O2/c1-3-7-5(9-7)4-6(7,2)8-4/h4-5H,3H2,1-2H3	InChI=1S/C7H10O2/c1-3-7-5(9-7)4-6(7,2)8-4/h4-5H,3H2,1-2H3/t4-,5+,6-,7+/m1/s1
