16
gdb 61756	3.32361	0.92567	0.78088	1.8082	69.26	-0.2569	-0.0864	0.1704	1401.855	0.12056	-475.050268	-475.040264	-475.03932	-475.087331	32.851	
C	-0.4415249316	 1.2829807513	-0.0752413261	-0.370104
N	-0.0624725878	-0.1263385352	-0.134399037	-0.114581
C	-0.1139325641	-0.8511643085	 1.1259171294	-0.261554
C	-1.5383960676	-1.2193349626	 1.5264275995	 0.155581
O	-1.9155310539	-1.2945238704	 2.6640623195	-0.224809
C	 0.3536678594	-0.8066489806	-1.2382486986	 0.314334
O	 0.6669324506	-1.9895543574	-1.2254451553	-0.363745
C	 0.4625668606	-0.1346903996	-2.6204097006	 0.102778
O	 0.1081629663	 0.9618919827	-2.9620484218	-0.24121
H	-0.4128598545	 1.7242668692	-1.0661366744	 0.194342
H	-1.4551972742	 1.3816213398	 0.3304927583	 0.13892
H	 0.2414365622	 1.8254784762	 0.5895924536	 0.136485
H	 0.4445403856	-1.7844712018	 0.9967152441	 0.177502
H	 0.3443858144	-0.265291531	 1.9289160821	 0.134911
H	-2.2091019347	-1.4359362439	 0.6635496998	 0.091753
H	 0.9196757795	-0.8638380481	-3.3184047925	 0.129397
39.6996	42.7812	72.1435	107.1073	137.1067	176.5696	264.8443	302.8287	368.0989	404.9284	487.3865	515.8398	596.5168	691.2215	724.1918	784.4753	1011.66	1029.7607	1040.6467	1064.9502	1160.9328	1171.9221	1218.2396	1296.6094	1340.0905	1379.4986	1410.3803	1434.3444	1443.0347	1473.3816	1505.2933	1527.537	1733.0804	1827.6052	1842.6737	2877.4541	2955.5264	3023.9006	3048.7891	3072.6809	3106.6634	3207.2381
CN(CC=O)C(=O)C=O	CN(CC=O)C(=O)C=O	
InChI=1S/C5H7NO3/c1-6(2-3-7)5(9)4-8/h3-4H,2H2,1H3	InChI=1S/C5H7NO3/c1-6(2-3-7)5(9)4-8/h3-4H,2H2,1H3
