17
gdb 74479	3.17658	1.41918	1.11484	3.3612	75.3	-0.2412	-0.01	0.2312	1106.2573	0.135075	-421.790372	-421.78263	-421.781686	-421.822486	29.922	
C	-0.0096502967	 1.5006586566	 0.0788689938	-0.499569
C	-0.0201148794	 0.0100358047	-0.0129994696	 0.319305
C	 0.001773569	-0.757789006	-1.1099012123	-0.290102
C	-0.0354806698	-2.2107351122	-0.7685462838	 0.458299
C	-0.7162671937	-3.2350803469	-1.5793999803	-0.249412
O	 0.7060930158	-3.1508208974	-1.5538632359	-0.274608
C	 0.0318756323	-2.2688734218	 0.7397135091	-0.075437
O	 1.2048964995	-1.6666148305	 1.2970780917	-0.252387
C	-0.0000114861	-0.8769084915	 1.2063610946	-0.076306
H	 0.8791803783	 1.8535639843	 0.6164875309	 0.1417
H	-0.0185119887	 1.9640240695	-0.9108815309	 0.130038
H	-0.8799839904	 1.8704801012	 0.6355448739	 0.129953
H	 0.0769331935	-0.4101618418	-2.1337044045	 0.109407
H	-1.1452113291	-4.1097839078	-1.0895607444	 0.115295
H	-1.191613302	-2.9469647419	-2.5163332919	 0.114863
H	-0.3755902356	-3.1132864215	 1.2878016128	 0.101002
H	-0.428550437	-0.565913447	 2.1549265769	 0.097958
119.8525	178.3842	184.1394	238.9558	290.0509	364.5569	438.274	483.3248	535.8613	595.8717	631.5334	825.7195	833.2378	855.0773	868.7043	887.2556	908.9565	923.321	978.0273	1008.0729	1034.5319	1063.4343	1092.5635	1129.7136	1148.0995	1179.5514	1239.6403	1250.4889	1296.1201	1320.5693	1385.4323	1414.2138	1439.5462	1478.0063	1486.7862	1525.6358	1700.2359	3020.8357	3068.6304	3072.4348	3116.6991	3152.4608	3160.428	3164.1809	3201.6252
CC1=CC2(CO2)C2OC12	CC1=C[C@]2(CO2)[C@H]2O[C@@H]12	
InChI=1S/C7H8O2/c1-4-2-7(3-8-7)6-5(4)9-6/h2,5-6H,3H2,1H3	InChI=1S/C7H8O2/c1-4-2-7(3-8-7)6-5(4)9-6/h2,5-6H,3H2,1H3/t5-,6-,7-/m0/s1
