12
gdb 6241	4.82871	1.23236	1.15205	4.7958	58.1	-0.3083	-0.0798	0.2284	1017.4218	0.081658	-414.690227	-414.68211	-414.681166	-414.723802	27.082	
C	 0.3680042145	 1.0798848038	-0.1046491646	-0.477715
C	-0.4346552156	-0.1159489057	 0.3098012826	 0.381737
N	-0.9772933623	-0.4229790793	 1.3954924669	-0.415618
O	-0.686721619	-1.0132419681	-0.7642483042	-0.223001
C	 0.3303555453	-1.7656263964	-1.2013692013	 0.371583
O	 1.4530831031	-1.7811274393	-0.7823740605	-0.326079
C	-0.1211322049	-2.6099980781	-2.3128194231	 0.262374
N	-0.4172731795	-3.2918741219	-3.1962955346	-0.299747
H	 0.4476624957	 1.7909924167	 0.7190120558	 0.14246
H	 1.371174078	 0.767743276	-0.407628329	 0.178392
H	-0.1061929885	 1.5707030837	-0.9604561786	 0.160413
H	-0.8087699068	 0.2936126587	 2.1011093605	 0.245201
51.6419	75.8313	141.4923	171.4544	224.8103	308.6142	393.7767	505.3681	513.5777	586.4042	614.3993	766.6142	813.9681	885.8533	962.6386	991.6834	1054.2147	1079.7621	1247.2996	1298.6597	1404.7269	1469.5885	1485.4249	1783.2483	1825.9925	2363.1775	3051.3383	3122.0082	3148.1631	3502.1656
CC(=N)OC(=O)C#N	C[C]([NH])OC(=O)C#N	
InChI=1S/C4H4N2O2/c1-3(6)8-4(7)2-5/h6H,1H3	InChI=1S/C4H4N2O2/c1-3(6)8-4(7)2-5/h6H,1H3
