19
gdb 81850	2.82758	1.4568	1.08382	2.177	76.98	-0.2407	-0.0015	0.2392	1157.4103	0.157865	-423.024777	-423.015928	-423.014984	-423.057803	33.95	
C	-0.023228656	 1.5439919243	 0.0988483572	-0.48595
C	-0.099908894	 0.0561104469	 0.0089241062	 0.270783
C	-0.1664937432	-0.7131534378	-1.0819816424	-0.249269
C	-0.1190289911	-2.1700147554	-0.7258475681	 0.404198
C	-0.7031026888	-3.2288366565	-1.6152583207	-0.492981
O	 1.132629135	-2.5247911898	-0.049934407	-0.313708
C	-0.0322491057	-2.2290888245	 0.7363979707	-0.079297
C	 0.0098988959	-0.798286771	 1.2772990573	 0.027438
O	 1.2002729957	-0.5283306221	 2.002741252	-0.433917
H	 0.8756312551	 1.8397940467	 0.6512799562	 0.144902
H	-0.002660113	 2.0138166968	-0.8877812402	 0.122107
H	-0.8776392805	 1.9491865685	 0.6563997913	 0.126885
H	-0.2109344398	-0.3595826756	-2.1065023612	 0.095681
H	-0.1939961062	-3.2428635661	-2.5851937628	 0.130204
H	-0.5966224786	-4.2161384916	-1.1599636138	 0.133438
H	-1.7654214313	-3.0354141069	-1.7976332219	 0.127901
H	-0.4147196933	-3.0480137362	 1.3399891893	 0.094756
H	-0.816647457	-0.6039571293	 1.9715200385	 0.086676
H	 1.9115499968	-0.9037070703	 1.4653961596	 0.290153
120.5791	160.7098	181.808	193.7719	239.4711	254.031	315.2006	387.343	466.5473	498.7316	530.3141	567.9984	590.4089	705.08	722.0008	819.9965	857.1882	874.6969	937.7818	950.6705	1012.3502	1033.5723	1054.144	1064.0572	1082.1134	1103.7106	1165.8633	1239.5727	1265.6412	1283.0836	1323.9299	1330.9044	1405.0919	1410.2702	1431.3647	1450.1056	1473.7147	1484.4014	1489.7674	1495.8857	1708.3629	3022.2676	3036.6994	3041.6258	3076.9555	3098.2719	3118.1448	3127.507	3148.1379	3188.0261	3754.7343
CC1=CC2(C)OC2C1O	CC1=C[C@@]2(C)O[C@H]2[C@H]1O	
InChI=1S/C7H10O2/c1-4-3-7(2)6(9-7)5(4)8/h3,5-6,8H,1-2H3	InChI=1S/C7H10O2/c1-4-3-7(2)6(9-7)5(4)8/h3,5-6,8H,1-2H3/t5-,6-,7+/m0/s1
