15
gdb 79002	3.67818	1.92837	1.74087	2.5801	67.44	-0.2311	-0.043	0.1881	798.0199	0.114619	-416.693172	-416.687377	-416.686432	-416.723029	24.745	
O	 0.2368354755	 1.4169924519	-0.2871335244	-0.407409
C	 0.0549867653	 0.0968382398	 0.0155060349	 0.1263
C	-1.3570004472	-0.6881692494	-0.189389846	-0.059579
C	-2.09918737	-0.7285627995	-1.5440870826	-0.142767
C	-1.0450052705	-0.9986554055	-2.6786839514	-0.010622
N	 0.2331075392	-0.4739801449	-2.2796720392	-0.23255
C	 0.3569829967	-0.9157761401	-1.0761194378	 0.062211
N	-0.6023154101	-1.9441223486	-0.613099287	-0.1573
C	-1.5081137875	-2.1037935323	-1.787803135	-0.048844
H	 0.2183088918	 1.464905467	-1.2578715544	 0.298092
H	 0.3976606627	-0.1040918323	 1.0321248333	 0.126219
H	-1.9715765129	-0.788543727	 0.7062513367	 0.111123
H	-3.0736911904	-0.3249772828	-1.7775911471	 0.111127
H	-1.3759381822	-0.9063766049	-3.7048904744	 0.112795
H	-1.9234063204	-3.0630659916	-2.0629040455	 0.111203
189.6799	267.518	507.1051	556.0181	589.7037	613.8385	648.4143	708.1939	714.7798	763.9254	768.913	797.8669	855.176	865.9371	884.9426	929.4208	969.996	1001.4155	1011.7064	1024.66	1044.0898	1076.3106	1100.3714	1124.3733	1152.1177	1197.4725	1217.24	1238.1365	1268.8876	1330.33	1339.3613	1454.3456	1563.6432	3102.6587	3113.3353	3207.3911	3213.0926	3228.0161	3671.5562
OC1C2C3C4N=C1N2C34	O[C@H]1[C@H]2[C@H]3[C@H]4[N][C]1N2[C@@H]34	
InChI=1S/C6H6N2O/c9-5-4-1-2-3(1)8(4)6(5)7-2/h1-5,9H	InChI=1S/C6H6N2O/c9-5-4-1-2-3(1)8(4)6(5)7-2/h1-5,9H/t1-,2+,3-,4+,5-/m0/s1
