19
gdb 93546	2.52555	1.47193	1.14637	4.1885	77.31	-0.2501	0.0034	0.2535	1130.9269	0.16032	-423.06972	-423.061398	-423.060454	-423.102707	31.815	
C	-0.613939829	 1.3967814105	-0.2187907621	-0.388971
C	 0.0192989517	 0.0205979258	 0.0622972346	-0.043368
C	 0.8638582687	-0.470124117	-1.1139954944	-0.09844
O	 1.9233715631	 0.428651395	-1.462372486	-0.220502
C	 3.0515692959	 0.5045030544	-0.7129936617	 0.419165
O	 3.9236626692	 1.2570423182	-1.0473785654	-0.316934
C	 3.1489881179	-0.3892086953	 0.5208474453	-0.403409
C	 2.0752497253	-0.1643036994	 1.5647362928	-0.077904
C	 0.7694327996	 0.0170931228	 1.3701102416	-0.040675
H	 0.1583905538	 2.1517414409	-0.3855331735	 0.143888
H	-1.2518380657	 1.3576705811	-1.1079102568	 0.115515
H	-1.2297905067	 1.7199336323	 0.6256452749	 0.117119
H	-0.8013428846	-0.7077191147	 0.156524883	 0.089185
H	 1.2599353054	-1.4723184342	-0.9166610731	 0.112595
H	 0.2497552081	-0.526137243	-2.0164575363	 0.121881
H	 3.1695691576	-1.4400742837	 0.1994874746	 0.137771
H	 4.1305350102	-0.180477816	 0.9477090095	 0.138818
H	 2.4443016431	-0.1400874617	 2.5866800749	 0.102174
H	 0.1487261364	 0.1940296338	 2.2468659983	 0.092094
77.0566	116.8908	221.5519	238.2339	258.993	339.2728	366.0978	425.7476	486.2415	531.5191	580.6938	698.0202	716.5806	752.6992	799.6387	870.7738	915.0333	952.814	971.361	997.1493	1010.7519	1026.6515	1083.8397	1124.086	1158.3983	1168.4944	1241.3857	1254.7227	1295.6187	1335.7238	1341.6174	1366.846	1401.7566	1412.3478	1431.7053	1469.5062	1493.513	1501.9299	1511.42	1729.3483	1848.8034	2985.606	3013.9287	3039.7855	3047.7438	3101.4238	3107.6084	3121.5621	3127.3362	3136.2606	3166.1102
CC1COC(=O)CC=C1	C[C@H]1COC(=O)CC=C1	
InChI=1S/C7H10O2/c1-6-3-2-4-7(8)9-5-6/h2-3,6H,4-5H2,1H3	InChI=1S/C7H10O2/c1-6-3-2-4-7(8)9-5-6/h2-3,6H,4-5H2,1H3/t6-/m1/s1
