19
gdb 39657	3.19926	1.45077	1.33335	1.8563	74.	-0.226	0.073	0.299	1034.6644	0.160314	-422.948427	-422.940703	-422.939759	-422.981568	29.304	
C	-0.1717392908	 0.9164078748	 0.0428629238	-0.060832
C	 1.2951876583	 1.1858829625	-0.3437533649	-0.287436
C	 1.6286683677	 0.2296684141	 0.8303763635	 0.110368
O	 0.2313183561	 0.1296464006	 1.1865514499	-0.283757
C	 2.3134155601	-1.0766137022	 0.4763117419	-0.045637
C	 1.9022352505	-2.4873047758	 0.8632107379	-0.167072
C	 0.4082248067	-2.7176695084	 0.6296282343	-0.080608
O	 0.4931775604	-2.1717897652	-0.7195572934	-0.289259
C	 1.9109136162	-2.0493403803	-0.5895331018	 0.068183
H	-0.7658584353	 1.7872374308	 0.3417246004	 0.097801
H	-0.7337211667	 0.3118731354	-0.6764320879	 0.118024
H	 1.6006945469	 0.8355960485	-1.3303602867	 0.113869
H	 1.6281940822	 2.2151253902	-0.2014523862	 0.107083
H	 2.1885527879	 0.698345992	 1.6511968649	 0.07597
H	 3.3990343687	-0.9782467043	 0.5165083751	 0.090918
H	 2.5593806538	-3.1589034039	 1.3995375202	 0.09781
H	 0.1603633812	-3.784145395	 0.5801392342	 0.101304
H	-0.3026074064	-2.1755604561	 1.2520740459	 0.133561
H	 2.5191663028	-2.3352852777	-1.4414902911	 0.099712
41.5559	96.6983	176.7496	220.1159	316.9799	355.601	487.1058	677.7487	722.7187	786.0224	793.8865	796.8227	809.2201	869.5382	933.969	941.3469	967.8245	980.5133	989.1013	1021.1215	1033.1756	1050.8449	1070.4877	1085.8643	1092.7548	1125.5801	1169.6644	1178.5119	1191.7923	1219.36	1257.6758	1264.7998	1280.1947	1316.6333	1356.4288	1367.7402	1386.6005	1445.9841	1486.9269	1499.8674	1520.7448	3001.2094	3030.8339	3037.6256	3078.9411	3083.0914	3107.5744	3139.8622	3143.1995	3163.1964	3198.0777
C1CC(O1)C1C2COC12	C1C[C@@H](O1)[C@H]1[C@H]2CO[C@@H]12	
InChI=1S/C7H10O2/c1-2-8-5(1)6-4-3-9-7(4)6/h4-7H,1-3H2	InChI=1S/C7H10O2/c1-2-8-5(1)6-4-3-9-7(4)6/h4-7H,1-3H2/t4-,5-,6-,7-/m1/s1
