18
gdb 71802	3.80193	1.70447	1.55689	1.3938	73.31	-0.2335	0.0727	0.3062	894.2897	0.150953	-401.910663	-401.904402	-401.903458	-401.940765	27.307	
O	-0.1066917435	 1.3565944535	-0.0111869987	-0.477743
C	 0.0401863359	-0.0224002252	-0.0355573061	 0.373885
C	 1.0686122372	-0.7424065822	-0.8982841026	-0.247969
N	 0.7239096674	-2.1360794803	-0.6079542356	-0.125838
C	 0.4944848474	-2.262157465	 0.8917559514	-0.023726
C	-0.6635384154	-3.2289428744	 0.5472602809	-0.225764
C	-0.7915464593	-2.2534260849	-0.6462878949	-0.023428
C	-1.1770705276	-0.90504858	-0.0032221971	-0.109364
C	-0.1983891481	-0.9139720729	 1.1702655235	-0.155715
H	 0.6472869876	 1.7294832326	 0.4587521314	 0.284806
H	 0.9516617117	-0.5291312868	-1.9659568533	 0.108657
H	 2.104857141	-0.5353664482	-0.6056109753	 0.093719
H	 1.3458801021	-2.5511427863	 1.5092199155	 0.068832
H	-0.30435249	-4.2122929946	 0.240362425	 0.1099
H	-1.4985541189	-3.3025106747	 1.2458124445	 0.095434
H	-1.2528023693	-2.5302451094	-1.5948147648	 0.071668
H	-2.1810013556	-0.5090689491	 0.0565259811	 0.094409
H	-0.4394591828	-0.529400432	 2.1516204452	 0.088239
255.5528	297.7798	327.6807	396.0139	451.9718	523.6019	571.8145	699.6301	715.8182	749.9092	790.8002	805.7259	852.5148	862.0014	916.1249	919.918	935.2992	941.9327	977.4047	1014.1518	1038.9345	1045.6064	1070.6251	1097.2201	1115.9036	1149.7523	1171.56	1208.4054	1215.7129	1226.4478	1240.0025	1268.413	1277.466	1284.9307	1305.5258	1324.9308	1440.2799	1482.742	1494.4507	3035.2334	3079.2802	3086.8598	3107.4489	3112.671	3147.7402	3209.7005	3220.1316	3797.1162
OC12CN3C4CC3C1C24	O[C@]12CN3[C@@H]4C[C@H]3[C@H]1[C@H]24	
InChI=1S/C7H9NO/c9-7-2-8-3-1-4(8)6(7)5(3)7/h3-6,9H,1-2H2	InChI=1S/C7H9NO/c9-7-2-8-3-1-4(8)6(7)5(3)7/h3-6,9H,1-2H2/t3-,4+,5-,6+,7+
