17
gdb 79297	2.70346	1.76642	1.51958	2.0821	64.92	-0.2356	0.0657	0.3013	917.0038	0.138	-458.946096	-458.939089	-458.938145	-458.97718	28.725	
O	-0.0112020674	 1.4364224523	 0.1106350158	-0.451749
C	 0.0284672861	 0.0317248973	 0.054839398	 0.165956
C	-1.3361177594	-0.6210033105	-0.1944203994	-0.172497
C	-1.4315563747	-0.6535211366	-1.6989987043	 0.079036
O	-0.2359324896	-0.0962323063	-2.243504659	-0.276088
C	 0.6910639049	-0.5246175858	-1.2283807402	-0.043199
C	 0.4254535689	-2.0483460372	-1.136828567	 0.155795
O	 1.1195047901	-2.7095799157	-0.0984704779	-0.447129
C	-1.085696513	-1.9228895509	-0.9706746324	-0.175779
H	-0.2796645418	 1.7311456332	-0.7694305443	 0.28729
H	 0.5278063058	-0.3074008665	 0.9652277171	 0.084988
H	-2.188430622	-0.4646573908	 0.451973703	 0.100523
H	-2.3199807094	-0.4820375059	-2.2889912588	 0.113589
H	 1.6974650083	-0.1881945179	-1.464061976	 0.091765
H	 0.7015825923	-2.5507889542	-2.0686472827	 0.097901
H	 0.6358400084	-2.5757440086	 0.7225766932	 0.289912
H	-1.7482450676	-2.7772224859	-0.9300206751	 0.099687
166.1424	216.7141	271.2399	295.162	353.4061	454.0065	517.4026	571.6925	599.6918	705.4059	747.9764	811.1519	814.8855	831.7773	899.7789	912.9269	944.2639	980.3382	995.5777	1022.8538	1039.9141	1048.1179	1069.461	1078.4855	1102.5471	1126.5211	1199.7566	1227.2013	1248.3305	1257.5377	1283.2708	1307.8032	1312.2984	1335.7206	1379.7223	1419.1065	1446.6073	3072.7507	3092.5195	3165.3007	3204.25	3217.1651	3232.0387	3772.5312	3823.6555
OC1C2C3OC1C(O)C23	O[C@H]1[C@H]2[C@H]3O[C@@H]1[C@@H](O)[C@@H]23	
InChI=1S/C6H8O3/c7-3-1-2-4(8)6(3)9-5(1)2/h1-8H	InChI=1S/C6H8O3/c7-3-1-2-4(8)6(3)9-5(1)2/h1-8H/t1-,2+,3-,4-,5+,6-/m0/s1
