20
gdb 13139	3.81019	1.15149	0.97448	2.292	71.76	-0.2435	0.0626	0.3061	1260.2939	0.175728	-386.121889	-386.112635	-386.111691	-386.156582	32.771	
C	 0.1762091755	 1.4878416861	-0.1159370339	-0.381572
C	 0.0640958905	-0.0307111469	 0.0385821316	-0.169487
C	 0.6940666011	-0.5476775078	 1.3371538579	-0.169964
C	 0.6195032548	-2.0617721284	 1.4421094566	 0.115814
O	 1.3712465152	-2.7363710324	 0.3965347819	-0.292121
C	 2.2860977611	-3.3136279254	 1.3476914594	-0.097465
C	 1.4739452309	-2.7485946338	 2.5349008823	 0.041652
O	 2.1168615593	-1.8442945212	 3.4007756187	-0.421677
H	 1.223990961	 1.8082807878	-0.1199895197	 0.114089
H	-0.2791480125	 1.8279974776	-1.0514353283	 0.109597
H	-0.3239767946	 2.0105036931	 0.7073966969	 0.11057
H	-0.9929994558	-0.3272569848	 0.0038796512	 0.088643
H	 0.5503960179	-0.5295259104	-0.8073451691	 0.116333
H	 1.741651387	-0.2338034044	 1.4004865555	 0.105652
H	 0.1864645098	-0.1130756694	 2.2082852425	 0.097435
H	-0.4288207509	-2.390871346	 1.4222037862	 0.071256
H	 2.3417027377	-4.4054106127	 1.2566686937	 0.095902
H	 3.2948953084	-2.8865999151	 1.27198914	 0.099841
H	 0.9254028519	-3.5152680852	 3.0958081255	 0.07631
H	 2.5925229115	-2.346281191	 4.0692017911	 0.289191
57.0346	89.4394	101.8484	124.7513	216.0867	249.2111	263.127	325.4668	410.2475	469.2081	543.7279	734.6838	761.6646	838.3614	885.8084	889.6513	913.8256	953.793	1024.3376	1050.3441	1064.1668	1076.7231	1117.6646	1138.6511	1158.4481	1185.4776	1213.3061	1254.6157	1277.4986	1300.3591	1310.9174	1324.0882	1351.0707	1379.3322	1404.8438	1413.8644	1438.7954	1472.9585	1494.2829	1499.6855	1510.2724	1515.9683	2999.7194	3007.3722	3016.9733	3024.4568	3026.382	3029.7549	3058.3889	3060.8257	3080.5606	3097.4844	3099.9108	3828.2372
CCCC1OCC1O	CCC[C@H]1OC[C@H]1O	
InChI=1S/C6H12O2/c1-2-3-6-5(7)4-8-6/h5-7H,2-4H2,1H3	InChI=1S/C6H12O2/c1-2-3-6-5(7)4-8-6/h5-7H,2-4H2,1H3/t5-,6-/m1/s1
