20
gdb 122104	3.30683	0.65469	0.56981	4.2676	76.13	-0.2738	0.0264	0.3002	1904.0203	0.169215	-440.291293	-440.280468	-440.279524	-440.328371	37.281	
O	-0.0526018433	 1.4606218406	 0.0167897828	-0.418105
C	 0.0378065306	 0.0463382487	 0.0417117708	-0.073907
C	-1.3815707479	-0.50757467	 0.0172227742	-0.182783
C	-1.4139486332	-2.0378768063	 0.0097598535	-0.20858
C	-2.8387781588	-2.6282376304	-0.016667728	-0.155247
C	-2.8280621429	-4.17047721	-0.1614104481	-0.07
O	-4.1199827046	-4.7239363261	-0.2364872423	-0.416335
C	-3.5959091933	-2.277905427	 1.189291988	 0.267573
N	-4.1984711371	-2.0612601556	 2.1524601862	-0.334117
H	 0.8372125226	 1.8222493225	 0.0609878139	 0.288156
H	 0.6020601706	-0.3343860207	-0.8263195494	 0.084256
H	 0.5581802651	-0.3071498285	 0.9470911801	 0.088909
H	-1.9221841133	-0.1205748737	 0.8881922114	 0.133206
H	-1.8915583332	-0.1151399517	-0.8708664106	 0.11146
H	-0.8860154633	-2.4180971548	-0.873736971	 0.10827
H	-0.883125618	-2.4305441448	 0.8857743844	 0.116266
H	-3.3877532351	-2.2209210201	-0.8748098289	 0.135285
H	-2.3283379228	-4.4213788722	-1.1019662376	 0.121092
H	-2.2375904705	-4.6044807611	 0.6597063024	 0.105613
H	-4.5569955716	-4.5843918289	 0.611636788	 0.298989
54.4337	74.028	88.8419	119.3237	132.5472	176.6806	238.3969	259.8489	265.9819	299.1611	381.7951	424.6168	484.3819	563.4901	627.2055	754.0228	795.0739	875.6595	978.7725	992.7917	1033.3348	1069.007	1072.1821	1089.6785	1105.7972	1135.0855	1199.9489	1216.5108	1235.9396	1273.883	1301.5551	1319.6815	1324.5199	1370.2421	1383.9043	1397.7507	1421.9169	1466.1986	1485.0915	1500.4222	1504.782	1529.3244	2348.3307	2955.6006	2981.997	2992.0369	3023.7292	3038.0773	3042.9818	3062.3425	3086.7226	3090.8002	3797.7113	3832.5319
OCCCC(CO)C#N	OCCC[C@@H](CO)C#N	
InChI=1S/C6H11NO2/c7-4-6(5-9)2-1-3-8/h6,8-9H,1-3,5H2	InChI=1S/C6H11NO2/c7-4-6(5-9)2-1-3-8/h6,8-9H,1-3,5H2/t6-/m1/s1
