14
gdb 31431	3.07827	1.44474	0.98938	2.6358	66.86	-0.2656	-0.0488	0.2168	1114.3018	0.10322	-470.079606	-470.072109	-470.071164	-470.111978	27.093	
C	 0.0141007404	 1.3773606463	 0.007167845	-0.231023
O	-0.0421272431	-0.0549893655	 0.003753308	-0.226674
C	-1.2433134272	-0.6143433538	 0.0114789385	 0.467487
N	-2.3126126045	 0.1354824523	 0.0212892443	-0.41928
C	-3.5448228956	-0.4722481693	 0.0283333147	 0.441951
O	-4.6187566422	 0.0783476623	 0.037620415	-0.372981
N	-3.4898519637	-1.9008716034	 0.0236053452	-0.325874
C	-2.3222902314	-2.567821187	 0.0130943454	 0.119278
N	-1.1633489603	-1.9875335137	 0.0065048196	-0.315633
H	 1.0764273415	 1.6208552962	-0.0005236217	 0.13705
H	-0.4839529268	 1.7848045712	-0.8754639226	 0.14879
H	-0.4699870474	 1.7799928188	 0.8997257862	 0.148771
H	-4.3779254153	-2.3821443401	 0.0285707382	 0.277661
H	-2.3777431942	-3.6542702244	 0.0101809942	 0.150476
110.4902	148.6118	175.6879	228.7864	230.8478	437.8399	461.8824	532.0128	577.8585	616.4893	683.0524	777.2481	785.6456	823.3004	960.5896	984.6332	998.1639	1060.1432	1167.5556	1180.0641	1183.6012	1252.2844	1371.3068	1414.8824	1442.7617	1480.1718	1490.7429	1503.7577	1574.8866	1674.921	1840.9621	3056.8888	3135.5181	3162.8857	3164.8236	3616.9674
COC1=NC(=O)NC=N1	COc1nc(=O)[nH]cn1	
InChI=1S/C4H5N3O2/c1-9-4-6-2-5-3(8)7-4/h2H,1H3,(H,5,6,7,8)	InChI=1S/C4H5N3O2/c1-9-4-6-2-5-3(8)7-4/h2H,1H3,(H,5,6,7,8)
