19
gdb 104692	2.76128	1.41209	1.1426	1.2065	71.03	-0.2322	0.0653	0.2975	1120.5684	0.157738	-460.088896	-460.079802	-460.078857	-460.122773	33.506	
C	 0.7861804991	 0.5864927434	-0.0165998102	-0.268151
O	-0.0231605723	-0.4864711151	-0.5047142053	-0.309455
C	-1.2675407918	-0.6223223065	 0.1182950708	 0.386733
C	-2.4044512069	-0.0043176723	-0.6791097514	-0.13017
O	-2.1549476237	 1.3453766699	-1.0306446404	-0.416218
C	-1.6257247093	-1.9227221482	 0.7972252938	-0.205246
C	-0.4113032121	-2.4332111878	 1.5637133331	-0.099824
O	-0.2565460198	-1.1626350524	 2.2573688552	-0.285996
C	-1.4199721733	-0.6489054648	 1.6121904127	 0.007633
H	 1.659008535	 0.6322673263	-0.6727662235	 0.119926
H	 0.2519983815	 1.5423451102	-0.055261649	 0.117261
H	 1.1081309884	 0.3938861009	 1.0107279352	 0.141406
H	-2.5826156094	-0.6159876129	-1.5770215708	 0.098194
H	-3.3268645875	-0.0114447111	-0.088252123	 0.110239
H	-1.41790295	 1.3331763956	-1.6501852455	 0.291671
H	-2.5164500118	-2.4912468404	 0.5611873332	 0.099242
H	-0.6438642573	-3.2274182205	 2.2800179031	 0.112336
H	 0.4723157005	-2.692766711	 0.9730196583	 0.120047
H	-2.0821378193	-0.0123333934	 2.1900312838	 0.11037
69.4934	135.0945	166.7005	179.11	210.5291	232.881	300.769	350.0709	377.5248	420.7253	543.5747	617.1132	709.539	809.108	821.5936	880.6301	946.0081	954.009	992.6534	1018.0947	1039.9983	1052.2509	1067.067	1085.0263	1117.0564	1148.8901	1166.6	1180.8152	1220.1935	1229.3337	1250.4363	1283.5484	1331.7572	1389.0491	1403.5786	1425.1787	1472.6985	1486.2794	1493.1486	1505.8752	1526.2357	2985.323	3027.2177	3043.4046	3071.4172	3098.8865	3101.7108	3124.609	3166.354	3190.99	3818.6241
COC1(CO)C2COC12	CO[C@@]1(CO)[C@H]2CO[C@@H]12	
InChI=1S/C6H10O3/c1-8-6(3-7)4-2-9-5(4)6/h4-5,7H,2-3H2,1H3	InChI=1S/C6H10O3/c1-8-6(3-7)4-2-9-5(4)6/h4-5,7H,2-3H2,1H3/t4-,5+,6-/m0/s1
