21
gdb 77077	2.67421	1.11776	0.97555	1.7503	85.7	-0.2496	0.0523	0.302	1320.1742	0.179375	-387.056907	-387.046825	-387.045881	-387.091191	38.697	
C	-0.6921146333	 0.9986527717	-0.1147670073	-0.430172
C	-0.0196006955	-0.3256207344	 0.2012167679	 0.013918
C	 1.2726404981	-0.7392303259	-0.579855873	-0.187241
C	 1.7891721037	-1.4070805514	 0.7336904292	-0.295156
C	 0.7564064122	-0.5527343873	 1.530535012	 0.385487
C	 1.3650087263	 0.6977303623	 2.1578441109	-0.455175
O	-0.049737045	-1.2448338451	 2.4658958878	-0.479791
C	 1.1324635505	-1.547572574	-1.7719417993	 0.306229
C	 0.9982474162	-2.2305936345	-2.7532903074	-0.442908
H	 0.0096215844	 1.8375092185	-0.0578246904	 0.11071
H	-1.1098609579	 0.983970366	-1.1269686688	 0.125624
H	-1.5137524371	 1.1981143639	 0.5813273738	 0.124787
H	-0.7406414475	-1.1447203995	 0.1225460617	 0.097164
H	 1.8686240642	 0.1524272546	-0.8070632099	 0.09482
H	 1.5166968093	-2.4633890873	 0.7710943989	 0.116788
H	 2.8499627756	-1.2889136015	 0.9687508034	 0.096026
H	 1.9651829403	 1.2657602418	 1.4404487713	 0.122105
H	 0.5837394515	 1.3545895473	 2.5515504686	 0.126631
H	 2.0296010534	 0.4187214079	 2.985474688	 0.106826
H	 0.4416257216	-1.3250529378	 3.2907520664	 0.272674
H	 0.884900669	-2.8323954253	-3.6204306639	 0.190652
76.7995	128.7639	186.0646	208.5117	233.9537	262.0154	276.699	283.1627	340.8845	383.7374	407.3565	479.0988	519.7212	558.6159	575.8295	616.8464	620.3281	729.7514	809.8106	877.2449	894.6397	934.1598	972.9815	1020.2598	1050.117	1056.3871	1096.6517	1130.8896	1153.9846	1188.5898	1199.2533	1232.6035	1247.7481	1289.3152	1351.035	1367.7083	1393.8821	1408.3686	1412.7432	1482.7707	1487.787	1490.1519	1500.6516	1504.4606	2232.1142	3022.4893	3029.9487	3033.6952	3064.2899	3070.1478	3088.3079	3099.5806	3100.7614	3114.8061	3132.5358	3505.4377	3800.2613
CC1C(CC1(C)O)C#C	C[C@H]1[C@@H](C[C@]1(C)O)C#C	
InChI=1S/C8H12O/c1-4-7-5-8(3,9)6(7)2/h1,6-7,9H,5H2,2-3H3	InChI=1S/C8H12O/c1-4-7-5-8(3,9)6(7)2/h1,6-7,9H,5H2,2-3H3/t6-,7+,8-/m0/s1
