18
gdb 54632	3.86147	1.12368	0.93899	3.7962	79.83	-0.2395	-0.0499	0.1897	1251.1515	0.147817	-401.953085	-401.944865	-401.943921	-401.986376	31.042	
C	-0.185377953	 1.4823558344	-0.0084715386	-0.489724
C	-0.1090170036	-0.0339596315	 0.0232689996	 0.298811
O	-0.1220577665	-0.6466035162	 1.0732624825	-0.311458
C	-0.010741577	-0.7380352484	-1.2829844768	 0.211977
C	-0.0044187519	-2.0770745149	-1.3940815772	-0.109483
C	 0.0273747929	-2.4975978447	-2.8171610775	-0.092662
N	-1.1765667337	-2.0203489015	-3.5669495835	-0.329243
C	 0.0719810912	-1.2390438709	-3.6186950858	-0.042756
C	 0.0893428599	-0.0636497651	-2.6471238916	-0.334376
H	 0.675377628	 1.9043970238	-0.5397091691	 0.134603
H	-1.0816898682	 1.8085337156	-0.5486634151	 0.140698
H	-0.2137951785	 1.8666555353	 1.0113997527	 0.139511
H	-0.0447234434	-2.753153702	-0.5495503292	 0.128393
H	 0.4984342638	-3.4235460133	-3.1269543222	 0.095776
H	-1.2484071052	-2.5640857951	-4.4258972931	 0.231602
H	 0.6114786592	-1.1753892971	-4.5573542043	 0.09329
H	-0.7448752183	 0.6209858333	-2.8372999993	 0.124896
H	 1.0141751443	 0.5195525883	-2.7440182913	 0.110143
55.8714	130.6098	144.9264	189.8035	337.8521	349.5114	396.4812	464.5584	510.809	602.8274	622.1237	703.2166	806.5043	821.3402	843.1086	899.9873	930.0422	944.7521	957.0451	984.5103	997.4229	1046.9657	1055.4147	1082.7171	1133.8018	1165.5537	1194.0961	1224.7608	1262.0478	1282.6574	1337.0105	1372.2065	1380.9776	1407.208	1458.7258	1468.0728	1474.8309	1650.4415	1772.0727	3023.8634	3033.8606	3067.492	3092.9762	3154.1039	3168.0788	3180.2215	3224.7767	3475.9518
CC(=O)C1=CC2NC2C1	CC(=O)C1=C[C@H]2N[C@H]2C1	
InChI=1S/C7H9NO/c1-4(9)5-2-6-7(3-5)8-6/h2,6-8H,3H2,1H3	InChI=1S/C7H9NO/c1-4(9)5-2-6-7(3-5)8-6/h2,6-8H,3H2,1H3/t6-,7+/m1/s1
