15
gdb 46425	3.85977	0.8911	0.77306	5.2887	67.53	-0.2561	-0.0055	0.2506	1400.2043	0.112093	-453.953265	-453.944589	-453.943644	-453.98794	29.903	
O	 0.272162562	 0.0622020123	 0.0854500271	-0.358792
C	 0.133375281	 1.2556728369	 0.0301636499	 0.421162
N	-0.9538441583	 2.0891854335	 0.0382884259	-0.329218
C	-0.1942653767	 3.3451850795	 0.1083360465	-0.190405
C	 1.0909876103	 2.4891075298	-0.029868048	-0.014813
O	 1.9701330693	 2.6366448204	 1.0542094946	-0.25103
C	 3.0180018166	 1.6806887065	 1.0288662961	-0.203114
C	 3.8910145478	 1.91254631	 2.1810492644	 0.268526
N	 4.5982585782	 2.07274605	 3.0791652146	-0.291885
H	-1.9374289663	 1.8960783277	 0.1583323569	 0.260734
H	-0.3962952959	 4.0439709339	-0.7073650788	 0.124614
H	-0.2525842187	 3.8548015229	 1.0736988819	 0.138758
H	 1.6118126305	 2.5942530026	-0.9921558478	 0.101908
H	 2.6233851474	 0.6571094316	 1.0675375474	 0.180793
H	 3.6153698426	 1.7737236823	 0.1078396293	 0.142761
43.2481	94.3763	107.7633	159.7378	213.3083	283.2966	366.5724	384.0896	451.4007	515.2898	568.7431	738.3182	760.7229	867.1875	919.1446	961.4866	988.3796	1032.0276	1045.4993	1101.8959	1153.9978	1184.9098	1187.3187	1217.7015	1259.6148	1300.8951	1349.072	1394.5864	1431.2058	1500.017	1520.6718	1888.1301	2375.4755	2988.0316	3011.393	3051.6693	3059.6587	3115.3974	3610.6982
O=C1NCC1OCC#N	O=C1NC[C@H]1OCC#N	
InChI=1S/C5H6N2O2/c6-1-2-9-4-3-7-5(4)8/h4H,2-3H2,(H,7,8)	InChI=1S/C5H6N2O2/c6-1-2-9-4-3-7-5(4)8/h4H,2-3H2,(H,7,8)/t4-/m1/s1
