18
gdb 74916	3.5612	1.60025	1.35305	1.6556	75.32	-0.2388	0.0253	0.2641	989.4535	0.14979	-401.938937	-401.931831	-401.930886	-401.97027	28.547	
C	-0.1077216297	 1.510567146	 0.0756254744	-0.460339
C	 0.0190344109	 0.0285877499	-0.097618022	 0.398617
N	-0.108662835	-0.5496366807	-1.2209198402	-0.305169
C	 0.0955690851	-1.990270725	-1.2152280983	-0.004296
C	 1.5300184691	-2.4655951153	-0.777962693	-0.244463
C	 0.933535467	-3.0111502221	 0.5188715379	-0.093535
C	 0.0620536473	-1.9784000311	 1.1729468766	 0.107035
O	 0.3007413092	-0.5821881847	 1.0949079172	-0.269163
C	-0.4945858128	-2.7128428922	 0.0128033048	-0.133221
H	 0.7969691524	 1.9159777385	 0.5401321361	 0.138244
H	-0.2648842599	 1.9791142059	-0.895129123	 0.14468
H	-0.9451480291	 1.7463738509	 0.7405277607	 0.136321
H	-0.2172851759	-2.4008828209	-2.1746202574	 0.082404
H	 1.9063371205	-3.2599693073	-1.4267788862	 0.106855
H	 2.2897351997	-1.6842183231	-0.6892256996	 0.10663
H	 1.2933770404	-3.8670388993	 1.0780046891	 0.087684
H	-0.3130112897	-2.2242236372	 2.159594192	 0.108915
H	-1.4063477094	-3.2950925122	 0.041540791	 0.092803
139.0601	154.783	209.9995	332.0941	403.1182	447.7533	515.0619	575.0547	650.3647	734.9373	742.9001	774.1355	814.4772	846.361	881.4014	944.0411	960.6251	994.3713	1009.945	1020.4561	1032.7054	1061.452	1065.4873	1088.4051	1131.0206	1167.7336	1202.3754	1217.4885	1239.6296	1255.768	1289.1538	1344.866	1348.036	1406.8457	1425.4399	1474.4805	1476.7375	1492.1516	1727.5808	3046.0214	3058.0252	3102.6389	3104.0207	3116.7921	3164.9172	3175.5197	3184.3708	3199.6722
CC1=NC2CC3C(O1)C23	CC1=N[C@H]2C[C@H]3[C@@H](O1)[C@@H]23	
InChI=1S/C7H9NO/c1-3-8-5-2-4-6(5)7(4)9-3/h4-7H,2H2,1H3	InChI=1S/C7H9NO/c1-3-8-5-2-4-6(5)7(4)9-3/h4-7H,2H2,1H3/t4-,5+,6-,7-/m1/s1
