17
gdb 6301	4.27877	1.09443	0.98819	3.4142	70.78	-0.248	0.0258	0.2738	1197.16	0.139558	-363.871568	-363.861978	-363.861034	-363.906475	33.96	
C	-0.1417637589	 1.6492990265	 0.1379886939	-0.395624
C	-0.0406388573	 0.1139619239	 0.042177316	-0.147572
C	 0.7853062067	-0.4829756766	 1.2003965789	-0.315562
C	 2.2687403363	-0.1276219218	 1.096935627	 0.414781
N	 2.9655959674	-0.2479246882	 2.2638492441	-0.526695
O	 2.796374745	 0.220365182	 0.0573501823	-0.358377
C	-1.3650746613	-0.5022809442	-0.00551253	 0.301357
C	-2.4584455004	-1.0025324367	-0.0223843967	-0.448826
H	 0.857800707	 2.0888371286	 0.1099190852	 0.138796
H	-0.7200483128	 2.0484021282	-0.6989333108	 0.126375
H	-0.64049729	 1.9485503095	 1.0655601544	 0.115665
H	 0.4986319392	-0.1281358055	-0.8811948799	 0.132509
H	 0.3779146803	-0.1606064694	 2.1656713353	 0.113623
H	 0.7068987072	-1.5766554029	 1.1794347282	 0.138107
H	 2.5457398694	-0.6019866804	 3.1052073422	 0.259325
H	 3.9642683319	-0.1218588172	 2.2368537967	 0.261529
H	-3.4227484597	-1.4454009357	-0.0566603968	 0.190588
37.9872	74.86	132.7566	171.9025	192.8849	231.245	279.6536	333.4834	397.8064	500.9502	524.8066	546.639	610.414	622.6778	636.2926	653.9902	838.5413	853.694	905.8511	952.8681	1057.6354	1092.0714	1102.7061	1139.2218	1230.3476	1260.8894	1326.5625	1344.2243	1396.0475	1407.3364	1459.6822	1495.9987	1503.204	1617.9142	1792.0665	2234.4657	3034.6351	3041.7959	3048.327	3076.648	3117.2064	3135.5457	3505.7921	3601.3769	3737.9775
CC(CC(N)=O)C#C	C[C@@H](CC(=O)N)C#C	
InChI=1S/C6H9NO/c1-3-5(2)4-6(7)8/h1,5H,4H2,2H3,(H2,7,8)	InChI=1S/C6H9NO/c1-3-5(2)4-6(7)8/h1,5H,4H2,2H3,(H2,7,8)/t5-/m1/s1
