19
gdb 91662	2.56443	1.79062	1.39645	2.6317	75.1	-0.2339	0.0803	0.3142	998.6471	0.159716	-422.980207	-422.972639	-422.971695	-423.011839	30.464	
C	-0.028411173	 1.525473863	-0.0011091796	-0.419757
C	 0.0827510989	 0.0116303549	 0.0742842977	 0.151188
O	 0.9471285144	-0.5019920008	-0.9847328153	-0.298503
C	 1.9204507423	-1.259402982	-0.2525400823	-0.00527
C	 1.0650173197	-2.0343346914	 0.7871718931	-0.249546
C	 0.7992650733	-0.5807424487	 1.3072241564	-0.195596
C	 2.2694487824	-0.3347614294	 0.916006701	 0.535658
C	 3.4693018975	-0.1993019501	 1.7285273367	-0.304064
O	 2.9850819313	 0.8727175898	 0.8888552354	-0.291249
H	 0.9404108439	 2.0039435691	 0.1532483615	 0.151541
H	-0.4116578945	 1.8201423216	-0.9825729526	 0.124524
H	-0.7276607197	 1.8910441231	 0.7590643361	 0.107473
H	-0.9109649518	-0.4398125173	-0.0477234834	 0.072076
H	 2.6426831869	-1.7097365353	-0.9303105459	 0.087192
H	 0.2115899918	-2.5852859337	 0.3886894556	 0.108207
H	 1.6487553958	-2.6438391673	 1.4783794316	 0.106032
H	 0.3943346883	-0.3599245436	 2.293279096	 0.078939
H	 3.3858317094	-0.0219115391	 2.7998789917	 0.119873
H	 4.4067859233	-0.6483567727	 1.4037327565	 0.121284
156.8444	188.8133	220.2207	253.1108	310.0271	366.78	438.8572	492.9682	553.062	647.7186	705.3343	806.9449	810.9276	838.2315	865.509	895.7981	918.1695	961.8547	982.5859	1017.1819	1043.3926	1055.1323	1078.9839	1096.7045	1115.8621	1119.128	1152.4091	1163.6805	1169.084	1223.0666	1231.9327	1258.145	1283.9451	1334.3953	1391.8518	1412.4411	1454.6782	1485.8257	1492.5251	1497.6509	1551.0328	3007.3346	3041.0364	3079.5256	3083.5206	3105.8399	3136.7583	3143.5492	3147.3527	3149.6374	3169.9355
CC1OC2CC1C21CO1	C[C@H]1O[C@@H]2C[C@H]1[C@]12CO1	
InChI=1S/C7H10O2/c1-4-5-2-6(9-4)7(5)3-8-7/h4-6H,2-3H2,1H3	InChI=1S/C7H10O2/c1-4-5-2-6(9-4)7(5)3-8-7/h4-6H,2-3H2,1H3/t4-,5-,6-,7+/m1/s1
