14
gdb 130217	3.24747	1.30666	0.99803	2.4241	67.42	-0.2278	-0.0112	0.2166	1113.5415	0.10353	-429.067488	-429.059514	-429.05857	-429.100506	28.904	
N	 0.1559040718	 1.2996733421	-0.3437573933	-0.605312
C	 0.0936609226	-0.0680649672	-0.1356037607	 0.280494
N	-1.0526047806	-0.7204226974	 0.0615059646	-0.275776
N	-0.6499335643	-1.9749442661	 0.2878159344	-0.085688
N	 0.6487822753	-2.1965493699	 0.2414013665	-0.262798
C	 1.1601940639	-0.9929941399	-0.0201071665	 0.272703
C	 2.6414069889	-0.7731542349	-0.1253732252	-0.447403
C	 2.9924820589	 0.0567524087	-1.2809623993	 0.264377
N	 3.2203074126	 0.7466260064	-2.1799679697	-0.317001
H	 0.8635782983	 1.5825715578	-1.0102081764	 0.270266
H	-0.7454261218	 1.6962603233	-0.573854002	 0.260049
H	-1.3077286952	-2.7117714958	 0.4790439853	 0.295212
H	 3.0352683986	-0.2786310089	 0.7724640261	 0.171736
H	 3.1439173111	-1.7416779882	-0.2042341938	 0.179142
56.5641	110.1075	233.1751	269.2678	302.1084	355.0373	379.9976	436.3963	447.1912	495.1865	670.1694	700.4551	745.4653	750.0099	790.4509	933.5268	948.3365	993.9689	1103.3927	1196.5708	1199.0908	1247.0443	1273.7872	1330.7171	1404.8004	1451.7478	1464.4126	1561.6508	1588.7666	1657.6963	2358.994	3028.206	3096.6991	3541.4027	3640.2426	3681.9995
NC1=NNN=C1CC#N	Nc1n[nH]nc1CC#N	
InChI=1S/C4H5N5/c5-2-1-3-4(6)8-9-7-3/h1H2,(H3,6,7,8,9)	InChI=1S/C4H5N5/c5-2-1-3-4(6)8-9-7-3/h1H2,(H3,6,7,8,9)
