21
gdb 117234	3.85495	0.80309	0.77139	1.6232	81.73	-0.2628	0.0162	0.279	1619.2852	0.180997	-424.263131	-424.253048	-424.252103	-424.299042	36.158	
C	-0.1330131619	 1.4254185311	 0.5437048834	-0.39107
C	-0.0153986543	 0.0319492003	-0.0436021961	-0.041894
O	-1.3146541208	-0.5846403291	 0.0355858979	-0.251419
C	-1.4044335667	-1.8334571838	-0.4699144977	 0.45757
O	-0.4667011451	-2.4181496764	-0.9643533689	-0.381631
C	-2.7863429918	-2.3562049944	-0.3302733273	-0.150171
C	-3.241956385	-3.4402059009	-1.2910469946	-0.286487
C	-3.0295859263	-3.7931232739	 0.1447079781	 0.014833
C	-1.910538584	-4.708725772	 0.5867179735	-0.419781
H	 0.8375606941	 1.9288496982	 0.5039738878	 0.121976
H	-0.8557648216	 2.0254773729	-0.0163853959	 0.128919
H	-0.457060073	 1.3834892198	 1.5874492883	 0.128889
H	 0.3051262088	 0.0528455257	-1.0899851463	 0.121508
H	 0.7044625543	-0.5844358887	 0.5044510872	 0.119875
H	-3.5094044488	-1.6154302213	-0.0129196138	 0.09938
H	-4.2502654808	-3.3691549074	-1.6829128932	 0.114838
H	-2.4902895202	-3.7730548525	-1.9989261515	 0.137152
H	-3.9359084222	-3.8790467337	 0.7390286031	 0.092859
H	-1.0102285825	-4.5479725818	-0.008343792	 0.155745
H	-1.6582475029	-4.5427804375	 1.6398395204	 0.114059
H	-2.2163592393	-5.7552247445	 0.4793743676	 0.114848
38.5595	72.9204	128.9143	139.0225	190.7109	227.557	252.1624	278.9344	346.0346	366.7172	425.8954	437.5818	686.3266	743.4188	794.2339	809.3794	843.3781	878.1564	881.5551	929.9365	961.8408	1020.1825	1065.2681	1077.7139	1100.421	1122.6583	1139.2507	1149.5783	1183.4554	1193.726	1218.7254	1235.5054	1291.3279	1381.1381	1395.55	1413.4886	1424.1441	1436.2653	1479.4461	1486.3598	1496.3064	1501.2776	1505.4834	1520.5608	1791.8078	3034.4609	3045.7748	3050.3804	3087.7015	3089.6478	3119.9012	3125.5105	3130.2337	3135.6529	3148.2632	3190.1792	3228.0267
CCOC(=O)C1CC1C	CCOC(=O)[C@H]1C[C@H]1C	
InChI=1S/C7H12O2/c1-3-9-7(8)6-4-5(6)2/h5-6H,3-4H2,1-2H3	InChI=1S/C7H12O2/c1-3-9-7(8)6-4-5(6)2/h5-6H,3-4H2,1-2H3/t5-,6+/m1/s1
