14
gdb 32058	3.77351	1.15688	0.89415	5.1656	67.76	-0.2598	-0.0766	0.1832	1202.9519	0.100907	-473.869796	-473.861975	-473.861031	-473.902809	28.221	
O	 0.5741634298	 0.5942782151	-0.8375826367	-0.395388
C	-0.1138606124	 0.2827425261	 0.3501436123	-0.16115
C	-1.4655153223	-0.3407120989	 0.1090284479	 0.363924
C	-1.9530035353	-0.7428802031	-1.0902094873	-0.255961
C	-3.2587849044	-1.3054000517	-1.0740893899	 0.044911
N	-3.9951106914	-1.4598331954	-0.010934032	-0.321915
C	-3.4992696678	-1.0642351301	 1.2099365543	 0.443104
O	-4.0376784375	-1.1466252698	 2.2697914619	-0.321254
O	-2.1797831903	-0.4756568562	 1.2233044369	-0.248071
H	 0.1636442715	 1.3715028427	-1.2305588344	 0.296835
H	 0.5053009496	-0.4371440446	 0.8989880969	 0.157645
H	-0.2456315148	 1.1494401857	 1.014340121	 0.13494
H	-1.3651040419	-0.6481049713	-1.9903696948	 0.128632
H	-3.7014611128	-1.6407233885	-2.0126444759	 0.133747
74.1679	109.5441	170.1531	196.8076	320.2845	366.7608	427.064	516.2165	563.1483	596.8835	638.1137	746.3099	793.1834	802.1335	839.8494	950.3881	984.4899	1021.464	1033.008	1091.8452	1114.2376	1208.4906	1237.4236	1354.3184	1398.8796	1415.386	1423.96	1473.0025	1579.8115	1684.509	1885.9467	3007.5894	3064.6733	3129.2795	3254.6273	3818.9953
OCC1=CC=NC(=O)O1	OCc1ccnc(=O)o1	
InChI=1S/C5H5NO3/c7-3-4-1-2-6-5(8)9-4/h1-2,7H,3H2	InChI=1S/C5H5NO3/c7-3-4-1-2-6-5(8)9-4/h1-2,7H,3H2
