15
gdb 8866	3.8982	1.28687	1.08393	4.177	63.57	-0.2794	-0.0864	0.1931	1086.2459	0.115517	-399.802599	-399.79344	-399.792496	-399.837178	30.602	
C	 0.0344713476	 1.4194720655	 0.0292394864	-0.241787
O	-0.0971130384	 0.0152086648	-0.0598985491	-0.227905
C	 0.5870501188	-0.5675521709	-1.1312948734	 0.02478
C	 2.0944524435	-0.7459428289	-0.8676911601	-0.428011
C	-0.0655427125	-1.9214911021	-1.3992686579	 0.293294
O	-0.9157621274	-2.4356483175	-0.726974452	-0.246014
C	 0.4463230834	-2.6024770583	-2.6142823003	 0.220003
N	 0.8371786174	-3.1233015424	-3.5699084125	-0.304729
H	 1.0638215995	 1.7329942953	 0.2522899846	 0.115112
H	-0.2889743799	 1.914267595	-0.8989451212	 0.113926
H	-0.6130953553	 1.742707948	 0.8465529256	 0.143581
H	 0.4568559033	 0.0256824921	-2.0555360734	 0.101962
H	 2.5686997125	 0.2299864112	-0.7417051686	 0.137289
H	 2.2453252052	-1.3294236165	 0.0444973757	 0.146876
H	 2.5860749322	-1.2520314552	-1.7027715138	 0.151624
50.2248	70.3389	130.7636	181.0303	204.5608	236.3476	247.4291	312.6386	391.2698	408.4303	483.9078	602.2762	715.0652	799.144	873.6475	1024.5194	1044.9962	1082.0554	1129.1048	1175.3434	1181.039	1233.6993	1313.8771	1378.3495	1401.5491	1479.5199	1483.9587	1493.618	1501.1077	1510.1207	1817.2571	2335.959	2939.3936	2986.3031	3039.4674	3053.0191	3128.1965	3131.7667	3134.932
COC(C)C(=O)C#N	CO[C@@H](C)C(=O)C#N	
InChI=1S/C5H7NO2/c1-4(8-2)5(7)3-6/h4H,1-2H3	InChI=1S/C5H7NO2/c1-4(8-2)5(7)3-6/h4H,1-2H3/t4-/m0/s1
