19
gdb 92822	2.85446	1.66188	1.23383	1.6293	81.95	-0.2342	0.0188	0.253	1043.3136	0.16136	-385.906025	-385.898559	-385.897615	-385.937678	30.306	
O	 0.1357587822	 1.4153364091	 0.0125176274	-0.429186
C	 0.0848657683	-0.0008734207	 0.0064461877	 0.102092
C	 0.5773943563	-0.6040025324	 1.3579512572	-0.271786
C	-0.7025388899	-0.6963402408	 2.1715162481	-0.237608
C	-1.7657960298	-0.679018649	 1.3701780666	 0.331515
C	-3.2438132986	-0.4335145119	 1.5176512093	-0.378193
C	-3.5197023961	 0.3435312903	 0.2346411967	-0.075324
C	-2.5001574606	 0.2987245377	-0.6295131934	-0.085315
C	-1.3663129934	-0.5436891564	-0.0902482066	-0.127279
H	-0.4789818574	 1.7190643298	 0.6912115193	 0.278544
H	 0.7102854878	-0.3060583151	-0.8366404962	 0.078746
H	 1.0438127886	-1.5879870829	 1.2067913939	 0.103484
H	 1.3355123416	 0.0437100733	 1.8107825144	 0.108084
H	-0.7179018143	-0.7201585192	 3.255649818	 0.089675
H	-3.8336576321	-1.3626813346	 1.5408124229	 0.117361
H	-3.5018025601	 0.1191077195	 2.4284124911	 0.114175
H	-4.4668070297	 0.8418297709	 0.057566061	 0.095574
H	-2.4935093439	 0.7546777923	-1.6124292501	 0.101253
H	-1.3401404487	-1.5205571099	-0.6014197674	 0.084187
113.0726	171.0558	256.3229	331.6899	349.2119	387.2151	418.9621	489.0245	633.0373	663.8801	707.4354	783.4098	804.0192	819.2499	859.9885	871.2519	918.2622	941.1481	950.0857	969.8555	984.051	1000.4524	1051.3828	1088.031	1126.6141	1140.4372	1164.2449	1179.3334	1230.143	1235.2618	1260.8793	1272.0606	1308.5973	1324.7265	1338.0953	1372.0771	1436.2319	1473.2085	1476.9559	1657.4583	1730.5585	2959.7218	2991.363	3008.069	3053.6324	3072.6075	3081.3912	3184.7719	3190.0655	3212.779	3785.4749
OC1CC=C2CC=CC12	O[C@H]1CC=C2CC=C[C@@H]12	
InChI=1S/C8H10O/c9-8-5-4-6-2-1-3-7(6)8/h1,3-4,7-9H,2,5H2	InChI=1S/C8H10O/c9-8-5-4-6-2-1-3-7(6)8/h1,3-4,7-9H,2,5H2/t7-,8+/m1/s1
