23
gdb 96075	2.55326	1.47332	1.10327	1.2965	85.66	-0.2348	0.0811	0.316	1211.9256	0.206269	-388.295757	-388.286787	-388.285843	-388.328758	35.708	
C	-0.0100281864	 1.5825922301	-0.02489991	-0.393907
C	 0.0472213603	 0.0514417193	 0.0096677387	 0.009272
C	 0.6149367368	-0.545708064	-1.2894095599	-0.216175
C	 0.9109776738	-2.0304907275	-1.1002632238	-0.08267
O	 1.9414840527	-2.2293042264	-0.1445745993	-0.297698
C	 1.6873040768	-1.6884381808	 1.1321836434	 0.405534
C	 1.6740815018	-2.7561307254	 2.1991946836	-0.446774
C	 2.3015402526	-0.3347115452	 1.3945191817	-0.335089
C	 0.7974890001	-0.4719716148	 1.2292377876	-0.074253
H	 0.9956881627	 2.0087450029	-0.1058620376	 0.116495
H	-0.5959739487	 1.935745253	-0.8806015452	 0.107675
H	-0.468610509	 1.9830082552	 0.8854336229	 0.110029
H	-0.9835727114	-0.3218274557	 0.1008857075	 0.070512
H	-0.098618467	-0.4010601514	-2.1090026629	 0.093143
H	 1.5434229361	-0.037080545	-1.5785981612	 0.10162
H	-0.0079060194	-2.563109866	-0.8017686781	 0.082853
H	 1.2766102909	-2.4876482844	-2.0244295752	 0.102415
H	 2.6178507437	-3.311495458	 2.1918064388	 0.12441
H	 1.5411223191	-2.3179197667	 3.1929455278	 0.109703
H	 0.8614393736	-3.4706162429	 2.027494951	 0.115382
H	 2.6896578462	-0.1100125129	 2.382514837	 0.103779
H	 2.8723331144	 0.0915161589	 0.5765693341	 0.113137
H	 0.2324917504	-0.3899648324	 2.1550915389	 0.080607
107.8446	150.8564	228.8594	231.8144	245.2578	280.108	347.3066	358.5186	404.2265	426.5078	498.3497	548.6572	610.8904	707.589	748.8966	842.2114	868.4111	889.0684	926.6855	942.1014	971.8153	1005.0876	1018.7888	1022.8992	1050.5507	1077.9368	1112.1612	1128.987	1134.4937	1148.2805	1207.95	1222.2263	1265.1052	1286.5265	1293.1183	1337.6441	1366.2842	1378.0133	1404.1862	1407.9327	1411.5224	1423.813	1478.3186	1480.8492	1486.7835	1495.8459	1498.9125	1500.3758	1504.8368	2962.4246	2988.9882	3024.9605	3028.6411	3029.7762	3069.7292	3082.0259	3095.2627	3095.4143	3099.4275	3108.5068	3124.5766	3129.3792	3217.0017
CC1CCOC2(C)CC12	C[C@H]1CCO[C@@]2(C)C[C@@H]12	
InChI=1S/C8H14O/c1-6-3-4-9-8(2)5-7(6)8/h6-7H,3-5H2,1-2H3	InChI=1S/C8H14O/c1-6-3-4-9-8(2)5-7(6)8/h6-7H,3-5H2,1-2H3/t6-,7-,8-/m0/s1
