18
gdb 133671	2.5307	1.23104	1.01301	2.0698	64.42	-0.2903	0.0866	0.3768	1205.236	0.143306	-533.457959	-533.448891	-533.447947	-533.492278	33.468	
C	-0.1758543881	 1.6966953752	 0.0998258137	-0.411642
C	 0.0310810442	 0.1757858836	 0.066200064	-0.151419
C	 0.8239315619	-0.3197988155	 1.2614968473	 0.032917
C	 1.5905083592	-1.615011995	 1.1986775593	-0.267364
C	 2.3316983189	-0.30232336	 1.2227330968	-0.286152
C	-1.3105049491	-0.5436045541	-0.0216324751	 0.292563
F	-2.0312439482	-0.1195600687	-1.0751434199	-0.08589
F	-1.1616103849	-1.8707557442	-0.1575307155	-0.078923
F	-2.0566903091	-0.3362670489	 1.0782323418	-0.090346
H	 0.7933289288	 2.2005605004	 0.1267972079	 0.124934
H	-0.7254170942	 2.0433969266	-0.7782688372	 0.1307
H	-0.736948118	 1.9905787341	 0.9919554189	 0.131648
H	 0.5657873164	-0.0962752037	-0.8522865391	 0.098083
H	 0.3666170195	-0.0786589577	 2.2169742368	 0.095952
H	 1.6126259882	-2.238829354	 2.0849060481	 0.11725
H	 1.5664547141	-2.1698561659	 0.2676692922	 0.119204
H	 2.8116336506	 0.0252192274	 0.3059301415	 0.11254
H	 2.8642524499	-0.0232643997	 2.1248111483	 0.115946
57.852	92.5133	159.751	223.229	224.6892	255.6644	313.1562	360.7056	400.1658	473.7595	543.441	577.0429	663.2646	762.7328	807.1901	834.5683	844.9867	938.6403	952.3465	992.5428	1048.6597	1062.5854	1081.5269	1096.2556	1139.3424	1157.3564	1195.9506	1206.4843	1223.8017	1229.0875	1278.1274	1306.4375	1370.611	1409.1307	1424.1786	1474.2991	1496.0823	1505.4968	1511.0891	3040.476	3050.6839	3122.5522	3131.6203	3132.2896	3141.7623	3148.9285	3211.9875	3229.1378
CC(C1CC1)C(F)(F)F	C[C@@H](C1CC1)C(F)(F)F	
InChI=1S/C6H9F3/c1-4(5-2-3-5)6(7,8)9/h4-5H,2-3H2,1H3	InChI=1S/C6H9F3/c1-4(5-2-3-5)6(7,8)9/h4-5H,2-3H2,1H3/t4-/m0/s1
