12
gdb 133211	3.16315	1.46655	1.00825	5.0565	60.24	-0.2927	-0.1069	0.1859	1057.7836	0.075518	-513.91659	-513.909112	-513.908168	-513.94912	26.81	
C	-0.0344934044	 1.5330962451	 0.0496698092	-0.483561
C	-0.0110170123	 0.0376850326	-0.00225908	 0.219096
N	-0.0496416472	-0.5524482748	-1.1489935905	-0.07617
O	-0.0266744281	-1.9226991959	-1.1624179511	-0.248426
C	 0.0365606338	-2.7131265208	 0.0052557217	 0.487642
O	 0.0507862339	-3.8939374099	-0.1380571478	-0.305523
N	 0.0770581051	-2.0463532084	 1.2269087778	-0.369502
C	 0.0539172999	-0.7779786187	 1.1956893824	 0.326859
F	 0.0910022957	-0.1137701167	 2.3346108879	-0.031357
H	 0.8622896632	 1.9169155424	 0.546298416	 0.158075
H	-0.084283343	 1.9317601335	-0.9641266556	 0.164788
H	-0.8987171867	 1.8866779417	 0.6208785601	 0.158077
63.4558	167.3806	198.7985	269.492	309.3136	393.868	418.1521	488.0069	548.5742	591.2834	706.7656	753.9916	780.3976	782.8378	851.8443	987.0858	1044.4423	1061.4411	1172.4338	1252.4753	1403.4262	1415.2826	1471.1521	1474.2588	1615.691	1721.1188	1894.8066	3047.9507	3107.4574	3155.5884
CC1=NOC(=O)N=C1F	Cc1noc(=O)nc1F	
InChI=1S/C4H3FN2O2/c1-2-3(5)6-4(8)9-7-2/h1H3	InChI=1S/C4H3FN2O2/c1-2-3(5)6-4(8)9-7-2/h1H3
