21
gdb 86319	1.94881	1.61408	0.99326	3.5587	80.3	-0.2335	0.0469	0.2805	1258.443	0.182233	-420.449469	-420.4396	-420.438656	-420.484305	36.654	
C	-0.5389041073	 1.1722892797	 1.1608028051	-0.405504
C	 0.1112249883	-0.066792849	 0.5632925396	 0.064426
C	 0.5619934248	 0.0098860919	-0.9217240664	-0.289296
C	 1.96355931	-0.4896854076	-0.47184269	 0.088491
C	 3.1920241923	 0.303297996	-0.8816775344	-0.403295
N	 1.52787868	-0.3108868995	 0.9283771415	-0.128458
C	 2.0308288182	-1.0858905928	 1.9501958036	 0.398295
N	 1.2408724765	-1.1230495791	 3.0917488169	-0.55702
O	 3.0738760718	-1.7081631697	 1.8479178472	-0.396225
H	 0.0929494141	 2.0525797567	 1.0092526833	 0.125045
H	-1.5083815691	 1.352993469	 0.6838193696	 0.12412
H	-0.7246307719	 1.0648983238	 2.2357583382	 0.110994
H	-0.5105380197	-0.9492231878	 0.7652271731	 0.088056
H	 0.0217011724	-0.6278238174	-1.6217509188	 0.110117
H	 0.5758200864	 1.0336895063	-1.3051950938	 0.104665
H	 2.1199311221	-1.5525759128	-0.6927547586	 0.090515
H	 3.0624455509	 1.367594375	-0.6596455056	 0.10814
H	 4.0678752503	-0.0616447471	-0.3391640171	 0.146764
H	 3.3779670307	 0.1924412436	-1.9556720556	 0.111566
H	 0.6774074565	-0.3122743386	 3.296756357	 0.250224
H	 1.7300293828	-1.5016720206	 3.8888163652	 0.25838
65.7033	84.6877	131.8916	163.0072	231.3632	233.8117	291.8888	331.7571	402.3554	420.883	431.3719	475.8868	549.7898	567.2133	654.7472	731.5374	785.0705	838.4512	892.1684	908.1623	965.5409	971.7442	1064.8507	1089.3267	1098.9819	1133.3987	1159.4288	1170.3485	1193.5946	1219.1693	1257.1606	1281.5817	1317.2997	1370.1973	1390.009	1403.0677	1414.1784	1426.4113	1483.3928	1487.9529	1491.0413	1493.1451	1503.2692	1620.9621	1782.9823	3012.1368	3028.0278	3031.1682	3033.6563	3069.9681	3090.6634	3102.8449	3112.6244	3125.0643	3134.1349	3577.4814	3692.3484
CC1CC(C)N1C(N)=O	C[C@H]1C[C@@H](C)N1C(=O)N	
InChI=1S/C6H12N2O/c1-4-3-5(2)8(4)6(7)9/h4-5H,3H2,1-2H3,(H2,7,9)	InChI=1S/C6H12N2O/c1-4-3-5(2)8(4)6(7)9/h4-5H,3H2,1-2H3,(H2,7,9)/t4-,5+
