19
gdb 114217	2.67161	1.2614	1.02684	2.8506	71.9	-0.2333	0.0524	0.2857	1214.6406	0.157746	-460.115937	-460.106817	-460.105873	-460.15007	34.189	
O	-0.0704285505	 1.1988516575	-0.7146902154	-0.426552
C	 0.0113329569	-0.150626078	-0.2957637147	-0.063043
C	-1.3059817268	-0.579535568	 0.3299856673	 0.061577
O	-2.3926917269	-0.3806649569	-0.6242854268	-0.334634
C	-2.5793555668	-1.7951744522	-0.7448631891	 0.452984
C	-3.8862457539	-2.4092068877	-1.1078348176	-0.346387
C	-2.6989744818	-2.4910881466	-2.0588252613	-0.320881
C	-1.6076933531	-2.1040880193	 0.3826989939	-0.05287
O	-0.5891663862	-3.007685667	 0.02475204	-0.418755
H	-0.8726621389	 1.2545665911	-1.249119481	 0.29029
H	 0.2604798803	-0.8243282155	-1.1271960759	 0.102564
H	 0.821185399	-0.212722285	 0.4398173536	 0.100229
H	-1.503527198	-0.0131816374	 1.2468450319	 0.081006
H	-4.2010029488	-3.3061702337	-0.5837034457	 0.117208
H	-4.6899856935	-1.730181027	-1.3716107378	 0.126154
H	-2.7279351284	-1.8679617789	-2.9461686016	 0.122653
H	-2.1830967533	-3.437897929	-2.1736881671	 0.131783
H	-2.1026988867	-2.4088775895	 1.3127670617	 0.084458
H	-0.1234358625	-3.2778278869	 0.8218230554	 0.292216
56.956	103.7283	166.7263	203.6518	228.1047	258.9261	301.3122	384.1487	436.1262	465.0178	523.9561	559.1499	644.277	758.7878	809.8427	837.9409	881.0712	890.8978	925.6291	978.8536	993.336	1038.3708	1048.5993	1066.7442	1082.1799	1116.1176	1152.9568	1187.5092	1208.3284	1217.2145	1228.7483	1266.0292	1299.8563	1338.1659	1369.6661	1400.9263	1436.6444	1447.5391	1451.1156	1499.6597	1503.1677	3012.1477	3023.5644	3049.2163	3074.263	3127.3541	3135.9221	3213.214	3230.4028	3778.518	3829.6978
OCC1OC2(CC2)C1O	OC[C@H]1OC2(CC2)[C@H]1O	
InChI=1S/C6H10O3/c7-3-4-5(8)6(9-4)1-2-6/h4-5,7-8H,1-3H2	InChI=1S/C6H10O3/c7-3-4-5(8)6(9-4)1-2-6/h4-5,7-8H,1-3H2/t4-,5+/m1/s1
