27
gdb 57483	2.68237	1.10148	0.98017	0.0557	94.95	-0.2958	0.073	0.3688	1418.5682	0.252467	-353.585847	-353.575451	-353.574506	-353.62127	40.497	
C	-0.0805964233	 1.5844710741	 0.1983967506	-0.41097
C	-0.0196356145	 0.0538279514	 0.0316425719	 0.238193
C	 0.7030925542	-0.5537391123	 1.2506384271	-0.404648
C	-1.4597548252	-0.4957434065	-0.0033570929	-0.405554
C	 0.7243127527	-0.3793502144	-1.2632999165	 0.07425
C	 0.116256882	 0.0859671739	-2.6060839719	-0.232061
C	 1.2566444577	-0.1262531456	-3.6104761262	-0.201182
C	 2.4961560472	 0.3775106621	-2.8488220544	-0.202533
C	 2.2295116905	 0.0245916848	-1.3601176769	-0.232483
H	 0.9154164669	 2.036478641	 0.2354728885	 0.110433
H	-0.6367457999	 2.062811556	-0.6135278489	 0.11106
H	-0.5879762937	 1.8409238231	 1.1348854373	 0.107769
H	 0.170114393	-0.3145878938	 2.1775823703	 0.104158
H	 0.7595648905	-1.6454619827	 1.1716365329	 0.104774
H	 1.7242865299	-0.1725741247	 1.3483948337	 0.111212
H	-2.0404728758	-0.0584270255	-0.8213486491	 0.11106
H	-1.4650420187	-1.5840762055	-0.1324032592	 0.104594
H	-1.9841261043	-0.2695819356	 0.9317356665	 0.10408
H	 0.6859871999	-1.47810569	-1.2722810271	 0.061087
H	-0.7937467215	-0.4591977607	-2.8714628895	 0.09158
H	-0.1419463297	 1.1516339965	-2.5675925155	 0.093981
H	 1.3573451699	-1.1958961375	-3.834363812	 0.092978
H	 1.0990490543	 0.3902027972	-4.5620775882	 0.088422
H	 3.4290799534	-0.0524721869	-3.22404796	 0.09134
H	 2.5798939366	 1.4638060464	-2.9667367099	 0.095747
H	 2.4631130815	 0.8768018117	-0.7159730095	 0.096697
H	 2.8689649665	-0.7964887867	-1.0237179912	 0.096014
29.7376	87.1304	196.1576	216.8566	226.4958	255.891	268.5847	299.0063	326.6071	345.7438	379.6279	445.7725	504.1756	537.6856	598.54	737.962	801.3506	840.3164	867.0737	907.2534	929.5165	933.0776	937.3052	956.661	963.3467	980.6618	1019.6666	1031.2938	1036.7317	1054.4057	1101.328	1156.8887	1192.3362	1228.832	1239.9244	1242.6086	1267.2941	1276.692	1302.9515	1327.4057	1333.7543	1347.4782	1353.6701	1379.4484	1398.5353	1400.0719	1432.0516	1479.1429	1485.0509	1486.6729	1489.842	1492.0754	1495.8704	1507.0052	1508.2789	1517.7852	1518.8822	2988.2676	3021.6587	3024.4697	3025.3259	3031.0295	3035.8313	3036.811	3054.58	3077.2611	3082.5012	3085.2715	3087.6686	3089.8838	3094.615	3099.1835	3100.1721	3102.4714	3106.6498	29.7388	87.1301	196.1575	216.8559	226.4958	255.8904	268.5845	299.0062	326.607	345.7438	379.6278	445.7724	504.1756	537.6855	598.54	737.962	801.3506	840.3163	867.0737	907.2534	929.5165	933.0777	937.3052	956.6611	963.3468	980.6619	1019.6666	1031.294	1036.7318	1054.4058	1101.3281	1156.8888	1192.3363	1228.832	1239.9245	1242.6087	1267.2941	1276.6921	1302.9514	1327.4058	1333.7543	1347.4782	1353.6702	1379.4485	1398.5355	1400.0721	1432.0518	1479.1431	1485.0512	1486.6731	1489.8419	1492.0756	1495.8704	1507.0055	1508.2792	1517.7852	1518.8824	2988.2676	3021.6586	3024.4697	3025.3259	3031.0295	3035.8313	3036.811	3054.58	3077.2611	3082.5012	3085.2715	3087.6686	3089.8838	3094.615	3099.1835	3100.1721	3102.4714	3106.6498
CC(C)(C)C1CCCC1	CC(C)(C)C1CCCC1	
InChI=1S/C9H18/c1-9(2,3)8-6-4-5-7-8/h8H,4-7H2,1-3H3	InChI=1S/C9H18/c1-9(2,3)8-6-4-5-7-8/h8H,4-7H2,1-3H3
