17
gdb 102047	1.78764	1.45246	0.95976	2.3328	66.63	-0.2529	-0.0355	0.2174	1277.9157	0.131456	-496.114642	-496.104034	-496.10309	-496.152893	34.323	
C	-0.6757020085	 0.4752575588	 0.5449329231	-0.244803
O	 0.5382778066	-0.2283173034	 0.3314857939	-0.252286
C	 0.9119670007	-0.3526040696	-1.0240578939	-0.069651
C	 2.3987326802	-0.6999355545	-1.0460328776	 0.151543
O	 3.0828154437	-0.605368062	-2.0283292481	-0.248145
C	 0.0537782398	-1.4344363598	-1.7021792525	 0.442376
O	-0.9992515382	-1.2215580095	-2.2454326863	-0.358875
O	 0.5974499448	-2.649170629	-1.5382349614	-0.222455
C	-0.1615088008	-3.7479623452	-2.0675943406	-0.243449
H	-0.6185202057	 1.4943989326	 0.1361938082	 0.117677
H	-1.5325785766	-0.0350831105	 0.0894568593	 0.136159
H	-0.8163846722	 0.5288299932	 1.6263523609	 0.134748
H	 0.7515390853	 0.5808821146	-1.5808743898	 0.117768
H	 2.7882541303	-1.0357002919	-0.0621886215	 0.101692
H	 0.4325690312	-4.6392088793	-1.8691474541	 0.142567
H	-1.1325477006	-3.8134350268	-1.5710089383	 0.144997
H	-0.3185272399	-3.6194950876	-3.1408844711	 0.150136
12.6203	62.3323	92.5974	114.4486	131.7595	166.313	192.9951	214.6156	266.5329	321.1561	392.0735	472.6263	552.8922	635.3037	793.4238	857.5412	958.1365	997.3264	1060.3448	1081.101	1142.0279	1178.2523	1187.2856	1209.2293	1219.9058	1262.5361	1297.0374	1333.4898	1400.8067	1472.3398	1479.3709	1482.3667	1488.5449	1494.4805	1511.2729	1818.6791	1845.6592	2921.0187	2999.8323	3023.666	3057.1788	3067.9466	3130.0666	3134.929	3168.6301
COC(C=O)C(=O)OC	CO[C@@H](C=O)C(=O)OC	
InChI=1S/C5H8O4/c1-8-4(3-6)5(7)9-2/h3-4H,1-2H3	InChI=1S/C5H8O4/c1-8-4(3-6)5(7)9-2/h3-4H,1-2H3/t4-/m0/s1
