19
gdb 45791	2.5075	1.79941	1.28485	2.8028	79.87	-0.232	-0.0105	0.2215	1022.2005	0.161582	-385.905251	-385.897817	-385.896873	-385.937258	29.732	
O	 0.1142762054	-0.0303827094	-0.4056868657	-0.316619
C	 0.0161505213	 1.1327833377	-0.0849248665	 0.387744
C	-1.3537127805	 1.6835173555	 0.3345140901	-0.363907
C	-1.4490114162	 2.7593572115	 1.3892462528	-0.06145
C	-0.526011651	 3.6536680191	 1.7463949105	-0.069177
C	 0.86011619	 3.7726826622	 1.1715135345	-0.048415
C	 0.9190977364	 3.55259108	-0.3703386334	-0.248939
C	 1.2246185254	 2.0479454146	-0.1212760301	-0.097794
C	 1.6893399112	 2.456468163	 1.3179627249	-0.230042
H	-1.8239553088	 2.0481361799	-0.593963203	 0.14067
H	-1.9484873791	 0.812801195	 0.6259878739	 0.132636
H	-2.4101677058	 2.789212505	 1.8976095814	 0.096087
H	-0.7801180752	 4.3554214939	 2.5369217053	 0.087958
H	 1.3427931435	 4.6792892839	 1.5414634126	 0.068713
H	 0.0309729446	 3.8130730505	-0.9507702004	 0.104991
H	 1.7866918569	 4.0495264807	-0.8112448835	 0.107745
H	 1.9746549867	 1.5686618568	-0.7516273199	 0.088248
H	 2.7653571911	 2.6478983072	 1.326541968	 0.10904
H	 1.4347933443	 1.7928876728	 2.1466949485	 0.112509
64.5857	172.3266	276.2265	298.8431	354.6288	428.1556	466.9099	510.0348	591.9113	664.205	713.0088	795.4043	803.8266	816.8114	855.0839	910.0106	938.6135	952.5671	961.2135	999.7582	1011.3941	1051.4937	1078.1035	1087.3301	1141.2648	1169.5384	1193.4367	1234.5628	1253.3277	1256.0689	1264.5067	1284.7225	1334.4456	1349.5618	1369.4817	1420.0652	1443.0603	1473.3571	1496.4721	1722.5322	1796.7987	2982.6588	3060.9553	3062.95	3082.1719	3082.9716	3102.9447	3117.2205	3123.3511	3140.7783	3164.5777
O=C1CC=CC2CC1C2	O=C1CC=C[C@@H]2C[C@H]1C2	
InChI=1S/C8H10O/c9-8-3-1-2-6-4-7(8)5-6/h1-2,6-7H,3-5H2	InChI=1S/C8H10O/c9-8-3-1-2-6-4-7(8)5-6/h1-2,6-7H,3-5H2/t6-,7+
