18
gdb 36529	4.01719	0.97556	0.83058	4.4649	72.41	-0.2769	0.032	0.3089	1346.2791	0.149207	-439.10412	-439.095948	-439.095004	-439.137426	30.377	
N	-0.012262036	-1.1949232363	 0.0975128231	-0.304193
C	-0.004639017	-0.0399549167	 0.1083816259	 0.271288
C	 0.0025013079	 1.4214930219	 0.0960117479	-0.363145
C	 1.4179074718	 2.007075904	 0.0375020241	 0.127902
C	 1.4210041393	 3.5319796032	-0.1212218091	-0.221887
C	 2.8574405093	 4.0378918758	 0.0491219901	-0.096793
O	 3.4128708931	 3.5554433624	 1.2643873095	-0.229092
C	 3.3740641204	 2.1563491481	 1.3149406299	 0.014968
O	 2.0631019927	 1.6482000434	 1.2512413915	-0.247444
H	-0.5745370336	 1.7701316372	-0.7673452679	 0.15129
H	-0.4963526099	 1.7898115158	 0.9987864291	 0.162733
H	 1.9603625882	 1.5545213736	-0.8101636966	 0.0873
H	 1.0276842201	 3.820962844	-1.1022627403	 0.104476
H	 0.7844947644	 3.9771192978	 0.6515913833	 0.117115
H	 3.4758413717	 3.7086284201	-0.8033274141	 0.094838
H	 2.8976911565	 5.1285913887	 0.0962418107	 0.12004
H	 3.9755867267	 1.7309663505	 0.4888918567	 0.08293
H	 3.7845372844	 1.8535086665	 2.2792688361	 0.127675
67.6831	99.4185	174.9697	259.4424	297.1973	370.2769	387.5082	400.4314	486.3399	497.0097	569.7833	679.5168	823.3384	870.7646	912.9503	940.7548	947.7184	1000.1212	1054.5028	1068.1052	1079.1187	1115.5425	1158.339	1192.4849	1231.6661	1251.8575	1272.9009	1306.1034	1330.2306	1355.5174	1382.4843	1399.2248	1405.1857	1447.8555	1451.3935	1469.8729	1497.7692	1510.2901	2368.0652	2924.2766	2961.0479	2969.1523	3039.1864	3052.4377	3089.3991	3097.8092	3101.8746	3125.4752
N#CCC1CCOCO1	N#CC[C@H]1CCOCO1	
InChI=1S/C6H9NO2/c7-3-1-6-2-4-8-5-9-6/h6H,1-2,4-5H2	InChI=1S/C6H9NO2/c7-3-1-6-2-4-8-5-9-6/h6H,1-2,4-5H2/t6-/m0/s1
