21
gdb 90884	2.35882	1.9265	1.41357	1.3334	80.77	-0.2468	0.0735	0.3203	1010.3326	0.183792	-387.075556	-387.067534	-387.06659	-387.107421	32.896	
C	 0.0459032841	 1.4966439437	 0.0304014907	-0.500278
C	-0.0076401652	-0.0170022008	 0.0291996435	 0.33298
C	 0.2666473731	-0.7418180311	-1.3358458628	-0.274332
C	-0.958875903	-1.6171431119	-1.0742572062	-0.065927
C	-0.9352811804	-2.1558334141	 0.3467696922	-0.035514
C	 0.3952438512	-2.1822512945	 1.0912416278	-0.29023
C	 0.8128170886	-0.6860023306	 1.1435599398	 0.105702
O	 2.1933709196	-0.4420032149	 0.9256085537	-0.443948
C	-1.3849973858	-0.7407168324	 0.0913563355	-0.13582
H	 1.0766740807	 1.8407162602	-0.1011721508	 0.131938
H	-0.5627285644	 1.9187468004	-0.775787338	 0.109534
H	-0.3243733692	 1.9036254274	 0.9793094323	 0.106979
H	 0.1014639174	-0.0631321896	-2.1768685625	 0.094254
H	 1.2417040966	-1.223979769	-1.4542909111	 0.10021
H	-1.5839649474	-2.0813257494	-1.8286675503	 0.07726
H	-1.6889868225	-2.9024856031	 0.5717048434	 0.078885
H	 0.285243171	-2.608905767	 2.0935480356	 0.090386
H	 1.1619486817	-2.76442222	 0.5674462988	 0.100639
H	 0.4990541078	-0.2535526084	 2.1087939196	 0.056496
H	 2.6904391024	-0.862060402	 1.6336130598	 0.283506
H	-2.3473835763	-0.3164582427	 0.347086739	 0.077278
126.9552	218.1322	241.8761	258.122	291.2467	315.7148	382.7301	448.6277	527.1989	550.485	628.3186	693.0955	742.5323	787.3209	811.6947	874.6557	880.1016	936.345	963.4648	979.0406	985.9621	1003.1944	1025.8562	1040.2056	1064.3768	1087.6992	1110.9417	1129.5609	1149.6295	1189.0555	1207.3441	1228.0115	1249.0716	1266.9227	1278.7395	1308.143	1319.4392	1362.9809	1398.6847	1408.2789	1428.4937	1487.7797	1491.705	1496.098	1507.9382	2951.8136	3023.4761	3035.0575	3050.4095	3076.2341	3086.7257	3100.3297	3105.7921	3165.5001	3173.3994	3195.4372	3827.4518
CC12CC3C(CC1O)C23	C[C@@]12C[C@H]3[C@@H](C[C@H]1O)[C@@H]23	
InChI=1S/C8H12O/c1-8-3-5-4(7(5)8)2-6(8)9/h4-7,9H,2-3H2,1H3	InChI=1S/C8H12O/c1-8-3-5-4(7(5)8)2-6(8)9/h4-7,9H,2-3H2,1H3/t4-,5+,6-,7-,8-/m1/s1
