18
gdb 116261	2.17395	1.55036	1.03097	3.8232	72.45	-0.2764	0.0325	0.3089	1175.5777	0.148101	-439.101711	-439.092761	-439.091817	-439.136062	31.55	
C	 0.5063243992	 1.2154258092	 0.2646962139	-0.245902
O	 0.5710298966	-0.1922721974	 0.1043003938	-0.242688
C	 0.4209517357	-0.6172083138	-1.2165660822	 0.229278
O	 1.4927020739	-0.24619675	-2.0447508298	-0.261421
C	 2.5562766642	-1.2063235528	-1.924226318	-0.090803
C	 1.9918506521	-2.4042473233	-1.134477334	-0.251161
C	 0.4665641405	-2.1601095491	-1.2192306584	-0.20209
C	-0.3169205192	-2.8029648855	-0.1734201646	 0.287509
N	-0.9432990667	-3.3400615954	 0.6352105526	-0.327459
H	 1.3070082448	 1.7183588788	-0.2895843405	 0.127621
H	-0.4624147935	 1.6083698879	-0.0767261021	 0.113844
H	 0.6165713871	 1.4173243094	 1.3314825036	 0.136124
H	-0.4873534108	-0.191946705	-1.6642208804	 0.089717
H	 2.8622627735	-1.4829751037	-2.9385266839	 0.115307
H	 3.4142152951	-0.7526143107	-1.4175803444	 0.118138
H	 2.2834823625	-3.3667549578	-1.5570096028	 0.125181
H	 2.3063228285	-2.3731112683	-0.0902908424	 0.144876
H	 0.0889950665	-2.4973400425	-2.1903366205	 0.133929
82.677	98.2282	120.7725	140.353	180.2372	204.1236	307.9198	380.0796	475.1627	538.8461	567.9535	659.5031	752.1722	843.8311	900.4057	934.7102	953.156	988.4506	1045.6	1068.2369	1075.8286	1112.2728	1146.5804	1181.6055	1202.7408	1220.6023	1236.8155	1292.6139	1308.935	1323.7766	1366.8572	1389.4033	1399.0699	1478.1009	1484.9964	1493.4466	1511.4018	1529.7076	2365.8464	2999.2576	3026.4002	3041.6714	3062.2096	3069.8108	3078.4377	3090.312	3135.3175	3142.4688
COC1OCCC1C#N	CO[C@H]1OCC[C@H]1C#N	
InChI=1S/C6H9NO2/c1-8-6-5(4-7)2-3-9-6/h5-6H,2-3H2,1H3	InChI=1S/C6H9NO2/c1-8-6-5(4-7)2-3-9-6/h5-6H,2-3H2,1H3/t5-,6-/m0/s1
