20
gdb 14558	3.10782	1.9531	1.54457	1.1003	74.77	-0.2374	0.0878	0.3252	928.8567	0.176363	-348.967256	-348.958943	-348.957998	-348.999465	31.67	
C	 0.1088926116	 1.1615643001	-0.3030215514	-0.248895
O	-0.0724129473	-0.1237158609	 0.2574896856	-0.282671
C	-1.3615139024	-0.654481089	 0.0932056282	 0.456616
C	-2.4389122938	 0.0406112771	 0.9034193429	-0.465429
C	-1.7827811118	-1.2290318254	-1.2343785934	-0.131347
C	-0.5866118305	-1.830813803	-1.9844334219	-0.234532
C	-0.2729640668	-2.7384671439	-0.7536476186	-0.229001
C	-1.4749007104	-2.1393482264	-0.0152243129	-0.126009
H	 1.1791830122	 1.3788654354	-0.2614774803	 0.123712
H	-0.2239223158	 1.1988724719	-1.3499704667	 0.109274
H	-0.4259895423	 1.9405242648	 0.2585729448	 0.107114
H	-2.5984042754	 1.0711037375	 0.5697969254	 0.11701
H	-3.3925456522	-0.4865220151	 0.8100230826	 0.120116
H	-2.160379642	 0.0636843523	 1.9618866203	 0.124298
H	-2.7404112679	-0.9820961721	-1.6802672526	 0.076812
H	-0.8942126379	-2.4117480499	-2.8565827233	 0.09944
H	 0.1955711403	-1.1300388025	-2.2892632986	 0.097898
H	-0.4049738405	-3.7990283622	-0.977689622	 0.097031
H	 0.6960126157	-2.5900049693	-0.272138514	 0.109073
H	-2.1591325927	-2.6926366395	 0.6190552858	 0.07949
116.7889	169.489	185.0914	209.9667	245.2396	279.6507	298.7072	382.2194	516.9845	541.6569	649.7401	770.0413	780.635	833.0424	844.8083	924.7546	946.7169	975.734	1001.129	1021.9068	1033.7475	1074.8148	1087.6394	1121.6205	1142.8243	1181.0921	1192.2601	1225.1851	1228.1757	1260.5778	1261.5426	1276.3908	1291.6184	1409.2035	1418.5867	1471.3737	1474.6674	1481.6549	1491.1109	1496.0604	1510.1792	1512.5643	2990.1318	3035.8545	3042.0431	3057.2213	3069.1031	3101.1399	3102.8769	3111.7618	3114.6725	3124.0901	3158.4348	3169.711
COC1(C)C2CCC12	CO[C@@]1(C)[C@H]2CC[C@@H]12	
InChI=1S/C7H12O/c1-7(8-2)5-3-4-6(5)7/h5-6H,3-4H2,1-2H3	InChI=1S/C7H12O/c1-7(8-2)5-3-4-6(5)7/h5-6H,3-4H2,1-2H3/t5-,6+,7-
