22
gdb 80393	2.15463	1.63171	1.32578	2.1142	82.12	-0.2251	0.0612	0.2863	1123.3776	0.19192	-404.313686	-404.303789	-404.302845	-404.347337	38.215	
C	-0.0831678072	 1.5724862329	-0.0408777821	-0.438569
C	 0.0524702998	 0.0756304158	 0.1422520089	-0.027088
N	 1.2252830517	-0.7330067923	-0.2673714607	-0.192492
C	 2.4448094422	 0.0686028139	 0.0974201217	-0.203928
C	 2.1066220396	 0.0275384179	 1.6040420987	 0.323926
C	 3.0484611578	-0.86014145	 2.4120828319	-0.450674
O	 2.0276283607	 1.3184835947	 2.193422554	-0.466993
C	 0.7815599994	-0.6651620236	 1.202011716	 0.270276
C	 0.168317413	-1.8356787775	 1.9208059809	-0.505587
H	 0.7098551704	 2.1398933726	 0.4418712155	 0.152365
H	-0.1099849828	 1.8203977389	-1.1083685979	 0.117952
H	-1.0331724581	 1.9006526833	 0.3947625485	 0.114742
H	-0.8484393076	-0.4538283818	-0.1682964166	 0.087266
H	 3.3486324485	-0.484204173	-0.1670293174	 0.104707
H	 2.4908011468	 1.0638530764	-0.3509553137	 0.110513
H	 4.02458321	-0.3728472302	 2.4937293069	 0.125916
H	 2.6628979497	-1.026530386	 3.4257749752	 0.106378
H	 3.1858498352	-1.8384936362	 1.943170957	 0.131042
H	 1.7758058608	 1.2143437747	 3.1176072342	 0.273903
H	-0.3494778584	-1.5084799607	 2.8311302251	 0.115168
H	-0.5676444925	-2.3312462685	 1.2812121718	 0.130597
H	 0.915209561	-2.5814297812	 2.2095603221	 0.120581
132.2507	149.6946	188.4644	208.2252	221.4429	240.4375	265.4809	295.8779	315.8514	388.5506	399.2525	439.8493	517.9363	571.6558	629.9283	659.5473	715.5435	827.0928	857.3372	919.5389	933.1764	951.8988	969.4808	1020.9965	1079.9683	1096.1518	1115.4999	1122.7702	1138.9063	1166.2781	1179.6453	1236.1361	1268.9123	1309.7957	1333.529	1374.5846	1402.9712	1409.8637	1413.9233	1453.9298	1482.2091	1484.8997	1489.5481	1498.0243	1498.428	1503.2242	1519.4844	3023.1946	3027.1819	3035.203	3065.1339	3088.2341	3089.168	3093.8988	3101.916	3112.3472	3116.6534	3120.5118	3171.6999	3799.6681
CC1N2CC(C)(O)C12C	C[C@H]1N2C[C@@](C)(O)[C@@]12C	
InChI=1S/C7H13NO/c1-5-7(3)6(2,9)4-8(5)7/h5,9H,4H2,1-3H3	InChI=1S/C7H13NO/c1-5-7(3)6(2,9)4-8(5)7/h5,9H,4H2,1-3H3/t5-,6-,7-,8?/m1/s1
