15
gdb 18868	3.92131	2.35036	1.96033	1.8734	67.15	-0.2103	-0.0421	0.1681	716.0185	0.118976	-362.529398	-362.522984	-362.52204	-362.559718	25.262	
O	 0.1226174187	 1.3669372757	-0.5929151123	-0.414915
C	 0.1147660505	 0.0481731504	-0.1421096581	 0.094973
C	-1.2623576709	-0.7153822307	-0.0579542472	-0.077651
C	-0.6298995773	-1.9732192919	-0.5171903394	-0.08115
N	-1.8072160239	-1.5220859169	-1.2283453971	-0.119074
C	-1.3294578088	-1.2602977559	-2.6172165059	-0.177122
C	 0.1049271676	-0.7922112649	-2.4134520245	-0.092955
C	 0.4624451554	-1.0832553583	-1.1468788103	-0.062824
H	 0.8421697648	 1.8397848416	-0.1661013246	 0.29316
H	 0.5807410971	-0.0366228564	 0.8496124741	 0.084624
H	-1.9769806686	-0.5734611269	 0.7461912268	 0.105184
H	-0.5419461743	-2.9399904928	-0.0377084079	 0.093575
H	-1.4976820421	-2.1825957005	-3.1874925363	 0.11789
H	-1.8994718732	-0.458791701	-3.1006924793	 0.123952
H	 0.4640413449	 0.0941683686	-2.9256179682	 0.112335
125.4473	179.316	298.7076	349.3051	488.3314	565.456	599.1373	680.0161	755.4315	782.5951	806.3395	844.7241	876.2146	895.5479	899.8168	933.339	972.6374	1008.1255	1046.2928	1066.5723	1135.1626	1170.3392	1196.5176	1202.5634	1221.5343	1255.9844	1283.8149	1290.9263	1323.7912	1431.9748	1471.4901	1575.8095	3001.2452	3024.0525	3072.4519	3169.8307	3185.2571	3195.1638	3843.3592
OC1C2C3N2CC=C13	O[C@H]1[C@@H]2[C@H]3N2C[CH][C]13	
InChI=1S/C6H7NO/c8-6-3-1-2-7-4(3)5(6)7/h1,4-6,8H,2H2	InChI=1S/C6H7NO/c8-6-3-1-2-7-4(3)5(6)7/h1,4-6,8H,2H2/t4-,5-,6+,7?/m0/s1
