16
gdb 128061	4.4254	1.04727	0.85158	1.8921	73.72	-0.2235	-0.0368	0.1867	1304.8468	0.124961	-434.06666	-434.057904	-434.05696	-434.101987	30.494	
C	-0.0784715752	 1.3998567643	 0.0498989527	-0.310009
N	-0.0737400646	-0.0338931133	-0.136287935	-0.30615
C	 0.6143048498	-0.6180453404	-1.1525244783	 0.289666
N	 1.2416681927	 0.0910397369	-2.0216267909	-0.55794
C	 0.558319031	-2.1066345696	-1.1482232402	 0.366957
N	-0.0557597607	-2.745782761	-0.176858957	-0.211879
O	 0.0714527859	-4.093804104	-0.4574712609	-0.165449
C	 0.7641760414	-4.2317743473	-1.5993857706	 0.086431
C	 1.1075544521	-3.0192936099	-2.0964486124	-0.359906
H	 0.9319749422	 1.7868668451	 0.2285558657	 0.134558
H	-0.4683928473	 1.9046916742	-0.839961058	 0.142422
H	-0.7120188188	 1.6421145617	 0.9053830908	 0.118852
H	-0.4883860823	-0.6357885708	 0.5539047728	 0.266141
H	 1.692067459	-0.4979074561	-2.7169051593	 0.211051
H	 0.9305560798	-5.2460163102	-1.9269556185	 0.160634
H	 1.6602477048	-2.8063103397	-2.995396201	 0.134624
21.7552	58.7402	112.0528	166.5238	225.9894	301.7824	337.7167	396.4565	480.4509	603.2881	626.0468	757.1327	779.1551	805.3084	809.6518	872.5772	922.0346	968.2604	978.8112	1022.5079	1087.3775	1155.8163	1160.9526	1184.3191	1193.1125	1258.1008	1349.3057	1450.6479	1455.679	1463.7115	1471.7263	1516.7211	1581.0965	1591.0019	1695.1418	3026.9631	3080.363	3131.446	3267.5222	3291.255	3524.8762	3668.1392
CNC(=N)C1=NOC=C1	CNC(=N)c1nocc1	
InChI=1S/C5H7N3O/c1-7-5(6)4-2-3-9-8-4/h2-3H,1H3,(H2,6,7)	InChI=1S/C5H7N3O/c1-7-5(6)4-2-3-9-8-4/h2-3H,1H3,(H2,6,7)
