18
gdb 115061	2.69874	1.18805	0.88475	1.7333	67.88	-0.254	0.0042	0.2582	1280.1833	0.148448	-476.221961	-476.213145	-476.2122	-476.256304	32.022	
O	-0.0803929082	 1.5901143669	-0.0817405232	-0.422418
C	 0.0534605747	 0.2053332815	 0.1645296786	-0.070755
C	-1.290955126	-0.5055977825	 0.0476288307	 0.04952
O	-1.756307788	-0.3147607817	-1.3294949749	-0.245591
C	-1.863226953	-1.5567247611	-1.8537170298	 0.11877
N	-1.6590782882	-2.5701221971	-1.123896727	-0.287261
C	-1.3287424012	-2.051871596	 0.2233744403	-0.027056
C	-0.0592884987	-2.754025242	 0.722197078	-0.061868
O	-0.2686758651	-4.1472385273	 0.7808077845	-0.424333
H	-0.473209768	 1.6789723375	-0.957580849	 0.292078
H	 0.7813714574	-0.2572661271	-0.5187520657	 0.100428
H	 0.4382366699	 0.1023777626	 1.1843722222	 0.121141
H	-2.0130043906	 0.003475772	 0.6910414538	 0.108495
H	-2.1333303769	-1.579345177	-2.9039121863	 0.148191
H	-2.1391648741	-2.3420559833	 0.9020716328	 0.104061
H	 0.7900140147	-2.5022247429	 0.0681925068	 0.089851
H	 0.1884394559	-2.4257100714	 1.7373656972	 0.110094
H	-0.6496724547	-4.3931777611	-0.0720770591	 0.296658
50.2283	111.3776	128.6766	153.462	247.8316	297.7309	360.2964	416.0549	447.1071	477.1769	515.0693	587.9577	790.241	806.6719	837.1079	887.3356	956.0213	968.828	1016.2822	1055.2712	1082.1684	1088.1824	1115.7415	1126.537	1138.1309	1215.3843	1234.0717	1286.3804	1312.8497	1329.4023	1333.2745	1363.0184	1390.0396	1405.6262	1430.8539	1442.7143	1493.7061	1508.9362	1710.7155	2977.6067	2998.6958	3037.3468	3069.5258	3077.6054	3090.5663	3213.734	3774.046	3803.6155
OCC1OC=NC1CO	OC[C@H]1OC=N[C@H]1CO	
InChI=1S/C5H9NO3/c7-1-4-5(2-8)9-3-6-4/h3-5,7-8H,1-2H2	InChI=1S/C5H9NO3/c7-1-4-5(2-8)9-3-6-4/h3-5,7-8H,1-2H2/t4-,5+/m0/s1
