18
gdb 74365	2.70371	1.269	1.02098	4.9304	79.1	-0.2614	-0.0029	0.2585	1213.9132	0.14836	-401.972412	-401.963891	-401.962947	-402.005754	31.556	
C	 0.0227904058	 1.5231606023	 0.0747635245	-0.477915
C	-0.0149654212	 0.0253074714	-0.0292553952	 0.292246
C	-0.0597862739	-0.6279035227	-1.1897521283	-0.169742
C	-0.0402109261	-2.1433427043	-1.2591777321	-0.199316
C	 0.4316457033	-2.7120630322	 0.0963073635	-0.098468
O	-0.2617279969	-2.1087701254	 1.1616893328	-0.237163
C	 0.014617908	-0.7276153067	 1.2792378349	-0.14999
C	-1.3554636551	-2.6731081559	-1.6445241781	 0.276684
N	-2.3873176228	-3.0886885584	-1.9583451899	-0.32496
H	 0.9070675379	 1.8588617864	 0.631079365	 0.130837
H	 0.0434488129	 1.9925190683	-0.9115973001	 0.132021
H	-0.8521450914	 1.9021366271	 0.6172996696	 0.136414
H	-0.1102309053	-0.0903330228	-2.1318580309	 0.102965
H	 0.6714779255	-2.4644595493	-2.0317117929	 0.127773
H	 0.2407196729	-3.7853018093	 0.1623576579	 0.13079
H	 1.5168113403	-2.5402627404	 0.1793649556	 0.0987
H	 0.9951195703	-0.5690894123	 1.766474163	 0.101815
H	-0.7443814241	-0.3251007957	 1.9600101106	 0.12731
85.0717	110.9958	166.6225	190.2849	288.427	320.5563	341.5647	415.8466	441.99	477.6147	550.924	600.4302	763.7678	785.1572	858.9832	904.9961	940.2171	953.4554	998.6794	1035.933	1050.396	1086.3488	1126.9196	1147.7134	1187.528	1254.624	1283.9882	1304.5953	1335.4286	1350.9606	1394.3916	1413.7355	1421.2067	1478.1917	1481.4233	1489.3222	1497.8986	1742.6496	2354.6745	2933.3266	2980.2475	3021.761	3023.737	3058.176	3070.5554	3108.8949	3120.7071	3171.6532
CC1=CC(COC1)C#N	CC1=C[C@@H](COC1)C#N	
InChI=1S/C7H9NO/c1-6-2-7(3-8)5-9-4-6/h2,7H,4-5H2,1H3	InChI=1S/C7H9NO/c1-6-2-7(3-8)5-9-4-6/h2,7H,4-5H2,1H3/t7-/m1/s1
