23
gdb 100822	2.82937	0.7815	0.64526	3.0247	83.38	-0.2486	-0.02	0.2286	1743.3371	0.202127	-425.434785	-425.423411	-425.422467	-425.472524	40.195	
C	-0.0042647917	 1.5250483442	 0.1913625164	-0.414901
C	-0.0471892442	 0.0000414969	 0.0077038617	 0.044574
C	-1.5110689735	-0.4530660941	-0.0620215309	-0.083871
O	-2.1274073862	-0.1519615769	 1.1819945011	-0.419491
C	 0.757772019	-0.4939366939	-1.2229298208	 0.006586
C	 2.1215731544	 0.2020370712	-1.365363385	-0.41003
C	 0.9752937034	-2.0259259194	-1.1898195177	-0.280389
C	 1.45391832	-2.56721397	-2.5169716579	 0.160553
O	 2.4386833443	-3.2392917396	-2.6845992953	-0.242433
H	 0.9965892126	 1.8810259744	 0.4455597817	 0.115109
H	-0.3240519239	 2.0404179161	-0.7230787319	 0.106226
H	-0.6835519241	 1.8137748941	 0.9959480062	 0.136786
H	 0.3850825431	-0.4633957499	 0.9058754535	 0.083423
H	-2.0110705377	 0.0749468941	-0.8919749	 0.084107
H	-1.5824117997	-1.5301945623	-0.271692599	 0.082085
H	-3.0584777635	-0.3835254086	 1.1219209237	 0.287826
H	 0.165510033	-0.2572401581	-2.1214297786	 0.071595
H	 2.6930042061	-0.2238663786	-2.1962651746	 0.125514
H	 2.0171026018	 1.27292366	-1.5509633473	 0.122195
H	 2.7222208979	 0.0723183813	-0.4575155054	 0.121561
H	 1.6966970067	-2.3047006908	-0.4149991954	 0.120173
H	 0.0312538096	-2.5419335223	-0.9708065581	 0.115501
H	 0.7980223926	-2.2927181479	-3.3788290765	 0.067299
46.1502	53.9967	63.5515	97.0064	194.0112	214.1211	243.8806	251.8344	273.8742	316.3	357.3897	361.3837	401.3289	449.2849	523.1699	542.5636	774.8659	833.3317	889.0735	926.2004	943.135	958.9	977.7852	1033.5382	1063.4014	1072.1375	1131.8373	1152.7607	1163.9016	1171.0622	1214.1726	1247.21	1272.984	1281.3688	1321.1704	1355.4701	1360.2488	1380.3613	1403.95	1418.2096	1430.2676	1456.8364	1463.8579	1491.8826	1497.0327	1505.912	1516.1233	1521.402	1834.6223	2836.7596	2955.6481	2976.8673	2997.0158	3015.0203	3027.7615	3032.0736	3035.5111	3091.4798	3097.1391	3107.749	3124.7119	3136.1298	3834.9601
CC(CO)C(C)CC=O	C[C@@H](CO)[C@@H](C)CC=O	
InChI=1S/C7H14O2/c1-6(3-4-8)7(2)5-9/h4,6-7,9H,3,5H2,1-2H3	InChI=1S/C7H14O2/c1-6(3-4-8)7(2)5-9/h4,6-7,9H,3,5H2,1-2H3/t6-,7-/m0/s1
