18
gdb 91213	2.07771	1.63208	1.56508	3.3242	71.07	-0.2422	0.0065	0.2487	1013.1664	0.147514	-439.095378	-439.08671	-439.085766	-439.128665	32.334	
C	-0.5040096986	 1.396217106	 0.1200974701	-0.417051
C	 0.0513798775	-0.0153578862	-0.0070483928	-0.018691
C	 1.3340477264	-0.2508658325	-0.8708436219	-0.262605
C	 2.0360142821	-0.8614256949	 0.3506510994	 0.08319
O	 2.7196854222	 0.170975161	 1.1332811023	-0.263059
C	 1.6528954126	 0.3213545623	 1.9921060926	 0.39961
O	 1.5987720742	 0.9917818676	 2.9740855719	-0.339955
C	 0.7572871791	-0.6700658219	 1.2334960772	 0.128376
N	 0.0155991968	-1.6847191543	 1.9150549634	-0.604225
H	 0.2702387445	 2.1080269984	 0.4230296497	 0.138682
H	-0.912387158	 1.7340438323	-0.8381746471	 0.121507
H	-1.3091301556	 1.4447768784	 0.8611567269	 0.122249
H	-0.7387078563	-0.7048506245	-0.3209468683	 0.092501
H	 1.1820763232	-0.9546766594	-1.6916642703	 0.114542
H	 1.8258223278	 0.645922061	-1.2544733792	 0.119708
H	 2.6303128449	-1.7706971354	 0.2859116374	 0.10042
H	 0.3956984411	-1.8738584628	 2.8371932741	 0.243669
H	-0.9490045739	-1.3962456152	 2.0428202145	 0.241133
90.0218	114.4979	148.0824	213.6887	252.808	258.388	353.3269	383.6174	415.805	537.3104	618.3882	699.9284	733.0448	778.6383	802.1673	844.2127	872.3178	921.0759	945.9014	968.1465	973.1619	1073.7449	1096.0521	1117.822	1137.2306	1187.2399	1191.8548	1237.6095	1267.5988	1294.2248	1315.6009	1348.9345	1387.4993	1417.2969	1468.7132	1491.5713	1497.2635	1662.2199	1919.5486	3032.5729	3053.3188	3071.7773	3098.7963	3108.0384	3127.276	3141.0959	3501.9607	3579.9867
CC1CC2OC(=O)C12N	C[C@H]1C[C@H]2OC(=O)[C@@]12N	
InChI=1S/C6H9NO2/c1-3-2-4-6(3,7)5(8)9-4/h3-4H,2,7H2,1H3	InChI=1S/C6H9NO2/c1-3-2-4-6(3,7)5(8)9-4/h3-4H,2,7H2,1H3/t3-,4+,6+/m0/s1
