16
gdb 27795	2.03528	1.76067	0.94958	2.901	78.88	-0.202	-0.0291	0.1729	1184.6175	0.124435	-437.93552	-437.927427	-437.926483	-437.968061	31.015	
C	 0.0736730818	 1.469336531	-0.0050922334	-0.470176
C	-0.0601954521	-0.0176146745	-0.0099277768	 0.40342
C	-1.2131001536	-0.7080150548	-0.0982638878	-0.32114
C	-1.1537979488	-2.1446570426	-0.0881827291	 0.427747
O	-2.3499271469	-2.7683438056	-0.1797289828	-0.425187
C	 0.0395999768	-2.7809776353	 0.0082031963	-0.346108
C	 1.2694875365	-2.0366259658	 0.1022220671	 0.386091
N	 2.4249052909	-2.557324993	 0.1959292363	-0.551642
O	 1.1400495893	-0.6347087436	 0.0866829092	-0.279854
H	 0.6995566456	 1.7989108281	-0.8414539301	 0.148558
H	-0.9043146826	 1.9464911048	-0.083949278	 0.137085
H	 0.5618594844	 1.8064280047	 0.9156687175	 0.148548
H	-2.1658101963	-0.2040405273	-0.1750817086	 0.116026
H	-2.2117985834	-3.7227720444	-0.1651451555	 0.305756
H	 0.1291299791	-3.8604510991	 0.0194026199	 0.105876
H	 3.1414850892	-1.8342029224	 0.2496790058	 0.215001
132.7257	151.6061	189.091	205.4832	285.2395	347.3194	464.0275	482.3192	519.4272	543.3791	546.5733	620.1885	675.4305	694.966	804.341	818.0511	843.0369	857.2563	977.8537	999.652	1048.8537	1064.76	1102.7617	1166.1467	1206.1363	1260.9778	1278.822	1376.328	1415.298	1468.3267	1471.502	1501.6854	1636.148	1694.5725	1747.5013	3039.8001	3095.229	3143.8327	3204.8434	3237.4573	3498.0943	3803.4186
CC1=CC(O)=CC(=N)O1	CC1=C[C@H](O)C=C([NH])O1	
InChI=1S/C6H7NO2/c1-4-2-5(8)3-6(7)9-4/h2-3,7-8H,1H3	InChI=1S/C6H8NO2/c1-4-2-5(8)3-6(7)9-4/h2-3,5,7-8H,1H3/t5-/m0/s1
