18
gdb 73602	2.33319	1.63404	1.32884	4.4687	76.25	-0.2462	0.0271	0.2733	1044.8252	0.148364	-401.961415	-401.953141	-401.952197	-401.994156	31.219	
C	 0.071755907	 1.573800109	 0.0091586591	-0.46433
C	 0.0028172808	 0.0795920659	 0.1499252894	 0.434626
O	-1.2798969006	-0.4205200338	-0.0653633905	-0.29001
C	-1.4360184477	-1.6870477342	 0.5967043157	-0.104591
C	-0.281548151	-1.8099856789	 1.6210606216	-0.255817
C	 0.7103571908	-0.7527891067	 1.16872127	-0.13117
C	 1.196534932	-0.7931506348	-0.2897032394	-0.285905
C	 1.0470723065	-1.9550439469	-1.1126019943	 0.318592
N	 0.9299395856	-2.8951197481	-1.7784250995	-0.358671
H	 1.0871888902	 1.9378053862	 0.1849153814	 0.122385
H	-0.2348078817	 1.8767496864	-0.9963621836	 0.14317
H	-0.6012842921	 2.0495910822	 0.7288534808	 0.133528
H	-2.4246951257	-1.6962845946	 1.0640546783	 0.113912
H	-1.3933963794	-2.4892775239	-0.1446529843	 0.141416
H	-0.6158538435	-1.5677377188	 2.634224103	 0.117161
H	 0.1345208352	-2.8209307742	 1.6368051763	 0.129272
H	 1.3915743062	-0.3227368839	 1.8936743351	 0.105134
H	 2.1156155073	-0.2466373709	-0.4774014792	 0.1313
115.1651	131.7796	186.0741	197.9779	212.4032	323.4187	371.3009	397.0849	552.3691	600.1471	653.5605	697.859	722.056	795.1956	840.2931	854.9782	919.1991	942.4699	975.063	1018.6723	1029.668	1079.4054	1104.3784	1122.673	1125.2088	1213.7516	1230.7057	1245.4774	1257.8123	1319.4465	1339.2366	1400.7197	1412.0806	1442.553	1476.9644	1494.2884	1501.2747	1531.1839	2343.352	3044.1014	3055.7125	3062.4748	3092.9719	3112.38	3113.9686	3125.0819	3159.8297	3180.4068
CC12OCCC1C2C#N	C[C@]12OCC[C@H]1[C@H]2C#N	
InChI=1S/C7H9NO/c1-7-5(2-3-9-7)6(7)4-8/h5-6H,2-3H2,1H3	InChI=1S/C7H9NO/c1-7-5(2-3-9-7)6(7)4-8/h5-6H,2-3H2,1H3/t5-,6+,7-/m0/s1
