21
gdb 78319	2.83404	1.39001	1.19031	1.1604	81.91	-0.22	0.0761	0.2962	1150.1581	0.182197	-387.039086	-387.03074	-387.029796	-387.071269	33.982	
C	-0.0419348304	 1.4322938132	 0.0152497308	-0.422356
C	 0.0618374097	-0.0795182767	 0.0378687123	-0.018329
C	 1.4221181455	-0.6752342696	-0.2129194726	-0.070775
C	 0.7983369496	-0.6957265878	 1.191987005	-0.090796
C	 0.7877066031	-2.2381760318	 1.1739388632	 0.420115
O	 1.4379279235	-2.7290011478	 2.3087444551	-0.487028
C	-0.4612910268	-2.9985397036	 0.6258608817	-0.30497
C	 0.1525820792	-2.954072683	-0.8135746463	-0.244448
C	 1.4123097768	-2.2213611665	-0.2607522398	-0.105938
H	 0.8625287846	 1.8962964019	 0.4229049542	 0.11717
H	-0.1752771545	 1.8036706853	-1.0066186087	 0.116423
H	-0.8915923431	 1.7795800382	 0.6128923216	 0.117775
H	-0.8202633668	-0.5790875764	-0.3557110241	 0.078343
H	 2.2319257713	-0.0574659203	-0.5851600009	 0.079279
H	 1.0636565455	-0.128689926	 2.0770538852	 0.085381
H	 1.5517042305	-3.6797236621	 2.2046562265	 0.275416
H	-0.5251631184	-4.0136862295	 1.0319327609	 0.087171
H	-1.4326397801	-2.5177566679	 0.7695811241	 0.102778
H	 0.3711726528	-3.9433127553	-1.2225398566	 0.095002
H	-0.4254134672	-2.4017834564	-1.557763997	 0.103817
H	 2.3864585852	-2.6753473479	-0.4461327748	 0.06597
171.83	193.0534	222.3923	231.169	264.6145	319.359	342.9549	386.6439	447.4199	491.9652	607.0045	696.9355	737.6147	770.7141	812.9653	850.3442	873.6773	909.2245	926.1127	935.2292	991.0985	1003.5025	1023.7282	1045.1208	1066.5282	1069.3134	1097.3479	1101.4052	1129.4663	1147.7977	1198.428	1204.957	1218.0285	1237.2372	1251.1533	1281.9198	1296.3058	1319.0357	1389.6773	1415.4868	1424.8617	1470.1358	1490.985	1494.7739	1502.0511	3027.825	3042.7835	3065.6488	3092.3914	3093.2084	3094.6606	3103.5815	3118.0927	3128.0576	3163.9051	3178.7331	3804.7328
CC1C2C1C1(O)CCC21	C[C@H]1[C@H]2[C@@H]1[C@@]1(O)CC[C@@H]21	
InChI=1S/C8H12O/c1-4-6-5-2-3-8(5,9)7(4)6/h4-7,9H,2-3H2,1H3	InChI=1S/C8H12O/c1-4-6-5-2-3-8(5,9)7(4)6/h4-7,9H,2-3H2,1H3/t4-,5-,6+,7+,8+/m0/s1
