15
gdb 127690	3.25935	1.44661	1.00829	5.3198	76.38	-0.2122	-0.051	0.1612	1110.6731	0.112932	-450.101747	-450.093649	-450.092705	-450.134551	29.966	
C	-0.0339403382	 1.4439566574	 0.0279310617	-0.323254
N	-0.0078572333	-0.0099898024	 0.0750315633	-0.08705
N	-0.0412567661	-0.6408239445	-1.1410073074	-0.057511
N	-0.0224581695	-1.8916395868	-1.2153779075	-0.256156
C	 0.0345067175	-2.7420724238	-0.0564800243	 0.392
N	 0.0510019264	-4.0143815566	-0.189592969	-0.536187
C	 0.0699485423	-2.0713732499	 1.2217083306	-0.374748
C	 0.0475923849	-0.7229100613	 1.2464537103	 0.546677
O	 0.0741990122	 0.0681494774	 2.3380108115	-0.415728
H	 0.8663788108	 1.8655145817	 0.4828183536	 0.149874
H	-0.0794745038	 1.7166417962	-1.0257841909	 0.164004
H	-0.9097496846	 1.8356571212	 0.5519886361	 0.149941
H	 0.018256434	-4.2387830481	-1.1861996751	 0.218501
H	 0.1135157511	-2.6561418323	 2.132036493	 0.112755
H	 0.1126245363	-0.4897370481	 3.1242146641	 0.316884
80.2073	136.7375	182.3936	205.6648	317.2564	362.6346	402.5854	466.5607	466.7256	540.7075	573.7706	666.4232	725.9071	744.5937	793.5081	828.0373	889.8295	933.7789	970.2286	1119.4573	1153.6816	1178.2391	1229.1979	1270.9975	1277.7777	1347.4746	1438.184	1481.5702	1496.1197	1509.9854	1563.977	1686.8578	1718.6154	3051.8416	3116.2129	3168.6184	3208.2799	3461.4791	3805.5145
CN1N=NC(=N)C=C1O	Cn1nnc([NH])cc1O	
InChI=1S/C4H6N4O/c1-8-4(9)2-3(5)6-7-8/h2,5,9H,1H3	InChI=1S/C4H11N4O/c1-8-4(9)2-3(5)6-7-8/h3-7,9H,2H2,1H3
