20
gdb 110248	2.11563	1.55111	1.05136	2.1635	81.27	-0.2428	0.005	0.2478	1220.9612	0.1695	-403.095501	-403.086465	-403.085521	-403.129279	33.98	
C	-0.0080055344	 1.5670448037	 0.0006722062	-0.378609
C	 0.0646805888	 0.0451987316	-0.0980497852	-0.143517
N	-1.2778482773	-0.5370705177	 0.0368071902	-0.096069
C	-1.8777375121	-0.7083387868	 1.4293468027	-0.161935
C	-2.8181113511	-1.7810488136	 0.7916520395	 0.0317
C	-3.9498709655	-1.3235351602	-0.1139940661	-0.432104
C	-1.409446204	-2.0461910104	 0.1696442307	-0.159295
C	-0.8334400068	-1.84180516	 1.5952564823	 0.425213
O	 0.0656003069	-2.1854463065	 2.2972634575	-0.324851
H	 0.9781069248	 2.0081045817	-0.1716380197	 0.119402
H	-0.7055462472	 1.9707158589	-0.7385765537	 0.125651
H	-0.3443825239	 1.8835810115	 0.9934485103	 0.120461
H	 0.4284320155	-0.2467521945	-1.0903571221	 0.107418
H	 0.7862383928	-0.346062159	 0.6368395837	 0.112492
H	-2.1339444116	 0.1394058733	 2.0626726229	 0.09677
H	-3.1422072582	-2.5543527998	 1.4935923472	 0.086192
H	-3.6116196868	-0.554924502	-0.8095164867	 0.139853
H	-4.3434026366	-2.1687627784	-0.688304304	 0.118127
H	-4.7748401558	-0.91943366	 0.4820734573	 0.118086
H	-1.1262927475	-2.7231440118	-0.635434133	 0.095016
74.3704	135.1019	158.5828	195.2099	218.7732	249.934	273.8988	389.7822	410.9522	485.5351	540.0285	684.9063	694.462	764.2211	778.5275	808.7208	838.4396	859.6127	960.4521	974.7562	1026.2817	1044.3997	1078.7497	1091.3667	1106.2551	1123.266	1139.3318	1177.8949	1188.5654	1202.5848	1219.2446	1253.3061	1314.1779	1391.7048	1395.3875	1407.777	1412.8694	1490.0247	1493.4835	1494.9108	1504.8789	1513.4057	1899.2034	2979.8185	3040.4379	3040.7209	3052.572	3075.5907	3096.7494	3109.1206	3120.5506	3132.7689	3139.5105	3148.9059
CCN1C2C(C)C1C2=O	CCN1[C@H]2[C@@H](C)[C@@H]1C2=O	
InChI=1S/C7H11NO/c1-3-8-5-4(2)6(8)7(5)9/h4-6H,3H2,1-2H3	InChI=1S/C7H11NO/c1-3-8-5-4(2)6(8)7(5)9/h4-6H,3H2,1-2H3/t4-,5+,6-
