25
gdb 59757	2.14313	1.36468	1.12711	1.2843	87.85	-0.2407	0.0737	0.3145	1281.8987	0.229124	-389.509003	-389.498878	-389.497934	-389.543743	38.457	
C	 0.5888923612	-0.1281176811	-1.5394824739	-0.395057
C	 0.0456301023	 0.0762620454	-0.1155434634	 0.031627
C	 0.1473827716	 1.5547459242	 0.2905146276	-0.397006
C	-1.3927456767	-0.4540229316	 0.106948518	 0.00384
C	-2.4318140163	 0.0391254321	-0.93396838	-0.259995
C	-2.6261479311	-1.1721084164	-1.8849941377	-0.0698
O	-1.7826566519	-2.2140748172	-1.4089836277	-0.257663
C	-1.5739900285	-1.9866174239	-0.0174129528	 0.128276
C	-0.4632989377	-2.8981053806	 0.476747469	-0.417909
H	 1.6403582327	 0.1741784353	-1.5912655082	 0.104437
H	 0.5095111724	-1.1673175902	-1.8643703503	 0.134062
H	 0.0428094351	 0.4852416904	-2.2654655385	 0.107211
H	 0.6954012906	-0.4846171391	 0.5693552466	 0.072919
H	-0.4841384698	 2.1903914268	-0.3410321619	 0.112573
H	-0.1621339371	 1.7075528278	 1.3300783425	 0.10711
H	 1.1763363983	 1.916097109	 0.1902613607	 0.109217
H	-1.6948894773	-0.1447823316	 1.1141547166	 0.063766
H	-3.3750051958	 0.2979765837	-0.4457987842	 0.100863
H	-2.095365341	 0.9300829313	-1.4685655287	 0.105902
H	-3.674869715	-1.5050518632	-1.8858938662	 0.089041
H	-2.3394014635	-0.9585355696	-2.9191000275	 0.104399
H	-2.4998177955	-2.2480300706	 0.5290803573	 0.056495
H	 0.4759538423	-2.7188853341	-0.0513144778	 0.127994
H	-0.2951077173	-2.7476129428	 1.5478096126	 0.114183
H	-0.7446682619	-3.9431658639	 0.3200937079	 0.123517
66.4238	104.9454	163.2288	194.9292	223.5568	231.5291	254.952	273.174	293.1404	366.2926	384.3719	493.6838	532.4042	663.0584	734.2614	762.1612	827.8126	860.6045	891.8285	915.116	933.9784	956.8834	972.3091	1002.2806	1031.0694	1062.4475	1073.1167	1129.0972	1137.3675	1160.1304	1175.3074	1206.5925	1234.3083	1248.2366	1257.2977	1312.4925	1325.8553	1361.5651	1363.0126	1385.4845	1392.9147	1398.6161	1402.6408	1417.6119	1425.3059	1484.0327	1487.1673	1492.9269	1497.7635	1502.0354	1508.3784	1515.225	1528.0038	2914.7557	2987.2259	3012.1641	3023.9874	3033.0534	3035.7491	3046.9978	3068.3849	3070.8299	3086.6539	3092.079	3096.2059	3110.7829	3114.3847	3128.1252	3133.3976
CC(C)C1CCOC1C	CC(C)[C@H]1CCO[C@H]1C	
InChI=1S/C8H16O/c1-6(2)8-4-5-9-7(8)3/h6-8H,4-5H2,1-3H3	InChI=1S/C8H16O/c1-6(2)8-4-5-9-7(8)3/h6-8H,4-5H2,1-3H3/t7-,8+/m0/s1
