17
gdb 73343	2.54599	1.89872	1.49122	3.0335	71.22	-0.2413	-0.0013	0.24	929.2565	0.137054	-421.829794	-421.822539	-421.821595	-421.861169	29.153	
O	 0.1865593379	 1.3708377946	-0.1356225416	-0.494046
C	 0.0759089752	-0.0117059549	-0.1263030238	 0.316986
C	 0.7768693946	-0.7160022764	-1.29609954	-0.258854
C	 0.2696235294	-2.1747205392	-1.2324906492	-0.251012
C	-0.945167981	-2.1127547831	-0.3004327682	-0.046758
C	-0.7465078874	-1.6444857136	 1.1413990136	-0.193595
C	-1.3260296271	-0.7179214139	 0.0117072881	-0.142727
C	 0.3481798083	-0.6532280021	 1.2499904848	 0.347682
O	 0.9572272001	-0.1863513642	 2.1822809212	-0.363214
H	 0.5211873018	 1.628163877	 0.735361008	 0.296237
H	 0.4742298948	-0.2215459565	-2.2251919935	 0.114116
H	 1.8636065956	-0.6321862758	-1.2139934303	 0.115149
H	-0.0285185789	-2.541410621	-2.2186909312	 0.110068
H	 1.0287818017	-2.8615108205	-0.8461518261	 0.113184
H	-1.7217954634	-2.8644548562	-0.3940842482	 0.103557
H	-1.2621327992	-2.1149362669	 1.9693559044	 0.114051
H	-2.2963225923	-0.2434582372	 0.0034240721	 0.119175
129.4758	189.7094	238.5685	327.6723	371.0182	382.6333	478.702	527.4845	650.878	684.9852	695.174	731.7555	797.1543	836.8602	852.3828	869.3285	904.4139	944.9322	969.6262	996.8369	1045.9749	1072.1357	1084.2987	1126.9499	1147.762	1180.977	1206.4293	1226.4554	1265.1884	1290.6954	1319.7361	1356.3753	1386.5536	1395.2413	1487.1694	1506.408	1836.4266	3049.3975	3057.1319	3090.0466	3108.742	3171.6202	3198.5894	3232.905	3736.7506
OC12CCC3C(C13)C2=O	O[C@]12CC[C@H]3[C@H]([C@@H]13)C2=O	
InChI=1S/C7H8O2/c8-6-4-3-1-2-7(6,9)5(3)4/h3-5,9H,1-2H2	InChI=1S/C7H8O2/c8-6-4-3-1-2-7(6,9)5(3)4/h3-5,9H,1-2H2/t3-,4+,5-,7+/m0/s1
