16
gdb 43746	4.70058	0.96291	0.89672	3.5448	74.71	-0.2516	-0.0137	0.2379	1276.1505	0.122504	-400.695533	-400.687215	-400.686271	-400.729028	31.129	
O	 0.2522475495	-0.003626821	-0.0660114015	-0.289102
C	 0.0733431725	 1.1692207101	 0.0162662735	 0.407818
C	-1.1503045176	 2.0953838191	 0.1236468709	-0.430545
C	-0.1239934633	 3.2305535609	 0.0878777719	 0.340076
C	-0.2325411787	 4.461486447	-0.7797288615	-0.451987
C	-1.2141850004	 5.4109134112	-0.2625512484	 0.303232
C	-2.0316936779	 6.1730837465	 0.177939405	-0.445075
C	 0.8631651678	 3.0610186221	 1.1587911704	-0.277128
N	 1.0443465188	 2.2506255834	-0.094460396	-0.214197
H	-1.7747985757	 2.0314576657	-0.7716746194	 0.145903
H	-1.782922895	 2.0048200705	 1.0094930084	 0.139411
H	 0.7530526908	 4.9366172736	-0.8512263437	 0.147945
H	-0.5061828701	 4.1635092063	-1.8002338412	 0.142724
H	-2.7497041322	 6.8563778825	 0.5592498732	 0.203831
H	 1.6406004372	 3.8097928413	 1.2703292319	 0.141788
H	 0.5997092443	 2.5423943509	 2.0773261267	 0.135307
50.0437	90.4249	146.2225	285.2475	328.7032	357.437	397.2252	426.8989	492.6715	565.1312	630.2884	650.966	655.5267	718.5261	786.3834	836.0822	903.1828	928.8402	961.6338	985.0237	1019.3718	1024.03	1098.2077	1125.8836	1157.3668	1180.0877	1212.8336	1315.2066	1333.7342	1397.3806	1455.3134	1464.2358	1513.9449	1923.1491	2242.5917	3024.0288	3063.0505	3071.1809	3116.0336	3125.2735	3208.325	3505.2755
O=C1CC2(CC#C)CN12	O=C1C[C@@]2(CC#C)CN12	
InChI=1S/C7H7NO/c1-2-3-7-4-6(9)8(7)5-7/h1H,3-5H2	InChI=1S/C7H7NO/c1-2-3-7-4-6(9)8(7)5-7/h1H,3-5H2/t7-,8?/m0/s1
