15
gdb 133569	3.07281	1.29859	1.29667	1.9221	57.44	-0.249	0.0721	0.3211	1007.0156	0.110184	-548.261969	-548.254548	-548.253604	-548.294661	28.035	
F	-0.4779993371	 0.3992441834	-0.7641984953	-0.078227
C	 0.0246220064	 1.3932116161	-0.0154010688	 0.269813
F	 1.2761200437	 1.0415232304	 0.3164534772	-0.070159
F	 0.1080865437	 2.4779699388	-0.8033851181	-0.070907
C	-0.7747646572	 1.7371007678	 1.2191727436	-0.155312
C	-2.216158823	 1.5303463568	 1.455673824	-0.042868
C	-2.7701112474	 0.2155149565	 0.9098884807	-0.251105
C	-1.6324326688	-0.4840559145	 1.6944444872	-0.159201
N	-1.1566742188	 0.8198170341	 2.3019901144	-0.157356
H	-0.3741125393	 2.6592963103	 1.6350483727	 0.128823
H	-2.8190600481	 2.3362058459	 1.863167593	 0.10596
H	-3.7544949057	-0.0075416537	 1.3243129434	 0.115737
H	-2.8046398822	 0.0997631517	-0.1733207021	 0.121841
H	-1.9884030793	-1.1254616951	 2.5015666372	 0.118776
H	-0.8739151468	-1.0198978987	 1.1221431808	 0.124184
41.6297	185.0544	216.5611	291.326	311.3546	420.5441	449.2239	532.5823	583.2337	705.5255	750.416	783.8818	796.261	805.9483	835.486	959.1891	982.463	1024.8481	1040.5168	1070.3536	1129.5919	1155.2973	1187.3539	1195.17	1208.7537	1223.5512	1272.5467	1297.3927	1315.1472	1369.9129	1465.545	1492.3408	1517.2059	3083.3541	3089.0998	3130.3355	3139.3744	3146.3318	3160.5012
FC(F)(F)C1C2CCN12	FC(F)(F)[C@H]1[C@H]2CCN12	
InChI=1S/C5H6F3N/c6-5(7,8)4-3-1-2-9(3)4/h3-4H,1-2H2	InChI=1S/C5H6F3N/c6-5(7,8)4-3-1-2-9(3)4/h3-4H,1-2H2/t3-,4-,9?/m1/s1
