19
gdb 112414	2.00146	1.55075	0.97956	4.6319	71.86	-0.2419	0.0573	0.2992	1221.7652	0.160811	-456.393471	-456.384498	-456.383554	-456.427062	33.761	
C	-0.387910685	 1.5682478309	-0.0708827766	-0.408127
C	 0.0623342035	 0.1112305272	-0.050192172	 0.029358
N	 1.1588738446	-0.1647630988	-0.9747891291	-0.350045
C	 1.932218693	-1.2334564315	-0.5234487255	 0.423463
O	 2.7850198145	-1.8216122617	-1.1483304815	-0.409795
N	 1.5268288198	-1.484338163	 0.7825889191	-0.334317
C	 0.6741960482	-0.4113989369	 1.2790146145	 0.017426
C	 1.4770995533	 0.6167683422	 2.0798209051	-0.090731
O	 2.0712683792	-0.1029160895	 3.1525074434	-0.426741
H	 0.4445186846	 2.2505935517	 0.1194612194	 0.129978
H	-0.8082642825	 1.8201366012	-1.0497742933	 0.120171
H	-1.1682506197	 1.7431458693	 0.6767273523	 0.123447
H	-0.8067559043	-0.5254160475	-0.2799065467	 0.087007
H	 1.0080496266	-0.1142288118	-1.9707841959	 0.247075
H	 2.2107435653	-1.8791511181	 1.4108527588	 0.257328
H	-0.1076465592	-0.8122552422	 1.9326725283	 0.093282
H	 2.2386462991	 1.0787382942	 1.4352505251	 0.106523
H	 0.8122616042	 1.4100485245	 2.4528551349	 0.090681
H	 2.7002526948	 0.4727436498	 3.5961389395	 0.294018
93.7142	144.9954	166.1576	195.9293	249.9988	257.3074	280.248	362.1465	474.7498	487.9109	524.4835	549.9389	601.5693	694.4116	716.6244	773.1923	846.5711	934.7743	976.4045	988.5668	1013.3905	1078.6919	1091.5802	1126.4204	1137.0672	1178.0405	1218.0787	1242.9093	1276.9253	1299.0147	1350.4082	1385.7173	1396.0274	1415.7996	1418.879	1420.8232	1454.0706	1492.9038	1502.6166	1520.1831	1851.2038	2967.9091	2983.9685	3023.3181	3040.0638	3055.8714	3104.7347	3122.6927	3628.7582	3630.5507	3839.574
CC1NC(=O)NC1CO	C[C@H]1NC(=O)N[C@H]1CO	
InChI=1S/C5H10N2O2/c1-3-4(2-8)7-5(9)6-3/h3-4,8H,2H2,1H3,(H2,6,7,9)	InChI=1S/C5H10N2O2/c1-3-4(2-8)7-5(9)6-3/h3-4,8H,2H2,1H3,(H2,6,7,9)/t3-,4+/m1/s1
