18
gdb 70725	2.77186	1.66296	1.22943	1.4292	73.41	-0.2298	0.0136	0.2434	1039.8396	0.14841	-439.066347	-439.05847	-439.057526	-439.098636	30.619	
C	-0.089904037	 1.429015514	-0.0837467009	-0.428902
C	-0.1239442546	-0.0753001391	 0.1118423523	 0.301994
C	-0.6973682403	-0.6120939094	 1.4277909795	-0.378316
C	 0.7847206184	-0.6767172313	 1.1618951413	 0.078387
O	 1.5223599698	-1.8577132241	 0.9819580837	-0.225101
C	 0.8846938788	-2.9276477079	 0.3897478363	-0.003782
O	 0.7292488029	-2.8132380585	-1.0254048279	-0.22241
C	-0.08963587	-1.8540080893	-1.5391652832	 0.107506
N	-0.4830549093	-0.7401913735	-1.100678758	-0.301959
H	 0.6600566145	 1.7038673872	-0.832205982	 0.12441
H	-1.063637801	 1.7842468135	-0.4343304373	 0.128414
H	 0.1522371284	 1.9448120459	 0.8503586629	 0.107592
H	-1.0453449422	 0.0928702412	 2.1762216943	 0.118878
H	-1.3037530611	-1.5058123337	 1.3506465949	 0.126356
H	 1.4065220705	 0.0166474929	 1.7184365025	 0.109112
H	 1.5300874463	-3.795850896	 0.5264975943	 0.130992
H	-0.1020310648	-3.1158800865	 0.8338762434	 0.103786
H	-0.4110682294	-2.1701493655	-2.5313246861	 0.123044
80.1924	181.155	220.3342	272.5864	322.0461	349.1411	386.2558	447.1337	502.9955	577.0022	627.7344	709.5945	752.1136	800.3129	855.8827	919.4736	924.3907	953.8229	971.5401	1024.5654	1029.2587	1068.1724	1100.3543	1115.9856	1126.5726	1174.5259	1230.8731	1275.4744	1314.2065	1318.7882	1409.198	1414.2928	1432.5523	1447.3299	1480.3232	1482.8332	1499.1401	1512.3227	1761.7588	3017.3693	3035.9792	3106.878	3112.4994	3131.221	3134.9038	3141.719	3165.4036	3226.2906
CC12CC1OCOC=N2	C[C@]12C[C@H]1OCOC=N2	
InChI=1S/C6H9NO2/c1-6-2-5(6)9-4-8-3-7-6/h3,5H,2,4H2,1H3	InChI=1S/C6H9NO2/c1-6-2-5(6)9-4-8-3-7-6/h3,5H,2,4H2,1H3/t5-,6+/m1/s1
