25
gdb 104851	1.88027	1.38012	1.1889	1.0782	88.43	-0.2392	0.0784	0.3176	1292.7753	0.227199	-389.482679	-389.472026	-389.471082	-389.517713	40.067	
C	-0.1518607765	 1.3816024015	-0.6334554721	-0.386838
C	-0.088519027	-0.0719356421	-0.1532913874	-0.238781
C	-1.4646465943	-0.657458227	 0.1932771839	 0.420103
C	-2.3343126342	-0.9761722026	-1.0500076191	-0.274636
C	-1.922941863	-2.4654232939	-0.9308157	-0.244822
C	-1.461925955	-2.1960273205	 0.5280046113	-0.001898
C	-0.2210960175	-2.9076917023	 1.0505865906	-0.424066
O	-2.1815067429	 0.168019731	 1.1002717807	-0.290579
C	-1.6501346458	 0.2544480338	 2.4041404829	-0.25447
H	 0.8472547879	 1.755989413	-0.8761888861	 0.106415
H	-0.771302314	 1.4784874667	-1.5308318488	 0.118281
H	-0.5852392041	 2.0301374115	 0.1321288978	 0.127759
H	 0.3692125428	-0.6985004117	-0.9280937895	 0.097517
H	 0.5759962207	-0.1456192113	 0.716122206	 0.095201
H	-3.3883367477	-0.8152173646	-0.8137902578	 0.109772
H	-2.0936351469	-0.4539985734	-1.9789142639	 0.093882
H	-2.7028185496	-3.215815895	-1.0776643839	 0.096661
H	-1.0797127004	-2.7156752472	-1.5823415781	 0.097307
H	-2.3056844706	-2.3721810942	 1.2048897254	 0.076961
H	 0.6411359658	-2.75469087	 0.3934292722	 0.113945
H	 0.0590136346	-2.5641285331	 2.052365644	 0.113302
H	-0.3974306426	-3.9877640969	 1.1111102922	 0.113924
H	-1.5576319643	-0.733236874	 2.8788461267	 0.105957
H	-0.6661626897	 0.7441380509	 2.432239633	 0.10497
H	-2.3496444956	 0.8553152913	 2.99117946	 0.124132
104.9884	116.0463	125.8937	176.0702	196.9763	203.8238	222.5437	251.1899	293.3907	328.8534	358.9648	426.6891	473.8477	522.7345	621.4804	692.5226	784.9195	798.2353	867.2235	894.2139	940.194	949.3169	975.9053	992.0573	1015.1438	1065.1746	1099.7247	1114.5477	1141.2383	1163.1853	1181.5395	1192.3491	1202.553	1232.3803	1244.8293	1259.1504	1273.7829	1296.7714	1330.0108	1367.2208	1369.1277	1410.5029	1412.7616	1470.6071	1479.2625	1481.2589	1495.8824	1496.7285	1497.9429	1499.8685	1502.5387	1504.3099	1512.864	2987.8427	3025.637	3029.6515	3036.6133	3040.0412	3043.1264	3052.9969	3060.0191	3067.7026	3088.9068	3098.1015	3104.1073	3106.7062	3107.5501	3121.7839	3126.5562
CCC1(CCC1C)OC	CC[C@]1(CC[C@H]1C)OC	
InChI=1S/C8H16O/c1-4-8(9-3)6-5-7(8)2/h7H,4-6H2,1-3H3	InChI=1S/C8H16O/c1-4-8(9-3)6-5-7(8)2/h7H,4-6H2,1-3H3/t7-,8-/m1/s1
