22
gdb 12561	2.93686	1.77019	1.21709	1.233	77.86	-0.2419	0.0811	0.323	1066.0702	0.202261	-350.215076	-350.206749	-350.205805	-350.247743	31.987	
C	 0.1184989039	 1.6168657799	 0.0496474111	-0.398784
C	-0.0203822046	 0.0878921653	-0.0034545816	 0.017808
C	 0.5812209387	-0.4621679798	-1.3114299842	-0.189154
C	 0.0953048249	-1.850746773	-1.7677543572	-0.206625
C	-0.0009757414	-2.9510264853	-0.6850590252	-0.192522
C	 0.9137351845	-2.7964214156	 0.5345481839	-0.070365
O	 0.4001767069	-1.8813734182	 1.4875054086	-0.247985
C	 0.6538627771	-0.5153476542	 1.2424357493	-0.062529
H	 1.1719975692	 1.9188070644	 0.0029860254	 0.114179
H	-0.3952745014	 2.0865005688	-0.7947441664	 0.113995
H	-0.3044333139	 2.0289125438	 0.9717830456	 0.11183
H	-1.0886348407	-0.1652667032	 0.0408308458	 0.076424
H	 0.3744437658	 0.2434865903	-2.1254263581	 0.088753
H	 1.6748588942	-0.4685468835	-1.2048261093	 0.091371
H	-0.8898806606	-1.7452218262	-2.2375664085	 0.097957
H	 0.7661101755	-2.1865153997	-2.5676629307	 0.094896
H	-1.0216670329	-3.0035925098	-0.2897766759	 0.108314
H	 0.1960463959	-3.9251032778	-1.1490540428	 0.09137
H	 0.9744925722	-3.7555915381	 1.0603334044	 0.10114
H	 1.9398805587	-2.518462777	 0.2422916993	 0.083132
H	 1.7426137337	-0.3351271774	 1.1746350299	 0.077915
H	 0.2931472842	 0.0020132164	 2.1382208564	 0.09888
66.4876	162.3728	190.1032	223.2092	308.4493	330.0434	339.9529	387.323	438.0917	533.202	545.9546	743.4601	798.3649	829.6546	877.0155	921.3745	950.3877	965.1353	986.2099	1018.214	1053.1195	1079.426	1122.389	1138.9739	1154.4548	1171.4592	1235.5541	1247.0001	1282.06	1297.4288	1329.9064	1339.141	1352.2695	1379.3987	1382.747	1394.0609	1404.1769	1412.4354	1429.681	1476.3957	1482.6182	1489.6486	1498.0336	1499.8833	1502.7562	1508.1539	2937.4232	2970.4726	3004.7453	3016.0053	3020.535	3026.6101	3032.873	3042.2735	3054.6818	3061.5148	3065.3523	3077.4703	3091.0941	3103.048
CC1CCCCOC1	C[C@H]1CCCCOC1	
InChI=1S/C7H14O/c1-7-4-2-3-5-8-6-7/h7H,2-6H2,1H3	InChI=1S/C7H14O/c1-7-4-2-3-5-8-6-7/h7H,2-6H2,1H3/t7-/m0/s1
