18
gdb 23373	3.45295	0.90935	0.90679	1.4296	71.81	-0.2485	0.0063	0.2547	1360.9495	0.144782	-476.153638	-476.143813	-476.142869	-476.189509	35.03	
C	-0.1913771173	 1.5265992451	-0.0394479069	-0.504359
C	-0.0359325578	 0.032060741	 0.0159355184	 0.360839
N	 0.1244660319	-0.6702782894	 1.0703962141	-0.179261
O	 0.1629555265	 0.1061783159	 2.2380344165	-0.396718
C	-0.0828915841	-0.7634381473	-1.2782985299	 0.013817
O	-1.2265568649	-0.4374046229	-2.0478307144	-0.43742
C	 1.1839954747	-0.5478657319	-2.1015484398	 0.049939
C	 1.2026425339	-0.792366982	-3.5460828508	-0.188515
O	 1.1152560635	 0.5469577888	-3.0269822215	-0.248712
H	 0.237705112	 1.9938118734	 0.846559322	 0.152936
H	 0.2830519897	 1.9306886382	-0.9382276257	 0.143339
H	-1.2544667273	 1.7883529906	-0.0839178677	 0.15056
H	 0.2916613787	-0.5619996585	 2.9196179515	 0.306605
H	-0.1505312621	-1.8219753255	-1.0089650157	 0.112307
H	-0.9832711375	 0.3451107024	-2.5630179222	 0.294972
H	 2.118666247	-0.6138116424	-1.5453790783	 0.110936
H	 2.1431688112	-1.0307503707	-4.0377841925	 0.124944
H	 0.2999546719	-1.1545558647	-4.0310115271	 0.133792
33.3485	70.1233	88.9079	142.7264	227.7105	274.8641	306.0512	324.4863	368.6327	389.5769	449.7717	500.0039	570.882	654.2404	705.5658	784.2507	825.8948	885.3047	934.2964	986.2666	1015.9397	1034.5661	1060.875	1102.0692	1113.5341	1161.1791	1173.1731	1257.0924	1270.52	1294.7625	1307.0075	1396.1573	1399.9027	1413.0033	1433.9642	1484.8512	1488.462	1516.7545	1734.2	3046.1632	3073.7317	3103.857	3105.8292	3124.0249	3158.2459	3200.7011	3739.3442	3819.1832
CC(=NO)C(O)C1CO1	CC(=NO)[C@@H](O)[C@H]1CO1	
InChI=1S/C5H9NO3/c1-3(6-8)5(7)4-2-9-4/h4-5,7-8H,2H2,1H3	InChI=1S/C5H9NO3/c1-3(6-8)5(7)4-2-9-4/h4-5,7-8H,2H2,1H3/t4-,5-/m1/s1
