19
gdb 50767	3.11017	1.17952	0.92108	3.0695	72.4	-0.2461	-0.0312	0.215	1261.5223	0.15901	-460.15878	-460.150132	-460.149187	-460.192618	31.699	
O	-0.8860698024	 0.9601493328	 0.6500836068	-0.250235
C	 0.2588499426	 0.632056854	 0.4773135059	 0.142476
C	 1.3347129426	 1.5602217053	-0.0697393217	 0.019051
C	 1.235698145	 2.9644706725	 0.5479539348	-0.103571
O	 2.044474062	 3.8825248494	-0.1579050647	-0.247448
C	 3.3705263012	 4.0423263962	 0.3192453637	-0.072045
C	 4.1520570021	 2.73087231	 0.5408959722	-0.234971
C	 3.7168863591	 1.5665024927	-0.3560867715	-0.067352
O	 2.5628887888	 0.902071924	 0.1440914923	-0.266148
H	 0.6298968074	-0.3909552097	 0.7038756135	 0.098229
H	 1.147215921	 1.6812933731	-1.1528015292	 0.105115
H	 0.1974412738	 3.2959377313	 0.4550831756	 0.132731
H	 1.4900145128	 2.9296278262	 1.6168890679	 0.101295
H	 3.8618930507	 4.6468242662	-0.4495902325	 0.113124
H	 3.3723654697	 4.6315827162	 1.2496833397	 0.095917
H	 5.2172391614	 2.9361173929	 0.3799001655	 0.105123
H	 4.0557306515	 2.3886989082	 1.5768947301	 0.115236
H	 3.5484842263	 1.9021337833	-1.3903209287	 0.102718
H	 4.4992390743	 0.8020719355	-0.3701958597	 0.110755
73.2955	98.3583	131.909	189.5296	262.0454	308.3205	352.6733	375.9316	443.7252	508.6442	569.8155	622.4956	783.0142	825.8785	876.9134	896.5154	935.6931	977.6738	1027.1585	1063.9137	1087.2738	1107.8495	1142.7728	1158.3855	1174.746	1260.4051	1267.3712	1283.4607	1289.8042	1332.4689	1357.6447	1377.0731	1388.1372	1400.6797	1413.279	1424.6815	1474.2983	1491.2881	1492.1571	1508.2971	1834.2345	2906.1925	2940.2078	2981.7528	2998.9186	3008.33	3036.9187	3065.584	3084.9945	3087.5166	3096.8845
O=CC1COCCCO1	O=C[C@H]1COCCCO1	
InChI=1S/C6H10O3/c7-4-6-5-8-2-1-3-9-6/h4,6H,1-3,5H2	InChI=1S/C6H10O3/c7-4-6-5-8-2-1-3-9-6/h4,6H,1-3,5H2/t6-/m0/s1
