15
gdb 49923	2.74972	1.33823	1.07964	4.4059	68.26	-0.2415	-0.0484	0.1931	1107.0804	0.110211	-457.770658	-457.762456	-457.761512	-457.804308	28.98	
O	-0.6385740198	 0.5698864043	 0.1508554266	-0.241018
C	 0.5315976249	 0.6051499659	-0.1208389683	 0.122452
C	 1.4191992213	 1.8312164232	 0.1389876459	-0.024092
O	 2.7892165694	 1.4451235242	 0.1976609724	-0.249654
C	 3.4911696822	 1.933014878	-0.9285038795	-0.0285
C	 3.906239647	 0.804117725	-1.8808879298	 0.152245
O	 3.4564742257	-0.3081573482	-1.8523953472	-0.224736
C	 2.5233309676	 2.8693824569	-1.6193533935	-0.11485
C	 1.3436985164	 2.8019659781	-1.0115466417	-0.08868
H	 1.080870035	-0.2307660847	-0.6024844391	 0.122072
H	 1.1171756728	 2.2761671173	 1.0961042887	 0.118672
H	 4.411923822	 2.4431193676	-0.6007515016	 0.108485
H	 4.6661090089	 1.1129568261	-2.6354354799	 0.083055
H	 2.7828189317	 3.4664758551	-2.4831519918	 0.127697
H	 0.434631065	 3.3249184113	-1.2754203812	 0.136851
73.3865	84.6178	122.6751	211.4522	240.6999	281.4601	376.0507	451.107	510.0225	704.7176	728.6518	785.9311	797.8334	854.3371	900.1758	953.8899	961.4864	999.2118	1032.3242	1053.1992	1057.012	1125.8703	1150.0359	1249.925	1268.3016	1305.3708	1330.6819	1344.2921	1389.6867	1411.494	1671.7196	1832.808	1844.8612	2866.9093	2932.499	2975.0989	3028.9198	3222.022	3246.2042
O=CC1OC(C=O)C=C1	O=C[C@H]1O[C@@H](C=O)C=C1	
InChI=1S/C6H6O3/c7-3-5-1-2-6(4-8)9-5/h1-6H	InChI=1S/C6H6O3/c7-3-5-1-2-6(4-8)9-5/h1-6H/t5-,6+
