19
gdb 91875	2.36309	1.70043	1.08604	3.5525	77.58	-0.2501	0.014	0.2641	1132.4106	0.161174	-419.203708	-419.195615	-419.194671	-419.236438	31.381	
C	 0.0481645468	 1.5333582873	 0.0724303974	-0.400975
C	 0.0079172102	 0.0194666061	-0.0493425856	 0.12365
C	 0.7528713065	-0.5133094766	-1.2743895251	-0.208775
C	 0.9131974388	-2.0251498184	-1.2042371256	-0.065728
N	 2.1260062827	-2.4835832343	-0.5198866381	-0.32479
C	 0.8075814932	-2.6802768649	 0.1305506019	-0.100842
C	 0.5767226956	-1.8527163919	 1.3480118489	 0.419854
N	 0.4448049896	-2.3985654579	 2.4828514821	-0.52286
O	 0.569486181	-0.4987921933	 1.1786572329	-0.266161
H	 1.0824206817	 1.8800972482	 0.1574966856	 0.132439
H	-0.403385148	 1.9972665553	-0.8096570121	 0.118436
H	-0.4998920719	 1.8626790343	 0.9587413354	 0.128177
H	-1.0382719824	-0.3176718427	-0.0978266205	 0.08248
H	 0.1942068388	-0.2283014425	-2.1721426797	 0.103387
H	 1.7431494694	-0.0503044146	-1.3350511755	 0.121359
H	 0.5671142074	-2.5967739924	-2.061463107	 0.092491
H	 2.4385623653	-3.3734719015	-0.899954679	 0.238273
H	 0.4219754271	-3.6902912144	 0.2103271255	 0.111364
H	 0.299501738	-1.6803350256	 3.1963552585	 0.218221
78.0078	132.0781	224.0563	231.3534	279.7195	390.5151	413.3465	450.3545	467.0497	522.5391	655.1419	716.7233	801.1202	809.664	861.6448	890.6965	916.0205	929.9439	942.0973	967.8849	995.4565	1043.5033	1103.238	1122.3916	1147.444	1163.1735	1166.9498	1205.4998	1254.0118	1260.2745	1315.0092	1338.9207	1387.8051	1394.1924	1412.0945	1413.0486	1442.8417	1468.6184	1484.3511	1499.4538	1750.248	2991.6035	3042.3613	3047.0118	3092.0064	3119.0079	3125.813	3138.8043	3181.2983	3457.2859	3503.3411
CC1CC2NC2C(=N)O1	C[C@H]1C[C@H]2N[C@H]2[C]([NH])O1	
InChI=1S/C6H10N2O/c1-3-2-4-5(8-4)6(7)9-3/h3-5,7-8H,2H2,1H3	InChI=1S/C6H10N2O/c1-3-2-4-5(8-4)6(7)9-3/h3-5,7-8H,2H2,1H3/t3-,4+,5+/m0/s1
