19
gdb 87907	2.59272	1.42938	1.12231	2.7291	76.51	-0.2421	0.0061	0.2482	1149.1153	0.158356	-423.019165	-423.010453	-423.009509	-423.05271	33.192	
C	 0.0034530391	 1.4657281986	-0.2638760897	-0.424198
C	 0.0719133292	-0.0195177679	-0.0193827653	 0.009873
O	 1.3779747151	-0.6065020822	 0.0673473629	-0.297504
C	 0.5503937378	-0.6188410007	 1.2365470074	 0.359148
C	 1.0222623279	 0.1717075015	 2.461447068	-0.354568
C	 0.7316284664	-0.7678639028	 3.6046073963	-0.07409
C	 0.2247128546	-1.9333033855	 3.2022709009	-0.113695
C	 0.0420317055	-1.9996254384	 1.7078722475	 0.010545
O	-1.2913439475	-2.3131743466	 1.3108802857	-0.422207
H	 0.7319357486	 2.0059366655	 0.3455094042	 0.126459
H	 0.2112143098	 1.6864033982	-1.316060044	 0.13131
H	-0.9979658502	 1.8475163545	-0.0354778177	 0.119017
H	-0.6355405576	-0.6181426589	-0.5942591735	 0.101381
H	 2.0920931436	 0.3958513089	 2.3721649351	 0.129893
H	 0.5115793101	 1.1361551405	 2.5784227677	 0.110658
H	 0.9377853813	-0.5001313168	 4.6355265493	 0.102103
H	-0.051613105	-2.7624256093	 3.8436667927	 0.102452
H	 0.6528066417	-2.7812468874	 1.2420558477	 0.109216
H	-1.8794437506	-1.7133015212	 1.7838435348	 0.274208
48.2652	156.2995	176.7449	210.9026	259.8744	289.7416	346.4239	436.712	458.724	492.3711	520.8024	573.3209	716.8302	773.1157	783.3095	811.505	899.9785	952.0829	973.1574	984.6991	1001.2325	1013.7972	1044.6806	1071.0216	1124.0731	1135.0897	1156.2827	1182.0367	1213.1853	1254.9052	1282.0174	1291.8325	1358.5039	1372.3886	1407.8651	1426.0699	1464.8411	1479.1963	1488.6374	1508.2749	1684.1035	3022.5912	3036.3957	3052.5158	3055.6018	3098.385	3105.4561	3129.4749	3182.0565	3208.6556	3794.2023
CC1OC11CC=CC1O	C[C@H]1O[C@]21CC=C[C@H]2O	
InChI=1S/C7H10O2/c1-5-7(9-5)4-2-3-6(7)8/h2-3,5-6,8H,4H2,1H3	InChI=1S/C7H10O2/c1-5-7(9-5)4-2-3-6(7)8/h2-3,5-6,8H,4H2,1H3/t5-,6-,7+/m1/s1
