21
gdb 88186	3.40085	1.1759	1.01238	1.869	86.16	-0.2382	0.0128	0.251	1265.1543	0.183278	-387.100755	-387.092203	-387.091259	-387.133811	33.397	
C	-0.0515866096	 1.5359492938	-0.1271904106	-0.427106
C	-0.0246795692	 0.0428443055	 0.0865603952	 0.012891
O	 1.2151921478	-0.6380791811	-0.1059347242	-0.308822
C	 0.6298108035	-0.6362851503	 1.2256727355	 0.386916
C	 1.3820910874	 0.1404411176	 2.2941217924	-0.286932
C	 2.2079023147	-0.8008533834	 3.1819675179	-0.217216
C	 1.3133226953	-1.8556322976	 3.8459270184	-0.252448
C	 0.3877541634	-2.4973971473	 2.8463397873	-0.074849
C	 0.1059406036	-1.9559406277	 1.6600227707	-0.090689
H	 0.7841718501	 2.037119457	 0.3639749409	 0.125392
H	-0.0004013416	 1.7613759515	-1.1977746721	 0.129193
H	-0.9869324168	 1.9569778064	 0.2576448933	 0.120839
H	-0.8768053038	-0.4792893558	-0.3580223208	 0.079638
H	 2.0285969928	 0.8801778541	 1.8169410893	 0.10933
H	 0.6582660699	 0.6859129733	 2.91535711	 0.099225
H	 2.9582287619	-1.3061718859	 2.5620471044	 0.112834
H	 2.7507668944	-0.2269098693	 3.9397963541	 0.092249
H	 1.9261149504	-2.6259801875	 4.3294501226	 0.105126
H	 0.7240027118	-1.3988159502	 4.6559680509	 0.108096
H	-0.0561102192	-3.4523917713	 3.1172901847	 0.089422
H	-0.5351818969	-2.4743513819	 0.9519393702	 0.086908
73.9351	159.1827	183.3931	208.7783	255.8811	329.0256	396.0501	428.3623	453.8488	502.7393	548.421	654.117	708.3659	743.4192	788.9719	864.3237	874.486	921.0549	939.833	969.7647	1002.3945	1004.7366	1039.0336	1067.0712	1082.1816	1122.5546	1147.6419	1174.7056	1180.624	1242.8645	1272.7484	1290.0986	1324.9269	1369.3781	1372.4148	1383.536	1407.72	1422.502	1461.6573	1468.6774	1477.1731	1489.1922	1494.0985	1504.4857	1713.7192	2992.4595	3015.3491	3033.3351	3038.2626	3049.7955	3063.8542	3080.3542	3097.6144	3100.7847	3138.8425	3147.7144	3171.0713
CC1OC11CCCC=C1	C[C@H]1O[C@]21CCCC=C2	
InChI=1S/C8H12O/c1-7-8(9-7)5-3-2-4-6-8/h3,5,7H,2,4,6H2,1H3	InChI=1S/C8H12O/c1-7-8(9-7)5-3-2-4-6-8/h3,5,7H,2,4,6H2,1H3/t7-,8+/m1/s1
