20
gdb 96435	2.43774	1.40329	0.9492	2.8821	76.83	-0.2325	-0.0321	0.2005	1238.3356	0.171079	-440.280108	-440.271343	-440.270399	-440.313695	32.73	
C	-0.1586807309	 1.5085739012	 0.0107756323	-0.3289
N	-0.0340525505	 0.0568669911	 0.0146659565	-0.09265
C	-1.3387641092	-0.5819963622	-0.1507297356	-0.14197
C	-1.1963795672	-2.0978075735	-0.1405335063	-0.091135
O	-0.582432585	-2.5325828164	 1.0608460014	-0.242428
C	 0.7039510991	-1.9735286897	 1.1952599469	-0.100309
C	 0.662337766	-0.4279727002	 1.202532668	-0.041954
C	 2.1075760654	 0.0453339684	 1.2015777462	 0.139879
O	 2.7600486359	 0.2291130364	 2.1956610102	-0.248789
H	 0.828069258	 1.9770644606	 0.0811205428	 0.127037
H	-0.6185958911	 1.8342731675	-0.9272792811	 0.123436
H	-0.7746499986	 1.8890486083	 0.8465102388	 0.103785
H	-2.041664189	-0.2830449186	 0.6504401538	 0.088004
H	-1.7687817495	-0.2557532561	-1.1049044941	 0.104054
H	-2.1771942755	-2.5782978436	-0.1850916381	 0.111872
H	-0.602266574	-2.4232286522	-1.0097341062	 0.095734
H	 1.1170132764	-2.3290128224	 2.1417909543	 0.129758
H	 1.3548292875	-2.3141742144	 0.3723783959	 0.094011
H	 0.1881794357	-0.0978508167	 2.1443943471	 0.081274
H	 2.5402546967	 0.1552547526	 0.1810169072	 0.089291
77.2589	108.3106	184.4165	229.6805	267.5499	304.0271	325.2593	356.76	428.5226	461.3414	468.3131	547.4179	625.8638	822.0733	875.7423	902.9129	921.2207	1006.3622	1052.1729	1079.0736	1085.8071	1111.3862	1117.3944	1145.2968	1171.0298	1187.8764	1237.5289	1257.015	1287.3128	1320.3223	1331.4457	1346.3381	1383.5323	1402.8287	1407.4426	1424.3463	1463.7282	1483.1755	1484.8763	1494.4613	1500.7365	1506.662	1833.2453	2875.8663	2923.134	2939.1442	2946.7907	2967.6314	2982.0556	3055.6773	3063.142	3097.8622	3105.7399	3109.6798
CN1CCOCC1C=O	CN1CCOC[C@H]1C=O	
InChI=1S/C6H11NO2/c1-7-2-3-9-5-6(7)4-8/h4,6H,2-3,5H2,1H3	InChI=1S/C6H11NO2/c1-7-2-3-9-5-6(7)4-8/h4,6H,2-3,5H2,1H3/t6-/m1/s1
