22
gdb 22180	2.37209	1.21495	0.9912	0.9025	86.47	-0.2388	0.0132	0.2521	1323.2804	0.191336	-404.311174	-404.300807	-404.299863	-404.346034	38.997	
C	-0.7739885518	 1.2323272977	-0.0331771638	-0.416407
C	 0.139589868	 0.0177665829	-0.1070532862	 0.001361
C	 1.5320291737	 0.1802798089	-0.7972216681	-0.349996
C	 2.1238044354	-0.5994358351	 0.3540447587	 0.398082
N	 3.2046202277	-1.2162782119	 0.5846150553	-0.255289
O	 4.1115498358	-1.0710597403	-0.4866481244	-0.394657
C	 0.8567554756	-0.5278987338	 1.1984039823	 0.214983
C	 0.985376164	 0.4976037056	 2.3335313139	-0.433199
C	 0.3318436893	-1.8622202554	 1.7275017951	-0.440696
H	-0.2650870528	 2.1029675974	 0.3924176814	 0.116425
H	-1.120139786	 1.5111800947	-1.0345294305	 0.117168
H	-1.6613318052	 1.031964495	 0.5774224816	 0.116293
H	-0.402341671	-0.8119234808	-0.5730790303	 0.075673
H	 1.6644042515	-0.2532235735	-1.7914543983	 0.12422
H	 1.8823132024	 1.2185697116	-0.8295317439	 0.119102
H	 4.8606511796	-1.5973823795	-0.1877549594	 0.3037
H	 1.3939923051	 1.4507048393	 1.9849767156	 0.114632
H	 0.0117018652	 0.6947740721	 2.7953355261	 0.112984
H	 1.657970593	 0.1142244797	 3.1069516113	 0.12592
H	 0.9962127332	-2.2639938219	 2.4989685723	 0.126478
H	-0.6642639912	-1.7382349479	 2.1681673345	 0.109344
H	 0.2615786585	-2.6061222447	 0.9281458069	 0.113879
57.143	134.4575	165.7678	197.6205	223.5217	243.0213	251.7262	293.8696	321.1947	350.7488	374.2394	405.0316	448.8947	523.4857	580.6782	611.186	725.4247	790.6069	872.6077	885.7515	950.9873	958.2975	967.7663	1006.6467	1024.1376	1082.8796	1104.3321	1123.3115	1164.3379	1196.5297	1216.0646	1242.9056	1265.8195	1302.7284	1369.7139	1396.7955	1399.224	1412.2174	1421.9847	1463.7747	1479.1343	1484.8649	1493.7637	1497.426	1504.995	1510.917	1780.0645	3026.9611	3028.8776	3033.2545	3042.0444	3046.6101	3091.7788	3095.8069	3100.1663	3102.3685	3103.7819	3108.2574	3110.4827	3817.9291
CC1CC(=NO)C1(C)C	C[C@H]1CC(=NO)C1(C)C	
InChI=1S/C7H13NO/c1-5-4-6(8-9)7(5,2)3/h5,9H,4H2,1-3H3	InChI=1S/C7H13NO/c1-5-4-6(8-9)7(5,2)3/h5,9H,4H2,1-3H3/t5-/m0/s1
