14
gdb 48531	2.90125	1.47628	1.25802	2.3611	68.08	-0.2532	-0.0567	0.1965	994.1921	0.100487	-436.636563	-436.629471	-436.628527	-436.668553	26.442	
O	-0.6273477601	 0.6514152891	-0.5508893913	-0.252144
C	 0.1929545146	 0.9497062139	 0.2802854331	 0.01922
C	 1.3144665016	 1.868321536	 0.0407042028	 0.275216
C	 1.7675526881	 3.0494966995	 0.9063845682	-0.212354
N	 2.6240573468	 1.8544489827	 0.7417698284	-0.167994
C	 3.3088626735	 2.0272868211	-0.6025256187	-0.161546
C	 1.9971641641	 2.570972716	-1.1918940542	-0.260187
C	 1.813367263	 3.8627056426	-0.3682113662	 0.449952
O	 1.5860828199	 5.005589128	-0.6299753968	-0.315989
H	 0.1736317592	 0.547695626	 1.3162419417	 0.098085
H	 1.4554470759	 3.3172241684	 1.9069911665	 0.140136
H	 4.1813477051	 2.6882123264	-0.5880258166	 0.127169
H	 3.5845165564	 1.0356357666	-0.9639437763	 0.136433
H	 1.7163086419	 2.5214488137	-2.2384936907	 0.124005
82.2719	145.1447	193.4992	273.6203	408.7065	462.832	498.0178	590.9392	665.2905	720.1259	739.8077	802.9906	820.9279	911.8003	952.8157	993.7134	1002.6296	1010.1365	1041.9597	1075.2339	1135.727	1169.14	1174.8297	1201.062	1226.9947	1306.2402	1364.2177	1420.5783	1509.5285	1806.3697	1898.3328	2904.7824	3057.7538	3132.1451	3188.9903	3219.7473
O=CC12C3N1CC2C3=O	O=C[C@@]12[C@H]3N1C[C@@H]2C3=O	
InChI=1S/C6H5NO2/c8-2-6-3-1-7(6)5(6)4(3)9/h2-3,5H,1H2	InChI=1S/C6H5NO2/c8-2-6-3-1-7(6)5(6)4(3)9/h2-3,5H,1H2/t3-,5+,6-,7?/m1/s1
