23
gdb 115919	3.51047	1.06282	0.90254	1.3573	84.8	-0.2222	0.0787	0.3009	1384.9594	0.207277	-388.283588	-388.274715	-388.273771	-388.317222	34.646	
C	-0.1340181756	 1.5569847257	 0.101386363	-0.393147
C	 0.0434936532	 0.0366733106	 0.0195020338	-0.181535
C	 0.7522483619	-0.464977319	-1.2479584072	 0.027667
C	 2.2310605924	-0.0693404636	-1.2887684566	-0.086943
O	 2.8439625874	-0.3916334688	-2.5286828252	-0.256939
C	 2.6620717858	-1.7012277134	-2.982167803	 0.135409
C	 2.9819390189	-2.9088642792	-2.1447873057	-0.330212
C	 1.534700769	-2.5634406015	-2.4754260794	-0.077559
C	 0.6282215908	-1.9952566201	-1.3853022699	-0.242672
H	 0.824634357	 2.0840054618	 0.1345641141	 0.12017
H	-0.6897416706	 1.9359564545	-0.7634040677	 0.11705
H	-0.6902372566	 1.8367232091	 1.0015193266	 0.113482
H	 0.592305483	-0.3197002471	 0.9025628209	 0.093468
H	-0.9437953189	-0.4403743306	 0.07136914	 0.094549
H	 0.2785362376	-0.0012948222	-2.1248853215	 0.076118
H	 2.3601043712	 1.010963061	-1.186077015	 0.10747
H	 2.7677880148	-0.544565217	-0.4493173731	 0.085486
H	 2.9099655321	-1.7412891522	-4.0376933371	 0.09642
H	 3.4435741804	-3.7614550166	-2.6310966212	 0.107868
H	 3.3001001374	-2.7571828346	-1.118314987	 0.112489
H	 1.0445279146	-3.1969602585	-3.2078225649	 0.085293
H	 0.8587280116	-2.4612668272	-0.4177799425	 0.096726
H	-0.4141643775	-2.2513470211	-1.6028232413	 0.099339
69.0921	103.6873	181.8874	214.4784	248.4027	315.2371	357.7431	395.369	435.1854	473.0699	507.4305	677.5415	751.0401	773.9493	800.3788	838.8166	857.6647	913.4425	928.0054	973.3013	979.7143	1006.4557	1041.5964	1048.4041	1056.1878	1109.5083	1124.9833	1133.8394	1152.2593	1173.4781	1190.4193	1235.0584	1248.1081	1268.8787	1305.2949	1317.0716	1349.3446	1364.4916	1369.0406	1392.9876	1400.6411	1414.8675	1427.3435	1478.2614	1484.8465	1494.9189	1501.1719	1506.497	1512.9093	2954.7248	3003.6239	3007.6613	3019.2815	3034.5326	3042.1635	3064.521	3089.5316	3100.3774	3106.8735	3129.6819	3147.99	3163.6959	3215.0168
CCC1COC2CC2C1	CC[C@H]1CO[C@H]2C[C@H]2C1	
InChI=1S/C8H14O/c1-2-6-3-7-4-8(7)9-5-6/h6-8H,2-5H2,1H3	InChI=1S/C8H14O/c1-2-6-3-7-4-8(7)9-5-6/h6-8H,2-5H2,1H3/t6-,7-,8+/m1/s1
