16
gdb 45021	2.49601	1.77685	1.1449	2.4319	72.13	-0.2286	-0.0056	0.2229	1034.2672	0.127659	-434.110292	-434.102943	-434.101999	-434.142232	28.854	
N	-0.0703401846	 1.2792938822	 0.550173727	-0.563793
C	-0.0162094028	 0.0960017092	 0.0730470077	 0.426634
N	-1.1806041205	-0.5880869934	-0.2060016691	-0.317645
C	-1.2405545578	-1.7177504503	-1.0812068989	 0.015222
C	-0.655827851	-1.666699774	-2.4659343584	-0.313052
C	 0.0537875744	-2.4357407437	-1.3525434718	-0.156491
C	 1.3010191822	-1.8774084214	-0.760903799	 0.423903
O	 2.3715951318	-2.4448703671	-0.7782913024	-0.361763
N	 1.1600081148	-0.626916185	-0.1760348506	-0.392991
H	 0.8552969244	 1.6497437274	 0.749834248	 0.209716
H	-1.9826679241	 0.0250034207	-0.1934391992	 0.259036
H	-2.1226402807	-2.3275929193	-0.9187915859	 0.117741
H	-1.1117666545	-2.2588761909	-3.2510492524	 0.131438
H	-0.2115019956	-0.7325048002	-2.7907873648	 0.138875
H	 0.0610982263	-3.5161082822	-1.414879983	 0.125558
H	 2.0199390778	-0.2308303621	 0.1756842226	 0.257611
101.3001	123.8902	220.5689	369.8765	402.0666	499.9806	501.7144	513.4337	551.7658	611.111	699.2383	717.6464	758.5766	763.5995	779.6423	828.9306	891.8181	973.9107	983.6375	1033.8613	1050.6754	1067.4911	1118.6451	1131.3564	1169.7338	1239.1737	1295.4577	1366.4683	1401.0301	1418.7616	1440.1902	1471.7432	1492.8407	1742.037	1807.1461	3139.874	3167.4325	3203.318	3234.0665	3521.3124	3613.4895	3617.0501
N=C1NC2CC2C(=O)N1	[NH][C]1N[C@H]2C[C@H]2C(=O)N1	
InChI=1S/C5H7N3O/c6-5-7-3-1-2(3)4(9)8-5/h2-3H,1H2,(H3,6,7,8,9)	InChI=1S/C5H7N3O/c6-5-7-3-1-2(3)4(9)8-5/h2-3H,1H2,(H3,6,7,8,9)/t2-,3+/m1/s1
