14
gdb 29106	3.15426	1.45866	1.00013	5.5816	69.5	-0.2088	-0.0448	0.164	1094.5369	0.102601	-470.044204	-470.036406	-470.035462	-470.076513	29.555	
N	 0.0924640663	 1.4332996974	 0.2666090141	-0.58897
C	-0.0208568018	 0.048870247	 0.073238184	 0.299525
C	-1.1433105363	-0.6115188267	-0.2375573204	-0.067756
O	-1.1860357813	-1.9983573824	-0.290995698	-0.212263
C	-0.0711389759	-2.7482041732	-0.1462291678	 0.384964
O	-0.1241572113	-3.9440011037	-0.2391537955	-0.325446
C	 1.2309421748	-2.0328346378	 0.1712883395	 0.23894
N	 2.3252454457	-2.651406237	 0.3637481473	-0.512753
N	 1.1507533944	-0.6600893662	 0.2800065133	-0.374652
H	 0.7429201507	 1.8660123668	-0.3825110102	 0.255782
H	-0.8026009953	 1.900324472	 0.2013413116	 0.257974
H	-2.0940450779	-0.1600497438	-0.4687555697	 0.129832
H	 2.1524508725	-3.6512330088	 0.2528262219	 0.247098
H	 1.9573447354	-0.1830225836	 0.6562461799	 0.267725
101.1689	122.7949	256.2951	311.3145	334.0161	368.4977	415.9286	471.4291	506.1923	546.6803	608.1284	621.9895	669.0206	695.2522	786.765	794.6031	827.681	896.9573	1033.4899	1086.904	1150.9964	1173.8171	1217.1774	1281.0543	1376.9141	1425.5588	1508.2056	1640.6433	1724.3232	1747.0733	1838.2857	3268.9696	3490.374	3504.2227	3615.7297	3618.0129
NC1=COC(=O)C(=N)N1	NC1=COC(=O)[C]([NH])N1	
InChI=1S/C4H5N3O2/c5-2-1-9-4(8)3(6)7-2/h1H,5H2,(H2,6,7)	InChI=1S/C4H5N3O2/c5-2-1-9-4(8)3(6)7-2/h1H,5H2,(H2,6,7)
