19
gdb 117058	2.76151	0.9643	0.72445	4.0931	75.95	-0.2582	-0.0262	0.232	1573.2239	0.158133	-456.390507	-456.38005	-456.379106	-456.427129	35.793	
C	-0.7544310673	 1.0958269807	-0.9673041391	-0.39494
C	-0.029065915	-0.0316622849	-0.2592340566	-0.040378
O	 0.4914072728	-0.9195935942	-1.2663069135	-0.271889
C	 1.1743263821	-1.9931636271	-0.8232051334	 0.332855
N	 1.3687808281	-2.2418353762	 0.4004964399	-0.517601
C	 1.6920542181	-2.8831903404	-1.9514124668	 0.33713
O	 2.3268470777	-3.8889604729	-1.6836038463	-0.383445
N	 1.3877073947	-2.4588520717	-3.1991968605	-0.311954
C	 1.794563968	-3.1743215461	-4.391610015	-0.336535
H	-0.0749638807	 1.650243874	-1.6212354309	 0.127219
H	-1.5812327293	 0.7120696818	-1.5721240533	 0.127222
H	-1.1640541173	 1.7921040383	-0.2297536165	 0.127875
H	 0.8039042967	 0.3301380681	 0.3519888637	 0.127919
H	-0.6912799466	-0.6013314286	 0.400522527	 0.127932
H	 1.9098705385	-3.1078127262	 0.4549352968	 0.249115
H	 0.8550388857	-1.6073123385	-3.2739282764	 0.264048
H	 2.4355855162	-2.5530186759	-5.0265370649	 0.131324
H	 2.3533654945	-4.0548573027	-4.0729359209	 0.172777
H	 0.9256741031	-3.4934873977	-4.9774683336	 0.131327
58.8682	79.4072	92.3064	106.5064	122.0177	157.8205	251.1483	254.6467	342.1602	368.036	406.0221	499.1277	505.9953	591.2412	755.1779	802.668	814.7459	871.0332	905.4461	942.1823	1041.4423	1072.7653	1121.9551	1137.9554	1152.5614	1180.0624	1182.8813	1247.1944	1290.5505	1364.0144	1408.3798	1436.0015	1443.3418	1486.8758	1494.6145	1496.947	1498.9446	1520.0907	1570.7175	1735.456	1784.2167	3031.1058	3045.1892	3052.6334	3084.2663	3089.2845	3121.0465	3123.3627	3155.3121	3468.7289	3647.8007
CCOC(=N)C(=O)NC	CCO[C]([NH])C(=O)NC	
InChI=1S/C5H10N2O2/c1-3-9-4(6)5(8)7-2/h6H,3H2,1-2H3,(H,7,8)	InChI=1S/C5H10N2O2/c1-3-9-4(6)5(8)7-2/h6H,3H2,1-2H3,(H,7,8)
