23
gdb 115815	4.3726	0.91066	0.8331	1.2691	86.48	-0.2447	0.0884	0.3331	1494.8494	0.206151	-388.291646	-388.282347	-388.281403	-388.326652	35.278	
C	 0.0860629758	 1.5093240955	-0.1794039066	-0.383195
C	-0.054688112	-0.0032748009	 0.0116631668	-0.191284
C	 0.739740582	-0.534896875	 1.1953430182	 0.156034
C	 0.6485291627	-2.0497317178	 1.4389902029	-0.3248
C	 1.9715281775	-2.3516906441	 2.1416601253	 0.343381
C	 2.0366950943	-3.0659143439	 3.465623176	-0.313975
C	 2.5442107001	-3.7403732269	 2.2121372949	-0.313405
C	 2.8540003144	-1.1221282009	 1.8725745537	-0.143901
O	 2.130766977	-0.3066593653	 0.9645714735	-0.265304
H	 1.134994715	 1.7817795071	-0.3211391477	 0.136392
H	-0.4796506735	 1.851556852	-1.0512882607	 0.107716
H	-0.2866761452	 2.0543968868	 0.6951106356	 0.1098
H	-1.1089206376	-0.269445032	 0.1590916753	 0.093734
H	 0.283564306	-0.529550922	-0.8894856192	 0.100713
H	 0.431748406	-0.000562351	 2.1133625938	 0.05713
H	-0.2265650318	-2.328056118	 2.0329331549	 0.098811
H	 0.5872368649	-2.5718104891	 0.4765480293	 0.100424
H	 2.7687864334	-2.7259592332	 4.1925672994	 0.109631
H	 1.1112834186	-3.4263085727	 3.9038441868	 0.110246
H	 1.9601653876	-4.5559332519	 1.7969238697	 0.11078
H	 3.6172105624	-3.8595610985	 2.0956293971	 0.110084
H	 3.0550190464	-0.5745993046	 2.808467953	 0.086839
H	 3.8149832558	-1.3686859634	 1.408867678	 0.104148
23.6432	107.6497	130.9443	179.8717	242.3528	282.4693	302.6699	383.6008	407.7185	450.1838	520.0362	621.2757	770.7557	778.8737	790.2425	861.9051	864.1339	909.0906	939.7782	952.3192	972.7984	984.8112	1023.2683	1055.3941	1063.0488	1079.1297	1087.6249	1113.3847	1136.6769	1158.2068	1189.2415	1209.7496	1242.6975	1260.9298	1282.1126	1303.8918	1335.4075	1344.4245	1369.5338	1404.8591	1411.1616	1417.0131	1467.2741	1474.2062	1489.794	1497.1303	1503.6795	1509.5327	1520.9558	2927.3567	2961.5341	3024.5737	3032.511	3036.2587	3061.3169	3063.234	3090.6782	3100.7041	3116.0334	3120.5695	3124.1615	3193.9142	3209.6401
CCC1CC2(CC2)CO1	CC[C@H]1CC2(CC2)CO1	
InChI=1S/C8H14O/c1-2-7-5-8(3-4-8)6-9-7/h7H,2-6H2,1H3	InChI=1S/C8H14O/c1-2-7-5-8(3-4-8)6-9-7/h7H,2-6H2,1H3/t7-/m0/s1
