17
gdb 86130	2.32928	1.59908	1.01481	3.0809	69.75	-0.2317	-0.0992	0.1325	1162.4689	0.133236	-458.995015	-458.985927	-458.984983	-459.029182	32.568	
C	-0.0091433119	 1.7045281711	 0.1030417562	-0.400762
C	 0.1476539006	 0.1990365392	-0.0177430651	 0.008025
O	 1.1487533239	-0.1216268844	-0.988721036	-0.279418
C	 1.6858751214	-1.4229014661	-0.7316829559	 0.008006
C	 3.0759142893	-1.5489376606	-1.3295533567	-0.400766
C	 1.6426773498	-1.5578736231	 0.7840263773	 0.293907
O	 2.2421922358	-2.3233257691	 1.4874537741	-0.277463
C	 0.6235564852	-0.4838865002	 1.2568277697	 0.293898
O	 0.2942677009	-0.2709961571	 2.3910295508	-0.277486
H	 0.9473616579	 2.1661159055	 0.361856648	 0.133969
H	-0.3586120714	 2.1291370965	-0.8408078508	 0.133952
H	-0.7330130622	 1.932380506	 0.8895854654	 0.143455
H	-0.8165712153	-0.2610395949	-0.3041523852	 0.10466
H	 1.0188630139	-2.1966631333	-1.1557768318	 0.10465
H	 3.7323881016	-0.7709471018	-0.9311518146	 0.133972
H	 3.4941386063	-2.5258079506	-1.073888558	 0.14344
H	 3.0346230443	-1.449173257	-2.4165769873	 0.133961
62.926	91.2214	190.7596	193.6125	211.3893	234.7263	307.283	318.1152	401.3847	477.8243	531.7834	577.5858	594.3599	689.1282	796.0572	866.3042	917.7582	995.2804	1003.1215	1026.3078	1083.8021	1124.3026	1136.1999	1138.9724	1189.2875	1294.4353	1327.8947	1331.8073	1374.4753	1401.8636	1404.1094	1481.0353	1482.1886	1495.8004	1497.9796	1852.8404	1868.3274	2929.6828	2935.7973	3053.3179	3053.5884	3132.2709	3132.4909	3137.2756	3137.3685
CC1OC(C)C(=O)C1=O	C[C@H]1O[C@@H](C)C(=O)C1=O	
InChI=1S/C6H8O3/c1-3-5(7)6(8)4(2)9-3/h3-4H,1-2H3	InChI=1S/C6H8O3/c1-3-5(7)6(8)4(2)9-3/h3-4H,1-2H3/t3-,4+
