17
gdb 29375	4.74453	0.87316	0.82839	1.1267	81.63	-0.2157	0.0186	0.2343	1431.4425	0.134605	-384.691088	-384.682192	-384.681248	-384.725445	32.502	
C	 0.1439547675	 1.5665102096	-0.0957701278	-0.500466
C	-0.0023055414	 0.0813866092	 0.0210240504	 0.267805
C	-0.3277138668	-0.7976529643	-0.9629896705	-0.112653
O	-0.366647775	-2.0746567806	-0.4879651658	-0.177619
C	-0.0610290387	-2.0133507067	 0.8361362136	 0.393445
C	-0.0311874954	-3.3091161177	 1.5861147945	-0.459552
C	-1.3380981695	-3.9575574512	 1.6999317283	 0.317224
C	-2.4102393687	-4.4908753635	 1.792441239	-0.456192
C	 0.1715441946	-0.7253770323	 1.2008915542	-0.385076
H	 1.1528554183	 1.894043783	 0.1799339299	 0.129505
H	-0.0470014804	 1.902776922	-1.1186472726	 0.124984
H	-0.5557240675	 2.0921174827	 0.5639748042	 0.130853
H	-0.5513384971	-0.6810850126	-2.0109888054	 0.129769
H	 0.6726143059	-4.0000528297	 1.1021550693	 0.147862
H	 0.3707576303	-3.1099141917	 2.5858257291	 0.145914
H	-3.3598541254	-4.9590761512	 1.8710326853	 0.197882
H	 0.4321231293	-0.380768385	 2.1903982942	 0.106316
39.2861	88.8789	132.0838	203.5163	241.2453	322.0099	329.4413	366.0911	444.9234	605.3057	620.3073	626.256	644.3677	682.5845	742.992	775.6479	816.0374	907.8988	944.6182	982.0505	987.474	1018.8734	1065.553	1157.9446	1162.2308	1199.064	1263.3291	1304.0694	1335.3148	1401.7802	1421.3936	1452.2487	1482.9017	1498.4497	1584.4639	1662.6501	2243.0373	3015.76	3029.0037	3068.7508	3079.5201	3110.1206	3246.4815	3272.3294	3506.694
CC1=COC(CC#C)=C1	Cc1coc(CC#C)c1	
InChI=1S/C8H8O/c1-3-4-8-5-7(2)6-9-8/h1,5-6H,4H2,2H3	InChI=1S/C8H8O/c1-3-4-8-5-7(2)6-9-8/h1,5-6H,4H2,2H3
