22
gdb 63461	2.73471	1.22177	1.08027	2.2626	83.13	-0.2328	0.063	0.2958	1254.8307	0.19258	-404.309679	-404.299748	-404.298804	-404.344018	38.022	
C	-0.0770850643	 1.5026197339	 0.073762385	-0.440085
C	-0.0404020041	-0.0151776416	 0.0505272906	 0.294208
C	-1.2739397499	-0.6354495542	-0.5816179127	-0.452268
C	 1.3056590437	-0.6859704988	-0.1792946381	-0.400402
C	 0.6661739078	-0.7273890354	 1.1911846714	 0.316636
O	 1.1929297315	 0.1234789039	 2.1834781649	-0.462565
C	 0.1435295856	-2.0243671593	 1.7447717834	-0.015247
C	 0.7135739693	-2.6112358674	 2.9835050018	-0.257611
N	-0.6384894002	-2.0211919645	 2.9908491614	-0.326919
H	 0.7941062915	 1.9200168507	 0.5794773584	 0.125004
H	-0.1122272283	 1.896573993	-0.9484876249	 0.109352
H	-0.9701290471	 1.8619708356	 0.5980207402	 0.115633
H	-1.4228454337	-0.2280904476	-1.5882639442	 0.114702
H	-1.2017059096	-1.7210600608	-0.6776531331	 0.115956
H	-2.1729472971	-0.4111310126	 0.0034402843	 0.124896
H	 1.3382279641	-1.6024222499	-0.7608621494	 0.109036
H	 2.1741025461	-0.0450564436	-0.2962909367	 0.107106
H	 2.0990950991	-0.1523565399	 2.3579997943	 0.287197
H	-0.2367032651	-2.7144576058	 0.9971720288	 0.086892
H	 0.7480945923	-3.6902500949	 3.1053531067	 0.114847
H	 1.5067973337	-2.0725578269	 3.4938841303	 0.095549
H	-0.5708934451	-1.0887040738	 3.3961999278	 0.238083
66.1591	127.5457	164.5392	183.7809	221.7145	260.9284	307.3898	339.3836	343.1052	372.9226	398.7793	453.1344	505.2793	549.3941	696.2072	739.2263	843.8215	851.7967	903.3821	909.5135	924.7101	971.4277	973.8774	989.0483	1012.6961	1037.0851	1046.3638	1101.1404	1144.0311	1153.0864	1163.1352	1177.371	1237.2219	1276.8547	1300.0806	1307.1213	1322.125	1363.028	1409.0512	1421.6066	1435.9505	1477.2352	1484.2639	1488.6124	1503.7429	1505.7386	1514.7225	3027.6283	3032.1812	3082.9546	3087.5461	3110.9809	3115.6967	3118.3859	3141.7361	3149.4995	3194.3804	3206.4355	3484.0392	3802.2025
CC1(C)CC1(O)C1CN1	CC1(C)C[C@]1(O)[C@H]1CN1	
InChI=1S/C7H13NO/c1-6(2)4-7(6,9)5-3-8-5/h5,8-9H,3-4H2,1-2H3	InChI=1S/C7H13NO/c1-6(2)4-7(6,9)5-3-8-5/h5,8-9H,3-4H2,1-2H3/t5-,7+/m1/s1
