18
gdb 107072	3.46314	1.04988	0.89202	0.8219	76.51	-0.2516	0.0193	0.271	1332.0233	0.146183	-439.046255	-439.037141	-439.036197	-439.080695	32.997	
C	-0.1671647628	 1.3674961231	 0.0031803857	-0.339804
N	-0.1024588168	-0.0864654332	 0.027830884	-0.344063
C	-1.1582610957	-0.7476231132	-0.0451578524	 0.486921
O	-2.4973321946	-0.3168629306	-0.1291270086	-0.329839
C	-2.9437031822	-1.6987810278	 0.0230850258	 0.442475
C	-4.1087513688	-1.9145594185	 0.9322608907	-0.174724
O	-5.3078764262	-1.3831309876	 0.3953248997	-0.407119
C	-2.4885379589	-2.4759233271	-1.1575123694	-0.325968
C	-1.5124907075	-2.1948502102	-0.0048133896	-0.300291
H	 0.364792603	 1.7627101782	 0.8751238676	 0.128347
H	 0.3602249528	 1.7333339198	-0.8848067371	 0.130525
H	-1.1864867066	 1.770610215	-0.0034164984	 0.124739
H	-4.2724548962	-2.9887370834	 1.062986222	 0.120398
H	-3.882717074	-1.4836737534	 1.919128612	 0.104958
H	-5.1696999036	-0.4375185578	 0.2710599863	 0.295982
H	-2.8262550809	-3.5067671013	-1.2061252834	 0.130345
H	-2.3590005986	-1.982460889	-2.1151478352	 0.132697
H	-1.0065567725	-2.9716749331	 0.5494396704	 0.124419
64.1763	99.7281	108.5543	159.4924	211.1238	277.1839	334.6475	376.7854	403.6703	460.1439	496.9618	661.499	702.2055	764.9717	856.2141	881.1104	904.1911	960.0545	979.3422	1003.1327	1018.6602	1061.108	1067.0015	1074.8975	1099.1915	1133.5869	1157.3056	1184.945	1245.2739	1282.5203	1381.7469	1387.716	1436.3698	1441.0191	1488.4863	1492.6712	1493.7907	1498.7305	1857.3547	2996.5682	3018.5728	3084.6471	3087.002	3089.7323	3126.9394	3218.7714	3229.8148	3807.47
CN=C1OC2(CO)CC12	CN=C1O[C@@]2(CO)C[C@@H]12	
InChI=1S/C6H9NO2/c1-7-5-4-2-6(4,3-8)9-5/h4,8H,2-3H2,1H3	InChI=1S/C6H9NO2/c1-7-5-4-2-6(4,3-8)9-5/h4,8H,2-3H2,1H3/t4-,6+/m0/s1
