20
gdb 118213	4.26281	0.64552	0.5836	6.8421	72.48	-0.2463	0.0303	0.2766	1839.6925	0.170357	-477.452706	-477.442548	-477.441604	-477.488727	36.268	
N	-0.1759218128	 0.8708138407	-0.0683847508	-0.526169
H	-0.4080554303	-0.1125209835	-0.1562554376	 0.248707
H	 0.8374030765	 0.9458137465	-0.1205308964	 0.241856
H	-1.0223678423	 2.0959431414	-1.0265602912	 0.313687
C	-0.6673400097	 1.4325138317	 1.2122137588	-0.012823
C	 0.0750046846	 0.9181688132	 2.453922141	-0.166331
C	-0.0691794155	-0.5808900407	 2.6924423514	-0.08515
O	 0.6594246015	-0.8959702148	 3.8659743589	-0.41502
C	-0.6064296421	 2.9685239516	 1.1251802495	-0.330041
C	-1.4707593435	 3.6108084335	 0.0311319582	 0.391869
O	-1.5352790086	 2.9395267273	-1.126160825	-0.372869
O	-2.0351372776	 4.6607140838	 0.1942357986	-0.332349
H	-1.7221841179	 1.135566345	 1.2836946918	 0.104731
H	 1.1428261442	 1.1621053061	 2.3737113855	 0.105015
H	-0.2973381614	 1.4403008153	 3.3424117181	 0.120574
H	-1.1365228792	-0.8368965838	 2.799738211	 0.091318
H	 0.3154767678	-1.1450028736	 1.8265294498	 0.073498
H	 0.5673143384	-1.8375767449	 4.0384491033	 0.289866
H	-0.910691412	 3.4185442737	 2.0716435391	 0.136802
H	 0.4348835298	 3.2752491617	 0.950198856	 0.122831
65.3412	76.4067	92.0457	123.2758	153.1862	268.1737	272.554	305.3497	339.6115	384.0099	415.8318	466.8404	538.3005	612.4101	704.0036	794.7832	866.1113	877.0618	923.4774	947.8736	975.9914	1005.8182	1034.8894	1074.7867	1085.7452	1142.6884	1153.4576	1212.3956	1239.7512	1272.8224	1291.2974	1297.2967	1327.5919	1342.1621	1380.905	1411.961	1460.0728	1466.0467	1487.2435	1500.4254	1529.326	1647.2562	1858.8335	2954.1635	2978.7109	3014.4972	3021.7205	3035.0082	3077.7507	3122.3791	3250.1067	3487.846	3580.4376	3830.1184
[NH3+]C(CCO)CC([O-])=O	N[C@@H](CCO)CC(=O)O	
InChI=1S/C5H11NO3/c6-4(1-2-7)3-5(8)9/h4,7H,1-3,6H2,(H,8,9)	InChI=1S/C5H11NO3/c6-4(1-2-7)3-5(8)9/h4,7H,1-3,6H2,(H,8,9)/t4-/m0/s1
