18
gdb 40274	3.10521	1.47359	1.13491	1.4041	75.05	-0.239	0.0171	0.2561	1086.9017	0.149435	-439.070221	-439.062626	-439.061682	-439.102457	29.557	
C	-0.2691998569	 1.4921250719	 0.0170470052	-0.30263
C	 1.1972800869	 1.1660008041	 0.0479678989	-0.290711
C	 0.1740789904	 0.0428410628	 0.0124423207	 0.365085
C	-0.0802945914	-0.7319819835	 1.2851245996	-0.177074
O	 0.7445010323	-1.8848921272	 1.4086079552	-0.21286
C	 0.3033751023	-2.9494841256	 0.6464405484	 0.01898
O	 0.6409308404	-2.890662331	-0.7374816798	-0.226366
C	 0.3013186832	-1.8207127944	-1.5087265456	 0.103967
N	 0.0747885681	-0.6060445036	-1.2532439471	-0.30827
H	-0.7332538746	 1.8830325958	 0.9165842696	 0.110912
H	-0.6857370928	 1.8594636884	-0.9125278657	 0.126769
H	 1.7711622465	 1.32452023	-0.8562628357	 0.127395
H	 1.7471979276	 1.3110964487	 0.9714292132	 0.118622
H	 0.1299640679	-0.1051510782	 2.1560448758	 0.109312
H	-1.1377957209	-1.03954476	 1.331504874	 0.09668
H	 0.8025632266	-3.8495746246	 1.0086857733	 0.126064
H	-0.7916188696	-3.0549538118	 0.7244320324	 0.09343
H	 0.2833262641	-2.1459805018	-2.5485716224	 0.120696
79.2114	139.0145	263.9779	302.3383	321.1865	349.5349	456.4716	471.2343	576.3062	589.3929	730.9433	777.1975	796.6908	867.1093	926.76	931.5438	940.9355	957.6482	988.26	993.0929	1047.597	1060.7123	1082.7599	1089.0135	1153.537	1193.6667	1211.4517	1266.0162	1313.8326	1320.9795	1353.8736	1407.2807	1439.7803	1454.1286	1457.097	1484.5333	1494.5435	1508.0526	1755.7773	2964.112	2975.59	3089.0258	3121.8393	3136.7578	3141.5286	3143.2333	3227.4466	3241.1854
C1CC11COCOC=N1	C1CC21COCOC=N2	
InChI=1S/C6H9NO2/c1-2-6(1)3-8-5-9-4-7-6/h4H,1-3,5H2	InChI=1S/C6H9NO2/c1-2-6(1)3-8-5-9-4-7-6/h4H,1-3,5H2
