23
gdb 76692	3.00998	0.77089	0.72372	0.9251	92.29	-0.2528	0.0565	0.3092	1695.8651	0.203409	-351.116306	-351.105513	-351.104569	-351.15257	39.575	
C	-0.2698216669	 0.9891422233	-1.714005255	-0.408902
C	-0.0191421277	-0.2122417766	-0.8257337676	-0.016275
C	 1.369262822	-0.6394139431	-0.3915127427	-0.049138
C	 2.628243051	 0.0979722526	-0.8001627443	-0.404378
C	 0.3903724832	-0.1001419586	 0.633402617	-0.023564
C	 0.5820449515	 1.2242465077	 1.3432622206	-0.203099
C	-0.7444826116	 1.7609208434	 1.9282418072	-0.350552
C	-0.5814444628	 3.016336408	 2.6506147302	 0.291503
C	-0.4153911188	 4.0518194101	 3.2385654369	-0.438463
H	 0.3907234481	 1.8304529728	-1.4916881186	 0.11827
H	-0.1206377784	 0.7297528213	-2.7682342527	 0.117121
H	-1.3004224787	 1.3463784746	-1.6080572938	 0.116179
H	-0.6973292665	-1.0352014841	-1.0398881895	 0.078778
H	 1.5163273323	-1.7162023847	-0.3452896398	 0.079457
H	 2.4879856736	 1.1791416131	-0.8652779496	 0.116525
H	 3.43628665	-0.0829545604	-0.0824525948	 0.117239
H	 2.9768665725	-0.2449242964	-1.7807866538	 0.115655
H	-0.0451309924	-0.8563530098	 1.2847493588	 0.075907
H	 1.3029914905	 1.1068725698	 2.161269419	 0.108756
H	 1.0003739829	 1.9839005933	 0.678063192	 0.107412
H	-1.4709512271	 1.8941118757	 1.1168429824	 0.13333
H	-1.1764551825	 1.0064722502	 2.5989615033	 0.127018
H	-0.2825335839	 4.9660110378	 3.7615767746	 0.191221
60.4169	75.2533	88.3257	161.1141	173.7766	195.5776	220.5019	273.9275	282.0627	351.2487	449.4226	463.9674	534.2118	551.9331	614.5149	633.9691	737.1815	769.1843	779.0119	852.8379	933.6217	936.9485	978.8434	1012.6312	1033.3194	1041.0741	1053.6143	1110.7003	1136.6292	1149.4158	1161.9613	1189.304	1221.009	1272.4997	1279.9513	1313.7863	1360.1007	1378.529	1401.7211	1418.5148	1424.9848	1455.4269	1472.0828	1486.4772	1494.0901	1499.3791	1503.5931	1517.7323	2237.3838	3019.3084	3030.1197	3033.155	3037.7862	3052.8475	3083.6616	3085.7659	3092.3917	3105.6113	3110.9832	3119.3356	3124.4607	3138.9319	3508.026
CC1C(C)C1CCC#C	C[C@H]1[C@@H](C)[C@H]1CCC#C	
InChI=1S/C9H14/c1-4-5-6-9-7(2)8(9)3/h1,7-9H,5-6H2,2-3H3	InChI=1S/C9H14/c1-4-5-6-9-7(2)8(9)3/h1,7-9H,5-6H2,2-3H3/t7-,8+,9-
