18
gdb 38450	4.03012	1.28136	1.19361	1.717	70.68	-0.239	0.0678	0.3067	1070.6077	0.148943	-439.027906	-439.020522	-439.019578	-439.060391	28.39	
C	 0.1149402671	 1.4107686275	-0.0048209349	-0.246201
C	 1.3297139712	 0.5673421245	 0.0026551906	-0.107947
N	-0.0528742535	-0.0494338752	 0.0812397706	-0.12197
C	 0.1460512068	-0.5572843408	-1.3234483275	-0.231945
C	 1.5946145671	-0.0091910613	-1.390897481	 0.392592
C	 2.0960141094	 0.9346788925	-2.5112578644	-0.177874
O	 3.1598148684	 0.229706133	-3.1344726291	-0.234337
C	 3.6554106245	-0.6203050597	-2.1334484149	 0.007008
O	 2.5355889012	-1.0757041099	-1.4082220188	-0.284424
H	-0.1441167718	 1.9264146486	 0.9148276836	 0.127288
H	-0.1913538016	 1.9288222927	-0.9123888153	 0.11121
H	 2.0272849265	 0.5281050387	 0.833177201	 0.103579
H	 0.1431110699	-1.6480394905	-1.3350889105	 0.132281
H	-0.5817568073	-0.1715103174	-2.0455564377	 0.101309
H	 1.3384455986	 1.1502695453	-3.2684770078	 0.120576
H	 2.4464125549	 1.8843358697	-2.078889477	 0.102112
H	 4.1567725108	-1.4741704062	-2.5962929106	 0.124476
H	 4.3548116177	-0.0784757115	-1.4692912662	 0.082266
47.0256	139.3991	215.5733	278.6088	405.3435	415.6378	437.5186	503.6283	739.0588	745.2979	779.591	796.2171	858.7889	885.5712	916.1592	966.2256	979.6255	1007.2379	1042.3943	1051.4128	1096.18	1110.8867	1112.3142	1145.6888	1161.7312	1177.8059	1193.5554	1208.8964	1227.6158	1256.2569	1261.6799	1286.8791	1356.781	1363.9681	1429.374	1480.6131	1503.3126	1512.8632	1541.543	2926.3605	2989.4649	3043.5951	3093.8244	3096.8427	3099.3771	3131.3479	3165.8509	3193.5941
C1C2N1CC21COCO1	C1[C@H]2N1C[C@]12COCO1	
InChI=1S/C6H9NO2/c1-5-6(2-7(1)5)3-8-4-9-6/h5H,1-4H2	InChI=1S/C6H9NO2/c1-5-6(2-7(1)5)3-8-4-9-6/h5H,1-4H2/t5-,6-,7?/m1/s1
