16
gdb 28553	2.39634	1.78824	1.03167	1.8744	75.02	-0.199	-0.0373	0.1617	1101.9559	0.125457	-434.136325	-434.128045	-434.127101	-434.168858	31.065	
C	-0.0344655317	 1.5024800006	 0.0687474745	-0.507624
C	-0.0239465267	 0.0174512128	-0.0319935993	 0.280972
C	-0.0127248243	-0.8241715712	-1.0922069358	-0.163054
N	-0.0014002023	-2.1657782116	-0.7153613688	-0.353428
C	-0.0091422369	-2.1546555494	 0.5864140738	 0.455528
N	-0.0675771369	-3.2323365955	 1.4125702931	-0.591815
N	-0.017175962	-0.8428589842	 1.1006088498	-0.158455
C	 0.0515020747	-0.4772829934	 2.4262733014	 0.174002
O	 0.1223618859	-1.2540128101	 3.3546294085	-0.321403
H	 0.8489258286	 1.9015597335	 0.5838750664	 0.131392
H	-0.0415749631	 1.9233137349	-0.9395942797	 0.143703
H	-0.9197036703	 1.8870777166	 0.5912590045	 0.132782
H	-0.0122447836	-0.5489422367	-2.1366718222	 0.114437
H	 0.1734685556	-4.1117589317	 0.9856442918	 0.26771
H	 0.1759283623	-3.0771501115	 2.3796654716	 0.283066
H	 0.0393102708	 0.6157540169	 2.5634778405	 0.112184
118.9504	183.1174	208.925	236.2123	258.6877	294.1594	337.1193	419.7538	440.0761	518.9766	542.9558	615.3175	616.5844	746.1974	776.629	809.093	863.3867	1005.9667	1034.8113	1049.7259	1068.0768	1095.4709	1204.3798	1273.6193	1311.6827	1349.2568	1420.238	1427.5238	1448.8256	1477.7909	1497.8526	1576.7817	1653.1617	1676.135	1792.1634	3008.4126	3016.8607	3054.0681	3119.8679	3244.7202	3568.4711	3707.092
CC1=CN=C(N)N1C=O	Cc1cnc(N)n1C=O	
InChI=1S/C5H7N3O/c1-4-2-7-5(6)8(4)3-9/h2-3H,1H3,(H2,6,7)	InChI=1S/C5H7N3O/c1-4-2-7-5(6)8(4)3-9/h2-3H,1H3,(H2,6,7)
