18
gdb 13678	5.12547	0.94614	0.91125	4.4017	69.65	-0.2734	0.0112	0.2845	1301.7209	0.152424	-384.950015	-384.941232	-384.940288	-384.984503	30.764	
C	 0.1493041167	 1.4120234799	-0.2999729341	-0.408312
C	 0.1692311627	-0.0611323205	 0.0528089693	 0.000765
C	 1.4648863663	-0.7836500547	 0.3258014998	-0.293882
C	 0.465826403	-0.5837635671	 1.4429430602	-0.002104
C	 0.7725428709	 0.3285828516	 2.6005391803	-0.11602
O	 1.4690883069	-0.3872356064	 3.6373740218	-0.174323
C	 2.8033204044	-0.2455755388	 3.7120936091	 0.177855
O	 3.4780644923	-0.8467229129	 4.4929480038	-0.27667
H	 0.9489500587	 1.9688469625	 0.1971063104	 0.115613
H	 0.2862833144	 1.5463966421	-1.3782623691	 0.125411
H	-0.8033624645	 1.8790924682	-0.0268125918	 0.121816
H	-0.5792648414	-0.6402396315	-0.4819464342	 0.093042
H	 1.6115722645	-1.7832731169	-0.0670855933	 0.12106
H	 2.3691560322	-0.1816574339	 0.3499378908	 0.110226
H	-0.0953830409	-1.4638934189	 1.7437931358	 0.101735
H	 1.3682714927	 1.1939592923	 2.2878357753	 0.107559
H	-0.1417577325	 0.7007291756	 3.0715995275	 0.126605
H	 3.1982485038	 0.4941770095	 2.9869665784	 0.069626
48.5791	54.6124	137.8064	171.9548	216.0644	258.6701	353.751	366.2373	424.488	481.8423	678.235	762.176	832.2397	881.1439	885.6937	932.0338	996.1143	1025.5292	1046.5541	1063.1712	1072.6992	1110.4599	1140.3209	1153.4742	1196.8599	1215.1776	1249.0603	1311.0025	1373.7922	1401.8994	1417.4413	1425.1758	1443.7446	1486.3888	1493.6457	1503.3275	1507.912	1866.164	2934.4108	3030.5985	3038.7853	3090.5257	3092.7687	3104.5137	3125.2547	3138.1235	3153.1703	3212.7934
CC1CC1COC=O	C[C@H]1C[C@H]1COC=O	
InChI=1S/C6H10O2/c1-5-2-6(5)3-8-4-7/h4-6H,2-3H2,1H3	InChI=1S/C6H10O2/c1-5-2-6(5)3-8-4-7/h4-6H,2-3H2,1H3/t5-,6-/m0/s1
