14
gdb 5423	3.44762	1.85377	1.21466	3.2307	67.18	-0.2373	-0.0422	0.1951	931.2648	0.106934	-382.590938	-382.583649	-382.582704	-382.622781	26.026	
C	 0.0886732377	 1.4872720265	 0.0554754537	-0.493023
C	-0.0584897024	 0.0086725707	 0.0484124677	 0.301198
C	-1.1331198151	-0.8430948703	-0.0522880998	 0.071838
C	-2.5379477873	-0.4810471727	-0.191214596	 0.0668
O	-3.4451430806	-1.280814981	-0.2758262285	-0.281023
C	-0.597121578	-2.1801411681	 0.0066363345	-0.271379
C	 0.7384976187	-2.0396286883	 0.1363257818	-0.010215
O	 1.0811802993	-0.7106482003	 0.1632181849	-0.179452
H	 0.7252620819	 1.8212614381	-0.7712041505	 0.151494
H	-0.8840779373	 1.9717539326	-0.0418467313	 0.147006
H	 0.5537449622	 1.829936003	 0.9863259012	 0.151494
H	-2.7426476177	 0.6123743943	-0.2165957573	 0.060375
H	-1.1661303186	-3.0938433619	-0.0443998884	 0.140289
H	 1.5623588472	-2.7282649624	 0.2201504478	 0.144598
99.5058	146.2376	186.1302	216.3449	303.948	322.4266	525.216	621.6935	637.5408	665.6102	762.8238	795.2985	859.9057	913.3396	966.0849	1027.8232	1054.6667	1059.9274	1129.2979	1153.8371	1255.6579	1305.515	1412.6458	1433.6493	1445.573	1470.299	1480.8468	1562.9051	1629.8465	1783.3055	2877.3337	3037.2547	3089.987	3141.41	3270.8916	3293.7497
CC1=C(C=O)C=CO1	Cc1c(C=O)cco1	
InChI=1S/C6H6O2/c1-5-6(4-7)2-3-8-5/h2-4H,1H3	InChI=1S/C6H6O2/c1-5-6(4-7)2-3-8-5/h2-4H,1H3
