19
gdb 36773	5.65092	0.62845	0.59374	1.9138	78.67	-0.2465	0.0279	0.2744	1837.1003	0.156873	-422.947531	-422.937804	-422.93686	-422.984017	33.63	
C	 0.0073622422	-1.1312785721	-0.2609837055	-0.412049
C	 0.0342969454	 0.0623813405	-0.1345703299	 0.280201
C	 0.0322504072	 1.5109496501	 0.0189779951	-0.205669
O	 1.3598832207	 1.9993322517	 0.0260549476	-0.248795
C	 1.4224163004	 3.4043486699	 0.1681739793	-0.059011
C	 2.8800952995	 3.8149733405	 0.1314999644	-0.047498
C	 3.5586968569	 3.7308097472	-1.2521078955	-0.070191
O	 3.6362748861	 5.1703997142	-1.3497181507	-0.271929
C	 3.1318278639	 5.3321102773	-0.0098511745	-0.09099
H	-0.0097334972	-2.1871811359	-0.3731404661	 0.202003
H	-0.5434861493	 1.9705578942	-0.8027954843	 0.120484
H	-0.4839550532	 1.7843335353	 0.9554245595	 0.119274
H	 0.8681251714	 3.9005545656	-0.6479450573	 0.094213
H	 0.9558987637	 3.7200234048	 1.1177723037	 0.089619
H	 3.4218159529	 3.3223899173	 0.9412367036	 0.090228
H	 4.5525130004	 3.2665104635	-1.2577047894	 0.101996
H	 2.9551028479	 3.2905167359	-2.0543905914	 0.108578
H	 2.2423455354	 5.9755176603	 0.0227551102	 0.098704
H	 3.8891625857	 5.7435544899	 0.6696684413	 0.100829
38.0915	56.1654	83.9472	103.7301	141.5625	206.7048	310.2832	334.3182	367.0494	441.44	564.5102	610.0229	678.238	799.3293	871.4669	885.6984	923.7728	971.7259	979.9658	1011.9833	1032.4254	1038.1796	1078.8452	1119.1001	1144.3605	1152.1667	1160.5715	1200.3633	1242.9445	1255.9472	1279.7652	1308.7016	1345.5028	1382.5611	1395.9979	1449.0582	1496.9434	1511.5137	1522.6324	1539.0231	2249.0203	2942.681	2955.0852	2969.8034	2975.021	3002.4373	3020.4802	3043.1701	3062.8026	3096.5302	3505.8615
C#CCOCC1COC1	C#CCOCC1COC1	
InChI=1S/C7H10O2/c1-2-3-8-4-7-5-9-6-7/h1,7H,3-6H2	InChI=1S/C7H10O2/c1-2-3-8-4-7-5-9-6-7/h1,7H,3-6H2
