16
gdb 6674	7.488	0.75466	0.70392	2.7282	63.24	-0.2605	-0.033	0.2274	1527.0882	0.126907	-420.923125	-420.91368	-420.912736	-420.959689	30.451	
C	-0.1843978648	 1.4632070346	-0.0389543216	-0.479014
C	 0.0652198166	-0.021196249	-0.1414983625	 0.426945
O	 1.11030628	-0.5457661265	-0.4275871926	-0.343815
O	-1.0641501804	-0.7154744101	 0.1357065344	-0.239762
C	-0.9393928705	-2.144560703	 0.0770774325	-0.068253
C	-2.3080190742	-2.7318587329	 0.4057798354	-0.288746
C	-2.351497957	-4.2265105131	 0.1663358896	 0.154494
O	-2.7195319085	-5.039247018	 0.9727861195	-0.228054
H	-0.5189216245	 1.7180241797	 0.970665757	 0.152745
H	 0.7328363232	 2.0013636508	-0.2740091344	 0.151513
H	-0.9796297442	 1.7593069461	-0.7288503032	 0.151158
H	-0.6022731243	-2.4382193235	-0.9231611261	 0.126659
H	-0.1753033099	-2.4723220201	 0.7886933979	 0.136444
H	-2.5988826612	-2.5244843167	 1.4380968368	 0.134518
H	-3.0490000138	-2.2699451187	-0.2619932031	 0.134389
H	-2.0183956165	-4.5390370695	-0.8512557795	 0.078778
39.8422	49.7754	65.7311	69.6673	137.4124	187.8837	291.5508	305.7445	458.859	516.4286	606.5485	645.5341	773.8325	861.5584	910.1588	979.161	1020.2927	1065.038	1072.4255	1110.9757	1136.9187	1229.6656	1262.583	1276.9232	1303.0296	1390.9256	1417.0772	1432.8412	1466.4447	1469.1552	1475.8951	1516.648	1829.4804	1840.7618	2858.3225	3023.5318	3046.5501	3058.0205	3089.4343	3119.4772	3122.7149	3170.8878
CC(=O)OCCC=O	CC(=O)OCCC=O	
InChI=1S/C5H8O3/c1-5(7)8-4-2-3-6/h3H,2,4H2,1H3	InChI=1S/C5H8O3/c1-5(7)8-4-2-3-6/h3H,2,4H2,1H3
