18
gdb 108075	2.72877	1.61358	1.25261	2.4182	70.94	-0.2245	0.054	0.2785	1029.0786	0.147817	-438.991755	-438.983722	-438.982778	-439.024271	31.466	
O	 0.1065291342	 1.205947127	-0.533746161	-0.423647
C	-0.0637079673	-0.0279824148	 0.1493749392	-0.189842
C	-1.4951811004	-0.4816335571	 0.1668332234	 0.266382
C	-2.663218894	-0.136090473	 1.0715190212	-0.22773
N	-3.420338102	-1.3198102204	 0.4859438976	-0.166398
C	-3.6537770686	-0.8470375027	-0.9403716681	-0.236785
C	-2.1551852806	-0.9460783817	-1.1483956305	 0.313132
O	-1.3992581361	-0.8568002762	-2.3023963365	-0.468448
C	-2.0561046191	-1.8807923894	 0.0271880808	-0.182669
H	-0.1500866021	 1.0447734043	-1.4490890187	 0.294611
H	 0.5622334472	-0.8177193448	-0.2932482143	 0.092164
H	 0.2951581463	 0.136341933	 1.1710897341	 0.110769
H	-2.4551347097	-0.3258783146	 2.1283907405	 0.108181
H	-3.171152309	 0.8282477971	 0.9622399831	 0.104412
H	-4.2148859147	-1.611808313	-1.4866060029	 0.102063
H	-4.1599486984	 0.1205467696	-1.0288041945	 0.105092
H	-1.6255811075	-1.5877970171	-2.8879645142	 0.294633
H	-1.6811529783	-2.8781145063	 0.2092169407	 0.104078
72.1307	141.0036	231.9767	278.9825	322.955	383.1028	429.1787	447.0878	464.3378	483.2132	643.8424	686.9112	720.3117	818.5115	841.2124	842.683	897.9787	919.311	935.4273	1016.4667	1049.4513	1073.3482	1088.5927	1100.304	1113.5354	1142.2322	1175.8277	1198.91	1236.2791	1271.9242	1284.6802	1292.5094	1365.5712	1395.3285	1425.6893	1438.1037	1491.4757	1504.1531	1526.089	2987.9338	3033.2375	3042.115	3069.7631	3090.7084	3097.0458	3215.7957	3796.704	3800.2197
OCC12CN3CC1(O)C23	OC[C@@]12CN3C[C@]1(O)[C@@H]23	
InChI=1S/C6H9NO2/c8-3-5-1-7-2-6(5,9)4(5)7/h4,8-9H,1-3H2	InChI=1S/C6H9NO2/c8-3-5-1-7-2-6(5,9)4(5)7/h4,8-9H,1-3H2/t4-,5-,6+/m1/s1
