17
gdb 72566	2.41108	1.96286	1.49227	0.9571	66.76	-0.2429	-0.0266	0.2163	932.5542	0.136203	-458.992438	-458.984906	-458.983962	-459.024281	29.263	
C	-0.0820745374	 1.4870463832	 0.030523404	-0.490848
C	 0.0156362384	-0.0124556526	-0.0214601995	 0.223989
C	 0.6553074339	-0.6667904466	-1.2735453702	-0.11902
O	 0.1153882331	-1.9958278572	-1.2394232043	-0.274287
C	-0.757148866	-2.0011528026	-0.1111580343	 0.175939
C	 0.0804159245	-2.1217452097	 1.1726021839	-0.357995
C	 0.6825498268	-0.7075943089	 1.1878402122	 0.401867
O	 1.4875176749	-0.2365703332	 1.9435016104	-0.319005
O	-1.2657685452	-0.6806001003	-0.0321030027	-0.277357
H	 0.917298521	 1.9118151458	 0.1581327343	 0.144944
H	-0.5271348688	 1.8856050805	-0.8848227187	 0.129779
H	-0.6908562829	 1.7981232097	 0.883085243	 0.141755
H	 0.3302452309	-0.1554485461	-2.1871457905	 0.11443
H	 1.7494489185	-0.6955217004	-1.2397887083	 0.121734
H	-1.5586562945	-2.7221535349	-0.2643552938	 0.103007
H	-0.5518392505	-2.2804036455	 2.0519307214	 0.13976
H	 0.8527302331	-2.8925081112	 1.1428697732	 0.141308
115.2052	161.7062	216.1862	265.6591	306.1281	383.8108	470.2598	515.7542	612.5499	617.981	656.64	705.6777	821.0588	844.928	870.2348	891.7651	954.1782	970.1535	998.4219	1008.7469	1030.6468	1115.7936	1128.8811	1156.3762	1175.2836	1227.5841	1259.2272	1285.9067	1325.4775	1338.9504	1383.7967	1416.3495	1439.5416	1479.5671	1492.7903	1516.6536	1868.1205	3028.672	3052.4613	3065.7413	3080.7996	3129.3721	3129.7327	3130.6838	3140.6664
CC12COC(CC1=O)O2	C[C@@]12CO[C@@H](CC1=O)O2	
InChI=1S/C6H8O3/c1-6-3-8-5(9-6)2-4(6)7/h5H,2-3H2,1H3	InChI=1S/C6H8O3/c1-6-3-8-5(9-6)2-4(6)7/h5H,2-3H2,1H3/t5-,6-/m1/s1
