18
gdb 81658	2.8333	1.60023	1.32315	1.2107	72.26	-0.2389	0.0249	0.2638	1000.0186	0.149685	-439.0709	-439.063302	-439.062358	-439.102893	29.632	
O	 0.029139356	 1.2687175246	 0.1850357674	-0.444685
C	 0.0013202762	-0.1294073458	-0.0036266015	 0.125802
C	-1.4682564838	-0.5797998904	-0.1746543382	-0.045109
C	-1.2973093361	-0.4412533358	-1.711142554	-0.245435
C	 0.2388018192	-0.5753441122	-1.4848341643	-0.028725
N	 0.7323193312	-1.9256740746	-1.5877803293	-0.26158
C	 0.1796021166	-2.9098084186	-1.020331811	 0.132049
O	-0.9192615435	-3.0525255434	-0.2349419102	-0.24153
C	-1.7369946823	-1.9948530598	 0.297759579	-0.084724
H	 0.9375259499	 1.5661171856	 0.066787702	 0.285794
H	 0.6073567449	-0.6570208184	 0.7471774993	 0.068087
H	-2.1967583726	 0.077959947	 0.3080433063	 0.089627
H	-1.7611190628	-1.1955210288	-2.3508780217	 0.105145
H	-1.5712070453	 0.5563411496	-2.0582362965	 0.11451
H	 0.8806426467	 0.0863279844	-2.0733471273	 0.068619
H	 0.6054053349	-3.9039992517	-1.1533348061	 0.122803
H	-1.6283089505	-2.0484628019	 1.3884450934	 0.11827
H	-2.7663253187	-2.2761118999	 0.0491433526	 0.121081
87.8118	198.4923	246.3756	293.5144	327.6832	331.9933	375.5081	435.9397	565.172	597.034	757.1604	823.8574	833.5666	862.2298	889.4586	920.7252	949.4317	975.5669	993.8677	1025.8953	1095.5847	1102.1447	1118.8627	1140.2622	1156.4011	1193.0782	1219.2992	1249.7993	1268.5058	1307.7257	1313.3417	1332.2742	1346.2424	1405.9149	1429.673	1435.8545	1479.0082	1501.6868	1733.0775	2995.0978	3025.2037	3059.4319	3069.0251	3070.3362	3078.5266	3132.4191	3144.5587	3809.3403
OC1C2CC1N=COC2	O[C@H]1[C@H]2C[C@@H]1N=COC2	
InChI=1S/C6H9NO2/c8-6-4-1-5(6)7-3-9-2-4/h3-6,8H,1-2H2	InChI=1S/C6H9NO2/c8-6-4-1-5(6)7-3-9-2-4/h3-6,8H,1-2H2/t4-,5-,6-/m0/s1
