19
gdb 106469	3.18854	1.4401	1.25728	2.0716	74.81	-0.2374	0.003	0.2404	1054.2174	0.160621	-423.00985	-423.002184	-423.00124	-423.041778	30.949	
O	 0.0161751133	 1.399927434	 0.206662933	-0.419678
C	 0.0513394478	 0.0128289133	-0.0808068128	-0.142702
C	-1.3468941143	-0.5707327354	-0.1032844796	 0.37513
C	-1.5635959889	-2.0946532704	 0.0485621475	-0.296024
C	-2.7286106121	-1.6146435349	 0.9473459761	 0.043468
O	-1.9898980562	-0.3756419241	 1.2029369284	-0.342523
C	-3.928039419	-1.278678714	 0.0850918633	-0.059326
C	-3.6911877763	-0.4663275426	-0.9445409379	-0.065467
C	-2.2789903812	 0.0297507157	-1.1729132395	-0.2893
H	-0.4759599665	 1.490367839	 1.0318153942	 0.297707
H	 0.5304209362	-0.0980820781	-1.0601716432	 0.106836
H	 0.6544248045	-0.5344970104	 0.6595729981	 0.088332
H	-1.8058691667	-2.6866451588	-0.835069047	 0.102595
H	-0.7568753395	-2.5559261918	 0.622734156	 0.103906
H	-2.9620630745	-2.151725889	 1.868197723	 0.076547
H	-4.9068350126	-1.6859296434	 0.3132540476	 0.091989
H	-4.4740084779	-0.1403944458	-1.6231077723	 0.096104
H	-2.2290588047	 1.1234806195	-1.1179367561	 0.12693
H	-1.9289219713	-0.2475578728	-2.1769493388	 0.105477
94.9257	163.4723	268.8649	302.3663	341.6712	437.9571	439.9424	467.2057	510.6437	549.3352	676.993	706.3637	740.9133	852.9187	863.5435	902.22	913.1706	942.5367	949.199	972.6891	990.2769	1009.0947	1062.6742	1067.5047	1086.5442	1163.5562	1174.2336	1205.2614	1220.1804	1240.1453	1264.1296	1283.7638	1335.0112	1364.0801	1381.1239	1394.9601	1431.9544	1465.9463	1485.7807	1493.4557	1694.7885	2988.5226	3017.0616	3062.7999	3068.7129	3069.6224	3099.0062	3136.1454	3166.4281	3195.7305	3789.1752
OCC12CC(O1)C=CC2	OC[C@@]12C[C@@H](O1)C=CC2	
InChI=1S/C7H10O2/c8-5-7-3-1-2-6(4-7)9-7/h1-2,6,8H,3-5H2	InChI=1S/C7H10O2/c8-5-7-3-1-2-6(4-7)9-7/h1-2,6,8H,3-5H2/t6-,7+/m0/s1
