21
gdb 58449	2.53551	1.29405	1.08331	4.227	78.12	-0.2691	0.0143	0.2835	1226.5083	0.180484	-424.272314	-424.262623	-424.261679	-424.306857	36.544	
C	-0.058083028	 1.6393658722	 0.0679315757	-0.401009
C	 0.0702550258	 0.112491967	-0.0757354364	-0.013786
C	 1.1028443365	-0.4113401783	 0.9354961151	-0.416512
C	-1.2985721397	-0.5854969398	 0.0309720525	 0.425455
C	-2.3508769669	-0.043107084	-0.9251316953	-0.448068
C	-1.306422024	-2.1305880175	 0.1538059664	-0.486333
C	-1.8417570087	-1.8641833606	 1.5576871818	 0.449734
O	-2.1899089064	-2.496266604	 2.5031609208	-0.32299
O	-1.819315668	-0.5021189969	 1.4259879711	-0.278755
H	 0.9325548398	 2.1029756796	 0.0521876724	 0.115391
H	-0.6428903647	 2.0892263219	-0.737859555	 0.116332
H	-0.5336479138	 1.8960052642	 1.0202675578	 0.137729
H	 0.4371585854	-0.109980964	-1.0881551367	 0.081302
H	 2.0529627892	 0.1127331088	 0.7974935819	 0.117916
H	 0.768471466	-0.2329803871	 1.9615152951	 0.141706
H	 1.3060807835	-1.4797318619	 0.8248548868	 0.115382
H	-1.9976909351	-0.1114598193	-1.9594811996	 0.124029
H	-3.2765419084	-0.618985956	-0.8394302137	 0.125371
H	-2.5854307729	 1.0007271005	-0.7085231713	 0.13981
H	-2.0113745824	-2.6484093141	-0.4990510451	 0.13676
H	-0.345873017	-2.6434612308	 0.1266526156	 0.140536
49.2876	86.8956	198.2171	218.1205	228.5338	255.753	295.9958	347.5759	380.6177	390.2535	427.3419	507.6036	530.358	569.4009	611.3246	793.181	841.2095	850.7937	917.4653	927.9549	952.2632	969.1243	979.4748	1034.2364	1087.0662	1096.8878	1112.982	1186.9482	1189.713	1228.102	1254.2845	1266.6943	1339.027	1363.7711	1399.5849	1413.1484	1421.6393	1456.1616	1484.3025	1489.6643	1494.6636	1503.1301	1511.9142	1521.3443	1933.4033	3004.9685	3041.8301	3045.0353	3048.8553	3094.7093	3108.6217	3113.1829	3114.8574	3119.027	3123.3304	3136.2411	3155.357
CC(C)C1(C)CC(=O)O1	CC(C)[C@@]1(C)CC(=O)O1	
InChI=1S/C7H12O2/c1-5(2)7(3)4-6(8)9-7/h5H,4H2,1-3H3	InChI=1S/C7H12O2/c1-5(2)7(3)4-6(8)9-7/h5H,4H2,1-3H3/t7-/m1/s1
