19
gdb 36892	4.76422	0.85406	0.83166	1.267	75.61	-0.2371	0.0765	0.3136	1426.0474	0.159092	-422.949604	-422.941436	-422.940492	-422.983586	30.456	
C	-0.2455825515	 1.6311936286	-0.0104512456	-0.268363
C	-0.2464291851	 0.1698921791	 0.372292528	 0.107607
C	-1.2404030043	-0.7789056358	-0.1409657015	-0.181215
O	 0.0888866702	-0.7598327872	-0.6653892808	-0.241434
C	 1.1671992493	 2.1579188614	-0.1677622339	-0.020254
C	 1.5563053178	 3.625811	-0.2241055857	-0.169415
C	 0.7646974488	 4.4227074695	 0.8067101208	-0.092031
O	 1.1055218462	 3.48096528	 1.86036354	-0.284561
C	 1.953577355	 2.7629571198	 0.9559258438	 0.082944
H	-0.8019896089	 1.7559171862	-0.9466383485	 0.100615
H	-0.7668171482	 2.1970496355	 0.7689247004	 0.118567
H	 0.2237183598	-0.0580476079	 1.3305738343	 0.096467
H	-1.5027069691	-1.6619729883	 0.440261867	 0.113137
H	-2.0155590071	-0.4261110397	-0.8207106648	 0.110951
H	 1.788324183	 1.5593550865	-0.8316382544	 0.106787
H	 2.1520004267	 4.0459656897	-1.0231496427	 0.099789
H	 1.2015388432	 5.4044359717	 1.0206593912	 0.111451
H	-0.3182042469	 4.5246093761	 0.6677876004	 0.105103
H	 2.909591931	 2.416350635	 1.3318677319	 0.103854
46.2531	69.5264	140.4516	196.6517	272.2844	375.0296	408.7995	487.663	598.9293	744.1747	777.0383	805.5992	809.1847	861.5326	886.5415	948.4663	956.6821	976.714	978.3139	1013.332	1039.5349	1058.3332	1080.1644	1094.5186	1103.3151	1137.7533	1157.3978	1164.8504	1170.0293	1185.3641	1259.4599	1263.696	1292.6415	1305.1888	1325.0612	1364.5119	1442.4235	1445.1085	1463.8698	1517.091	1530.0103	3023.91	3037.4231	3071.3929	3079.1646	3083.8053	3101.3397	3137.4609	3165.0267	3176.4945	3203.6185
C(C1CO1)C1C2COC12	C([C@H]1CO1)[C@H]1[C@H]2CO[C@@H]12	
InChI=1S/C7H10O2/c1(4-2-8-4)5-6-3-9-7(5)6/h4-7H,1-3H2	InChI=1S/C7H10O2/c1(4-2-8-4)5-6-3-9-7(5)6/h4-7H,1-3H2/t4-,5-,6+,7-/m0/s1
