15
gdb 6014	2.9233	1.75379	1.45215	4.5806	57.94	-0.2484	-0.0345	0.2139	899.7156	0.115287	-436.974764	-436.965524	-436.96458	-437.008772	32.408	
C	-0.002903294	 1.588572969	 0.0361767695	-0.398618
C	 0.0451551952	 0.066733216	-0.0017905967	 0.165921
O	 0.7730677799	-0.376214204	 1.149344858	-0.46494
C	-1.3637322878	-0.5477786865	 0.0629642532	 0.150528
O	-2.3830586768	 0.0741505787	 0.1588651824	-0.230832
C	 0.693552177	-0.4132871445	-1.3165316365	 0.349651
N	 2.0034692122	-0.748420404	-1.2077072528	-0.531576
O	 0.0424518379	-0.4747446444	-2.3423516475	-0.361297
H	 1.0112834109	 1.9951823112	 0.0616130378	 0.121277
H	-0.519108977	 1.9615540422	-0.8498900313	 0.155141
H	-0.5451437573	 1.9190926064	 0.923901758	 0.141689
H	 0.6885305325	-1.3358618651	 1.2158131487	 0.28787
H	-1.3574650429	-1.6642605224	 0.0685052235	 0.076919
H	 2.4844961536	-0.6074239372	-0.3351422243	 0.270179
H	 2.5164920967	-0.9925044652	-2.0388014319	 0.268087
56.4491	73.6517	178.4556	214.1409	235.8868	260.9069	272.0122	341.0259	372.9978	413.1954	427.1475	537.6062	613.2167	645.8458	743.3199	773.0825	883.215	961.323	1000.7655	1085.3129	1114.4009	1167.955	1174.9646	1342.539	1371.6593	1400.9563	1431.1498	1481.9631	1486.2759	1592.0352	1791.547	1854.849	2846.8031	3060.8139	3139.2904	3154.7368	3594.5193	3733.8334	3775.2698
CC(O)(C=O)C(N)=O	C[C@@](O)(C=O)C(=O)N	
InChI=1S/C4H7NO3/c1-4(8,2-6)3(5)7/h2,8H,1H3,(H2,5,7)	InChI=1S/C4H7NO3/c1-4(8,2-6)3(5)7/h2,8H,1H3,(H2,5,7)/t4-/m1/s1
