23
gdb 61589	4.31061	0.77727	0.74066	1.3536	85.94	-0.2588	0.0663	0.3251	1642.8025	0.205025	-388.260802	-388.250914	-388.24997	-388.296372	37.078	
O	-0.2604634807	 1.347060557	-0.0229351449	-0.426662
C	-0.1129282982	-0.0687234304	 0.0200504701	 0.097727
C	 0.6062304099	-0.6167218368	-1.2222978694	-0.240003
C	-0.0403388369	-0.2205042948	-2.5326789716	 0.049405
C	 0.3919613157	 1.0206330983	-3.2704365773	-0.250528
C	 0.7187547401	-0.3423281007	-3.8299494356	-0.283405
C	 0.5615130472	-0.5342017039	 1.304735432	 0.01779
C	 1.6694117491	 0.2689214694	 1.9406830611	-0.268024
C	 0.3150952098	 0.1826779803	 2.6029994979	-0.273683
H	 0.5685337768	 1.7209869031	-0.3378486411	 0.281356
H	-1.1440851729	-0.4495152254	 0.0188948103	 0.084361
H	 1.6533833498	-0.2793818577	-1.2061582429	 0.087819
H	 0.6426338202	-1.7113117062	-1.1384896642	 0.099041
H	-1.1024877167	-0.4476396152	-2.5869773459	 0.082731
H	-0.363490507	 1.6198561842	-3.7659953773	 0.113932
H	 1.2113379625	 1.6013129904	-2.8573786058	 0.096101
H	 1.7511420973	-0.674547025	-3.7839419308	 0.107803
H	 0.185535443	-0.6803037906	-4.7116489232	 0.110689
H	 0.6656779784	-1.6149251156	 1.3646250207	 0.07848
H	 2.5042137348	-0.263533864	 2.3825954391	 0.107804
H	 1.9375041184	 1.2210387029	 1.4945355406	 0.09655
H	-0.3053219473	 1.070370346	 2.5588342452	 0.125503
H	 0.2163175968	-0.4044802854	 3.5091955431	 0.105212
47.0512	68.5692	101.8262	134.3498	232.6082	252.1793	278.7931	315.595	330.4685	412.3003	518.0177	594.132	769.2621	776.8624	796.0705	802.2935	827.9649	845.0013	877.3306	913.2613	945.0701	961.8867	998.8829	1044.186	1046.8312	1058.1619	1066.3357	1077.9186	1085.067	1121.6486	1137.3509	1139.8381	1162.7503	1197.2603	1199.412	1225.4777	1229.0151	1241.3453	1292.3771	1331.808	1365.9338	1392.3841	1417.8483	1423.1116	1458.4066	1467.239	1479.7301	1502.7222	1506.7171	2996.5876	3009.6672	3040.8124	3124.8495	3129.8699	3130.8099	3133.9357	3134.0569	3140.4535	3203.5325	3210.5123	3218.8075	3230.7643	3820.3205
OC(CC1CC1)C1CC1	O[C@@H](CC1CC1)C1CC1	
InChI=1S/C8H14O/c9-8(7-3-4-7)5-6-1-2-6/h6-9H,1-5H2	InChI=1S/C8H14O/c9-8(7-3-4-7)5-6-1-2-6/h6-9H,1-5H2/t8-/m0/s1
