19
gdb 90380	2.53135	1.35722	1.16873	0.8105	82.36	-0.2414	0.0488	0.2902	1148.0927	0.157247	-385.828783	-385.819639	-385.818695	-385.86208	35.202	
C	 0.0017087049	 1.5583227396	-0.0153231674	-0.501325
C	 0.0781929542	 0.0600975897	-0.0269081813	 0.332683
C	 0.6266393624	-0.9204973195	-1.059064346	-0.114223
C	 1.2554906529	-1.7787144396	 0.0409871959	-0.273602
C	 0.6804282069	-0.7840263412	 1.1075378557	 0.057175
O	 1.665224858	-0.0262759538	 1.781390761	-0.438548
C	-0.8740023788	-0.806049427	-0.838362372	-0.276728
C	-1.67956188	-1.8585339616	-0.2859000613	 0.342159
C	-2.3549026965	-2.7390307793	 0.1806712266	-0.463334
H	 0.9536558765	 1.9865101073	 0.3099713093	 0.140572
H	-0.2308469113	 1.9471426253	-1.0120947145	 0.113949
H	-0.7765345962	 1.9107392437	 0.6716396802	 0.123729
H	 1.0475471071	-0.7243647708	-2.0388298104	 0.087746
H	 0.9323284441	-2.8222997297	 0.092967605	 0.10442
H	 2.3461163207	-1.7219627175	 0.0410352326	 0.103783
H	-0.0458144196	-1.2081788187	 1.813842525	 0.073141
H	 2.0826612592	-0.5964411695	 2.4345731206	 0.284442
H	-1.3696209488	-0.2361939225	-1.621381654	 0.111331
H	-2.9559073856	-3.5141026148	 0.587238525	 0.19263
112.9914	132.7635	173.4349	204.7399	243.9186	256.8046	335.9008	352.1899	403.1937	446.9366	552.1943	576.2038	599.309	640.4742	652.23	765.3329	790.1451	850.943	886.047	916.5475	965.2271	976.4962	1022.7119	1030.4584	1093.9777	1106.7438	1140.9839	1177.9633	1211.5841	1238.5913	1246.4425	1257.6348	1309.8744	1338.7431	1404.2141	1422.1177	1445.5542	1478.9208	1481.8771	1501.0657	2228.4267	3008.962	3030.1671	3056.7245	3091.2548	3116.2523	3119.8802	3132.2142	3172.0826	3502.9908	3820.8661
CC12C(CC1O)C2C#C	C[C@@]12[C@@H](C[C@H]1O)[C@H]2C#C	
InChI=1S/C8H10O/c1-3-5-6-4-7(9)8(5,6)2/h1,5-7,9H,4H2,2H3	InChI=1S/C8H10O/c1-3-5-6-4-7(9)8(5,6)2/h1,5-7,9H,4H2,2H3/t5-,6+,7-,8-/m1/s1
