23
gdb 53646	3.7619	0.62997	0.61807	0.7959	92.47	-0.2372	0.0466	0.2838	1985.1811	0.20063	-388.267959	-388.25595	-388.255005	-388.307547	41.946	
C	-0.1164260546	 1.4875798107	 0.0108317256	-0.498303
C	-0.0499609317	 0.0339201242	-0.0153925702	 0.128562
C	-0.0033897863	-1.1681849442	-0.0364862087	 0.018533
C	 0.083649354	-2.623542445	-0.0641974072	-0.232127
O	-1.2215468833	-3.1701045449	 0.0203148631	-0.28733
C	-1.3468925094	-4.6033406883	 0.0079587394	 0.389961
C	-0.6386961839	-5.2344187192	 1.2179270192	-0.416703
C	-2.8599724804	-4.8199306496	 0.1121497876	-0.400136
C	-0.8179936712	-5.1969573011	-1.307986058	-0.416702
H	 0.4324708209	 1.8986638007	 0.865310957	 0.146448
H	 0.3082686913	 1.9248171488	-0.8995914805	 0.146448
H	-1.1540753042	 1.8303956386	 0.088932724	 0.151614
H	 0.5895431135	-2.9384209699	-0.9901723184	 0.111595
H	 0.7145224611	-2.9644889762	 0.771422939	 0.111596
H	-0.9686902116	-4.7540974186	 2.1438559302	 0.122135
H	-0.8762405701	-6.3009120751	 1.2804202741	 0.114132
H	 0.4500335772	-5.148170731	 1.1518194706	 0.113485
H	-3.3677746192	-4.3459849106	-0.7322974864	 0.120086
H	-3.1020118485	-5.8867662044	 0.1135037808	 0.106868
H	-3.2424339358	-4.3721807019	 1.0334651364	 0.120085
H	 0.2693376515	-5.1104098494	-1.393784433	 0.113484
H	-1.064208029	-6.2616395838	-1.3677437274	 0.114132
H	-1.2744437304	-4.6902212097	-2.163451087	 0.122135
17.657	20.3643	78.9053	96.9324	194.9344	202.5017	217.2421	252.4926	259.7845	293.1864	336.5749	336.7933	377.9024	396.9526	451.7887	491.1959	514.3431	744.2	800.67	903.8686	906.9042	921.7254	955.4907	1024.616	1041.8723	1042.0886	1051.7733	1059.0592	1088.3321	1176.3413	1223.6344	1248.8517	1258.3428	1273.3741	1391.5866	1393.0295	1412.0312	1416.3687	1423.2397	1471.0255	1477.2972	1479.5467	1483.5949	1485.829	1498.0078	1499.4737	1506.3622	1520.4372	2379.9468	2973.266	2993.2992	3026.4733	3035.8279	3038.1957	3045.5611	3086.3071	3088.4732	3102.8362	3108.1229	3113.0009	3113.7699	3121.2552	3121.6756	17.6641	20.3809	78.9053	96.9309	194.9342	202.5017	217.2423	252.4925	259.7845	293.1866	336.5749	336.7932	377.9028	396.9526	451.7886	491.196	514.3436	744.2	800.67	903.8684	906.9042	921.7254	955.4909	1024.6162	1041.8724	1042.0887	1051.7726	1059.0587	1088.3316	1176.3412	1223.6343	1248.852	1258.3437	1273.3742	1391.5869	1393.0296	1412.0312	1416.3686	1423.2399	1471.0257	1477.296	1479.5453	1483.5952	1485.8292	1498.0083	1499.4739	1506.3632	1520.4376	2379.9469	2973.2659	2993.2992	3026.4734	3035.8279	3038.1957	3045.5611	3086.3072	3088.4732	3102.8362	3108.1229	3113.0008	3113.7699	3121.2552	3121.6756
CC#CCOC(C)(C)C	CC#CCOC(C)(C)C	
InChI=1S/C8H14O/c1-5-6-7-9-8(2,3)4/h7H2,1-4H3	InChI=1S/C8H14O/c1-5-6-7-9-8(2,3)4/h7H2,1-4H3
