15
gdb 76462	2.35764	1.39002	1.27332	1.5392	65.48	-0.2635	-0.0581	0.2054	1046.7175	0.108885	-494.898321	-494.889396	-494.888452	-494.931827	32.273	
O	 0.3580417003	 1.0108844652	-0.2294983408	-0.406003
C	-0.0095454296	-0.2682437874	 0.06084281	 0.082028
C	-0.7059645568	-0.6770892862	 1.2701726571	 0.082201
O	-1.0830848085	 0.1649484849	 2.2722314263	-0.405842
C	-1.5664739034	-0.6975419938	-0.1070396827	-0.031926
C	-2.4821301094	 0.4065145708	-0.2608247802	 0.103357
O	-2.2918405871	 1.5230467154	 0.2260617061	-0.365547
C	-1.8428573573	-2.0058987099	-0.7084914019	 0.080752
O	-1.1048970662	-2.9618890098	-0.6071083191	-0.285206
H	-0.3529691838	 1.613474552	 0.048585775	 0.30967
H	 0.6238798194	-1.0093386553	-0.4172269083	 0.162621
H	-0.5447125956	-1.6952331763	 1.6112940576	 0.162651
H	-1.4072493659	 0.9943573629	 1.8811382758	 0.309666
H	-3.3977626359	 0.2148539097	-0.8526241923	 0.117613
H	-2.7958715402	-2.0722833825	-1.2794009027	 0.083966
87.3243	142.009	192.8167	209.8185	215.9973	256.6993	277.5613	337.3584	420.4364	478.6853	498.5098	558.1298	613.8644	653.9785	723.6873	738.2635	900.7027	997.7574	1001.5552	1053.0947	1089.9802	1147.5983	1187.9035	1233.9242	1289.5819	1353.6869	1395.6889	1408.5313	1421.3046	1440.9721	1506.2815	1693.6069	1789.2168	2880.6788	2951.4899	3173.8738	3180.7158	3634.3385	3657.3047
OC1C(O)C1(C=O)C=O	O[C@H]1[C@@H](O)C1(C=O)C=O	
InChI=1S/C5H6O4/c6-1-5(2-7)3(8)4(5)9/h1-4,8-9H	InChI=1S/C5H6O4/c6-1-5(2-7)3(8)4(5)9/h1-4,8-9H/t3-,4+
