13
gdb 25537	6.64072	0.85633	0.77221	3.8206	63.64	-0.2253	-0.0153	0.21	1359.0521	0.089088	-489.91746	-489.909616	-489.908672	-489.950762	27.889	
N	-0.1808016125	 1.3603128117	 0.1091760683	-0.411001
C	-0.3482337285	 0.1846446009	-0.2927969236	 0.108931
O	-0.1415506742	-0.8478352118	 0.5895550869	-0.209322
C	-0.5778769516	-2.0719137617	 0.2279197595	 0.381945
C	-1.6840853094	-2.5185489814	-0.3830761893	-0.159209
O	-1.6080516501	-3.899517876	-0.4818307613	-0.205776
C	-0.4304220278	-4.329060933	 0.0975100623	 0.504486
O	-0.0816997054	-5.4719852099	 0.1753601908	-0.390167
N	 0.2041895792	-3.1787412421	 0.5299021491	-0.437612
H	-0.3284798022	 2.0203592038	-0.6515546266	 0.24751
H	-0.6337001341	-0.1730179188	-1.2879813023	 0.118417
H	-2.5686863289	-2.0375367756	-0.7566947995	 0.161637
H	 1.0956476754	-3.1712828062	 0.9944127056	 0.29016
51.0417	108.7348	151.9743	203.4798	341.9553	380.8369	416.4764	472.9813	561.9434	630.4815	683.4895	738.455	765.0195	790.2706	835.6245	924.0085	993.9248	1049.3715	1053.8076	1101.328	1163.479	1238.3939	1289.9972	1332.3422	1395.0864	1449.5484	1714.0003	1758.7162	1909.1595	3070.3411	3310.7621	3526.946	3691.2616
N=COC1=COC(=O)N1	[NH][CH]Oc1coc(=O)[nH]1	
InChI=1S/C4H4N2O3/c5-2-9-3-1-8-4(7)6-3/h1-2,5H,(H,6,7)	InChI=1S/C4H4N2O3/c5-2-9-3-1-8-4(7)6-3/h1-2,5H,(H,6,7)
