19
gdb 70492	2.64593	1.50896	1.11581	0.6885	90.4	-0.2188	-0.0169	0.2019	1138.6238	0.158592	-348.732951	-348.724447	-348.723502	-348.765546	33.562	
C	-0.0264763537	 1.5432797342	-0.0134305465	-0.488821
C	 0.0446918455	 0.0360699715	-0.0063261513	 0.236685
C	-0.8262861789	-0.7878172614	 0.921578757	-0.31766
C	 0.6724459903	-0.7948071887	 1.1027904929	-0.083679
C	 1.4685906329	-1.9294188517	 0.4618044755	-0.270135
C	 1.1672484985	-1.7838613395	-1.0100171876	-0.192213
C	 0.4154405403	-0.7001480486	-1.2727378709	 0.153614
C	-0.0243550878	-0.2706482981	-2.5487153039	 0.224502
C	-0.4159200843	 0.1349687903	-3.6142867682	-0.440678
H	 0.9231128701	 1.986724279	-0.332977372	 0.119525
H	-0.8044036326	 1.8964623015	-0.6987517201	 0.128995
H	-0.2588860652	 1.9256600911	 0.9851108625	 0.112599
H	-1.4054652614	-0.2491040893	 1.6653679494	 0.107393
H	-1.3138454856	-1.6721855127	 0.5233831391	 0.111343
H	 1.0759588259	-0.3085335236	 1.983724133	 0.084631
H	 2.5456366573	-1.8308014869	 0.6569910258	 0.112011
H	 1.1796546347	-2.9176243224	 0.8442276794	 0.113188
H	 1.5061996609	-2.4910434854	-1.7575729456	 0.098732
H	-0.7540157471	 0.4785653507	-4.5601729983	 0.189966
115.1293	137.8084	200.0545	233.5287	272.4665	318.161	394.3098	413.4232	504.6697	526.8561	578.1498	633.1678	641.7021	673.1955	730.6159	816.0842	819.2251	834.2351	881.7075	947.1241	970.6879	974.5921	1029.3562	1057.3143	1082.0769	1101.4642	1120.7915	1142.0215	1189.0864	1241.833	1276.6237	1316.2452	1336.6799	1391.6631	1417.9899	1471.8313	1484.974	1487.0374	1500.8426	1655.0932	2218.9061	3007.8669	3029.342	3033.8493	3091.8048	3105.0841	3118.8775	3171.3556	3206.5894	3207.2568	3503.2689
CC12CC1CC=C2C#C	C[C@]12C[C@H]1CC=C2C#C	
InChI=1S/C9H10/c1-3-7-4-5-8-6-9(7,8)2/h1,4,8H,5-6H2,2H3	InChI=1S/C9H10/c1-3-7-4-5-8-6-9(7,8)2/h1,4,8H,5-6H2,2H3/t8-,9-/m1/s1
