22
gdb 26106	3.0515	1.25009	1.10456	2.2673	88.05	-0.1966	0.0512	0.2477	1225.3593	0.194166	-367.256818	-367.247527	-367.246583	-367.290772	36.461	
C	-0.0195564338	 1.5366889495	-0.0023768367	-0.388016
C	-0.0077771048	-0.0038311779	 0.007736931	 0.242178
C	 0.7495456182	-0.5266243904	 1.2432900015	-0.388035
C	-1.4531788689	-0.5176105443	 0.0491505962	-0.419248
N	 0.6716958595	-0.4885277368	-1.2146013815	 0.008729
C	 0.1458988921	-1.2839452473	-2.2088476618	-0.089736
C	 1.114635548	-1.4980527522	-3.1619148772	-0.186322
C	 2.2804976602	-0.8082455979	-2.7379474935	-0.178765
C	 1.9782958618	-0.1997593416	-1.542625267	-0.091462
H	 0.9944770436	 1.9442182789	-0.0167987799	 0.119447
H	-0.5473329514	 1.910725467	-0.8842993601	 0.125708
H	-0.5233582824	 1.9180388074	 0.8912628704	 0.113359
H	 0.2604812377	-0.1846323925	 2.1607255773	 0.113363
H	 0.768758186	-1.6201750924	 1.2474257587	 0.125707
H	 1.7825669454	-0.1700387583	 1.2595683471	 0.11945
H	-2.0330796004	-0.160786178	-0.8065424105	 0.126764
H	-1.4927741612	-1.6102618405	 0.0683624022	 0.126765
H	-1.9350094925	-0.1483986425	 0.9583956923	 0.117485
H	-0.8694375169	-1.6363023799	-2.166010746	 0.113658
H	 0.9935941913	-2.0846965509	-4.0597734709	 0.088282
H	 3.2314806039	-0.7608705173	-3.2464308258	 0.08862
H	 2.5890257445	 0.414345748	-0.9015616957	 0.112068
37.1887	128.3269	215.3201	240.493	263.2967	321.8436	330.9722	342.5796	363.3223	442.9565	473.2933	589.2193	622.3434	648.8166	682.6821	739.956	800.2875	818.5752	843.995	884.6302	919.8948	932.618	962.6153	966.9866	1043.6882	1053.7355	1075.6207	1102.2212	1118.8122	1207.087	1238.382	1247.2236	1295.3898	1298.523	1374.5155	1400.272	1400.5139	1428.7257	1431.0062	1475.2209	1482.6541	1488.3971	1498.7851	1503.0288	1519.337	1521.8663	1560.8854	3039.234	3040.7951	3048.0509	3110.7686	3113.0514	3117.7627	3121.6813	3122.332	3123.3582	3237.8493	3251.7931	3271.4694	3292.7429
CC(C)(C)N1C=CC=C1	CC(C)(C)n1cccc1	
InChI=1S/C8H13N/c1-8(2,3)9-6-4-5-7-9/h4-7H,1-3H3	InChI=1S/C8H13N/c1-8(2,3)9-6-4-5-7-9/h4-7H,1-3H3
