17
gdb 82433	2.50256	1.80615	1.22725	4.9416	68.14	-0.2512	0.0258	0.277	1008.2058	0.13879	-455.15923	-455.151677	-455.150733	-455.191226	29.598	
O	-0.1118406367	 1.4519280955	-0.0691586	-0.440054
C	-0.0562546697	 0.0535235688	-0.0185517947	 0.054588
C	-1.4332420941	-0.5699409016	 0.0202484512	-0.059611
N	-2.0516382842	-0.8591903646	-1.285408075	-0.323644
C	-1.5682730183	-1.9665819323	-0.4491968644	-0.038347
C	-0.3400537371	-2.7008670438	-0.9561865706	-0.166876
N	 0.6587467558	-1.7892096229	-1.4954289144	-0.310501
C	 0.7519932137	-0.4650187206	-1.2156411745	 0.375456
O	 1.4633793486	 0.3046756536	-1.8425654674	-0.399157
H	 0.5324737505	 1.6931409279	-0.7567281587	 0.294563
H	 0.4790962568	-0.2768144671	 0.8919882811	 0.087076
H	-2.0719660444	-0.2222911275	 0.8279739354	 0.098937
H	-3.0626513372	-0.7807971739	-1.2247151676	 0.238877
H	-2.2950093905	-2.6096795325	 0.0412481256	 0.094476
H	 0.074926211	-3.2998261442	-0.1324006855	 0.117244
H	-0.6257346974	-3.4006251688	-1.7494851277	 0.12294
H	 1.1747974832	-2.0768480061	-2.3136192329	 0.254035
91.2721	161.2747	243.2843	321.7749	337.7341	435.4898	455.9435	497.612	505.5498	570.6517	610.0788	691.6132	751.6735	808.7274	858.2949	883.5561	897.0084	971.1385	1013.0757	1058.5258	1077.7167	1134.8071	1146.4843	1167.4305	1175.3421	1257.2744	1264.8616	1285.8606	1325.2543	1353.4644	1379.8521	1416.6069	1461.5154	1465.1925	1488.1067	1519.0146	1780.7276	2924.8298	2998.4023	3058.5554	3137.1879	3148.9499	3518.2706	3617.0891	3654.5119
OC1C2NC2CNC1=O	O[C@H]1[C@H]2N[C@H]2CNC1=O	
InChI=1S/C5H8N2O2/c8-4-3-2(7-3)1-6-5(4)9/h2-4,7-8H,1H2,(H,6,9)	InChI=1S/C5H8N2O2/c8-4-3-2(7-3)1-6-5(4)9/h2-4,7-8H,1H2,(H,6,9)/t2-,3-,4-/m0/s1
