19
gdb 5317	4.26348	1.44189	1.18678	1.7379	77.47	-0.1992	0.0515	0.2507	1061.0868	0.166638	-327.971751	-327.963568	-327.962624	-328.004584	31.163	
C	 0.140140525	 1.3474170821	-0.3774744756	-0.372729
C	 0.0291441414	-0.1066755005	 0.1216824928	-0.076966
C	 0.673174357	-0.2531339976	 1.5064912726	-0.38962
C	-1.4012879979	-0.5863999111	 0.0910276709	 0.292118
C	-2.2211993308	-0.8632148902	 1.1644841168	-0.186437
N	-3.4479914403	-1.2499205243	 0.681917825	-0.242789
C	-3.4326222271	-1.2305307716	-0.6883781483	-0.074518
C	-2.1814734554	-0.8234069431	-1.0834064908	-0.248988
H	 1.1867341638	 1.6694456045	-0.4200377215	 0.101538
H	-0.2906115894	 1.4583927079	-1.3768549214	 0.112831
H	-0.3987064662	 2.0261469845	 0.2929124537	 0.111912
H	 0.6026248336	-0.7325550376	-0.5772989424	 0.075371
H	 0.6263154126	-1.2871661772	 1.8616442128	 0.112185
H	 1.7245161821	 0.0503998111	 1.478696215	 0.105137
H	 0.1687033655	 0.3811014716	 2.2448729948	 0.110909
H	-2.0352587717	-0.8226943868	 2.2251980595	 0.112022
H	-4.231673174	-1.5198562265	 1.248943335	 0.257744
H	-4.303858319	-1.5089378372	-1.2594163783	 0.114415
H	-1.8488140393	-0.709625128	-2.1046799006	 0.085864
37.8946	158.4207	206.6928	246.5667	276.3301	324.5395	412.6697	453.9178	460.8348	616.953	638.2351	678.231	694.7236	772.3496	829.0203	876.902	904.9615	927.1461	959.7298	967.9871	1075.9718	1094.051	1102.8985	1123.5882	1165.6487	1177.6479	1251.0629	1293.3323	1339.8961	1359.6163	1394.7914	1411.7344	1416.8399	1467.2685	1486.5091	1491.856	1501.7388	1511.2765	1523.5706	1606.9854	2993.4113	3024.9112	3029.5551	3090.2366	3096.4181	3104.9366	3107.3508	3236.4295	3264.7685	3267.8206	3689.5022
CC(C)C1=CNC=C1	CC(C)c1c[nH]cc1	
InChI=1S/C7H11N/c1-6(2)7-3-4-8-5-7/h3-6,8H,1-2H3	InChI=1S/C7H11N/c1-6(2)7-3-4-8-5-7/h3-6,8H,1-2H3
