17
gdb 107608	2.75475	1.61248	1.15761	3.9284	69.79	-0.2542	0.0094	0.2636	1049.8617	0.138004	-455.131419	-455.123698	-455.122754	-455.163663	29.7	
O	 0.0130658771	 1.3640341678	 0.3927589727	-0.416774
C	 0.0327419794	 0.0384446536	-0.0816543299	-0.165221
C	-1.3486477276	-0.5689604219	-0.0953288661	 0.213895
N	-1.9901111627	-1.1469191041	 1.11756456	-0.357365
C	-1.7143706658	-2.00473025	-0.0451638853	-0.137826
C	-2.947660128	-2.1684761058	-0.9101120922	-0.089795
O	-3.3329536285	-0.8317991962	-1.304475054	-0.246988
C	-2.3859961634	 0.0760527087	-0.9545007323	 0.44668
N	-2.3556890253	 1.2905847433	-1.3115619142	-0.578985
H	-0.6482454833	 1.8262532537	-0.1485271964	 0.303486
H	 0.4578339318	-0.0272806714	-1.0968280015	 0.096453
H	 0.6853060865	-0.539769639	 0.5841108837	 0.096827
H	-1.2625843737	-1.2779284583	 1.8190452631	 0.2415
H	-0.9769541771	-2.7978459282	 0.0089547173	 0.109381
H	-2.7373656405	-2.7507816814	-1.8138580365	 0.12004
H	-3.7895857097	-2.6131214441	-0.373280987	 0.134311
H	-3.1330351491	 1.5263212834	-1.9285787714	 0.230382
110.0762	146.4703	190.6051	259.6405	285.6922	373.7693	444.7357	473.1312	599.6655	625.9297	699.9763	710.4232	774.2374	826.3629	872.0605	900.6402	914.61	978.5699	994.3244	1036.5927	1063.9771	1067.2372	1092.1808	1099.2181	1168.7086	1213.2091	1230.0319	1262.2914	1294.1274	1379.3074	1388.4058	1412.6914	1448.597	1476.8403	1497.779	1505.8006	1768.9373	2967.8897	3046.9674	3048.2985	3104.7422	3178.4059	3484.1981	3489.3057	3670.1802
OCC12NC1COC2=N	OC[C@]12N[C@H]1CO[C]2[NH]	
InChI=1S/C5H8N2O2/c6-4-5(2-8)3(7-5)1-9-4/h3,6-8H,1-2H2	InChI=1S/C5H8N2O2/c6-4-5(2-8)3(7-5)1-9-4/h3,6-8H,1-2H2/t3-,5-/m0/s1
