16
gdb 27887	1.95773	1.78034	0.93781	0.8258	75.94	-0.2284	-0.0044	0.2241	1192.7883	0.125257	-437.972151	-437.964117	-437.963173	-438.00477	30.805	
C	-0.043346124	 1.4818242572	 0.0909084038	-0.464653
C	 0.0173927633	-0.0194896619	-0.0027327268	 0.340636
C	-0.0563015002	-0.6722681082	-1.2244155083	-0.275385
C	 0.0063646446	-2.0711620599	-1.240602171	 0.448667
O	-0.0673169577	-2.6891210547	-2.4433648884	-0.432807
C	 0.1394592997	-2.7642667102	-0.0449120741	-0.393853
C	 0.2035521601	-2.0015975835	 1.122940942	 0.446302
O	 0.3330607802	-2.6497013196	 2.3007097526	-0.422171
N	 0.1465071481	-0.6781954995	 1.1646181953	-0.436066
H	 0.8631128194	 1.8692857823	 0.5672469246	 0.137966
H	-0.1482227312	 1.9447991953	-0.8927130145	 0.119995
H	-0.887846189	 1.789161676	 0.7162475246	 0.137964
H	-0.1600516975	-0.1292837743	-2.1549554923	 0.100072
H	-0.0127668602	-3.6425427859	-2.3146954312	 0.301822
H	 0.1928496053	-3.845994932	 0.000821175	 0.096168
H	 0.3584587892	-1.9560867113	 2.9748116187	 0.295346
81.221	195.3318	211.3083	245.768	293.1056	337.8314	428.9625	519.6918	524.9194	536.2533	556.78	599.1763	613.8245	679.9877	755.1161	834.2667	856.4138	979.5515	1003.866	1008.0459	1059.0255	1072.679	1175.4147	1191.1676	1217.653	1279.628	1359.1999	1401.7049	1430.4393	1472.4509	1475.5127	1511.8612	1522.839	1636.8957	1663.7179	3040.8847	3099.5099	3129.3742	3191.3073	3213.1871	3763.3574	3812.2045
CC1=CC(O)=CC(O)=N1	Cc1cc(O)cc(O)n1	
InChI=1S/C6H7NO2/c1-4-2-5(8)3-6(9)7-4/h2-3H,1H3,(H2,7,8,9)	InChI=1S/C6H7NO2/c1-4-2-5(8)3-6(9)7-4/h2-3H,1H3,(H2,7,8,9)
