20
gdb 58745	2.53704	1.45217	1.13851	3.4104	79.4	-0.2451	0.0009	0.246	1156.5118	0.169849	-403.09996	-403.09095	-403.090006	-403.133812	33.999	
C	-0.0334108561	 1.5301864193	-0.0076362103	-0.399028
C	-0.0049590908	-0.0055976191	 0.0516170525	-0.118388
C	 0.757489942	-0.5149538254	 1.2841758634	-0.400563
C	-1.4068442829	-0.5538844133	-0.0128101889	 0.210631
C	-1.9226189175	-2.0359412238	-0.0688973201	-0.30006
C	-3.210286502	-1.1632512991	 0.0435582737	-0.159551
N	-2.4933910238	-0.2559272606	 1.0430554858	-0.35973
C	-2.5471840715	-0.2714035719	-1.0202654435	 0.492737
O	-2.7596253696	 0.2794336663	-2.0513914946	-0.329733
H	 0.9829574607	 1.9353978478	 0.0067900077	 0.108904
H	-0.529572751	 1.8776551581	-0.9180566932	 0.139459
H	-0.5784893277	 1.937821622	 0.849356979	 0.132621
H	 0.5088851193	-0.3767998779	-0.846461236	 0.08984
H	 0.2852333194	-0.1653584351	 2.2090894322	 0.121158
H	 0.7971162639	-1.6085815572	 1.3143287513	 0.113068
H	 1.7866204341	-0.1428844955	 1.2792794581	 0.119398
H	-1.7508859535	-2.6292466064	-0.9731448483	 0.113187
H	-1.7093494521	-2.6067909326	 0.8397410377	 0.109063
H	-4.2431301815	-1.4755345286	 0.1806031486	 0.102644
H	-2.2783800193	-0.8325928169	 1.8640752648	 0.214342
51.0848	138.0508	186.0109	192.8128	221.3267	256.5599	282.4868	348.0372	446.8853	530.6622	555.4304	624.4325	739.1685	772.5268	777.0545	809.5107	888.0399	891.0516	922.7186	934.3258	969.903	987.2636	1041.691	1054.9815	1099.4243	1118.3577	1135.2373	1169.8499	1188.048	1199.5694	1264.2391	1282.1501	1310.1328	1337.0915	1390.9463	1399.2063	1421.7967	1489.0314	1490.6585	1495.7342	1503.8874	1514.8683	1934.3272	3009.53	3031.0349	3035.905	3040.5509	3099.2683	3104.6445	3109.8743	3112.4057	3119.5288	3150.3843	3375.1778
CC(C)C12CC(N1)C2=O	CC(C)[C@@]12C[C@@H](N1)C2=O	
InChI=1S/C7H11NO/c1-4(2)7-3-5(8-7)6(7)9/h4-5,8H,3H2,1-2H3	InChI=1S/C7H11NO/c1-4(2)7-3-5(8-7)6(7)9/h4-5,8H,3H2,1-2H3/t5-,7-/m1/s1
