25
gdb 60047	2.32247	1.144	0.9245	0.9799	90.11	-0.2377	0.0816	0.3193	1450.2264	0.225138	-389.487559	-389.476274	-389.47533	-389.52398	41.949	
C	 0.393068796	 1.4655281947	 0.0398935444	-0.380878
C	-0.0761579906	 0.0097433015	 0.0495250814	 0.132079
C	 0.2279040075	-0.6768385081	 1.3800774078	-0.382874
O	-1.4954293635	-0.0413130129	-0.1560847598	-0.30621
C	-1.93733024	-0.5340067103	-1.3901715195	 0.427668
C	-1.7636177199	 0.4158630065	-2.557326639	-0.449369
C	-1.8330698843	-2.0269241729	-1.6265670171	-0.353561
C	-3.1765378979	-1.3879471498	-1.3186446863	-0.046484
C	-3.8739835696	-1.6649301792	-0.006122083	-0.40283
H	 1.4721626651	 1.5272466603	 0.2163205712	 0.108678
H	 0.1739830051	 1.9469635462	-0.9164849754	 0.116038
H	-0.116786498	 2.0291772674	 0.8278701701	 0.121655
H	 0.4207798963	-0.5420622493	-0.7599329397	 0.07611
H	-0.3093649991	-0.1762098024	 2.1921206954	 0.122741
H	-0.0866280666	-1.7239331654	 1.3588094787	 0.11532
H	 1.2991805529	-0.6419171624	 1.6030658359	 0.109122
H	-0.7053033005	 0.5995449341	-2.7739337336	 0.114737
H	-2.2179807965	 0.0038195544	-3.4632902287	 0.112438
H	-2.2393720109	 1.3781638606	-2.3405904932	 0.12149
H	-1.6340261935	-2.3883428229	-2.6302715089	 0.104085
H	-1.3858226899	-2.6221700195	-0.8372107109	 0.111048
H	-3.8463306837	-1.2816371634	-2.1689202864	 0.078035
H	-3.1588502039	-1.676795858	 0.8188108724	 0.127073
H	-4.6200025485	-0.8935985456	 0.2147295206	 0.114576
H	-4.3892908862	-2.6313083636	-0.0338693063	 0.109312
40.255	71.3615	141.0784	184.2588	205.32	206.5313	225.8819	245.583	258.17	321.7047	349.4832	387.6674	417.8785	465.7597	488.1663	555.1642	704.5363	784.6688	833.48	865.063	907.6584	922.2111	928.2087	935.6934	946.7928	1016.872	1031.8928	1049.7355	1115.4206	1129.0592	1137.6476	1145.1364	1148.646	1189.076	1204.4935	1264.0364	1305.2182	1358.9281	1379.5824	1396.7513	1401.1296	1410.0586	1413.7636	1424.6311	1478.1661	1478.851	1481.2975	1486.9667	1491.7238	1495.3134	1499.5608	1506.2151	1508.0308	3010.5755	3028.0508	3033.0378	3034.5469	3039.8487	3088.7069	3091.5437	3103.5996	3108.3842	3112.2292	3115.0497	3120.6182	3121.8628	3125.4186	3138.4516	3211.3453
CC(C)OC1(C)CC1C	CC(C)O[C@@]1(C)C[C@H]1C	
InChI=1S/C8H16O/c1-6(2)9-8(4)5-7(8)3/h6-7H,5H2,1-4H3	InChI=1S/C8H16O/c1-6(2)9-8(4)5-7(8)3/h6-7H,5H2,1-4H3/t7-,8+/m1/s1
