21
gdb 90616	3.85885	1.17123	1.09292	1.1963	81.9	-0.2313	0.0796	0.3109	1201.5778	0.182336	-387.036296	-387.027934	-387.02699	-387.068665	33.789	
C	-0.1058270993	 1.5295759844	 0.0118960461	-0.414207
C	-0.0086112203	 0.0086719497	-0.0031301731	 0.029138
C	 1.0812720381	-0.5778804214	-0.9678550349	-0.272123
C	 1.829411325	-1.1929067686	 0.2499091	-0.087386
C	 0.7552641272	-0.6117461769	 1.2145599784	-0.011473
C	 0.4200065229	-2.0410887627	 1.6957118728	-0.129863
C	 0.0165281027	-2.9507207121	 0.5503273228	-0.36073
C	 1.464680712	-2.6158609742	 0.7433867291	 0.393993
O	 2.416488832	-3.5855699562	 1.0136573881	-0.465268
H	 0.8754827042	 1.9876521711	 0.1839686932	 0.111793
H	-0.4868340987	 1.912833611	-0.941399588	 0.111471
H	-0.777226176	 1.8758073431	 0.805853749	 0.112469
H	-1.006147597	-0.4156929939	-0.1536445591	 0.068927
H	 0.730373622	-1.2859187435	-1.7243233722	 0.09223
H	 1.6555353887	 0.2030804461	-1.4748331436	 0.094778
H	 2.8861752788	-0.9601682234	 0.3815220142	 0.072311
H	 1.034743792	 0.0777384094	 2.0128374565	 0.062686
H	 0.1887730792	-2.3149561693	 2.7183144376	 0.089064
H	-0.2350352004	-3.9562455058	 0.8745959402	 0.11061
H	-0.5688912419	-2.5997702688	-0.2943654078	 0.108805
H	 2.4824907088	-4.1670984182	 0.248128841	 0.282774
112.8569	184.6136	239.0716	241.6021	262.1248	306.7518	369.0958	389.309	469.7559	506.4829	619.6234	687.5499	748.7312	805.0345	841.5103	852.7854	862.2707	900.1129	917.9993	944.178	970.9854	981.5452	1021.7829	1033.889	1057.9706	1077.7255	1090.8858	1118.9746	1143.0383	1180.9997	1196.1053	1219.3206	1241.214	1253.3114	1262.1931	1282.9417	1301.1383	1318.0917	1358.7205	1405.3993	1408.2944	1477.83	1494.1987	1497.8385	1500.4772	3019.4688	3045.4383	3049.4426	3085.7747	3089.0486	3092.4904	3096.6544	3113.1552	3118.767	3179.2232	3200.7227	3789.5759
CC1CC2C1C1CC21O	C[C@H]1C[C@H]2[C@@H]1[C@H]1C[C@@]21O	
InChI=1S/C8H12O/c1-4-2-5-7(4)6-3-8(5,6)9/h4-7,9H,2-3H2,1H3	InChI=1S/C8H12O/c1-4-2-5-7(4)6-3-8(5,6)9/h4-7,9H,2-3H2,1H3/t4-,5-,6+,7+,8+/m0/s1
