18
gdb 76937	2.696	1.14824	1.04802	3.285	81.48	-0.2527	-0.0005	0.2522	1234.9245	0.143834	-401.913654	-401.903701	-401.902757	-401.948228	35.895	
C	 0.0545236518	 1.3853291153	-0.2478888922	-0.416624
C	-0.0441992767	-0.1023190277	-0.0078109333	-0.030468
N	 1.0494159677	-0.9981760093	-0.2909487531	-0.079364
C	 2.2491489006	-0.7133812189	-0.9045946373	 0.143223
O	 2.3721809519	-0.0355697448	-1.8978502899	-0.304119
C	 0.6897245167	-0.8358768912	 1.1182825376	 0.032478
C	 1.6286568977	-0.0987408905	 2.0604477233	-0.464567
C	 0.0238493618	-1.9687127662	 1.7234296382	 0.30367
C	-0.5305254622	-2.8896445854	 2.2610035956	-0.413884
H	 1.013294118	 1.8030067054	 0.061895712	 0.131934
H	-0.0603378069	 1.5935495947	-1.3150194394	 0.154243
H	-0.7445212839	 1.9010459753	 0.2939024774	 0.126143
H	-1.0143125326	-0.5278090088	-0.2609734506	 0.112113
H	 3.0921170721	-1.247308187	-0.4251704879	 0.087014
H	 2.1266447478	 0.7372013385	 1.565791091	 0.133376
H	 1.0696409379	 0.2833518562	 2.9192818285	 0.141962
H	 2.3954395308	-0.7800040337	 2.439966496	 0.141625
H	-1.0213320024	-3.711161862	 2.721778844	 0.201246
95.1188	127.2141	146.6978	161.8436	166.2328	190.0541	251.8057	284.3189	346.869	410.2473	445.506	507.5083	524.2915	625.8353	653.1151	658.2726	713.0701	819.7121	861.9255	961.5121	1002.7011	1032.1555	1072.4129	1084.6615	1144.8091	1158.7848	1205.9614	1248.7173	1374.4289	1407.1321	1416.9559	1423.2272	1441.0419	1476.6519	1482.6961	1490.5135	1507.1082	1787.8874	2239.4438	2948.8004	3049.2429	3052.8302	3115.5967	3116.7414	3118.9977	3135.8358	3148.0308	3501.518
CC1N(C=O)C1(C)C#C	C[C@H]1N(C=O)[C@]1(C)C#C	
InChI=1S/C7H9NO/c1-4-7(3)6(2)8(7)5-9/h1,5-6H,2-3H3	InChI=1S/C7H9NO/c1-4-7(3)6(2)8(7)5-9/h1,5-6H,2-3H3/t6-,7-,8?/m1/s1
