20
gdb 16772	3.91423	1.45358	1.3483	1.1307	73.72	-0.2574	0.0792	0.3366	1003.8829	0.178928	-348.99909	-348.991313	-348.990368	-349.031129	30.137	
O	 0.1506168102	 1.1090436338	-0.5150755473	-0.420463
C	-0.044266611	-0.2833273572	-0.3083947807	-0.089991
C	-1.487947195	-0.4924706632	 0.1473682231	 0.025461
C	-2.540713468	-0.0753441798	-0.921463256	-0.22979
C	-3.1530599676	-1.3608149305	-1.4604550218	-0.019129
C	-2.2272221109	-2.4140926861	-2.0180533624	-0.289597
C	-2.7062875736	-2.5142516316	-0.5907499294	-0.015996
C	-1.8004423024	-1.9753451491	 0.5081103041	-0.254036
H	 1.038499654	 1.2410305834	-0.8594372596	 0.285393
H	 0.1629800292	-0.8490813255	-1.2302165747	 0.085575
H	 0.6383491292	-0.6660793017	 0.4677510557	 0.083201
H	-1.6039237673	 0.1379552325	 1.0346878619	 0.082619
H	-3.3275617197	 0.5289063959	-0.4573176992	 0.094456
H	-2.08473229	 0.5490527507	-1.6964396974	 0.108964
H	-4.1628504881	-1.3179013436	-1.8545862031	 0.075987
H	-2.6482209531	-3.1159433882	-2.7305697862	 0.10541
H	-1.1902798844	-2.1630126348	-2.216931111	 0.105292
H	-3.3835424246	-3.3233134208	-0.3389406463	 0.076255
H	-0.8828760984	-2.5657761793	 0.6245018298	 0.092194
H	-2.3266135084	-2.0265170848	 1.4673450006	 0.098197
93.5758	130.4849	205.9679	265.1016	286.8115	365.5131	370.8418	448.5136	630.8206	712.5297	758.3553	800.7694	820.5781	871.9025	892.3058	907.7586	959.9891	990.6045	1015.7025	1052.3307	1064.0001	1077.2683	1089.7109	1103.7282	1115.0952	1136.4992	1199.4146	1203.0062	1216.7616	1237.8929	1276.5896	1292.6581	1322.4046	1325.0107	1353.918	1375.708	1400.3087	1454.2383	1483.8935	1493.7238	1504.2172	1520.793	2963.1532	2993.9712	3025.5834	3039.4174	3052.9523	3067.9343	3082.112	3125.3529	3157.3341	3166.5651	3206.5758	3832.0115
OCC1CC2CC2C1	OC[C@H]1C[C@H]2C[C@H]2C1	
InChI=1S/C7H12O/c8-4-5-1-6-3-7(6)2-5/h5-8H,1-4H2	InChI=1S/C7H12O/c8-4-5-1-6-3-7(6)2-5/h5-8H,1-4H2/t5-,6-,7+
