19
gdb 121188	2.27671	1.18374	0.85041	5.4941	77.22	-0.2468	0.0174	0.2643	1390.7362	0.158638	-419.183067	-419.173559	-419.172614	-419.218442	33.536	
C	-0.0077958638	 1.4818306485	-0.0757172048	-0.385851
C	-0.0424508976	-0.0026578986	 0.2408446369	-0.04453
O	-1.2423193351	-0.5423530158	-0.2937009239	-0.239407
C	-1.3793027864	-1.9151994194	-0.1113302517	 0.14122
C	-1.9601216735	-2.3709458929	 1.2597552435	-0.203336
N	-3.2965808172	-2.4937314861	 0.6331891781	-0.29762
C	-2.7163102945	-2.4379998674	-0.72468447	-0.180498
C	-3.4163990724	-1.5712706219	-1.6735736467	 0.326064
N	-3.9765418843	-0.9196344606	-2.4455446162	-0.328458
H	 0.9088878616	 1.9312755368	 0.3171962931	 0.116698
H	-0.0421432294	 1.6430384637	-1.1564271728	 0.136361
H	-0.8658516916	 1.9889216324	 0.3734909172	 0.135644
H	 0.8250694069	-0.5195750348	-0.2019323728	 0.091705
H	-0.0000346348	-0.1683090573	 1.3289186396	 0.094054
H	-0.4814143884	-2.4518204483	-0.4457664138	 0.078759
H	-1.5215494474	-3.31321596	 1.6138203227	 0.098308
H	-1.9174251901	-1.6296420125	 2.0637675942	 0.119407
H	-3.8196518239	-3.3352722184	 0.8437868753	 0.229815
H	-2.5683694279	-3.4156987875	-1.2041608681	 0.111664
61.4714	87.559	96.5373	103.8721	191.356	245.4769	262.6852	345.8038	374.135	465.4933	548.8879	560.4668	673.2307	803.5269	821.657	844.0376	915.5415	957.2498	982.6147	1015.3391	1044.6702	1076.7785	1101.21	1141.3968	1150.1133	1185.6909	1190.2391	1233.4298	1267.0855	1296.9921	1319.0666	1354.9565	1374.3844	1394.7281	1406.2144	1441.6864	1483.4378	1499.1042	1504.8924	1526.5976	2362.728	2965.3957	2996.7569	3001.3009	3008.1821	3022.5041	3049.0732	3076.718	3124.0364	3129.0699	3548.4543
CCOC1CNC1C#N	CCO[C@H]1CN[C@H]1C#N	
InChI=1S/C6H10N2O/c1-2-9-6-4-8-5(6)3-7/h5-6,8H,2,4H2,1H3	InChI=1S/C6H10N2O/c1-2-9-6-4-8-5(6)3-7/h5-6,8H,2,4H2,1H3/t5-,6-/m0/s1
