15
gdb 19146	3.02535	1.94082	1.38341	3.4697	61.6	-0.2531	-0.0442	0.2089	891.5617	0.117792	-399.749622	-399.742071	-399.741127	-399.781922	27.144	
O	-0.8604553367	 1.0969287881	-0.3675413265	-0.245031
C	 0.2254838976	 0.8602629675	 0.0913474604	 0.126768
C	 1.4149128625	 1.7701306792	-0.039428377	 0.262777
C	 2.2412162118	 1.9112869463	 1.1841666659	-0.210455
O	 2.6673830943	 1.0833620014	 0.1118424861	-0.26168
C	 1.3518032797	 2.8369577132	-1.0893232712	-0.065313
C	 2.5818573595	 3.5418366494	-1.5175880838	-0.252194
N	 1.9306016191	 2.5754317185	-2.4190644829	-0.317237
H	 0.4447613393	-0.0637360394	 0.6716440689	 0.091068
H	 2.7916777369	 2.8400860099	 1.3160413912	 0.134969
H	 1.9658079562	 1.3848917995	 2.0972955301	 0.130409
H	 0.3947356357	 3.3488790539	-1.1216166464	 0.116503
H	 2.5231485194	 4.5793138348	-1.8330297864	 0.123832
H	 3.5206718391	 3.2517360635	-1.0541482459	 0.123055
H	 2.4526935456	 1.7013792541	-2.3857178527	 0.242528
68.2909	134.8277	176.1142	226.0784	273.3455	357.7038	443.7693	506.9779	607.3405	703.7937	841.6971	861.6485	879.5297	889.1375	939.7028	977.9036	1027.2358	1044.1281	1114.9855	1132.5788	1146.298	1164.578	1196.5625	1237.4799	1276.6695	1303.7953	1340.8168	1412.3911	1438.7456	1502.4798	1514.9577	1833.2553	2891.2473	3088.8885	3114.2095	3161.3734	3185.4606	3201.8921	3486.6579
O=CC1(CO1)C1CN1	O=C[C@]1(CO1)[C@H]1CN1	
InChI=1S/C5H7NO2/c7-2-5(3-8-5)4-1-6-4/h2,4,6H,1,3H2	InChI=1S/C5H7NO2/c7-2-5(3-8-5)4-1-6-4/h2,4,6H,1,3H2/t4-,5+/m1/s1
