12
gdb 33284	3.41117	0.84041	0.70819	4.48	80.44	-0.2905	-0.0765	0.214	1472.7213	0.077412	-394.487532	-394.479298	-394.478354	-394.521181	28.738	
N	 0.0976193509	-3.6906015168	-0.0137316952	-0.32056
C	 0.0555726531	-2.529904057	-0.0092341313	 0.208132
C	 0.0133636012	-1.1656968477	 0.0022073149	 0.097258
C	-0.0188328224	 0.0418611324	 0.0222648414	 0.051189
C	-0.0322211338	 1.4768232074	 0.0355055858	-0.008657
C	 0.533083947	 2.1789070799	 1.2512897937	-0.245062
N	 1.2614232553	 2.2134261126	-0.0033811213	-0.310836
C	-1.1142755289	 2.0989719776	-0.7020638947	 0.258224
N	-1.9926195801	 2.591168648	-1.2677920273	-0.314616
H	 0.0759348945	 3.118287317	 1.5451263645	 0.166858
H	 0.8742707524	 1.5400402102	 2.0602509569	 0.15335
H	 2.0246989907	 1.5399175761	-0.0080496174	 0.26472
68.0042	100.5312	172.3689	224.6779	238.6381	251.198	440.755	474.8625	511.438	563.4864	569.3891	597.903	608.582	808.4121	833.2954	932.3186	988.4932	1027.1161	1109.4913	1148.1522	1253.9399	1318.7345	1345.9084	1499.7035	2268.6513	2369.7193	2397.0979	3124.7418	3224.64	3507.5112
N#CC#CC1(CN1)C#N	N#CC#C[C@]1(CN1)C#N	
InChI=1S/C6H3N3/c7-3-1-2-6(4-8)5-9-6/h9H,5H2	InChI=1S/C6H3N3/c7-3-1-2-6(4-8)5-9-6/h9H,5H2/t6-/m1/s1
