15
gdb 24374	3.81252	1.62382	1.14692	1.1846	75.16	-0.185	-0.0046	0.1803	989.2316	0.116682	-416.856213	-416.849455	-416.848511	-416.888005	25.991	
C	 0.0026197991	 1.5113489536	 0.1214986799	-0.186314
O	 1.282083828	 2.0214654723	-0.3564571067	-0.239597
C	 2.2612823938	 1.1990537809	-0.7792274748	 0.128137
N	 2.2668192272	-0.0767441595	-0.8411526228	-0.369312
C	 1.0809745437	-0.6400107929	-0.4021736453	 0.312307
C	-0.030853444	 0.0188823447	 0.0649197978	 0.206689
C	-0.9992923241	-0.9630331549	 0.3990398119	-0.295011
C	-0.4360122957	-2.1930019403	 0.1205600636	-0.076481
N	 0.8317979666	-1.9841012349	-0.3672193112	-0.338797
H	-0.121777497	 1.9066024546	 1.138788584	 0.122127
H	-0.7664179368	 1.9833671958	-0.5048940007	 0.122119
H	 3.1253628118	 1.7787837079	-1.0911219086	 0.129502
H	-1.9906640094	-0.8026266937	 0.7955431531	 0.095897
H	-0.8324514196	-3.1889589687	 0.2295871029	 0.122471
H	 1.4868901263	-2.6899885648	-0.6571982931	 0.266263
43.7621	223.0876	232.4932	405.9509	485.863	492.3269	544.979	630.7712	631.2849	683.8125	737.539	750.2368	813.0139	861.102	925.6269	930.9298	931.3614	1050.8524	1081.554	1097.9728	1133.05	1216.8166	1229.2972	1271.0935	1326.1809	1388.2917	1420.1847	1449.9245	1480.1264	1526.3265	1532.371	1627.4111	1666.7599	2997.4709	3017.6333	3185.833	3242.0326	3275.3316	3676.8547
C1OC=NC2=C1C=CN2	C1OC=Nc2c1cc[nH]2	
InChI=1S/C6H6N2O/c1-2-7-6-5(1)3-9-4-8-6/h1-2,4,7H,3H2	InChI=1S/C6H6N2O/c1-2-7-6-5(1)3-9-4-8-6/h1-2,4,7H,3H2
