17
gdb 50659	2.67444	1.32865	0.95739	5.7361	71.34	-0.2425	0.0176	0.2601	1192.1052	0.138287	-455.209961	-455.201818	-455.200874	-455.243436	29.792	
O	-0.0724174566	-0.0256930157	-0.1194758775	-0.332263
C	-0.0115109932	 1.1838468895	-0.0893285064	 0.15035
N	 1.1420440076	 1.9114673702	-0.04321058	-0.055468
C	 1.159521995	 3.3562654923	 0.0316573753	-0.184269
C	 1.8323006552	 3.792616412	 1.3325245073	-0.149098
N	 3.1127851484	 3.1157358814	 1.4659062821	-0.315461
C	 3.4445226633	 1.8937893445	 0.9492191028	 0.391422
O	 4.5080785685	 1.3550740032	 1.1808213452	-0.365384
C	 2.4327809462	 1.2427919779	 0.0068131221	-0.282999
H	-0.9067233918	 1.837378933	-0.0960555616	 0.075047
H	 1.706717741	 3.7723035509	-0.825665045	 0.122428
H	 0.1332425991	 3.7307787425	-0.0080661705	 0.127392
H	 1.998747724	 4.8752672377	 1.321354185	 0.120595
H	 1.1701401512	 3.5647866013	 2.1803788444	 0.120223
H	 3.7910699186	 3.481199902	 2.1189058577	 0.253327
H	 2.2716032568	 0.2112875121	 0.3239273474	 0.179712
H	 2.9005644566	 1.2044486553	-0.9868628982	 0.144446
59.3878	91.4017	166.5212	233.1727	313.8019	351.5323	411.2335	465.0607	484.442	514.0809	629.4505	650.7055	692.5	805.2934	899.0196	938.2847	981.3333	1011.227	1027.1235	1098.1991	1109.8404	1204.5024	1224.3698	1260.2744	1280.6984	1330.7912	1349.1843	1395.6914	1404.8555	1431.5926	1450.9513	1471.5623	1485.3234	1489.3798	1521.6758	1797.1936	1800.78	2931.4724	2997.4095	3013.5769	3019.6101	3066.1048	3101.6449	3131.0221	3607.8702
O=CN1CCNC(=O)C1	O=CN1CCNC(=O)C1	
InChI=1S/C5H8N2O2/c8-4-7-2-1-6-5(9)3-7/h4H,1-3H2,(H,6,9)	InChI=1S/C5H8N2O2/c8-4-7-2-1-6-5(9)3-7/h4H,1-3H2,(H,6,9)
