19
gdb 66621	2.65689	1.93822	1.45597	2.0417	77.87	-0.2388	0.0831	0.3219	968.3529	0.158998	-385.819588	-385.811981	-385.811037	-385.851138	30.676	
C	 0.0941902418	 1.5570459201	 0.0032849927	-0.522301
C	-0.0125896379	 0.0667827463	 0.0004201903	 0.28473
C	 0.7145618539	-0.9986962366	-0.7904478035	-0.153856
C	 0.7556980592	-1.0046805679	 0.7428142351	-0.153854
C	-0.4924722514	-1.8909200008	 0.9872508187	 0.020023
O	-0.4928726875	-2.9482271756	 0.0015918159	-0.29782
C	-0.5450769642	-1.8833188835	-0.9744671733	 0.020017
C	-1.2499530027	-0.9053363176	 0.0297985484	 0.27549
C	-2.711881513	-0.5780846911	 0.0702954794	-0.538965
H	 1.1431636572	 1.8720694472	-0.0205679959	 0.123838
H	-0.4024134482	 1.9989128035	-0.8685558651	 0.12006
H	-0.360162335	 1.992348734	 0.9010867815	 0.120054
H	 1.6048538665	-0.9206082557	-1.4001235726	 0.087944
H	 1.6774142949	-0.9311288479	 1.3044704381	 0.087939
H	-0.7876882368	-2.2062785648	 1.9874578672	 0.075414
H	-0.8935320661	-2.1909943648	-1.9598266457	 0.075412
H	-3.3074522423	-1.4975937426	 0.0828687442	 0.133509
H	-2.9678571503	 0.0019080544	 0.9642763607	 0.121183
H	-3.015378118	 0.0085214535	-0.8042890163	 0.121185
180.1141	190.1467	204.7411	234.9007	283.0741	296.4367	545.0534	573.8768	577.4374	625.7889	769.5866	792.8331	819.7932	822.6339	836.2299	862.559	876.4065	883.6978	929.7732	937.2508	997.0438	1026.5103	1030.0531	1092.1383	1130.9751	1136.862	1145.5371	1152.3802	1206.5257	1207.6859	1220.9174	1264.7382	1294.1667	1361.8013	1408.4411	1411.8429	1449.9039	1484.5741	1489.9576	1492.4658	1496.8823	3019.0306	3023.3463	3077.3078	3085.9429	3089.6103	3094.727	3124.771	3128.1479	3198.009	3207.5837
CC12C3C1C1OC3C21C	C[C@@]12[C@H]3[C@@H]1[C@@H]1O[C@H]3[C@]21C	
InChI=1S/C8H10O/c1-7-3-4(7)6-8(7,2)5(3)9-6/h3-6H,1-2H3	InChI=1S/C8H10O/c1-7-3-4(7)6-8(7,2)5(3)9-6/h3-6H,1-2H3/t3-,4+,5+,6-,7+,8-
