14
gdb 43318	2.73258	1.70055	1.21049	3.7893	74.81	-0.2386	-0.0666	0.172	993.0266	0.100641	-399.506728	-399.499277	-399.498333	-399.538561	28.687	
O	-0.0106737018	-0.0107888275	-0.0505528429	-0.305506
C	-0.0428555735	 1.1911573389	-0.0112108337	 0.358387
C	-1.2376102091	 2.0733267551	 0.1076532568	-0.19362
C	-0.8838476528	 3.3625759919	 0.0380112259	-0.033065
C	 0.6015585728	 3.5165935888	-0.0639575633	-0.14981
N	 1.2875208773	 2.9729838776	 1.1330568355	-0.352586
C	 1.1680582095	 2.1394856155	-0.114266836	 0.041186
C	 2.3309047557	 1.7704220282	-0.8508601655	 0.198852
C	 3.3114305772	 1.4404530588	-1.4636097179	-0.386328
H	-2.2328583321	 1.6718681723	 0.2441048094	 0.129494
H	-1.5545933872	 4.2112767349	 0.0994531839	 0.130091
H	 1.0514860165	 4.3370371134	-0.6100778745	 0.119825
H	 2.245522742	 3.3267510353	 1.1567386621	 0.244944
H	 4.1737079655	 1.1425430568	-2.0073315797	 0.198134
116.3046	135.2305	204.4641	310.8281	377.0943	412.697	486.2049	544.142	598.677	610.5592	652.7948	668.1141	712.6043	765.5908	817.9175	868.009	889.1424	915.1116	984.6915	1018.6967	1037.3635	1090.4565	1133.473	1178.032	1266.1474	1311.8871	1363.1801	1401.8052	1638.0346	1834.0154	2241.2167	3191.0443	3205.7196	3235.9082	3457.2551	3501.7612
O=C1C=CC2NC12C#C	O=C1C=C[C@H]2N[C@@]12C#C	
InChI=1S/C7H5NO/c1-2-7-5(8-7)3-4-6(7)9/h1,3-5,8H	InChI=1S/C7H5NO/c1-2-7-5(8-7)3-4-6(7)9/h1,3-5,8H/t5-,7-/m1/s1
