17
gdb 124753	2.58728	1.5037	0.98684	4.1538	71.26	-0.213	0.0145	0.2276	1161.265	0.137053	-451.323759	-451.315023	-451.314079	-451.357128	32.866	
C	 0.1362881277	 1.3295081645	 0.9929030753	-0.392948
C	-0.1612593953	 0.4769847034	-0.2359560624	 0.000631
O	 0.8582942798	-0.5190900787	-0.4560610531	-0.430316
C	-1.5115545834	-0.17908618	-0.1816950264	 0.245769
C	-1.9369149541	-1.2782286022	-0.9120306541	 0.273692
N	-1.2986507964	-2.0224580958	-1.8891485446	-0.607283
N	-3.2184116389	-1.4511554894	-0.5164165588	-0.24021
N	-3.5845151763	-0.519329656	 0.4139422978	-0.138386
N	-2.5488617411	 0.2365430034	 0.6004777754	-0.264171
H	 1.1240838956	 1.7872103054	 0.8967031597	 0.116379
H	-0.618232763	 2.1108857608	 1.1084651055	 0.146793
H	 0.1122432774	 0.7186183625	 1.9021824708	 0.114607
H	-0.088186375	 1.1072783345	-1.1317229979	 0.106006
H	 0.9108766899	-1.044928661	 0.3511935034	 0.279051
H	-0.2963025231	-1.8748590031	-1.8344461747	 0.269346
H	-1.5265154696	-3.008031831	-1.8926254302	 0.248369
H	-3.8920321041	-2.1332191472	-0.8247437058	 0.27267
58.9999	177.611	182.4669	235.1028	295.135	298.7476	326.1873	367.5449	424.6413	467.6145	503.9104	523.6767	653.827	700.0956	729.2508	751.2542	800.7404	890.9312	1005.9438	1017.5595	1031.4309	1077.2868	1094.6939	1115.6988	1232.7465	1276.6917	1305.4184	1324.9657	1358.7168	1404.4511	1407.6601	1417.4855	1485.1994	1489.0975	1538.8153	1624.5985	1665.9011	3023.3466	3041.2348	3113.2628	3138.3302	3517.8853	3617.9913	3659.9293	3785.1372
CC(O)C1=C(N)NN=N1	C[C@@H](O)c1c(N)[nH]nn1	
InChI=1S/C4H8N4O/c1-2(9)3-4(5)7-8-6-3/h2,9H,1H3,(H3,5,6,7,8)	InChI=1S/C4H8N4O/c1-2(9)3-4(5)7-8-6-3/h2,9H,1H3,(H3,5,6,7,8)/t2-/m1/s1
