21
gdb 87845	3.40137	1.3002	1.2166	1.5512	82.1	-0.2403	0.0922	0.3325	1134.9986	0.183847	-387.057782	-387.049942	-387.048998	-387.089849	31.831	
C	-0.0912765074	 1.5033824011	-0.0183067381	-0.408635
C	 0.0160814539	-0.003832584	 0.0417444616	-0.071492
C	 1.3433980184	-0.6964374422	-0.1956828499	-0.368806
C	 0.7190565164	-0.6981938862	 1.1724313264	 0.418607
C	 1.2971356714	-0.0100604628	 2.4287850008	-0.318087
C	 0.8940716789	-1.1163390663	 3.4328609002	 0.076551
C	 1.3261650031	-2.4286647606	 2.7406735576	-0.232646
C	 0.1658125942	-1.9581872671	 1.8351635637	-0.004267
O	-0.4827104709	-1.4079783307	 3.0294847302	-0.29872
H	 0.8173700371	 1.9842597451	 0.3582951403	 0.114083
H	-0.2432491999	 1.8463857267	-1.0476105334	 0.116006
H	-0.9323202125	 1.8669972907	 0.5826718222	 0.121798
H	-0.8558233671	-0.5260586326	-0.3478530781	 0.081027
H	 1.3543185004	-1.6210648775	-0.7656855512	 0.105388
H	 2.216889139	-0.0703012678	-0.3545366392	 0.106373
H	 2.3776897039	 0.1567991087	 2.386933134	 0.097807
H	 0.8021149372	 0.9350391186	 2.6658202018	 0.110038
H	 1.0165724392	-0.9285054086	 4.499502593	 0.078118
H	 2.331608472	-2.5093987644	 2.3194798854	 0.095376
H	 1.0585052631	-3.3068617274	 3.3289344004	 0.108087
H	-0.4614870804	-2.6295500729	 1.2474630122	 0.073393
113.4816	160.2001	215.7093	229.276	334.7124	391.8258	427.2119	511.419	518.4801	578.6682	761.5189	794.8691	830.5688	837.5071	866.9371	870.4112	895.6177	910.5662	936.9984	952.9375	997.1555	1018.0649	1033.7333	1052.1883	1077.0722	1095.0627	1101.3186	1129.5319	1162.7364	1183.5679	1202.5499	1221.1135	1225.7582	1250.7229	1281.5419	1297.3241	1310.4053	1358.2634	1410.9773	1431.9241	1479.7801	1491.0598	1493.1924	1496.3682	1507.9507	3027.5015	3054.1918	3066.5001	3089.1928	3095.2	3104.5211	3112.8489	3115.2786	3122.7119	3124.0258	3144.1171	3195.3301
CC1CC11CC2CC1O2	C[C@H]1C[C@]21C[C@@H]1C[C@H]2O1	
InChI=1S/C8H12O/c1-5-3-8(5)4-6-2-7(8)9-6/h5-7H,2-4H2,1H3	InChI=1S/C8H12O/c1-5-3-8(5)4-6-2-7(8)9-6/h5-7H,2-4H2,1H3/t5-,6-,7+,8+/m0/s1
