19
gdb 100223	2.57107	1.15232	0.97796	3.9979	81.38	-0.2404	0.026	0.2664	1286.7262	0.15634	-382.038303	-382.027846	-382.026902	-382.073578	37.883	
C	-0.2035449454	 1.4243361726	 0.1087018769	-0.331633
N	 0.0409467274	-0.0101828289	-0.0246789551	-0.300818
C	 0.751075157	-0.4460804656	-1.2417660539	 0.029322
C	 2.2179969297	 0.0392996312	-1.3205285885	-0.419751
C	 0.6993838684	-2.0064621459	-1.1894445963	-0.356226
C	 1.3500243763	-2.664833813	-2.3173299503	 0.274835
N	 1.874237189	-3.1888664405	-3.2037076809	-0.316347
C	 0.0168540533	 0.0099435411	-2.4285825717	 0.40685
C	-0.5572165913	 0.363715077	-3.4224764559	-0.491675
H	 0.7010155137	 2.0530745073	 0.1054218156	 0.102346
H	-0.8502369283	 1.758078159	-0.7063598178	 0.144219
H	-0.7312145131	 1.5967557078	 1.050849988	 0.124365
H	 0.5740747688	-0.3341814733	 0.777235869	 0.21734
H	 2.7721703721	-0.3072430926	-0.4408025868	 0.110031
H	 2.7128457151	-0.3452064508	-2.2156328991	 0.154172
H	 2.2606333411	 1.129895751	-1.3518851342	 0.134017
H	 1.1854981691	-2.3420332842	-0.2653995334	 0.141939
H	-0.3481458496	-2.3136260062	-1.1373921181	 0.169513
H	-1.0660248032	 0.6742497541	-4.3019502278	 0.207501
71.8426	87.8507	123.52	165.2175	184.3574	218.4349	255.1142	281.1367	339.3613	392.4146	399.2011	409.0183	472.7073	551.4056	625.9059	643.04	667.7359	712.9594	772.8614	879.9396	906.2849	962.4355	972.2435	1069.4033	1105.3319	1131.4678	1165.2989	1183.6356	1218.9656	1285.9284	1326.2988	1404.3376	1453.8027	1457.9459	1476.5807	1484.8331	1495.6467	1509.7239	1523.7675	2239.835	2363.8833	2977.7595	3037.7623	3045.4095	3081.6502	3108.919	3116.1332	3125.3696	3137.5407	3499.2245	3504.0477
CNC(C)(CC#N)C#C	CN[C@@](C)(CC#N)C#C	
InChI=1S/C7H10N2/c1-4-7(2,9-3)5-6-8/h1,9H,5H2,2-3H3	InChI=1S/C7H10N2/c1-4-7(2,9-3)5-6-8/h1,9H,5H2,2-3H3/t7-/m1/s1
