17
gdb 60778	2.08171	1.33335	0.85994	2.351	80.84	-0.2522	-0.0283	0.2239	1311.0681	0.130702	-384.624982	-384.614704	-384.613759	-384.660681	36.495	
C	 0.0588996826	 1.4997193381	 0.067425811	-0.422423
C	 0.0089781164	-0.0353126262	-0.0134977036	-0.057816
C	 0.7279215944	-0.6035473663	 1.2000130904	 0.164715
O	 1.8730388833	-0.967692515	 1.2038031264	-0.247495
C	-1.4601372734	-0.5651331995	-0.0532994093	-0.373832
C	-2.1906691783	-0.0495729599	-1.2138284855	 0.320044
C	-2.7738364008	 0.382401754	-2.1707156784	-0.425451
C	-1.4842556438	-2.0314610512	-0.0142640651	 0.31514
C	-1.4636584566	-3.2310440443	 0.0360655031	-0.42018
H	 1.0950292443	 1.8461607984	 0.0395636518	 0.138643
H	-0.4826283677	 1.9418563933	-0.7722486903	 0.145624
H	-0.3974215483	 1.862535573	 0.9959146956	 0.121501
H	 0.5366504995	-0.3812182571	-0.9060895465	 0.118792
H	 0.1161805589	-0.6112455851	 2.1340113842	 0.075098
H	-1.9614341843	-0.193843902	 0.8544519162	 0.138229
H	-3.3006053044	 0.7545356428	-3.0146653989	 0.203427
H	-1.4532095518	-4.2924198728	 0.0773456689	 0.205985
55.8595	67.4062	124.9339	138.9358	164.6699	224.3927	293.7373	309.2921	337.2102	349.3592	449.6866	488.1923	563.2795	594.1759	638.2927	644.2419	654.6592	660.6707	861.4169	894.4549	937.6983	987.7358	1026.6666	1099.9531	1108.4953	1153.2557	1235.0058	1297.4694	1319.9559	1339.0971	1402.1405	1428.5675	1495.727	1499.6436	1841.1732	2239.6898	2244.9921	2845.1281	2983.0188	3035.9359	3086.864	3111.1237	3132.1762	3501.998	3502.9693
CC(C=O)C(C#C)C#C	C[C@@H](C=O)C(C#C)C#C	
InChI=1S/C8H8O/c1-4-8(5-2)7(3)6-9/h1-2,6-8H,3H3	InChI=1S/C8H8O/c1-4-8(5-2)7(3)6-9/h1-2,6-8H,3H3/t7-/m0/s1
