21
gdb 100200	2.02045	1.40854	1.13711	1.7832	79.46	-0.2386	-0.0273	0.2112	1221.13	0.179109	-424.211292	-424.201014	-424.20007	-424.2466	37.271	
C	 0.2053556026	 1.0727805582	 0.6576444567	-0.251823
O	 0.5555431925	-0.2409777362	 0.2674662851	-0.278924
C	 0.8423956997	-0.437362963	-1.113778067	 0.235508
C	-0.2844332511	 0.0053601981	-2.04923098	-0.433424
C	 2.1611432933	 0.2799224327	-1.4374338437	 0.131719
O	 2.4323903623	 0.7896843472	-2.49298661	-0.252316
C	 1.1306227404	-1.9296437173	-1.2852588059	-0.004016
C	 1.8052925205	-2.7374786305	-0.2046085023	-0.277209
C	 0.3470926598	-2.961739836	-0.5141557956	-0.278244
H	 0.9212152614	 1.8237423308	 0.2925292694	 0.116108
H	-0.7974278306	 1.355894271	 0.3129051913	 0.119721
H	 0.2159915112	 1.0858164855	 1.750061646	 0.132546
H	-0.4745176667	 1.0792155671	-1.9790061204	 0.120739
H	-0.0028135936	-0.2038485604	-3.0833399125	 0.137212
H	-1.2025561852	-0.5380614446	-1.8120423002	 0.123295
H	 2.8840859313	 0.2524255209	-0.5904661125	 0.086329
H	 1.387111581	-2.1807038767	-2.3099333779	 0.09746
H	 2.525944737	-3.4887026934	-0.5076647902	 0.11061
H	 2.0330490123	-2.2331382597	 0.7262585561	 0.127389
H	-0.3700416987	-2.5975547231	 0.2110211462	 0.126432
H	 0.0559006105	-3.8664787607	-1.0358987425	 0.110885
64.3994	91.3174	120.1777	178.6972	181.6444	209.295	246.1212	268.4792	327.6072	343.6361	378.2076	467.0887	518.647	610.999	716.9169	792.0586	829.2615	839.3186	909.1006	927.5843	966.5796	1010.9749	1052.4165	1067.0214	1090.5593	1126.1525	1139.577	1145.9851	1180.9913	1199.6791	1209.6261	1218.7711	1231.3941	1245.633	1383.8491	1395.3741	1407.4176	1458.4139	1477.5711	1481.8305	1487.0193	1495.7564	1504.9755	1514.7889	1831.4419	2877.8431	2993.0835	3050.4545	3056.7897	3117.146	3129.6265	3137.5822	3142.0331	3144.4391	3156.9706	3228.0129	3241.2801
COC(C)(C=O)C1CC1	CO[C@@](C)(C=O)C1CC1	
InChI=1S/C7H12O2/c1-7(5-8,9-2)6-3-4-6/h5-6H,3-4H2,1-2H3	InChI=1S/C7H12O2/c1-7(5-8,9-2)6-3-4-6/h5-6H,3-4H2,1-2H3/t7-/m0/s1
