12
gdb 21881	5.25277	1.5271	1.18314	3.2796	61.03	-0.2489	-0.044	0.2049	915.9019	0.085182	-414.696449	-414.690024	-414.68908	-414.727178	23.738	
O	 0.1106339168	 1.306001055	 0.0672605446	-0.413603
C	 0.0699780099	-0.0329241293	 0.0639559766	 0.471411
N	 0.0877219317	-0.7321516233	-1.050244032	-0.344162
N	 0.0331663417	-2.0317768912	-0.6223953579	-0.019739
C	 0.0308823028	-3.1165927768	-1.500109724	 0.188305
O	 0.0752833463	-3.041567356	-2.6943622617	-0.266208
C	-0.0175088417	-2.1165726797	 0.7500011216	 0.024118
C	 0.0041666315	-0.8440354707	 1.2375159021	-0.335125
H	 0.1517431894	 1.5963474376	-0.8541549514	 0.314097
H	-0.0176300166	-4.0639121182	-0.9305462788	 0.095161
H	-0.0640124863	-3.0737169967	 1.2456459761	 0.154128
H	-0.0218572355	-0.5184299306	 2.2634536548	 0.131615
127.2127	202.8493	242.3543	374.1751	438.622	469.8977	529.7181	615.7205	689.629	719.5589	777.6899	826.2952	856.0962	980.4172	1015.585	1025.2199	1077.8525	1211.265	1244.1136	1327.5519	1400.8108	1456.4491	1470.156	1550.4116	1626.1775	1847.1306	2961.313	3260.2622	3288.2825	3777.9623
OC1=NN(C=O)C=C1	Oc1nn(C=O)cc1	
InChI=1S/C4H4N2O2/c7-3-6-2-1-4(8)5-6/h1-3H,(H,5,8)	InChI=1S/C4H4N2O2/c7-3-6-2-1-4(8)5-6/h1-3H,(H,5,8)
