17
gdb 48541	2.86181	1.50712	1.4817	2.8813	72.79	-0.245	-0.0355	0.2095	973.1772	0.136383	-421.782671	-421.775465	-421.774521	-421.814765	27.75	
O	-0.1247123172	-0.0376425587	-0.0291169121	-0.251409
C	-0.0303427909	 1.1657589491	-0.0765693457	-0.003778
C	 1.2451647853	 1.9086770758	-0.0380314094	 0.259037
C	 1.702932271	 2.9550892604	 1.0805997005	-0.114484
C	 2.9789797839	 2.0928857372	 1.2854637473	-0.238628
C	 2.6927802815	 1.3593924293	-0.0436258371	 0.048074
O	 3.0384947855	 2.182786008	-1.1849777521	-0.301301
C	 1.8078391546	 2.9244025996	-1.0952321899	 0.053613
C	 1.8721401074	 4.0316560604	-0.0217853578	-0.238251
H	-0.9388990632	 1.8085805176	-0.1453360111	 0.071309
H	 1.1025838211	 3.2011013354	 1.9557421568	 0.085019
H	 3.9381477618	 2.6104142291	 1.3673954955	 0.108813
H	 2.8538993065	 1.4110191676	 2.1325629761	 0.114632
H	 2.9857548577	 0.318380259	-0.178334655	 0.100091
H	 1.3781110395	 3.1351954195	-2.076678734	 0.090998
H	 0.9873441597	 4.6744127837	-0.0805989209	 0.106872
H	 2.7719198857	 4.6521257869	-0.0060212511	 0.109393
60.4402	146.6742	225.2482	327.5362	353.1333	397.1415	490.0114	633.3001	678.4157	724.6142	818.1973	834.8688	851.9944	880.9502	935.5905	949.3171	962.4057	999.4737	1024.6376	1070.1888	1079.8302	1109.8312	1121.9291	1124.7029	1167.248	1194.7247	1205.752	1251.476	1280.1945	1282.0791	1324.9238	1337.5391	1354.2572	1428.8097	1462.5299	1473.2308	1802.0059	2856.4262	3046.6769	3051.7963	3090.0389	3107.1011	3111.4436	3116.6232	3119.8984
O=CC12C3CC1OC2C3	O=C[C@@]12[C@H]3C[C@@H]1O[C@@H]2C3	
InChI=1S/C7H8O2/c8-3-7-4-1-5(7)9-6(7)2-4/h3-6H,1-2H2	InChI=1S/C7H8O2/c8-3-7-4-1-5(7)9-6(7)2-4/h3-6H,1-2H2/t4-,5-,6+,7+
