21
gdb 110883	2.42088	1.50375	1.2401	0.7583	78.33	-0.2226	0.0801	0.3027	1135.5406	0.182275	-424.204296	-424.195341	-424.194397	-424.238323	33.645	
C	 0.2521021475	 0.8019923082	-0.5078321941	-0.234329
O	-0.3891716789	-0.1156473079	 0.3638358496	-0.233012
C	 0.4634839716	-0.6210620546	 1.3330353406	 0.08333
C	 0.2479746728	-2.0477189941	 1.7783717843	-0.146576
C	-0.606862976	-2.9221312046	 0.8656137877	-0.260295
C	 0.3258147854	-3.2401254983	-0.3282351211	 0.165489
C	-0.347606826	-3.2403393362	-1.6890890566	-0.403318
O	 1.3488453518	-2.2241848012	-0.3196619568	-0.27038
C	 1.4717535746	-1.6909788571	 0.9676228385	 0.031649
H	 1.0677412935	 0.3185670971	-1.0578642153	 0.130712
H	-0.5057395751	 1.1543644508	-1.2118004048	 0.122416
H	 0.6511806547	 1.6661358483	 0.0440061102	 0.101939
H	 0.762411335	 0.0987239817	 2.0986446284	 0.078244
H	 0.3047872818	-2.2752787216	 2.8360445152	 0.091811
H	-0.9229580929	-3.8347952666	 1.3771072535	 0.099635
H	-1.5014127258	-2.3911479347	 0.5284344497	 0.119936
H	 0.8152777664	-4.2126360308	-0.1581026288	 0.067771
H	-0.8391122337	-2.278983355	-1.8641612751	 0.130355
H	 0.3843901452	-3.4094331141	-2.4838412205	 0.121545
H	-1.0996701755	-4.0343116141	-1.7409290414	 0.112417
H	 2.4823308535	-1.6836484654	 1.3659563766	 0.090663
47.6635	113.6068	158.5161	186.543	242.1259	260.9806	320.0444	331.5397	450.9595	543.5003	602.2881	662.8311	744.5202	768.1559	798.4498	825.2077	911.5906	915.7985	939.4464	1010.7829	1033.1633	1068.9105	1085.2145	1099.3298	1106.2057	1137.8494	1146.772	1158.0234	1178.0587	1204.1158	1233.428	1258.7968	1292.6645	1313.556	1345.4487	1369.9192	1386.4721	1409.0248	1417.8595	1478.9239	1484.2463	1487.1856	1491.2264	1499.0729	1507.1846	2966.926	2991.9911	3039.8417	3059.8508	3066.865	3072.7141	3105.2585	3112.5034	3119.5786	3121.812	3144.8212	3179.8977
COC1C2CC(C)OC12	CO[C@H]1[C@H]2C[C@@H](C)O[C@@H]12	
InChI=1S/C7H12O2/c1-4-3-5-6(8-2)7(5)9-4/h4-7H,3H2,1-2H3	InChI=1S/C7H12O2/c1-4-3-5-6(8-2)7(5)9-4/h4-7H,3H2,1-2H3/t4-,5-,6+,7-/m1/s1
