15
gdb 129678	3.11222	1.27613	0.90948	6.3671	71.28	-0.2123	0.01	0.2223	1195.0196	0.115105	-450.160849	-450.152611	-450.151667	-450.194069	29.949	
N	-0.114707389	 1.4185730133	 0.0082666213	-0.619896
C	-0.0472968473	 0.0121352123	-0.0131500819	 0.195951
C	-1.0969819851	-0.8883751087	 0.002943349	 0.2944
N	-2.4396232817	-0.5095382614	 0.0448356582	-0.416815
C	-3.5094424512	-1.3539852998	 0.0619513781	 0.139472
O	-3.450345364	-2.5645689157	 0.0432937483	-0.314045
C	-0.4982658569	-2.1692140135	-0.0311190778	-0.07812
N	 0.8296647866	-2.0733506237	-0.0661065598	-0.220039
N	 1.0838397343	-0.7547109881	-0.0547038272	-0.230879
H	 0.3259174187	 1.8275799162	 0.8256350294	 0.250802
H	 0.280669982	 1.8504723419	-0.8203884504	 0.250804
H	-2.607425254	 0.4865508456	 0.0633139276	 0.255799
H	-4.4627178628	-0.7916724808	 0.0957510613	 0.077161
H	-0.9898194148	-3.1266308337	-0.0310072685	 0.148511
H	 2.0377527754	-0.4354827839	-0.0763096476	 0.266894
65.8654	158.3712	164.8472	227.0538	244.327	265.2093	401.87	452.9712	460.8173	615.0151	623.7902	682.3143	711.2809	716.7841	763.065	879.1949	897.8428	955.6381	1015.0993	1123.2566	1156.0784	1186.3318	1204.4669	1254.2694	1275.1473	1403.9583	1429.9214	1438.2882	1508.3883	1536.1805	1638.5661	1685.6247	1801.2825	2945.8607	3297.3626	3499.4811	3569.5514	3602.4973	3667.4147
NC1=C(NC=O)C=NN1	Nc1c(NC=O)cn[nH]1	
InChI=1S/C4H6N4O/c5-4-3(6-2-9)1-7-8-4/h1-2H,(H,6,9)(H3,5,7,8)	InChI=1S/C4H6N4O/c5-4-3(6-2-9)1-7-8-4/h1-2H,(H,6,9)(H3,5,7,8)
