16
gdb 43402	2.81368	1.43893	0.9868	6.6936	76.19	-0.2627	-0.0703	0.1925	1142.1203	0.125677	-400.800056	-400.792236	-400.791291	-400.832719	29.173	
O	-0.0467614481	-0.0537200322	-0.0936950394	-0.306418
C	-0.0476937051	 1.1500666742	 0.0180621853	 0.391519
C	-1.2867334573	 1.9491293201	 0.0661474529	-0.144539
C	-1.2932778947	 3.2733620025	 0.2672829005	-0.038809
C	-0.0529789522	 4.081800992	 0.5176645592	-0.285528
C	 1.1246406999	 3.2111257356	 0.9674769825	-0.217779
C	 1.2642570844	 1.9722324959	 0.0546672287	-0.288249
C	 2.4092040098	 1.1462007538	 0.4288084181	 0.293852
N	 3.3373607248	 0.5374567756	 0.7476094938	-0.316507
H	-2.2017300623	 1.3863610569	-0.087851384	 0.120417
H	-2.2386913221	 3.8109336194	 0.250691104	 0.119229
H	 0.2046911127	 4.6315352596	-0.400799482	 0.131847
H	-0.2597869684	 4.8523548021	 1.2687951734	 0.127616
H	 2.0561303635	 3.7828812263	 0.9630901643	 0.129895
H	 0.9593394074	 2.8708479872	 1.9954293851	 0.134161
H	 1.4252930675	 2.316477311	-0.9784019426	 0.149293
72.8052	148.1225	167.8694	266.5751	313.5765	371.1164	424.5997	462.4705	535.1501	566.8806	630.664	726.2496	732.1129	832.6499	880.2413	898.5909	998.6585	1024.9656	1041.3895	1052.4885	1079.2135	1135.8696	1172.3721	1227.4103	1245.2168	1294.4868	1316.0582	1369.8322	1385.2768	1409.1394	1467.5876	1495.5021	1684.0802	1792.6517	2368.2229	2999.1701	3003.7897	3051.9495	3065.159	3104.1146	3157.0784	3194.2816
O=C1C=CCCC1C#N	O=C1C=CCC[C@H]1C#N	
InChI=1S/C7H7NO/c8-5-6-3-1-2-4-7(6)9/h2,4,6H,1,3H2	InChI=1S/C7H7NO/c8-5-6-3-1-2-4-7(6)9/h2,4,6H,1,3H2/t6-/m0/s1
