23
gdb 120645	4.43373	0.6865	0.65485	1.5781	84.18	-0.2488	0.073	0.3218	1802.6551	0.202943	-425.396693	-425.385603	-425.384658	-425.433344	39.466	
C	 0.0816103134	 1.3107795551	 0.2872545532	-0.223496
O	-0.0219208762	-0.0909515471	 0.3019589623	-0.228746
C	-1.2599892205	-0.5524407931	-0.2039046611	-0.084025
C	-1.2480094224	-2.0576367804	-0.1836466805	-0.067674
C	-1.6356547155	-2.828649132	 1.0549171001	-0.30936
C	-2.5146745042	-2.8903801887	-0.1722239155	 0.341687
C	-3.890230206	-2.2483549195	-0.14038704	-0.468439
C	-2.4632454137	-4.1662302436	-0.9852019123	-0.138694
O	-3.3370239543	-5.1191795835	-0.3907434269	-0.421352
H	 1.064747963	 1.5721280135	 0.6867728142	 0.125194
H	-0.0069751134	 1.7195878953	-0.7327103106	 0.099897
H	-0.6921999896	 1.7872167075	 0.9113327143	 0.100189
H	-2.0887282705	-0.1510573411	 0.4013428969	 0.082369
H	-1.4062745807	-0.1794329729	-1.2334573852	 0.08173
H	-0.4218102133	-2.4691259936	-0.7588181411	 0.084166
H	-1.0556789855	-3.7042942987	 1.3252309133	 0.111764
H	-1.9996262219	-2.2582738138	 1.9036371163	 0.108151
H	-3.9356072741	-1.3983569441	 0.5444048721	 0.111954
H	-4.1902540184	-1.8962422419	-1.1352227791	 0.107226
H	-4.6280349878	-2.9854520214	 0.1880901139	 0.137636
H	-2.7661869128	-3.9535222354	-2.0240684128	 0.082224
H	-1.4296513542	-4.5454290826	-1.0143911847	 0.081399
H	-3.4117680917	-5.8696908179	-0.9870292467	 0.286201
55.01	86.1699	90.4192	127.2219	181.4908	203.4699	235.8815	238.356	270.8737	309.7128	323.5184	368.6635	400.8225	478.6283	598.4416	707.338	866.9707	878.8529	910.7144	940.4721	971.6248	988.6869	1014.548	1043.5003	1065.3416	1087.8716	1112.228	1136.0637	1153.3184	1179.5507	1195.7799	1226.1181	1242.3246	1246.4974	1262.7718	1297.2616	1351.8038	1392.782	1413.6996	1445.1722	1461.8815	1481.2252	1485.7979	1487.4092	1494.8929	1503.8205	1514.347	1517.6006	1527.0473	2941.4379	2957.5551	2963.5826	2982.6922	2991.6062	3003.3405	3028.9794	3097.5978	3110.6715	3123.2497	3129.7779	3132.1185	3213.3997	3831.6277
COCC1CC1(C)CO	COC[C@H]1C[C@]1(C)CO	
InChI=1S/C7H14O2/c1-7(5-8)3-6(7)4-9-2/h6,8H,3-5H2,1-2H3	InChI=1S/C7H14O2/c1-7(5-8)3-6(7)4-9-2/h6,8H,3-5H2,1-2H3/t6-,7-/m1/s1
