16
gdb 132943	2.36073	1.73858	1.00736	5.4365	77.9	-0.1923	-0.0059	0.1864	1110.1875	0.125348	-442.072522	-442.064517	-442.063573	-442.104824	30.7	
C	 0.1326148319	 1.4775608621	 0.0500111431	-0.470426
C	 0.0090984298	-0.016372907	 0.0139385588	 0.225714
C	-0.0520104779	-0.7030274534	-1.152463358	-0.075161
N	-0.1651073976	-2.0715797267	-1.1981895946	-0.3452
C	-0.2210849358	-2.8029618651	-0.0381566218	-0.104972
C	-0.1643130219	-2.169642914	 1.1508046268	 0.168915
F	-0.2194888666	-2.8901490338	 2.2794041633	-0.084986
C	-0.0445220895	-0.7251327583	 1.2963964821	 0.123739
N	 0.0127148773	-0.0839119609	 2.4158892714	-0.564137
H	 1.0359654995	 1.7741561869	 0.5933386771	 0.143341
H	 0.1629702413	 1.9050346191	-0.9561338909	 0.101801
H	-0.7044952356	 1.9177528361	 0.6019629152	 0.143407
H	-0.0149882361	-0.2097677246	-2.1162685866	 0.122769
H	-0.2074880066	-2.5429445176	-2.084017879	 0.267133
H	-0.310093151	-3.8776825163	-0.1221210116	 0.139518
H	-0.0389405513	-0.7453227765	 3.1923530348	 0.208545
107.8111	177.0586	259.1702	287.8646	308.6737	322.6166	333.0932	462.7961	481.5792	509.9173	540.0321	570.5264	691.3812	758.7588	846.1911	869.1412	869.4732	883.202	943.417	1022.2044	1066.0579	1093.1812	1209.8639	1249.8343	1284.3224	1309.5711	1382.7028	1415.5231	1437.0689	1463.3253	1488.1417	1544.5297	1629.5622	1667.0704	1715.0244	3035.3823	3092.1862	3115.804	3205.1525	3225.9879	3462.5187	3683.8708
CC1=CNC=C(F)C1=N	CC1=CNCC(=C1[NH])F	
InChI=1S/C6H7FN2/c1-4-2-9-3-5(7)6(4)8/h2-3H,1H3,(H2,8,9)	InChI=1S/C6H8FN2/c1-4-2-9-3-5(7)6(4)8/h2,8-9H,3H2,1H3
