19
gdb 120115	3.39871	0.91599	0.84643	4.1779	75.93	-0.2759	0.0011	0.277	1443.1588	0.15849	-423.028915	-423.020146	-423.019202	-423.063336	32.226	
C	-0.0518559474	 1.5262126917	 0.0825488065	-0.382805
C	-0.1316025307	 0.0034946286	 0.2166597437	-0.161431
C	-1.4829918156	-0.5619094475	-0.2418784746	-0.213123
C	-1.5389337549	-2.0716533556	-0.1421230107	-0.03815
C	-1.9181051362	-2.829650441	 1.0780189991	 0.08094
O	-2.9191376367	-2.0973665185	 1.8377086579	-0.26325
C	-3.8272356685	-2.245154994	 0.7894266762	 0.466206
O	-4.9744321295	-1.9418078502	 0.786943807	-0.322653
C	-2.8335310435	-2.9140719786	-0.12220652	-0.312558
H	 0.9200265625	 1.9040155018	 0.4141106279	 0.114547
H	-0.1948772502	 1.8402249575	-0.9573670638	 0.115855
H	-0.8239721276	 2.016823147	 0.6849996015	 0.122348
H	 0.675268909	-0.4597867447	-0.3669012365	 0.093629
H	 0.040864585	-0.2864604377	 1.2605736097	 0.106707
H	-2.2849405659	-0.1212097084	 0.358719755	 0.126633
H	-1.6728971976	-0.269337709	-1.2822735304	 0.105125
H	-0.7728354196	-2.5864818864	-0.7226020393	 0.10654
H	-1.3669166989	-3.5931468078	 1.608655757	 0.128317
H	-3.0383484836	-3.7071800572	-0.8261597962	 0.127122
61.8781	81.6671	96.5631	193.1288	238.6579	261.878	366.5796	398.1372	481.0704	595.0271	706.845	748.1495	750.8163	801.2337	825.6564	869.9936	895.1038	907.827	939.0573	965.1041	1007.2703	1045.1955	1058.2568	1069.5326	1097.5911	1105.6124	1136.4162	1199.1698	1267.8737	1274.9473	1298.5493	1326.1042	1333.6928	1392.3559	1413.5078	1443.0414	1479.1602	1492.0196	1499.6919	1509.4686	1943.8959	3016.3497	3029.9682	3033.0068	3051.0571	3084.6725	3099.9226	3105.7809	3118.1234	3219.828	3232.6669
CCCC1C2OC(=O)C12	CCC[C@H]1[C@H]2OC(=O)[C@@H]12	
InChI=1S/C7H10O2/c1-2-3-4-5-6(4)9-7(5)8/h4-6H,2-3H2,1H3	InChI=1S/C7H10O2/c1-2-3-4-5-6(4)9-7(5)8/h4-6H,2-3H2,1H3/t4-,5+,6-/m1/s1
