23
gdb 63888	2.65426	1.65523	1.48278	0.1516	88.4	-0.2305	0.0225	0.253	1044.6448	0.208108	-351.172726	-351.164742	-351.163798	-351.204282	33.962	
C	-0.0856382074	 1.5487880721	 0.0011435349	-0.443863
C	-0.0012598537	 0.0155912386	-0.0044625716	 0.354126
C	-1.4339691608	-0.5435790848	-0.044051504	-0.441898
C	 0.8718041827	-0.5331365435	-1.1898583673	-0.257732
C	 2.0138365849	-1.3349759958	-0.479366108	-0.050852
C	 1.2335749584	-1.9435468504	 0.7088764952	-0.220625
C	 0.7892709441	-0.5596505466	 1.242719133	-0.070717
C	 2.1411456046	 0.1397341928	 1.2908419842	-0.088361
C	 2.8665363713	-0.316790949	 0.2651678721	-0.078436
H	 0.9050482374	 2.0097771191	-0.0038967626	 0.114121
H	-0.6259128829	 1.9079011176	-0.8822648646	 0.106361
H	-0.6247377303	 1.9112146304	 0.8848027953	 0.10319
H	-1.9565563274	-0.2016769259	-0.9444969259	 0.109943
H	-1.4584467879	-1.6367246421	-0.046309539	 0.110489
H	-2.0104582576	-0.1979726906	 0.8218930162	 0.107508
H	 0.285797299	-1.1953401963	-1.8359013758	 0.089578
H	 1.2692755412	 0.268710627	-1.8178135419	 0.092544
H	 2.5502020253	-2.0242899196	-1.1329282025	 0.054289
H	 0.4104002809	-2.597144764	 0.4069854957	 0.087778
H	 1.8801786189	-2.4755008861	 1.4109363487	 0.092871
H	 0.2083027986	-0.541523083	 2.1669599948	 0.048972
H	 2.4022032696	 0.9341302445	 1.9786743439	 0.091372
H	 3.840351841	 0.0280811454	-0.0601027807	 0.089342
164.8992	225.7668	239.9919	274.341	352.2621	363.7713	400.3101	435.3908	486.1998	504.2127	598.9124	715.8771	748.0714	773.734	826.832	842.059	887.5264	910.8287	918.9925	936.6494	949.2666	956.9069	967.445	978.4026	985.0355	1021.6735	1049.9901	1101.5949	1123.6014	1146.3837	1169.8694	1176.7078	1228.0748	1251.4813	1260.2988	1283.7556	1289.5841	1311.5667	1326.9639	1362.3451	1398.1171	1420.5215	1484.2477	1487.3366	1491.7805	1499.9375	1509.9419	1513.6537	1643.445	3021.7443	3026.9479	3042.4331	3060.2308	3080.0036	3087.2335	3090.0014	3093.0816	3102.1179	3105.0586	3114.8042	3115.5095	3193.5488	3219.6621
CC1(C)CC2CC1C=C2	CC1(C)C[C@@H]2C[C@H]1C=C2	
InChI=1S/C9H14/c1-9(2)6-7-3-4-8(9)5-7/h3-4,7-8H,5-6H2,1-2H3	InChI=1S/C9H14/c1-9(2)6-7-3-4-8(9)5-7/h3-4,7-8H,5-6H2,1-2H3/t7-,8+/m0/s1
