14
gdb 6078	4.45166	1.27022	1.2474	1.7334	54.48	-0.2517	0.0235	0.2752	998.0363	0.106783	-453.069829	-453.061319	-453.060375	-453.103979	29.919	
N	-0.1268649744	 1.0081855297	 0.3247375695	-0.52456
C	-0.1726914504	-0.3056390997	-0.0517196553	 0.398191
O	 0.7564348231	-1.0722417214	 0.0700517668	-0.345237
C	-1.4934585972	-0.7076893429	-0.7268486111	-0.174164
O	-1.5823417303	-2.1115854682	-0.8679520796	-0.237973
C	-1.839714404	-2.7722259096	 0.2967095769	 0.511918
N	-1.7923335347	-4.1185141956	 0.0815392974	-0.562349
O	-2.1221296715	-2.2290799142	 1.3382447037	-0.403881
H	 0.6758353628	 1.2960475561	 0.8626971162	 0.264799
H	-0.9757056858	 1.5331551592	 0.456078218	 0.260515
H	-2.3461353535	-0.3216659009	-0.1598392505	 0.133069
H	-1.5187064465	-0.3018010185	-1.74189731	 0.139492
H	-1.2849719585	-4.4471772325	-0.7234263005	 0.269605
H	-1.760012319	-4.6874668415	 0.9105787183	 0.270574
33.5562	77.6663	82.2802	278.7947	317.8596	354.1578	387.417	431.0543	469.9381	484.2531	524.9905	594.0197	657.3145	703.602	788.6876	831.7332	888.4857	1026.7618	1100.1336	1120.0611	1155.5593	1298.1013	1302.2209	1370.6985	1419.4456	1461.8153	1615.7676	1623.8211	1822.0698	1840.1853	3055.9004	3111.3516	3587.0036	3608.2397	3713.4238	3733.7463
NC(=O)COC(N)=O	NC(=O)COC(=O)N	
InChI=1S/C3H6N2O3/c4-2(6)1-8-3(5)7/h1H2,(H2,4,6)(H2,5,7)	InChI=1S/C3H6N2O3/c4-2(6)1-8-3(5)7/h1H2,(H2,4,6)(H2,5,7)
