20
gdb 47713	2.45314	1.72554	1.15326	3.1292	80.58	-0.245	0.0253	0.2703	1103.0092	0.173311	-403.161531	-403.153535	-403.152591	-403.194217	31.548	
N	-0.0695789032	 1.2493022961	 0.3577307871	-0.527102
C	-0.0400146445	 0.0337946328	-0.0047600431	 0.331
O	 1.154342898	-0.574837067	-0.2714952708	-0.258147
C	 1.2215805188	-1.7948972539	-1.0219727875	-0.063605
C	 0.106374987	-2.769154873	-0.6765085277	-0.22257
C	-1.23246476	-2.0617873107	-0.8842370319	-0.296203
C	-1.2848795442	-0.8019187523	-0.0376250481	 0.275733
C	-2.049612117	-0.8520214021	 1.2842335713	-0.283407
C	-2.6002709367	-0.0819887835	 0.1213853008	-0.307127
H	 0.877124381	 1.6311404035	 0.3729864531	 0.215753
H	 1.1883329546	-1.5496027796	-2.0935309717	 0.106168
H	 2.2100567013	-2.2071015491	-0.8032757264	 0.116017
H	 0.1960725019	-3.6562328123	-1.3127171685	 0.102385
H	 0.2073032662	-3.0949004714	 0.3653588255	 0.112605
H	-1.3431155995	-1.8059902651	-1.947466766	 0.102751
H	-2.0738481674	-2.7140569928	-0.6297645223	 0.099269
H	-2.511349875	-1.7970460143	 1.5528515188	 0.108372
H	-1.6374201875	-0.2852016749	 2.1100179351	 0.133697
H	-2.5551387046	 0.9984928133	 0.1691505991	 0.149165
H	-3.4491948992	-0.4965316537	-0.4127838367	 0.105246
64.2387	118.8972	264.4112	267.9021	297.3915	381.3906	402.5527	450.4095	527.7107	591.4449	664.4707	703.9095	790.9393	835.7899	878.5778	888.6455	894.5553	923.715	939.4242	966.5953	989.1038	1015.4309	1056.105	1064.1165	1092.1388	1126.6369	1140.0168	1199.9695	1211.1348	1227.37	1257.2212	1296.4064	1311.7178	1354.4631	1377.3898	1395.8792	1435.5211	1453.6855	1477.8097	1486.8493	1496.1608	1515.4294	1728.1252	3001.492	3009.7426	3037.4233	3072.1476	3084.6157	3094.0327	3130.7412	3136.7531	3226.7103	3241.7365	3477.6924
N=C1OCCCC11CC1	[NH][C]1OCCCC21CC2	
InChI=1S/C7H11NO/c8-6-7(3-4-7)2-1-5-9-6/h8H,1-5H2	InChI=1S/C7H11NO/c8-6-7(3-4-7)2-1-5-9-6/h8H,1-5H2
