20
gdb 87263	2.53618	1.08205	0.95331	4.5144	76.85	-0.2403	0.0134	0.2536	1335.8308	0.168296	-440.278009	-440.267944	-440.267	-440.313703	35.743	
C	-0.6382025631	 1.1426819613	 0.5641291025	-0.320757
N	-0.1388372335	-0.224926695	 0.5264878526	-0.108831
C	 1.1294836977	-0.4776143359	-0.1488205761	-0.299808
C	 1.0198467691	-0.6245936366	 1.3339739472	 0.320552
C	 1.7370304882	 0.3399601021	 2.258389224	-0.471208
C	 0.8503910829	-2.0224166032	 1.8951695209	-0.140563
O	 0.0233751005	-1.9991557159	 3.067553615	-0.185477
C	-1.3036826361	-2.170674316	 2.8870096307	 0.1747
O	-2.0885050483	-2.0682648512	 3.7817467928	-0.280987
H	 0.1433339975	 1.9170668972	 0.5669656494	 0.103997
H	-1.265755593	 1.3047762132	-0.3177129146	 0.129818
H	-1.2619145392	 1.2775595629	 1.4529325951	 0.136163
H	 1.1646355878	-1.3457227556	-0.8037641228	 0.112821
H	 1.6920013278	 0.3822324448	-0.5118143318	 0.110243
H	 1.8324420441	 1.3373864266	 1.8262468175	 0.122842
H	 1.2086863015	 0.4222052071	 3.2129579092	 0.146558
H	 2.7475325609	-0.0265360105	 2.4688115722	 0.124885
H	 0.4092355233	-2.6789721933	 1.1374439138	 0.114322
H	 1.8074085841	-2.4446008682	 2.2149361146	 0.119434
H	-1.5655540923	-2.4206259039	 1.8431191977	 0.091297
48.6044	64.8789	146.7636	171.9232	176.0089	190.2461	260.8025	291.0536	322.0361	398.5771	438.5514	464.0743	492.4668	674.2492	714.1978	789.8317	892.2476	920.9557	963.0923	1005.7284	1027.6017	1045.2749	1067.2518	1103.3941	1127.7053	1142.1816	1157.3994	1181.2755	1214.9487	1292.1423	1322.4724	1377.1755	1403.2512	1416.2652	1435.8574	1452.001	1482.6544	1486.6006	1492.7486	1501.4719	1510.2711	1515.8056	1861.8182	2981.431	2988.3068	3042.4576	3044.9192	3073.9981	3083.1775	3100.7973	3105.1116	3109.011	3135.2706	3165.206
CN1CC1(C)COC=O	CN1C[C@]1(C)COC=O	
InChI=1S/C6H11NO2/c1-6(3-7(6)2)4-9-5-8/h5H,3-4H2,1-2H3	InChI=1S/C6H11NO2/c1-6(3-7(6)2)4-9-5-8/h5H,3-4H2,1-2H3/t6-,7?/m1/s1
