17
gdb 43021	2.82654	1.81535	1.37129	1.4368	72.2	-0.2417	-0.0197	0.222	943.6834	0.137738	-421.774537	-421.767961	-421.767017	-421.805311	27.194	
O	-0.1575817944	-0.0373565327	-0.0556295858	-0.314255
C	-0.1129226783	 1.1586049096	-0.0201429589	 0.38943
C	-1.2860392103	 2.1673796404	 0.1000765436	-0.14036
C	-0.746564217	 3.4081306932	 0.9457440099	-0.322474
C	 0.2449773538	 3.4292278155	-0.2305989031	 0.466567
C	-0.9233760324	 3.016713648	-1.1596116267	-0.297312
O	 1.3722061015	 4.1610826862	-0.7206966154	-0.353977
C	 2.0084130169	 2.879814464	-1.0566111447	-0.166804
C	 1.0590473986	 2.1595626034	-0.0569413347	-0.174441
H	-2.2793523689	 1.758549909	 0.2660639599	 0.097375
H	-1.4967296773	 4.2027791407	 0.9619150942	 0.116215
H	-0.3463604928	 3.2267494245	 1.9456843357	 0.111629
H	-0.7027282461	 2.4901272757	-2.091826222	 0.112847
H	-1.6320588787	 3.8287796875	-1.3327845817	 0.115365
H	 1.8665431797	 2.6327134575	-2.1136899331	 0.12022
H	 3.0707107982	 2.8817293107	-0.8055866843	 0.124529
H	 1.5495673973	 2.1294551466	 0.9226500669	 0.115444
142.6944	259.0457	296.1094	367.7441	484.4291	501.7769	540.1962	566.2435	646.119	726.9979	764.7061	807.6322	867.8519	896.4033	932.2232	945.3983	951.5295	982.7253	1013.362	1023.3033	1056.8165	1086.0709	1121.5164	1126.7185	1147.8511	1178.676	1203.8154	1210.699	1237.3588	1268.2988	1291.539	1319.6129	1333.6787	1487.0093	1512.7039	1521.9197	1873.4021	3045.6459	3049.3595	3061.7815	3066.9811	3120.9875	3127.9632	3131.232	3161.7894
O=C1C2CC3(C2)OCC13	O=C1[C@H]2C[C@@]3(C2)OC[C@H]13	
InChI=1S/C7H8O2/c8-6-4-1-7(2-4)5(6)3-9-7/h4-5H,1-3H2	InChI=1S/C7H8O2/c8-6-4-1-7(2-4)5(6)3-9-7/h4-5H,1-3H2/t4-,5-,7-/m1/s1
