21
gdb 57681	2.95186	0.81906	0.75116	0.7235	91.07	-0.2557	0.0485	0.3041	1601.1353	0.178052	-349.894784	-349.883839	-349.882895	-349.930659	40.642	
C	 0.0881001309	 1.5784768949	-0.001357863	-0.407339
C	 0.0422997053	 0.0330633258	 0.0381719818	 0.055989
C	 0.8593730526	-0.4849331344	 1.2448218435	-0.407341
C	-1.4236053178	-0.4899448854	 0.0794264848	-0.183686
C	-2.2513414035	-0.0569480066	 1.309108587	-0.384258
C	-3.6073981199	-0.5911506545	 1.263679868	 0.287344
C	-4.7191663673	-1.0437977281	 1.2016640991	-0.428492
C	 0.6495080015	-0.4844446065	-1.1945809778	 0.327882
C	 1.1420980064	-0.9106812295	-2.205271023	-0.478931
H	 1.1173933458	 1.9250298858	-0.1272504353	 0.125298
H	-0.5032107886	 1.9661625119	-0.8358602371	 0.124385
H	-0.2987134139	 2.0077511771	 0.9278338769	 0.115124
H	 0.4788648971	-0.0724842833	 2.184180731	 0.11513
H	 0.8209552345	-1.5764479566	 1.3037016038	 0.124381
H	 1.907477728	-0.1887222478	 1.149295309	 0.125297
H	-1.9385671127	-0.154143671	-0.8261782555	 0.118214
H	-1.4043173916	-1.5835067867	 0.0367869418	 0.118214
H	-1.7652609392	-0.3936499229	 2.2325115704	 0.133449
H	-2.2998333307	 1.0368413998	 1.3689884433	 0.133456
H	-5.7039413266	-1.4377469695	 1.1577372857	 0.193291
H	 1.5787418597	-1.2863847526	-3.0972799445	 0.192593
57.1159	96.246	98.8832	177.9696	181.552	247.0639	248.7937	264.9354	335.4909	357.2971	364.2508	420.6639	459.7275	551.3275	578.9052	616.2133	628.8599	630.9507	635.8799	731.2518	762.2882	885.2694	936.0486	951.6887	976.5899	999.8664	1030.9127	1048.2087	1145.7601	1216.6396	1222.8138	1251.7801	1307.9758	1331.8543	1382.3982	1395.5269	1418.4228	1471.7962	1481.4003	1488.5784	1490.2893	1502.1325	1508.7962	2230.8698	2239.352	3029.8905	3037.7057	3043.2011	3052.213	3061.1558	3096.9914	3110.6668	3114.5419	3117.4658	3119.891	3503.0385	3508.3587
CC(C)(CCC#C)C#C	CC(C)(CCC#C)C#C	
InChI=1S/C9H12/c1-5-7-8-9(3,4)6-2/h1-2H,7-8H2,3-4H3	InChI=1S/C9H12/c1-5-7-8-9(3,4)6-2/h1-2H,7-8H2,3-4H3
