25
gdb 101475	3.27891	0.89418	0.74388	1.6037	88.5	-0.2437	0.0787	0.3224	1618.1131	0.229479	-389.505526	-389.49527	-389.494326	-389.541504	37.8	
C	-0.0779953603	 1.5806705832	 0.0867740698	-0.391846
C	 0.0348129607	 0.0543188909	 0.0077376353	-0.168781
C	 0.7445225538	-0.4806768547	-1.2524834004	 0.020287
C	 2.2124677052	-0.0278281738	-1.3124857808	-0.404716
C	 0.6356865817	-2.0124373002	-1.3392579675	 0.040802
C	-0.8088545334	-2.5668583211	-1.453063919	-0.264843
C	-0.678996206	-3.772119611	-2.4184415709	-0.079191
O	 0.7058991562	-3.9229288683	-2.7089839862	-0.247011
C	 1.3007339808	-2.6457355562	-2.574401362	-0.108331
H	 0.8999025916	 2.0654130864	 0.1615588543	 0.118523
H	-0.582464153	 1.9856175002	-0.7980106149	 0.112588
H	-0.6581656183	 1.8820164853	 0.9646558596	 0.112054
H	 0.5614088316	-0.3214989162	 0.8962991434	 0.091465
H	-0.9745227102	-0.3706533833	 0.0534922781	 0.097501
H	 0.22453845	-0.0656248312	-2.1306217342	 0.064606
H	 2.7017267652	-0.3652011192	-2.2309908404	 0.117948
H	 2.3011013384	 1.0614589923	-1.2814341517	 0.115109
H	 2.7797364303	-0.4317324339	-0.4649459259	 0.112318
H	 1.1111317793	-2.446355329	-0.4496881496	 0.072149
H	-1.2132715454	-2.8619292063	-0.4824137981	 0.107965
H	-1.4826761848	-1.8105098411	-1.8691379186	 0.101041
H	-1.0311732182	-4.7143580274	-1.9884166542	 0.105163
H	-1.245377525	-3.5917898777	-3.3451595234	 0.088352
H	 1.1163126437	-2.0244343556	-3.4704044145	 0.07861
H	 2.3790182262	-2.7924437719	-2.4761738685	 0.108239
43.3088	77.8059	98.1524	154.7914	191.0424	219.551	242.6153	302.8184	323.3929	374.952	406.4199	480.612	623.8977	698.5723	777.0849	814.3876	843.4812	874.0809	943.6091	951.5007	969.6696	978.1462	995.7415	1003.9822	1046.3057	1063.5132	1080.3419	1131.135	1158.8722	1175.4709	1183.9888	1231.0505	1238.4531	1267.056	1286.2562	1289.3752	1313.5948	1328.3164	1348.088	1365.7221	1373.238	1390.1846	1407.5955	1412.2129	1417.7212	1484.0054	1497.0631	1499.5008	1500.0247	1508.0456	1509.94	1515.7645	1529.6928	2933.8337	2977.5931	2981.1936	3011.7232	3019.1773	3031.5958	3033.6955	3050.593	3057.9811	3072.9816	3093.9069	3097.2835	3098.604	3105.7757	3106.443	3115.145
CCC(C)C1CCOC1	CC[C@@H](C)[C@H]1CCOC1	
InChI=1S/C8H16O/c1-3-7(2)8-4-5-9-6-8/h7-8H,3-6H2,1-2H3	InChI=1S/C8H16O/c1-3-7(2)8-4-5-9-6-8/h7-8H,3-6H2,1-2H3/t7-,8+/m1/s1
