18
gdb 87497	2.97447	1.42655	1.15676	1.5193	72.66	-0.2473	0.069	0.3162	1101.2466	0.147105	-438.986527	-438.978502	-438.977557	-439.018832	31.469	
C	 0.0519081814	 1.5354422077	-0.1098500864	-0.415046
C	 0.0231563075	 0.041654505	 0.0617025687	-0.08114
O	 1.3172650142	-0.6432509277	-0.000328854	-0.341158
C	 0.5927752816	-0.6346855396	 1.2100146138	 0.565909
C	 1.1217475359	-0.2567623481	 2.6020548782	-0.205932
N	-0.1958066539	-0.8127499278	 3.115760131	-0.326056
C	 0.2653102861	-1.8434249687	 2.097984037	-0.208222
C	 1.7255892779	-1.7085199164	 2.666015886	 0.169518
O	 2.8515477653	-2.0887085201	 1.9474475214	-0.443515
H	 0.8543368415	 1.9806564	 0.4831741825	 0.128577
H	 0.2070042834	 1.8010524521	-1.1603691029	 0.132035
H	-0.9017099096	 1.9668448237	 0.2120857175	 0.134689
H	-0.7514679033	-0.4838112009	-0.4973921863	 0.104387
H	 1.5345970684	 0.6877057365	 2.9565810402	 0.088991
H	-0.0415956132	-1.1941405372	 4.055306482	 0.215978
H	-0.3159252474	-2.7356090994	 1.8651066582	 0.089736
H	 1.8368632166	-2.0915095542	 3.6858386075	 0.083985
H	 2.7667631974	-1.760512755	 1.0433422156	 0.307264
132.8251	144.0555	192.3733	224.473	329.651	358.5898	437.9225	453.4751	466.5851	514.4003	612.6767	670.1428	782.8731	796.8803	852.4292	857.6031	886.7508	936.2607	989.2753	1009.0418	1038.6922	1093.2367	1107.6812	1122.153	1127.7791	1131.7978	1161.0832	1169.7327	1195.5069	1245.3161	1272.8284	1301.054	1328.2454	1360.4174	1410.9822	1455.9062	1477.7941	1491.318	1570.4078	3040.9145	3066.8555	3106.8136	3107.7629	3120.0288	3124.947	3132.2018	3380.633	3781.3278
CC1OC11C2NC1C2O	C[C@H]1O[C@]21[C@H]1N[C@@H]2[C@H]1O	
InChI=1S/C6H9NO2/c1-2-6(9-2)4-3(8)5(6)7-4/h2-5,7-8H,1H3	InChI=1S/C6H9NO2/c1-2-6(9-2)4-3(8)5(6)7-4/h2-5,7-8H,1H3/t2-,3-,4-,5+,6+/m1/s1
