13
gdb 132631	3.14051	1.44157	0.98884	3.131	66.68	-0.2097	-0.0394	0.1704	1080.295	0.090155	-494.091207	-494.083898	-494.082954	-494.122822	28.245	
N	-0.0022655719	 1.3775402822	-0.0853385044	-0.572062
C	-0.0120261843	-0.006013587	-0.0414112593	 0.349505
C	-1.189171518	-0.7597893389	-0.0724454579	-0.090687
N	-1.1585222661	-2.0954996923	-0.0866386813	-0.313641
C	 0.0141426403	-2.6973339091	-0.075258286	 0.268304
O	 0.0901524762	-4.0460685082	-0.0912929345	-0.414564
C	 1.1880358764	-1.927693734	-0.0418784478	 0.24988
F	 2.3633137444	-2.5406689914	-0.0217363176	-0.050909
N	 1.1817500785	-0.6239632782	-0.021232889	-0.351082
H	 0.8689508545	 1.7855959465	 0.2204060225	 0.26065
H	-0.8164804582	 1.8391169548	 0.2899165455	 0.254967
H	-2.1654432683	-0.2847946744	-0.0878032774	 0.108558
H	-0.8220131935	-4.3658320598	-0.1132932527	 0.30108
124.967	244.1879	296.846	317.5514	344.1756	394.5737	450.983	508.0644	516.288	545.6553	563.8222	602.3338	689.6634	737.9981	786.0953	827.5619	884.7196	1020.3192	1100.5074	1161.6503	1260.9855	1311.7908	1340.2399	1400.0873	1497.3033	1522.6976	1614.1307	1636.5566	1663.4003	3170.4648	3575.5043	3685.3995	3776.9599
NC1=CN=C(O)C(F)=N1	Nc1cnc(O)c(F)n1	
InChI=1S/C4H4FN3O/c5-3-4(9)7-1-2(6)8-3/h1H,(H2,6,8)(H,7,9)	InChI=1S/C4H4FN3O/c5-3-4(9)7-1-2(6)8-3/h1H,(H2,6,8)(H,7,9)
