20
gdb 48411	2.97518	1.0644	0.88268	2.106	80.23	-0.2563	-0.0333	0.223	1363.7992	0.170437	-403.12086	-403.111796	-403.110852	-403.155378	33.544	
O	-0.4221492655	 0.5013921576	 0.7635921791	-0.276805
C	-0.1770076789	 1.5537246959	 0.2205101448	 0.108262
C	 1.2115698408	 2.0447228422	-0.0365927136	 0.246081
C	 1.4026228685	 3.0699807974	-1.1376924707	-0.319174
C	 1.2141045364	 2.478081603	-2.5204049168	 0.042136
C	-0.146196311	 2.4446102958	-3.1776759745	-0.262907
C	 0.9299609167	 3.363564571	-3.7036189648	-0.277622
C	 2.0873649734	 2.0342094867	 1.1868581999	-0.267175
N	 2.277683873	 1.0441824115	 0.1359208787	-0.338956
H	-0.9912639693	 2.2318159887	-0.1115225479	 0.082675
H	 0.7002254795	 3.9012913093	-0.9862444901	 0.095437
H	 2.4102962595	 3.4909693874	-1.0492780378	 0.111293
H	 1.8518877048	 1.6189525764	-2.7072846424	 0.102791
H	-0.4165240437	 1.5737211087	-3.7642300995	 0.116921
H	-0.9815633419	 2.900660366	-2.655420356	 0.107981
H	 0.8145418043	 4.4278420027	-3.5240940422	 0.109944
H	 1.3966835289	 3.1237856903	-4.6524774057	 0.114621
H	 2.8639547971	 2.7904839303	 1.2660136155	 0.125096
H	 1.6386413579	 1.7200110757	 2.1250396907	 0.131454
H	 1.8285489594	 0.1735993936	 0.4240812931	 0.247948
57.9947	76.996	119.4027	185.8724	257.2241	281.7737	326.1542	332.2303	382.4966	460.4839	652.6906	762.8418	776.5931	802.4765	834.8612	852.964	881.4507	928.5708	948.1131	960.1413	1004.3094	1020.5304	1031.4313	1056.6709	1081.3483	1115.4079	1132.3961	1148.5237	1156.6445	1200.1989	1225.0829	1240.6443	1292.3458	1318.7576	1338.6961	1378.6318	1414.6832	1429.4466	1466.1119	1473.8556	1498.3174	1506.6766	1800.5094	2910.8138	3016.8886	3066.4012	3107.7595	3127.1099	3132.4803	3153.6245	3201.3601	3205.8011	3221.1186	3457.4763
O=CC1(CC2CC2)CN1	O=C[C@@]1(CC2CC2)CN1	
InChI=1S/C7H11NO/c9-5-7(4-8-7)3-6-1-2-6/h5-6,8H,1-4H2	InChI=1S/C7H11NO/c9-5-7(4-8-7)3-6-1-2-6/h5-6,8H,1-4H2/t7-/m1/s1
