17
gdb 25592	4.06148	0.92522	0.82447	3.7372	76.53	-0.2125	0.0279	0.2404	1382.5318	0.13751	-418.034717	-418.026283	-418.025339	-418.069436	30.444	
N	-0.4292165367	 0.9221499153	 0.7964262749	-0.447457
C	-0.6600739794	-0.0678457521	 0.0474103331	 0.135196
O	-0.3587214598	-1.3134146951	 0.4628921914	-0.177453
C	-0.7929841417	-2.3811671324	-0.3858614139	-0.211381
C	-2.2430768411	-2.7078591669	-0.1937197819	 0.249997
C	-3.0061154843	-2.3883110472	 0.9081197783	-0.162864
N	-4.2642577481	-2.8936523998	 0.7056461294	-0.234692
C	-4.3223524483	-3.5336645311	-0.5050229882	-0.068317
C	-3.0820174556	-3.4348296173	-1.0896333013	-0.258526
H	-0.6862529865	 1.7827187834	 0.3172986184	 0.225843
H	-1.0874893355	-0.035693898	-0.9644110952	 0.088674
H	-0.5838720896	-2.1363366021	-1.4372896625	 0.108304
H	-0.1464908148	-3.2234946983	-0.1182749953	 0.130514
H	-2.7512172802	-1.841628823	 1.8006379483	 0.143379
H	-5.0342057116	-2.7897218251	 1.3426781327	 0.264507
H	-5.2340897742	-3.9945876755	-0.8491074891	 0.121806
H	-2.8020954327	-3.8373966451	-2.0516310588	 0.092469
33.5524	56.7239	111.3764	202.9081	244.6352	343.3531	403.8492	492.7329	635.1975	639.3308	646.9075	698.0198	720.5487	784.9187	819.823	823.9938	906.8168	963.1573	979.3059	1036.9768	1043.4862	1084.2869	1095.5163	1130.6794	1164.7596	1238.2219	1258.7534	1300.4858	1334.4976	1382.6783	1417.3763	1436.0046	1467.4311	1500.948	1521.9238	1611.004	1744.4674	3000.8538	3024.3409	3065.4764	3241.1557	3270.2194	3278.7908	3515.5629	3687.0063
N=COCC1=CNC=C1	[NH][CH]OCc1c[nH]cc1	
InChI=1S/C6H8N2O/c7-5-9-4-6-1-2-8-3-6/h1-3,5,7-8H,4H2	InChI=1S/C6H8N2O/c7-5-9-4-6-1-2-8-3-6/h1-3,5,7-8H,4H2
