19
gdb 69052	3.26854	1.02467	0.9091	3.3779	76.97	-0.2338	-0.022	0.2118	1332.6972	0.156553	-422.996826	-422.987579	-422.986635	-423.031849	33.447	
C	 0.0297423308	 1.5740710736	-0.0387133398	-0.494382
C	-0.0095622957	 0.0765283817	 0.0327743949	 0.18612
C	 1.139625759	-0.8342131333	-0.3707332695	-0.378355
C	 0.5639717112	-0.9288636928	 1.0134475411	 0.426906
C	 1.3093695255	-0.8390247909	 2.3134057982	-0.387017
C	 2.0190664289	-2.1411805263	 2.6480214152	 0.162868
O	 3.1686705199	-2.2156630806	 2.9966621497	-0.23968
O	-0.6193826746	-1.7414585754	 0.9878644389	-0.329519
C	-1.2708464127	-0.7820632835	 0.1108597633	-0.123726
H	 1.0262800224	 1.954978449	 0.2065165035	 0.125155
H	-0.2154577174	 1.9300939967	-1.0465056272	 0.127613
H	-0.6835601839	 2.0279833495	 0.6582983869	 0.121972
H	 0.9900734551	-1.6522454574	-1.0710038312	 0.114614
H	 2.1006022227	-0.3333907913	-0.4469491645	 0.118958
H	 2.0506931212	-0.0357154516	 2.2897100891	 0.126456
H	 0.5922166636	-0.6300293711	 3.1197773255	 0.130287
H	 1.3841303181	-3.048566272	 2.5486373619	 0.098747
H	-2.1019337345	-0.2910806919	 0.6314273205	 0.106993
H	-1.6351030595	-1.2428523623	-0.8151256566	 0.10599
46.0954	58.6384	121.3279	193.2311	218.1132	241.0455	324.4354	366.8414	428.4777	451.9065	508.1957	607.908	707.0603	778.1741	823.649	853.7237	922.0714	947.0321	971.7828	984.2138	999.805	1035.1291	1054.1226	1073.9771	1116.7287	1145.6563	1158.0688	1229.3853	1241.1646	1292.3859	1298.1653	1350.3276	1407.2107	1424.2389	1429.0907	1444.8444	1486.0407	1496.404	1502.17	1522.2044	1833.8636	2898.9734	3017.4637	3018.0415	3024.5	3067.7907	3082.3755	3099.4292	3105.3233	3109.0811	3200.927
CC12CC1(CC=O)OC2	C[C@@]12C[C@]1(CC=O)OC2	
InChI=1S/C7H10O2/c1-6-4-7(6,2-3-8)9-5-6/h3H,2,4-5H2,1H3	InChI=1S/C7H10O2/c1-6-4-7(6,2-3-8)9-5-6/h3H,2,4-5H2,1H3/t6-,7-/m0/s1
