16
gdb 133635	3.4085	1.02955	0.95795	1.5719	58.35	-0.2563	0.0776	0.3339	1227.9502	0.119444	-569.366177	-569.35751	-569.356566	-569.400764	31.197	
F	-0.657084601	 0.128736999	 0.9089157776	-0.08004
C	-0.1737541888	 1.2886863137	 0.4382805536	 0.273093
F	 1.1602034181	 1.2319090154	 0.5146317572	-0.071737
F	-0.5147916823	 1.3669902423	-0.8587033154	-0.076286
C	-0.7323081499	 2.5022070617	 1.1843055861	-0.211603
O	-0.1969548995	 2.6893271803	 2.46453347	-0.23916
C	-0.6554173892	 1.7990823861	 3.4496401006	 0.143145
C	 0.1687379474	 0.590618797	 3.795193153	-0.278625
C	 0.1270071728	 1.7905685379	 4.7213210391	-0.297108
H	-0.467610361	 3.386166765	 0.598018322	 0.138282
H	-1.827809618	 2.403250853	 1.1955629931	 0.11768
H	-1.741675495	 1.7242499337	 3.4979604099	 0.088929
H	-0.3427504238	-0.3204456515	 4.084824599	 0.116965
H	 1.0742583435	 0.4440554449	 3.2187982514	 0.12946
H	 1.0058185517	 2.4246467516	 4.7487688234	 0.129869
H	-0.4121898848	 1.71762107	 5.6588114994	 0.117137
49.5784	65.8971	109.1791	208.2125	241.6648	330.3153	369.4746	411.9637	498.2875	532.3599	549.2424	676.3081	745.1747	809.272	818.6008	836.7404	953.8987	963.0099	1005.2024	1058.5144	1074.3219	1116.4658	1135.3296	1173.4397	1187.6513	1194.916	1224.1291	1241.3219	1290.8838	1340.2382	1392.0209	1430.8785	1453.22	1474.3127	1498.2482	3009.1181	3103.6609	3106.6476	3140.6494	3144.5384	3225.3089	3239.6834
FC(F)(F)COC1CC1	FC(F)(F)COC1CC1	
InChI=1S/C5H7F3O/c6-5(7,8)3-9-4-1-2-4/h4H,1-3H2	InChI=1S/C5H7F3O/c6-5(7,8)3-9-4-1-2-4/h4H,1-3H2
