21
gdb 107701	3.29346	1.27418	1.10394	1.4204	82.94	-0.251	0.0817	0.3326	1189.6706	0.181993	-387.024653	-387.016084	-387.01514	-387.057487	33.951	
C	-0.0056821356	 1.5348200877	 0.0577832121	-0.378435
C	-0.0869572407	 0.0069840832	-0.0492994431	-0.313541
C	-1.4993038365	-0.5154906188	-0.0589609329	 0.377736
C	-2.626456884	-0.2077965034	-1.0783595555	-0.379571
C	-3.2600628736	-1.1684219451	-0.056800473	 0.406159
O	-4.5653459635	-1.6149013602	 0.0323276413	-0.476003
C	-1.9412054827	-2.0153721888	 0.1048731175	-0.166226
C	-1.998483995	-1.9141387856	 1.6428758165	-0.277386
C	-2.5097295218	-0.5432312108	 1.1543633826	-0.114518
H	 1.0344593738	 1.8747034425	 0.0575669748	 0.111438
H	-0.5156128274	 2.0184231021	-0.7818339665	 0.119227
H	-0.4750659282	 1.8907484843	 0.9808390736	 0.118528
H	 0.4212160977	-0.3239854822	-0.9649154377	 0.097447
H	 0.4606283115	-0.450534057	 0.7848371483	 0.100564
H	-3.015068597	 0.8159265382	-1.0970853541	 0.093058
H	-2.4790752624	-0.5866910673	-2.0969308121	 0.080631
H	-4.7677523177	-2.1232921228	-0.7605131997	 0.282154
H	-1.6198076361	-2.8451406892	-0.5290100327	 0.060395
H	-2.7288954716	-2.5524909939	 2.1469507442	 0.100898
H	-1.0435792588	-1.9265706701	 2.17720934	 0.088678
H	-2.8445878306	 0.3221592172	 1.7290342763	 0.068767
87.443	146.8908	196.8311	256.9781	282.2191	295.9177	330.4243	425.9224	432.4719	504.6717	591.6772	661.4794	705.8118	766.6279	797.1267	862.8057	890.4152	913.2712	936.8949	967.1352	992.1818	1005.9044	1044.3831	1050.3488	1079.1173	1104.0817	1110.5304	1121.7845	1137.6455	1150.9664	1180.9957	1188.6303	1231.3738	1267.2076	1281.3187	1312.4794	1325.7575	1369.7208	1399.7379	1411.3452	1478.6784	1499.7101	1505.081	1508.38	1516.5106	3013.5673	3024.3882	3034.7451	3044.2549	3048.9588	3085.1561	3085.5095	3099.5084	3104.3923	3106.1059	3107.0011	3805.1395
CCC12CC3(O)C1CC23	CC[C@@]12C[C@@]3(O)[C@@H]1C[C@@H]23	
InChI=1S/C8H12O/c1-2-7-4-8(9)5(7)3-6(7)8/h5-6,9H,2-4H2,1H3	InChI=1S/C8H12O/c1-2-7-4-8(9)5(7)3-6(7)8/h5-6,9H,2-4H2,1H3/t5-,6+,7-,8-
