16
gdb 85346	3.06758	1.24142	0.92557	4.2644	82.51	-0.2466	-0.0573	0.1894	1217.3536	0.123633	-400.774277	-400.765647	-400.764703	-400.807701	32.099	
C	-0.0522305552	 1.571144333	 0.0533033434	-0.393794
C	 0.0252004384	 0.0395164959	 0.0271807237	-0.081478
N	 0.7828184262	-0.4840887999	-1.0873438257	-0.350688
C	 1.856346167	-1.2702770652	-0.7233488343	 0.443878
O	 2.6384092254	-1.8191210507	-1.4699476811	-0.390104
C	 1.8249842577	-1.2836323851	 0.7668014203	-0.364465
C	 0.7906097957	-0.5487943828	 1.2093140008	 0.196231
C	 0.3928108963	-0.3032283698	 2.5403276342	 0.257576
C	 0.0233465881	-0.0729750846	 3.6640200107	-0.405449
H	 0.9519913972	 2.0037256199	 0.0537755686	 0.133262
H	-0.5920991619	 1.9425682944	-0.8229970186	 0.121267
H	-0.5819377604	 1.9067449695	 0.9491359984	 0.136578
H	-0.9976423999	-0.3670769866	 0.0332885952	 0.109499
H	 0.5642812998	-0.3029687386	-2.0524559523	 0.254266
H	 2.5491817726	-1.8222500926	 1.3598180373	 0.130289
H	-0.2892233871	 0.1194272432	 4.6608765494	 0.203132
71.299	123.553	138.397	234.0472	254.8793	326.9223	384.9218	427.7202	468.2711	519.2641	562.5699	620.894	644.1916	648.1491	697.8447	736.8691	798.3598	904.8051	934.2825	977.6344	1044.8869	1100.9594	1127.127	1153.2551	1208.4782	1298.0062	1307.6914	1360.2315	1401.2418	1414.5581	1493.0891	1495.1996	1646.2829	1821.0153	2223.3879	2989.9108	3042.729	3116.9447	3128.6389	3252.5868	3499.5546	3667.9796
CC1NC(=O)C=C1C#C	C[C@H]1NC(=O)C=C1C#C	
InChI=1S/C7H7NO/c1-3-6-4-7(9)8-5(6)2/h1,4-5H,2H3,(H,8,9)	InChI=1S/C7H7NO/c1-3-6-4-7(9)8-5(6)2/h1,4-5H,2H3,(H,8,9)/t5-/m1/s1
