17
gdb 72025	2.89256	2.14014	1.87993	2.122	68.62	-0.261	0.0923	0.3533	822.3641	0.138099	-421.804339	-421.798211	-421.797267	-421.834453	26.238	
C	 0.0450751046	 1.4887147471	-0.0659687278	-0.518634
C	-0.0300933229	-0.0102752241	-0.0409244117	 0.403478
O	 0.7949682901	-0.6324463026	-1.0263785527	-0.268643
C	 0.7325059922	-1.9448998855	-0.4899880567	 0.122938
O	 1.3009171126	-1.7913288717	 0.80635043	-0.237995
C	 0.334860274	-0.8637904146	 1.2818237087	-0.021319
C	-1.0299772457	-1.5607515754	 1.1559791197	-0.100929
C	-0.7915921883	-2.167136935	-0.2100862373	-0.091238
C	-1.3713999762	-0.7777983976	-0.0932130544	-0.140741
H	 1.0730981409	 1.8236355211	 0.0985683665	 0.135433
H	-0.2927485016	 1.8764159043	-1.0323085092	 0.1322
H	-0.5913188165	 1.9151710293	 0.7150439158	 0.124044
H	 1.2850798917	-2.6596703845	-1.0929217832	 0.093218
H	 0.6563688639	-0.3696785234	 2.1946677068	 0.084265
H	-1.6555513535	-1.9844256011	 1.9300094786	 0.094308
H	-1.3522852011	-3.0117099008	-0.5823385779	 0.098038
H	-2.3210101642	-0.4528939153	-0.4985159752	 0.091579
210.5902	251.5539	274.5475	531.9033	579.4773	596.2066	656.9896	687.7324	726.423	794.5017	796.5082	821.4923	847.1674	874.3138	889.0815	891.2997	913.1323	928.28	982.0285	989.2408	1013.8116	1045.6593	1052.2916	1114.9786	1137.0289	1160.7733	1165.4459	1214.9566	1235.1896	1278.9656	1283.7159	1322.4006	1346.5762	1363.3594	1418.3694	1482.2937	1494.0701	3040.9964	3110.7495	3119.5142	3163.2907	3178.7357	3193.6057	3206.2862	3233.0283
CC12OC3OC1C1C3C21	C[C@@]12O[C@H]3O[C@@H]1[C@@H]1[C@H]3[C@H]21	
InChI=1S/C7H8O2/c1-7-4-2-3(4)6(9-7)8-5(2)7/h2-6H,1H3	InChI=1S/C7H8O2/c1-7-4-2-3(4)6(9-7)8-5(2)7/h2-6H,1H3/t2-,3+,4-,5-,6-,7+/m1/s1
