22
gdb 101198	2.97573	1.10019	0.98399	2.0862	82.08	-0.2271	0.0764	0.3035	1331.3094	0.193346	-404.286316	-404.276748	-404.275804	-404.3213	35.314	
C	 0.1714626095	 0.7658882253	-1.2763013505	-0.235517
O	-0.1632669246	-0.4889255639	-0.7324822347	-0.248329
C	-1.37393688	-0.5111929192	 0.0161663176	 0.098851
C	-2.6161760067	-0.4542155954	-0.8791732767	-0.403784
C	-1.329197912	-1.8121014346	 0.7925128487	 0.018322
C	-0.7076017321	-2.0245494115	 2.1115885437	-0.041781
C	-0.8642988275	-0.8288583057	 3.0473910662	-0.255237
C	-2.3854850207	-0.9382199252	 2.7807623992	-0.152151
N	-2.2218041185	-2.1658923973	 1.915999736	-0.170548
H	 1.1638311871	 0.6666299931	-1.7236208574	 0.1276
H	-0.5291934408	 1.0934911734	-2.058122209	 0.107284
H	 0.2110132844	 1.5482465792	-0.5013859967	 0.100575
H	-1.3821418423	 0.3521843365	 0.697786651	 0.063653
H	-3.5229527736	-0.546141572	-0.2736888177	 0.130302
H	-2.6746392329	 0.4863657664	-1.4339330563	 0.11339
H	-2.5988789604	-1.2795322831	-1.597798636	 0.125638
H	-1.2349480466	-2.6635869423	 0.1197906655	 0.098695
H	-0.0805856059	-2.8880984512	 2.3116845631	 0.092673
H	-0.6046225786	-1.0627663252	 4.0811706664	 0.111255
H	-0.3472172123	 0.0916704537	 2.7598005154	 0.105158
H	-2.9621243598	-1.2077365907	 3.6675495267	 0.111152
H	-2.8829676355	-0.0965123503	 2.2888567157	 0.1028
51.148	69.9069	144.776	177.4168	197.7908	233.7163	283.3916	297.2082	400.953	449.7316	490.8575	562.0522	751.2274	782.5661	785.5075	793.8083	855.9728	897.3467	960.287	968.8606	1005.2622	1020.4602	1065.9846	1081.1804	1102.6402	1118.9267	1144.2922	1164.3991	1179.1967	1187.0676	1217.6495	1221.8002	1251.8301	1268.5061	1297.1987	1327.1188	1364.1063	1376.4755	1401.9794	1462.2117	1475.846	1482.1488	1491.0488	1493.9366	1502.5841	1513.6839	1514.5229	2971.9904	2994.3987	3022.7267	3042.204	3049.5892	3057.015	3102.4669	3109.1929	3115.7849	3116.1931	3121.2658	3121.738	3157.729
COC(C)C1C2CCN12	CO[C@@H](C)[C@H]1[C@H]2CCN12	
InChI=1S/C7H13NO/c1-5(9-2)7-6-3-4-8(6)7/h5-7H,3-4H2,1-2H3	InChI=1S/C7H13NO/c1-5(9-2)7-6-3-4-8(6)7/h5-7H,3-4H2,1-2H3/t5-,6+,7-,8?/m0/s1
