20
gdb 13937	3.4796	1.68065	1.42359	1.7974	74.4	-0.2397	0.0761	0.3158	971.9944	0.177152	-348.979557	-348.971555	-348.970611	-349.012091	30.267	
C	-0.3367408503	 1.4474529323	 0.019778074	-0.404397
C	 0.1534415797	 0.0156400696	-0.0531865428	 0.092208
O	 1.4015781593	-0.1033389034	-0.7805192477	-0.298129
C	 2.0110868161	-0.8384548477	 0.2974783211	-0.123922
C	 0.7752680455	-0.6418157068	 1.1993771642	 0.301236
C	 0.9480454831	 0.0746988096	 2.5647310908	-0.283289
C	 0.7539803304	-1.2957565973	 3.2697723566	-0.211956
C	 0.155357426	-1.8460318124	 1.9466583166	-0.291106
H	 0.4009594723	 2.0915302386	 0.5075365071	 0.120182
H	-0.514346778	 1.8330097326	-0.9891444449	 0.126844
H	-1.2787173897	 1.507939846	 0.5761802294	 0.112894
H	-0.6171997534	-0.6228076773	-0.513610616	 0.065105
H	 2.2179598072	-1.8816991477	 0.0186783265	 0.092506
H	 2.9442019624	-0.3703091654	 0.637477315	 0.097086
H	 1.887659655	 0.6080545039	 2.7333655486	 0.099219
H	 0.1202608258	 0.7599589071	 2.7714763286	 0.102738
H	 1.708719065	-1.7694357537	 3.5142577987	 0.10508
H	 0.1198937886	-1.3190028364	 4.1586495023	 0.098814
H	-0.9388978023	-1.7994272188	 1.9409381463	 0.100652
H	 0.4597935469	-2.8450198827	 1.6216206458	 0.098235
69.3673	109.5501	192.0061	222.7436	266.6112	349.5734	386.2766	481.9536	506.0623	686.9232	762.0544	793.563	869.6368	879.8178	903.705	911.2822	937.9376	960.7212	1000.5108	1024.5569	1062.8669	1089.1374	1112.8409	1159.0259	1180.2394	1189.4731	1200.2122	1221.0612	1255.6059	1272.3254	1275.34	1291.8936	1305.9041	1367.3604	1383.379	1403.6665	1474.653	1481.9843	1484.6829	1492.3469	1505.2217	1524.5245	2971.9039	2992.1684	3033.0851	3035.8813	3042.2295	3050.4377	3061.6934	3090.7784	3097.5266	3103.8728	3114.2369	3118.3042
CC1OCC11CCC1	C[C@H]1OCC21CCC2	
InChI=1S/C7H12O/c1-6-7(5-8-6)3-2-4-7/h6H,2-5H2,1H3	InChI=1S/C7H12O/c1-6-7(5-8-6)3-2-4-7/h6H,2-5H2,1H3/t6-/m1/s1
