17
gdb 99793	2.03191	1.04085	0.97262	2.2406	79.59	-0.2539	0.0093	0.2631	1384.024	0.13093	-421.750066	-421.739111	-421.738166	-421.787036	38.131	
C	-0.0832733251	 1.5144341335	 0.0370802617	-0.500798
C	-0.0278536415	 0.0607899803	 0.0131659388	 0.022271
C	 0.0298366342	-1.1413695014	-0.0112620444	 0.128806
C	 0.0527183093	-2.6083654071	-0.0488372477	-0.061793
O	-1.2639168149	-3.1519307673	-0.1470562082	-0.426628
C	 0.7804342519	-3.1319037778	-1.3219429943	-0.072107
O	 2.1390938206	-2.7839164693	-1.3587365533	-0.413237
C	 0.7552278744	-3.1308188353	 1.1406583491	 0.323629
C	 1.3496453267	-3.5940980641	 2.077892551	-0.477871
H	 0.7437780003	 1.9465783979	-0.5364420456	 0.158045
H	-1.0182263408	 1.8820289824	-0.39953157	 0.152718
H	-0.0174830001	 1.8990055285	 1.0605592488	 0.151985
H	-1.8002469156	-2.7375164556	 0.5378717174	 0.289075
H	 0.6137165912	-4.2177925105	-1.3558967773	 0.106614
H	 0.3016756055	-2.6752617323	-2.190874533	 0.126286
H	 2.5591360726	-3.1736415418	-0.5825866689	 0.288056
H	 1.8561164313	-3.9904318999	 2.923675476	 0.204949
31.6658	77.1732	84.7148	120.7479	174.416	206.2654	251.1623	260.5654	318.4513	331.58	391.2091	436.2098	461.2127	496.7161	541.6166	637.9283	641.2992	666.5669	673.9506	865.1358	994.2023	1032.3644	1051.2748	1053.948	1080.5394	1114.4954	1170.5281	1268.5487	1344.7711	1379.509	1412.5473	1418.6303	1475.9114	1476.8759	1497.4933	2224.8179	2369.4268	3010.2147	3030.3963	3092.8484	3094.3796	3114.4926	3497.5282	3785.117	3812.0041
CC#CC(O)(CO)C#C	CC#C[C@@](O)(CO)C#C	
InChI=1S/C7H8O2/c1-3-5-7(9,4-2)6-8/h2,8-9H,6H2,1H3	InChI=1S/C7H8O2/c1-3-5-7(9,4-2)6-8/h2,8-9H,6H2,1H3/t7-/m1/s1
