16
gdb 128605	2.6954	1.54793	0.98947	4.5398	79.54	-0.1934	-0.023	0.1705	1143.3824	0.126258	-434.055475	-434.047522	-434.046578	-434.088006	29.936	
C	 0.0551025794	 1.3660432849	-0.0706716266	-0.246297
O	-0.0024119991	-0.0464317033	-0.0600221966	-0.231781
C	-1.2158520492	-0.6248878792	 0.0172049806	 0.340566
C	-2.3990638045	 0.0419111177	 0.0861767264	-0.131087
N	-3.5869134416	-0.6486741909	 0.1621805028	-0.236907
N	-3.6850207289	-1.9792857691	 0.1754901579	-0.189142
C	-2.5699550433	-2.6430341398	 0.1106480811	-0.054084
C	-1.2186283815	-2.0893224712	 0.0248522301	 0.185307
N	-0.1207486948	-2.7612145708	-0.0389783929	-0.546005
H	 1.111519671	 1.6281961474	-0.1366083722	 0.146195
H	-0.4770386273	 1.7837681421	-0.9363887576	 0.121423
H	-0.3678334849	 1.7927801102	 0.8491948793	 0.121419
H	-2.4914143272	 1.1183068704	 0.0861515118	 0.125494
H	-4.4642351525	-0.1606007102	 0.2144372909	 0.27567
H	-2.6754827896	-3.7249823666	 0.1229183103	 0.116491
H	-0.330011636	-3.7623920314	-0.0210024655	 0.202738
95.7852	134.0048	228.9824	248.3414	331.5163	342.7794	372.0572	447.8476	501.7157	530.3506	605.7556	617.3475	762.2663	771.5368	821.1419	848.4807	896.2915	924.2883	1042.1059	1066.0971	1124.947	1177.4114	1209.1534	1249.9914	1298.303	1328.4262	1384.5028	1435.3787	1479.3452	1491.0172	1506.0939	1519.4622	1605.7888	1660.7938	1670.762	2995.6602	3052.5706	3142.6807	3164.6857	3233.5703	3432.5554	3669.2611
COC1=CNN=CC1=N	COc1c[nH]ncc1[NH]	
InChI=1S/C5H7N3O/c1-9-5-3-8-7-2-4(5)6/h2-3H,1H3,(H2,6,8)	InChI=1S/C5H12N3O/c1-9-5-3-8-7-2-4(5)6/h4-8H,2-3H2,1H3
