14
gdb 131672	2.7968	1.45732	0.96378	4.7457	67.48	-0.2652	-0.0804	0.1848	1124.0945	0.100391	-473.822877	-473.814995	-473.814051	-473.855703	28.468	
O	 0.0065819803	 1.4387892647	 0.0068371612	-0.420813
C	-0.001024599	 0.0273438168	 0.0022617776	-0.155096
C	-1.4183216711	-0.4550312616	 0.0120622033	 0.093671
C	-2.502723873	 0.3453390518	 0.0235687218	-0.186299
C	-3.800912497	-0.2632836902	 0.0323801797	 0.035898
N	-4.0277230874	-1.5333244393	 0.0304981663	-0.061604
O	-2.9137057428	-2.3600040017	 0.0186231117	-0.254929
C	-1.605708674	-1.9043422677	 0.0084205355	 0.426329
O	-0.7194345673	-2.7200407753	 0.0002529452	-0.333996
H	 0.9202474623	 1.7366514663	 0.0007474121	 0.300755
H	 0.5030327663	-0.3932704121	-0.8825998793	 0.131233
H	 0.5171583349	-0.3990192948	 0.8761575708	 0.131278
H	-2.3999758211	 1.4235021661	 0.0262349548	 0.148592
H	-4.7026167612	 0.341381177	 0.0417980795	 0.144981
89.7042	131.7074	196.7404	208.4373	233.3455	345.2848	383.4513	525.7171	562.7235	567.7066	585.1638	769.3122	769.5951	881.6834	890.7043	945.5619	965.8585	1034.5664	1039.9289	1073.0884	1122.9995	1212.6562	1240.5594	1247.3395	1347.6795	1382.263	1463.3756	1489.8406	1614.0835	1693.2539	1820.611	2979.0086	2998.8281	3187.3641	3219.0175	3847.381
OCC1=CC=NOC1=O	OCc1ccnoc1=O	
InChI=1S/C5H5NO3/c7-3-4-1-2-6-9-5(4)8/h1-2,7H,3H2	InChI=1S/C5H5NO3/c7-3-4-1-2-6-9-5(4)8/h1-2,7H,3H2
