15
gdb 25723	2.72523	1.60793	1.01762	2.953	72.63	-0.2277	-0.0492	0.1785	1100.5664	0.112218	-457.826149	-457.818094	-457.81715	-457.859824	29.163	
C	-0.0092302305	 1.4722652454	 0.0043420448	-0.485737
C	-0.0005512927	-0.0375076525	 0.0376374966	 0.320218
O	 1.0525829898	-0.6882896803	 0.0743931281	-0.393749
C	-1.2358797939	-0.7610803143	 0.0280893272	 0.096604
C	-1.371087365	-2.1387109411	 0.0573597687	 0.301688
O	-0.368243019	-3.0104388769	 0.0987210074	-0.411706
C	-2.7677042911	-2.4179731854	 0.0347379407	-0.288423
C	-3.373677542	-1.1957812697	-0.0069888856	 0.009162
O	-2.4858946723	-0.1821308352	-0.0121218189	-0.186307
H	 1.0176084563	 1.8386190987	-0.0098922942	 0.143812
H	-0.5475336962	 1.8333692624	-0.8780444172	 0.146692
H	-0.532447797	 1.8689166862	 0.8809037154	 0.147496
H	 0.4461791817	-2.455644071	 0.1022808019	 0.31754
H	-3.2459316671	-3.3836206809	 0.0473522512	 0.133406
H	-4.4122999411	-0.9060052554	-0.0358486562	 0.149304
33.5793	113.5858	174.2377	177.1725	314.3017	327.8515	469.2227	506.1029	566.4091	618.2849	647.7361	714.1439	716.8203	790.9194	794.5397	848.6385	888.4511	958.717	1043.3452	1071.9482	1083.9684	1161.7606	1194.7541	1295.4153	1344.1781	1380.2485	1436.233	1463.9508	1471.2092	1514.9768	1540.5304	1628.163	1692.5756	3043.9611	3105.6986	3157.1362	3262.2429	3282.1678	3422.8515
CC(=O)C1=C(O)C=CO1	CC(=O)c1c(O)cco1	
InChI=1S/C6H6O3/c1-4(7)6-5(8)2-3-9-6/h2-3,8H,1H3	InChI=1S/C6H6O3/c1-4(7)6-5(8)2-3-9-6/h2-3,8H,1H3
