13
gdb 26814	3.88468	1.08843	0.85133	5.0543	72.01	-0.2033	-0.0163	0.187	1228.2081	0.089671	-452.787835	-452.779571	-452.778626	-452.820593	30.213	
O	 0.0553518148	 1.3143050495	 0.1789832289	-0.430994
C	 0.0491398952	-0.0213249959	 0.0174008504	 0.337161
C	 0.0314405882	-0.7922739338	-1.1325499696	 0.193499
O	-0.0308820443	-0.2199205945	-2.3797118303	-0.462392
C	 0.0194536471	-2.1460243682	-0.7351075261	-0.36499
C	 0.0374010119	-2.1666814535	 0.6531076177	 0.223086
N	 0.0443507743	-0.8465161081	 1.0924462279	-0.377477
C	 0.046088248	-3.2449915671	 1.5533357185	 0.200922
N	 0.0540433409	-4.1274240785	 2.3081824629	-0.357288
H	 0.057317752	 1.7052801196	-0.7041106817	 0.319513
H	 0.5991662174	-0.6562431433	-2.9621240509	 0.305869
H	-0.0002695864	-3.016185664	-1.371968568	 0.126451
H	 0.0526058408	-0.5474583823	 2.0529115003	 0.286639
121.5885	147.0743	167.018	248.354	260.6866	328.9052	377.98	434.2919	448.4398	508.2975	519.2104	605.1946	649.5556	665.8112	683.3572	811.4521	828.5846	1001.4107	1143.1439	1168.28	1193.9669	1254.8483	1301.9324	1410.179	1427.1348	1510.9235	1594.0618	1672.7789	2322.4768	3261.6126	3678.4581	3797.1561	3816.9572
OC1=C(O)C=C(N1)C#N	Oc1c(O)cc([nH]1)C#N	
InChI=1S/C5H4N2O2/c6-2-3-1-4(8)5(9)7-3/h1,7-9H	InChI=1S/C5H4N2O2/c6-2-3-1-4(8)5(9)7-3/h1,7-9H
