15
gdb 8740	3.86452	1.3002	1.17845	5.0485	67.15	-0.2858	0.0093	0.2951	1032.4198	0.116221	-362.637114	-362.628114	-362.62717	-362.670606	31.875	
C	-0.0645694086	 1.5834417434	-0.0805041994	-0.411708
C	 0.0294978896	 0.0489756837	-0.0255075766	-0.14452
C	 0.6823604787	-0.4789251118	-1.2270748536	 0.271248
N	 1.1846777531	-0.8951678864	-2.1806993696	-0.318846
C	 0.7830391201	-0.4641120662	 1.2455489877	-0.050894
O	 2.1096506666	 0.0287659805	 1.3052576744	-0.409741
C	 0.0183266839	-0.1521158407	 2.4546658658	 0.285128
C	-0.5964197988	 0.1404974594	 3.4453121447	-0.42775
H	 0.932718049	 2.0268301374	-0.1367153211	 0.139913
H	-0.6254524691	 1.9031537894	-0.9610772307	 0.144001
H	-0.573688372	 1.9545627096	 0.812584808	 0.138058
H	-0.9816354312	-0.3742767705	 0.0100056273	 0.138091
H	 0.8809746996	-1.5516712621	 1.1545287733	 0.140905
H	 2.0891445451	 0.9019509028	 1.7110892669	 0.295523
H	-1.135758796	 0.3780140315	 4.3296336926	 0.210593
66.1271	125.914	170.1392	206.9873	220.6748	242.0184	282.8073	305.1473	390.0091	492.0457	560.0776	572.09	647.078	680.013	685.1355	809.632	876.2102	976.4588	1001.3559	1082.5347	1101.5555	1128.033	1255.0945	1293.2725	1316.7077	1358.1319	1407.2652	1420.6495	1495.9677	1507.0028	2233.9356	2360.9304	3045.3272	3054.1555	3055.4155	3134.3184	3137.1131	3499.0538	3818.9528
CC(C#N)C(O)C#C	C[C@@H](C#N)[C@@H](O)C#C	
InChI=1S/C6H7NO/c1-3-6(8)5(2)4-7/h1,5-6,8H,2H3	InChI=1S/C6H7NO/c1-3-6(8)5(2)4-7/h1,5-6,8H,2H3/t5-,6-/m0/s1
