19
gdb 37823	2.92307	1.92226	1.72409	1.4648	78.68	-0.2451	0.0813	0.3263	892.4714	0.161353	-385.798381	-385.791752	-385.790808	-385.829081	27.944	
C	-0.1077346315	 1.580818308	 0.0756778964	-0.312011
C	 1.4029386145	 1.2950489501	 0.0033595763	-0.10435
C	 1.2822103948	-0.014659214	 0.8871585238	-0.123207
C	 2.0487804029	-0.8805231982	-0.1371908187	-0.326856
C	 1.1763994814	 0.0794373535	-0.9684871788	 0.406571
O	 0.7180662897	-0.0525306899	-2.2695546491	-0.321483
C	-0.6239896097	-0.6097844477	-2.1984154222	-0.081206
C	-0.9614155209	-0.9206084619	-0.6951182126	-0.382896
C	-0.0190241458	 0.0392244922	-0.0036759404	 0.27345
H	-0.492824091	 2.0060420394	 1.0076354266	 0.088742
H	-0.5410604624	 2.0957757257	-0.7875252001	 0.099861
H	 2.2455859577	 1.9884816979	 0.0224609564	 0.072714
H	 1.3342391391	-0.0382048429	 1.974663577	 0.079622
H	 3.1329864213	-0.7436704089	-0.1840099651	 0.094916
H	 1.7907361957	-1.9438588463	-0.1708161821	 0.09204
H	-1.3199108305	 0.1276929404	-2.6148710911	 0.109688
H	-0.6611901217	-1.5070141775	-2.824734595	 0.109714
H	-2.0221262594	-0.7632726983	-0.4838080103	 0.109517
H	-0.7192133341	-1.9614864616	-0.4596642811	 0.115177
119.8286	252.2037	304.3319	389.4311	429.422	498.1673	557.0724	678.0199	732.2458	767.2333	783.0191	836.7129	878.4679	882.0265	905.7474	919.0032	930.7966	957.3683	977.7522	992.3862	1011.3423	1063.1963	1069.5717	1113.9862	1128.3841	1142.29	1145.9219	1170.1952	1200.6488	1202.3427	1222.4022	1234.6239	1261.1382	1283.7786	1287.7848	1312.0651	1386.8807	1479.2252	1506.1771	1510.956	1518.8988	3032.6614	3040.7035	3042.5885	3056.5538	3076.6966	3096.7206	3097.4989	3101.6276	3109.1611	3128.5038
C1C2C3CC22OCCC132	C1[C@H]2[C@@H]3C[C@@]42OCC[C@@]134	
InChI=1S/C8H10O/c1-2-9-8-4-5-6(8)3-7(1,5)8/h5-6H,1-4H2	InChI=1S/C8H10O/c1-2-9-8-4-5-6(8)3-7(1,5)8/h5-6H,1-4H2/t5-,6-,7+,8-/m0/s1
