12
gdb 130904	7.66404	0.87455	0.78498	5.0839	75.	-0.2674	-0.0833	0.1841	1324.3763	0.075973	-435.447899	-435.440258	-435.439314	-435.480523	27.188	
O	-0.0314454575	-0.0553252	-0.0038073009	-0.230159
C	 0.0086713179	 1.1465888689	 0.0055400541	 0.091158
C	 1.2537124461	 1.9578621309	-0.0002910065	 0.279116
N	 2.44830759	 1.3952612213	-0.0168461939	-0.149409
O	 3.3493955037	 2.4258938313	-0.0176167988	-0.193713
C	 2.6884974217	 3.6150309014	-0.0013538643	 0.316172
C	 1.3449510477	 3.3750654353	 0.0110759811	-0.436383
C	 3.4545742824	 4.7943512853	 0.0004742589	 0.241244
C	 4.1040536204	 5.8068803044	 0.0021708415	-0.366052
H	-0.9154493154	 1.7645221302	 0.019690216	 0.088191
H	 0.548359997	 4.0996696012	 0.0255561132	 0.146449
H	 4.679687156	 6.7002229199	 0.0036570797	 0.213386
75.9641	127.9685	156.2468	225.8819	276.3824	420.6499	453.0869	528.7151	622.581	635.8549	668.0214	696.9862	710.4308	780.8575	843.1591	983.9748	1013.4929	1032.8716	1057.8421	1136.2383	1230.3112	1388.9249	1457.5736	1478.3812	1598.841	1825.3188	2243.4673	2896.6148	3284.0931	3497.6872
O=CC1=NOC(=C1)C#C	O=Cc1noc(c1)C#C	
InChI=1S/C6H3NO2/c1-2-6-3-5(4-8)7-9-6/h1,3-4H	InChI=1S/C6H3NO2/c1-2-6-3-5(4-8)7-9-6/h1,3-4H
