12
gdb 131995	2.95955	1.63409	1.0528	4.1508	61.87	-0.2589	-0.0882	0.1707	1005.9416	0.079291	-505.885048	-505.878235	-505.877291	-505.916603	25.341	
O	 0.0871198424	 1.3041499806	-0.0433033874	-0.399067
C	 0.0551272389	-0.0207753423	 0.0033906058	 0.403399
N	 0.0355506618	-0.7662233377	-1.0881610527	-0.288897
N	 0.0053514747	-2.0460471774	-0.6108980065	-0.178775
C	 0.0047334942	-2.1464425153	 0.7213844605	-0.072613
C	 0.0370412621	-0.836620932	 1.1741610598	 0.166011
N	 0.0502439258	-0.3720922366	 2.5060318098	 0.357515
O	 0.0317596023	-1.1810973446	 3.423272931	-0.36619
O	 0.0800774574	 0.8632634537	 2.6606216058	-0.421543
H	 0.095602038	 1.597395618	 0.8887785883	 0.321242
H	-0.0140125794	-2.7979100685	-1.2796137418	 0.296028
H	-0.0170490882	-3.0810933478	 1.2561882174	 0.182892
110.1031	191.6534	221.0706	332.184	380.8793	470.5372	540.0745	595.2622	642.2596	666.9941	717.5798	737.3068	781.451	839.2146	851.7499	933.3361	1058.6384	1141.4607	1240.4964	1292.4401	1319.4878	1419.6825	1480.0827	1503.5346	1542.8661	1583.2781	1667.1086	3285.8408	3583.6187	3674.734
OC1=NNC=C1N(=O)=O	Oc1n[nH]cc1N(=O)=O	
InChI=1S/C3H3N3O3/c7-3-2(6(8)9)1-4-5-3/h1H,(H2,4,5,7)	InChI=1S/C3H3N3O3/c7-3-2(6(8)9)1-4-5-3/h1H,(H2,4,5,7)
