14
gdb 129648	3.34391	1.30601	0.94515	6.2026	72.01	-0.2237	-0.0224	0.2013	1145.9637	0.103679	-429.073256	-429.064868	-429.063924	-429.106218	30.518	
N	 0.0995428983	 1.4060269075	 0.078417111	-0.608698
C	-0.0025234358	 0.0251638779	 0.015570954	 0.403604
C	-1.1343315239	-0.7725688294	 0.016054633	-0.011419
N	-2.4576098431	-0.2650338312	-0.0098091495	-0.628293
C	-0.6184477413	-2.0994756427	 0.0187212811	 0.215962
N	 0.7160752793	-2.1270930435	 0.0127340647	-0.303358
N	 1.0595021307	-0.8205792251	 0.0267926156	-0.262948
C	-1.3916493435	-3.2924482548	 0.0046384768	 0.235771
N	-2.0837917516	-4.2203360717	-0.0073951135	-0.348649
H	 0.7617750261	 1.806402165	-0.575145398	 0.254266
H	-0.8181787112	 1.8173031634	-0.0567207156	 0.267763
H	-2.9209667294	-0.3713848398	 0.8881327185	 0.25218
H	-3.0287084758	-0.7519894063	-0.6933102153	 0.253509
H	 2.0360250512	-0.5801155793	 0.0645070073	 0.28031
109.0203	133.0283	142.9171	247.6285	278.2269	291.725	323.783	418.784	487.284	526.2464	554.7455	612.3764	678.5149	727.305	745.6189	777.2876	804.4649	855.0915	1058.6694	1105.1237	1174.4652	1225.664	1279.9609	1365.7433	1418.1435	1466.0346	1546.5219	1622.9012	1650.8905	1683.9233	2350.855	3493.4486	3516.9121	3560.8938	3608.4171	3667.2871
NC1=C(N)C(=NN1)C#N	Nc1c(N)c(n[nH]1)C#N	
InChI=1S/C4H5N5/c5-1-2-3(6)4(7)9-8-2/h6H2,(H3,7,8,9)	InChI=1S/C4H5N5/c5-1-2-3(6)4(7)9-8-2/h6H2,(H3,7,8,9)
