16
gdb 98148	1.9992	1.31973	0.9659	3.3432	78.01	-0.2473	0.0158	0.2631	1271.9084	0.120619	-400.703037	-400.692801	-400.691856	-400.739332	35.698	
C	-0.2057270866	 1.4509679213	-0.5512331638	-0.335577
N	-0.201634417	 0.0232132722	-0.8037506043	-0.308751
C	 0.9303201525	-0.7159453524	-0.7732890739	 0.422452
O	 2.0423656801	-0.2912644095	-0.5408933623	-0.367987
C	 0.7317360992	-2.2348451315	-1.1135115579	-0.454189
C	-0.5952511075	-2.7541717557	-0.7783756933	 0.31376
C	-1.6922831332	-3.1545705931	-0.4941955515	-0.428355
C	 1.0569445287	-2.4509450679	-2.5256845746	 0.354393
C	 1.3237543647	-2.6126721007	-3.6847358182	-0.465323
H	 0.8266175469	 1.7570661845	-0.3791542355	 0.17282
H	-0.6053160337	 2.0013919666	-1.40963129	 0.131448
H	-0.8042162064	 1.69581677	 0.3330624978	 0.130139
H	-1.074195158	-0.4566658813	-0.9597522356	 0.258421
H	 1.4844744342	-2.7402212345	-0.496336649	 0.16497
H	-2.6537334276	-3.5291850122	-0.2414234669	 0.206894
H	 1.5652164438	-2.7596676158	-4.708412541	 0.204885
29.1644	81.4442	106.4795	127.2807	142.2056	193.1315	277.1947	333.9501	379.5957	402.3513	469.666	529.9414	563.1911	628.9204	645.6856	650.2639	651.3094	683.4163	776.4991	851.38	952.6658	1041.439	1082.8464	1153.5001	1177.8408	1212.3848	1273.5036	1293.7693	1441.0778	1494.4876	1499.1068	1570.1136	1804.2817	2234.3944	2245.4541	3031.9035	3041.0308	3086.0016	3155.7177	3499.5174	3504.3742	3627.2488
CNC(=O)C(C#C)C#C	CNC(=O)C(C#C)C#C	
InChI=1S/C7H7NO/c1-4-6(5-2)7(9)8-3/h1-2,6H,3H3,(H,8,9)	InChI=1S/C7H7NO/c1-4-6(5-2)7(9)8-3/h1-2,6H,3H3,(H,8,9)
