13
gdb 132176	3.23956	1.32334	0.93954	6.707	64.82	-0.2131	-0.0151	0.198	1106.7957	0.089166	-497.893987	-497.886474	-497.88553	-497.925883	28.62	
O	-0.0512968268	 1.3550560485	 0.0108092404	-0.40902
C	 0.0349134862	 0.0034159078	 0.0029941056	 0.211736
C	 1.2036750333	-0.6815718822	-0.0079866914	-0.124891
N	 1.2142050072	-2.0677016751	-0.015553434	-0.390679
C	 0.0476451122	-2.7531293678	-0.0119726262	 0.41963
F	 0.21269644	-4.0701007127	-0.0201147073	-0.059814
C	-1.1610367129	-2.1499815511	-0.0011827572	-0.44302
C	-1.2759578189	-0.6977485008	 0.0074105844	 0.35731
O	-2.3360706566	-0.088960782	 0.0172302671	-0.385404
H	 0.8320671869	 1.7398667707	 0.0073352213	 0.296869
H	 2.1778847773	-0.2084711961	-0.0115158961	 0.123221
H	 2.0798971359	-2.5807012691	-0.023620134	 0.275992
H	-2.0636059737	-2.7452412401	 0.0012047274	 0.128071
122.7667	188.6915	308.5484	317.8758	358.1744	358.6095	418.0706	435.8672	441.925	511.7168	611.0647	653.3258	732.2557	765.2437	789.6495	797.9321	856.1378	994.5097	1132.9926	1195.908	1218.4781	1247.9428	1308.7482	1352.3752	1447.8957	1572.388	1657.7494	1692.6823	1736.3495	3201.2471	3234.5228	3666.1734	3811.3494
OC1=CNC(F)=CC1=O	Oc1c[nH]c(F)cc1=O	
InChI=1S/C5H4FNO2/c6-5-1-3(8)4(9)2-7-5/h1-2,9H,(H,7,8)	InChI=1S/C5H4FNO2/c6-5-1-3(8)4(9)2-7-5/h1-2,9H,(H,7,8)
