25
gdb 80858	2.14367	1.60589	1.31784	0.0954	91.99	-0.2719	0.0852	0.3571	1172.5986	0.229959	-352.362946	-352.353715	-352.35277	-352.395836	37.379	
C	-0.1265677172	 1.5736692168	-0.0495742572	-0.437159
C	 0.0108902913	 0.055381348	-0.0327765076	 0.014712
C	 1.1497145093	-0.5794625642	-0.8895775573	-0.021383
C	 2.1037796833	-0.2887675791	 0.301207737	-0.280709
C	 0.8271482893	-0.5916898781	 1.1476195675	 0.352993
C	 0.6918203516	-0.131403577	 2.5815867467	-0.510602
C	 0.6572794358	-2.1106298737	 0.8531104272	 0.015608
C	-0.6536277281	-2.7473520973	 1.3135145683	-0.424589
C	 0.8684823034	-2.081411085	-0.7022382136	-0.242137
H	 0.8220466928	 2.0957366544	 0.1034976482	 0.115389
H	-0.5337074511	 1.9098796688	-1.009705554	 0.112468
H	-0.8164688832	 1.9105003121	 0.7323520222	 0.113767
H	-0.9801707952	-0.3825363796	-0.2018094822	 0.052967
H	 1.3655154586	-0.2296917725	-1.9007367962	 0.049768
H	 2.9674294927	-0.9488854551	 0.4357216804	 0.080624
H	 2.4293815535	 0.750343434	 0.3634698773	 0.091812
H	 0.8499857364	 0.9482634088	 2.6731073709	 0.112409
H	-0.3018992612	-0.3551062095	 2.9859401636	 0.114771
H	 1.4282375783	-0.6285366873	 3.2247586418	 0.111891
H	 1.4815334614	-2.65301864	 1.3331816843	 0.061069
H	-1.5284275557	-2.2250573701	 0.9114185723	 0.114756
H	-0.7139833132	-3.7889406379	 0.9795541888	 0.111803
H	-0.7381769473	-2.7480244504	 2.4055829652	 0.111416
H	-0.0266613612	-2.4043992093	-1.2447084837	 0.089185
H	 1.7018700758	-2.712359457	-1.0258736203	 0.089169
161.2959	196.6771	206.522	210.6649	212.1703	255.5829	280.8177	344.0509	383.2816	441.9782	484.0888	535.8185	593.9402	652.5198	765.9733	804.5059	825.479	846.4809	893.3692	914.6883	938.1609	962.933	997.805	1020.7629	1029.0437	1050.9466	1072.0602	1100.427	1102.6247	1121.1394	1155.9121	1186.4845	1193.3146	1207.5812	1252.797	1259.6713	1276.7552	1282.1275	1314.1253	1334.6633	1378.8271	1393.7258	1407.4159	1412.4957	1415.6036	1488.3377	1489.0579	1495.0189	1497.944	1500.1163	1501.9361	1506.2488	1518.4642	3015.3627	3021.0572	3021.7539	3028.5126	3031.1796	3041.2162	3046.8041	3081.7963	3083.9824	3086.251	3090.7495	3093.2921	3095.9944	3097.5452	3105.422	3125.1434
CC1C2CC1(C)C(C)C2	C[C@H]1[C@H]2C[C@]1(C)[C@@H](C)C2	
InChI=1S/C9H16/c1-6-4-8-5-9(6,3)7(8)2/h6-8H,4-5H2,1-3H3	InChI=1S/C9H16/c1-6-4-8-5-9(6,3)7(8)2/h6-8H,4-5H2,1-3H3/t6-,7-,8+,9+/m0/s1
