21
gdb 89457	2.15044	1.57991	1.42507	2.0931	77.8	-0.2472	0.0684	0.3156	1075.8778	0.180801	-424.202474	-424.193064	-424.19212	-424.236225	36.446	
C	-0.1469089295	 1.5624057139	 0.1724310291	-0.482659
C	-0.0185664629	 0.0581189686	 0.108578581	 0.278051
C	 0.9606646514	-0.5212116778	-0.9663923653	-0.281388
C	 1.8602097103	-1.1314352856	 0.150611267	-0.293238
C	 0.7479011516	-0.813533454	 1.1697452371	 0.360643
O	 1.0801596995	-0.2436681895	 2.4070667806	-0.487216
C	-0.4474112116	-1.8182190192	 1.1635015423	-0.331811
C	-1.2842689627	-0.8278836719	 0.2942996695	 0.095856
O	-2.3637659721	-0.2210490797	 0.9735471707	-0.435613
H	 0.8357843336	 2.0368858805	 0.2635005622	 0.117064
H	-0.6252531468	 1.9471731745	-0.7359982853	 0.117689
H	-0.7534029985	 1.8856365838	 1.0230707121	 0.111432
H	 0.5015737371	-1.260353928	-1.6294986862	 0.099199
H	 1.4459012399	 0.2364353825	-1.5852455185	 0.104702
H	 2.1714043397	-2.1750523977	 0.0438303867	 0.088717
H	 2.7420477004	-0.5135767112	 0.3404581639	 0.105
H	 1.4942610796	-0.9202946247	 2.9550680078	 0.276234
H	-0.2424550979	-2.7922890432	 0.7102225104	 0.096871
H	-0.8874004035	-1.9747698074	 2.1523717698	 0.097869
H	-1.711346817	-1.2338131851	-0.6275045612	 0.079791
H	-2.0407411506	 0.0940874413	 1.8251710463	 0.282805
56.3826	165.3318	187.8849	208.4475	227.5085	275.9142	317.7565	357.0281	389.7022	413.8543	432.546	500.3952	586.4247	652.6103	704.1377	766.7046	819.9748	863.3546	892.6638	922.2309	927.2117	960.2058	985.2084	1029.3142	1045.5138	1125.1632	1131.7497	1172.7753	1200.1382	1209.7674	1222.2455	1232.1481	1252.4473	1257.1037	1278.7726	1302.005	1315.9592	1366.5194	1411.4928	1432.8843	1459.1598	1475.9366	1486.2674	1488.4476	1495.6311	3029.1169	3046.0174	3049.5957	3055.4369	3066.7569	3091.7443	3097.977	3107.619	3109.6771	3116.6374	3787.6703	3799.1334
CC12CCC1(O)CC2O	C[C@@]12CC[C@]1(O)C[C@H]2O	
InChI=1S/C7H12O2/c1-6-2-3-7(6,9)4-5(6)8/h5,8-9H,2-4H2,1H3	InChI=1S/C7H12O2/c1-6-2-3-7(6,9)4-5(6)8/h5,8-9H,2-4H2,1H3/t5-,6+,7+/m1/s1
