19
gdb 70953	3.12616	1.42418	1.17976	2.7758	82.	-0.2395	-0.0217	0.2177	1098.1328	0.158385	-385.800441	-385.792637	-385.791692	-385.832386	31.429	
C	-0.088860069	 1.5538435255	-0.1053787378	-0.507002
C	-0.0404177862	 0.0511138162	-0.0243517457	 0.300435
C	 0.4293337337	-0.9475661384	-1.1110200615	-0.290116
C	-0.0165833098	-1.8395243434	 0.0902204879	 0.285769
C	 0.882511048	-3.0223637441	 0.4925120309	-0.441537
C	 1.9096886366	-1.8881177642	 0.9204812011	 0.337196
O	 3.0848788955	-1.878073912	 1.1104082889	-0.279376
C	 0.7237367117	-0.8594469125	 1.0148937384	-0.169229
C	-1.2784704603	-0.9326009212	 0.2095771886	-0.343935
H	 0.9097725775	 1.9632837152	-0.2891745296	 0.129231
H	-0.7438989436	 1.8798717064	-0.9211738667	 0.120771
H	-0.4668387056	 1.988691949	 0.8258585138	 0.121796
H	-0.1774576153	-1.0204426578	-2.0181387922	 0.089322
H	 1.4972170524	-0.9350873539	-1.3497408207	 0.106871
H	 0.5420336162	-3.5576308359	 1.385660542	 0.131848
H	 1.2044590831	-3.7414378756	-0.2645099435	 0.125246
H	 0.3660465631	-0.8088533348	 2.0511664059	 0.087373
H	-1.7584564933	-0.8855577792	 1.1908054961	 0.098571
H	-2.0155578048	-0.9715976192	-0.598223706	 0.096766
116.9476	184.0168	206.2423	249.959	345.9439	383.2038	462.2411	488.6532	549.4793	569.4051	613.9631	671.0792	747.5207	773.985	831.677	878.3728	912.314	955.9473	959.1902	978.7026	1003.1366	1019.5003	1063.8598	1072.6225	1092.46	1133.5867	1153.3881	1166.9403	1185.9913	1193.7664	1207.0165	1255.0862	1274.5131	1334.5499	1407.576	1448.6762	1485.3258	1488.7606	1495.4899	1537.3538	1891.0007	3027.9709	3029.2957	3041.2464	3046.9677	3052.6969	3095.9942	3102.756	3105.4601	3114.7916	3116.216
CC12CC3(CC(=O)C13)C2	C[C@@]12C[C@]3(CC(=O)[C@@H]13)C2	
InChI=1S/C8H10O/c1-7-3-8(4-7)2-5(9)6(7)8/h6H,2-4H2,1H3	InChI=1S/C8H10O/c1-7-3-8(4-7)2-5(9)6(7)8/h6H,2-4H2,1H3/t6-,7-,8+/m0/s1
