23
gdb 96039	2.44213	1.1143	0.8831	2.8311	85.66	-0.2467	-0.0177	0.229	1405.7886	0.205656	-388.322156	-388.312312	-388.311368	-388.358148	35.809	
C	-0.6006859305	 1.4099104773	-0.0432868009	-0.420771
C	-0.0193780457	-0.0023387501	-0.0161937371	 0.04129
C	 1.0434671439	-0.2804140289	-1.1026522146	-0.207739
C	 1.8739623264	-1.4865412152	-0.5844810448	-0.206001
C	 1.3743963057	-1.7558046921	 0.8608949009	-0.222081
C	 0.6673128135	-0.454493599	 1.2981824633	-0.01266
C	 1.6622834664	 0.580755648	 1.8723607602	-0.281144
C	 2.1973744741	 0.1309218404	 3.2102816817	 0.164236
O	 3.3539925188	-0.0950684444	 3.4595100343	-0.245238
H	 0.1808952446	 2.1727566298	 0.0389478621	 0.117199
H	-1.1310414053	 1.5911221071	-0.9840683292	 0.115615
H	-1.3149785339	 1.5689171356	 0.772369041	 0.110562
H	-0.8477137892	-0.7079468253	-0.1727683512	 0.072329
H	 0.5831277025	-0.4721854202	-2.0761854593	 0.095901
H	 1.6819172618	 0.6012661451	-1.2308815948	 0.097127
H	 1.7470123677	-2.3715454549	-1.2136249083	 0.09955
H	 2.9424710582	-1.2537028863	-0.5928603031	 0.107077
H	 0.6456383509	-2.5735151282	 0.8598182329	 0.097224
H	 2.1830893635	-2.0498833651	 1.5358084231	 0.110731
H	-0.0877482424	-0.6556538627	 2.0687117835	 0.066087
H	 2.5075765356	 0.7564956516	 1.2006441055	 0.118356
H	 1.1437527147	 1.5352667695	 2.0344896397	 0.114003
H	 1.4106374487	 0.0007320879	 3.9921138551	 0.068349
51.9391	55.2523	71.3657	136.7411	185.9596	239.535	271.7732	315.7906	379.7788	476.2643	510.444	590.058	663.4139	769.0735	778.6741	848.8099	866.5787	894.2653	902.8291	953.0698	979.1292	995.6002	1026.5909	1047.0708	1066.1944	1089.6558	1123.1731	1167.8605	1192.0351	1216.2031	1222.7423	1246.6267	1278.9041	1300.2067	1305.2974	1328.6409	1339.9668	1349.3331	1383.4463	1391.8349	1414.917	1431.0806	1465.8919	1488.978	1492.6691	1497.8667	1505.8827	1515.9825	1832.0276	2842.6025	2996.4209	3022.7698	3023.4222	3028.408	3036.0755	3045.7974	3060.3098	3075.4254	3089.1103	3093.0747	3096.7005	3099.3191	3105.8485
CC1CCCC1CC=O	C[C@H]1CCC[C@H]1CC=O	
InChI=1S/C8H14O/c1-7-3-2-4-8(7)5-6-9/h6-8H,2-5H2,1H3	InChI=1S/C8H14O/c1-7-3-2-4-8(7)5-6-9/h6-8H,2-5H2,1H3/t7-,8-/m0/s1
