12
gdb 29443	6.86541	0.87643	0.78777	2.6504	59.26	-0.2326	-0.0336	0.199	1313.6121	0.076722	-509.800793	-509.793135	-509.792191	-509.833817	26.937	
O	 0.2771874128	 1.2921808987	-0.0427897616	-0.422554
C	 0.0896059842	-0.0346220118	-0.0796588363	 0.342776
C	-0.147070498	-0.8201349385	-1.1578459518	-0.153102
O	-0.2786906823	-2.120269742	-0.6717545503	-0.185326
C	-0.0966410628	-1.9935684725	 0.6475669812	 0.50494
O	-0.2102327505	-3.090753802	 1.4133414927	-0.214633
C	 0.2524732403	-4.2996747073	 0.9245970488	 0.168714
O	 0.07570237	-5.3040889164	 1.5283462141	-0.230309
N	 0.1263786057	-0.7973160761	 1.0777416079	-0.414159
H	 0.4186850545	 1.5331747248	 0.8809006702	 0.313915
H	-0.2493262169	-0.6795775901	-2.2165846613	 0.158695
H	 0.7765377231	-4.1917030069	-0.0355978534	 0.131044
54.7737	114.5038	156.5891	272.7511	344.211	356.1838	399.1241	479.0818	550.7886	626.5161	695.341	708.5021	747.0048	844.9521	992.3987	1018.4711	1031.3862	1097.9729	1104.7983	1185.4364	1274.8129	1373.0561	1400.762	1425.4136	1635.7076	1706.8453	1894.4738	3050.7104	3326.9267	3807.6583
OC1=COC(OC=O)=N1	Oc1coc(OC=O)n1	
InChI=1S/C4H3NO4/c6-2-9-4-5-3(7)1-8-4/h1-2,7H	InChI=1S/C4H3NO4/c6-2-9-4-5-3(7)1-8-4/h1-2,7H
