17
gdb 44605	2.98883	1.80705	1.47131	3.9377	70.54	-0.2273	-0.0171	0.2101	915.1843	0.13841	-421.840373	-421.833662	-421.832718	-421.871633	26.818	
O	 0.0388735286	-0.0249610211	-0.0428172978	-0.308976
C	-0.0187547463	 1.1733123807	-0.0547006877	 0.420268
C	-1.2969922206	 2.0338302273	-0.1199533553	-0.35542
C	-0.8220948482	 3.3685820864	-0.6746137314	-0.061808
C	 0.0704351398	 4.2702289533	 0.1519699823	-0.072718
C	 0.5154409971	 3.8066953787	 1.5248434317	-0.096592
O	 1.2526823431	 2.5956563123	 1.3366128144	-0.274145
C	 1.1686847492	 2.1615049832	-0.0331006294	-0.020826
C	 0.6953029657	 3.3462281119	-0.8572929861	-0.10123
H	-2.0238773963	 1.5496543458	-0.776981695	 0.131516
H	-1.7547257254	 2.0975182167	 0.8742822495	 0.133283
H	-1.4351437576	 3.8553014028	-1.4238877925	 0.096303
H	 0.0226834678	 5.335906641	-0.0398019703	 0.098407
H	 1.1713075292	 4.5492773083	 1.9959543703	 0.109975
H	-0.3257852192	 3.619689653	 2.2073505587	 0.104457
H	 2.1163019724	 1.7060022853	-0.3212514898	 0.097715
H	 1.2085267206	 3.6725189044	-1.7512335216	 0.099791
88.7208	179.1149	245.0846	410.7969	432.6437	519.9194	631.3883	663.6509	720.9239	741.4272	769.2154	791.8298	814.0096	891.1049	943.1128	961.5193	966.8764	985.5828	1012.7523	1024.6297	1060.0235	1098.5871	1109.6341	1145.3072	1154.533	1184.1265	1222.4263	1252.2316	1268.1315	1292.5725	1319.4748	1345.4211	1367.9541	1409.7149	1459.0006	1530.6665	1859.9566	3003.6652	3041.8621	3043.5416	3103.2466	3119.5311	3175.8067	3183.9469	3209.4066
O=C1CC2C3COC1C23	O=C1C[C@H]2[C@H]3CO[C@@H]1[C@@H]23	
InChI=1S/C7H8O2/c8-5-1-3-4-2-9-7(5)6(3)4/h3-4,6-7H,1-2H2	InChI=1S/C7H8O2/c8-5-1-3-4-2-9-7(5)6(3)4/h3-4,6-7H,1-2H2/t3-,4+,6-,7-/m0/s1
