19
gdb 95533	2.26849	1.54408	1.14001	1.4763	82.26	-0.2498	0.0121	0.2619	1134.8746	0.159583	-385.871565	-385.862984	-385.86204	-385.90447	33.62	
O	 0.0588236773	 1.423868211	 0.0920770397	-0.442931
C	 0.0066200479	 0.0150495462	 0.0053324535	 0.123863
C	-1.4183407096	-0.5364045331	 0.090113097	-0.23074
C	-1.4084190953	-2.0696326095	 0.1823843645	-0.262611
C	-0.4325519271	-2.6902527856	-0.7816546413	-0.038583
C	 0.5035207078	-2.0089447222	-1.4388093019	-0.070368
C	 0.7157475442	-0.5136576637	-1.2747083855	-0.222409
C	 0.261701956	 0.222479045	-2.4577591381	 0.31768
C	-0.1373121772	 0.8522029604	-3.4028188961	-0.479086
H	-0.2830844717	 1.7741881795	-0.7408237999	 0.280095
H	 0.5826047977	-0.3501825131	 0.8639362705	 0.090132
H	-1.921632289	-0.0940438534	 0.9546791095	 0.103471
H	-1.9695511323	-0.22147342	-0.805138507	 0.105327
H	-1.1541616532	-2.3857062585	 1.205155113	 0.113159
H	-2.4134975363	-2.4691113089	-0.0011649796	 0.108872
H	-0.5085668305	-3.7646765864	-0.9334100387	 0.0912
H	 1.1664733965	-2.5131220035	-2.1360645416	 0.097513
H	 1.7900127872	-0.3163702205	-1.1584040811	 0.114406
H	-0.4747542324	 1.3880563064	-4.2555804467	 0.201011
87.3942	139.313	184.3276	219.6021	333.5491	371.8295	386.9472	398.353	454.7718	479.9766	540.7327	614.4594	654.7605	656.7851	706.0427	744.76	804.7837	881.9546	916.5305	971.8862	996.827	1009.8843	1050.6418	1066.8849	1091.1134	1113.4108	1159.5009	1212.7236	1248.2929	1275.1198	1292.051	1314.7687	1344.5477	1365.7037	1393.5487	1407.7912	1435.8544	1475.3527	1493.5943	1723.5113	2220.8447	3000.399	3013.4273	3027.6585	3042.8144	3048.6444	3091.2771	3147.04	3174.2213	3501.0104	3761.5053
OC1CCC=CC1C#C	O[C@H]1CCC=C[C@H]1C#C	
InChI=1S/C8H10O/c1-2-7-5-3-4-6-8(7)9/h1,3,5,7-9H,4,6H2	InChI=1S/C8H10O/c1-2-7-5-3-4-6-8(7)9/h1,3,5,7-9H,4,6H2/t7-,8+/m1/s1
