21
gdb 38356	2.34195	1.83377	1.32179	1.8112	82.14	-0.232	0.0043	0.2363	1048.0308	0.18602	-387.066786	-387.059164	-387.05822	-387.098577	30.975	
C	 0.0642572283	 1.6132930252	-0.053798628	-0.286153
C	 1.5711637263	 1.2861531347	-0.0944466831	 0.116205
C	 2.3616644249	 1.2888442914	 1.2351539769	-0.207323
C	 1.6847586462	 1.8071400285	 2.5203367135	-0.198432
C	 0.3246283529	 1.1927528398	 2.9806381063	-0.265822
C	-0.0168779693	-0.2098888309	 2.5262645873	-0.060997
C	-0.2508356185	-0.647785387	 1.2866428292	-0.042001
C	-0.1118178797	 0.0800015159	-0.0251134265	 0.067574
O	 1.25702319	-0.0706483823	-0.5220047448	-0.293605
H	-0.3359042531	 2.226818597	 0.7488167628	 0.101646
H	-0.2760626159	 2.0141059876	-1.0104449251	 0.106875
H	 2.1436620146	 1.7964596378	-0.8756721091	 0.075385
H	 2.6935586203	 0.256780659	 1.383814152	 0.121483
H	 3.2721285228	 1.8854881415	 1.1032941072	 0.092573
H	 2.4156900394	 1.6646252489	 3.3245796004	 0.103299
H	 1.5470434566	 2.89241025	 2.4423920654	 0.098003
H	 0.3128047826	 1.2079977104	 4.0748238077	 0.098526
H	-0.4889210796	 1.8628729388	 2.6853440132	 0.120417
H	-0.098522579	-0.9468325223	 3.3230003727	 0.089176
H	-0.4862666687	-1.7039855459	 1.1673866255	 0.088207
H	-0.8268588811	-0.3229425182	-0.7504081934	 0.074963
134.4876	159.6382	221.766	278.0182	310.5606	380.2297	466.95	515.005	577.1944	675.7428	709.6447	772.5023	778.7799	801.6045	843.6236	868.3404	914.1637	943.1984	954.7389	980.3137	1009.1409	1037.8703	1049.1253	1074.2576	1094.0192	1125.1844	1149.5421	1203.0409	1229.3825	1254.5393	1266.8284	1282.7403	1308.9893	1315.4099	1344.7501	1364.1353	1387.5733	1393.3861	1397.9188	1430.0619	1478.2358	1485.1115	1495.7083	1520.9199	1718.2328	3021.7272	3031.1683	3042.4487	3045.0369	3050.5881	3053.899	3076.8757	3088.6851	3092.4767	3128.1771	3152.404	3167.0814
C1C2CCCC=CC1O2	C1[C@H]2CCCC=C[C@@H]1O2	
InChI=1S/C8H12O/c1-2-4-7-6-8(9-7)5-3-1/h2,4,7-8H,1,3,5-6H2/b4-2-	InChI=1S/C8H12O/c1-2-4-7-6-8(9-7)5-3-1/h2,4,7-8H,1,3,5-6H2/b4-2-/t7-,8+/m0/s1
