25
gdb 52609	2.3451	0.96903	0.84315	0.2562	97.88	-0.2397	0.0663	0.3061	1587.7204	0.225086	-352.348375	-352.336237	-352.335293	-352.386253	43.909	
C	 0.0295130632	 1.4760792064	-0.0208510475	-0.499445
C	 0.001887451	 0.0193475857	-0.0096317249	 0.032881
C	-0.0227848567	-1.1855386936	-0.0005503206	 0.101188
C	-0.042936871	-2.6562085202	-0.0175192781	 0.069921
C	-1.5136729376	-3.1364576299	-0.0278469791	-0.410271
C	 0.6446400726	-3.1214531684	-1.3247848963	-0.413879
C	 0.7495159865	-3.1812370769	 1.2350863364	 0.050036
C	 0.1410901596	-2.7085869236	 2.5635759105	-0.404487
C	 0.9356957388	-4.7062960176	 1.2559291247	-0.416252
H	 0.6897367377	 1.8692873709	 0.7603374349	 0.145074
H	 0.3900888633	 1.8615019485	-0.9812327817	 0.144892
H	-0.9682860701	 1.896046191	 0.1490781353	 0.145088
H	-2.0230504427	-2.7623827748	-0.9204711001	 0.118115
H	-1.5686681065	-4.2292658324	-0.0420016782	 0.110673
H	-2.0628728986	-2.7729032505	 0.8436886549	 0.12142
H	 1.7081695769	-2.8637869866	-1.3211931134	 0.11574
H	 0.5497736256	-4.2027178214	-1.4586361642	 0.112095
H	 0.1832250259	-2.6334297989	-2.1876050215	 0.117948
H	 1.7465747579	-2.7285950682	 1.1523312557	 0.076808
H	-0.0254277376	-1.6285011769	 2.5641297711	 0.124844
H	-0.8158864501	-3.2016432015	 2.7661627557	 0.111047
H	 0.8120400062	-2.9504377899	 3.3943230175	 0.106402
H	 1.4661345758	-5.0773587753	 0.3754537842	 0.114242
H	 1.5212695804	-4.9944555431	 2.1351804401	 0.110966
H	-0.0227724106	-5.2324882927	 1.3214444746	 0.114956
27.3282	62.6499	89.7018	116.8033	206.6925	234.5114	250.6032	256.3115	270.122	284.69	304.7189	323.9983	342.1874	386.8865	394.7813	470.1678	539.5585	571.1861	642.2721	774.3933	894.9259	925.4568	934.2045	941.4044	969.0041	1018.1183	1053.0187	1053.4468	1068.9273	1077.5302	1124.7698	1171.6802	1200.4317	1229.9126	1264.7147	1353.8252	1359.48	1393.2769	1399.0465	1411.9089	1415.3748	1425.4482	1479.5936	1480.0287	1480.346	1484.2324	1488.8692	1497.8191	1503.2588	1509.1973	1513.4464	1515.904	2361.6248	3013.3162	3024.2912	3033.3119	3037.293	3038.3172	3045.6113	3083.4823	3084.0573	3091.8983	3098.8338	3108.372	3112.2052	3114.7836	3120.2627	3120.3373	3125.2236
CC#CC(C)(C)C(C)C	CC#CC(C)(C)C(C)C	
InChI=1S/C9H16/c1-6-7-9(4,5)8(2)3/h8H,1-5H3	InChI=1S/C9H16/c1-6-7-9(4,5)8(2)3/h8H,1-5H3
