17
gdb 80647	3.05313	1.55368	1.26998	3.8006	67.38	-0.2577	-0.0404	0.2173	999.3656	0.13596	-458.939594	-458.932035	-458.931091	-458.971948	29.074	
O	 0.1010938427	 1.3088555134	 0.2114580414	-0.442667
C	 0.0639223767	-0.0754706989	 0.0235938221	 0.149253
C	-1.3892013611	-0.5526721604	-0.1917356067	 0.061697
C	-1.2286396955	-2.0231569633	-0.6340027352	-0.248526
C	-0.6828915922	-1.2656850597	-1.8613081979	 0.056433
O	-1.6398534289	-0.1987430353	-1.5906717669	-0.293236
C	 0.6247144778	-0.6181426511	-1.3535755252	-0.164433
C	 1.1507093943	 0.4431456513	-2.2880563016	 0.166323
O	 1.8094819209	 1.3932623642	-1.9331971028	-0.270072
H	 0.8948937258	 1.65016968	-0.2247329237	 0.301231
H	 0.5332551321	-0.6031252886	 0.8672858662	 0.071183
H	-2.1444425165	-0.1920629504	 0.5043030486	 0.096787
H	-0.5650610201	-2.6851033947	-0.0713258775	 0.1004
H	-2.1883812549	-2.496163548	-0.8406585704	 0.121318
H	-0.7156827727	-1.6505996781	-2.8818577487	 0.086894
H	 1.4349544211	-1.3432158914	-1.2048761169	 0.110768
H	 0.9209710506	 0.290894991	-3.3653511747	 0.096646
79.9141	104.8699	240.8985	251.6142	371.3491	398.0569	455.6873	497.687	612.1562	652.8453	717.8115	812.6725	831.6438	872.868	883.5151	902.0027	919.0344	963.5048	984.8808	1022.3135	1058.1135	1082.5422	1114.5419	1161.5207	1184.6918	1191.669	1227.7305	1258.2658	1269.7003	1276.1244	1315.7054	1326.981	1384.7923	1420.0712	1429.6452	1487.7055	1803.2227	2894.9202	2985.1363	3038.5889	3068.675	3110.0099	3145.5226	3151.3142	3716.8116
OC1C2CC(O2)C1C=O	O[C@H]1[C@@H]2C[C@@H](O2)[C@H]1C=O	
InChI=1S/C6H8O3/c7-2-3-4-1-5(9-4)6(3)8/h2-6,8H,1H2	InChI=1S/C6H8O3/c7-2-3-4-1-5(9-4)6(3)8/h2-6,8H,1H2/t3-,4-,5+,6-/m1/s1
