17
gdb 24678	3.66401	1.63516	1.16612	3.1788	81.04	-0.2111	-0.012	0.1991	1020.1133	0.140372	-380.930426	-380.923729	-380.922784	-380.961412	26.973	
C	-0.031913922	 1.4983955422	 0.0566785963	-0.269748
C	 1.399504247	 2.069053867	-0.0291575927	-0.324267
C	 2.211286208	 1.3338997459	-1.0486214381	 0.360443
N	 3.224427445	 1.7520145259	-1.7686982251	-0.337213
C	 3.6559465362	 0.643320413	-2.4717157645	-0.104158
C	 2.8977556741	-0.4520452984	-2.1662793704	-0.137572
N	 1.9627625874	-0.003844868	-1.2505804819	-0.041077
C	 0.9129867526	-0.6892627109	-0.6203519984	 0.025046
C	-0.0368653079	-0.0121698906	 0.0256541746	-0.123233
H	-0.5220834849	 1.864642166	 0.9637107529	 0.11232
H	-0.6324627844	 1.8729188966	-0.785877621	 0.123792
H	 1.392188737	 3.1345417906	-0.2687426763	 0.132639
H	 1.8861554989	 1.9675576507	 0.9516245752	 0.122174
H	 4.4869865299	 0.7038912013	-3.1575664305	 0.108313
H	 2.9089350029	-1.4731844193	-2.5096460439	 0.127188
H	 0.9448098421	-1.7684323726	-0.7043711226	 0.120726
H	-0.844956092	-0.5547321295	 0.5016524867	 0.104625
136.4099	175.6843	272.6304	394.133	429.4675	510.5686	594.7629	634.4495	672.0899	713.0433	724.4438	746.0561	791.9336	845.7406	888.3524	925.9776	936.6758	950.0892	1022.2606	1038.8516	1099.1671	1147.4487	1159.6703	1184.3918	1222.0914	1253.2196	1294.6983	1338.5615	1347.4594	1364.2767	1431.8618	1455.7239	1475.33	1482.6179	1524.4858	1580.7116	1717.8953	2995.7389	3008.8938	3076.7512	3107.8457	3196.6332	3219.2916	3249.432	3278.2246
C1CC2=NC=CN2C=C1	C1Cc2nccn2C=C1	
InChI=1S/C7H8N2/c1-2-5-9-6-4-8-7(9)3-1/h2,4-6H,1,3H2	InChI=1S/C7H8N2/c1-2-5-9-6-4-8-7(9)3-1/h2,4-6H,1,3H2
