18
gdb 112495	2.8412	1.04559	0.91884	3.689	81.16	-0.2431	0.0257	0.2688	1351.2712	0.14605	-401.939566	-401.930051	-401.929107	-401.974821	33.866	
C	 0.0961474087	 1.533944176	 0.2060716864	-0.37938
C	-0.0652810258	 0.0543403193	-0.1529586131	-0.159226
N	-1.4300314205	-0.4130482685	-0.0547326289	-0.070919
C	-2.3280437273	-0.6002641711	 1.086466089	-0.187558
C	-3.3882093145	-1.1641758064	 0.0804291056	-0.329412
C	-4.6477134594	-0.4664570662	-0.031360211	 0.335788
C	-5.6872047567	 0.1291406361	-0.1293954958	-0.458924
C	-2.2986383874	-0.8648093588	-1.0114860955	 0.405837
O	-2.2104760028	-0.9852169046	-2.2024020163	-0.365745
H	 1.1439618065	 1.8337591976	 0.1089020147	 0.124077
H	-0.5061078673	 2.1618702788	-0.4564820135	 0.136058
H	-0.212857024	 1.7297234038	 1.2378534342	 0.122111
H	 0.238837566	-0.1259438243	-1.1885615103	 0.144358
H	 0.5774827708	-0.5627527397	 0.4896421145	 0.110297
H	-1.9655244459	-1.3209421517	 1.8278155269	 0.113574
H	-2.6299020752	 0.3259322721	 1.5833270131	 0.125799
H	-3.5392537074	-2.2420926238	 0.1922574464	 0.131383
H	-6.6084229579	 0.6485679012	-0.2244735064	 0.201882
52.4439	63.7425	120.499	137.4362	193.8964	243.3025	280.2479	353.166	411.7813	463.3336	553.2664	614.774	628.1896	643.6489	752.4181	789.0048	804.9925	844.5513	929.6278	1000.1469	1029.3495	1078.615	1091.4604	1108.3549	1151.5409	1162.3152	1234.0101	1261.4738	1319.8304	1348.6636	1390.0584	1411.2163	1427.4881	1479.8111	1492.6211	1503.1309	1527.2585	1886.5904	2239.3772	3013.7082	3036.6958	3041.0359	3069.8071	3088.8204	3094.4431	3113.2776	3122.6577	3504.4139
CCN1CC(C#C)C1=O	CCN1C[C@@H](C#C)C1=O	
InChI=1S/C7H9NO/c1-3-6-5-8(4-2)7(6)9/h1,6H,4-5H2,2H3	InChI=1S/C7H9NO/c1-3-6-5-8(4-2)7(6)9/h1,6H,4-5H2,2H3/t6-/m1/s1
