16
gdb 48203	2.07229	1.42182	0.89921	1.8798	69.68	-0.2665	-0.0615	0.205	1233.0094	0.122875	-437.873718	-437.864794	-437.86385	-437.908798	30.327	
O	 0.1626522312	 0.0267790582	 0.4579222047	-0.22991
C	 0.1356644267	 1.0924521898	-0.0933292282	 0.157535
C	 1.3453374979	 2.0393849551	-0.1060099067	-0.255877
C	 1.3424874929	 2.8759016505	-1.3044268791	 0.2675
N	 1.3107551769	 3.5415647793	-2.2485559365	-0.305449
C	 1.3183584145	 2.9063789468	 1.1782050867	-0.04344
C	 1.6813277433	 2.1344951269	 2.4666650602	-0.098373
O	 2.9834015378	 2.7537048958	 2.5106257857	-0.267092
C	 2.6288552126	 3.674658048	 1.4613298081	-0.088537
H	-0.7777012095	 1.4829689878	-0.5883004963	 0.1173
H	 2.2495585098	 1.4209761697	-0.0912958291	 0.160117
H	 0.4029346682	 3.5001807097	 1.2097419693	 0.105664
H	 1.0673900292	 2.4044659672	 3.3351332058	 0.110569
H	 1.7350175411	 1.0445877607	 2.3860669495	 0.133818
H	 3.3712554365	 3.6990525434	 0.6558277077	 0.12191
H	 2.4747905609	 4.6936282411	 1.8384398082	 0.114266
65.5133	73.1718	82.656	127.9628	181.9056	226.3557	339.8741	363.4213	483.8969	528.831	542.3029	823.5567	838.3616	873.5782	934.8611	971.0399	990.2999	1037.6785	1042.906	1077.9985	1085.8261	1139.4464	1159.7759	1174.2148	1240.1076	1246.7809	1296.808	1309.8587	1358.0818	1381.4282	1417.4116	1511.0358	1536.463	1834.0499	2358.9598	2922.0874	3015.5068	3025.0818	3063.4122	3068.385	3086.0885	3098.7558
O=CC(C#N)C1COC1	O=C[C@@H](C#N)C1COC1	
InChI=1S/C6H7NO2/c7-1-5(2-8)6-3-9-4-6/h2,5-6H,3-4H2	InChI=1S/C6H7NO2/c7-1-5(2-8)6-3-9-4-6/h2,5-6H,3-4H2/t5-/m1/s1
