19
gdb 108758	2.83191	1.15521	0.89725	3.6934	80.33	-0.2333	-0.0417	0.1916	1318.2122	0.158439	-423.06869	-423.059433	-423.058489	-423.103428	33.917	
C	-0.3870775819	 1.3884678295	-0.0987659097	-0.384208
C	 0.154914872	-0.0474147698	 0.0169417084	-0.286996
C	 0.8815011784	-0.5139500992	-1.2049361692	 0.358301
C	 2.1429321925	-0.9634081045	-1.2918764179	-0.321636
C	 2.4698365503	-1.389690892	-2.6676104678	 0.391822
O	 3.5417521928	-1.7555286215	-3.0907510117	-0.333272
C	 1.166620468	-1.2863795202	-3.4770792313	-0.372347
C	 0.1992912148	-0.5106273482	-2.5643390734	 0.017891
O	-1.0956817321	-1.0819218441	-2.4211753244	-0.434927
H	 0.4188308014	 2.1044048451	-0.2882107987	 0.122248
H	-1.1161159651	 1.4670128867	-0.9098924767	 0.130795
H	-0.8869065784	 1.6801217483	 0.8290844294	 0.121046
H	 0.8133438969	-0.1344665051	 0.8871505422	 0.108484
H	-0.6917324107	-0.7257550249	 0.1813288777	 0.136976
H	 2.8593900092	-1.0231185234	-0.4814078247	 0.109982
H	 1.3447103646	-0.8319587349	-4.4546232567	 0.120041
H	 0.7755093318	-2.2971057348	-3.6365750369	 0.138229
H	 0.1080162107	 0.5325763982	-2.9079990718	 0.087675
H	-1.5573075253	-0.9898065651	-3.2603074568	 0.289896
42.5196	84.5824	131.5439	201.7719	238.1173	274.1856	281.6518	339.4854	419.068	518.8323	539.444	555.7159	614.0848	679.0052	796.9069	807.1453	846.7253	900.2169	933.6733	966.259	1018.3814	1064.8255	1081.4807	1106.995	1154.0601	1178.4831	1191.9136	1218.3236	1250.4305	1273.7634	1318.4643	1352.6182	1356.5105	1405.1967	1419.9306	1452.6829	1472.8143	1499.1442	1507.1916	1678.2339	1815.6633	2965.8251	3033.2842	3042.4335	3057.2757	3077.9229	3113.5395	3113.6603	3120.8805	3209.7423	3824.1391
CCC1=CC(=O)CC1O	CCC1=CC(=O)C[C@H]1O	
InChI=1S/C7H10O2/c1-2-5-3-6(8)4-7(5)9/h3,7,9H,2,4H2,1H3	InChI=1S/C7H10O2/c1-2-5-3-6(8)4-7(5)9/h3,7,9H,2,4H2,1H3/t7-/m1/s1
