13
gdb 25396	3.80784	1.20702	0.9165	0.5505	71.07	-0.2592	-0.1041	0.1551	1155.4288	0.09059	-452.814725	-452.807528	-452.806584	-452.846859	26.172	
O	-0.145466158	 0.0014322885	-0.0056642296	-0.208027
C	-0.0138477437	 1.1922420512	 0.0030802338	 0.109256
C	 1.318236088	 1.8952517702	-0.0042993334	 0.321756
N	 2.4248422257	 1.2156365636	-0.0212470277	-0.290568
C	 3.5783984275	 1.9568337487	-0.0262707048	 0.00663
C	 3.6253459399	 3.3169223914	-0.0147348952	-0.214574
C	 2.4032568701	 4.0984837607	 0.0042874917	 0.411943
O	 2.276485129	 5.3048855379	 0.0167130632	-0.374682
N	 1.2656160129	 3.253561364	 0.0082044236	-0.384186
H	-0.8875422851	 1.8842537859	 0.0177384135	 0.086856
H	 4.4953605049	 1.3744750857	-0.0405996627	 0.132974
H	 4.5616906721	 3.8602615724	-0.0192649082	 0.133651
H	 0.3733219567	 3.7350804998	 0.0214792758	 0.268971
89.8521	180.8762	198.2509	201.2207	391.5095	409.129	491.0976	535.3984	604.0161	685.2715	739.06	774.8489	816.2585	871.1165	915.161	1001.148	1014.1357	1023.6456	1094.1394	1195.1003	1216.0106	1292.9957	1423.9486	1440.3583	1477.8772	1561.0029	1637.6142	1812.0486	1843.0088	2867.1648	3175.1714	3224.7735	3561.0469
O=CC1=NC=CC(=O)N1	O=Cc1nccc(=O)[nH]1	
InChI=1S/C5H4N2O2/c8-3-4-6-2-1-5(9)7-4/h1-3H,(H,6,7,9)	InChI=1S/C5H4N2O2/c8-3-4-6-2-1-5(9)7-4/h1-3H,(H,6,7,9)
