15
gdb 11233	4.68029	1.42392	1.26109	1.9702	62.86	-0.2445	-0.031	0.2136	971.1293	0.118279	-399.832089	-399.82435	-399.823406	-399.864945	26.835	
C	-0.0727522069	 1.5703976788	-0.2961954557	-0.472103
C	-0.0691708497	 0.0885796068	-0.141808074	 0.415477
N	-1.0886133606	-0.6750435086	-0.19345581	-0.326055
C	-0.5884879097	-2.0379995681	 0.0506636055	-0.089118
C	 0.9434052992	-1.891129855	 0.1700969907	-0.128328
O	 1.1526696595	-0.4638293282	 0.0700741957	-0.248592
C	-1.2584630426	-2.5928491454	 1.3049777851	 0.155871
O	-0.6715749249	-3.1270621541	 2.2095946642	-0.23769
H	 0.5586683725	 1.8636116755	-1.1405068937	 0.149005
H	-1.0909418344	 1.9214131701	-0.4584397549	 0.15443
H	 0.3426147904	 2.0419499443	 0.599774263	 0.15119
H	-0.8899199101	-2.6934709992	-0.7789553364	 0.109212
H	 1.3146347452	-2.2434889242	 1.135189314	 0.14498
H	 1.4948557138	-2.3771989109	-0.6379905415	 0.120175
H	-2.3596241718	-2.4532841515	 1.3183019779	 0.101547
59.2891	105.409	140.1037	190.7613	256.4416	336.924	398.8805	588.7623	637.39	690.0272	710.5916	844.5175	920.1575	941.9232	994.9434	1013.1131	1064.9514	1080.217	1086.2052	1097.4754	1215.5368	1241.3259	1281.2869	1342.824	1376.2508	1407.9066	1415.7931	1474.1436	1475.5287	1522.2753	1724.3579	1831.6152	2921.4063	3004.8202	3053.3903	3068.8517	3111.7077	3122.2658	3169.1459
CC1=NC(CO1)C=O	CC1=N[C@@H](CO1)C=O	
InChI=1S/C5H7NO2/c1-4-6-5(2-7)3-8-4/h2,5H,3H2,1H3	InChI=1S/C5H7NO2/c1-4-6-5(2-7)3-8-4/h2,5H,3H2,1H3/t5-/m1/s1
