17
gdb 81928	2.16276	1.9941	1.22802	2.941	67.82	-0.2513	-0.0407	0.2106	1014.8625	0.135257	-458.962078	-458.953907	-458.952963	-458.994886	30.916	
C	 0.5939651779	 1.5625750822	-0.0732644451	-0.382604
C	 0.0304904887	 0.1404360248	-0.0094070998	-0.080109
C	 0.4743626097	-0.7247188445	-1.1923050946	 0.036612
O	 1.8876298219	-0.6877532932	-1.4002088559	-0.230304
C	 1.3271324579	-1.8527402804	-0.7660162063	-0.100891
C	 1.5416458665	-1.6928171545	 0.718877345	 0.369782
O	 2.3750898252	-2.2130099761	 1.4178847409	-0.331071
C	 0.5178942571	-0.6762883402	 1.2250815273	 0.04801
O	 0.9878370021	 0.0764237081	 2.3051310006	-0.428608
H	 1.6834648833	 1.5435959375	-0.1415579958	 0.13876
H	 0.2031067352	 2.088576648	-0.950059132	 0.110685
H	 0.3168899881	 2.1215838654	 0.8223290286	 0.135795
H	-1.0631407788	 0.1872773275	-0.0001187569	 0.085243
H	-0.1215682225	-0.7775545449	-2.0996532245	 0.108881
H	 1.4493083275	-2.7974493949	-1.2864371562	 0.122736
H	-0.3336450588	-1.3140169255	 1.5374509889	 0.100725
H	 1.716186199	-0.4337335392	 2.6887029758	 0.296358
62.4015	185.488	205.9101	250.3699	257.9824	281.9256	386.1095	435.9156	513.9503	536.776	625.173	633.5696	705.8867	817.2836	850.4384	875.8857	885.0933	945.4012	1008.7498	1041.5653	1093.1778	1103.8391	1131.9524	1146.5985	1201.3117	1234.1242	1240.9402	1306.4001	1310.803	1353.9488	1359.4541	1396.8879	1404.2663	1420.5761	1489.3801	1501.0592	1841.6873	2900.1172	3049.971	3054.4867	3123.7739	3145.027	3152.4633	3172.364	3730.4891
CC1C2OC2C(=O)C1O	C[C@H]1[C@H]2O[C@H]2C(=O)[C@H]1O	
InChI=1S/C6H8O3/c1-2-3(7)4(8)6-5(2)9-6/h2-3,5-7H,1H3	InChI=1S/C6H8O3/c1-2-3(7)4(8)6-5(2)9-6/h2-3,5-7H,1H3/t2-,3+,5-,6+/m1/s1
