20
gdb 119510	3.74657	0.97588	0.89501	1.8623	78.6	-0.219	0.0676	0.2867	1355.8244	0.17064	-403.053153	-403.04456	-403.043616	-403.08677	33.134	
O	 0.053702502	 1.4446622948	-0.0613756439	-0.42047
C	 0.0215312335	 0.0298122542	-0.1678649441	-0.058586
C	-1.3787094738	-0.5486113298	 0.0732703656	-0.30917
C	-1.393904869	-2.0446827408	-0.0043710657	 0.38504
C	-1.5491916467	-2.8427189234	-1.2710231758	-0.34929
C	-2.5106396517	-3.0567159714	-0.1286573272	-0.151452
C	-1.8629206772	-3.8034441811	 1.0503895548	-0.0277
C	-0.4440413918	-4.1676070429	 0.8661994514	-0.253569
N	-0.7798947042	-2.7674544443	 1.1975251627	-0.183634
H	-0.1396136474	 1.6722885489	 0.8535940285	 0.281077
H	 0.3481944381	-0.1995847678	-1.1876572771	 0.109592
H	 0.7366652705	-0.444630975	 0.5202394004	 0.106634
H	-1.7244995616	-0.2409943457	 1.0696128036	 0.096275
H	-2.0760571109	-0.1260842384	-0.6587967431	 0.104137
H	-1.9712201838	-2.2570810375	-2.0827180468	 0.119169
H	-0.8574487925	-3.6035355865	-1.6149986633	 0.113481
H	-3.5770763403	-2.8959987105	-0.2174252798	 0.095581
H	-2.4364026723	-4.1203998391	 1.9158416745	 0.099288
H	 0.0424877011	-4.6666482089	 1.7000352616	 0.122503
H	-0.031817442	-4.4322946348	-0.1002126062	 0.121094
69.8118	105.7148	112.429	261.744	301.8559	326.6069	346.5438	411.0812	459.5734	535.2804	663.3028	705.2054	751.9333	775.672	824.95	850.0895	905.897	929.1394	951.2121	972.9844	1004.8045	1023.6612	1038.938	1050.5631	1061.6197	1073.6194	1098.4688	1109.1677	1136.7605	1147.9449	1211.1262	1235.2018	1259.824	1295.8917	1329.1215	1352.04	1389.7296	1408.9799	1419.431	1472.1666	1480.1248	1513.2218	1525.2319	2999.6665	3015.2343	3064.4507	3084.2323	3122.0541	3133.8309	3155.9698	3195.4768	3202.454	3213.7321	3816.4138
OCCC12CC1C1CN21	OCC[C@]12C[C@H]1[C@H]1CN21	
InChI=1S/C7H11NO/c9-2-1-7-3-5(7)6-4-8(6)7/h5-6,9H,1-4H2	InChI=1S/C7H11NO/c9-2-1-7-3-5(7)6-4-8(6)7/h5-6,9H,1-4H2/t5-,6+,7-,8?/m0/s1
