22
gdb 12286	3.7042	1.34933	1.12875	1.0006	78.75	-0.2419	0.0803	0.3222	1161.7528	0.198923	-350.193001	-350.183566	-350.182622	-350.226862	34.717	
C	-0.7199523034	 1.767155274	 0.0826587522	-0.237413
O	-0.535625685	 0.5260813355	 0.7226509088	-0.240703
C	-1.2326136013	-0.5251055049	 0.1083762791	 0.16675
C	-0.7219231099	-1.0864420752	-1.247130971	-0.27972
C	-1.0079899003	-2.5130673951	-0.6978933232	 0.042832
C	-0.0617737035	-3.6472892896	-1.0636984962	-0.409081
C	-1.0124330296	-1.9190040399	 0.7541824082	-0.059743
C	 0.2960879363	-2.04413375	 1.5317880639	-0.385231
H	-0.1574120911	 2.5138944836	 0.648598451	 0.124315
H	-0.3497535602	 1.7568742968	-0.9536926922	 0.107023
H	-1.7817782826	 2.0612836909	 0.0637431713	 0.101409
H	-2.305253143	-0.2794130314	 0.0461199261	 0.058228
H	-1.2272692717	-0.7780775078	-2.1657667671	 0.090118
H	 0.352886862	-0.9072803359	-1.354503277	 0.10279
H	-2.0313825665	-2.8023074958	-0.9622605497	 0.069097
H	 0.9751464553	-3.4063943321	-0.8094876405	 0.115358
H	-0.326423427	-4.5745832752	-0.5429653093	 0.112454
H	-0.0999710637	-3.8508009666	-2.1397972241	 0.111934
H	-1.838150388	-2.2620054485	 1.3854908654	 0.062424
H	 1.1584184226	-1.7010049119	 0.9531006981	 0.117044
H	 0.256986646	-1.4362373911	 2.4397176827	 0.12362
H	 0.4752909845	-3.0840561395	 1.8235768735	 0.106495
77.7969	104.0381	169.6188	200.8081	213.429	222.9049	242.7613	319.4981	339.0905	430.1746	477.1817	511.0533	649.3059	755.6522	808.9283	886.9092	905.5169	940.3583	996.0236	1007.9341	1034.248	1048.1085	1114.2076	1135.6313	1158.8822	1176.406	1185.5626	1189.9642	1223.4803	1248.2206	1270.9708	1282.5584	1306.8954	1364.7938	1370.6736	1393.772	1410.2261	1414.5892	1479.5757	1484.9313	1487.616	1488.7457	1491.661	1500.8566	1501.7948	1510.6648	2962.1459	2972.8238	3018.1451	3026.0483	3032.8557	3039.6321	3049.4307	3052.4099	3088.0256	3100.3904	3104.7559	3108.7128	3111.305	3116.6086
COC1CC(C)C1C	CO[C@H]1C[C@@H](C)[C@H]1C	
InChI=1S/C7H14O/c1-5-4-7(8-3)6(5)2/h5-7H,4H2,1-3H3	InChI=1S/C7H14O/c1-5-4-7(8-3)6(5)2/h5-7H,4H2,1-3H3/t5-,6-,7+/m1/s1
