17
gdb 68437	2.70656	1.62486	1.26319	4.2359	71.81	-0.2486	0.0271	0.2757	1006.8239	0.137983	-417.982732	-417.975245	-417.974301	-418.014512	29.582	
O	-0.1219761487	 1.3853443622	 0.0640513229	-0.474493
C	 0.0374567584	 0.0118404201	 0.0493159725	 0.380462
C	 0.8863505134	-0.803105113	-0.9703603297	-0.243899
N	 0.7849736881	-1.925497217	 0.0383321778	-0.115613
C	 0.8075598351	-0.8443794182	 1.0978554146	-0.251858
C	-0.6763240694	-2.2047519744	-0.0265729318	-0.19077
C	-1.305602731	-0.7561644696	-0.0348224968	-0.190276
C	-2.2107058591	-0.4884235588	 1.0739500753	 0.279667
N	-2.9258957985	-0.3040232586	 1.9635883389	-0.332833
H	 0.738657985	 1.7998651815	 0.1846561721	 0.291185
H	 0.4798789922	-1.0226192499	-1.9617738876	 0.109433
H	 1.9195164097	-0.4560063386	-1.0486528654	 0.110481
H	 1.8327623133	-0.5056108485	 1.2663237368	 0.109959
H	 0.3254553295	-1.0990481059	 2.0447261077	 0.130039
H	-0.9141101972	-2.760400135	-0.9354909428	 0.123193
H	-0.9891493747	-2.7890701754	 0.8398634329	 0.137126
H	-1.8230776559	-0.5272772709	-0.9706654771	 0.128194
121.3978	141.9922	270.3741	311.4107	340.8926	408.5173	458.259	486.5768	527.7694	591.2505	639.1473	688.9909	817.6602	834.6689	865.7251	889.2333	959.799	971.4053	1002.6805	1021.7455	1053.675	1059.5291	1115.5168	1127.7309	1196.7959	1214.1474	1216.0158	1241.1108	1251.2391	1315.9457	1324.2232	1345.7905	1390.8185	1494.6228	1499.9939	1534.0003	2353.8964	3054.5808	3064.6431	3073.8392	3083.5806	3120.1564	3128.5483	3139.584	3818.2321
OC12CN(C1)CC2C#N	O[C@@]12CN(C1)C[C@H]2C#N	
InChI=1S/C6H8N2O/c7-1-5-2-8-3-6(5,9)4-8/h5,9H,2-4H2	InChI=1S/C6H8N2O/c7-1-5-2-8-3-6(5,9)4-8/h5,9H,2-4H2/t5-/m1/s1
