13
gdb 34672	1.7381	1.70789	1.29669	5.8011	73.03	-0.2848	-0.0247	0.2601	1042.2939	0.088043	-378.441807	-378.433393	-378.432449	-378.475269	29.954	
C	-0.0877828336	-1.2248028701	-0.075828452	-0.41225
C	-0.0359901843	-0.0263746626	-0.0232970775	 0.349417
C	 0.0181101195	 1.4009853952	 0.033078784	-0.2309
C	 0.509591843	 2.1180561882	 1.2904069681	-0.206201
C	 0.9211900855	 1.3685873863	 2.4432348416	 0.325362
N	 1.232953494	 0.7863502797	 3.391496965	-0.316085
C	 1.3582904742	 2.1361030566	 0.0211181952	-0.206206
C	 2.5906468741	 1.404092165	-0.0535353862	 0.325362
N	 3.593667517	 0.8366075004	-0.1390126838	-0.31607
H	-0.1218838622	-2.2862177144	-0.1135069375	 0.220333
H	-0.7773749798	 1.9218359025	-0.4914278342	 0.148984
H	 0.0153791897	 3.0546881912	 1.5254513235	 0.159125
H	 1.3742992929	 3.0836226121	-0.5068169061	 0.15913
90.6796	90.7997	111.2526	225.7963	252.2186	264.356	432.1836	440.7166	467.6397	635.1972	656.063	659.0511	662.1534	686.9544	768.032	775.5678	825.5947	969.5833	981.4152	1090.7841	1097.3241	1118.4604	1222.6269	1364.5488	1367.6485	1393.0413	2252.4891	2367.489	2367.6743	3156.9451	3171.4804	3180.2329	3500.6163
C#CC1C(C#N)C1C#N	C#C[C@H]1[C@@H](C#N)[C@H]1C#N	
InChI=1S/C7H4N2/c1-2-5-6(3-8)7(5)4-9/h1,5-7H	InChI=1S/C7H4N2/c1-2-5-6(3-8)7(5)4-9/h1,5-7H/t5-,6+,7-
