21
gdb 82293	2.38674	1.63236	1.32627	2.3537	76.54	-0.2512	0.0715	0.3226	1071.3996	0.182297	-424.222327	-424.213672	-424.212727	-424.255034	34.676	
C	-0.789816544	 1.5137576023	 0.1526952342	-0.427388
C	-0.0519751811	 0.1787527861	 0.0480638181	 0.257423
C	-1.0481520464	-0.9638428507	-0.2208966856	-0.424808
C	 1.0284514459	 0.1696598009	-1.0792896767	-0.286256
C	 2.1182691628	-0.7593726072	-0.5719120879	 0.050113
O	 2.9780210323	-0.1458340414	 0.407345716	-0.266025
C	 1.924640192	-1.0108461907	 0.8641259293	-0.011201
C	 0.736547688	-0.1776363713	 1.3610399188	 0.090109
O	 1.1860429143	 0.9404726036	 2.1002214036	-0.438848
H	-0.1002961221	 2.3254082195	 0.3940231049	 0.119656
H	-1.2940630687	 1.7517934049	-0.7905709535	 0.104269
H	-1.5499442217	 1.4831465083	 0.9405674985	 0.113703
H	-1.5778983017	-0.8048843608	-1.1660736841	 0.114036
H	-0.5412006436	-1.9339776184	-0.284526546	 0.111604
H	-1.7952301865	-1.0298274799	 0.5773248982	 0.116185
H	 0.6118589585	-0.17757221	-2.0300641087	 0.099934
H	 1.4479582293	 1.1663861926	-1.2531923088	 0.110668
H	 2.6214901118	-1.4616356479	-1.2313138611	 0.100406
H	 2.2541206566	-1.9092043347	 1.3785885025	 0.101048
H	 0.0964084408	-0.7535370148	 2.0370010577	 0.075773
H	 2.0161468933	 1.2106179495	 1.6832419504	 0.289598
79.1042	206.271	235.6364	259.9014	291.5329	314.0899	330.4923	358.9936	437.9439	489.7855	522.8905	524.9645	662.5035	706.1381	770.6052	810.3382	862.9034	871.6793	919.828	932.3426	952.0196	974.2418	995.7989	1028.786	1053.7219	1091.1147	1122.1987	1164.6463	1205.3397	1214.013	1258.1038	1259.0963	1277.1841	1310.051	1333.8527	1338.1948	1398.8908	1411.0452	1430.7281	1450.1469	1478.2321	1482.6382	1490.8553	1504.2422	1506.8195	3022.1263	3032.2288	3044.8987	3059.5643	3085.6805	3089.2033	3092.3983	3099.8267	3126.818	3145.2502	3158.1283	3743.2323
CC1(C)CC2OC2C1O	CC1(C)C[C@H]2O[C@H]2[C@H]1O	
InChI=1S/C7H12O2/c1-7(2)3-4-5(9-4)6(7)8/h4-6,8H,3H2,1-2H3	InChI=1S/C7H12O2/c1-7(2)3-4-5(9-4)6(7)8/h4-6,8H,3H2,1-2H3/t4-,5-,6-/m1/s1
