18
gdb 73240	2.20728	1.91972	1.43861	2.2061	72.11	-0.2639	0.0145	0.2784	980.4283	0.14915	-439.095565	-439.087773	-439.086829	-439.127838	30.474	
O	 0.054550967	 1.3796892829	 0.010635939	-0.48128
C	 0.0144250597	-0.0186613634	-0.0332895723	 0.347608
C	 0.3050766087	-0.7217617217	-1.3878881864	-0.285946
C	-0.9073194	-1.6583380599	-1.1272902557	-0.240687
C	-1.3624021915	-0.73402884	 0.0430637469	-0.075523
C	-1.4047551515	-1.358532696	 1.4313740157	-0.115901
O	-0.0222730784	-1.4773804848	 1.8474479698	-0.244313
C	 0.7612777851	-0.615115868	 1.1507157063	 0.353712
N	 1.94698826	-0.2882075908	 1.4394656136	-0.560917
H	 0.9192973633	 1.6129742656	 0.3763864093	 0.292174
H	 0.1185942262	-0.0187652761	-2.20323654	 0.115318
H	 1.2907131205	-1.1733122713	-1.5163624973	 0.114065
H	-1.6167672615	-1.7701925634	-1.9483457328	 0.108555
H	-0.6171547046	-2.6544244707	-0.7820757439	 0.110806
H	-2.2240477536	-0.1064096448	-0.182094412	 0.093635
H	-1.9280529521	-0.7273647644	 2.1589097595	 0.120048
H	-1.8384751132	-2.3615923589	 1.4537205508	 0.121788
H	 2.2613988159	-0.7301274044	 2.3038782993	 0.226857
77.9462	158.2914	220.4856	274.947	298.689	385.817	401.978	490.3896	566.0342	630.4321	706.8328	724.1997	727.1044	818.7346	845.959	882.8856	894.1697	943.0218	961.7966	1007.2165	1044.8182	1059.8017	1087.4299	1130.7989	1148.7471	1155.4663	1215.4575	1233.9844	1238.9911	1262.4459	1267.9687	1318.194	1336.074	1399.2719	1410.9469	1476.3555	1494.994	1516.288	1769.7083	3038.7366	3065.7401	3070.5001	3100.3391	3114.1976	3125.673	3135.1834	3484.581	3749.5609
OC12CCC1COC2=N	O[C@]12CC[C@H]1CO[C]2[NH]	
InChI=1S/C6H9NO2/c7-5-6(8)2-1-4(6)3-9-5/h4,7-8H,1-3H2	InChI=1S/C6H9NO2/c7-5-6(8)2-1-4(6)3-9-5/h4,7-8H,1-3H2/t4-,6+/m0/s1
