15
gdb 125132	3.2211	1.13262	0.86798	4.0702	69.56	-0.2437	-0.007	0.2367	1261.3891	0.112721	-453.984712	-453.976215	-453.975271	-454.019144	29.379	
C	 0.0797070103	 1.4620000114	-0.1189104879	-0.511876
C	 0.0208307287	-0.027234153	-0.0972957424	 0.279592
C	-0.2346221671	-0.9410724877	-1.1027321053	 0.167051
O	-0.5460668552	-0.6079114258	-2.4040975583	-0.223073
C	 0.2669476873	-1.090352564	-3.3849603667	 0.150786
O	 0.046526404	-0.8996379194	-4.5391886737	-0.258315
C	-0.1785255817	-2.2179725591	-0.5061957147	-0.084822
N	 0.1021174778	-2.1186341072	 0.7888557971	-0.216149
N	 0.2117958302	-0.7933938136	 1.0077415981	-0.248486
H	 1.0642775445	 1.8359186638	 0.1831141473	 0.14188
H	-0.1210277941	 1.8161078851	-1.1320484051	 0.160844
H	-0.6666239715	 1.9085599522	 0.5473596633	 0.14439
H	 1.1212949145	-1.657780371	-2.9739049956	 0.094982
H	-0.3358120129	-3.1838683504	-0.9622742369	 0.125843
H	 0.4141555952	-0.4735023512	 1.9403425708	 0.277355
45.7227	78.9467	134.5061	153.452	241.6152	247.9881	399.6253	468.1549	489.4092	520.0055	681.2211	685.6479	705.3353	845.167	873.6147	947.3579	1003.0293	1046.7187	1063.963	1127.2268	1132.4775	1186.2466	1246.6627	1318.9212	1390.2272	1407.3605	1418.867	1448.0533	1485.1466	1487.5701	1527.029	1639.6171	1876.1833	2982.427	3034.1725	3086.9049	3134.925	3251.7021	3665.402
CC1=C(OC=O)C=NN1	Cc1c(OC=O)cn[nH]1	
InChI=1S/C5H6N2O2/c1-4-5(9-3-8)2-6-7-4/h2-3H,1H3,(H,6,7)	InChI=1S/C5H6N2O2/c1-4-5(9-3-8)2-6-7-4/h2-3H,1H3,(H,6,7)
