23
gdb 84375	2.17307	1.56205	1.187	1.532	85.88	-0.2415	0.0124	0.2539	1179.3442	0.204703	-388.308008	-388.298285	-388.297341	-388.341604	38.494	
C	-0.1490814428	 1.5778870571	-0.0434967615	-0.413185
C	 0.0597397854	 0.0595763265	-0.0198799563	-0.039183
C	 0.8836786796	-0.4794990375	-1.1700223662	-0.067202
C	 1.6392177657	-1.5123665766	-0.8054071864	-0.149558
C	 1.4509255233	-1.8422038979	 0.6557181165	 0.079908
O	 2.6210177251	-2.282194815	 1.3298913252	-0.435999
C	 0.7728412211	-0.5490900474	 1.2408497036	 0.258627
C	 1.8569797625	 0.3968524153	 1.7852056581	-0.444489
C	-0.2124814045	-0.8922556682	 2.36345872	-0.450489
H	 0.798866152	 2.1232624854	-0.061967919	 0.118943
H	-0.7143135537	 1.8676409779	-0.9358655914	 0.111596
H	-0.7180734678	 1.9171583298	 0.8285147395	 0.115439
H	-0.9402470281	-0.3991697924	-0.0807777785	 0.079303
H	 0.8030916904	-0.0792169691	-2.1760288629	 0.09256
H	 2.2774340289	-2.1071293795	-1.4499256115	 0.096513
H	 0.758471536	-2.6892888311	 0.7615487645	 0.088252
H	 3.3232161673	-1.6513383887	 1.1394860727	 0.278307
H	 2.5695849884	 0.6941773158	 1.0076597433	 0.106195
H	 1.4127234814	 1.3092616654	 2.1924424888	 0.114025
H	 2.4120848108	-0.0903502799	 2.591346383	 0.121266
H	 0.3051595484	-1.3837409116	 3.1942333834	 0.122796
H	-0.6988248423	 0.0064065771	 2.7593980066	 0.107667
H	-0.9976501073	-1.5695637855	 2.0099048982	 0.108708
71.9916	195.436	230.6878	243.6648	269.1227	282.9248	305.3437	315.17	321.9163	352.5446	374.4504	467.6453	487.6628	574.4097	608.1594	695.1883	736.167	796.5303	825.6121	909.7113	946.9052	948.8885	972.1691	1010.657	1018.0974	1047.452	1073.8634	1078.7065	1119.5526	1148.8617	1185.394	1209.4481	1246.5168	1264.1165	1282.9517	1329.7002	1345.5208	1373.139	1393.3061	1406.9125	1418.1532	1429.7728	1486.5376	1491.2028	1496.9835	1501.2901	1512.1494	1517.6797	1682.1404	2966.9314	3003.7375	3022.9686	3032.3671	3035.6452	3088.8557	3095.0476	3095.9221	3101.8738	3110.2895	3116.2111	3171.756	3200.7525	3809.3995
CC1C=CC(O)C1(C)C	C[C@H]1C=C[C@@H](O)C1(C)C	
InChI=1S/C8H14O/c1-6-4-5-7(9)8(6,2)3/h4-7,9H,1-3H3	InChI=1S/C8H14O/c1-6-4-5-7(9)8(6,2)3/h4-7,9H,1-3H3/t6-,7+/m0/s1
