20
gdb 52551	3.55758	0.68609	0.632	3.8612	88.51	-0.244	-0.0123	0.2317	1876.9528	0.167774	-403.167917	-403.156578	-403.155634	-403.207261	38.538	
C	 0.0228468831	 1.4463805977	-0.0762642945	-0.505453
C	 0.0850568122	 0.0026296102	 0.0812059106	 0.163879
C	 0.129117254	-1.194015138	 0.2192426116	-0.068502
C	 0.1471382118	-2.6331389674	 0.4384701137	 0.268963
O	-0.5080657244	-3.1776265262	 1.3125220312	-0.377918
N	 0.9523402491	-3.3109167136	-0.4296193456	-0.322054
C	 1.1423079245	-4.758029477	-0.3553341398	 0.070508
C	 1.4759578685	-5.2978837389	-1.7466260682	-0.409342
C	 2.203475675	-5.131613489	 0.688897998	-0.382133
H	 1.0136539245	 1.8982005616	 0.0426955879	 0.155989
H	-0.3491316851	 1.7180927362	-1.07013674	 0.156412
H	-0.6435541458	 1.8960908079	 0.6671567486	 0.161265
H	 1.5087790481	-2.7761254738	-1.0778611274	 0.246059
H	 0.1814793073	-5.1650553957	-0.0256669675	 0.117216
H	 2.4239478006	-4.8846367454	-2.1131945743	 0.112236
H	 1.5823070765	-6.3857950331	-1.7176455363	 0.125562
H	 0.6913593191	-5.0473016272	-2.4663738814	 0.124547
H	 1.9225492447	-4.7361251188	 1.6677849794	 0.142434
H	 2.2967589303	-6.2195031821	 0.7703203451	 0.113873
H	 3.1834421159	-4.7247786673	 0.414853369	 0.106458
13.5123	34.7459	59.5518	75.0669	162.6595	198.803	232.2358	265.1642	287.7551	352.726	368.8338	409.6885	436.1038	451.1038	481.5872	585.1242	764.6489	824.6559	875.1427	930.2343	948.9905	963.7421	1049.8571	1052.3909	1108.2551	1146.8915	1181.177	1195.818	1253.3415	1344.9265	1388.4192	1396.8807	1411.5897	1417.7361	1472.6113	1475.4487	1483.8636	1488.3461	1494.983	1509.6963	1525.0629	1743.7609	2354.6006	3026.8408	3030.695	3032.6974	3066.3624	3092.877	3095.2298	3097.1855	3105.2983	3119.7858	3127.6114	3631.8548
CC#CC(=O)NC(C)C	CC#CC(=O)NC(C)C	
InChI=1S/C7H11NO/c1-4-5-7(9)8-6(2)3/h6H,1-3H3,(H,8,9)	InChI=1S/C7H11NO/c1-4-5-7(9)8-6(2)3/h6H,1-3H3,(H,8,9)
