16
gdb 45004	2.39741	1.83442	1.22187	3.4607	70.78	-0.2707	-0.0182	0.2525	1007.5717	0.126114	-437.930008	-437.922757	-437.921813	-437.961932	28.071	
N	 0.0342720306	 0.6807651549	-1.1074523675	-0.486699
C	-0.0423073911	-0.0881836938	-0.1117891471	 0.378297
C	-1.3480436963	-0.6403859934	 0.3951533413	-0.290832
C	-1.2353470498	-2.1051965447	 0.7594756772	-0.046094
C	-0.362992322	-2.9995124426	-0.0582454769	-0.298613
C	 0.1049665695	-2.540879861	 1.3199185597	-0.159827
C	 1.1759171131	-1.5246723053	 1.4477364351	 0.425819
O	 2.1056805107	-1.5989737608	 2.1967841902	-0.313836
O	 1.0904271313	-0.4180699674	 0.6171941151	-0.244543
H	 1.0035745713	 0.9651269008	-1.2652749441	 0.233689
H	-1.6413676663	-0.0657229996	 1.283847026	 0.137553
H	-2.0993050603	-0.4635248791	-0.3767212873	 0.14708
H	-2.1135672947	-2.5405373347	 1.2236987373	 0.110716
H	-0.6239237185	-4.0475149763	-0.1430960054	 0.134014
H	 0.1339742189	-2.5876174664	-0.929722001	 0.147499
H	 0.1422697238	-3.2799102906	 2.1093482574	 0.125777
103.8224	115.1376	231.5649	342.7678	383.6322	453.2763	480.1729	519.543	585.2605	658.0315	733.6858	778.0993	815.7256	865.9526	899.4976	936.6972	944.5824	987.9472	1007.2763	1032.781	1074.6036	1087.7368	1121.4058	1128.13	1195.8538	1224.4765	1228.8619	1333.4582	1343.8805	1361.5089	1412.3896	1472.9164	1497.8514	1763.8298	1864.2656	3029.4344	3118.3769	3145.9548	3169.9132	3205.4436	3234.903	3467.1614
N=C1CC2CC2C(=O)O1	[NH][C]1C[C@H]2C[C@H]2C(=O)O1	
InChI=1S/C6H7NO2/c7-5-2-3-1-4(3)6(8)9-5/h3-4,7H,1-2H2	InChI=1S/C6H7NO2/c7-5-2-3-1-4(3)6(8)9-5/h3-4,7H,1-2H2/t3-,4-/m1/s1
