20
gdb 92090	2.60416	1.54032	1.26516	1.2989	73.84	-0.2179	0.06	0.2779	1065.1844	0.172714	-440.258146	-440.249906	-440.248962	-440.290468	32.862	
O	 0.1249400203	 1.3750685051	 0.1571586823	-0.441731
C	 0.0276233944	-0.0366595698	 0.0137205027	 0.117712
C	-1.4435234463	-0.4493105021	-0.0361343176	-0.251702
C	-2.1174145407	-0.2210471035	-1.3808102315	 0.000761
C	-2.135969833	 1.108923329	-2.0395732478	-0.244373
N	-1.3396875819	 0.0170126018	-2.6115742906	-0.111756
C	 0.121896987	 0.1402587792	-2.5074846294	-0.179815
C	 0.7402087915	-0.4974510022	-1.2557158003	 0.089406
O	 2.1031881938	-0.1029715527	-1.1077255958	-0.450764
H	 1.0536297529	 1.5897086248	 0.0021211274	 0.290121
H	 0.5076203795	-0.5289663298	 0.8732855858	 0.074315
H	-1.4926061581	-1.5190955441	 0.1993065155	 0.104524
H	-1.9874289661	 0.072717395	 0.7588660416	 0.119973
H	-2.9707606825	-0.8757830156	-1.5513048776	 0.086581
H	-2.9924508156	 1.4185731701	-2.6339657037	 0.104006
H	-1.6027006613	 1.909489319	-1.5338843911	 0.132515
H	 0.5619538543	-0.3319454078	-3.3969666632	 0.091237
H	 0.4178877052	 1.1948409463	-2.5231993923	 0.106581
H	 0.6614398271	-1.594413627	-1.3157657382	 0.072514
H	 2.5497845396	-0.2171422859	-1.952906406	 0.289895
115.4817	160.8192	246.3394	277.971	303.2564	349.4647	366.3531	394.2411	456.1644	485.3174	525.7709	621.4036	711.2097	752.79	800.7363	856.9313	890.0557	932.2496	980.4507	1003.8344	1037.7935	1064.2242	1088.6613	1108.4718	1125.9197	1129.2035	1137.1763	1182.5057	1225.6249	1228.1682	1259.5254	1281.4723	1327.7897	1334.2314	1361.7621	1378.1423	1396.7421	1410.6844	1433.9562	1450.5724	1475.8355	1495.6928	1515.9666	2975.102	2986.099	3002.3329	3036.4223	3061.7798	3073.9607	3099.5898	3109.6484	3193.4899	3777.947	3815.537
OC1CC2CN2CC1O	O[C@H]1C[C@H]2CN2C[C@H]1O	
InChI=1S/C6H11NO2/c8-5-1-4-2-7(4)3-6(5)9/h4-6,8-9H,1-3H2	InChI=1S/C6H11NO2/c8-5-1-4-2-7(4)3-6(5)9/h4-6,8-9H,1-3H2/t4-,5-,6+,7?/m0/s1
