16
gdb 50978	2.33116	1.00862	0.73423	2.8558	70.01	-0.2592	-0.0524	0.2068	1463.3709	0.120053	-475.023894	-475.014062	-475.013118	-475.060634	32.503	
N	 0.129650632	 1.2939796884	-0.1424100795	-0.437418
C	 0.0397797862	 0.0410970361	-0.209933809	 0.145312
O	-1.1309045126	-0.5561189696	 0.1344259271	-0.187653
C	-1.203842085	-1.9617268195	 0.0249674199	-0.009912
C	-2.5095713976	-2.4067496463	 0.7019347841	-0.307045
C	-2.5031000866	-2.1357340297	 2.1973424026	 0.150864
O	-2.7603355676	-2.9705470648	 3.0245957127	-0.22878
C	-1.1663286411	-2.4395019651	-1.4267472331	 0.151539
O	-0.9562621165	-1.7221560817	-2.3654737425	-0.222477
H	 1.0625852082	 1.5944798683	-0.416231024	 0.236183
H	 0.8244846203	-0.6643799279	-0.5063962301	 0.096974
H	-0.3504328463	-2.4427551831	 0.5356046639	 0.116216
H	-3.3314821422	-1.837237805	 0.2488758765	 0.153214
H	-2.6882149061	-3.4734885759	 0.5442613732	 0.132206
H	-2.2408519289	-1.0949812724	 2.478326472	 0.11386
H	-1.3407944661	-3.5328300418	-1.5427854239	 0.096917
40.6487	63.2392	84.5903	99.4283	147.3566	191.8718	219.1686	295.7017	349.7183	422.0604	520.7162	574.7304	721.1691	809.354	817.0898	855.8898	943.4286	979.0835	1026.8657	1036.8298	1090.7546	1117.6436	1171.6691	1231.1629	1266.6535	1283.4784	1337.0711	1357.1797	1409.7877	1421.4055	1429.7642	1449.1634	1752.7712	1833.4727	1845.6131	2884.7871	2929.855	2955.2552	3037.3529	3054.0885	3114.5049	3524.5842
N=COC(CC=O)C=O	[NH][CH]O[C@@H](CC=O)C=O	
InChI=1S/C5H7NO3/c6-4-9-5(3-8)1-2-7/h2-6H,1H2	InChI=1S/C5H7NO3/c6-4-9-5(3-8)1-2-7/h2-6H,1H2/t5-/m0/s1
