15
gdb 61320	6.55523	0.58284	0.55039	2.0682	88.83	-0.2508	-0.0243	0.2265	1881.8964	0.110877	-379.620585	-379.610867	-379.609923	-379.655898	34.239	
N	 0.0131539736	 1.5397169039	-0.0381482536	-0.480234
C	 0.0048069856	 0.0817231116	-0.0654039328	-0.125245
C	-1.4381809204	-0.4593768619	 0.1232018729	-0.389141
C	-2.0005531992	-0.1123854441	 1.416265303	 0.397949
C	-2.4685339273	 0.1553040574	 2.4988249023	-0.233038
C	-2.9953065734	 0.4577444752	 3.716301225	 0.295393
C	-3.4632366681	 0.7242803829	 4.7969369768	-0.55288
C	 0.5837508948	-0.4895984835	-1.3026635328	 0.256995
N	 1.0364652657	-0.8925530463	-2.2873998421	-0.316051
H	 0.9660615732	 1.8884092194	-0.063570362	 0.249985
H	-0.4577731457	 1.9098538692	-0.8591075525	 0.244
H	 0.6103679877	-0.2719820209	 0.7758405576	 0.1489
H	-2.0677366959	-0.06421597	-0.68483579	 0.149915
H	-1.4251396038	-1.5485681346	-0.0023578145	 0.159562
H	-3.874960077	 0.9601155916	 5.7467558126	 0.19389
45.7805	64.0574	155.222	163.3627	204.0236	242.4077	280.5758	350.4024	355.8263	439.9547	525.6406	539.0353	554.9314	580.7401	594.4881	604.35	745.4235	830.6711	889.6221	935.8692	991.1435	1131.07	1155.9501	1183.5707	1283.1961	1302.241	1359.6011	1394.6591	1462.5798	1664.8884	2185.044	2344.982	2369.4022	3024.8366	3058.4264	3070.7815	3498.4508	3504.9749	3581.0043
NC(CC#CC#C)C#N	N[C@@H](CC#CC#C)C#N	
InChI=1S/C7H6N2/c1-2-3-4-5-7(9)6-8/h1,7H,5,9H2	InChI=1S/C7H6N2/c1-2-3-4-5-7(9)6-8/h1,7H,5,9H2/t7-/m0/s1
