22
gdb 14872	3.51681	1.21167	0.99054	1.345	78.25	-0.2601	0.0777	0.3379	1254.4559	0.199974	-350.193435	-350.184114	-350.18317	-350.227446	34.316	
C	-0.1802386626	 1.7177699322	-0.0217734115	-0.382143
C	-0.1260745366	 0.2605760767	 0.4510513008	-0.199176
C	-1.3340373656	-0.5486881433	-0.0113781587	 0.046245
C	-1.5139499668	-0.864650917	-1.5250461285	-0.2282
C	-2.0594583526	-2.264228429	-1.1323171177	-0.21753
C	-1.4444229963	-2.0817058683	 0.2845228268	-0.006217
C	-0.1234710499	-2.812853469	 0.4634174484	-0.085273
O	-0.4134059751	-4.2041982254	 0.5179127995	-0.4245
H	 0.6978523837	 2.2795809713	 0.3116287921	 0.109655
H	-0.2188286113	 1.7776440634	-1.1147943314	 0.118904
H	-1.0694974065	 2.2259600786	 0.3677949115	 0.113292
H	 0.7977469761	-0.203615908	 0.0825243888	 0.091122
H	-0.0659672312	 0.2352288188	 1.5473776881	 0.093244
H	-2.2438648308	-0.0618276966	 0.3614439555	 0.067885
H	-2.16768238	-0.2097524697	-2.1062718956	 0.092167
H	-0.5499098791	-0.9286714835	-2.0409555043	 0.094229
H	-3.1520179192	-2.2870060844	-1.1052498161	 0.096462
H	-1.7098058504	-3.1275770291	-1.7025423484	 0.103571
H	-2.0934301838	-2.3539656605	 1.1223800187	 0.068726
H	 0.5576258252	-2.5880468193	-0.3735704403	 0.080509
H	 0.3731893024	-2.4756576486	 1.3872496616	 0.083237
H	 0.4176181604	-4.6806518793	 0.6009849106	 0.28379
86.9939	110.8905	136.4892	144.1551	215.1231	243.2214	266.9848	309.3736	379.2215	422.6656	518.8739	672.9633	747.7599	796.0386	834.2168	891.4297	915.3575	941.9988	950.297	975.104	1002.1563	1042.4365	1067.9334	1093.943	1136.5934	1152.8838	1172.9253	1204.8102	1237.8675	1243.7299	1258.098	1263.3109	1288.4118	1295.7913	1308.6345	1346.1726	1366.8876	1396.9074	1410.4526	1459.183	1481.6772	1487.0899	1498.1779	1499.1372	1506.953	1522.8806	2960.5621	2988.1073	3014.286	3019.6498	3029.8047	3045.3224	3049.4805	3057.09	3067.0367	3096.1563	3097.1454	3101.8999	3118.0252	3829.6656
CCC1CCC1CO	CC[C@H]1CC[C@H]1CO	
InChI=1S/C7H14O/c1-2-6-3-4-7(6)5-8/h6-8H,2-5H2,1H3	InChI=1S/C7H14O/c1-2-6-3-4-7(6)5-8/h6-8H,2-5H2,1H3/t6-,7-/m0/s1
