20
gdb 30665	3.57854	1.08314	0.86043	2.0588	83.02	-0.1942	0.0468	0.241	1368.0177	0.171215	-403.178741	-403.169458	-403.168514	-403.213508	34.214	
C	-0.8437829401	 1.5422080281	 0.3116092736	-0.235
O	-0.5503199631	 0.1947725557	 0.60323781	-0.261153
C	-1.2111851385	-0.7549377084	-0.2382152325	 0.000421
C	-0.5562272325	-0.8605711304	-1.6175591597	-0.395408
C	-1.1924790319	-2.0620270354	 0.501299758	 0.326724
C	-1.3273674851	-3.370518265	 0.0854360866	-0.253537
C	-1.2942093565	-4.1936491997	 1.2460223477	-0.143626
C	-1.1357932578	-3.3646203263	 2.3327224237	-0.099379
N	-1.0887768526	-2.0767459048	 1.8677964335	-0.279274
H	-0.3565420175	 2.1495645291	 1.0786065441	 0.127014
H	-0.4623685451	 1.8539722706	-0.6707365152	 0.112042
H	-1.9273126495	 1.7370680664	 0.3383866156	 0.106602
H	-2.2551513298	-0.416207355	-0.3701090278	 0.077704
H	-0.6088708733	 0.0904145684	-2.1550371361	 0.111364
H	 0.4912856947	-1.1548188794	-1.5143094445	 0.131529
H	-1.0707880034	-1.6117967536	-2.2233194234	 0.12634
H	-1.4486000976	-3.7033590611	-0.9339685933	 0.08575
H	-1.3743537415	-5.2694997131	 1.276089654	 0.088924
H	-1.0450866982	-3.5806123381	 3.3850929699	 0.110929
H	-0.9020943606	-1.2434568281	 2.3985063155	 0.262033
40.9435	78.5259	157.5832	167.9373	207.7079	248.876	317.4616	376.6341	429.0969	472.6723	557.101	635.3246	655.6157	711.7705	741.3172	792.6214	842.9965	848.0457	898.82	962.8404	1032.4608	1059.0596	1071.3107	1106.6319	1117.0426	1142.5472	1152.8372	1183.6968	1216.4303	1258.0602	1279.6086	1361.7701	1371.7057	1400.9807	1437.1881	1463.0177	1476.9493	1481.7342	1485.1321	1499.0051	1502.0184	1513.1787	1606.2386	2924.8743	2980.7712	3033.6318	3047.9421	3111.1825	3117.0782	3130.9115	3240.2737	3253.0506	3270.4647	3682.1473
COC(C)C1=CC=CN1	CO[C@@H](C)c1ccc[nH]1	
InChI=1S/C7H11NO/c1-6(9-2)7-4-3-5-8-7/h3-6,8H,1-2H3	InChI=1S/C7H11NO/c1-6(9-2)7-4-3-5-8-7/h3-6,8H,1-2H3/t6-/m0/s1
