21
gdb 68835	2.72844	1.43152	1.20027	1.4793	83.94	-0.2144	0.0765	0.2909	1147.5228	0.18205	-383.209542	-383.200478	-383.199534	-383.242702	35.179	
C	-0.0362549131	 1.5344716742	 0.0587635015	-0.507033
C	 0.1357070321	 0.0487955861	 0.0047832348	 0.291849
C	 0.6527524081	-0.7745637582	-1.1911961526	-0.376085
C	 1.2410663413	-1.7724941715	-0.1676807466	 0.355091
C	 1.4492642765	-3.227923077	-0.2669438767	-0.303669
N	 2.6021036457	-2.2965921366	-0.1759689269	-0.37675
C	 0.7145838442	-0.9283966292	 0.981823116	 0.217213
C	 1.331879317	-0.7752174248	 2.3346748079	-0.514873
N	-0.7608953527	-0.8765985671	 0.7508593721	-0.412047
H	 0.8409291086	 2.0492674446	-0.3480011452	 0.123619
H	-0.9096069943	 1.8542545548	-0.5225769994	 0.128304
H	-0.1797951005	 1.8789279535	 1.0890100344	 0.117044
H	-0.1126494484	-1.1507985007	-1.8752439461	 0.105713
H	 1.4354408987	-0.2548597285	-1.7538862245	 0.098653
H	 1.3087421949	-3.8662823886	 0.6010012129	 0.117124
H	 1.2450495454	-3.708962961	-1.2202882468	 0.110646
H	 3.0210501416	-2.1735825124	-1.0952251816	 0.22699
H	 2.4195627372	-0.6991645323	 2.2475677039	 0.142811
H	 0.9575010724	 0.1195662657	 2.844006959	 0.112024
H	 1.1092289853	-1.6393273813	 2.9719276756	 0.127501
H	-1.1516317499	-0.3384324698	 1.5266596284	 0.215876
106.8762	177.2123	181.3451	198.7313	214.678	232.6272	334.0625	351.9297	437.3022	471.5972	484.8889	558.646	629.6429	706.1703	761.2607	835.4157	857.4389	878.9511	933.2663	953.6137	961.3265	976.8753	1022.5971	1047.6282	1089.3744	1100.3541	1106.0176	1125.9748	1140.7986	1173.3678	1218.8053	1245.3961	1261.5675	1312.8068	1363.0109	1406.265	1413.0784	1422.2633	1453.7105	1474.775	1480.0663	1492.6514	1498.7688	1505.5111	1524.3997	3020.1846	3026.4771	3043.5018	3080.7276	3084.7237	3093.2677	3103.0423	3105.5117	3111.7101	3189.5152	3442.6604	3486.4052
CC12CC3(CN3)C1(C)N2	C[C@@]12C[C@]3(CN3)[C@]1(C)N2	
InChI=1S/C7H12N2/c1-5-3-7(4-8-7)6(5,2)9-5/h8-9H,3-4H2,1-2H3	InChI=1S/C7H12N2/c1-5-3-7(4-8-7)6(5,2)9-5/h8-9H,3-4H2,1-2H3/t5-,6-,7+/m1/s1
