20
gdb 7341	4.26826	0.94408	0.87753	1.1386	71.67	-0.241	-0.0101	0.2309	1389.0533	0.173948	-386.162882	-386.152635	-386.151691	-386.198964	35.487	
C	 0.0322857205	 1.5263747166	 0.0847753433	-0.387329
C	 0.0277430894	-0.0153886772	 0.0142260343	-0.058796
C	 0.607180188	-0.515980618	-1.3126589314	-0.385433
C	 0.8315737951	-0.5503938918	 1.203271545	 0.379118
O	 2.0345613181	-0.6869032709	 1.1459546805	-0.322805
C	 0.0499769615	-0.871744728	 2.4644141451	-0.290176
C	 0.9303863809	-1.2093137933	 3.6575169772	-0.0753
O	 0.0678595905	-1.5033701514	 4.7473986007	-0.425107
H	 1.0542718454	 1.9076364389	-0.0055893004	 0.134854
H	-0.5630608082	 1.9445874398	-0.7324339834	 0.120579
H	-0.3859582153	 1.8953972357	 1.0268225708	 0.117734
H	-1.0094829137	-0.357418518	 0.1200825179	 0.078236
H	 1.663360012	-0.2459238901	-1.3873775647	 0.13896
H	 0.535542769	-1.6049686575	-1.393545213	 0.114908
H	 0.0699326856	-0.0758544577	-2.1582489436	 0.108471
H	-0.6156868997	-0.0333281491	 2.7071821384	 0.12847
H	-0.62026729	-1.7151479411	 2.2463715908	 0.133342
H	 1.577617026	-2.0607626039	 3.4062239399	 0.104647
H	 1.5917615726	-0.3591852474	 3.8802304797	 0.098487
H	 0.6138436224	-1.7324244155	 5.5049551029	 0.287141
31.3779	76.2757	93.5366	141.4984	205.3098	232.6225	246.0238	275.1757	291.671	305.7043	382.8048	445.1026	576.6244	653.0961	804.6885	815.4162	891.6603	932.8111	971.702	1000.1678	1037.4789	1054.5245	1097.2974	1118.9	1133.7731	1198.9337	1209.3109	1253.0296	1301.0912	1324.3935	1342.3281	1378.7832	1395.4742	1416.3117	1445.2635	1469.1206	1486.5153	1489.3941	1501.8294	1512.1255	1522.5756	1797.6554	2994.7207	3021.0618	3026.0767	3029.9207	3034.3026	3042.4457	3060.9977	3104.0913	3108.1342	3112.768	3128.9916	3831.6204
CC(C)C(=O)CCO	CC(C)C(=O)CCO	
InChI=1S/C6H12O2/c1-5(2)6(8)3-4-7/h5,7H,3-4H2,1-2H3	InChI=1S/C6H12O2/c1-5(2)6(8)3-4-7/h5,7H,3-4H2,1-2H3
