20
gdb 26284	3.49725	1.22608	0.9194	1.8967	92.75	-0.1842	0.0128	0.197	1287.6573	0.172944	-366.069575	-366.060859	-366.059915	-366.103239	32.806	
C	 0.0474071203	 1.4458733504	 0.0240122293	-0.336535
N	-0.112730541	 0.0061202559	 0.0147428279	-0.129799
C	 0.0528742959	-0.7150316661	 1.2601670125	-0.336533
C	-0.0429473006	-0.6817881111	-1.1881879087	 0.386553
C	-0.0069627308	-2.0914838813	-1.2255630886	-0.216964
C	 0.0327534895	-2.7727171055	-2.4360105826	-0.089794
C	 0.0469231447	-2.088689216	-3.6483499749	-0.138975
C	 0.0257389299	-0.6970008876	-3.6233132944	-0.089796
C	-0.014047007	 0.0008119298	-2.422356237	-0.216915
H	 1.026122146	 1.7724540113	-0.3619236683	 0.118055
H	-0.7280307954	 1.9357702469	-0.5767584747	 0.131534
H	-0.0519956775	 1.8109782839	 1.0473987292	 0.121339
H	-0.0494725269	-0.0186656923	 2.0939036751	 0.121348
H	-0.7182662513	-1.4854228292	 1.3785903148	 0.131576
H	 1.0343849329	-1.2079585978	 1.3449128966	 0.118002
H	-0.0092334261	-2.6615772542	-0.306138006	 0.085307
H	 0.0568413677	-3.8581593004	-2.4243403794	 0.08617
H	 0.0799404915	-2.6265522756	-4.5888728307	 0.083949
H	 0.0442293928	-0.1365668928	-4.5530837861	 0.08617
H	-0.0220995645	 1.0823165217	-2.4476261039	 0.085306
70.714	84.0223	153.7239	198.5248	274.9171	277.3207	398.2807	425.1889	472.7694	524.0237	553.5797	629.17	709.4735	753.3885	771.798	822.8855	868.7693	939.8224	966.4423	970.7569	1001.4419	1058.3297	1083.6537	1114.666	1147.2844	1147.6202	1183.7174	1197.8187	1218.783	1275.9439	1353.4005	1367.7405	1378.1065	1448.5684	1480.5394	1487.5905	1488.1124	1490.3783	1520.0963	1532.2507	1545.499	1610.2091	1649.6807	2972.874	2981.0874	3045.8217	3047.1798	3119.7049	3131.6812	3166.5182	3172.6232	3197.4803	3214.9976	3216.5751
CN(C)C1=CC=CC=C1	CN(C)c1ccccc1	
InChI=1S/C8H11N/c1-9(2)8-6-4-3-5-7-8/h3-7H,1-2H3	InChI=1S/C8H11N/c1-9(2)8-6-4-3-5-7-8/h3-7H,1-2H3
