15
gdb 132799	2.31339	1.85958	1.03293	2.9666	73.69	-0.2039	0.0007	0.2045	1070.6622	0.114221	-458.14672	-458.138848	-458.137904	-458.178594	30.796	
N	 0.0088234427	 1.4011536872	 0.1503758793	-0.599348
C	-0.0093617723	 0.0131126367	 0.0633977985	 0.15898
C	-1.1942304194	-0.7375367564	 0.0176952794	-0.0776
N	-1.2190481775	-2.0670147423	-0.0154882425	-0.264997
C	-0.0675934277	-2.7326773249	 0.001061883	-0.0776
C	 1.1874441353	-2.1062889217	 0.0457306286	 0.158981
N	 2.3860033868	-2.8085493315	 0.1152854002	-0.599348
C	 1.1744422065	-0.7161417149	 0.0694499095	 0.20093
F	 2.3513805906	-0.0516343894	 0.0812907189	-0.103618
H	 0.8726710688	 1.8262330741	-0.1533202785	 0.254799
H	-0.7999824526	 1.8570460855	-0.2457344841	 0.253439
H	-2.1523573727	-0.2220675944	 0.0085930537	 0.093572
H	-0.1211175256	-3.8191531227	-0.0213960781	 0.093572
H	 2.3558183885	-3.7315190021	-0.2922973409	 0.253438
H	 3.1939705286	-2.284520633	-0.187599447	 0.2548
154.7288	241.6989	276.2366	281.9907	294.8344	311.1039	332.8361	493.4146	503.4698	555.225	582.5685	594.6425	619.3997	644.2146	696.7758	759.0507	836.592	864.6267	899.5688	1034.8287	1090.5794	1178.1936	1209.2463	1256.0457	1335.9779	1345.6112	1383.3823	1477.124	1562.4473	1601.3235	1635.6361	1651.6879	1672.219	3141.2487	3146.0568	3567.2671	3567.4554	3668.9902	3669.0494
NC1=CN=CC(N)=C1F	Nc1cncc(N)c1F	
InChI=1S/C5H6FN3/c6-5-3(7)1-9-2-4(5)8/h1-2H,7-8H2	InChI=1S/C5H6FN3/c6-5-3(7)1-9-2-4(5)8/h1-2H,7-8H2
