16
gdb 75650	2.94463	1.58767	1.27456	2.2444	70.38	-0.2271	-0.0464	0.1806	987.8473	0.12352	-437.733683	-437.726179	-437.725234	-437.765713	28.992	
O	 0.159854055	 1.4391323737	-0.1375541516	-0.410125
C	 0.0828942703	 0.0591675401	-0.0356301906	-0.043655
C	 0.2606171797	-0.6447860928	 1.4013899318	 0.266703
O	 0.7642641232	-0.2744316399	 2.4132023044	-0.269896
C	-0.674608968	-1.8008526333	 0.900100204	-0.086944
N	-2.2363319455	-2.0698394752	 1.0068369204	-0.164927
C	-2.3230899083	-0.5334127391	 1.0266873968	-0.21155
C	-1.2364023913	-0.7606307106	-0.0564197253	 0.175149
C	-2.1970129089	-1.908253435	-0.5333489967	-0.249397
H	-0.2563292513	 1.8292932009	 0.6392649558	 0.295519
H	 0.8075870434	-0.3703967174	-0.7367067262	 0.126688
H	-0.1258097106	-2.6618938656	 0.5090078178	 0.104998
H	-3.290081942	-0.1468730096	 0.696485132	 0.108394
H	-2.0353294277	-0.1014495602	 1.9896461226	 0.124969
H	-1.7527051051	-2.7574572031	-1.0567541461	 0.117171
H	-3.1680035829	-1.6292294528	-0.9496332693	 0.116905
94.3551	165.7559	188.9823	270.7979	295.5604	418.9293	515.961	550.171	616.6921	637.3435	681.5786	739.7391	781.3759	847.1354	867.4043	897.7222	925.9217	973.9037	984.5732	1040.149	1066.7247	1092.5845	1127.4995	1143.7812	1166.5011	1171.2038	1190.8943	1227.9928	1270.1669	1288.4492	1309.6001	1416.8931	1505.9535	1544.0465	1889.5008	3053.0979	3057.8959	3062.1167	3077.5923	3119.5657	3138.1004	3804.9014
OC1C(=O)C2N3CC12C3	O[C@H]1C(=O)[C@H]2N3C[C@@]12C3	
InChI=1S/C6H7NO2/c8-3-4-6(5(3)9)1-7(4)2-6/h4-5,9H,1-2H2	InChI=1S/C6H7NO2/c8-3-4-6(5(3)9)1-7(4)2-6/h4-5,9H,1-2H2/t4-,5+/m1/s1
