22
gdb 100074	3.16795	0.92931	0.85976	4.6753	79.61	-0.2373	0.0365	0.2738	1459.0036	0.190322	-441.522369	-441.510659	-441.509714	-441.560787	41.219	
C	-0.1939824439	 1.5235449227	 0.0327175711	-0.478848
C	 0.0698205109	 0.0219353539	 0.0337400373	 0.41615
O	 1.2044598131	-0.4231486104	 0.0791515849	-0.384751
N	-1.0474684989	-0.7588357233	-0.0124889236	-0.360967
C	-1.0621692503	-2.2335439983	-0.0041908927	 0.283871
C	-0.3271992605	-2.7866771296	-1.2369831653	-0.404529
C	-0.4371842278	-2.7723234116	 1.2939301697	-0.404831
C	-2.5530157955	-2.6159910587	-0.0671630715	-0.112527
O	-2.6604570144	-4.0254756007	-0.0624524415	-0.414002
H	 0.3918753894	 1.9787757232	-0.7694680508	 0.151748
H	-1.2456339566	 1.7937701502	-0.0955207172	 0.106942
H	 0.1655197357	 1.9428215258	 0.9766848421	 0.151083
H	-1.937473869	-0.2886011564	-0.0421624125	 0.235809
H	 0.724511246	-2.501219165	-1.2045430927	 0.150298
H	-0.4108665291	-3.8753423393	-1.259372657	 0.127941
H	-0.7686877045	-2.3878680742	-2.1564957515	 0.098584
H	-0.9578957178	-2.3651917427	 2.1672338668	 0.098214
H	-0.5206969648	-3.8608964545	 1.3206937962	 0.128178
H	 0.6130321004	-2.484847515	 1.3503527962	 0.150099
H	-3.0720408317	-2.1729667302	 0.7998674148	 0.083997
H	-2.9936589746	-2.1844680483	-0.9818932552	 0.084563
H	-3.5913720861	-4.2600130978	-0.1053359276	 0.292978
12.1574	58.006	99.6235	131.5393	151.8228	201.6671	231.4145	255.8831	268.554	327.4994	343.8508	346.1911	356.8921	417.2693	458.8754	529.1462	637.8461	650.5307	772.5798	895.1188	924.5442	967.0046	969.0153	991.8118	1045.5306	1049.4304	1054.3066	1108.9094	1192.7137	1208.7865	1235.3198	1274.6284	1299.7136	1303.881	1389.0016	1394.2701	1402.8802	1459.745	1469.4661	1480.1268	1485.7391	1494.9983	1497.3478	1511.2575	1529.772	1540.8921	1770.8242	2946.5446	2979.5819	3043.0514	3046.9948	3047.4293	3117.9226	3121.8461	3122.4302	3130.8257	3154.1547	3157.8963	3632.4255	3842.3714
CC(=O)NC(C)(C)CO	CC(=O)NC(C)(C)CO	
InChI=1S/C6H13NO2/c1-5(9)7-6(2,3)4-8/h8H,4H2,1-3H3,(H,7,9)	InChI=1S/C6H13NO2/c1-5(9)7-6(2,3)4-8/h8H,4H2,1-3H3,(H,7,9)
