22
gdb 110311	1.88777	1.53949	1.02167	0.2369	82.67	-0.2228	0.0706	0.2934	1276.2838	0.193097	-404.300259	-404.290445	-404.2895	-404.334527	37.065	
C	-0.2427088671	 1.6369929335	 0.0896905257	-0.415296
C	-0.0391435052	 0.1352266494	-0.0318010339	 0.104908
C	 0.9347733759	-0.4996988258	-1.060379774	-0.355121
C	 1.5174566208	-1.294417727	 0.1149337314	 0.352966
C	 1.7395379178	-2.7782593775	 0.0949338731	-0.490685
C	 2.0599971337	-0.3900856227	 1.1466604618	-0.052391
C	 2.8300577748	 0.8988049287	 0.9206414678	-0.105929
O	 4.2307098146	 0.6552679479	 0.9388209929	-0.415804
N	 0.5903982314	-0.6037453036	 1.1278017079	-0.227306
H	 0.6905037119	 2.2028784917	 0.1220614255	 0.121512
H	-0.8239993534	 2.0049565259	-0.7631773466	 0.116613
H	-0.8062673732	 1.8631023513	 1.0012012669	 0.127351
H	-1.0258880142	-0.3248357148	-0.1468975205	 0.08642
H	 0.4344334393	-1.1224576363	-1.8048043231	 0.105587
H	 1.6290531824	 0.1662432048	-1.5821791678	 0.105885
H	 2.61621283	-3.0296810069	-0.5139795105	 0.124653
H	 1.9076370949	-3.1610296618	 1.1057163936	 0.125735
H	 0.8760236623	-3.3035627599	-0.3280403177	 0.119178
H	 2.459069069	-0.9204127365	 2.0141665774	 0.07822
H	 2.6274903718	 1.3323543109	-0.0597693896	 0.114129
H	 2.5424296401	 1.6452343758	 1.6774090246	 0.096133
H	 4.4680529624	 0.3615223927	 1.8242557247	 0.283241
82.6007	151.8734	168.0966	189.9884	197.9522	220.3384	262.2669	309.8562	338.8338	375.9455	411.8677	496.6013	550.1115	631.5295	703.8052	747.903	827.7769	854.9477	900.8167	939.2293	981.3122	998.7993	1047.395	1057.9119	1064.8843	1091.8197	1116.4632	1135.8059	1162.579	1183.5467	1216.8823	1242.5216	1290.8905	1313.9182	1332.4128	1380.1003	1390.1707	1407.3594	1413.7589	1416.0093	1474.0049	1484.49	1490.4425	1494.112	1497.2983	1498.6184	1518.8653	2983.499	3026.0714	3036.3599	3044.2962	3054.3595	3079.1542	3086.3271	3098.1851	3109.777	3111.4897	3117.5259	3133.0227	3814.834
CC1CC2(C)C(CO)N12	C[C@H]1C[C@@]2(C)[C@@H](CO)N12	
InChI=1S/C7H13NO/c1-5-3-7(2)6(4-9)8(5)7/h5-6,9H,3-4H2,1-2H3	InChI=1S/C7H13NO/c1-5-3-7(2)6(4-9)8(5)7/h5-6,9H,3-4H2,1-2H3/t5-,6+,7-,8?/m0/s1
