21
gdb 75490	2.73207	1.3641	1.03858	1.7398	84.98	-0.231	0.0309	0.262	1227.2595	0.182993	-387.099309	-387.090777	-387.089833	-387.132241	33.434	
C	-0.0324880218	 1.5224255565	 0.0702287009	-0.474432
C	 0.0016814868	 0.0217141059	-0.0255065137	 0.319082
C	 0.0041177074	-0.6244957628	-1.1942540278	-0.141342
C	 0.0252582539	-2.1239484575	-1.3397586415	-0.248755
C	-0.4173016688	-2.8294505335	-0.0484980604	-0.283793
C	 0.2847621953	-2.2071759433	 1.1376419162	 0.428553
C	 0.6991512249	-3.0144262602	 2.2893276927	-0.2477
O	 1.6555535756	-2.6178184137	 1.3021900313	-0.280436
C	 0.032322518	-0.7192914133	 1.2955786722	-0.362713
H	 0.8553545708	 1.9073678079	 0.5886270235	 0.123244
H	-0.0789003974	 1.9891600736	-0.9172557996	 0.119112
H	-0.9009413846	 1.8637964265	 0.6493507549	 0.118429
H	 0.000343625	-0.0449940792	-2.1154556113	 0.075054
H	-0.6181005391	-2.4289609665	-2.1736744009	 0.098767
H	 1.0388405223	-2.4562263983	-1.6059399255	 0.122898
H	-1.5011144777	-2.7131611956	 0.0799161906	 0.100651
H	-0.2004852629	-3.9007202678	-0.0943564814	 0.099731
H	 0.8151229852	-2.5452124209	 3.2665187192	 0.105869
H	 0.4662781566	-4.0788570762	 2.3162935661	 0.106712
H	 0.8128266216	-0.300296993	 1.9430616713	 0.113948
H	-0.9191774308	-0.5577925086	 1.8256240131	 0.107122
89.135	133.5774	191.8682	266.7997	273.5653	338.5437	363.2469	402.865	442.2943	478.0393	498.5065	627.9325	724.5535	808.8246	823.3717	847.411	889.7372	912.5061	948.2988	965.4337	990.7021	1023.526	1046.1925	1076.2915	1089.4019	1127.2569	1150.3304	1171.0838	1176.3865	1226.9923	1247.1004	1285.617	1320.1944	1347.2271	1366.6876	1383.0976	1413.9483	1439.7202	1456.5948	1472.6747	1478.7428	1484.3747	1492.2681	1532.7652	1742.3597	2990.2942	3008.7842	3011.8258	3026.9537	3045.6094	3050.5548	3056.515	3071.8029	3087.7204	3109.9136	3141.8375	3154.9439
CC1=CCCC2(CO2)C1	CC1=CCC[C@]2(CO2)C1	
InChI=1S/C8H12O/c1-7-3-2-4-8(5-7)6-9-8/h3H,2,4-6H2,1H3	InChI=1S/C8H12O/c1-7-3-2-4-8(5-7)6-9-8/h3H,2,4-6H2,1H3/t8-/m1/s1
