18
gdb 19296	3.34805	1.81226	1.42656	2.6927	67.75	-0.2421	0.0796	0.3217	932.8812	0.152261	-384.886451	-384.878284	-384.877339	-384.919007	29.833	
C	-0.0634365769	 1.3888994634	-0.0184741999	-0.239919
O	 0.2567993455	 0.0212616284	 0.1244105612	-0.237073
C	 0.7016921122	-0.582614053	-1.0539131106	 0.122947
C	 1.3298700802	-1.9616094569	-0.8732916291	-0.016774
O	 0.3086478823	-2.8792630583	-0.4700289816	-0.236849
C	 0.4071337187	-2.5547752845	-1.8584853658	 0.023528
C	-0.3498588923	-1.2314472138	-2.0631521726	-0.074525
C	-1.8202986417	-1.2259090095	-1.6714741031	-0.400342
H	 0.8067573923	 1.9735638715	-0.3558537928	 0.104866
H	-0.885210821	 1.5532636142	-0.7297628041	 0.110451
H	-0.3729249329	 1.7518444312	 0.9643568073	 0.130855
H	 1.3869802666	 0.0822495485	-1.6018906577	 0.067417
H	 2.3510183201	-2.2117019524	-0.6093815147	 0.102407
H	 0.567398914	-3.3712242827	-2.5531515632	 0.101985
H	-0.2011550554	-0.8337068035	-3.071966363	 0.071453
H	-1.9417339403	-1.6004633336	-0.653541919	 0.146283
H	-2.2431330809	-0.2176314022	-1.7202525209	 0.111916
H	-2.4027475004	-1.8615542967	-2.3475547103	 0.111375
105.8554	125.1438	162.7606	196.9296	229.5355	248.7231	336.9751	449.4631	557.6187	620.045	728.8622	790.9345	849.712	861.8511	893.4762	930.1838	995.1471	1018.9695	1042.2332	1065.1982	1089.0066	1138.1546	1161.9956	1182.2424	1204.472	1225.3747	1245.4238	1252.4661	1293.9598	1352.2979	1379.4649	1395.5606	1411.0297	1482.9634	1486.0949	1491.9739	1500.927	1509.2921	2976.9076	2986.9982	3031.3346	3038.4147	3060.7878	3097.3083	3118.292	3139.9731	3178.9582	3193.6992
COC1C2OC2C1C	CO[C@H]1[C@H]2O[C@H]2[C@H]1C	
InChI=1S/C6H10O2/c1-3-4(7-2)6-5(3)8-6/h3-6H,1-2H3	InChI=1S/C6H10O2/c1-3-4(7-2)6-5(3)8-6/h3-6H,1-2H3/t3-,4+,5-,6+/m0/s1
