21
gdb 114036	2.57732	1.24677	1.03292	2.6007	79.15	-0.2373	0.0679	0.3053	1263.5169	0.18104	-424.187265	-424.177704	-424.17676	-424.221414	36.009	
C	-0.1890709591	 1.6243341189	 0.2264930383	-0.423929
C	 0.0186250822	 0.1278151123	 0.1299295223	-0.053275
C	 1.236893778	-0.6220454456	-0.4081628784	-0.250039
C	 2.5545161424	-0.033620213	 0.0795504358	 0.128218
C	 3.137865146	 1.2731220187	-0.4273673634	-0.096319
O	 4.1873902492	 1.7030312714	 0.423627841	-0.422499
O	 2.0415985656	 0.0686685584	 1.4439747199	-0.354066
C	 0.8623373941	-0.6757940682	 1.0681787379	 0.444241
C	 0.4291932259	-1.759126502	 2.0013899885	-0.486727
H	-0.2317570261	 2.0963859051	-0.7607020643	 0.11718
H	-1.1340256088	 1.839038212	 0.737369756	 0.113437
H	 0.610936998	 2.0928872292	 0.8023325203	 0.132189
H	-0.8798533106	-0.4209994063	-0.151042691	 0.088431
H	 1.1481807308	-1.3836524334	-1.1721376634	 0.095076
H	 3.3478255054	-0.7936436818	 0.0710153989	 0.088713
H	 3.5784659077	 1.1107030782	-1.4178049945	 0.107775
H	 2.3617429028	 2.0417202955	-0.5301346702	 0.093274
H	 3.8192063766	 1.7294117777	 1.314715297	 0.293996
H	 0.1166689481	-1.3343663456	 2.9624168926	 0.13213
H	-0.4198703457	-2.3077184165	 1.5837490791	 0.123606
H	 1.2438047776	-2.4644826548	 2.1934732176	 0.128585
76.6013	128.9987	176.0364	196.4154	200.7041	229.085	268.335	331.6416	345.7755	420.0172	474.4975	552.0077	559.4866	668.0648	740.4955	759.4694	855.2428	891.2314	921.1062	961.703	988.4922	1013.9148	1027.2064	1059.673	1087.8648	1113.0974	1122.8093	1131.4462	1158.6805	1204.3882	1219.117	1272.7541	1295.0396	1336.143	1351.3611	1399.2596	1406.3381	1410.0079	1434.5514	1473.3294	1479.4382	1492.7302	1495.3939	1507.234	1512.0032	3010.9214	3028.596	3031.3289	3035.5321	3073.6691	3090.6891	3094.2508	3112.7682	3117.3905	3134.8848	3192.9041	3795.0912
CC1C2C(CO)OC12C	C[C@H]1[C@H]2[C@@H](CO)O[C@@]12C	
InChI=1S/C7H12O2/c1-4-6-5(3-8)9-7(4,6)2/h4-6,8H,3H2,1-2H3	InChI=1S/C7H12O2/c1-4-6-5(3-8)9-7(4,6)2/h4-6,8H,3H2,1-2H3/t4-,5+,6-,7-/m0/s1
