15
gdb 46091	4.89748	1.01707	0.86869	1.2296	72.55	-0.2612	-0.0568	0.2044	1239.0367	0.114905	-416.863364	-416.855684	-416.85474	-416.895853	28.561	
O	-0.0141194634	-0.0387936979	-0.2299359129	-0.366267
C	-0.014253501	 1.1625523622	-0.0403764762	 0.403637
N	-1.1681794233	 1.8785668326	 0.1936227957	-0.349831
C	-1.2194496778	 3.3242830114	 0.0580756073	-0.173731
C	-0.0274776315	 3.9431923585	 0.8177792891	-0.193159
C	 1.2576127702	 3.2362243499	 0.4243224062	-0.060547
C	 1.2369263241	 1.9669402438	 0.0182521138	-0.165283
C	 0.0444393906	 5.3854041055	 0.5745216463	 0.26481
N	 0.0950633407	 6.5227216985	 0.3788230764	-0.309745
H	-2.0168514473	 1.355775923	 0.0311001931	 0.255174
H	-1.1712717053	 3.6443945117	-0.9929859024	 0.132895
H	-2.1600912266	 3.6901808694	 0.4757823571	 0.138337
H	-0.1855700367	 3.8003046879	 1.8973055261	 0.155943
H	 2.1859481801	 3.7903592819	 0.5183406408	 0.136405
H	 2.1408463073	 1.4268233514	-0.2372547903	 0.131362
75.9423	147.1928	186.3036	251.9595	337.6718	398.94	436.2229	506.8136	546.9023	571.4983	612.9948	693.9067	733.4661	809.9426	847.3957	941.5311	995.7153	1011.4769	1044.9866	1077.1112	1124.9473	1183.2091	1249.9014	1280.8578	1293.4084	1336.2332	1387.3115	1404.0432	1468.257	1513.6821	1690.97	1793.6467	2365.3662	2995.6081	3009.2648	3101.6857	3183.8063	3215.8801	3611.2893
O=C1NCC(C=C1)C#N	O=C1NC[C@@H](C=C1)C#N	
InChI=1S/C6H6N2O/c7-3-5-1-2-6(9)8-4-5/h1-2,5H,4H2,(H,8,9)	InChI=1S/C6H6N2O/c7-3-5-1-2-6(9)8-4-5/h1-2,5H,4H2,(H,8,9)/t5-/m0/s1
