19
gdb 91070	3.46281	1.43146	1.38138	1.068	74.02	-0.2537	0.0843	0.338	1026.1139	0.160342	-423.001879	-422.994442	-422.993498	-423.033734	29.655	
C	 0.1166935203	 1.5449459144	 0.0161825431	-0.40744
C	 0.0761968981	 0.0351644476	 0.0071462759	 0.228088
O	 0.7822778166	-0.4784214733	-1.1161435131	-0.278596
C	 1.2070467152	-1.7787553974	-0.7429365532	 0.071285
C	 2.7175204876	-2.0499743558	-0.6975805033	-0.071292
C	 3.4211321814	-0.9955267518	 0.1018454587	-0.293314
C	 2.6713876822	-2.0584844517	 0.8460289238	-0.071291
C	 1.1609407635	-1.7867622546	 0.8043016481	 0.071302
O	 0.714491935	-0.4901690249	 1.1650401174	-0.278608
H	 1.152217869	 1.8920458691	 0.0483727071	 0.132378
H	-0.3633014335	 1.9342389692	-0.8851250783	 0.128992
H	-0.4154015349	 1.9248967409	 0.8918657413	 0.129003
H	-0.9668053108	-0.3309903066	-0.0257239313	 0.064731
H	 0.6250238165	-2.5547106768	-1.2501296905	 0.077245
H	 3.2413700713	-2.7226965736	-1.3642248938	 0.088442
H	 4.5010012563	-1.0941916988	 0.1337728582	 0.113784
H	 3.0590418026	 0.0264445029	 0.0967203353	 0.129635
H	 3.1546484953	-2.7387367822	 1.5353070099	 0.088441
H	 0.5498787482	-2.5676966465	 1.2678157047	 0.077216
104.7907	143.5844	203.2649	298.7857	304.8825	455.0525	492.7516	582.4125	633.3793	684.194	768.7912	769.9871	834.417	849.7329	888.1965	888.4187	928.1727	977.0933	985.7828	1008.5665	1023.4498	1059.2955	1084.3294	1094.348	1097.3204	1126.4188	1128.3339	1156.6514	1188.8468	1232.706	1260.387	1304.8464	1328.0938	1341.4248	1367.0962	1381.4851	1395.8866	1437.0624	1480.6928	1484.1777	1490.58	2927.3933	3048.713	3054.8887	3061.1461	3134.9128	3137.5169	3137.9636	3190.874	3199.9145	3222.9205
CC1OC2C3CC3C2O1	C[C@H]1O[C@H]2[C@H]3C[C@H]3[C@H]2O1	
InChI=1S/C7H10O2/c1-3-8-6-4-2-5(4)7(6)9-3/h3-7H,2H2,1H3	InChI=1S/C7H10O2/c1-3-8-6-4-2-5(4)7(6)9-3/h3-7H,2H2,1H3/t3-,4-,5+,6-,7+
