20
gdb 82947	2.21873	1.80501	1.54024	1.7474	78.19	-0.2128	0.0706	0.2833	1010.3923	0.170509	-403.104038	-403.095653	-403.094709	-403.136508	32.727	
C	-0.3314358153	 1.509610579	 0.0372166038	-0.311608
N	 0.0869804386	 0.1144338202	 0.0872126245	-0.124303
C	 1.3691073923	-0.4019169785	-0.3452708696	-0.093169
C	 2.6330633151	 0.4698907697	-0.373049247	-0.281494
C	 2.9270580211	 0.8383085301	 1.0780871743	 0.038249
O	 1.941074103	 1.6625354099	 1.7093097811	-0.250744
C	 1.8902506623	 0.2490926826	 1.9406840936	-0.025488
C	 0.9043933714	-0.5451669784	 1.088652741	 0.306898
C	 0.3513703137	-1.8125706431	 1.6988156444	-0.478937
H	 0.4798259667	 2.2377834152	-0.0348034692	 0.123829
H	-0.9965205178	 1.6272371179	-0.8261253436	 0.109174
H	-0.9065859822	 1.7434855985	 0.9374859086	 0.122552
H	 1.3221225038	-1.2201123384	-1.0634770724	 0.08344
H	 3.4642749451	-0.1219060515	-0.7723217787	 0.109336
H	 2.5381895685	 1.3579360396	-1.0082187812	 0.119152
H	 3.9490484978	 1.024809405	 1.4016115731	 0.096355
H	 2.0677682848	-0.0593630598	 2.9680487298	 0.0929
H	-0.3186965369	-1.5857007674	 2.5365348904	 0.120363
H	-0.2195975719	-2.3695234813	 0.9528329211	 0.130032
H	 1.15369182	-2.4561247292	 2.0778771359	 0.113465
114.379	180.1269	187.4064	224.5444	259.6587	300.5213	318.8642	386.6027	500.4821	559.798	588.3632	689.184	740.564	769.9757	812.1238	863.4516	866.12	931.5308	945.5942	985.8122	1010.9726	1031.4605	1072.3181	1107.8798	1115.6848	1149.6064	1158.4331	1176.3221	1212.4618	1222.5047	1265.8634	1289.627	1329.4038	1341.843	1405.8836	1415.2899	1431.3771	1462.4303	1472.4153	1487.3486	1491.1029	1494.7177	1500.0161	3026.0707	3027.9937	3041.8614	3079.1927	3084.2003	3092.528	3102.4204	3115.5275	3126.4861	3130.8157	3147.6339
CN1C2CC3OC3C12C	CN1[C@H]2C[C@H]3O[C@H]3[C@@]12C	
InChI=1S/C7H11NO/c1-7-5(8(7)2)3-4-6(7)9-4/h4-6H,3H2,1-2H3	InChI=1S/C7H11NO/c1-7-5(8(7)2)3-4-6(7)9-4/h4-6H,3H2,1-2H3/t4-,5+,6-,7+,8?/m1/s1
