21
gdb 87185	3.44015	0.96872	0.92164	1.8219	79.81	-0.2561	0.0182	0.2743	1408.774	0.178726	-424.261356	-424.250775	-424.249831	-424.297367	37.87	
C	-0.0979432557	 1.4604002561	-0.1015384556	-0.418038
C	 0.1275979317	-0.0321241476	-0.0122325693	-0.051598
C	 1.501085076	-0.6507832259	-0.1955988056	-0.329034
C	 0.8246920327	-0.6959748495	 1.1452066801	 0.450606
C	 1.3516699615	 0.0554178437	 2.3425565684	-0.468466
O	 0.2058304468	-1.9390589044	 1.49414228	-0.289276
C	 1.0137022505	-2.9676142246	 1.8506113577	 0.415329
C	 0.1844091212	-4.1884904217	 2.1752858048	-0.476253
O	 2.2148735312	-2.9061806663	 1.8999597991	-0.351287
H	 0.7651538829	 2.028141743	 0.2579433831	 0.117814
H	-0.2713363714	 1.7586694502	-1.1411071002	 0.121865
H	-0.9701688775	 1.7711403675	 0.484097549	 0.120741
H	-0.6873321198	-0.6316127572	-0.4094452606	 0.093464
H	 1.5840262933	-1.5746805678	-0.755218402	 0.119692
H	 2.3541480912	 0.0128017657	-0.2966217411	 0.114847
H	 1.7398151984	 1.0328427472	 2.0478600672	 0.119551
H	 0.5565767258	 0.2129392032	 3.0792190985	 0.119022
H	 2.1628090806	-0.5052347313	 2.8125543334	 0.149231
H	-0.4426002098	-4.4571761956	 1.3205733769	 0.146572
H	 0.8435036393	-5.0169298038	 2.4317939019	 0.146227
H	-0.4855406987	-3.972626191	 3.0126347044	 0.14899
54.2785	82.956	99.5676	130.8861	175.8199	187.2816	241.1861	258.225	304.8404	393.3918	408.439	431.434	497.0106	611.1203	620.3051	730.8182	795.6052	856.7915	887.5602	923.297	947.3435	977.0199	1026.6807	1039.0566	1053.3771	1062.9388	1121.2057	1126.099	1143.9924	1186.7101	1223.1032	1270.9831	1331.5577	1392.3179	1407.6103	1409.4101	1425.009	1469.1816	1475.6316	1477.2482	1484.6027	1494.7705	1498.7065	1517.5347	1826.1146	3031.5324	3044.3511	3056.5599	3091.9603	3102.9025	3115.8995	3121.2009	3133.1213	3135.9316	3146.4495	3168.4902	3224.1386
CC1CC1(C)OC(C)=O	C[C@H]1C[C@]1(C)OC(=O)C	
InChI=1S/C7H12O2/c1-5-4-7(5,3)9-6(2)8/h5H,4H2,1-3H3	InChI=1S/C7H12O2/c1-5-4-7(5,3)9-6(2)8/h5H,4H2,1-3H3/t5-,7-/m0/s1
