17
gdb 117527	2.34268	1.10713	0.78281	1.3041	70.55	-0.2653	0.0077	0.273	1423.8688	0.134237	-455.178981	-455.168846	-455.167902	-455.215325	34.681	
C	 0.1271225054	 1.3928137378	-0.0476331815	-0.23395
O	-0.0322031959	-0.0063781326	 0.0430585851	-0.236299
C	 0.6919736136	-0.569887218	 1.1060734064	-0.054837
C	 0.472356297	-2.0909974013	 1.0564575324	-0.303027
C	 1.0173037806	-2.6795507263	-0.1648549625	 0.302904
N	 1.4833320904	-3.1942933854	-1.0895245591	-0.336412
C	 1.0104765205	-2.7474385895	 2.3565818569	 0.436628
N	 1.7284098155	-3.8833640712	 2.199207155	-0.541213
O	 0.7549074394	-2.2457767471	 3.4317821605	-0.359106
H	 1.1779629881	 1.6701781945	-0.2210345139	 0.113072
H	-0.4737416007	 1.7314878909	-0.8940765816	 0.136358
H	-0.2197177616	 1.9006842198	 0.8650610095	 0.112336
H	 1.7665284953	-0.3399052902	 1.0231664224	 0.105549
H	 0.3400675805	-0.2139581953	 2.0830250582	 0.132008
H	-0.6121244086	-2.2563684555	 1.0568288845	 0.16796
H	 1.9630668853	-4.2517194005	 1.2924489313	 0.286918
H	 2.0871453752	-4.3335076099	 3.0253860565	 0.27111
36.8478	71.04	96.8836	141.1108	164.597	221.8235	246.1885	314.1032	322.547	368.5149	426.638	516.549	524.7789	607.1138	616.3439	722.6137	851.62	910.6678	1001.1733	1080.1436	1087.6911	1123.2612	1163.2436	1183.0856	1217.5706	1242.4678	1252.6751	1337.6544	1352.5804	1405.9508	1480.911	1487.1373	1503.0991	1530.553	1620.4296	1805.465	2351.6308	2974.4402	2984.0668	3029.0506	3045.4912	3055.6283	3125.6941	3594.7585	3727.4653
COCC(C#N)C(N)=O	COC[C@@H](C#N)C(=O)N	
InChI=1S/C5H8N2O2/c1-9-3-4(2-6)5(7)8/h4H,3H2,1H3,(H2,7,8)	InChI=1S/C5H8N2O2/c1-9-3-4(2-6)5(7)8/h4H,3H2,1H3,(H2,7,8)/t4-/m1/s1
