15
gdb 66271	2.14047	1.64674	1.46758	2.7045	66.57	-0.2712	-0.0112	0.2601	990.1976	0.110633	-457.762854	-457.754391	-457.753447	-457.795916	30.892	
C	-0.1157225329	 1.6527434319	 0.0811154521	-0.432182
C	 0.0600968415	 0.1396924605	 0.0123616072	 0.003989
O	 0.9631380009	-0.199793945	-1.0465874335	-0.255702
C	 1.6414331443	-1.3523936036	-0.6243596133	 0.015662
O	 1.7524841053	-1.2694910724	 0.7995835603	-0.224002
C	 0.8085064786	-0.4100330657	 1.2546397524	 0.434379
O	 0.6338499996	-0.1425487186	 2.4028952409	-0.3332
C	-1.2166176853	-0.5700817512	-0.1285332821	 0.367404
C	-2.2520558107	-1.1677082114	-0.2469245938	-0.485203
H	 0.8638637499	 2.134350664	 0.1250597414	 0.135772
H	-0.6544290344	 2.0089307509	-0.7990180872	 0.140771
H	-0.6814607023	 1.9067763868	 0.9797731613	 0.15653
H	 1.0927102561	-2.2706633728	-0.8762307056	 0.12283
H	 2.6424392833	-1.3596692034	-1.0598886339	 0.140465
H	-3.1720661638	-1.6897157802	-0.3489024362	 0.212487
93.6548	131.1181	179.4575	206.3231	222.3606	249.8863	362.326	414.1319	497.0092	577.9742	624.8594	645.55	680.7717	702.79	753.7294	757.9724	887.5272	927.9827	1002.5612	1067.8703	1131.4149	1145.1283	1175.2926	1190.3831	1231.6482	1247.5608	1401.685	1434.9778	1478.6629	1488.2808	1535.6009	1903.3538	2233.1082	3011.705	3059.2101	3118.2249	3142.7464	3150.0881	3497.2185
CC1(OCOC1=O)C#C	C[C@]1(OCOC1=O)C#C	
InChI=1S/C6H6O3/c1-3-6(2)5(7)8-4-9-6/h1H,4H2,2H3	InChI=1S/C6H6O3/c1-3-6(2)5(7)8-4-9-6/h1H,4H2,2H3/t6-/m0/s1
