22
gdb 107725	3.77394	1.15072	1.08419	1.7013	86.17	-0.2279	0.0849	0.3129	1255.8455	0.193985	-367.162492	-367.153686	-367.152741	-367.195664	34.523	
C	-0.3077571689	 1.4415718015	 0.0431819979	-0.378885
C	 0.1756869189	-0.0110206593	-0.0584827406	-0.293747
C	 0.8995573295	-0.4644922815	 1.1733606652	 0.376966
C	 2.2655272089	-0.0127744809	 1.6982476276	-0.332081
C	 2.1475602617	-1.1775002264	 2.7234049415	 0.298895
C	 3.3618938415	-1.8249790349	 3.3322647656	-0.510479
C	 0.9294780144	-0.7216737894	 3.5488585476	-0.183755
N	 0.0496926105	-0.8954807208	 2.3484856118	-0.185928
C	 1.0651512472	-1.8174563099	 1.7558777063	-0.17488
H	 0.5314587624	 2.1315978701	 0.1821356419	 0.113208
H	-0.8405963874	 1.7436601763	-0.8633856053	 0.109554
H	-0.9850978465	 1.5592210138	 0.8941619849	 0.132012
H	-0.6804815777	-0.6750155434	-0.2215211104	 0.109036
H	 0.8375447879	-0.1267139156	-0.926697942	 0.094221
H	 3.0434842875	-0.2043696793	 0.9527639068	 0.097911
H	 2.3800384194	 1.0015308415	 2.0991863368	 0.089291
H	 3.9097421314	-1.1106452407	 3.9586552972	 0.120849
H	 3.0860497789	-2.6771812642	 3.9632307041	 0.118719
H	 4.0527121834	-2.1868404746	 2.5628979619	 0.118489
H	 0.6247375261	-1.4480917092	 4.3084252159	 0.101131
H	 0.9428092307	 0.2858750207	 3.9839924783	 0.089638
H	 0.8473403201	-2.8174898038	 1.4011614369	 0.089833
77.1059	133.1104	197.2112	216.4293	254.5658	273.2893	351.5456	380.6955	454.0308	479.4697	593.28	626.6345	712.6629	753.9245	791.6857	827.3679	856.591	921.1279	928.714	951.3263	981.1653	988.9281	1007.3317	1042.5107	1054.8776	1070.7991	1120.4569	1141.1133	1144.6131	1173.5073	1193.6868	1226.0017	1251.6371	1269.1194	1323.7354	1335.8157	1361.0803	1406.0868	1413.9061	1428.9192	1475.257	1488.345	1493.5932	1494.937	1498.9559	1509.7222	1515.3702	3017.2286	3021.7648	3023.5099	3030.1419	3036.7095	3067.2643	3084.725	3085.5418	3089.5688	3092.6515	3104.0732	3115.9383	3188.1842
CCC12CC3(C)CN1C23	CC[C@@]12C[C@@]3(C)CN1[C@@H]23	
InChI=1S/C8H13N/c1-3-8-4-7(2)5-9(8)6(7)8/h6H,3-5H2,1-2H3	InChI=1S/C8H13N/c1-3-8-4-7(2)5-9(8)6(7)8/h6H,3-5H2,1-2H3/t6-,7+,8+,9?/m1/s1
