20
gdb 99400	1.8974	1.17642	0.86681	2.8984	86.47	-0.2395	-0.0363	0.2032	1451.6579	0.168655	-399.351704	-399.340713	-399.339769	-399.388412	38.267	
C	-0.0073840505	 1.4200001558	 0.028438518	-0.316792
N	 0.0581437536	-0.0283447972	-0.0172954798	-0.336636
C	 0.7335730395	-0.6553361348	-1.0342765233	 0.308262
N	 1.1932483419	-0.0232221372	-2.0398542446	-0.300241
C	 1.8344638173	-0.7155018992	-3.1489036325	 0.031637
C	 1.0078489872	-0.4825179328	-4.4207615115	-0.369171
C	 3.2618375441	-0.175619204	-3.3044212665	-0.368389
C	 0.8299005532	-2.1016126738	-0.8444585552	 0.229526
N	 0.9225685745	-3.2440817374	-0.691631084	-0.338274
H	 0.9856709076	 1.878901468	 0.1185996571	 0.133788
H	-0.4626622206	 1.79711861	-0.8904447508	 0.153512
H	-0.622262544	 1.7143882414	 0.8809375607	 0.126542
H	-0.0275476127	-0.5343276403	 0.8485282703	 0.26083
H	 1.8923946385	-1.8008685778	-2.9693178586	 0.088517
H	 1.4819851231	-0.9681388053	-5.2795305791	 0.112759
H	-0.0016487472	-0.8892247152	-4.3104445715	 0.115252
H	 0.9227500282	 0.5887171814	-4.6285072677	 0.121273
H	 3.8503692927	-0.3621701163	-2.401372247	 0.113756
H	 3.7643662095	-0.6591195866	-4.1480705574	 0.112507
H	 3.243238364	 0.9043213512	-3.4813679565	 0.12134
36.7423	97.6792	127.6655	132.2434	151.3987	167.3814	221.5425	248.8087	292.6135	329.5254	357.5489	389.9649	464.0287	464.9379	532.383	626.4849	722.6833	763.04	880.6771	931.0388	953.2435	991.8378	1072.4432	1129.3683	1152.5419	1158.0676	1190.2954	1211.1139	1282.839	1353.5897	1390.8968	1392.4518	1412.9211	1454.3287	1473.2518	1481.5526	1485.8407	1493.6578	1504.6468	1509.4046	1536.1655	1709.1307	2342.8775	2975.688	3022.3099	3034.3726	3038.6555	3097.6693	3108.4681	3111.9363	3113.0645	3116.0523	3140.8188	3651.1993
CNC(=NC(C)C)C#N	CNC(=NC(C)C)C#N	
InChI=1S/C6H11N3/c1-5(2)9-6(4-7)8-3/h5H,1-3H3,(H,8,9)	InChI=1S/C6H11N3/c1-5(2)9-6(4-7)8-3/h5H,1-3H3,(H,8,9)
