20
gdb 76914	2.38952	1.26346	1.08516	1.5365	76.49	-0.2192	0.0772	0.2964	1224.8256	0.168419	-440.225545	-440.215862	-440.214917	-440.259979	36.33	
C	-0.1415790699	 1.5394207171	 0.0274215426	-0.440531
C	-0.0113199249	 0.0370381016	-0.0079358175	 0.299464
O	-1.1531908461	-0.6538106263	-0.4563243003	-0.460437
C	 1.3218098523	-0.6270158493	-0.2981784999	 0.032636
O	 2.4806618547	 0.1327191306	-0.4328653605	-0.432322
C	 0.700398578	-0.7349401511	 1.0846537404	-0.07165
N	 1.4052629737	-0.0049250292	 2.1025653436	-0.089729
C	 0.7282967177	 0.2052783622	 3.3816501807	-0.217583
C	 1.8556882243	-0.760115258	 3.2707310449	-0.224221
H	 0.7743456769	 2.0095151897	 0.3876852305	 0.128793
H	-0.3401739667	 1.9238859287	-0.980322812	 0.109002
H	-0.9718658522	 1.8393108144	 0.6744752925	 0.119067
H	-1.23623803	-0.4937445936	-1.4036670596	 0.280919
H	 1.3084423964	-1.5069020768	-0.9361376004	 0.098413
H	 2.6833373446	 0.4558625883	 0.4584696524	 0.290378
H	 0.232226571	-1.6778804025	 1.3708164654	 0.087624
H	 0.8797728567	 1.1778480445	 3.8406195448	 0.122193
H	-0.2733840965	-0.2035037608	 3.4904850524	 0.124499
H	 1.6155890595	-1.8205827671	 3.306396867	 0.121211
H	 2.8401531205	-0.5018841625	 3.6493847632	 0.122273
64.3687	134.1093	142.3775	156.868	221.1671	249.4103	310.7574	318.5174	387.5432	393.7511	474.1428	504.6927	515.8561	616.015	728.779	780.9111	842.317	890.3706	893.0348	919.1118	971.8972	1008.2434	1040.4098	1057.1638	1097.7986	1101.7925	1122.3426	1124.0308	1156.8815	1176.9868	1185.4959	1226.9057	1295.1443	1302.4789	1322.509	1352.1482	1393.2202	1414.3121	1455.3014	1481.2201	1490.8741	1503.6126	1517.9364	3031.4743	3088.0913	3091.8374	3104.0959	3109.4991	3143.0137	3144.8412	3187.0275	3201.8834	3697.7994	3785.0286
CC1(O)C(O)C1N1CC1	C[C@@]1(O)[C@@H](O)[C@H]1N1CC1	
InChI=1S/C6H11NO2/c1-6(9)4(5(6)8)7-2-3-7/h4-5,8-9H,2-3H2,1H3	InChI=1S/C6H11NO2/c1-6(9)4(5(6)8)7-2-3-7/h4-5,8-9H,2-3H2,1H3/t4-,5+,6+/m1/s1
