16
gdb 22695	2.72259	1.30889	1.0228	1.2196	81.13	-0.2405	0.0305	0.271	1170.1675	0.123033	-400.611756	-400.603607	-400.602662	-400.644378	31.472	
O	-0.1150954775	 1.3543004625	 0.0092562351	-0.401505
N	 0.03631783	-0.0562682572	-0.0003835918	-0.318886
C	-1.0821524303	-0.6304323954	 0.0067757729	 0.466174
C	-2.5870940936	-0.4223158161	 0.0221210176	-0.164241
C	-2.6287904918	-1.5561853187	-1.0584445862	-0.257548
C	-1.5797857808	-2.0729451403	 0.0030414184	 0.163744
C	-2.6086179894	-1.568708912	 1.0899888479	-0.257548
C	-0.837666639	-3.2956584722	-0.0110512254	 0.055658
C	-0.2219504539	-4.3281246384	-0.0228677763	-0.343104
H	 0.8023581663	 1.6469825522	 0.002346233	 0.30598
H	-3.1403676217	 0.5110854813	 0.032757069	 0.107881
H	-3.5565397137	-2.1323414579	-1.0999904357	 0.10876
H	-2.2401633015	-1.3206344885	-2.0498648432	 0.121125
H	-2.2014182284	-1.3446884804	 2.0766157367	 0.121125
H	-3.5354864674	-2.14541203	 1.1422287131	 0.10876
H	 0.3276927727	-5.2366613389	-0.0334192651	 0.183622
107.9381	141.7556	167.4105	224.7732	317.0196	387.3638	395.5148	496.0724	502.8643	542.8308	642.3918	646.6408	680.3004	723.5335	740.0991	789.5991	859.9731	930.5839	936.7525	947.4347	1026.5253	1026.8582	1029.42	1100.6782	1136.6287	1138.0843	1197.6966	1201.4135	1230.9866	1314.7189	1408.6924	1491.6641	1528.6634	1827.7707	2242.2372	3063.9684	3065.8333	3144.586	3146.3314	3179.5225	3501.3449	3820.8889
ON=C1C2CC1(C2)C#C	ON=C1[C@H]2C[C@@]1(C2)C#C	
InChI=1S/C7H7NO/c1-2-7-3-5(4-7)6(7)8-9/h1,5,9H,3-4H2	InChI=1S/C7H7NO/c1-2-7-3-5(4-7)6(7)8-9/h1,5,9H,3-4H2/t5-,7+
