14
gdb 133228	3.09903	1.48435	1.01004	5.4787	71.78	-0.2299	-0.0434	0.1865	1091.5689	0.10181	-474.155735	-474.148071	-474.147127	-474.188419	27.755	
C	 0.0667247719	 1.4276967196	 0.0271430786	-0.317451
N	 0.0008647392	-0.0237603199	 0.0072343921	-0.01681
C	-1.1373313485	-0.73216952	-0.1893242655	 0.118208
N	-1.2261855849	-2.018915308	-0.2125351117	-0.346882
C	-0.0541877061	-2.7601773682	-0.0199145136	 0.22981
N	 0.0321532096	-4.0336725692	-0.0143561323	-0.520947
C	 1.1502417466	-1.9384809878	 0.1892543825	 0.323653
F	 2.2886810908	-2.5661050934	 0.3778962745	-0.02387
N	 1.1946651631	-0.6601603043	 0.2050214043	-0.270332
H	 0.7357279229	 1.7855944632	-0.7601281948	 0.157418
H	-0.9342527291	 1.8284885137	-0.1387071344	 0.146208
H	 0.4407610433	 1.7747866216	 0.9941241746	 0.157445
H	-2.0302063356	-0.1275853816	-0.3359325597	 0.138996
H	-0.8995547732	-4.4239004456	-0.1744417645	 0.224555
76.5959	113.0329	174.4592	313.0576	334.8094	345.7107	432.2633	481.0051	543.0645	557.5026	601.5532	697.3663	797.2182	844.8854	908.0731	968.9917	1015.0334	1027.189	1109.4839	1155.1998	1235.3502	1317.6646	1366.4644	1398.2911	1459.8895	1470.5701	1474.9112	1521.6542	1644.5987	1669.8078	1703.6724	3049.2514	3116.747	3148.0919	3157.6228	3458.3592
CN1C=NC(=N)C(F)=N1	CN1CN=C([NH])C(=N1)F	
InChI=1S/C4H5FN4/c1-9-2-7-4(6)3(5)8-9/h2,6H,1H3	InChI=1S/C4H6FN4/c1-9-2-7-4(6)3(5)8-9/h6H,2H2,1H3
