17
gdb 126844	3.07211	1.28128	0.98083	3.428	71.57	-0.2113	0.0087	0.22	1203.4641	0.136642	-451.324514	-451.315357	-451.314413	-451.358855	32.814	
C	-0.0292162973	 1.5905438267	 0.003039636	-0.378849
C	 0.0741617727	 0.0648885895	 0.0312631011	-0.142128
N	 0.683940093	-0.434477848	 1.2533965325	 0.047506
N	 2.0145791188	-0.5264403637	 1.3642533749	-0.17638
N	 2.278719401	-0.9938960837	 2.5672937898	-0.286734
C	 1.1164995681	-1.1740012688	 3.2214655306	 0.31827
O	 1.0376067001	-1.6541075919	 4.4826448412	-0.442154
C	 0.0602205172	-0.8188725963	 2.4069891765	 0.189676
N	-1.3374110951	-0.861998175	 2.5362877023	-0.618122
H	 0.9609378936	 2.0420461415	 0.1041318716	 0.147161
H	-0.4667053084	 1.9176601748	-0.9448819756	 0.1247
H	-0.6628266186	 1.9601498876	 0.8150064626	 0.12005
H	-0.9133078102	-0.3980646207	-0.0400535563	 0.139486
H	 0.6930499557	-0.2953661808	-0.7933860215	 0.13971
H	 1.9413675172	-1.8495889081	 4.7600705542	 0.305494
H	-1.7219976561	 0.0031415095	 2.9048853878	 0.252535
H	-1.6108539718	-1.6085623925	 3.1655252523	 0.25978
52.2684	103.4036	131.3276	203.8275	235.0708	269.0037	302.7263	328.0197	369.3487	428.6959	539.5923	601.1095	687.4016	732.7213	739.2681	783.892	798.2346	848.2441	973.8374	1080.0316	1089.0561	1107.7718	1174.9718	1233.6108	1237.6778	1267.6903	1357.1759	1373.0637	1396.1591	1409.3659	1418.1001	1474.4427	1490.0894	1503.4438	1531.4375	1656.679	1686.382	3044.5616	3074.9749	3111.243	3123.69	3139.0716	3494.4766	3578.5996	3797.0422
CCN1N=NC(O)=C1N	CCn1nnc(O)c1N	
InChI=1S/C4H8N4O/c1-2-8-3(5)4(9)6-7-8/h9H,2,5H2,1H3	InChI=1S/C4H8N4O/c1-2-8-3(5)4(9)6-7-8/h9H,2,5H2,1H3
