17
gdb 128204	5.31194	0.85524	0.76339	3.5838	73.92	-0.2081	0.0125	0.2207	1475.064	0.135789	-455.130668	-455.121452	-455.120507	-455.165541	32.541	
C	-0.119515253	 1.4523695213	-0.0379704266	-0.330541
N	 0.0178513054	 0.0038477097	 0.0244033961	-0.391756
C	-1.0815216002	-0.8045093638	 0.0410038885	 0.542048
C	-1.2629043989	-2.1281842381	 0.3501397089	-0.474756
C	-2.6424663883	-2.3325815872	 0.0925216169	 0.371982
C	-3.4237112935	-3.6063026831	 0.2427006	-0.166917
O	-2.7811555762	-4.7107369034	-0.3775384228	-0.412568
N	-3.2470926977	-1.2503341796	-0.3401825181	-0.230037
O	-2.2382836231	-0.257241218	-0.3614527897	-0.22281
H	 0.8751701315	 1.8901344067	-0.1422210109	 0.130533
H	-0.7109811269	 1.7265413115	-0.9136628575	 0.159661
H	-0.605479058	 1.8789889404	 0.8501925497	 0.129926
H	 0.7903343753	-0.3427081191	 0.570269452	 0.254906
H	-0.5358948299	-2.8432847468	 0.6939265853	 0.112119
H	-3.5015574462	-3.8724656484	 1.3022848674	 0.124155
H	-4.4415222838	-3.4443590301	-0.1367587607	 0.116086
H	-2.6867373566	-4.501612042	-1.3128386387	 0.287967
48.106	79.9296	121.1195	154.0245	197.1228	244.8985	317.6055	384.9942	418.8244	456.8397	514.9632	640.8305	696.4539	719.1759	742.0618	781.1818	907.3537	975.5581	996.4705	1016.1409	1072.083	1078.7492	1143.6829	1157.1615	1197.1135	1207.2415	1353.7688	1368.5025	1414.1671	1433.4596	1458.6418	1487.3201	1496.0679	1503.7642	1518.1916	1557.6842	1663.4737	3011.2437	3019.6391	3074.8436	3101.4133	3142.0719	3282.7825	3635.9622	3811.5934
CNC1=CC(CO)=NO1	CNc1cc(CO)no1	
InChI=1S/C5H8N2O2/c1-6-5-2-4(3-8)7-9-5/h2,6,8H,3H2,1H3	InChI=1S/C5H8N2O2/c1-6-5-2-4(3-8)7-9-5/h2,6,8H,3H2,1H3
