20
gdb 51474	3.38194	0.96337	0.94101	3.5048	79.4	-0.2299	-0.019	0.211	1341.8824	0.17109	-403.136508	-403.127882	-403.126938	-403.171523	31.762	
O	 1.9432431628	-0.6123429934	 0.2208480566	-0.245023
C	 1.6125217389	 0.3911588085	-0.3537306616	 0.158326
C	 1.9117617058	 1.7992037931	 0.1531899152	-0.237152
N	 1.7666345223	 2.7573123343	-0.9273458215	-0.109982
C	 1.3895786281	 4.1542523633	-0.7450410502	-0.024793
C	 1.5200239081	 4.8048994412	 0.6228742446	-0.228981
C	 2.9735558073	 4.5308253755	 1.0883530588	-0.220636
C	 3.7792068265	 4.1906817216	-0.1928092237	-0.230314
C	 2.7527241549	 3.7862384719	-1.240344027	-0.027347
H	 1.0469128979	 0.3747595583	-1.31172626	 0.086949
H	 1.1937353015	 2.0012927893	 0.9617907795	 0.131501
H	 2.907731093	 1.7783288575	 0.6124292776	 0.129485
H	 0.5988052571	 4.5024213919	-1.4055810403	 0.088382
H	 1.3369760538	 5.8794317287	 0.507118679	 0.107517
H	 0.7778359879	 4.4398846148	 1.3422317367	 0.104353
H	 3.3976149329	 5.3894717432	 1.6148671391	 0.103185
H	 2.9983009149	 3.6961855531	 1.7927277488	 0.110201
H	 4.3159275512	 5.0701075841	-0.5665755324	 0.10767
H	 4.5361625664	 3.4181296358	-0.015125489	 0.107632
H	 3.0360068385	 3.8490588673	-2.2883800102	 0.089027
23.3473	63.7316	131.1406	195.5207	220.5921	291.5029	429.2582	459.5662	508.3753	649.909	703.0826	733.776	779.6623	802.7422	807.5018	884.3397	896.8668	929.5663	966.0659	1030.5696	1047.7937	1050.6055	1061.7787	1104.5923	1121.4263	1139.4028	1185.7511	1214.2006	1255.3395	1262.6654	1303.5226	1310.5409	1322.6047	1325.6861	1343.4846	1360.5726	1393.6864	1420.3532	1440.4438	1487.455	1491.3351	1514.8542	1837.2003	2894.9605	2999.5155	3034.3783	3036.4081	3053.7219	3062.8662	3067.8303	3072.0992	3109.5013	3127.7987	3138.4231
O=CCN1C2CCCC12	O=CCN1[C@H]2CCC[C@@H]12	
InChI=1S/C7H11NO/c9-5-4-8-6-2-1-3-7(6)8/h5-7H,1-4H2	InChI=1S/C7H11NO/c9-5-4-8-6-2-1-3-7(6)8/h5-7H,1-4H2/t6-,7+,8?
