21
gdb 81356	2.47371	1.44496	1.32417	1.821	77.42	-0.2417	0.06	0.3017	1114.7738	0.182562	-424.20639	-424.197589	-424.196645	-424.239221	34.396	
C	-0.0534613256	 1.5573690265	 0.0617164963	-0.427647
C	-0.0453468468	 0.036163434	 0.0445803741	 0.028194
C	 0.8173654794	-0.6126614831	-1.0706922045	 0.053182
O	 2.0065929992	-0.3693301338	-0.24564981	-0.308339
C	 1.0893048248	-0.6316997941	 0.8585532532	 0.058458
C	 0.8221930756	-2.1400721174	 0.6848929971	 0.083071
O	-0.325667844	-2.5024645604	 1.431870564	-0.428725
C	 0.6466937856	-2.1364554805	-0.8855561742	-0.01734
C	-0.6431139959	-2.7565360895	-1.4151387034	-0.422565
H	 0.9564101185	 1.9518235814	-0.0766803051	 0.133644
H	-0.690074846	 1.953581998	-0.7369258199	 0.111264
H	-0.4445977882	 1.9351763557	 1.012400369	 0.114698
H	-1.0460175835	-0.3745157918	 0.1964712323	 0.085228
H	 0.884698881	-0.2082022025	-2.082472163	 0.071414
H	 1.4291697661	-0.2722779093	 1.8302595007	 0.076077
H	 1.6929733939	-2.7303780507	 0.9944727457	 0.071414
H	-0.4463588506	-3.4539591296	 1.3624074174	 0.287628
H	 1.5060685213	-2.629177183	-1.3507400512	 0.077774
H	-1.5317144096	-2.3125495303	-0.9604256786	 0.130757
H	-0.714181637	-2.6294963098	-2.500641155	 0.115734
H	-0.6747772682	-3.8338440798	-1.2157905552	 0.106077
137.6304	180.6407	187.9655	230.9418	248.2047	255.4097	275.4965	331.3701	395.6329	530.612	538.2731	565.7968	699.5194	790.7126	807.3994	854.6888	868.9174	901.2178	931.1746	960.3169	1006.2611	1033.718	1056.8398	1067.4734	1096.601	1101.9794	1129.5969	1144.4505	1180.4324	1214.5118	1231.1248	1245.7555	1269.9087	1296.46	1318.7631	1330.7373	1359.8868	1400.7548	1406.3895	1408.468	1423.1717	1495.284	1496.3468	1502.1189	1505.9732	3025.6188	3032.7373	3033.7249	3058.3619	3087.8109	3088.4899	3092.4769	3102.8562	3120.1323	3122.8872	3125.0059	3830.59
CC1C2OC1C(O)C2C	C[C@H]1[C@H]2O[C@@H]1[C@@H](O)[C@H]2C	
InChI=1S/C7H12O2/c1-3-5(8)7-4(2)6(3)9-7/h3-8H,1-2H3	InChI=1S/C7H12O2/c1-3-5(8)7-4(2)6(3)9-7/h3-8H,1-2H3/t3-,4+,5+,6+,7+/m1/s1
