18
gdb 122769	5.93766	0.53082	0.49322	4.0509	75.61	-0.2657	-0.0864	0.1793	2126.9499	0.144432	-439.094815	-439.084386	-439.083442	-439.131969	34.635	
C	-0.0037238606	 1.4109584909	-0.007394135	-0.230408
O	 0.0061563911	 0.0029016161	-0.0037164399	-0.229378
C	 0.6468543823	-0.5460470119	-1.1302975567	-0.058328
C	 0.596468186	-2.0641892472	-1.0113388187	-0.206029
C	 1.2712362536	-2.7511854817	-2.1964341508	-0.312678
C	 1.2375385429	-4.2587656077	-2.1107810021	 0.286962
O	 0.741290711	-4.8994815028	-1.2203195241	-0.258393
C	 1.8864282214	-4.9516304983	-3.2496994372	 0.229052
N	 2.3959519198	-5.4779880863	-4.1443035105	-0.293703
H	 1.0163773596	 1.8268076342	-0.0062785591	 0.105446
H	-0.5367743712	 1.8137188342	-0.8832917027	 0.105437
H	-0.5186579027	 1.7360196973	 0.8995354797	 0.131756
H	 0.1489487425	-0.2141835699	-2.059257372	 0.085865
H	 1.6936991892	-0.19727058	-1.1890166226	 0.085836
H	 1.0801602526	-2.3687919265	-0.0783052212	 0.130889
H	-0.4468963432	-2.3856109505	-0.9381352866	 0.130962
H	 0.8078075746	-2.4686332168	-3.153218098	 0.148362
H	 2.325469421	-2.4539420729	-2.2976993224	 0.148348
50.3764	56.3923	79.2417	119.2973	127.4092	167.6729	233.9213	236.8915	275.5001	348.634	424.3335	524.5002	571.8117	611.808	760.9099	821.6155	875.1705	985.1468	1043.7216	1062.1912	1104.2152	1105.7003	1167.0745	1178.7031	1219.5479	1226.7816	1292.1745	1293.599	1308.8021	1388.674	1432.0454	1443.6905	1482.2644	1485.9356	1493.3224	1505.2207	1532.7492	1802.5253	2337.2901	2936.3742	2960.5543	2971.0589	3011.2829	3014.4454	3037.7694	3063.8011	3107.6484	3118.5
COCCCC(=O)C#N	COCCCC(=O)C#N	
InChI=1S/C6H9NO2/c1-9-4-2-3-6(8)5-7/h2-4H2,1H3	InChI=1S/C6H9NO2/c1-9-4-2-3-6(8)5-7/h2-4H2,1H3
