14
gdb 25738	2.82412	1.59299	1.0194	2.3593	68.15	-0.211	-0.0265	0.1845	1071.9398	0.102556	-470.079226	-470.071125	-470.070181	-470.11184	29.993	
N	-0.0715493241	 1.3673104253	-0.0775600888	-0.549632
C	 0.0497524678	 0.00803581	-0.0078742541	 0.326392
O	 1.1367865687	-0.5684155525	-0.0124104229	-0.403915
C	-1.175356679	-0.7601155159	 0.039822876	 0.173743
C	-1.3533802696	-2.1228469454	 0.0710827389	 0.260274
N	-0.4055202568	-3.0907674047	 0.1617026216	-0.591853
N	-2.7105014893	-2.4053276198	 0.051088237	-0.309849
C	-3.2747196871	-1.238081584	 0.018175408	 0.07119
O	-2.4433624227	-0.1880547652	 0.012651828	-0.200452
H	 0.7703913516	 1.9109412538	 0.0138330903	 0.262558
H	-0.9577982042	 1.8147834143	 0.0820987607	 0.265115
H	 0.5352069785	-2.7701629203	-0.0254586753	 0.279487
H	-0.664866031	-4.0094407394	-0.1587511821	 0.261522
H	-4.3323130528	-1.0231686264	-0.0040018873	 0.155421
104.9263	160.4471	165.8925	219.2524	313.6017	326.0938	400.4249	438.3977	513.1453	533.7252	577.4094	627.4585	674.1677	724.402	745.7326	789.7019	861.7889	948.6922	1030.0767	1081.4477	1166.9589	1188.5208	1195.1272	1327.6435	1380.1856	1486.6523	1542.0449	1590.8397	1613.7648	1685.0914	1737.3722	3268.8455	3556.9462	3604.0573	3696.8737	3739.1817
NC(=O)C1=C(N)N=CO1	NC(=O)c1c(N)nco1	
InChI=1S/C4H5N3O2/c5-3-2(4(6)8)9-1-7-3/h1H,5H2,(H2,6,8)	InChI=1S/C4H5N3O2/c5-3-2(4(6)8)9-1-7-3/h1H,5H2,(H2,6,8)
