17
gdb 66125	2.72534	1.47324	1.32009	3.5974	71.46	-0.2505	0.0043	0.2548	1023.8131	0.136834	-417.992679	-417.984714	-417.98377	-418.025013	30.749	
O	-0.059484346	 1.3520915749	-0.0071879378	-0.456639
C	 0.0265133172	-0.0624538318	 0.0108148628	 0.254158
C	 0.6682554227	-0.6455467468	 1.3049423571	-0.316869
C	-0.1216128021	-1.944961265	 1.560694695	-0.161147
N	-1.4560376269	-1.8010775214	 0.9419853164	-0.089455
C	-2.1372130286	-0.5467751985	 1.287242449	-0.263133
C	-1.3811302111	-0.6615936564	 0.015648011	-0.02676
C	 0.7604951447	-0.531570184	-1.185978969	 0.231903
N	 1.3630073646	-0.8753922699	-2.1105156307	-0.33353
H	 0.8268061036	 1.7132227459	-0.1242271766	 0.294598
H	 1.7413436583	-0.816679535	 1.2014868069	 0.126181
H	 0.5215865012	 0.0948895447	 2.0950263111	 0.126076
H	 0.367143915	-2.7957342221	 1.0757333788	 0.129417
H	-0.2206362976	-2.1790209275	 2.6245687622	 0.118491
H	-3.2208325413	-0.6009086999	 1.2597769183	 0.128097
H	-1.7364508312	 0.0836801228	 2.0758111355	 0.123441
H	-1.8908042024	-0.75012477	-0.93761036	 0.115172
96.525	148.1889	207.2332	269.5578	302.6591	350.1985	405.4914	465.8406	484.5982	557.6347	647.0946	662.5958	704.2889	790.9592	829.7669	877.8305	950.9397	958.78	973.5005	1003.0055	1080.207	1086.4362	1108.9107	1133.605	1143.697	1183.2477	1219.3619	1239.757	1273.0403	1307.583	1328.6381	1366.7013	1401.2493	1484.707	1498.6215	1517.9662	2350.4407	3054.2389	3073.5843	3097.9361	3119.961	3127.504	3172.0359	3205.5169	3801.6248
OC1(CCN2CC12)C#N	O[C@]1(CCN2C[C@@H]12)C#N	
InChI=1S/C6H8N2O/c7-4-6(9)1-2-8-3-5(6)8/h5,9H,1-3H2	InChI=1S/C6H8N2O/c7-4-6(9)1-2-8-3-5(6)8/h5,9H,1-3H2/t5-,6+,8?/m0/s1
