15
gdb 124758	2.68503	1.29463	1.0599	1.8847	64.6	-0.2461	-0.0452	0.201	1144.2572	0.110726	-491.054154	-491.045426	-491.044482	-491.088221	31.312	
C	 0.1190812468	 1.6325889465	-0.1182942625	-0.406314
C	-0.047020683	 0.1118512879	-0.0298375537	 0.006654
O	 0.4254209408	-0.5425054584	-1.2022934524	-0.417499
C	 0.5932566353	-0.4563874416	 1.1995512649	 0.333617
C	 0.1467131443	-1.1853742395	 2.2595339584	 0.2298
O	-1.1014308435	-1.6008309595	 2.5310091928	-0.424
N	 1.2160840033	-1.4493214133	 3.0695712901	-0.201032
N	 2.2693331709	-0.9415746822	 2.5797214001	-0.015169
O	 1.917423336	-0.2906460813	 1.3832862065	-0.227337
H	 1.1795091735	 1.9049120233	-0.1359790342	 0.129421
H	-0.3526412524	 1.995590594	-1.0345546265	 0.132836
H	-0.3427214807	 2.1295260278	 0.740198862	 0.129241
H	-1.110939743	-0.1385604629	 0.0251125125	 0.123059
H	 1.3700806517	-0.3649943979	-1.2781300966	 0.290202
H	-1.0709661599	-2.1101626829	 3.3499718687	 0.316522
38.2509	130.0277	155.1834	242.3944	277.6061	280.1768	316.2812	329.1687	421.1614	459.5311	546.2705	642.6106	699.4057	726.2552	752.2433	798.7599	902.0358	1004.3734	1032.0702	1074.9836	1105.5981	1134.2823	1212.2876	1284.0042	1306.0004	1374.3428	1402.267	1407.873	1429.4621	1451.2046	1489.5618	1495.4686	1713.1079	3040.5143	3074.3859	3114.4172	3130.3464	3800.1407	3809.0223
CC(O)C1=C(O)N=NO1	C[C@@H](O)c1c(O)nno1	
InChI=1S/C4H6N2O3/c1-2(7)3-4(8)5-6-9-3/h2,7-8H,1H3	InChI=1S/C4H6N2O3/c1-2(7)3-4(8)5-6-9-3/h2,7-8H,1H3/t2-/m1/s1
