17
gdb 123741	4.91747	1.03405	0.9295	0.9907	73.43	-0.2834	-0.0218	0.2616	1254.8989	0.138105	-418.000654	-417.99321	-417.992266	-418.033874	27.444	
C	 0.0202574781	 1.5957367087	-0.045292732	-0.215605
C	 1.5598926731	 1.4668122112	 0.1005748912	-0.21868
C	 1.3418835089	-0.0077756439	 0.5775018171	-0.079529
C	-0.0751897877	 0.0459551613	-0.0542140234	-0.232092
C	 2.3126036069	-1.0386315031	 0.1281399189	 0.363355
N	 2.0948297531	-1.8367589269	-0.8855414431	-0.183585
O	 3.2685482634	-2.6020429365	-0.9651965552	-0.153938
C	 4.0548609333	-2.1678723924	 0.0189421964	 0.104097
N	 3.5473974833	-1.2174239887	 0.7331690473	-0.312074
H	-0.4363913945	 2.0269482928	 0.8501328834	 0.105277
H	-0.3583915499	 2.1292279516	-0.9192551919	 0.103256
H	 2.0634253269	 1.4934217605	-0.8695261104	 0.112526
H	 2.076527354	 2.1403593746	 0.7867393945	 0.108458
H	 1.2924163898	-0.0362210542	 1.6698409939	 0.09974
H	-0.8861147254	-0.4239911518	 0.5058881575	 0.10334
H	-0.0676309352	-0.3590697601	-1.0683510767	 0.13069
H	 5.018946242	-2.6442335133	 0.1239817526	 0.164766
35.9523	109.3555	145.5209	227.1787	370.8846	420.6817	558.4346	630.8707	709.9146	763.0337	796.9577	862.8359	905.1278	906.9576	922.3779	935.8542	956.7564	984.3233	990.2078	1040.3221	1051.6592	1128.3508	1149.142	1205.7704	1234.5836	1250.3029	1259.0821	1261.9338	1281.5942	1290.9029	1320.123	1409.7413	1479.7785	1488.5179	1510.5039	1524.1223	1597.4441	3061.2364	3064.8346	3069.6832	3075.1081	3109.8911	3124.6144	3134.8868	3263.5783
C1CC(C1)C1=NOC=N1	C1CC(C1)c1nocn1	
InChI=1S/C6H8N2O/c1-2-5(3-1)6-7-4-9-8-6/h4-5H,1-3H2	InChI=1S/C6H8N2O/c1-2-5(3-1)6-7-4-9-8-6/h4-5H,1-3H2
