21
gdb 36851	4.06227	0.96841	0.88052	1.7506	83.11	-0.2443	0.0889	0.3331	1384.5305	0.182714	-387.039006	-387.030486	-387.029542	-387.072993	32.513	
C	-0.0940950749	 1.5973783276	 0.0824630262	-0.360717
C	-0.1793739246	 0.1132310746	 0.3644091017	 0.112315
C	-1.2620932719	-0.7271206799	-0.159251438	-0.18456
O	 0.0385474053	-0.7596278994	-0.7500047684	-0.234168
C	 1.3286176802	 2.070750074	-0.0543590986	 0.403796
C	 2.1800368199	 2.4686842621	 1.1231495764	-0.319508
C	 1.926620106	 3.4789786283	 0.035348336	-0.118691
C	 2.8397437667	 3.1937580365	-1.1623970387	-0.220529
C	 2.2405042373	 1.7515121614	-1.2512135827	-0.275089
H	-0.6552172039	 1.8086009335	-0.8369021092	 0.099376
H	-0.590727416	 2.1416594985	 0.896974121	 0.098355
H	 0.3200228915	-0.2142756812	 1.2782101681	 0.09244
H	-1.5578314089	-1.6301533325	 0.3732899936	 0.112099
H	-2.0421597894	-0.2753832331	-0.7715349707	 0.110565
H	 1.6404025122	 2.6415308178	 2.0499272133	 0.103242
H	 3.1741430418	 2.04704642	 1.2610018438	 0.101777
H	 1.4283236302	 4.4193129892	 0.2432642889	 0.080131
H	 2.5998176803	 3.7955167672	-2.0418720313	 0.100901
H	 3.9152824576	 3.2732284728	-0.9709518113	 0.093612
H	 2.9309311568	 0.9128933451	-1.1179026087	 0.09747
H	 1.6796747638	 1.5896165375	-2.1743947813	 0.107185
55.6205	68.2526	125.1829	231.8404	280.7696	343.3343	371.3146	432.7631	450.0801	676.3537	728.6742	779.2815	785.6664	839.84	867.2329	885.6137	920.1686	932.2491	953.424	967.9595	971.1494	1020.6122	1028.5587	1069.9475	1083.8095	1096.3832	1129.4488	1151.6915	1156.8089	1168.1436	1203.993	1220.1863	1243.4111	1264.4106	1272.5275	1293.122	1321.6335	1326.7252	1401.695	1444.2517	1461.268	1482.4802	1485.8578	1512.5012	1530.1148	3012.7274	3041.6013	3053.4787	3054.5917	3079.0227	3094.9772	3095.8698	3097.2811	3114.6559	3164.4655	3169.303	3187.7725
C(C1CO1)C12CC1CC2	C([C@H]1CO1)[C@]12C[C@H]1CC2	
InChI=1S/C8H12O/c1-2-8(3-6(1)8)4-7-5-9-7/h6-7H,1-5H2	InChI=1S/C8H12O/c1-2-8(3-6(1)8)4-7-5-9-7/h6-7H,1-5H2/t6-,7+,8+/m1/s1
