18
gdb 79807	4.13251	1.43952	1.22441	1.0436	76.73	-0.2155	0.0146	0.23	1022.6061	0.149597	-401.876188	-401.869262	-401.868318	-401.907045	28.842	
O	 0.0341301833	 1.4623385218	-0.1432911451	-0.433945
C	 0.0501948365	 0.0679915498	-0.0169966361	 0.132032
C	-0.0778731126	-0.5945949643	 1.3868580311	-0.083637
C	-1.536964257	-0.0391482904	 1.487079025	-0.039944
C	-2.4669012819	-0.8191800906	 2.3646390039	-0.095961
C	-2.4011503403	-2.1470598559	 2.3234589871	-0.072896
C	-1.3917571095	-2.7669353044	 1.3935387431	-0.214256
N	-0.5805720146	-1.812911451	 0.6238748962	-0.146944
C	-1.3277058412	-0.614893853	 0.044893167	-0.055941
H	 0.933590801	 1.7835008762	-0.0296390931	 0.288903
H	 0.7680463577	-0.4259620358	-0.6794880453	 0.081761
H	 0.6643591174	-0.6870375938	 2.183120449	 0.073108
H	-1.6373087566	 1.0431263781	 1.5616039948	 0.083663
H	-3.1651627119	-0.2888846941	 3.004539926	 0.087465
H	-3.03604186	-2.7936780597	 2.9222882044	 0.089109
H	-0.6975063053	-3.4100455267	 1.9524875761	 0.113473
H	-1.8895826452	-3.4301734933	 0.6722224137	 0.114361
H	-2.0687472899	-0.7298760328	-0.7483266478	 0.079649
222.0388	236.5233	237.6935	282.8242	410.7435	472.2149	486.9939	561.5037	624.4591	674.471	752.4836	784.1539	802.2849	829.3969	904.9968	909.9995	928.9196	981.6513	982.3319	1022.3839	1039.1985	1080.6337	1087.8031	1121.8798	1123.0796	1165.3139	1177.7457	1183.934	1196.6399	1250.6152	1254.106	1272.206	1296.7504	1357.369	1361.401	1403.3272	1428.3558	1466.5356	1714.981	3005.4044	3029.1432	3061.917	3087.0882	3100.3829	3118.4531	3160.2502	3184.5151	3828.38
OC1C2C3C=CCN2C13	O[C@H]1[C@H]2[C@@H]3C=CCN2[C@H]13	
InChI=1S/C7H9NO/c9-7-5-4-2-1-3-8(5)6(4)7/h1-2,4-7,9H,3H2	InChI=1S/C7H9NO/c9-7-5-4-2-1-3-8(5)6(4)7/h1-2,4-7,9H,3H2/t4-,5+,6-,7-
