18
gdb 7105	7.06993	0.86195	0.77931	4.4721	71.14	-0.2504	-0.0187	0.2317	1446.0517	0.153432	-381.163789	-381.154674	-381.153729	-381.198356	31.732	
C	 0.155020716	 1.5261994153	-0.0288029592	-0.38802
C	 0.2036425555	-0.0034930496	-0.016259023	-0.15322
C	-1.1896372678	-0.6299136507	 0.0329572252	-0.274572
C	-1.188765089	-2.1442878383	 0.0459239101	 0.381909
N	-0.119646104	-2.8222547683	 0.0147908034	-0.496552
N	-2.5041344372	-2.6781031898	 0.0956432373	-0.33828
C	-2.8614966066	-4.0019750995	 0.1184353251	 0.168221
O	-2.1012887174	-4.9439280519	 0.099755503	-0.299687
H	 1.1631168092	 1.9497693627	-0.0640979582	 0.117577
H	-0.3932168448	 1.9039091136	-0.8996056283	 0.110971
H	-0.3381937134	 1.9201991199	 0.8673180372	 0.110937
H	 0.7287137026	-0.3760252453	-0.9011297813	 0.119536
H	 0.7830612734	-0.3598888815	 0.8409504261	 0.119298
H	-1.7319856404	-0.2758267794	 0.922830808	 0.111954
H	-1.7868008083	-0.2912406988	-0.8273508033	 0.112195
H	-0.3207035276	-3.8223741119	 0.0299865878	 0.251771
H	-3.2637259652	-2.0136459622	 0.1164846115	 0.254287
H	-3.9618632249	-4.1223246444	 0.1572589884	 0.091675
57.884	65.3134	122.8431	137.551	247.3252	253.5373	256.8415	335.1149	390.2815	537.7571	554.935	605.0245	747.9732	808.0292	883.5825	907.8461	938.318	979.1827	1025.8327	1036.9862	1053.8798	1129.6001	1132.6347	1190.4066	1256.6974	1281.7905	1327.3661	1352.3393	1412.1571	1416.3076	1440.7957	1468.6188	1486.5557	1501.1703	1506.8844	1508.9265	1740.7654	1814.639	2942.7536	2994.2825	3020.2067	3026.9915	3060.1758	3078.1852	3105.3908	3106.098	3489.9395	3611.0476
CCCC(=N)NC=O	CCCC(=N)NC=O	
InChI=1S/C5H10N2O/c1-2-3-5(6)7-4-8/h4H,2-3H2,1H3,(H2,6,7,8)	InChI=1S/C5H10N2O/c1-2-3-5(6)7-4-8/h4H,2-3H2,1H3,(H2,6,7,8)
