18
gdb 83188	3.15562	1.29971	1.13074	5.0998	71.36	-0.2274	0.0421	0.2695	1107.8114	0.149891	-439.108045	-439.100077	-439.099132	-439.140727	30.914	
O	-0.0429259124	 1.4238830512	-0.0804831359	-0.405917
C	 0.020179744	 0.0308246004	-0.0194435543	 0.071913
C	-0.4070961751	-0.6947075418	 1.241429165	-0.088321
C	-0.9528611259	 0.0912805073	 2.4223015322	-0.190896
N	-2.3984409093	-0.077165992	 2.5346352299	-0.299256
C	-3.2672169549	-0.0112753758	 1.480643373	 0.393291
O	-4.4753175795	-0.0125401812	 1.6298463093	-0.380238
C	-2.6013378241	 0.0758470828	 0.109176648	-0.346249
C	-1.2915892869	-0.6967674714	 0.0059222958	-0.071358
H	 0.7401339595	 1.783923737	 0.3494250045	 0.293339
H	 0.8281016533	-0.4137256611	-0.5991438275	 0.090813
H	 0.1145994706	-1.6140501434	 1.4849587969	 0.092174
H	-0.501009608	-0.2639861691	 3.3521517459	 0.113392
H	-0.690261944	 1.1534312819	 2.3197961773	 0.106761
H	-2.8313086006	-0.0236585962	 3.4442289268	 0.244601
H	-3.3315428736	-0.2763650887	-0.6203722768	 0.129108
H	-2.4240370765	 1.1373167115	-0.0993099142	 0.148339
H	-1.3398420166	-1.6218518413	-0.5579871362	 0.098503
65.8267	137.071	214.0771	273.9082	298.2712	426.371	444.9961	468.378	491.3805	569.8061	603.6923	637.9992	730.8843	782.9406	792.4792	862.5351	892.4411	954.9117	980.2827	1011.292	1050.9116	1100.6384	1116.6413	1130.7216	1153.6747	1217.1437	1240.7113	1278.5341	1289.5711	1303.8158	1320.7203	1368.1823	1378.555	1382.938	1451.3387	1469.1094	1471.1251	1512.6031	1794.2719	3002.0008	3053.1676	3081.6645	3106.8073	3125.0499	3157.4889	3168.9722	3622.5462	3806.1825
OC1C2CNC(=O)CC12	O[C@H]1[C@H]2CNC(=O)C[C@@H]12	
InChI=1S/C6H9NO2/c8-5-1-3-4(2-7-5)6(3)9/h3-4,6,9H,1-2H2,(H,7,8)	InChI=1S/C6H9NO2/c8-5-1-3-4(2-7-5)6(3)9/h3-4,6,9H,1-2H2,(H,7,8)/t3-,4+,6-/m1/s1
