18
gdb 67979	3.09172	1.73819	1.2919	3.183	77.55	-0.2516	0.0233	0.275	996.3226	0.149354	-401.928208	-401.921149	-401.920205	-401.95932	28.981	
C	 0.0420261855	 1.4933047983	-0.1307096955	-0.499178
C	 0.0244738265	-0.0000913524	 0.0324988579	 0.461525
O	 0.4390540894	-0.6419271452	-1.1966916939	-0.302225
C	 0.3698740431	-1.9792914689	-0.8858250326	 0.414783
N	 0.6388857729	-2.951042623	-1.64279251	-0.563614
C	-0.0919725463	-1.9804599875	 0.5359356111	-0.129031
C	 0.6498977386	-0.7804369233	 1.232571246	-0.103948
C	-0.6240531248	-0.5062707197	 2.0659308082	-0.271498
C	-1.1523355621	-0.8233082617	 0.6471288412	-0.103978
H	 1.0488826372	 1.8361827885	-0.3863393398	 0.136258
H	-0.6337726201	 1.7957295623	-0.9360031633	 0.136293
H	-0.2704800628	 1.9928536579	 0.7891631095	 0.129443
H	 0.930167304	-2.6171453333	-2.5638491598	 0.221801
H	-0.2353927747	-2.9284168984	 1.04684357	 0.095667
H	 1.6921807522	-0.766502382	 1.5539330407	 0.085538
H	-0.8561312748	-1.2463110819	 2.834526	 0.106802
H	-0.7718043069	 0.5069175169	 2.4466042645	 0.099818
H	-2.1840406369	-0.8587339165	 0.2947816358	 0.085543
163.0955	199.0069	269.7073	291.7649	359.0572	441.1037	516.5905	610.8809	636.2372	665.1828	719.3433	808.6942	817.4271	888.8539	895.4727	902.4979	905.8828	928.1187	948.1307	1010.1207	1041.7737	1051.2532	1076.3283	1080.3946	1120.2908	1159.7252	1163.1039	1178.7379	1201.2545	1236.7274	1250.1855	1281.6976	1324.3398	1350.2469	1420.0603	1479.4026	1494.8398	1526.4113	1802.6427	3048.7319	3066.7792	3108.1237	3111.7414	3115.5301	3124.9215	3132.168	3169.774	3464.5007
CC12OC(=N)C3C1CC23	C[C@@]12O[C]([NH])[C@H]3[C@@H]1C[C@@H]23	
InChI=1S/C7H9NO/c1-7-3-2-4(7)5(3)6(8)9-7/h3-5,8H,2H2,1H3	InChI=1S/C7H9NO/c1-7-3-2-4(7)5(3)6(8)9-7/h3-5,8H,2H2,1H3/t3-,4+,5-,7+
