15
gdb 52030	2.91215	0.81475	0.66262	1.7193	69.51	-0.2637	-0.0503	0.2134	1585.7462	0.106454	-457.716128	-457.706001	-457.705056	-457.753305	33.247	
O	-0.8637193454	 0.8393705597	 0.7339570519	-0.232699
C	-0.1388892941	 1.1362673189	-0.1766759032	 0.142401
C	 0.9404284279	 2.1996825868	-0.0707310382	-0.152674
O	 1.6941071722	 2.1727697227	-1.2651901892	-0.254036
C	 2.7159044184	 3.1494892902	-1.3441203205	-0.116222
C	 3.4566921041	 2.8595982192	-2.6637013598	 0.157433
O	 4.6382754264	 2.9909899194	-2.8057139741	-0.227428
C	 2.1994233149	 4.5196456444	-1.3797602603	 0.321433
C	 1.7710565267	 5.6407301645	-1.4483049223	-0.461533
H	-0.2041774313	 0.6607628712	-1.1796511446	 0.100095
H	 0.4598236775	 3.178279375	 0.0805335235	 0.142387
H	 1.564746064	 1.9961050947	 0.8128147235	 0.131324
H	 3.438160604	 3.0410922688	-0.5213069817	 0.124476
H	 2.7754582471	 2.5180282347	-3.4704550508	 0.107889
H	 1.3996984178	 6.6353511899	-1.4972473643	 0.217154
46.5563	57.8947	69.8802	101.4855	111.6388	165.6583	224.4294	297.9193	340.3632	451.0551	489.0085	549.1746	646.3837	648.1193	695.0544	743.3366	897.4299	992.9821	1030.6167	1050.7541	1103.8177	1113.4864	1149.6043	1239.092	1262.1241	1322.1574	1365.071	1394.2982	1413.4995	1480.2023	1846.5794	1853.466	2227.9574	2903.8722	2926.6983	2988.6882	3003.2208	3026.8883	3497.5523
O=CCOC(C=O)C#C	O=CCO[C@@H](C=O)C#C	
InChI=1S/C6H6O3/c1-2-6(5-8)9-4-3-7/h1,3,5-6H,4H2	InChI=1S/C6H6O3/c1-2-6(5-8)9-4-3-7/h1,3,5-6H,4H2/t6-/m1/s1
