23
gdb 63637	3.55095	1.03072	0.93053	1.6155	86.69	-0.2456	0.0779	0.3235	1385.9452	0.204855	-388.267066	-388.257361	-388.256417	-388.30181	36.43	
C	 0.0524272364	 1.5245952393	-0.1116039771	-0.469615
C	 0.0338128946	 0.0111159825	 0.0117571819	 0.333707
C	-1.179566982	-0.6411890896	-0.6266856981	-0.444946
C	 1.3461174956	-0.7431152507	-0.0623268121	-0.333111
C	 0.5966450485	-0.6611012341	 1.2467758303	-0.057577
C	 1.1712156807	 0.0705400999	 2.4357536829	 0.117253
C	 2.2020515003	-0.6940079548	 3.3039681973	-0.285649
C	 3.1253175455	 0.5029098169	 3.0129764539	-0.061129
O	 2.1600882728	 1.083525624	 2.1112170089	-0.285256
H	 0.9406872844	 1.9588834332	 0.3491629721	 0.150783
H	 0.0301328776	 1.8204058517	-1.1674560232	 0.105624
H	-0.8297433015	 1.966330313	 0.3681866891	 0.104991
H	-1.2329720261	-0.4053196031	-1.6963857295	 0.112407
H	-1.1514406958	-1.7311799328	-0.5273784653	 0.106853
H	-2.1090340874	-0.2869463176	-0.1646406119	 0.110891
H	 1.3759350683	-1.6904775337	-0.5911226971	 0.098429
H	 2.2519336051	-0.1507181562	-0.1329858914	 0.119491
H	 0.069838292	-1.5615265279	 1.5603350083	 0.077671
H	 0.3617903616	 0.5175332214	 3.0318664515	 0.073906
H	 1.9304911894	-0.8581732622	 4.3476599705	 0.106832
H	 2.5317544187	-1.634925758	 2.8594147301	 0.112666
H	 3.3212071107	 1.1587870862	 3.8709847797	 0.100624
H	 4.0742059308	 0.2834427423	 2.5104745994	 0.105155
66.8214	74.1954	149.955	166.8525	213.2657	240.17	284.506	293.9788	364.9682	383.6837	485.8106	591.928	692.7532	715.9147	803.1239	838.8852	881.3266	912.1633	927.5335	942.0115	972.7313	975.676	992.1233	1027.1313	1045.1778	1066.8992	1070.8949	1110.3158	1130.7211	1154.4886	1166.6067	1174.5641	1218.0961	1256.3445	1257.098	1297.2649	1330.7954	1358.2106	1374.6189	1408.9986	1417.9459	1426.1051	1484.3069	1485.3458	1488.875	1492.8575	1508.8221	1515.6907	1530.8777	2986.4362	3014.7215	3015.9109	3022.1883	3058.4449	3070.7211	3076.979	3078.122	3092.5768	3113.7935	3127.5312	3135.3219	3142.1139	3216.75
CC1(C)CC1C1CCO1	CC1(C)C[C@H]1[C@H]1CCO1	
InChI=1S/C8H14O/c1-8(2)5-6(8)7-3-4-9-7/h6-7H,3-5H2,1-2H3	InChI=1S/C8H14O/c1-8(2)5-6(8)7-3-4-9-7/h6-7H,3-5H2,1-2H3/t6-,7+/m0/s1
