15
gdb 79385	3.43079	1.37484	1.11776	2.6345	72.23	-0.2356	0.0104	0.246	1058.5649	0.110568	-420.486103	-420.478565	-420.477621	-420.517956	29.62	
O	-0.0355574653	 1.510467501	-0.0419860229	-0.438164
C	 0.0683345344	 0.1067655371	-0.0281109467	 0.097383
C	 0.0707163932	-0.5989455319	 1.3457036929	-0.19828
C	-1.4677415079	-0.3906014955	 1.5149438531	 0.048301
O	-1.7523842001	-1.7920423775	 1.7955317992	-0.36111
C	-0.7138406904	-1.8302324348	 0.7616171878	 0.450575
C	-0.2202982574	-3.0738077588	 0.2655093783	 0.088189
C	 0.2078756549	-4.1125239627	-0.162881601	-0.377534
C	-1.2928394252	-0.5960380639	-0.0228326689	-0.167149
H	 0.8456702963	 1.8822909167	 0.0631676026	 0.287679
H	 0.7981413389	-0.2626120183	-0.7597193792	 0.082773
H	 0.8245432735	-0.6359215339	 2.1317437609	 0.091889
H	-2.0158306506	 0.3723628413	 2.0599235129	 0.109023
H	 0.580285159	-5.0341142319	-0.5375420614	 0.189177
H	-2.0731664932	-0.6235584669	-0.7816187275	 0.097248
113.3737	160.4463	225.721	278.8082	334.0588	431.4487	463.3637	543.7401	584.5136	614.4471	627.3116	694.8266	748.2672	798.0887	807.6223	860.7665	908.7149	919.3026	932.3949	995.4326	1040.3221	1075.6499	1114.4068	1126.1216	1151.563	1165.6645	1198.5851	1247.7888	1260.7263	1304.1305	1347.1491	1436.1394	2237.586	3025.4603	3127.0247	3139.2779	3170.9737	3499.6123	3822.7499
OC1C2C3OC2(C#C)C13	O[C@H]1[C@H]2[C@@H]3O[C@@]2(C#C)[C@H]13	
InChI=1S/C7H6O2/c1-2-7-3-5(8)4(7)6(3)9-7/h1,3-6,8H	InChI=1S/C7H6O2/c1-2-7-3-5(8)4(7)6(3)9-7/h1,3-6,8H/t3-,4+,5-,6-,7+
