21
gdb 35564	2.71608	1.44322	1.21339	0.7425	86.96	-0.253	0.051	0.304	1123.0551	0.184299	-349.931689	-349.923578	-349.922634	-349.96437	32.65	
C	-0.6625190296	-1.0212928568	-0.9538360433	-0.477981
C	-0.416248902	 0.0703099744	-0.5100125986	 0.339792
C	-0.1014301212	 1.3716375556	 0.0417662948	-0.169233
C	-0.0702942716	 1.5138710371	 1.6004276564	-0.252134
C	 1.3460218123	 2.1514648406	 1.526724891	 0.005104
C	 2.4839064925	 1.3251109916	 2.141954735	-0.211651
C	 2.6993239757	 0.1695106897	 1.1443587033	-0.211336
C	 2.4890254081	 0.8268557585	-0.2346787063	-0.216115
C	 1.3901829372	 1.8793291065	-0.0191341271	-0.024384
H	-0.8916604997	-1.979605123	-1.3492626491	 0.192988
H	-0.7675459639	 2.1185413412	-0.4015725954	 0.099046
H	-0.8583433381	 2.1484311941	 2.011491011	 0.101696
H	-0.0955503704	 0.5530612194	 2.1200731557	 0.107926
H	 1.3701024436	 3.2000754908	 1.8297898309	 0.061844
H	 3.3925447303	 1.9366576739	 2.2043262194	 0.093047
H	 2.2537354698	 0.9811275842	 3.1560356585	 0.093179
H	 3.6812925913	-0.3015051438	 1.2448274362	 0.09197
H	 1.9497690259	-0.6144493584	 1.30097509	 0.109694
H	 3.4090976602	 1.3349483843	-0.5469263264	 0.091121
H	 2.2306936944	 0.1052682022	-1.014665972	 0.10913
H	 1.5121062353	 2.7426282078	-0.6757637942	 0.066296
61.038	140.4385	210.8752	232.539	336.7753	363.3745	492.5904	531.8678	558.5579	606.1053	615.1085	622.7332	726.5433	748.1089	817.9898	853.8358	870.2816	885.91	904.0247	953.4486	965.4989	994.3271	1024.7661	1045.3155	1066.9507	1091.0979	1141.0901	1163.3605	1168.6749	1195.4291	1230.2104	1258.0009	1272.6086	1281.4935	1308.4976	1317.2245	1326.5162	1341.3157	1354.793	1364.8586	1477.6472	1482.2261	1488.5793	1508.0282	2225.1056	3027.5417	3034.0069	3043.8919	3047.3488	3063.3923	3074.3064	3078.9494	3089.0714	3091.4955	3098.389	3119.6123	3504.1463
C#CC1CC2CCCC12	C#C[C@H]1C[C@H]2CCC[C@@H]12	
InChI=1S/C9H12/c1-2-7-6-8-4-3-5-9(7)8/h1,7-9H,3-6H2	InChI=1S/C9H12/c1-2-7-6-8-4-3-5-9(7)8/h1,7-9H,3-6H2/t7-,8+,9-/m0/s1
