16
gdb 113608	3.52937	0.71371	0.62764	1.9773	89.68	-0.2399	-0.0237	0.2162	1717.5342	0.122787	-400.657106	-400.647828	-400.646883	-400.692029	33.579	
O	-0.0798955342	 1.4326000672	-0.4129373007	-0.418137
C	-0.0498248821	 0.2245360827	 0.3267542339	-0.07924
C	-1.3737790279	-0.496586062	 0.2278799151	-0.018633
N	-1.6396720166	-1.0983636098	-1.0834832045	-0.326367
C	-1.4781759645	-1.9873253285	 0.0969521159	-0.332076
C	-0.3425194237	-2.8613429298	 0.1293511582	 0.480539
C	 0.5917943339	-3.6295420457	 0.1901133984	-0.211864
C	 1.646290227	-4.4854641058	 0.2539445642	 0.296418
C	 2.5821935092	-5.2466162982	 0.3122707016	-0.561802
H	-0.2553185887	 1.1824205505	-1.3276054879	 0.291625
H	 0.7551675134	-0.4415887555	-0.0119200906	 0.109072
H	 0.1547784741	 0.5004953527	 1.3660907502	 0.113695
H	-2.205184828	-0.0071683091	 0.7321735468	 0.100901
H	-2.6270348362	-1.0345883873	-1.31770545	 0.242386
H	-2.3862781101	-2.4271676198	 0.5052036794	 0.119866
H	 3.4062362544	-5.9143132817	 0.3621066299	 0.193615
58.9908	79.1386	103.7173	171.3958	232.5822	274.594	349.3948	423.1189	440.0652	505.3867	527.2982	550.2157	573.2239	602.13	618.5946	715.0765	818.7296	878.9648	912.2833	968.067	1000.694	1070.7754	1092.4459	1157.1364	1175.5195	1216.7574	1257.8529	1275.6986	1365.6207	1396.9835	1430.9678	1458.1056	1497.2511	2182.2374	2357.3759	3018.1703	3084.268	3119.6755	3131.1616	3503.7843	3505.7358	3796.0433
OCC1NC1C#CC#C	OC[C@H]1N[C@H]1C#CC#C	
InChI=1S/C7H7NO/c1-2-3-4-6-7(5-9)8-6/h1,6-9H,5H2	InChI=1S/C7H7NO/c1-2-3-4-6-7(5-9)8-6/h1,6-9H,5H2/t6-,7+/m0/s1
