19
gdb 68169	3.40117	1.42471	1.21145	3.1799	74.52	-0.2268	-0.0171	0.2097	1069.2444	0.159596	-423.046085	-423.038106	-423.037162	-423.078413	31.345	
C	 0.0106052901	 1.5604392165	 0.0580867317	-0.471669
C	-0.0130807468	 0.0569057746	-0.0797460984	 0.415191
C	 0.8658579231	-0.6247024065	-1.1579282519	-0.294928
C	 1.1345187516	-1.6275667201	-0.0155855326	-0.014348
O	 0.7749181431	-0.6189325943	 0.9627576963	-0.326629
C	 0.0344667737	-2.6810189721	-0.051725869	 0.400278
O	 0.2267072116	-3.8444342537	-0.3057696127	-0.319117
C	-1.3387091414	-2.0806964824	 0.254389933	-0.311528
C	-1.4211556012	-0.5639531961	-0.0653906262	-0.264507
H	 1.0380288829	 1.9335615255	 0.0464212811	 0.125136
H	-0.5416713285	 2.0290032728	-0.7637512403	 0.122557
H	-0.4570042739	 1.8659006189	 0.9998022333	 0.130072
H	 0.3869331457	-0.987005207	-2.0707549557	 0.110976
H	 1.7546242343	-0.0396684238	-1.4016561985	 0.114618
H	 2.1286719903	-2.0529115075	 0.1296267369	 0.096425
H	-2.1059897631	-2.6682565618	-0.2542783349	 0.125522
H	-1.488201623	-2.2299850534	 1.3300087855	 0.145758
H	-2.0391749963	-0.0592048113	 0.6836581976	 0.107605
H	-1.8982181622	-0.3944835585	-1.0372605851	 0.108587
86.3036	156.87	199.5209	266.6612	332.0866	386.7494	425.797	448.9672	458.0675	561.7644	631.6902	669.964	732.7323	799.9958	844.0977	899.3029	915.249	934.9895	964.8665	999.513	1015.6175	1031.1402	1040.3541	1106.4154	1186.4799	1199.495	1220.5145	1227.597	1248.2001	1272.3126	1301.6768	1308.0813	1312.173	1372.1388	1409.6821	1450.0984	1477.2994	1484.2611	1492.4377	1497.979	1832.2614	3034.7797	3041.4223	3049.5736	3066.7076	3082.1785	3105.4672	3109.8325	3114.2391	3119.396	3129.7239
CC12CC(O1)C(=O)CC2	C[C@@]12C[C@@H](O1)C(=O)CC2	
InChI=1S/C7H10O2/c1-7-3-2-5(8)6(4-7)9-7/h6H,2-4H2,1H3	InChI=1S/C7H10O2/c1-7-3-2-5(8)6(4-7)9-7/h6H,2-4H2,1H3/t6-,7-/m1/s1
