18
gdb 78630	4.37752	1.15223	1.05681	2.3088	77.04	-0.2446	-0.0344	0.2102	1171.2011	0.146688	-401.85365	-401.845768	-401.844824	-401.886343	29.794	
C	-0.2794459673	 1.5779839104	 0.0367505672	-0.428549
C	-0.0456402702	 0.0873476123	-0.1374935448	 0.006245
C	 1.3139305577	-0.4211437865	-0.637160907	-0.01513
C	 2.023454058	-0.2638396132	 0.7441079462	-0.080586
C	 2.4726154513	-1.7142190862	 0.6485816905	-0.056227
C	 2.6309361862	-2.551799654	 1.8900706057	 0.140126
O	 2.5630215424	-2.1177207535	 3.0134388732	-0.245907
N	 1.0705229138	-1.8128889671	 0.0120113092	-0.189674
C	 0.5578384706	-0.7309932729	 1.0130499565	-0.016626
H	 0.5702412601	 2.0693607579	 0.5217791762	 0.120146
H	-0.4398997668	 2.0644841471	-0.9311293827	 0.122159
H	-1.1671043567	 1.7640189179	 0.6503481675	 0.124502
H	-0.8935832983	-0.410909713	-0.6212004452	 0.085007
H	 1.7715030525	-0.3594461459	-1.6272822459	 0.08226
H	 2.5481357959	 0.6026124459	 1.1526818998	 0.080565
H	 3.257749093	-1.9649237962	-0.0779139026	 0.086675
H	 2.8009393638	-3.6357692291	 1.6996041634	 0.085032
H	 0.1221048041	-1.0233598139	 1.9681165329	 0.099982
74.3705	133.0353	189.0367	223.037	261.3834	286.5799	410.4829	544.464	683.3587	715.4862	764.9779	801.6863	825.3685	847.1799	871.0557	872.9104	904.2767	1003.2424	1024.6866	1024.8605	1048.7165	1058.1684	1102.1576	1114.2413	1136.713	1151.3018	1170.703	1183.3859	1221.8506	1245.9517	1262.2282	1311.209	1387.7921	1394.3672	1417.5529	1421.4286	1495.5376	1501.8761	1819.861	2878.7903	3020.9717	3033.8992	3048.2633	3078.2976	3092.2714	3098.9187	3105.7454	3124.8169
CC1C2C3C(C=O)N2C13	C[C@H]1[C@H]2[C@@H]3[C@@H](C=O)N2[C@H]13	
InChI=1S/C7H9NO/c1-3-6-5-4(2-9)8(6)7(3)5/h2-7H,1H3	InChI=1S/C7H9NO/c1-3-6-5-4(2-9)8(6)7(3)5/h2-7H,1H3/t3-,4-,5-,6-,7+/m1/s1
