14
gdb 27332	3.35396	1.37003	0.97362	4.5408	68.96	-0.212	-0.0227	0.1894	1112.4833	0.101922	-473.87517	-473.86755	-473.866606	-473.906977	29.655	
N	 0.0174198219	 1.3625944976	 0.146345351	-0.580099
C	-0.047624723	-0.0102257396	 0.0537221771	 0.128194
C	-1.1725453226	-0.7513814543	 0.0295712316	-0.056139
O	-1.1468052468	-2.1321306817	-0.0076156612	-0.230966
C	 0.0311233172	-2.7580236735	-0.0150199253	 0.487913
O	-0.0956219531	-4.0898949596	-0.0424252222	-0.401377
C	 1.2276110207	-2.1228678998	-0.0024398168	-0.395237
C	 1.2826471426	-0.6848537034	 0.0173039193	 0.377891
O	 2.307479964	-0.0071727396	-0.0057302877	-0.407788
H	 0.9532672747	 1.6878307368	-0.0708463052	 0.266021
H	-0.7274912665	 1.8988713183	-0.2689948263	 0.247961
H	-2.1891696289	-0.3866182517	 0.0412686395	 0.12721
H	-1.0371560675	-4.3055460082	-0.0483234157	 0.311027
H	 2.1410931474	-2.7003475213	-0.023545158	 0.12539
128.8705	188.6475	316.0207	333.2905	355.2625	373.6365	390.2971	435.8102	450.5602	524.0573	596.5809	640.7711	686.1524	741.4242	776.7307	784.2514	800.6493	855.0552	940.4503	1097.6239	1177.0576	1200.4971	1255.245	1295.9855	1321.7773	1422.3772	1461.8998	1600.7681	1676.6689	1712.9583	1731.019	3236.1003	3238.9381	3525.7548	3668.2603	3796.9618
NC1=COC(O)=CC1=O	Nc1coc(O)cc1=O	
InChI=1S/C5H5NO3/c6-3-2-9-5(8)1-4(3)7/h1-2,8H,6H2	InChI=1S/C5H5NO3/c6-3-2-9-5(8)1-4(3)7/h1-2,8H,6H2
