13
gdb 21554	4.1241	1.90826	1.30764	6.2463	67.64	-0.2112	-0.049	0.1622	862.1809	0.097603	-390.935539	-390.928645	-390.927701	-390.966601	26.039	
N	 0.0796227974	 1.4029373284	 0.1482594393	-0.586224
C	-0.0526139276	 0.0269270186	 0.0359967341	 0.474118
C	-1.2033243408	-0.6816141154	 0.0312215502	-0.281108
C	-1.1381943667	-2.1240949403	-0.0081631207	 0.389284
N	-2.1728992147	-2.8755013403	-0.0523922337	-0.532972
N	 0.1758172685	-2.7201579506	 0.0025442364	-0.247211
N	 1.2234641018	-2.0342541587	 0.0057607114	-0.039358
N	 1.1358880527	-0.6709311132	-0.0238740716	-0.303471
H	 0.7717754166	 1.8130369916	-0.4665711572	 0.258458
H	-0.8020489516	 1.8922002916	 0.0746348638	 0.266681
H	-2.1699857915	-0.1955241133	 0.0437007191	 0.109675
H	-1.8668217189	-3.850482102	-0.0758886404	 0.217979
H	 2.0188669249	-0.2191319964	 0.1531881292	 0.27415
92.6402	190.054	295.454	333.5488	395.0143	467.9475	509.0555	536.7874	563.7344	614.9534	715.7226	748.0189	753.1817	845.7524	896.1255	927.2607	1020.777	1050.8103	1126.0775	1137.1565	1261.0325	1339.8797	1380.9148	1468.5355	1608.2998	1643.5652	1691.7687	1724.4321	3218.4762	3459.7059	3540.3604	3639.9729	3645.5824
NC1=CC(=N)N=NN1	Nc1cc([NH])nn[nH]1	
InChI=1S/C3H5N5/c4-2-1-3(5)7-8-6-2/h1H,(H4,4,5,6,7)	InChI=1S/C3H10N5/c4-2-1-3(5)7-8-6-2/h2-4,6-8H,1,5H2
