19
gdb 87448	2.596	1.50015	1.32036	2.2878	76.5	-0.2263	0.0696	0.2959	1061.3668	0.157184	-422.933268	-422.924722	-422.923778	-422.965986	33.392	
C	 0.0538913898	 1.4733992848	 0.1233036923	-0.520907
C	 0.0160301233	-0.0117297699	-0.0312278157	 0.334322
C	 0.7004157807	-0.9392162386	-1.0765326304	-0.258162
C	 0.0786684664	-1.8174323472	 0.0349751846	-0.062741
O	 0.6148531112	-0.8702597424	 1.0404381328	-0.347141
C	-1.1917389286	-0.9669501849	-0.0381772153	 0.415713
C	-2.4809762139	-0.9319259008	 0.7083299084	-0.428443
C	-2.448478565	-0.983421844	-0.8195904491	-0.016258
O	-2.7345824834	 0.1728049024	-1.5578919305	-0.425158
H	 1.086278637	 1.8340933902	 0.1486958056	 0.129858
H	-0.4694354404	 1.9410474922	-0.7152971462	 0.143848
H	-0.4415856216	 1.7719155622	 1.0524414031	 0.131155
H	 0.2676465282	-0.9847849541	-2.0788031634	 0.104101
H	 1.7910108636	-0.903754449	-1.0713118566	 0.099723
H	 0.1954509076	-2.8826703097	 0.2329742685	 0.092444
H	-2.8147126577	-1.8131347911	 1.2477195574	 0.114674
H	-2.7704160324	 0.0140445154	 1.1567397585	 0.117073
H	-2.757333355	-1.9179630714	-1.2906450576	 0.087018
H	-3.6871230997	 0.3136636558	-1.5338181262	 0.288882
124.1191	139.7072	183.2439	193.7033	306.1958	316.8065	329.3511	414.965	441.1929	496.0183	619.9903	649.3272	682.1697	707.7097	804.3098	831.8137	868.6035	908.1854	948.8941	968.5099	996.7477	1022.6104	1031.6615	1068.6004	1086.0453	1106.321	1145.2165	1153.1676	1160.9716	1204.0462	1220.232	1228.3233	1291.813	1317.8072	1377.5974	1411.1109	1434.0888	1476.7626	1482.1287	1489.7247	1528.1834	3042.0072	3063.596	3086.171	3113.7533	3119.0087	3123.6498	3126.0909	3145.9301	3206.4697	3800.9384
CC12CC(O1)C21CC1O	C[C@@]12C[C@@H](O1)[C@]12C[C@H]1O	
InChI=1S/C7H10O2/c1-6-3-5(9-6)7(6)2-4(7)8/h4-5,8H,2-3H2,1H3	InChI=1S/C7H10O2/c1-6-3-5(9-6)7(6)2-4(7)8/h4-5,8H,2-3H2,1H3/t4-,5-,6+,7+/m1/s1
