20
gdb 83159	2.76679	1.37034	1.17815	3.7708	79.09	-0.2324	0.0348	0.2671	1134.9628	0.173423	-403.188681	-403.180433	-403.179489	-403.221547	32.156	
C	-0.1546703601	 1.5708213185	 0.0944974489	-0.417143
C	-0.0076097269	 0.0703541232	-0.0066918183	-0.032193
C	 0.6624925225	-0.6191441129	-1.1804283588	-0.047176
C	 1.3787308263	 0.1356701972	-2.29431415	-0.248633
C	 2.9020442547	-0.0262366594	-2.1450843667	-0.305361
C	 3.3907665085	 0.4307140026	-0.7753106982	 0.383412
O	 4.4395996901	 1.0202019823	-0.5986738535	-0.373522
N	 2.5348020681	 0.1498549509	 0.2614466469	-0.287669
C	 1.3345086908	-0.6217049787	 0.1714174876	-0.026738
H	 0.7737312138	 2.0908517867	-0.1532249029	 0.131355
H	-0.9391039316	 1.9394290868	-0.5754078201	 0.121351
H	-0.4281146982	 1.8601856816	 1.1148431937	 0.118939
H	-0.8450620876	-0.4837549055	 0.4099436398	 0.086977
H	 0.226082873	-1.5663674631	-1.4805696978	 0.091158
H	 1.0534065834	-0.2386502636	-3.2696202847	 0.105825
H	 1.1253781387	 1.2005006168	-2.2760453959	 0.113834
H	 3.1756617513	-1.0815090249	-2.2726159386	 0.121573
H	 3.4587843404	 0.5463588381	-2.8895445513	 0.125519
H	 2.8457481964	 0.4809521084	 1.1640448898	 0.2437
H	 1.3509959765	-1.5520076952	 0.7349228602	 0.094794
75.9868	138.9197	168.6403	222.7705	282.1438	405.8405	421.5246	473.4066	517.0176	556.1223	580.4277	653.9273	728.2256	771.7908	776.7983	781.6522	897.8775	944.6134	959.4343	976.6104	995.3004	1053.2304	1076.7082	1112.7564	1130.0777	1145.9832	1170.1581	1207.2876	1224.269	1259.4073	1315.4689	1335.8956	1368.4794	1382.9849	1390.7502	1419.846	1432.3907	1462.1233	1475.4017	1491.1457	1498.8469	1508.6605	1796.0088	3034.6891	3035.3462	3049.4609	3084.8345	3091.8914	3115.0723	3116.21	3118.8127	3137.8482	3156.5636	3596.3696
CC1C2CCC(=O)NC12	C[C@H]1[C@H]2CCC(=O)N[C@@H]12	
InChI=1S/C7H11NO/c1-4-5-2-3-6(9)8-7(4)5/h4-5,7H,2-3H2,1H3,(H,8,9)	InChI=1S/C7H11NO/c1-4-5-2-3-6(9)8-7(4)5/h4-5,7H,2-3H2,1H3,(H,8,9)/t4-,5+,7-/m0/s1
