19
gdb 52479	5.40799	0.55323	0.52604	0.2024	107.74	-0.2152	0.0008	0.216	2156.5813	0.156814	-348.710285	-348.699908	-348.698964	-348.747629	36.517	
C	-0.0200712803	 1.4696878226	-0.0103821308	-0.517396
C	-0.0028340341	 0.0177487249	-0.010097175	 0.214978
C	 0.0109347063	-1.1930516032	-0.009669553	-0.198389
C	 0.0269280651	-2.5522620318	-0.0097372003	-0.216828
C	 0.0311595852	-3.7649837165	-0.0027000368	 0.298583
C	 0.067934928	-5.1996140173	-0.0172560132	 0.119674
C	 1.2054678156	-5.8125290504	-0.8232040161	-0.454912
C	-0.3954935856	-5.9272308106	 1.2403377163	-0.28481
C	-1.2664417482	-5.9370943095	 0.0184844274	-0.2848
H	 0.9968044366	 1.8788138651	-0.0140512389	 0.153853
H	-0.539544756	 1.8629715504	-0.891822189	 0.153191
H	-0.5305285315	 1.860288762	 0.8774954409	 0.153765
H	 2.1768607059	-5.4964254786	-0.4308780971	 0.129451
H	 1.1581463641	-6.9050575182	-0.7805131904	 0.11331
H	 1.1488924151	-5.5082424536	-1.8728024239	 0.129461
H	 0.1398473192	-6.8336996596	 1.5020460892	 0.117758
H	-0.7034844824	-5.3219504887	 2.0842451835	 0.12767
H	-2.1692461915	-5.3385462349	 0.0279157348	 0.127682
H	-1.3322728016	-6.850362492	-0.5632149277	 0.117758
15.949	59.751	71.03	156.1198	179.7774	225.8997	287.238	307.2466	321.8652	348.4485	483.5783	505.9188	510.8479	565.9233	576.1939	753.6704	789.1263	831.9246	930.2392	939.2619	952.6491	1045.4127	1047.7958	1048.2921	1074.1446	1078.4063	1115.9604	1194.1782	1206.643	1288.8474	1377.7351	1411.4131	1414.5473	1463.4529	1472.4382	1473.4559	1485.8589	1494.5629	1502.9738	2272.5554	2377.4665	3021.3581	3035.3261	3081.9307	3082.6235	3108.0565	3109.1246	3135.9656	3140.3131	3222.6912	3237.0894
CC#CC#CC1(C)CC1	CC#CC#CC1(C)CC1	
InChI=1S/C9H10/c1-3-4-5-6-9(2)7-8-9/h7-8H2,1-2H3	InChI=1S/C9H10/c1-3-4-5-6-9(2)7-8-9/h7-8H2,1-2H3
