17
gdb 88328	2.57303	1.15066	0.92337	2.0561	73.08	-0.2634	-0.0274	0.236	1298.9778	0.134887	-455.148204	-455.138998	-455.138054	-455.183174	32.301	
C	-0.8766797844	 1.2060661381	 0.4305350582	-0.413803
C	 0.0427139659	 0.0613663513	 0.0822448107	 0.015803
N	 1.4705523212	 0.3320433671	-0.0227438421	-0.316261
C	 1.0159758223	-0.5904408984	 1.0312956899	-0.165597
C	 1.2010926931	-0.2256439387	 2.4640033701	 0.484782
O	 1.2711976846	-1.0394487199	 3.3476601287	-0.356665
O	 1.2666593379	 1.1276092599	 2.6639145282	-0.194975
C	 1.4584053575	 1.579531817	 3.9463697345	 0.120985
N	 1.4151715994	 2.8208785635	 4.1421887717	-0.422927
H	-0.3986276037	 1.9014612462	 1.119653003	 0.166195
H	-1.1435257507	 1.75180315	-0.480698948	 0.124966
H	-1.8027110408	 0.833376686	 0.8809492798	 0.12034
H	-0.3773880248	-0.6478686256	-0.6317723003	 0.096744
H	 1.9011255146	-0.1979392064	-0.7754947783	 0.242886
H	 1.1681155901	-1.6577891208	 0.8990776254	 0.112079
H	 1.6336384948	 0.7738179768	 4.6590354081	 0.14563
H	 1.5842331429	 3.0192576239	 5.1274435204	 0.239819
55.4837	91.523	107.0136	139.1585	184.2389	240.3765	291.1604	353.0854	434.4408	470.4826	548.889	645.465	743.5922	798.7026	851.8339	859.8226	912.5428	957.8063	1004.4873	1019.0937	1036.6679	1070.3053	1082.3352	1130.9927	1170.6047	1239.6696	1248.701	1264.3587	1302.3782	1386.5257	1402.0409	1417.6042	1458.8159	1495.8998	1502.17	1745.7331	1822.3045	3042.3644	3099.3264	3100.2755	3141.6644	3156.8215	3165.0968	3506.1894	3510.712
CC1NC1C(=O)OC=N	C[C@H]1N[C@H]1C(=O)O[CH][NH]	
InChI=1S/C5H8N2O2/c1-3-4(7-3)5(8)9-2-6/h2-4,6-7H,1H3	InChI=1S/C5H8N2O2/c1-3-4(7-3)5(8)9-2-6/h2-4,6-7H,1H3/t3-,4-/m1/s1
