13
gdb 21684	5.02605	1.45796	1.14174	1.9128	55.98	-0.2461	-0.0148	0.2313	969.2261	0.096229	-431.917898	-431.910453	-431.909509	-431.950032	26.49	
N	 0.1990248096	 1.2644337276	 0.1981898525	-0.585592
C	 0.0555494315	-0.0839112681	 0.0179747446	 0.417298
N	-0.9797607749	-0.6334829111	-0.5752924102	-0.21094
O	-0.6315775844	-2.0110623981	-0.583431884	-0.204179
C	 0.550591966	-2.1029141567	 0.0112699945	 0.417357
C	 1.2291154891	-3.4318411518	 0.1391754822	-0.155285
O	 2.3197234856	-3.3696094656	 1.0209050885	-0.411479
N	 1.0407244271	-0.9687997503	 0.4094144455	-0.382044
H	 0.7964694073	 1.5206819719	 0.968734552	 0.269941
H	-0.6535012907	 1.7998236505	 0.1350021024	 0.270927
H	 0.5117185273	-4.1735425616	 0.5099950331	 0.142704
H	 1.5302000219	-3.7593125668	-0.8706209732	 0.128595
H	 2.6277410347	-2.4542880398	 1.0287990521	 0.302697
61.585	162.1664	195.3454	266.2328	317.1266	366.2708	410.2721	475.5467	555.9979	643.0132	685.9254	767.3421	793.368	915.7089	1028.5463	1033.2531	1067.3856	1110.9445	1128.45	1232.1529	1292.5835	1357.9306	1432.7407	1476.6414	1500.6165	1583.1233	1635.3107	1662.2049	2966.058	3056.613	3587.6117	3697.6799	3774.1023
NC1=NOC(CO)=N1	Nc1noc(CO)n1	
InChI=1S/C3H5N3O2/c4-3-5-2(1-7)8-6-3/h7H,1H2,(H2,4,6)	InChI=1S/C3H5N3O2/c4-3-5-2(1-7)8-6-3/h7H,1H2,(H2,4,6)
