17
gdb 111353	2.56057	1.40988	1.06872	1.1052	67.59	-0.2588	0.0538	0.3126	1130.3544	0.134294	-458.880915	-458.872635	-458.87169	-458.914123	30.871	
O	 0.0083768328	 1.5072875432	-0.0907594752	-0.419492
C	 0.0792796671	 0.0958186623	 0.0551926509	-0.090361
C	-1.2991600121	-0.5499202344	 0.0849933968	-0.13894
C	-2.0873503241	-0.5932627676	-1.2469368971	 0.001107
O	-1.3311358569	-1.4030260405	-2.1580932499	-0.243116
C	-2.1881105995	-2.0620414873	-1.2117085406	-0.08722
C	-1.411813045	-2.0999542023	 0.0963675202	 0.425327
C	-0.5804469065	-3.1524384122	 0.6757091502	-0.264589
O	-1.8651176784	-2.8101893588	 1.2289352419	-0.273662
H	-0.2570001416	 1.6947991479	-0.996509305	 0.287499
H	 0.6801418051	-0.3647935091	-0.7406101895	 0.106973
H	 0.5927522821	-0.0828035065	 1.0060551826	 0.113004
H	-1.9067935717	-0.133216297	 0.8944400662	 0.104689
H	-2.7639586371	 0.1395687251	-1.6701237534	 0.113011
H	-2.9427017311	-2.7423554374	-1.5881457783	 0.119689
H	-0.5239019515	-4.1266225717	 0.1927914656	 0.122713
H	 0.2733990684	-2.8896142137	 1.2978889247	 0.123368
78.1458	126.0778	150.2506	239.6795	273.7536	294.0031	316.3989	454.1799	497.1715	569.4388	633.5485	788.802	838.124	845.5647	859.6174	896.1348	914.5996	962.4878	1007.2647	1022.895	1050.1118	1072.9231	1105.8711	1121.7874	1148.468	1160.3339	1188.6684	1212.5288	1223.8634	1258.378	1336.2546	1369.5104	1399.5096	1411.4907	1442.7304	1501.557	1536.6817	3015.7904	3068.698	3082.2473	3087.5754	3175.5976	3186.5207	3201.4107	3821.7785
OCC1C2OC2C11CO1	OC[C@H]1[C@H]2O[C@H]2[C@]21CO2	
InChI=1S/C6H8O3/c7-1-3-4-5(9-4)6(3)2-8-6/h3-5,7H,1-2H2	InChI=1S/C6H8O3/c7-1-3-4-5(9-4)6(3)2-8-6/h3-5,7H,1-2H2/t3-,4+,5+,6+/m0/s1
