15
gdb 18539	3.88125	2.20194	1.6437	3.5256	66.14	-0.2442	0.0022	0.2465	780.4866	0.121253	-362.686891	-362.680749	-362.679804	-362.717154	23.987	
O	-0.0269355611	 0.0507309344	 0.3990919572	-0.33685
C	-0.0788920067	 1.2126029083	 0.1097552777	 0.400032
C	-1.1926151979	 2.2379539307	-0.1899505557	-0.390136
C	-0.0581765518	 3.2957064172	-0.0532447817	-0.022387
C	 0.1531127417	 4.0106389723	 1.2564982742	-0.088535
C	 1.219340162	 3.526433321	 1.8959135755	-0.063215
C	 1.8795870495	 2.3938788687	 1.1281042193	-0.238857
N	 0.9333746913	 2.1832733529	 0.0260942983	-0.101291
H	-1.6570778367	 2.1579512525	-1.1748981915	 0.1325
H	-1.9659385129	 2.2674346913	 0.5798165121	 0.136171
H	 0.0660893663	 3.9539254865	-0.9206947394	 0.093028
H	-0.4618554964	 4.8389349706	 1.586387727	 0.108236
H	 1.6128180671	 3.8919147839	 2.8371579314	 0.109165
H	 2.8795442111	 2.669676419	 0.767965275	 0.120076
H	 1.9798098045	 1.4686380905	 1.7058905706	 0.142062
116.2309	228.5164	284.7692	432.2288	503.7501	557.5139	651.7583	703.6932	740.7321	771.4653	815.063	880.0168	927.5759	963.0902	985.8063	1006.472	1040.261	1053.5154	1090.1937	1116.6842	1126.6916	1197.0701	1203.6963	1241.9351	1290.2126	1313.9559	1343.2813	1361.5636	1451.2018	1499.6697	1664.6789	1885.4208	3017.5807	3039.2577	3074.0038	3081.9671	3140.8185	3198.8134	3222.7014
O=C1CC2C=CCN12	O=C1C[C@H]2C=CCN12	
InChI=1S/C6H7NO/c8-6-4-5-2-1-3-7(5)6/h1-2,5H,3-4H2	InChI=1S/C6H7NO/c8-6-4-5-2-1-3-7(5)6/h1-2,5H,3-4H2/t5-/m1/s1
