22
gdb 58317	3.28055	0.71463	0.61599	5.3679	83.49	-0.2755	0.0394	0.3149	1810.0409	0.19195	-404.373518	-404.362532	-404.361588	-404.410327	39.38	
C	 0.0855183025	 1.5424914733	 0.0655167274	-0.419724
C	-0.0208748979	 0.0167579526	 0.0504556571	 0.130776
O	 0.6320793207	-0.5358805739	 1.1926279073	-0.427457
C	-1.470744083	-0.5112360014	-0.0688914822	 0.011003
C	-2.1950333985	 0.0656721749	-1.2944618412	-0.410791
C	-1.4607419752	-2.0516205085	-0.0798942987	-0.183317
C	-2.8424450031	-2.6760611419	 0.2021299247	-0.354538
C	-2.8025229269	-4.1369979182	 0.2049645617	 0.259851
N	-2.7567864578	-5.2917472492	 0.2019711278	-0.30666
H	 1.1233554569	 1.8317075026	 0.2503921315	 0.129507
H	-0.2301960798	 1.988135276	-0.8809438638	 0.125083
H	-0.5367453384	 1.9707384616	 0.8623995756	 0.107213
H	 0.5539997209	-0.3709024832	-0.8013942715	 0.091767
H	 0.2512877717	-0.1226419211	 1.9758159036	 0.276736
H	-2.0028740984	-0.1785712395	 0.8377392921	 0.05917
H	-3.1926406318	-0.3671996851	-1.4140263315	 0.116654
H	-2.3244085041	 1.1481755962	-1.2214374918	 0.123289
H	-1.6340384132	-0.1457754354	-2.2126456663	 0.122391
H	-1.0978037108	-2.4097097871	-1.0510420618	 0.112935
H	-0.7522575303	-2.4037140831	 0.6730312334	 0.138351
H	-3.2167363093	-2.3402119575	 1.1768374054	 0.147684
H	-3.5818020842	-2.3601771219	-0.5419137891	 0.150077
47.8375	68.8696	90.7084	117.5472	195.9696	217.5182	251.9358	282.3141	304.4978	347.4205	367.804	403.8008	427.0303	470.1121	504.2765	573.7449	761.8844	814.8263	895.049	936.0612	946.2775	955.0087	979.0864	1024.7287	1076.2127	1080.3602	1126.8685	1151.1887	1168.3282	1216.4801	1248.4387	1297.6958	1314.0257	1330.9946	1354.6849	1379.2017	1387.592	1402.4991	1415.7611	1421.5038	1468.0579	1491.8011	1493.6143	1496.9586	1502.5859	1513.0372	2361.889	2968.1379	3020.4644	3029.3983	3033.8975	3037.6363	3046.8781	3076.39	3100.3303	3101.6412	3114.8971	3117.2333	3129.3926	3796.0617
CC(O)C(C)CCC#N	C[C@@H](O)[C@@H](C)CCC#N	
InChI=1S/C7H13NO/c1-6(7(2)9)4-3-5-8/h6-7,9H,3-4H2,1-2H3	InChI=1S/C7H13NO/c1-6(7(2)9)4-3-5-8/h6-7,9H,3-4H2,1-2H3/t6-,7+/m0/s1
