20
gdb 63016	2.23229	1.79623	1.40393	2.7272	78.93	-0.2472	0.0278	0.2749	1036.9109	0.171019	-403.162383	-403.153871	-403.152927	-403.194994	33.578	
C	 0.0874104765	 1.5538395413	-0.0142678785	-0.414983
C	 0.0388979993	 0.0207436917	-0.0090517592	 0.174451
C	-1.4260705238	-0.464311379	-0.004189835	-0.425106
C	 0.8021222131	-0.6482341689	-1.1494545287	-0.076639
C	 2.3129798111	-0.5038365271	-1.2009068102	-0.344406
C	 1.683979959	-1.6800620317	-0.5143801922	 0.081067
O	 1.5727170101	-1.5823311543	 0.894701417	-0.243101
C	 0.7376781961	-0.5484159906	 1.2315267512	 0.372778
N	 0.5563941503	-0.1366816462	 2.4101238931	-0.53645
H	 1.1148347654	 1.9228963472	-0.0767462924	 0.113988
H	-0.4694571968	 1.9507128599	-0.8692717031	 0.108285
H	-0.3540883664	 1.9426814784	 0.9066031668	 0.143307
H	-1.9499221788	-0.0979932801	-0.8935379074	 0.112571
H	-1.4840633695	-1.5573757261	 0.0001756455	 0.118715
H	-1.9422971821	-0.0915296464	 0.8837961763	 0.139726
H	 0.2701473383	-0.8533105716	-2.0710249409	 0.094315
H	 2.7923259551	-0.6745257415	-2.1586844992	 0.120915
H	 2.7978533683	 0.2399327864	-0.5764448722	 0.128552
H	 1.8094060538	-2.7014892772	-0.8495315115	 0.109952
H	 1.1197452812	-0.6697571343	 3.0740388703	 0.222063
88.636	205.9357	210.1171	232.3144	253.4401	300.3039	326.6356	393.4636	469.2619	487.0102	593.724	694.6478	706.5812	710.3693	790.9767	820.6169	886.9451	898.9746	944.548	958.1221	990.1033	1008.1751	1030.2071	1034.2641	1046.7988	1067.6246	1102.5101	1148.1472	1186.7327	1204.2022	1213.7672	1249.2009	1285.6127	1367.0502	1384.1173	1395.4295	1419.7132	1471.753	1481.3611	1487.0987	1500.2858	1507.6949	1771.1954	3033.4612	3041.6308	3101.9453	3110.8911	3124.4386	3128.6743	3129.2551	3177.1218	3197.4849	3219.6766	3478.5152
CC1(C)C2CC2OC1=N	CC1(C)[C@H]2C[C@H]2O[C]1[NH]	
InChI=1S/C7H11NO/c1-7(2)4-3-5(4)9-6(7)8/h4-5,8H,3H2,1-2H3	InChI=1S/C7H11NO/c1-7(2)4-3-5(4)9-6(7)8/h4-5,8H,3H2,1-2H3/t4-,5+/m0/s1
