14
gdb 31680	5.59824	0.94413	0.81206	6.0951	68.12	-0.2437	-0.0522	0.1915	1328.869	0.100258	-473.851425	-473.843297	-473.842353	-473.884938	28.116	
C	 0.0315872876	 1.419891272	-0.0811299597	-0.248321
O	 0.0231608977	-0.0117496508	-0.0329567095	-0.24792
C	 0.5892793019	-0.6671349011	-1.0278162979	 0.505413
N	 0.6696828614	-1.9464821035	-1.1525165374	-0.386686
C	 1.3521669267	-2.1142911855	-2.3582322388	 0.151706
C	 1.6973813854	-3.4102848219	-2.9510298966	 0.081107
O	 1.438339758	-4.4888913345	-2.4771954569	-0.254929
C	 1.6420544614	-0.896271927	-2.889311603	-0.088573
O	 1.1551061095	 0.0590225987	-2.0401507879	-0.190136
H	 1.0553691848	 1.8044071032	-0.088559235	 0.145124
H	-0.501087649	 1.7840579442	-0.9641467277	 0.145064
H	-0.4818804604	 1.7412855907	 0.8241334208	 0.15452
H	 2.2423203227	-3.3136465444	-3.9177339865	 0.068364
H	 2.1404298023	-0.5477819302	-3.7775220639	 0.165267
60.6402	131.9204	154.4778	159.8641	226.9615	255.2788	385.1228	489.9672	523.7113	642.2809	688.0364	735.1971	762.0057	804.2285	940.3719	999.3176	1025.1961	1076.8214	1136.1921	1178.0335	1195.2156	1236.3273	1342.6708	1373.4609	1428.5763	1483.3245	1489.0681	1498.1701	1593.7525	1686.3617	1812.2037	2869.2276	3045.1885	3119.0394	3166.1769	3293.6472
COC1=NC(C=O)=CO1	COc1nc(C=O)co1	
InChI=1S/C5H5NO3/c1-8-5-6-4(2-7)3-9-5/h2-3H,1H3	InChI=1S/C5H5NO3/c1-8-5-6-4(2-7)3-9-5/h2-3H,1H3
