17
gdb 71178	2.60232	1.66584	1.33143	4.2353	75.42	-0.256	0.016	0.272	1000.2993	0.136733	-380.82147	-380.813923	-380.812978	-380.85334	29.368	
C	 0.0232100875	 1.5786936677	 0.0302810462	-0.517144
C	 0.0412408428	 0.075816496	 0.0683362244	 0.277782
C	-1.2228972398	-0.7918584234	 0.226099703	-0.195904
N	-0.3940686353	-1.8887273764	 0.8261454766	-0.136894
C	 0.8925089365	-1.8601498059	 0.0576783946	-0.050082
C	 0.6621929221	-0.8957209523	 1.1569384449	-0.115401
C	 0.8571188631	-0.7448919282	-0.9951056054	-0.192274
C	 0.2704919331	-0.9766400766	-2.3099182653	 0.269703
N	-0.2087779529	-1.1477928196	-3.3483313009	-0.334176
H	 1.0359177787	 1.9950869627	 0.0398078543	 0.126165
H	-0.477359635	 1.9346356521	-0.8772569354	 0.141829
H	-0.5164457354	 1.9845620296	 0.8921263239	 0.129968
H	-1.8975226697	-0.412318713	 0.9977436193	 0.115234
H	-1.7901470239	-1.0622624508	-0.6708159716	 0.128273
H	 1.4734535073	-2.771532015	 0.0352650691	 0.117411
H	 1.1082321686	-0.7628635451	 2.1331829815	 0.108811
H	 1.8579894623	-0.3196055918	-1.1121605391	 0.126698
122.9146	146.3134	212.9041	274.3323	292.9074	404.5921	432.7429	546.8068	556.8862	630.367	729.7281	782.6677	807.3266	826.0739	862.6999	926.297	942.5755	974.8546	989.1778	1005.2493	1019.1265	1058.0696	1122.6081	1141.0335	1151.4296	1179.6265	1203.4652	1235.9062	1268.126	1309.8801	1337.3585	1366.7262	1418.6129	1487.9078	1493.3236	1510.6051	2350.1506	3030.0294	3048.7006	3077.592	3097.9418	3101.5693	3111.512	3207.2361	3223.0111
CC12CN3C(C13)C2C#N	C[C@]12CN3[C@H]([C@@H]13)[C@H]2C#N	
InChI=1S/C7H8N2/c1-7-3-9-5(6(7)9)4(7)2-8/h4-6H,3H2,1H3	InChI=1S/C7H8N2/c1-7-3-9-5(6(7)9)4(7)2-8/h4-6H,3H2,1H3/t4-,5+,6+,7-,9?/m1/s1
