17
gdb 90146	3.59355	1.50854	1.31574	2.1294	72.04	-0.2389	-0.0045	0.2344	986.4478	0.136572	-421.778583	-421.771448	-421.770504	-421.809835	29.044	
O	-0.0410117107	 1.4673359592	-0.0999969888	-0.430694
C	 0.1210109966	 0.0853313357	 0.0223225285	 0.076407
C	 0.4057086648	-0.5288485706	 1.4589755699	-0.347138
C	-0.8876098404	-1.3360339144	 1.294698806	 0.287918
O	-1.9550149644	-0.3792152962	 1.0804495474	-0.315875
C	-1.1594574114	-0.7792576315	-0.0418175169	 0.271132
C	-1.7501165471	-1.8608047397	-0.9236705587	-0.380238
C	-1.8301819631	-3.0351367813	 0.0542143243	-0.057266
C	-1.3220174869	-2.7564987791	 1.2642544399	-0.177671
H	-0.8037636228	 1.6953702052	 0.4467268491	 0.288724
H	 0.8774858678	-0.2195559627	-0.7050714162	 0.098699
H	 1.3088409873	-1.1430082113	 1.4757779629	 0.113674
H	 0.4258641098	 0.1800972797	 2.2899702117	 0.108714
H	-2.7324451481	-1.5997797877	-1.3332023953	 0.130512
H	-1.0983547927	-2.0870955931	-1.7766819238	 0.121828
H	-2.3070036516	-3.9722132581	-0.2153897048	 0.104528
H	-1.2755212771	-3.4397339342	 2.1029846746	 0.106748
117.4811	226.2906	273.5857	296.4067	439.762	445.883	484.5318	503.5399	584.0531	686.6325	718.456	741.4761	761.7127	827.9216	861.3715	868.6811	913.4577	932.074	948.6377	968.1795	1023.1734	1102.371	1119.7851	1132.4156	1138.0277	1187.8955	1200.6282	1236.9983	1259.5839	1303.7476	1321.9393	1370.7711	1385.2365	1438.78	1460.5686	1472.6346	1630.2735	3034.6332	3066.4973	3071.3979	3087.147	3127.9263	3183.013	3216.4089	3776.1228
OC1CC23OC12CC=C3	O[C@H]1C[C@@]23O[C@@]12CC=C3	
InChI=1S/C7H8O2/c8-5-4-6-2-1-3-7(5,6)9-6/h1-2,5,8H,3-4H2	InChI=1S/C7H8O2/c8-5-4-6-2-1-3-7(5,6)9-6/h1-2,5,8H,3-4H2/t5-,6+,7-/m0/s1
