18
gdb 30925	2.0667	1.85257	1.02592	2.3134	75.89	-0.1804	0.0425	0.223	1160.8177	0.148094	-435.284296	-435.274627	-435.273682	-435.319457	33.694	
C	 0.1165309188	 1.342435065	-0.2477368628	-0.257717
O	-0.2950730016	 0.0452196255	 0.1982713999	-0.283815
C	 0.5309430583	-0.5192702158	 1.1118923464	 0.282071
C	 1.8763278805	-0.8034801901	 1.139778541	 0.154429
N	 2.8450790699	-0.4866665357	 0.1631122149	-0.604767
N	 2.1960765732	-1.4188977764	 2.324873123	-0.320276
C	 1.0663583869	-1.5189483275	 2.9926652879	-0.015916
N	 0.0135684154	-0.9932297358	 2.3051253147	-0.049179
C	-1.377449161	-0.9552933699	 2.7013042199	-0.333594
H	 1.1340260395	 1.3122827254	-0.6499872074	 0.149864
H	-0.588561713	 1.6366471969	-1.0274938999	 0.126309
H	 0.0797116728	 2.0664196029	 0.5753123166	 0.11669
H	 2.7084795209	-1.0202186625	-0.6897312269	 0.24117
H	 3.761663865	-0.7198789211	 0.5300819578	 0.244321
H	 0.9428604486	-1.964830692	 3.9684256803	 0.121191
H	-1.4572172814	-1.3117393398	 3.7299090435	 0.139475
H	-1.7666526304	 0.0650992944	 2.6484100226	 0.143713
H	-1.9907683725	-1.5915689134	 2.0558611286	 0.146031
48.909	80.5553	142.8231	164.0932	178.5176	188.9928	266.1172	292.2285	312.2556	424.8827	539.8327	586.1458	652.5761	700.877	727.8801	763.1454	789.8161	870.236	1038.0417	1062.1186	1079.6438	1137.1832	1153.7799	1183.1004	1215.9588	1255.9257	1293.2896	1342.754	1416.6486	1438.4635	1457.4425	1478.9194	1484.4766	1492.9502	1511.6916	1522.8984	1538.1825	1639.8064	1665.633	3020.0813	3044.3702	3093.2229	3105.9265	3136.0993	3139.8519	3244.2597	3497.838	3585.1191
COC1=C(N)N=CN1C	COc1c(N)ncn1C	
InChI=1S/C5H9N3O/c1-8-3-7-4(6)5(8)9-2/h3H,6H2,1-2H3	InChI=1S/C5H9N3O/c1-8-3-7-4(6)5(8)9-2/h3H,6H2,1-2H3
