15
gdb 123343	6.96933	0.72011	0.67992	3.2262	73.4	-0.2667	-0.0429	0.2237	1560.9151	0.111241	-416.753584	-416.745255	-416.744311	-416.787765	29.721	
C	-0.0159957583	-1.2191465965	-0.0671615394	-0.434853
C	-0.0340991761	-0.0204914549	 0.0177311083	 0.2921
C	-0.0158389869	 1.4325682159	 0.1179572966	-0.34739
C	 1.4095395155	 2.016154605	-0.0528530264	-0.309796
C	 1.4264290959	 3.5059694281	 0.0290101834	 0.257392
C	 1.9859321372	 4.362623586	 0.9235091566	-0.056688
O	 1.7148243043	 5.6155816615	 0.5669233701	-0.160048
N	 0.9325743084	 5.5257199398	-0.6274522792	 0.000618
N	 0.7902061277	 4.3087090338	-0.9008340756	-0.168983
H	-0.0180790324	-2.2781912144	-0.1432001325	 0.198665
H	-0.67072047	 1.870399997	-0.6442821988	 0.156997
H	-0.4208987899	 1.7448130977	 1.0883715771	 0.135167
H	 2.0686894539	 1.6009799	 0.7146519248	 0.125102
H	 1.8062037905	 1.6954281524	-1.0215729827	 0.14151
H	 2.5778059901	 4.2201717385	 1.8129143676	 0.170207
54.6538	65.0011	97.4793	186.1697	310.2328	361.3184	377.9638	476.7161	622.8976	624.8241	640.855	649.6596	704.3388	757.0345	770.8568	852.0346	968.3335	980.9443	1012.6824	1020.7967	1049.5643	1146.2021	1184.3854	1256.8363	1284.9848	1304.6882	1348.1011	1375.0904	1467.1201	1475.3507	1488.2841	1621.8861	2241.0128	3031.4208	3057.1444	3066.5552	3105.4478	3283.1486	3507.1019
C#CCCC1=CON=N1	C#CCCc1conn1	
InChI=1S/C6H6N2O/c1-2-3-4-6-5-9-8-7-6/h1,5H,3-4H2	InChI=1S/C6H6N2O/c1-2-3-4-6-5-9-8-7-6/h1,5H,3-4H2
