21
gdb 118821	2.11288	1.16833	0.85084	3.2203	81.	-0.256	-0.0405	0.2155	1440.2201	0.178941	-424.225868	-424.215455	-424.214511	-424.261883	37.031	
C	 0.2990819674	 1.5674916035	 0.0795831337	-0.384254
C	 0.4082172458	 0.0420809312	 0.0119193179	-0.166791
C	 0.3518675778	-0.6073289329	 1.4048062722	-0.260416
C	 0.5435769212	-2.1122055729	 1.3600526734	 0.386655
C	-0.5732555236	-2.9280955038	 0.739978601	-0.460604
O	 1.8602421044	-2.5435327086	 1.019672039	-0.264273
C	 1.4282126162	-2.8127278534	 2.3484775114	-0.101891
C	 2.108240676	-2.1093862189	 3.4770647792	 0.139246
O	 2.802040281	-1.1290650353	 3.376008348	-0.25055
H	 1.1113240573	 1.9945708536	 0.6774366059	 0.124174
H	 0.3487991414	 2.0127295776	-0.9188102802	 0.113068
H	-0.647177439	 1.8789586712	 0.536415241	 0.1118
H	-0.3942193181	-0.3506152003	-0.624217573	 0.093991
H	 1.3530576963	-0.2427242324	-0.4649181706	 0.119445
H	 1.1332663724	-0.1658359549	 2.0276235907	 0.138064
H	-0.6134443981	-0.387507485	 1.8797804794	 0.093374
H	-0.7522214482	-2.6119837818	-0.2921305612	 0.137881
H	-0.3190933432	-3.9904057628	 0.7286803583	 0.129656
H	-1.5053124319	-2.7935082505	 1.2983853802	 0.126141
H	 1.1984885826	-3.8593687812	 2.5595644452	 0.095716
H	 1.9057547221	-2.5772761524	 4.4676640484	 0.079567
54.2867	78.3031	122.3032	132.5215	177.3868	214.8769	243.1742	248.2012	301.9099	338.9174	369.7039	472.4171	502.4255	726.1502	745.681	774.7472	804.5199	874.2333	888.5204	928.805	955.8746	974.2835	1020.7976	1047.9399	1084.7652	1096.2442	1135.4204	1140.1912	1238.2776	1289.5413	1300.9724	1331.1384	1349.1024	1398.063	1410.7359	1413.1358	1425.0691	1439.4074	1472.9603	1487.9219	1493.5868	1497.8876	1500.6343	1510.6105	1822.5808	2870.9045	3024.5341	3029.4445	3031.9529	3043.4978	3066.2106	3090.1963	3097.4324	3104.5567	3109.9066	3112.7069	3128.4344
CCCC1(C)OC1C=O	CCC[C@@]1(C)O[C@H]1C=O	
InChI=1S/C7H12O2/c1-3-4-7(2)6(5-8)9-7/h5-6H,3-4H2,1-2H3	InChI=1S/C7H12O2/c1-3-4-7(2)6(5-8)9-7/h5-6H,3-4H2,1-2H3/t6-,7+/m0/s1
