20
gdb 80793	1.9541	1.80678	1.12524	1.0864	87.86	-0.2162	0.03	0.2462	1165.4446	0.169057	-365.902762	-365.893705	-365.892761	-365.935986	35.238	
C	-0.273367415	 1.5592806081	-0.0911905184	-0.449752
C	 0.042886492	 0.0779649666	-0.0152981521	 0.028589
C	 1.2776903083	-0.5738741961	-0.7093949114	-0.060942
C	 2.2005641608	 0.0719173373	 0.3576325762	-0.299267
C	 0.965175456	-0.5300720771	 1.1030083562	 0.263293
C	 0.7242811033	-0.6081862787	 2.5137588071	 0.068465
C	 0.5268764479	-0.6652504085	 3.699217828	-0.363459
N	 1.0147741027	-1.7674420133	 0.1966579544	-0.132264
C	 2.0739510375	-2.7474788336	 0.4129583891	-0.337907
H	 0.6002552074	 2.2065664017	 0.0147589021	 0.119427
H	-0.7438208993	 1.7925903337	-1.0525706264	 0.122316
H	-0.9855067326	 1.8315836941	 0.6950325233	 0.129895
H	-0.85349346	-0.5329932232	-0.1447946342	 0.088282
H	 1.4581762084	-0.7019698842	-1.7774640517	 0.081288
H	 3.1607411129	-0.4062674221	 0.5451136524	 0.108217
H	 2.3143830729	 1.156709158	 0.3613649071	 0.102025
H	 0.3487499419	-0.7176017237	 4.744911197	 0.181388
H	 1.8258008705	-3.3234878211	 1.3099568595	 0.130808
H	 2.0743348674	-3.4377349075	-0.4370665561	 0.121714
H	 3.0968914169	-2.3605491206	 0.5332042778	 0.097882
109.6559	150.1808	172.084	192.3721	206.7272	262.1392	337.8009	423.1179	498.1412	505.7445	538.8605	560.0443	597.6919	625.5578	661.8941	725.9904	800.8646	814.4974	835.0872	923.1685	940.9698	1005.7413	1054.9044	1063.68	1087.771	1110.5478	1160.123	1167.0308	1174.6982	1185.7214	1224.701	1229.2651	1248.2241	1279.7803	1385.876	1418.5248	1439.8848	1481.227	1495.2321	1497.8369	1499.7837	1535.677	2231.3718	2985.6855	3038.2574	3066.6992	3085.1065	3088.6152	3096.1225	3102.7469	3111.3246	3122.3183	3150.3073	3500.2606
CC1C2CC1(C#C)N2C	C[C@H]1[C@H]2C[C@]1(C#C)N2C	
InChI=1S/C8H11N/c1-4-8-5-7(6(8)2)9(8)3/h1,6-7H,5H2,2-3H3	InChI=1S/C8H11N/c1-4-8-5-7(6(8)2)9(8)3/h1,6-7H,5H2,2-3H3/t6-,7+,8-/m0/s1
