20
gdb 88558	3.41414	1.21147	1.13249	2.3852	79.82	-0.2256	0.0678	0.2934	1174.3206	0.170594	-403.065612	-403.057164	-403.05622	-403.098965	32.362	
C	-0.4187252346	 1.3408416131	-0.0174435465	-0.316323
N	-0.0241127082	-0.058802647	 0.0950439143	-0.079407
C	 1.3311908633	-0.4114884032	-0.2894990144	-0.258541
C	 0.9265762471	-0.4485163538	 1.147949352	-0.121575
C	 1.4641065213	 0.5138744172	 2.1368078081	 0.502597
C	 2.4812868094	 1.6032868628	 1.9749533059	-0.333437
C	 2.706486237	 0.5222771036	 3.0129115636	-0.203735
C	 1.7403633778	 0.7369519987	 4.1678056009	-0.087963
O	 0.61085428	 0.8218613849	 3.258972819	-0.331073
H	 0.4036744042	 2.0581454878	 0.1163121989	 0.110041
H	-0.8521173706	 1.4980671633	-1.0102499584	 0.118604
H	-1.1859114141	 1.5558477551	 0.7319200667	 0.136599
H	 1.4503662256	-1.3400881387	-0.8420886214	 0.115683
H	 1.9989160657	 0.3902539552	-0.60150699	 0.105849
H	 0.6806174036	-1.4142355073	 1.5868713638	 0.093984
H	 3.1299025592	 1.5311901887	 1.1086287084	 0.117406
H	 2.2253631512	 2.6154709892	 2.2782328537	 0.114936
H	 3.5697971031	-0.1291043993	 3.0059489291	 0.103808
H	 1.6385944825	-0.1325345901	 4.8273073766	 0.109377
H	 1.8608944263	 1.6451058997	 4.7708619198	 0.103171
52.0553	126.527	180.8952	215.8757	247.7249	351.8432	383.9005	410.181	458.9933	492.6495	691.9907	753.9361	764.2591	834.0882	880.077	901.107	947.2317	958.1743	973.5261	1004.1375	1013.8825	1034.2247	1047.3976	1078.9115	1091.5006	1126.0545	1132.76	1135.0306	1148.3209	1169.2236	1182.7938	1207.5888	1274.9445	1329.5365	1338.8215	1377.1616	1428.5509	1449.1575	1483.4257	1490.3239	1499.3987	1508.0165	1521.9709	2998.0307	3021.0056	3068.3445	3075.016	3091.93	3111.0719	3113.1104	3114.0639	3175.3393	3202.6499	3213.5324
CN1CC1C12CC1CO2	CN1C[C@H]1[C@]12C[C@H]1CO2	
InChI=1S/C7H11NO/c1-8-3-6(8)7-2-5(7)4-9-7/h5-6H,2-4H2,1H3	InChI=1S/C7H11NO/c1-8-3-6(8)7-2-5(7)4-9-7/h5-6H,2-4H2,1H3/t5-,6-,7-,8?/m0/s1
