15
gdb 99452	3.26236	0.71668	0.60644	4.2982	78.03	-0.2689	-0.0798	0.1891	1751.8427	0.110287	-416.770043	-416.760033	-416.759088	-416.806928	32.87	
C	-0.1922332255	 1.4726062066	 0.0992502395	-0.332817
N	 0.2142255586	 0.0769547399	-0.0630733679	-0.265516
C	 0.7659042196	-0.5253937229	 1.1448327615	-0.303964
C	-0.1859916891	-0.5470469374	 2.2923996016	 0.284005
N	-0.9730866361	-0.5107721387	 3.1376917506	-0.316931
C	 1.254043534	-1.8815355287	 0.8860774134	 0.073377
C	 1.6633801506	-2.996586648	 0.680012052	 0.128441
C	 2.1415631112	-4.3305568569	 0.3954160292	 0.020809
O	 2.8449527098	-4.9699838612	 1.1400247972	-0.214479
H	 0.6895767899	 2.0799609689	 0.3302274653	 0.134604
H	-0.60270076	 1.8265924691	-0.8490033359	 0.137597
H	-0.9401863631	 1.6362148711	 0.8898178884	 0.133479
H	-0.5623280382	-0.4869135732	-0.3927734289	 0.240547
H	 1.6194918511	 0.0929769848	 1.4591815155	 0.170521
H	 1.8070471973	-4.7315480033	-0.5818426514	 0.110326
30.0848	70.6561	85.0593	117.4059	165.262	198.3756	224.9266	265.1621	330.0382	386.7367	455.2492	525.6516	595.7894	667.2594	745.9231	855.5071	919.7052	983.5753	1019.9137	1120.0223	1152.1508	1163.3344	1188.7482	1304.9342	1324.512	1420.8839	1459.0214	1486.1145	1492.399	1519.213	1775.011	2343.8416	2349.8462	2932.7305	2993.1008	3011.1767	3074.3449	3124.741	3532.1176
CNC(C#N)C#CC=O	CN[C@@H](C#N)C#CC=O	
InChI=1S/C6H6N2O/c1-8-6(5-7)3-2-4-9/h4,6,8H,1H3	InChI=1S/C6H6N2O/c1-8-6(5-7)3-2-4-9/h4,6,8H,1H3/t6-/m1/s1
