15
gdb 7340	4.71215	1.05547	0.87149	2.3817	58.4	-0.2427	-0.0642	0.1784	1241.1185	0.116681	-436.979656	-436.970537	-436.969593	-437.014333	31.246	
N	-0.0211784918	 1.2947623854	 0.0082588494	-0.518547
C	 0.0683572803	-0.0529925642	 0.0002576879	 0.330938
O	 1.0941130336	-0.7055408461	-0.0132210028	-0.347029
C	-1.3252839847	-0.728848601	 0.0101515553	 0.284381
O	-2.3291442867	-0.0491877317	 0.0231113685	-0.315912
C	-1.3202502286	-2.2323473958	 0.0025798582	-0.277387
C	-2.7160542525	-2.8354917477	 0.0128171841	-0.081934
O	-2.5593910625	-4.2451857315	 0.0042700692	-0.421244
H	 0.8133649806	 1.8557414486	 0.0034659088	 0.269811
H	-0.9340518299	 1.7201839688	 0.0198060602	 0.278856
H	-0.7503258341	-2.57413738	-0.8702992096	 0.154373
H	-0.7338855504	-2.582786558	 0.8610194965	 0.154353
H	-3.2616624916	-2.4906281201	 0.9034560469	 0.100335
H	-3.2784542907	-2.4817767395	-0.8637946084	 0.100341
H	-3.4344735709	-4.6435257673	 0.0103828459	 0.288664
58.6744	66.1922	103.3178	132.32	271.7489	280.5904	309.9937	336.644	403.6423	416.9652	533.0931	610.6663	629.3588	706.3975	820.6301	821.6183	1009.5663	1056.5787	1064.7275	1090.2314	1115.2664	1199.503	1255.5321	1292.3297	1331.5983	1386.8748	1432.5912	1470.2665	1523.4538	1586.9421	1791.8614	1808.917	2989.1512	3016.8327	3048.6293	3076.4759	3596.9552	3738.5837	3832.3658
NC(=O)C(=O)CCO	NC(=O)C(=O)CCO	
InChI=1S/C4H7NO3/c5-4(8)3(7)1-2-6/h6H,1-2H2,(H2,5,8)	InChI=1S/C4H7NO3/c5-4(8)3(7)1-2-6/h6H,1-2H2,(H2,5,8)
