17
gdb 72771	2.78249	1.80342	1.50679	2.474	73.22	-0.2472	-0.0171	0.2301	932.4972	0.135779	-421.76348	-421.756176	-421.755231	-421.794857	28.995	
C	-0.2149046369	 1.5916618739	-0.1602835258	-0.454234
C	 0.0452500031	 0.1023850418	-0.0053071017	 0.402152
O	-1.101130896	-0.5584747466	 0.6477831797	-0.333222
C	-0.3709138912	-0.6851648468	 1.9065052096	-0.149993
C	 0.89233099	-0.4114959934	 1.1264879917	 0.103425
C	 2.0106866684	-1.0273707304	 0.7408255904	-0.208748
C	 2.04295066	-1.0113674144	-0.7607537129	 0.006275
O	 0.9917414631	-1.8716811631	-1.2641595036	-0.245622
C	 0.7367784189	-0.4789180339	-1.2384142837	-0.04492
H	 0.6676833288	 2.104189107	-0.556681603	 0.124724
H	-1.0467489242	 1.749683029	-0.8551953728	 0.131425
H	-0.4770851937	 2.0474128715	 0.797814955	 0.125337
H	-0.6858694086	 0.0791644644	 2.6277777393	 0.10866
H	-0.4711930654	-1.6802898289	 2.3499281459	 0.126481
H	 2.6449188461	-1.6734899528	 1.3354534364	 0.111442
H	 2.948559237	-0.9992080705	-1.3590576248	 0.10363
H	 0.6216277607	-0.0030700267	-2.2094575998	 0.093187
164.1489	199.8117	207.3108	244.4893	335.7967	424.2806	450.0194	534.1941	605.6506	683.6802	723.6089	821.1698	827.0694	840.7788	873.8793	878.4931	914.5051	946.1403	976.4609	1009.9917	1028.0033	1090.6778	1096.4414	1115.4269	1136.9635	1196.2355	1219.8461	1253.0587	1294.2346	1315.4772	1328.1522	1388.0105	1402.5549	1484.2564	1486.3005	1510.4737	1705.9685	3020.2327	3035.9785	3086.958	3105.1837	3120.6419	3141.5112	3168.4248	3207.6645
CC12OCC1=CC1OC21	C[C@]12OC[C]1[CH][C@H]1O[C@@H]21	
InChI=1S/C7H8O2/c1-7-4(3-8-7)2-5-6(7)9-5/h2,5-6H,3H2,1H3	InChI=1S/C7H8O2/c1-7-4(3-8-7)2-5-6(7)9-5/h2,5-6H,3H2,1H3/t5-,6-,7+/m1/s1
