15
gdb 17987	3.98064	1.80005	1.52285	5.3501	64.72	-0.2636	0.0223	0.2859	842.1252	0.12025	-362.637502	-362.630764	-362.629819	-362.668996	24.893	
N	 0.1911280423	-1.1405322045	 0.2054061116	-0.325824
C	 0.1087846921	 0.0081706628	 0.105028388	 0.28798
C	-0.0099201584	 1.450241751	-0.0046755288	-0.176845
C	-0.4006121439	 2.2600149913	 1.2849547781	-0.253302
C	 0.8679415726	 3.1393535336	 1.1235644543	-0.081962
C	 2.1222896825	 2.5595906063	 1.7995683487	-0.076689
O	 2.3964073964	 1.7104908867	 0.6543404177	-0.273525
C	 1.3160295417	 2.2760058029	-0.0891185267	 0.116942
H	-0.6719988848	 1.6932460573	-0.8411850259	 0.125672
H	-1.3444985163	 2.7954707066	 1.1744407219	 0.122062
H	-0.4371713767	 1.6704647835	 2.2031506637	 0.12808
H	 0.7431953865	 4.2201497988	 1.1031753327	 0.089366
H	 2.9352482984	 3.2781911593	 1.9573410396	 0.111563
H	 1.964153837	 1.9820234795	 2.7177374572	 0.115145
H	 1.6178399707	 2.6341379348	-1.0763756421	 0.091336
57.7361	148.0304	216.9182	346.2307	370.467	519.3786	569.5623	683.489	756.3337	794.9978	844.8887	898.4549	924.7652	946.5654	993.5119	1022.8838	1039.1947	1074.4017	1091.0124	1146.599	1163.2025	1176.9888	1221.8954	1239.8681	1271.5353	1298.724	1321.468	1330.4063	1364.6879	1482.3392	1521.8069	2357.6632	3021.4805	3066.1921	3069.9886	3078.4861	3082.9467	3128.7498	3139.6567
N#CC1CC2COC12	N#C[C@H]1C[C@H]2CO[C@@H]12	
InChI=1S/C6H7NO/c7-2-4-1-5-3-8-6(4)5/h4-6H,1,3H2	InChI=1S/C6H7NO/c7-2-4-1-5-3-8-6(4)5/h4-6H,1,3H2/t4-,5+,6+/m1/s1
