20
gdb 75903	2.40064	1.57266	1.2154	5.021	74.91	-0.2428	0.059	0.3018	1111.4328	0.170468	-440.348795	-440.339406	-440.338462	-440.382635	34.773	
C	-0.159369539	 1.4148910711	 0.0116657198	-0.351244
N	-0.1252963523	-0.0305886426	 0.0221150446	-0.143143
C	 0.2059517099	-0.7319883476	-1.1122872874	 0.481828
O	 0.3636260182	-0.3078898928	-2.2260056497	-0.408647
O	 0.3376510931	-2.0553290972	-0.7871143233	-0.249263
C	-0.0738820646	-2.2459605697	 0.5682709046	-0.115655
C	 0.0057482039	-0.8494520796	 1.2300824449	 0.24562
C	 1.3685657564	-0.6348152368	 1.9139923762	-0.425997
C	-1.1445448345	-0.6186031597	 2.213321136	-0.437615
H	 0.7217624411	 1.8563079651	 0.4951966012	 0.122431
H	-0.1750847509	 1.7298044284	-1.0328935088	 0.169605
H	-1.0568565365	 1.7912929186	 0.5132805169	 0.125422
H	-1.099487449	-2.6344475853	 0.5788425768	 0.110436
H	 0.5910607596	-2.9754573708	 1.0356351839	 0.121264
H	 2.1872322895	-0.8546423577	 1.2220758632	 0.134529
H	 1.4807111635	 0.3958028424	 2.2630503231	 0.122789
H	 1.4666235946	-1.2924717683	 2.7835957258	 0.120641
H	-1.1038277932	-1.3537400547	 3.0236380483	 0.125164
H	-1.0853332216	 0.3747359287	 2.6687508776	 0.124837
H	-2.1108693083	-0.7112399614	 1.7096960465	 0.127
84.7881	123.8339	168.9918	193.746	235.4196	264.891	284.2604	322.4519	335.4528	370.7061	459.994	557.8424	579.79	687.6186	725.0972	769.7529	859.0343	930.1212	944.1693	973.7805	1002.5796	1037.0966	1082.8676	1123.3507	1162.3937	1184.3038	1209.3594	1234.6329	1268.9646	1300.9801	1382.2411	1398.1467	1410.6342	1421.3181	1451.9861	1480.9419	1485.0419	1498.7058	1502.0572	1507.5114	1517.7817	1524.1612	1869.7051	3015.0484	3029.6364	3035.2734	3041.28	3074.7331	3103.7323	3106.719	3111.2648	3116.3814	3118.7377	3145.5002
CN1C(=O)OCC1(C)C	CN1C(=O)OCC1(C)C	
InChI=1S/C6H11NO2/c1-6(2)4-9-5(8)7(6)3/h4H2,1-3H3	InChI=1S/C6H11NO2/c1-6(2)4-9-5(8)7(6)3/h4H2,1-3H3
