15
gdb 50249	3.05728	1.37736	1.09772	3.8435	68.62	-0.2565	-0.0072	0.2493	1075.0253	0.113357	-453.935943	-453.928482	-453.927537	-453.968713	27.301	
N	-0.3634948219	 1.1640051212	-0.4144868579	-0.537766
C	-0.1894800343	-0.0127176473	-0.0312447784	 0.452261
O	 0.8864243651	-0.6194441384	 0.606604035	-0.264386
C	 0.2350136376	-1.9209480597	 0.593782609	 0.085751
C	-0.5968891848	-2.1824853427	 1.8683379324	-0.19791
N	-1.7375033417	-1.5455520807	 1.1914849826	-0.044731
C	-2.8351795412	-0.9586956337	 1.7424744919	 0.135398
O	-3.1498753764	-1.079562067	 2.9055355153	-0.313674
C	-1.0210859	-1.2864898506	-0.0647398652	-0.16666
H	 0.4339428783	 1.7625273112	-0.1926337646	 0.239308
H	 0.8654900817	-2.695373567	 0.1652685349	 0.117452
H	-0.7701651994	-3.2385598681	 2.0970519458	 0.133859
H	-0.2487252616	-1.660455064	 2.7633000189	 0.14767
H	-3.4176055962	-0.3826092124	 0.9970600389	 0.090535
H	-1.5116569253	-1.5857415507	-0.9898270787	 0.122892
53.7262	118.5134	198.704	256.4898	326.397	383.8452	442.2507	519.5023	640.5524	761.7288	789.1814	835.9816	867.533	873.0162	926.3545	981.9788	993.4592	1009.0866	1033.3298	1054.6882	1142.3652	1154.0825	1183.6884	1214.1592	1246.337	1273.3219	1311.4623	1335.041	1384.5837	1433.4219	1497.619	1795.053	1831.7143	2949.1111	3054.5343	3113.341	3130.3371	3161.4113	3480.1324
N=C1OC2CN(C=O)C12	[NH][C]1O[C@H]2CN(C=O)[C@@H]12	
InChI=1S/C5H6N2O2/c6-5-4-3(9-5)1-7(4)2-8/h2-4,6H,1H2	InChI=1S/C5H6N2O2/c6-5-4-3(9-5)1-7(4)2-8/h2-4,6H,1H2/t3-,4+/m0/s1
