17
gdb 18888	4.41471	2.32253	1.96717	1.9108	69.61	-0.2196	0.0762	0.2958	738.9624	0.144149	-326.673242	-326.667185	-326.666241	-326.702895	25.234	
C	-0.015362573	 1.4584363731	 0.0750362235	-0.496466
C	-0.0442650578	-0.0462320604	 0.0084932797	 0.319375
C	-1.2497550074	-0.8121618814	-0.5089337991	-0.292083
C	-0.7021518828	-2.2136820904	-0.3858140401	-0.04738
C	 0.2368634044	-2.3185264995	 0.7606502579	-0.049375
C	 0.6847496527	-0.8808872095	 1.0612946998	-0.150836
C	 1.1941527158	-0.8273121476	-0.3554676431	-0.057478
N	 0.775627847	-2.2545154246	-0.6382566292	-0.165674
H	 0.9482128073	 1.8197412749	 0.4485114193	 0.120443
H	-0.1747396438	 1.901118298	-0.9146419327	 0.121625
H	-0.7939966617	 1.8430991503	 0.7431132628	 0.120819
H	-2.144758522	-0.6653626238	 0.106515833	 0.10365
H	-1.4914562586	-0.5476477879	-1.5446752054	 0.105398
H	-1.2444215279	-3.0801022743	-0.7475665843	 0.093977
H	 0.3804629347	-3.1910188578	 1.3874354104	 0.09257
H	 1.0974240769	-0.4880689877	 1.9798936339	 0.088737
H	 2.0972939862	-0.4260370715	-0.7967117463	 0.092699
213.1756	247.881	289.7689	408.2826	540.8934	574.0468	704.2166	745.9661	751.7526	793.7996	806.1595	866.1211	876.6774	909.5294	927.889	962.4764	969.0361	993.6329	1018.9824	1041.2557	1056.4846	1082.4435	1111.3144	1161.3105	1166.4625	1197.6037	1229.9906	1247.0998	1290.1804	1328.2092	1363.1972	1403.4486	1421.4594	1487.9931	1491.8926	1502.2271	3026.0316	3037.3121	3079.2845	3086.5858	3098.2503	3172.4154	3184.7416	3193.0247	3213.5174
CC12CC3C4C1C2N34	C[C@]12C[C@@H]3[C@@H]4[C@H]1[C@H]2N34	
InChI=1S/C7H9N/c1-7-2-3-5-4(7)6(7)8(3)5/h3-6H,2H2,1H3	InChI=1S/C7H9N/c1-7-2-3-5-4(7)6(7)8(3)5/h3-6H,2H2,1H3/t3-,4+,5-,6-,7+,8?/m1/s1
