16
gdb 44030	3.28579	1.6834	1.5396	0.9749	73.94	-0.2211	-0.0419	0.1792	898.1096	0.123898	-400.587137	-400.58041	-400.579466	-400.618217	27.257	
O	-0.0343185605	-0.0214702796	-0.2383200428	-0.267301
C	-0.026083793	 1.1591479444	-0.0946519864	 0.320231
C	-1.1499869527	 2.220947478	 0.2904079098	-0.451244
C	 0.0055214513	 3.043281607	 0.8909308183	 0.269326
C	 0.7547121152	 2.8619502645	 2.2130640533	-0.292521
C	 1.8360278219	 3.1080601862	 1.1581281753	-0.040787
N	 0.9902975042	 4.2182803404	 0.454208135	-0.196416
C	 1.1677193916	 3.5022726581	-0.8799538428	-0.208194
C	 1.0480972848	 2.2911719529	 0.0471288453	 0.033398
H	-1.6045548112	 2.6581012737	-0.6030924224	 0.148599
H	-1.9410401401	 1.8742367984	 0.9589956916	 0.141084
H	 0.6221032009	 3.6467741821	 2.9618311621	 0.116377
H	 0.7301539097	 1.8646658025	 2.6602809749	 0.115089
H	 2.9142584561	 3.2505681041	 1.2634635937	 0.093488
H	 0.3604350058	 3.7015454447	-1.5916498007	 0.108412
H	 2.1396482961	 3.6836414527	-1.348334804	 0.110461
77.9654	271.0193	323.9075	392.0286	429.8094	435.9462	531.4317	548.6536	657.8066	712.6143	789.3767	823.4562	845.6011	873.7766	906.0254	916.0648	946.3123	990.2939	1013.2798	1020.2783	1070.7434	1105.4026	1128.482	1133.2635	1140.8525	1176.2534	1184.6429	1210.5117	1229.0656	1263.6751	1291.6487	1428.4825	1491.9996	1520.4378	1881.5963	3044.9686	3058.6383	3069.7628	3090.9416	3103.1326	3125.0119	3129.7782
O=C1CC23CC4N2CC134	O=C1C[C@]23C[C@@H]4N2C[C@]134	
InChI=1S/C7H7NO/c9-5-2-6-1-4-7(5,6)3-8(4)6/h4H,1-3H2	InChI=1S/C7H7NO/c9-5-2-6-1-4-7(5,6)3-8(4)6/h4H,1-3H2/t4-,6-,7-/m0/s1
