17
gdb 97759	7.04551	0.55311	0.54394	2.9667	79.97	-0.2406	-0.0239	0.2167	1970.6392	0.133221	-421.793546	-421.783925	-421.782981	-421.830297	33.387	
O	 0.0150414318	 1.4136195838	 0.9565477334	-0.408
C	 0.0503530174	 0.3775661239	-0.0175623757	-0.214595
C	-1.2615541282	-0.2506419955	-0.1111811513	 0.11133
C	-2.3416861158	-0.7762559135	-0.197952539	 0.064975
C	-3.6356688792	-1.415944062	-0.3108249648	-0.174672
C	-4.2033163835	-1.6601183092	-1.7560005252	-0.345018
C	-4.4973496351	-3.1095717702	-1.3393789703	 0.396943
O	-5.1372973036	-3.9952302908	-1.8242054984	-0.283475
C	-3.7160706818	-2.9592673003	-0.024991401	-0.345052
H	 0.894111726	 1.8046519502	 0.990593049	 0.290366
H	 0.3320560784	 0.7713324461	-1.0081136645	 0.116569
H	 0.7986919374	-0.3890786768	 0.2428539697	 0.11643
H	-4.3690405371	-0.8793921204	 0.2983007415	 0.117035
H	-5.058520027	-1.058033998	-2.0709142488	 0.136378
H	-3.4295709207	-1.6087053257	-2.5279241489	 0.142092
H	-2.7394274193	-3.4502379828	-0.0741746358	 0.142238
H	-4.2267420798	-3.2778138491	 0.88650321	 0.136458
20.0917	43.2112	100.0401	115.2774	203.0329	227.4069	282.0583	402.8975	439.2519	463.8167	520.5334	527.971	627.5161	671.2683	720.8051	858.2047	911.0609	943.7333	990.8739	1028.0179	1042.2181	1058.4962	1099.874	1170.8028	1182.6776	1191.1993	1230.4514	1236.4401	1247.8488	1258.7377	1352.6967	1425.878	1444.7578	1460.9974	1504.0088	1899.3558	2369.3316	2960.8928	2978.2195	3062.7791	3063.5269	3068.5539	3125.9038	3126.607	3817.9651
OCC#CC1CC(=O)C1	OCC#CC1CC(=O)C1	
InChI=1S/C7H8O2/c8-3-1-2-6-4-7(9)5-6/h6,8H,3-5H2	InChI=1S/C7H8O2/c8-3-1-2-6-4-7(9)5-6/h6,8H,3-5H2
