16
gdb 47381	2.3764	1.4597	1.17698	5.1785	68.69	-0.2527	-0.0419	0.2107	1078.4597	0.124912	-437.914614	-437.906639	-437.905695	-437.947682	29.296	
O	-0.0725178923	-0.0568093673	 0.3273475924	-0.285245
C	-0.0489585827	 1.1169578364	 0.0546361429	 0.381557
C	-1.3296785977	 1.9481148044	-0.029700461	-0.175091
O	-1.2875842938	 2.9701003707	-1.010556284	-0.230655
C	-0.175146225	 3.8233424776	-0.8825754489	-0.085053
C	 1.1397233236	 3.0563944147	-1.1366092582	-0.183445
C	 1.2553279726	 1.8881524727	-0.1264087323	-0.327736
C	 1.1955818456	 2.5720575556	-2.519545343	 0.28518
N	 1.2536756031	 2.1920069396	-3.6089988004	-0.310765
H	-2.165150043	 1.2908733502	-0.2753167621	 0.150844
H	-1.511259201	 2.3781590187	 0.9729773904	 0.115513
H	-0.3079403467	 4.6217484743	-1.61570211	 0.138952
H	-0.1295460383	 4.2741121709	 0.1230765838	 0.100047
H	 1.9837064001	 3.7420443225	-0.9946863093	 0.134431
H	 1.4974709033	 2.3180585972	 0.8552694438	 0.138565
H	 2.0522462122	 1.1880690919	-0.383283194	 0.152902
68.9577	98.0964	175.1284	237.0055	338.4229	389.8879	399.2253	450.1692	465.4228	570.4077	613.2435	723.8164	762.1532	815.28	863.1333	950.782	955.5335	982.8586	1061.4317	1116.9909	1136.4003	1182.3153	1222.7344	1255.2104	1260.0801	1310.0779	1335.8939	1359.6303	1366.8431	1406.3438	1452.7231	1464.2176	1495.1913	1832.3986	2361.7489	2942.8402	2971.5744	3027.2529	3045.5627	3111.1865	3122.9857	3128.7785
O=C1COCC(C1)C#N	O=C1COC[C@@H](C1)C#N	
InChI=1S/C6H7NO2/c7-2-5-1-6(8)4-9-3-5/h5H,1,3-4H2	InChI=1S/C6H7NO2/c7-2-5-1-6(8)4-9-3-5/h5H,1,3-4H2/t5-/m0/s1
