16
gdb 13919	3.50163	1.88011	1.53775	3.2576	65.12	-0.2287	-0.0323	0.1964	866.3551	0.129851	-383.725911	-383.71852	-383.717576	-383.758264	26.896	
O	-0.1084105263	 0.0038431721	 0.0396042659	-0.294002
C	-0.0882736671	 1.1973586457	-0.0205326985	 0.340005
C	-1.1456031584	 2.2907978369	-0.2765130885	-0.348461
C	 0.0283624545	 3.2689616461	-0.5790758193	-0.314058
C	 1.0447115943	 2.2552897126	 0.0117578513	 0.362885
C	 1.7679668012	 2.4965097701	 1.3618223059	-0.346171
C	 3.0323184892	 2.1013126141	 0.5739559377	-0.071023
O	 2.2785493175	 2.0002160991	-0.6559197738	-0.306443
H	-1.853328561	 2.0811556187	-1.0813216833	 0.136253
H	-1.7103312909	 2.5359559339	 0.62851011	 0.132895
H	 0.1970851356	 3.3957642037	-1.6510945804	 0.129093
H	-0.0047529466	 4.2492610324	-0.1005597996	 0.107436
H	 1.7395575076	 3.5333641002	 1.7013695939	 0.118218
H	 1.4845861079	 1.8325084095	 2.1795601871	 0.126814
H	 3.821970788	 2.8572280606	 0.5050302017	 0.108812
H	 3.4740630247	 1.1394841144	 0.8560962599	 0.117749
66.7423	79.1896	168.3539	263.508	299.5309	455.9225	513.2619	586.4631	698.6598	747.6682	780.774	845.2149	864.0584	908.5234	929.46	975.9489	1016.796	1027.5366	1055.3554	1129.2167	1151.3309	1166.9058	1186.8819	1203.6571	1224.6662	1228.3227	1254.8546	1279.0316	1353.0488	1440.6539	1476.687	1482.4311	1527.1338	1892.5317	3032.5101	3062.6561	3074.3371	3076.987	3080.2767	3118.0002	3134.2645	3138.7999
O=C1CCC11CCO1	O=C1CC[C@]21CCO2	
InChI=1S/C6H8O2/c7-5-1-2-6(5)3-4-8-6/h1-4H2	InChI=1S/C6H8O2/c7-5-1-2-6(5)3-4-8-6/h1-4H2/t6-/m1/s1
