22
gdb 115793	3.17956	1.21594	1.0685	1.0195	81.45	-0.2297	0.0777	0.3073	1232.6385	0.195172	-404.337398	-404.328426	-404.327482	-404.370653	35.094	
C	 0.0927394263	 1.4793977669	 0.0441728911	-0.474095
C	-0.0666791809	-0.0195269131	-0.008536799	 0.353773
C	-0.9720185841	-0.7342227683	 0.9267396257	-0.319611
N	 0.4984415506	-0.8188663812	 1.1005359934	-0.154224
C	 1.1221564545	-2.021885354	 0.5033499355	 0.051055
C	 1.0073179584	-3.2555863362	 1.3993547064	-0.091528
O	-0.3226439153	-3.721306289	 1.5837742952	-0.417629
C	 0.5500804891	-2.1803660517	-0.9239007883	-0.254759
C	 0.2080606016	-0.734433585	-1.3316850456	-0.276786
H	 1.0938925975	 1.7785212803	-0.2867299529	 0.11603
H	-0.6368240575	 1.9716698854	-0.6091396534	 0.11543
H	-0.053100533	 1.8515576029	 1.0614665602	 0.124077
H	-1.475035025	-0.1758937748	 1.7122290067	 0.108006
H	-1.518396883	-1.6012562389	 0.569509637	 0.121888
H	 2.1941577075	-1.7877755503	 0.436596297	 0.075805
H	 1.5552903341	-4.0828563552	 0.9343161032	 0.107218
H	 1.48634385	-3.042826411	 2.3654023095	 0.098924
H	-0.7586249262	-3.1117690417	 2.1863574895	 0.294278
H	 1.2669150281	-2.6506460804	-1.6018353791	 0.098075
H	-0.3392174287	-2.8157971025	-0.9043758105	 0.122068
H	-0.6352177067	-0.6718377765	-2.026917125	 0.102382
H	 1.0653301128	-0.256468166	-1.8213089065	 0.099624
96.5562	136.2977	191.4164	207.4845	246.5827	273.7562	351.354	357.0732	401.9965	444.6335	565.324	595.2306	666.488	698.8736	783.3779	821.0397	846.864	908.0007	922.0744	947.4556	969.2408	992.7815	1022.1031	1051.8686	1062.6221	1105.7255	1113.0187	1115.1966	1159.885	1192.858	1212.884	1245.4727	1265.8835	1300.3291	1332.3167	1346.3083	1361.0519	1391.5089	1408.5584	1417.3526	1420.8979	1484.0755	1490.7023	1491.0276	1494.7072	1496.9287	1523.715	2998.048	3012.8952	3026.9683	3033.5432	3064.3076	3070.1909	3077.8828	3087.7644	3107.7002	3111.0568	3116.9328	3197.6022	3834.7018
CC12CN1C(CO)CC2	C[C@]12CN1[C@@H](CO)CC2	
InChI=1S/C7H13NO/c1-7-3-2-6(4-9)8(7)5-7/h6,9H,2-5H2,1H3	InChI=1S/C7H13NO/c1-7-3-2-6(4-9)8(7)5-7/h6,9H,2-5H2,1H3/t6-,7+,8?/m1/s1
