16
gdb 112392	2.24606	1.47696	0.94832	3.4878	66.41	-0.2582	-0.0059	0.2523	1189.91	0.126724	-471.28692	-471.278575	-471.277631	-471.320309	30.705	
N	 0.0461624273	 1.0278911547	 0.0191574479	-0.520291
H	-1.5245085965	-0.9664470248	 0.6244084901	 0.270475
H	 1.0476181804	 1.1619956499	 0.1095420292	 0.240661
H	-0.2408401148	 1.556504364	-0.7998955782	 0.235124
C	-0.6411386944	 1.5288022189	 1.2118210801	-0.160937
C	-2.0884086688	 1.0157936374	 1.207472672	-0.112076
N	-2.1785539177	-0.4308678225	 1.1737712096	-0.333583
C	-2.7094351163	-0.9560749378	 2.3258561023	 0.456115
O	-2.7988760766	-2.1097538505	 2.6625321081	-0.385648
N	-3.1613733313	 0.1576777987	 3.0702313428	-0.388698
C	-2.8299641013	 1.3680873279	 2.5047098913	 0.432637
O	-3.0551534923	 2.471013462	 2.9379533877	-0.363967
H	-0.1281370951	 1.1266948574	 2.0926203766	 0.118071
H	-0.6656700555	 2.6234102915	 1.3148047753	 0.118179
H	-2.6274723053	 1.4695437172	 0.3644817309	 0.116803
H	-3.6328192318	 0.0530746858	 3.9547848543	 0.277135
80.206	130.0133	149.3357	177.2175	260.7922	321.727	410.1926	461.8227	503.2142	588.1336	600.7161	630.067	676.4494	724.3518	766.9135	838.9184	908.2276	965.333	990.7031	998.3524	1076.6289	1138.2232	1181.2376	1196.0676	1265.939	1328.902	1336.4879	1351.3079	1390.4605	1402.7611	1422.5081	1501.2799	1660.6675	1844.8249	1883.9829	3000.3577	3014.2666	3071.5317	3496.457	3578.0701	3644.8464	3655.711
[NH3+]CC1[N-]C(=O)NC1=O	NC[C@H]1NC(=O)NC1=O	
InChI=1S/C4H7N3O2/c5-1-2-3(8)7-4(9)6-2/h2H,1,5H2,(H2,6,7,8,9)	InChI=1S/C4H7N3O2/c5-1-2-3(8)7-4(9)6-2/h2H,1,5H2,(H2,6,7,8,9)/t2-/m1/s1
