20
gdb 14991	4.20534	1.34718	1.09165	1.4286	76.92	-0.2329	0.032	0.2648	1116.4072	0.178835	-349.020029	-349.011985	-349.01104	-349.052371	30.745	
O	-0.0330431934	 1.4478408695	 0.0060507443	-0.422852
C	 0.0284110258	 0.0283018603	-0.0026542293	-0.091912
C	-1.4025439904	-0.5146053806	 0.0377315449	-0.006593
C	-1.4222552765	-2.037351463	-0.1708158565	-0.213698
C	-2.8034345538	-2.6229594422	 0.1469943826	-0.211152
C	-3.1891484045	-2.3602656883	 1.6098326713	-0.235523
C	-2.868930884	-0.9484813816	 2.0286574838	-0.070912
C	-2.093945868	-0.1256093381	 1.3229112082	-0.03879
H	 0.8615722167	 1.7885594205	 0.093015438	 0.286609
H	 0.5332851209	-0.3395356467	-0.9108473652	 0.081574
H	 0.5886127702	-0.3518465753	 0.8667575765	 0.085571
H	-1.9285230262	-0.0327476128	-0.8013298064	 0.088394
H	-1.1274356369	-2.2794102584	-1.198312955	 0.090034
H	-0.674951831	-2.5012177726	 0.4887226413	 0.092638
H	-3.5483990282	-2.1581674927	-0.5115272385	 0.099527
H	-2.8227893144	-3.6974364282	-0.0647044674	 0.088864
H	-4.2575286869	-2.5605516516	 1.7617188753	 0.0993
H	-2.6651273261	-3.0665625453	 2.2718049393	 0.103346
H	-3.3091805744	-0.6014524485	 2.9612306381	 0.079531
H	-1.914295129	 0.8895070455	 1.6651619148	 0.096043
93.657	130.185	206.3428	245.2845	278.3284	305.4092	373.4959	461.2057	505.8799	541.3499	686.0355	743.0249	805.7239	864.8512	880.9538	922.4658	967.6374	991.4535	1019.0936	1058.5027	1073.6464	1081.4545	1100.9437	1116.0082	1155.4664	1197.5946	1240.0497	1253.0615	1261.5889	1283.0885	1320.3882	1348.4998	1370.322	1378.4293	1380.1265	1418.6409	1454.106	1475.6518	1489.2785	1496.9708	1519.1423	1722.0685	2960.0259	2978.3737	2992.2871	2997.9684	3009.4772	3021.5128	3038.3642	3060.4546	3070.5478	3141.6908	3176.9918	3834.5593
OCC1CCCC=C1	OC[C@H]1CCCC=C1	
InChI=1S/C7H12O/c8-6-7-4-2-1-3-5-7/h2,4,7-8H,1,3,5-6H2	InChI=1S/C7H12O/c8-6-7-4-2-1-3-5-7/h2,4,7-8H,1,3,5-6H2/t7-/m1/s1
