19
gdb 62472	2.41571	1.4781	1.25134	2.1206	75.52	-0.2398	-0.0269	0.2129	1097.2338	0.155812	-423.017971	-423.008593	-423.007649	-423.052133	34.774	
C	-0.2792695884	 1.5095650701	 0.0127112292	-0.441829
C	-0.0246104054	 0.0024933007	 0.030866738	 0.07092
C	-1.2876358469	-0.8011261077	-0.3014447695	-0.423115
C	 1.1963030694	-0.4380478648	-0.8154149939	 0.395775
O	 1.4930856633	-0.2761139992	-1.9633315197	-0.30608
C	 1.8955924119	-1.1049146845	 0.3857078421	-0.462854
C	 0.7491830022	-0.5627894709	 1.2525580187	 0.414108
C	 0.7735042692	-0.0933458102	 2.6364470419	-0.261979
O	 0.1275718706	-1.3238104859	 2.2714694198	-0.268158
H	 0.6151444047	 2.0746979612	 0.2931209796	 0.117654
H	-0.576892734	 1.8284573389	-0.9909744138	 0.136732
H	-1.0827442548	 1.7768659069	 0.7076645577	 0.120911
H	-1.6743028152	-0.5084091912	-1.2819042078	 0.130132
H	-1.092765272	-1.8774591741	-0.3166046823	 0.125026
H	-2.0594407514	-0.616367805	 0.4518998183	 0.129404
H	 1.9174289471	-2.1979871727	 0.3222878878	 0.148101
H	 2.9062641724	-0.7457634333	 0.5981867065	 0.137485
H	 1.6810723533	-0.2019759723	 3.2291204926	 0.118812
H	 0.104939954	 0.705650624	 2.953851405	 0.118956
44.3237	158.8803	184.4416	196.4029	200.7585	254.1143	267.553	318.0131	366.9898	466.812	497.0388	517.1771	564.2777	673.4303	737.5883	817.3605	862.1088	913.0855	951.6798	965.3093	981.1297	1011.1637	1020.7432	1117.13	1133.5427	1149.5671	1166.6915	1178.4311	1197.9009	1212.3997	1288.6218	1393.0941	1410.3976	1416.2171	1442.6305	1480.3148	1480.8033	1499.5707	1502.7704	1536.5349	1893.5684	3030.288	3039.2681	3055.3506	3081.4713	3099.5536	3108.9621	3109.9646	3111.6268	3118.189	3168.1056
CC1(C)C(=O)CC11CO1	CC1(C)C(=O)C[C@]21CO2	
InChI=1S/C7H10O2/c1-6(2)5(8)3-7(6)4-9-7/h3-4H2,1-2H3	InChI=1S/C7H10O2/c1-6(2)5(8)3-7(6)4-9-7/h3-4H2,1-2H3/t7-/m1/s1
