15
gdb 18899	3.22757	2.61432	1.83376	2.6739	63.72	-0.205	0.062	0.267	748.6464	0.117635	-362.535145	-362.528368	-362.527424	-362.565602	26.679	
C	-0.0559299741	 1.4769791622	 0.0198033944	-0.524472
C	-0.0689905994	-0.0101154693	-0.0721192518	 0.257717
C	 0.7858517374	-0.9956805744	-0.7940040973	-0.104176
C	-0.2997983158	-2.0924467073	-0.7075720654	-0.215831
C	-0.2237562364	-1.9475877855	 0.8036622225	-0.06106
N	 0.8745916552	-0.892439211	 0.7107303375	-0.212117
C	-1.1974717127	-1.0983834925	 0.0508474972	 0.32815
O	-2.5552751535	-1.0394125673	 0.1871660454	-0.444878
H	 0.9764230062	 1.8407570159	 0.0164002741	 0.136591
H	-0.5838251942	 1.93497531	-0.8240751181	 0.118742
H	-0.5319144977	 1.8170326313	 0.9458283107	 0.134036
H	 1.6496886046	-0.8581035626	-1.435754755	 0.092078
H	-0.569983279	-2.9396559414	-1.3217288251	 0.097155
H	-0.3374051336	-2.6588027254	 1.6118257852	 0.104991
H	-2.9499316171	-0.8888129826	-0.6797710944	 0.293073
182.8176	195.7279	239.0105	311.8671	368.4554	403.281	596.9237	633.6253	658.0408	743.6278	767.4302	802.0516	855.8587	874.332	893.0562	924.2499	951.7408	979.4644	1008.0389	1028.6423	1078.5589	1107.9317	1170.1585	1211.7039	1233.5081	1264.7872	1298.7854	1391.6204	1431.6788	1474.9636	1477.4971	1491.5661	3028.5903	3092.8347	3107.4722	3162.9454	3194.4903	3219.8756	3778.4459
CC12C3C4C(N13)C24O	C[C@@]12[C@@H]3[C@H]4[C@@H](N13)[C@@]24O	
InChI=1S/C6H7NO/c1-5-3-2-4(7(3)5)6(2,5)8/h2-4,8H,1H3	InChI=1S/C6H7NO/c1-5-3-2-4(7(3)5)6(2,5)8/h2-4,8H,1H3/t2-,3-,4+,5-,6+,7?/m0/s1
