20
gdb 10956	5.21644	1.24163	1.13467	1.756	75.34	-0.2424	0.0915	0.3339	1139.0014	0.175757	-348.98169	-348.973187	-348.972242	-349.01443	32.018	
C	-0.1424613483	 1.5067007151	-0.0374163461	-0.379979
C	 0.1015837547	-0.0049765032	-0.073647894	-0.187149
C	 0.7642659108	-0.5381900539	 1.1917526167	 0.0168
C	-0.058458549	-0.5488111499	 2.5369455988	-0.313385
C	 0.1475365536	-2.0734835036	 2.6033066388	 0.425363
C	 0.2038900359	-2.9549578684	 3.8076973056	-0.499864
O	-0.4348719924	-2.6038619613	 1.3997458909	-0.288349
C	 0.895107572	-2.0649650135	 1.3332372774	-0.066265
H	 0.7974061619	 2.0596582508	 0.0728702508	 0.109953
H	-0.6255495598	 1.8525798634	-0.9565519734	 0.112409
H	-0.7888780043	 1.7857388642	 0.8018958539	 0.116998
H	-0.845411038	-0.536620009	-0.2182507453	 0.112792
H	 0.7327275155	-0.2529217945	-0.9376644156	 0.090917
H	 1.734923774	-0.0545021305	 1.3513247623	 0.069461
H	 0.4359049063	-0.001580244	 3.3433913895	 0.100745
H	-1.1041905111	-0.2357980227	 2.4716347064	 0.103697
H	-0.7795959113	-3.0222969129	 4.287078104	 0.129515
H	 0.5152392781	-3.9650720505	 3.5283326642	 0.132866
H	 0.9094442185	-2.5600979471	 4.5460653616	 0.122159
H	 1.6716615128	-2.7239543084	 0.9578560037	 0.091317
93.5386	126.8832	166.7892	199.3621	244.4236	301.7952	322.6972	407.3659	426.8733	544.2949	658.2651	713.6544	773.1928	811.2414	870.166	893.9314	923.6702	939.4579	967.3959	998.887	1025.9215	1058.2402	1067.855	1122.3519	1147.6268	1187.9307	1211.7843	1223.6418	1261.7354	1275.5361	1286.6109	1340.0592	1385.2826	1404.8414	1411.1369	1455.1317	1476.2862	1486.1988	1490.0939	1497.8583	1500.1578	1507.4596	3018.1836	3028.9065	3032.047	3039.6166	3058.971	3068.5885	3093.2146	3096.7317	3101.8113	3115.6856	3119.4296	3167.6402
CCC1CC2(C)OC12	CC[C@H]1C[C@@]2(C)O[C@@H]12	
InChI=1S/C7H12O/c1-3-5-4-7(2)6(5)8-7/h5-6H,3-4H2,1-2H3	InChI=1S/C7H12O/c1-3-5-4-7(2)6(5)8-7/h5-6H,3-4H2,1-2H3/t5-,6-,7+/m0/s1
