22
gdb 12701	2.29842	2.12649	1.60095	1.4317	76.97	-0.2586	0.0679	0.3265	964.146	0.200835	-350.225323	-350.216374	-350.21543	-350.258691	34.104	
C	 0.6213752959	 1.6588405823	-0.0800966676	-0.394929
C	 0.1551083129	 0.1994342493	 0.0209679655	 0.017677
C	 0.6044309683	-0.6533040019	-1.189066819	-0.213507
C	 1.9722697125	-1.2776584186	-0.7941718755	-0.231754
C	 2.1464375289	-1.0344810368	 0.7284224438	 0.112883
O	 3.0770708467	 0.0132135462	 1.0072023398	-0.428431
C	 0.752133033	-0.5915980547	 1.2147333934	 0.03533
C	 0.7308941781	 0.0918443543	 2.5808678667	-0.415177
H	 1.7102928688	 1.7265757864	-0.1377049192	 0.131532
H	 0.1944922082	 2.1314781094	-0.9714206943	 0.10013
H	 0.2985637752	 2.2424764924	 0.7878653555	 0.108363
H	-0.9389679909	 0.1993799847	 0.0953322534	 0.057872
H	-0.1255223945	-1.4494597323	-1.3700102207	 0.092702
H	 0.6641750315	-0.0662496791	-2.1101928786	 0.092013
H	 2.0045135695	-2.3451641412	-1.0322367828	 0.094471
H	 2.8038997562	-0.808653502	-1.3296222441	 0.09257
H	 2.4681944463	-1.9484375208	 1.249089079	 0.055382
H	 3.9366699907	-0.2610090824	 0.6738410435	 0.280123
H	 0.1637950898	-1.5179730554	 1.2878588382	 0.065415
H	 1.3651789942	 0.9800842502	 2.5932562318	 0.137355
H	-0.2881978348	 0.389252994	 2.8506377466	 0.104007
H	 1.0961775132	-0.5850448642	 3.3607171948	 0.105973
42.2223	140.293	211.6858	240.1115	254.7811	270.4888	287.9392	350.088	402.1693	409.1771	532.939	672.9395	695.2789	757.7601	792.3716	835.7634	889.7772	936.1321	961.8857	972.2464	1003.9343	1040.6776	1062.5367	1081.795	1103.9385	1132.2409	1184.3697	1208.4953	1228.2435	1244.4752	1289.4749	1296.8648	1322.9822	1339.3204	1346.6895	1381.5068	1383.6759	1406.0397	1411.8291	1430.45	1478.1074	1490.852	1494.6756	1501.906	1507.5824	1513.2804	2979.8203	2998.3837	3024.4841	3034.7931	3036.6873	3042.0947	3052.0782	3076.0252	3092.3563	3094.3787	3097.0329	3129.1896	3133.4512	3823.5486
CC1CCC(O)C1C	C[C@H]1CC[C@@H](O)[C@H]1C	
InChI=1S/C7H14O/c1-5-3-4-7(8)6(5)2/h5-8H,3-4H2,1-2H3	InChI=1S/C7H14O/c1-5-3-4-7(8)6(5)2/h5-8H,3-4H2,1-2H3/t5-,6-,7+/m0/s1
