19
gdb 114872	2.85106	1.43132	1.34385	1.4992	70.72	-0.2491	0.0813	0.3305	1058.3222	0.160011	-460.145277	-460.13723	-460.136286	-460.178158	30.256	
C	 0.5760015318	 1.1443245636	-0.2258354556	-0.243466
O	 0.633657631	-0.2611673527	-0.0570450717	-0.233496
C	 0.5426719738	-0.66810118	 1.2803732754	 0.202761
C	 0.5173280628	-2.2023750416	 1.3271563815	-0.269511
C	 1.9819242504	-2.5862814653	 1.5240034023	 0.093807
O	 2.7606506829	-2.5982565358	 0.3098317419	-0.29015
C	 3.4851335637	-1.4082455252	 0.6958329156	-0.095836
C	 2.6622650264	-1.2805639816	 1.9973995008	 0.0539
O	 1.6729469726	-0.2699004176	 2.049217375	-0.269989
H	 1.4108240022	 1.6458714609	 0.2775394189	 0.123408
H	 0.6278119494	 1.3391486766	-1.2989923668	 0.128125
H	-0.3671300647	 1.5535558393	 0.1674758291	 0.106186
H	-0.3228108573	-0.1864826098	 1.7573615269	 0.073872
H	-0.077466469	-2.5370890579	 2.1821652815	 0.107619
H	 0.1002675988	-2.6231647148	 0.4113927049	 0.133574
H	 2.1238356854	-3.5029539768	 2.104501062	 0.077578
H	 4.5526635341	-1.6153138305	 0.8419833982	 0.096625
H	 3.3542414742	-0.5893058283	-0.0170329247	 0.115141
H	 3.2198816815	-1.2586736325	 2.9343109945	 0.089851
93.0409	119.1896	146.3371	197.3441	269.6573	370.9782	391.2344	419.6439	553.0967	647.8305	781.8413	794.4959	816.8061	861.0428	911.9506	931.4171	970.4925	993.3841	1020.4208	1039.7231	1049.5475	1085.9891	1106.5273	1144.8611	1168.5363	1181.758	1189.7514	1225.0132	1234.2255	1261.5978	1303.2843	1327.4311	1355.1315	1358.1317	1391.9973	1403.9815	1458.7183	1478.4526	1485.2589	1503.5738	1513.5456	2989.8194	3008.061	3021.6302	3055.9231	3063.127	3073.1015	3092.4384	3109.3316	3126.888	3139.1854
COC1CC2OCC2O1	CO[C@H]1C[C@H]2OC[C@H]2O1	
InChI=1S/C6H10O3/c1-7-6-2-4-5(9-6)3-8-4/h4-6H,2-3H2,1H3	InChI=1S/C6H10O3/c1-7-6-2-4-5(9-6)3-8-4/h4-6H,2-3H2,1H3/t4-,5-,6-/m1/s1
