18
gdb 120109	4.18969	1.04945	0.97891	3.3365	71.87	-0.2276	0.0373	0.2649	1233.8275	0.146577	-438.964616	-438.956601	-438.955657	-438.997845	30.843	
O	-0.3847473667	 1.6824741514	 0.0209750744	-0.422075
C	 0.0245271291	 0.3340546337	 0.1195527737	-0.05591
C	-1.1730427986	-0.6140301265	 0.2162735387	-0.136236
N	-2.0475093643	-0.3466972109	-0.9362479242	-0.076992
C	-2.5087646152	-1.236730494	-1.9583892961	-0.102905
C	-3.1188003696	-2.5894711656	-1.4062566209	-0.005564
O	-2.9961872246	-2.6153048261	 0.0203672452	-0.225763
C	-4.0527007048	-1.8523308628	-0.5647183634	 0.000066
C	-3.4688507355	-0.4778166632	-1.0778551086	-0.097763
H	-1.0653691596	 1.6793670125	-0.6651889505	 0.278622
H	 0.6502235183	 0.0418007094	-0.7412273943	 0.078101
H	 0.6420500863	 0.2442769133	 1.0201232534	 0.10136
H	-0.8391267014	-1.6534755842	 0.2489159598	 0.113529
H	-1.7344363461	-0.4089705919	 1.1325269847	 0.113403
H	-2.2401642714	-1.08122431	-2.9976145509	 0.103494
H	-3.2114459396	-3.5322688975	-1.9305449564	 0.11597
H	-5.0707337887	-2.0634060024	-0.2616940208	 0.115429
H	-4.0798929878	 0.3908492549	-1.2977281939	 0.103233
45.481	120.309	186.7831	209.0906	296.4236	409.2197	477.4275	495.5889	531.8577	680.2249	720.3872	736.8662	768.2932	835.4107	856.0854	864.8964	894.1535	901.5615	946.2753	968.3898	979.8477	1038.9717	1043.0265	1054.404	1091.1328	1130.5934	1214.2322	1219.2567	1221.5747	1240.1523	1263.6844	1273.2854	1355.3927	1364.4085	1383.8598	1416.6879	1437.424	1466.7554	1506.4143	2958.3618	3055.2897	3071.0039	3115.5435	3164.5447	3175.2694	3191.3038	3207.2533	3755.458
OCCN1C2C3OC3C12	OCCN1[C@H]2[C@H]3O[C@H]3[C@@H]12	
InChI=1S/C6H9NO2/c8-2-1-7-3-4(7)6-5(3)9-6/h3-6,8H,1-2H2	InChI=1S/C6H9NO2/c8-2-1-7-3-4(7)6-5(3)9-6/h3-6,8H,1-2H2/t3-,4+,5-,6+,7?
