22
gdb 112940	4.16723	0.81196	0.76808	3.2686	83.34	-0.2403	0.0331	0.2734	1584.3075	0.193637	-404.384054	-404.3737	-404.372756	-404.421088	37.15	
C	 0.206785812	 1.5482260838	-0.2416547196	-0.377996
C	 0.147587604	 0.03509021	-0.0077283919	-0.202178
C	-1.2734559386	-0.4921619055	 0.1350984947	 0.086331
C	-2.2025994041	-0.4941545327	-1.1127702958	-0.236666
C	-2.7027899015	-1.9157584132	-0.724331713	-0.119998
C	-1.4830975649	-2.0265726049	 0.2533181763	-0.257214
C	-4.0248631921	-1.8932871167	 0.023003633	 0.421979
N	-4.8161796788	-2.9909266165	-0.1646060863	-0.533802
O	-4.3562599093	-0.9771457984	 0.7549403116	-0.373346
H	 1.2386299859	 1.8958557728	-0.352855346	 0.10885
H	-0.3387297067	 1.8303869143	-1.1487560275	 0.117772
H	-0.2421005344	 2.094090634	 0.595381315	 0.117415
H	 0.6429263609	-0.4861631039	-0.8392561098	 0.084062
H	 0.7195525737	-0.2201151429	 0.8947560853	 0.092789
H	-1.7847152875	 0.0115328326	 0.9605057637	 0.093734
H	-2.9679944664	 0.2813342285	-1.1635462197	 0.115755
H	-1.6368340204	-0.5123061806	-2.0497286387	 0.088712
H	-2.7230360233	-2.6549069741	-1.5300315678	 0.059654
H	-0.663847648	-2.5911807701	-0.20269416	 0.093649
H	-1.6813351144	-2.4342510663	 1.2474954628	 0.105842
H	-4.52823773	-3.7732373543	-0.7243611215	 0.256721
H	-5.6679270657	-3.061222046	 0.3679268151	 0.257936
18.294	58.4943	108.9542	124.5837	151.399	216.6106	255.4958	257.8032	355.1699	407.3532	439.1513	571.5407	587.8969	687.4233	754.2391	767.7736	787.0321	826.0878	873.582	938.0021	956.7007	967.8921	997.3681	1023.6332	1060.9651	1077.8842	1107.8503	1139.9852	1157.9159	1208.9684	1224.5425	1258.9463	1271.655	1282.0452	1288.0807	1310.9634	1341.7506	1387.3365	1410.3549	1413.952	1463.7888	1483.0764	1490.3765	1499.2393	1507.688	1614.1906	1783.8979	3003.1839	3030.6222	3034.0997	3046.3875	3048.9794	3063.5035	3072.601	3097.6105	3101.5599	3108.4179	3126.5656	3602.849	3742.3686
CCC1CC(C1)C(N)=O	CC[C@H]1C[C@@H](C1)C(=O)N	
InChI=1S/C7H13NO/c1-2-5-3-6(4-5)7(8)9/h5-6H,2-4H2,1H3,(H2,8,9)	InChI=1S/C7H13NO/c1-2-5-3-6(4-5)7(8)9/h5-6H,2-4H2,1H3,(H2,8,9)/t5-,6-
