18
gdb 53733	3.69203	0.74011	0.65095	2.7158	87.34	-0.2509	-0.0515	0.1994	1728.3013	0.144847	-401.918009	-401.90789	-401.906946	-401.954637	35.162	
C	-0.0249362625	 1.4470181221	 0.2939062198	-0.477623
C	 0.0282382967	-0.0088887889	-0.1240061568	 0.239842
O	 1.0533432039	-0.5593234768	-0.4698062088	-0.28044
C	-1.2360085879	-0.7154280386	-0.0853168823	 0.067085
C	-2.2834829893	-1.320528327	-0.0642838629	 0.004851
C	-3.5220509457	-2.0459711376	-0.0123814973	 0.157868
C	-4.6948869635	-1.340068527	 0.6402938063	-0.45499
C	-3.7540522412	-3.0483535974	-1.1061831157	-0.258642
N	-3.443445132	-3.5094770453	 0.245372703	-0.336632
H	 0.9735830902	 1.881591273	 0.2284791676	 0.143252
H	-0.7173829055	 1.9994148853	-0.3504697528	 0.145508
H	-0.4045752768	 1.5315532103	 1.3178683587	 0.146072
H	-4.9436668465	-0.421037627	 0.1012787614	 0.127366
H	-5.5664179076	-1.9985839535	 0.6426287146	 0.133882
H	-4.4594197209	-1.0785003423	 1.6760024797	 0.133271
H	-4.7776253683	-3.2217412388	-1.4275731919	 0.128749
H	-3.0020334702	-3.1374291212	-1.8840056438	 0.132384
H	-2.4681376228	-3.7939688294	 0.2996151814	 0.248198
29.6526	66.9528	94.4228	119.8177	172.8239	197.0352	262.7231	281.08	356.9098	425.1893	498.4035	557.3126	583.1201	607.165	631.3566	770.8159	799.2672	928.9398	932.5305	983.6323	995.5264	1041.9924	1042.9908	1086.9863	1103.7481	1139.2846	1222.5832	1271.0547	1335.4861	1350.554	1382.0253	1413.6852	1460.8959	1469.1563	1481.8111	1495.2403	1504.345	1761.1809	2310.9132	3039.3338	3044.97	3103.5334	3113.2357	3115.2828	3132.0995	3151.5567	3206.5339	3505.5212
CC(=O)C#CC1(C)CN1	CC(=O)C#C[C@@]1(C)CN1	
InChI=1S/C7H9NO/c1-6(9)3-4-7(2)5-8-7/h8H,5H2,1-2H3	InChI=1S/C7H9NO/c1-6(9)3-4-7(2)5-8-7/h8H,5H2,1-2H3/t7-/m0/s1
