15
gdb 36594	2.51091	1.25496	1.05355	2.4752	70.01	-0.2953	-0.0148	0.2805	1158.6197	0.111295	-416.799067	-416.790354	-416.78941	-416.833328	30.931	
N	 0.1942378611	-0.0500323738	 1.4501162679	-0.302919
C	 0.1216552791	 0.5667819018	 0.4761434962	 0.267101
C	 0.0383949979	 1.3467854136	-0.7713094832	-0.22131
O	 1.1997958265	 2.119381485	-1.0229942463	-0.262302
C	 1.3448684126	 3.2638638922	-0.2265110091	 0.280463
C	 2.0187524733	 3.1452907977	 1.1312702146	-0.30866
C	 2.7652587397	 3.7288821847	-0.0356767875	-0.309304
C	 0.2966565548	 4.2461851299	-0.4023328885	 0.246969
N	-0.5665824576	 5.0021588622	-0.5487107163	-0.34521
H	-0.0530330895	 0.6565221571	-1.6139786894	 0.171808
H	-0.8637604801	 1.9720617134	-0.7445230348	 0.17182
H	 1.6784067215	 3.8050258875	 1.9203233274	 0.149423
H	 2.2675656606	 2.1386846585	 1.4426227865	 0.162416
H	 3.5111775619	 3.1098086108	-0.5199909903	 0.150859
H	 2.9526905981	 4.7950911293	-0.0639927571	 0.148843
39.8185	96.9138	149.9694	208.341	229.2921	259.4053	363.0074	384.6066	413.8444	568.9716	575.7156	644.1473	665.4463	769.7499	878.0251	909.934	919.5628	960.8626	976.9363	1052.738	1067.4709	1090.9831	1097.7098	1193.2482	1256.1571	1298.7182	1314.368	1397.0678	1453.4365	1474.12	1484.9301	2347.9503	2360.9787	3032.6975	3106.8885	3152.5448	3156.7715	3243.0528	3256.3073
N#CCOC1(CC1)C#N	N#CCOC1(CC1)C#N	
InChI=1S/C6H6N2O/c7-3-4-9-6(5-8)1-2-6/h1-2,4H2	InChI=1S/C6H6N2O/c7-3-4-9-6(5-8)1-2-6/h1-2,4H2
