20
gdb 116638	3.88533	0.96225	0.83798	2.3343	79.72	-0.2406	0.0178	0.2585	1433.9584	0.171445	-440.288168	-440.279101	-440.278157	-440.323564	32.853	
C	 0.2614540044	 1.5421083873	 0.0987861408	-0.362684
C	-0.0821950806	 0.0590332955	-0.0754491661	-0.138982
N	 0.6192750089	-0.4972036754	-1.2262446977	-0.292927
C	 1.6246007788	-1.2415518874	-1.0638731424	 0.377298
C	 2.4097660805	-1.7240891355	-2.269615224	-0.172974
O	 3.0195277051	-2.9903824708	-2.0871602635	-0.240553
C	 3.792689163	-2.9979997851	-0.9035449959	-0.089346
C	 2.8837986824	-2.7755398327	 0.2904979396	-0.077265
O	 2.1383027846	-1.5558744276	 0.1666995088	-0.262316
H	 1.3195814894	 1.6687959018	 0.3484665993	 0.117624
H	 0.0617506556	 2.0947112438	-0.823832394	 0.124063
H	-0.3347450009	 1.9825558058	 0.9042449946	 0.109297
H	 0.13439695	-0.485005182	 0.8517011316	 0.101644
H	-1.1557249671	-0.0364107894	-0.2768222028	 0.100903
H	 1.7355452128	-1.7966054718	-3.1224162872	 0.143274
H	 3.1802806854	-0.9668976167	-2.4990994871	 0.110644
H	 4.2786024002	-3.9757169757	-0.8358883477	 0.117985
H	 4.5727163277	-2.2191857211	-0.9423557172	 0.098151
H	 2.1812216269	-3.614042794	 0.3806875584	 0.118159
H	 3.4522054128	-2.6888843689	 1.2207908224	 0.118007
19.3312	74.7091	141.6653	179.8898	215.0284	284.2589	331.8002	389.0384	441.1469	496.4434	537.6526	600.7164	692.108	797.2613	820.3376	887.4552	908.8738	936.3211	997.0506	1022.9436	1063.9812	1102.1818	1120.7402	1135.3156	1149.2426	1176.1452	1231.5266	1247.4556	1290.6962	1304.7617	1322.4057	1368.9499	1372.8883	1402.408	1408.1245	1423.4133	1475.4679	1489.4187	1490.228	1496.6323	1497.9884	1513.8789	1772.023	2953.8488	2972.1359	3021.3229	3026.0459	3037.4461	3058.5393	3092.1641	3097.1298	3109.1374	3117.108	3140.9931
CCN=C1COCCO1	CCN=C1COCCO1	
InChI=1S/C6H11NO2/c1-2-7-6-5-8-3-4-9-6/h2-5H2,1H3	InChI=1S/C6H11NO2/c1-2-7-6-5-8-3-4-9-6/h2-5H2,1H3
