18
gdb 121084	3.33726	0.92048	0.79848	2.2928	69.64	-0.2697	0.0203	0.2899	1435.3619	0.147374	-476.22901	-476.219981	-476.219036	-476.263901	32.097	
O	-0.3746633836	 1.37517	-0.2595323949	-0.417506
C	-0.0692741381	-0.0067481659	-0.1672863859	-0.078754
C	-1.3834563123	-0.7485966002	 0.0474902395	-0.201649
C	-1.1940042318	-2.2447982668	 0.2578455802	 0.189198
O	-2.4142293823	-2.9202129968	 0.4725749503	-0.257283
C	-2.8092449314	-3.5035577995	-0.7584785099	-0.17587
C	-1.5315397929	-3.5771305819	-1.5652499965	 0.382438
N	-1.3698669004	-4.1956848283	-2.6498281504	-0.533288
O	-0.5911787625	-2.8495012359	-0.896642324	-0.238367
H	 0.4391076037	 1.8508186249	-0.4497746379	 0.288844
H	 0.4188643312	-0.3763038608	-1.0804811558	 0.104965
H	 0.6136455563	-0.2100272908	 0.6749589347	 0.086907
H	-1.8856193377	-0.3447196503	 0.9329385253	 0.125071
H	-2.044181585	-0.5804781746	-0.8102434514	 0.114067
H	-0.5384968641	-2.447761696	 1.1132672125	 0.103607
H	-3.2297616502	-4.4945900654	-0.574352947	 0.147581
H	-3.5603416602	-2.8954975504	-1.2816920476	 0.132083
H	-0.4195122285	-4.0771740712	-3.002863171	 0.227956
58.3272	91.0813	108.9321	123.7008	187.3497	266.4993	338.546	387.2029	459.9845	514.2393	539.6077	664.3846	756.3942	814.914	873.7185	890.1297	927.1985	973.2148	1025.7697	1033.6121	1056.3412	1065.3529	1086.1748	1137.6054	1176.2539	1207.7292	1221.3169	1245.3483	1289.2871	1308.0046	1321.5827	1352.1214	1391.0743	1414.0502	1465.8019	1481.2371	1507.8778	1530.3899	1797.5924	2960.2382	3013.8731	3014.1479	3040.3926	3050.0967	3099.6861	3105.9478	3483.7662	3831.5629
OCCC1OCC(=N)O1	OCC[C@H]1OC[C]([NH])O1	
InChI=1S/C5H9NO3/c6-4-3-8-5(9-4)1-2-7/h5-7H,1-3H2	InChI=1S/C5H9NO3/c6-4-3-8-5(9-4)1-2-7/h5-7H,1-3H2/t5-/m0/s1
