18
gdb 108414	2.57135	1.3383	1.06147	2.3745	73.04	-0.2559	-0.0064	0.2496	1166.9829	0.146953	-439.055691	-439.046941	-439.045997	-439.08962	31.927	
O	 0.2129236702	 1.3534683793	-0.3768002931	-0.411425
C	 0.1143193435	 0.1106085846	 0.3037038569	-0.170764
C	-1.2213136278	-0.5411795323	 0.0973502731	 0.283423
C	-2.5631886826	-0.1757996676	 0.768827953	-0.28485
C	-2.9710227279	-1.6878350913	 0.730177785	-0.239419
C	-1.6281075064	-2.0095265894	 0.0541874417	-0.09839
N	-1.4715219561	-1.2381278048	-1.152829051	-0.110107
C	-2.4434472582	-0.9705262056	-2.1041315267	 0.146546
O	-3.2432811358	-1.7707828365	-2.5203335897	-0.285995
H	 0.1816486575	 1.163659019	-1.3208208995	 0.286883
H	 0.9074119853	-0.586070124	-0.0045744298	 0.101402
H	 0.2579571911	 0.3377467272	 1.3649998551	 0.115814
H	-2.4266666601	 0.1901857456	 1.7887047038	 0.116248
H	-3.1927398023	 0.5340651901	 0.2270607962	 0.114387
H	-3.0464678537	-2.1191662978	 1.72992761	 0.111917
H	-3.8562393993	-1.9570785398	 0.1515260593	 0.136239
H	-1.0209982176	-2.89850197	 0.1831565901	 0.109092
H	-2.3542905296	 0.0610897134	-2.5004423044	 0.079001
62.3028	111.5126	128.1908	187.8929	254.5407	294.6638	299.2155	373.4597	433.0393	479.3306	632.4818	716.4554	765.9174	802.1825	879.4708	922.8965	936.9299	948.0519	961.2608	1033.1262	1046.2187	1062.1775	1076.3749	1123.3051	1137.6594	1208.445	1218.9368	1245.5189	1252.3569	1283.4933	1297.9418	1375.5319	1413.5922	1415.4263	1451.305	1476.1567	1488.1522	1496.9203	1803.5162	2930.597	3001.2905	3068.9021	3080.9218	3081.9139	3117.4161	3139.1291	3181.7831	3807.151
OCC12CCC1N2C=O	OC[C@]12CC[C@H]1N2C=O	
InChI=1S/C6H9NO2/c8-3-6-2-1-5(6)7(6)4-9/h4-5,8H,1-3H2	InChI=1S/C6H9NO2/c8-3-6-2-1-5(6)7(6)4-9/h4-5,8H,1-3H2/t5-,6-,7?/m1/s1
