20
gdb 63088	2.54487	1.52707	1.26837	3.8154	79.04	-0.2407	-0.0008	0.2399	1098.3574	0.170514	-403.172817	-403.163998	-403.163053	-403.206125	33.588	
C	-0.1462379084	 1.5207888373	 0.0728849271	-0.460247
C	-0.0397782229	 0.0152816165	-0.0589520775	 0.311323
C	-1.217006248	-0.738196044	 0.5263807308	-0.448614
C	 0.7312989296	-0.626596575	-1.1677445891	-0.073277
C	 1.6727552862	 0.1725018956	-2.0802134024	-0.270047
C	 2.9106206113	 0.4264958317	-1.1945685626	-0.306411
C	 2.4144340808	 0.1974376533	 0.2406364532	 0.366596
O	 2.895188594	 0.6390490435	 1.2494466203	-0.322657
N	 1.2708285193	-0.6502896965	 0.2035322948	-0.157191
H	 0.6552434658	 2.0589257554	-0.4370726867	 0.126014
H	-1.0995709957	 1.861845804	-0.3437925456	 0.121715
H	-0.1164927312	 1.8107561978	 1.1282204073	 0.145014
H	-2.1423941889	-0.4676775554	 0.0057547391	 0.116915
H	-1.0694672381	-1.8171151273	 0.4423437901	 0.129075
H	-1.3404222679	-0.4945410567	 1.5867540238	 0.1303
H	 0.3737511952	-1.5841441373	-1.5393388031	 0.091598
H	 1.915578207	-0.4082047963	-2.9720627362	 0.114406
H	 1.2182755127	 1.106957821	-2.4227164684	 0.116636
H	 3.7035611559	-0.3009519002	-1.4026320967	 0.137137
H	 3.3520200036	 1.4208207326	-1.2831899783	 0.131713
82.3979	127.0266	175.4693	197.7546	224.3178	272.0067	348.5679	414.4104	452.3608	493.8706	542.1794	660.4113	690.0758	721.2259	740.4581	799.6934	872.6217	943.1817	957.2362	957.8875	996.5517	1002.9604	1050.8333	1096.3367	1101.4453	1135.7337	1154.3697	1196.7935	1226.1093	1265.2854	1279.8651	1320.3348	1328.7629	1407.1326	1413.071	1424.2432	1459.0065	1475.0676	1481.0449	1495.7678	1504.0795	1508.9814	1844.8252	3034.1984	3042.4247	3051.8021	3060.6339	3098.9531	3104.6604	3105.0196	3121.7596	3125.9795	3127.8569	3132.0354
CC1(C)C2CCC(=O)N12	CC1(C)[C@H]2CCC(=O)N12	
InChI=1S/C7H11NO/c1-7(2)5-3-4-6(9)8(5)7/h5H,3-4H2,1-2H3	InChI=1S/C7H11NO/c1-7(2)5-3-4-6(9)8(5)7/h5H,3-4H2,1-2H3/t5-,8?/m1/s1
