18
gdb 14518	3.60406	1.92817	1.54855	1.773	67.83	-0.2329	0.0796	0.3125	878.4875	0.152031	-384.857723	-384.849833	-384.848889	-384.889858	29.859	
C	 0.0607353778	 1.3715217433	 0.1371128529	-0.252829
O	-0.1704805999	 0.0067930027	-0.1518574926	-0.292932
C	 0.5841540008	-0.5239191057	-1.2130102631	 0.457043
C	 0.2158995754	 0.0717772654	-2.5625660147	-0.479652
C	 2.0975101794	-0.8700968475	-0.9431161932	-0.015676
C	 1.6650619405	-1.9012451835	 0.1260154536	-0.231527
C	 0.769334892	-2.0684214879	-1.1238512534	-0.009761
O	 1.9777735116	-1.9311981957	-1.9683215051	-0.312362
H	 1.1266977442	 1.5770724942	 0.3142060235	 0.107497
H	-0.2935210381	 2.0361071005	-0.6620450591	 0.11546
H	-0.4956598107	 1.5991519525	 1.0493747001	 0.130131
H	 0.4954675757	 1.1281728211	-2.623548947	 0.115207
H	 0.7294369127	-0.4629212795	-3.360813596	 0.147193
H	-0.8659667429	 0.0022898764	-2.7139322141	 0.12177
H	 2.9854168451	-0.2376553411	-0.9864565025	 0.088077
H	 2.3777069426	-2.7122002024	 0.2765316734	 0.105178
H	 1.204602095	-1.5400041544	 1.0438817527	 0.11482
H	 0.063566869	-2.8596024486	-1.3795399656	 0.092363
69.8398	160.7973	200.0168	221.2228	299.35	330.9089	406.3769	456.6114	538.8256	599.8243	676.8325	757.6078	823.9027	874.1435	881.7469	904.1885	936.5352	1015.3045	1019.8751	1089.563	1108.3543	1119.68	1152.4181	1174.6045	1180.8063	1187.5402	1206.5294	1216.1295	1238.9786	1275.3042	1314.7286	1394.6951	1471.1226	1478.4602	1486.0948	1491.0033	1507.5044	1512.0817	2990.6804	3042.4625	3049.838	3091.5965	3104.5163	3106.9238	3116.3215	3117.8726	3159.0308	3175.0773
COC1(C)C2CC1O2	CO[C@@]1(C)[C@H]2C[C@@H]1O2	
InChI=1S/C6H10O2/c1-6(7-2)4-3-5(6)8-4/h4-5H,3H2,1-2H3	InChI=1S/C6H10O2/c1-6(7-2)4-3-5(6)8-4/h4-5H,3H2,1-2H3/t4-,5+,6+
