18
gdb 88254	4.86143	0.58918	0.56561	2.3548	84.84	-0.2304	-0.0314	0.199	1938.814	0.144625	-401.894262	-401.884314	-401.88337	-401.931499	34.138	
C	-0.2170380516	 1.4471855394	-0.1051767264	-0.309976
N	 0.0014024741	 0.0102411383	-0.003007549	-0.077103
C	 1.3452651059	-0.4721028545	-0.2553580633	-0.237351
C	 0.7880715065	-0.4952162583	 1.1398080366	-0.177799
C	 1.3238975479	 0.3809218533	 2.1454132371	 0.122083
C	 1.7549088684	 1.0989523765	 3.0131862896	 0.024376
C	 2.239828227	 1.9441617373	 4.0935312178	-0.417061
C	 1.3121730882	 1.9279287873	 5.312170563	 0.172279
O	 1.704890074	 1.9574813169	 6.4459386269	-0.228894
H	 0.6393182901	 2.0524235748	 0.2270554137	 0.110872
H	-0.4327381224	 1.6884386367	-1.1503693723	 0.126095
H	-1.0874900762	 1.7222699685	 0.4978664936	 0.127263
H	 1.4279881437	-1.3999929992	-0.8151185381	 0.122534
H	 2.1277289623	 0.2595111768	-0.4507566226	 0.117606
H	 0.417059015	-1.4440230173	 1.5211044855	 0.117124
H	 3.2454550863	 1.665791111	 4.4260412491	 0.156453
H	 2.2954313915	 2.9909185438	 3.7563051343	 0.156662
H	 0.2297027192	 1.9002480387	 5.0609986647	 0.094838
19.6009	49.3573	88.8962	103.8929	170.8425	218.3671	260.679	362.0864	376.2159	434.4998	457.1407	524.2746	587.1524	706.6767	742.5632	784.01	881.2019	976.2878	1028.2744	1031.0045	1042.664	1068.6265	1114.6093	1126.4191	1161.3462	1198.0896	1208.6812	1213.2181	1289.8614	1323.2275	1376.9644	1413.3781	1438.1002	1448.367	1490.3622	1493.4262	1506.8727	1841.4472	2355.4633	2901.8472	2993.4462	3001.3821	3077.1251	3078.6453	3094.0752	3111.1416	3126.7826	3184.2928
CN1CC1C#CCC=O	CN1C[C@H]1C#CCC=O	
InChI=1S/C7H9NO/c1-8-6-7(8)4-2-3-5-9/h5,7H,3,6H2,1H3	InChI=1S/C7H9NO/c1-8-6-7(8)4-2-3-5-9/h5,7H,3,6H2,1H3/t7-,8?/m1/s1
