15
gdb 116844	3.58077	0.63331	0.54176	2.6266	74.72	-0.2594	-0.1041	0.1553	1905.7295	0.10876	-457.740878	-457.730732	-457.729788	-457.778782	33.031	
O	 0.0355652298	 1.2841107323	-0.2860663573	-0.412433
C	 0.0902597722	-0.1270374522	-0.2009211406	-0.06553
C	-1.3507373448	-0.6015112051	 0.0275232481	-0.338336
C	-1.4612016594	-2.0441325585	 0.1374062735	 0.051664
C	-1.5294286952	-3.2469146907	 0.2257370697	 0.111097
C	-1.593789624	-4.6756141743	 0.3283818232	 0.10897
O	-2.6071302393	-5.319619354	 0.5093438264	-0.25923
C	-0.2640472686	-5.4362091107	 0.1964114341	 0.082919
O	 0.8009091535	-4.9132342518	 0.0164033055	-0.217686
H	 0.9268787048	 1.6149447523	-0.4298508685	 0.294459
H	 0.4824567535	-0.5813274388	-1.1223690601	 0.109388
H	 0.7226931632	-0.4661426315	 0.6323258479	 0.10939
H	-1.7415995279	-0.1289309056	 0.9372626166	 0.157152
H	-1.9790831984	-0.2428514783	-0.7972635706	 0.15715
H	-0.4099498295	-6.5331228533	 0.2883992521	 0.111025
19.8149	47.4574	74.5251	121.4893	148.0399	161.7028	242.4827	262.9904	347.9178	399.3329	473.2687	505.7751	609.7722	665.4257	715.9465	784.3847	987.8931	1028.5547	1035.3728	1079.2812	1086.5943	1216.3178	1236.8916	1254.3563	1300.7044	1328.2702	1362.9817	1455.9406	1460.2742	1527.8505	1750.1255	1832.8475	2332.0178	2928.3523	2991.	3023.227	3033.3411	3071.1674	3836.4943
OCCC#CC(=O)C=O	OCCC#CC(=O)C=O	
InChI=1S/C6H6O3/c7-4-2-1-3-6(9)5-8/h5,7H,2,4H2	InChI=1S/C6H6O3/c7-4-2-1-3-6(9)5-8/h5,7H,2,4H2
