18
gdb 16904	3.8729	1.83168	1.42474	2.3848	67.46	-0.2541	0.0854	0.3395	908.9295	0.154758	-384.931615	-384.924425	-384.92348	-384.962836	27.927	
C	 0.0433776462	 1.5363192003	 0.0657055748	-0.40394
C	 0.0113476348	 0.0170893175	 0.0041633529	 0.143055
C	 0.68423589	-0.5456499377	-1.2584510644	-0.23372
C	 0.9572160247	-2.0343573291	-1.1350559288	 0.033573
O	 2.130277276	-2.4013179113	-0.3956311806	-0.246248
C	 0.8597240535	-2.6833056945	 0.1822459057	 0.043123
C	 0.4719451356	-1.847663282	 1.3827998425	-0.114586
O	 0.6599740682	-0.4653898039	 1.1759252091	-0.251102
H	 1.078318797	 1.8897774998	 0.1029769725	 0.129376
H	-0.4401423979	 1.9685392459	-0.8157191264	 0.113503
H	-0.4736442383	 1.8947381541	 0.9596402722	 0.122789
H	-1.0388533178	-0.326621667	 0.0182577221	 0.060276
H	 0.042453224	-0.3574813903	-2.1264716214	 0.098685
H	 1.6345665622	-0.0288521981	-1.4362345714	 0.118867
H	 0.8002462679	-2.6373504351	-2.0290560742	 0.091429
H	 0.6021699669	-3.7417369019	 0.2480136882	 0.089079
H	-0.5817442814	-2.0697154596	 1.6316907956	 0.086995
H	 1.0860786284	-2.1170202071	 2.2486704617	 0.118845
107.8535	206.8758	237.7188	309.4797	345.6439	375.2194	443.024	486.4157	555.5436	740.2086	781.2006	812.4533	853.06	901.4458	925.7215	947.5797	990.2469	1044.8086	1058.3688	1097.6012	1128.5249	1142.5731	1170.2071	1177.3095	1251.8376	1280.3974	1296.6212	1324.6747	1365.8176	1386.0286	1391.2651	1409.8881	1414.2771	1465.1462	1475.03	1482.8067	1484.6294	1501.2373	2935.8381	2948.4141	3035.1405	3043.154	3071.4673	3079.6457	3096.0723	3113.1744	3116.5035	3122.7742
CC1CC2OC2CO1	C[C@H]1C[C@H]2O[C@H]2CO1	
InChI=1S/C6H10O2/c1-4-2-5-6(8-5)3-7-4/h4-6H,2-3H2,1H3	InChI=1S/C6H10O2/c1-4-2-5-6(8-5)3-7-4/h4-6H,2-3H2,1H3/t4-,5+,6-/m0/s1
