16
gdb 5236	6.89513	1.14586	1.02838	2.0173	67.22	-0.2276	0.0039	0.2315	1140.7267	0.132041	-379.938469	-379.930857	-379.929913	-379.971262	26.923	
C	-0.2149150056	 1.4193543327	 0.1442570005	-0.307068
N	-0.1214941559	-0.0331699046	 0.1008184738	-0.289104
C	 0.8661543422	-0.5602068471	 1.0377556347	-0.245117
C	 0.8716264165	-2.0509472331	 1.0375478197	 0.400169
N	 1.8639258015	-2.8633966766	 0.8615774058	-0.303715
C	 1.3054760401	-4.1309895968	 0.9859372337	-0.113473
C	-0.018112884	-4.0101172634	 1.2303977214	-0.040393
O	-0.3148497261	-2.6751763107	 1.2723218841	-0.17988
H	 0.7249147168	 1.8571502841	-0.211057315	 0.125878
H	-1.0116911775	 1.7533392467	-0.525961346	 0.122043
H	-0.412780804	 1.8314965803	 1.1508119954	 0.0944
H	-1.0250156276	-0.4425264312	 0.3131538845	 0.227744
H	 1.8660737228	-0.2348925251	 0.7356864071	 0.140754
H	 0.7098170701	-0.1990332248	 2.0740934196	 0.098392
H	 1.8984197427	-5.0259456632	 0.8856271888	 0.124836
H	-0.8362771319	-4.6914665873	 1.3864292318	 0.144533
56.3346	96.1717	126.8057	246.551	304.5914	339.5591	403.5383	630.3505	693.4864	758.8009	775.4434	799.0668	865.4473	932.547	939.9588	981.7932	1001.5452	1103.8854	1124.7459	1138.0496	1156.7187	1164.4857	1192.4832	1254.5967	1275.527	1366.2385	1395.2833	1459.4923	1485.3517	1491.5489	1502.804	1518.6141	1558.0571	1630.7236	2900.5212	2938.8511	3056.8818	3087.0229	3108.9081	3265.4025	3301.8369	3529.4629
CNCC1=NC=CO1	CNCc1ncco1	
InChI=1S/C5H8N2O/c1-6-4-5-7-2-3-8-5/h2-3,6H,4H2,1H3	InChI=1S/C5H8N2O/c1-6-4-5-7-2-3-8-5/h2-3,6H,4H2,1H3
