23
gdb 122957	3.34644	0.78992	0.6754	2.8374	80.19	-0.2404	0.062	0.3023	1735.7565	0.203634	-462.551045	-462.540027	-462.539083	-462.5882	39.385	
C	-0.5024409688	 1.4619064253	-0.1855085827	-0.380443
C	-0.2885738603	-0.0530949968	-0.2329757655	-0.19528
C	-1.4908298367	-0.8484049727	 0.2846589806	 0.120676
O	-2.679291927	-0.5455118919	-0.4552025284	-0.419867
C	-1.2239075377	-2.3553038611	 0.3019889937	-0.085902
O	-2.2772177539	-3.0183898149	 0.9628620728	-0.257021
C	-2.8824919218	-4.1338935478	 0.3234432911	-0.082166
C	-4.3530424847	-3.823050008	 0.0675285658	-0.050626
O	-4.5177881851	-2.7409945945	-0.820785102	-0.444065
H	 0.3543839412	 1.9946047259	-0.6079375088	 0.113266
H	-1.3962806933	 1.7456880193	-0.7469309649	 0.129314
H	-0.6366838638	 1.8058070941	 0.8456758754	 0.119341
H	-0.0733215008	-0.3693662281	-1.2647194867	 0.089993
H	 0.5939328676	-0.3273503091	 0.3580006353	 0.104449
H	-1.7259601941	-0.5371028488	 1.3092485406	 0.102576
H	-2.5108241722	-0.7492090809	-1.3836716647	 0.285491
H	-1.1125830976	-2.717651487	-0.7318473128	 0.086547
H	-0.272067262	-2.5498428039	 0.8208622546	 0.093819
H	-2.381401885	-4.3523489976	-0.6292726893	 0.095021
H	-2.7837541523	-5.0162568376	 0.9721470457	 0.092328
H	-4.8348857584	-4.6971749796	-0.3871636683	 0.096413
H	-4.8483163233	-3.637032358	 1.0343228122	 0.090072
H	-4.0707964701	-1.9739373665	-0.4287028737	 0.296063
36.0364	76.3714	84.1615	120.2104	165.8965	183.1783	229.9181	284.1491	305.5377	328.5741	345.644	433.377	472.0767	525.0163	544.3411	685.4676	779.8998	845.6439	862.0106	888.5899	930.1488	991.7555	996.2094	1039.5469	1088.5809	1092.2098	1113.602	1130.7678	1157.4769	1176.3453	1240.3244	1255.2136	1272.6483	1288.8319	1301.1882	1359.0531	1381.7507	1391.1464	1404.0643	1409.1987	1420.0366	1425.5738	1452.222	1478.7246	1486.7094	1495.1878	1497.1064	1507.806	1510.5249	2969.1449	2976.2818	2994.8216	3001.3796	3008.2351	3040.8393	3042.7254	3048.2948	3058.8367	3063.1129	3106.8063	3123.7601	3678.1187	3782.5732
CCC(O)COCCO	CC[C@@H](O)COCCO	
InChI=1S/C6H14O3/c1-2-6(8)5-9-4-3-7/h6-8H,2-5H2,1H3	InChI=1S/C6H14O3/c1-2-6(8)5-9-4-3-7/h6-8H,2-5H2,1H3/t6-/m1/s1
