19
gdb 43383	2.44017	1.77115	1.14175	3.6309	81.48	-0.2302	-0.0479	0.1823	1083.0927	0.161733	-385.915014	-385.907447	-385.906503	-385.947518	29.604	
O	 0.0450984501	-0.0553370435	-0.0031686115	-0.344147
C	-0.0067112347	 1.1538125548	-0.1332254645	 0.355547
C	-1.2938270584	 1.8668975487	-0.2553285997	-0.146142
C	-1.3875554245	 3.2029656405	-0.2676167128	-0.049549
C	-0.2176174178	 4.1355707017	-0.1218400782	-0.281549
C	 1.13827334	 3.5170952451	-0.5170270347	-0.033947
C	 2.2736525359	 3.7705300249	 0.5168571905	-0.237413
C	 1.9605001528	 2.388457778	 1.1518350523	-0.226505
C	 1.2465786296	 2.000589598	-0.1824476566	-0.081593
H	-2.1741206114	 1.2339730295	-0.3136075498	 0.105427
H	-2.3709932099	 3.6650091108	-0.3353833691	 0.10584
H	-0.3985188467	 5.0485623169	-0.7004113935	 0.115331
H	-0.1927672223	 4.4683362174	 0.9270059477	 0.122052
H	 1.3653164904	 3.7750776857	-1.5545720206	 0.073581
H	 3.2582262958	 3.7804322285	 0.0413900083	 0.105522
H	 2.18388999	 4.6563798553	 1.1518204957	 0.096597
H	 2.7960241703	 1.7618474837	 1.4672845541	 0.112205
H	 1.2528645107	 2.4665003076	 1.9823478336	 0.109644
H	 1.9584593702	 1.4977691064	-0.8428137611	 0.099098
54.485	128.4141	220.9767	317.854	335.3447	438.4479	463.204	490.9297	644.9745	647.401	729.3355	745.7465	809.5489	854.3857	894.6684	924.073	943.1554	955.1948	961.8099	983.3811	1029.837	1073.8275	1074.104	1131.9791	1175.3903	1197.9826	1220.4493	1245.4113	1255.2667	1261.3472	1274.7896	1279.1189	1320.0078	1355.4321	1374.1532	1410.5284	1471.3549	1485.5418	1501.6521	1683.5548	1765.341	2995.8507	3047.6514	3053.1476	3062.447	3068.204	3077.8077	3103.4122	3126.3422	3142.4005	3184.9587
O=C1C=CCC2CCC12	O=C1C=CC[C@H]2CC[C@@H]12	
InChI=1S/C8H10O/c9-8-3-1-2-6-4-5-7(6)8/h1,3,6-7H,2,4-5H2	InChI=1S/C8H10O/c9-8-3-1-2-6-4-5-7(6)8/h1,3,6-7H,2,4-5H2/t6-,7+/m0/s1
