18
gdb 13399	5.73058	1.1163	1.00225	1.1721	70.76	-0.2324	0.0175	0.2498	1194.4932	0.153279	-384.926783	-384.918527	-384.917583	-384.960245	29.136	
C	-0.0935753516	 1.4130943914	 0.620334708	-0.223409
O	-0.1838423084	 0.0173592097	 0.7756636573	-0.238018
C	 0.9346547235	-0.6688172398	 0.2600060545	-0.069797
C	 0.6985064366	-2.166450447	 0.4697972645	 0.064424
O	 1.7670810605	-2.8925679352	-0.1402196707	-0.279902
C	 2.3708916473	-3.7743005756	 0.8048353359	-0.113457
C	 1.6614747161	-3.5027564537	 2.101839636	-0.096068
C	 0.7095135329	-2.597323773	 1.9110803033	-0.082958
H	-0.0189691839	 1.7006752925	-0.4402868401	 0.105582
H	-1.0023485293	 1.849990009	 1.0417104473	 0.126096
H	 0.7791780462	 1.8278034045	 1.1491349726	 0.104866
H	 1.0642978738	-0.4677020764	-0.8158275765	 0.094834
H	 1.8620106243	-0.3650046077	 0.7729109647	 0.087162
H	-0.2551188961	-2.4246558359	-0.019162446	 0.0893
H	 2.2528417842	-4.8191462499	 0.4745179448	 0.104157
H	 3.45206923	-3.5743724643	 0.8597045633	 0.105786
H	 1.9156632072	-3.998811233	 3.0300550763	 0.104916
H	 0.0236098267	-2.1925689356	 2.6425090848	 0.116485
66.8117	93.1881	111.0825	176.6737	236.2584	285.675	372.4471	399.2798	544.4511	729.4372	762.5328	803.2586	871.9562	935.5718	958.5977	962.7811	1002.5704	1046.9944	1079.9992	1098.9929	1119.0149	1136.1375	1168.0167	1184.5645	1197.7009	1228.9127	1235.5674	1304.3452	1333.2709	1377.7956	1385.8612	1409.8468	1480.9171	1485.9039	1503.3778	1522.8922	1526.6342	1690.2394	2960.0604	2966.4632	2972.1093	2974.7883	2993.1843	3003.8387	3015.7503	3112.2971	3211.4724	3242.1426
COCC1OCC=C1	COC[C@H]1OCC=C1	
InChI=1S/C6H10O2/c1-7-5-6-3-2-4-8-6/h2-3,6H,4-5H2,1H3	InChI=1S/C6H10O2/c1-7-5-6-3-2-4-8-6/h2-3,6H,4-5H2,1H3/t6-/m0/s1
