20
gdb 66459	3.06453	1.64996	1.49433	1.8168	82.18	-0.2177	0.0885	0.3062	1000.9411	0.171131	-365.942248	-365.93452	-365.933576	-365.973803	31.409	
C	-0.0136694201	 1.4569317815	-0.0051300176	-0.511009
C	-0.0780070575	-0.036469668	-0.0051256923	 0.363406
C	 0.4630555856	-1.0482783085	-0.9463605985	-0.18806
N	 1.1531196421	-0.8223913823	 0.3663201644	-0.19095
C	 0.4880156955	-2.0448874051	 0.9829957334	-0.033989
C	-0.6632483251	-1.5332716624	 1.8617654324	-0.256021
C	-1.1967106017	-0.9603391027	 0.5266548883	-0.169916
C	-0.4461718132	-2.1119839685	-0.2719197397	 0.362782
C	-1.0973542981	-3.3238418517	-0.8655478954	-0.536718
H	 0.9478741264	 1.7958386348	-0.4013292491	 0.132439
H	-0.8122662706	 1.887759601	-0.618943157	 0.115886
H	-0.1161774287	 1.8530812154	 1.0118897906	 0.121715
H	 0.9692207321	-0.9707275033	-1.9028741959	 0.086941
H	 1.1996177373	-2.8104594487	 1.2927127256	 0.069974
H	-1.2834444977	-2.3550312426	 2.2329377014	 0.100528
H	-0.4279496724	-0.8419039623	 2.6761386013	 0.100871
H	-2.2373311216	-0.6858720084	 0.3564896421	 0.066893
H	-1.7799707997	-3.0508674676	-1.678862627	 0.121012
H	-0.3521447488	-4.0155992349	-1.2753464492	 0.122749
H	-1.6792912838	-3.8687512157	-0.1133019379	 0.121468
188.3761	197.3123	216.6823	229.9698	253.1669	327.1862	438.6302	551.4715	567.9094	626.5842	719.526	753.1271	767.9392	823.0771	860.8179	870.2294	877.7529	917.6741	950.3203	986.5191	993.8058	1005.3836	1035.5112	1068.8096	1097.8161	1113.6059	1136.618	1147.305	1173.772	1198.2316	1211.5784	1240.2216	1269.8518	1282.6272	1361.6582	1398.7295	1413.8458	1441.86	1478.6885	1484.083	1484.474	1491.8594	1493.4991	3018.7329	3027.3177	3048.6896	3081.8096	3086.0163	3088.3817	3106.5392	3112.0118	3112.6717	3122.8368	3164.7898
CC12C3N1C1CC2C31C	C[C@@]12[C@H]3N1[C@H]1C[C@@H]2[C@@]31C	
InChI=1S/C8H11N/c1-7-4-3-5(7)9-6(7)8(4,9)2/h4-6H,3H2,1-2H3	InChI=1S/C8H11N/c1-7-4-3-5(7)9-6(7)8(4,9)2/h4-6H,3H2,1-2H3/t4-,5+,6+,7-,8-,9?/m1/s1
