21
gdb 107269	3.18907	1.45812	1.30054	0.9351	81.94	-0.2416	0.0988	0.3404	1078.8946	0.184191	-387.037557	-387.029843	-387.028898	-387.069557	31.45	
C	-0.2740054716	 1.2880658896	-0.0584919207	-0.253517
O	 0.2815239256	-0.0093440084	 0.0481416461	-0.291095
C	 0.7888215219	-0.4962959606	-1.1514354458	 0.472989
C	-0.1459840924	-1.0774366333	-2.1855732567	-0.38185
C	 0.8192452503	-1.9760715639	-1.4276285041	-0.114284
C	 2.2824083713	-2.1343917426	-1.8917996605	-0.037341
C	 2.5170932697	-0.9156800228	-2.8265041575	-0.235164
C	 2.239952556	-0.1146709182	-1.5261529641	-0.099041
C	 3.0088741854	-1.2730534744	-0.7978938042	-0.214489
H	 0.4721474206	 2.0320478016	-0.3721464217	 0.107063
H	-1.1081316513	 1.3118956089	-0.7741838324	 0.107575
H	-0.6455858367	 1.559311621	 0.9326302575	 0.12333
H	-1.1758398206	-1.1588503903	-1.851054588	 0.112814
H	-0.0460156168	-0.8838967309	-3.2470889548	 0.109841
H	 0.4154471552	-2.6819000562	-0.7113162852	 0.095683
H	 2.6189029402	-3.1351569045	-2.1633977366	 0.060068
H	 3.5643086475	-0.8374427653	-3.1268885369	 0.097003
H	 1.8821569082	-0.7695053968	-3.7010578886	 0.092263
H	 2.5252953884	 0.9325223069	-1.4226822084	 0.058415
H	 2.7538373219	-1.4599776758	 0.2481284674	 0.102293
H	 4.0933077271	-1.2253596738	-0.9308689148	 0.087444
99.8206	164.1329	177.158	305.1434	344.0488	406.3155	465.1495	519.2035	542.6368	632.513	697.7354	782.5925	836.3937	840.2715	857.184	891.8578	912.0897	948.8164	980.2869	987.7906	1013.075	1023.7641	1051.1438	1061.7387	1078.4085	1089.0547	1092.57	1112.8551	1127.832	1181.1528	1200.7574	1219.3415	1234.0032	1238.3725	1244.2462	1269.2738	1293.264	1310.13	1372.0045	1468.326	1485.3015	1488.3576	1496.1955	1506.7658	1534.902	2989.0613	3040.2123	3055.2374	3073.8067	3108.9246	3111.968	3115.7908	3119.2093	3122.9013	3133.7201	3182.9055	3212.6912
COC12CC1C1CC2C1	CO[C@]12C[C@H]1[C@H]1C[C@@H]2C1	
InChI=1S/C8H12O/c1-9-8-4-7(8)5-2-6(8)3-5/h5-7H,2-4H2,1H3	InChI=1S/C8H12O/c1-9-8-4-7(8)5-2-6(8)3-5/h5-7H,2-4H2,1H3/t5-,6+,7-,8-/m0/s1
