14
gdb 127901	4.0036	1.20739	0.933	0.3523	74.16	-0.2534	-0.0985	0.155	1186.1374	0.099765	-466.140695	-466.132164	-466.131219	-466.175567	29.544	
C	 0.3235071769	 1.4735054483	 0.1812171545	-0.333496
N	 0.1847945825	 0.0315898465	 0.0768347871	-0.345274
C	 0.3089566328	-0.5576537835	-1.0252992798	 0.536536
N	 0.174857736	-1.9332413786	-1.1162657	-0.397049
C	 0.2837030873	-2.6591134672	-2.2685243406	 0.473749
N	 0.1572837197	-3.9197515648	-2.3076307583	-0.512325
N	 0.5522872505	-1.8954411573	-3.4552886395	-0.130372
N	 0.6894329866	-0.6848029644	-3.4696235767	 0.062005
O	 0.5824178231	 0.06749703	-2.2151558081	-0.290149
H	 1.2179697507	 1.708291117	 0.7697852566	 0.13317
H	 0.3944308226	 1.9928537254	-0.7798230199	 0.133217
H	-0.5342623626	 1.8707122549	 0.7337042026	 0.132352
H	-0.0224780358	-2.4216308207	-0.2544487568	 0.287939
H	 0.2743686896	-4.2461902955	-3.2652660012	 0.249697
31.4319	61.8676	82.2152	196.3403	233.8052	380.2737	394.2265	474.4427	496.6939	543.8586	603.0659	693.0327	694.4414	740.2519	802.7325	867.5866	898.261	966.1946	1051.6188	1132.5008	1139.5632	1165.0736	1293.1098	1391.1305	1430.5499	1447.0435	1494.8424	1502.6097	1663.5702	1760.1574	1808.1991	3024.1411	3082.1617	3099.3976	3521.9404	3623.5321
CN=C1NC(=N)N=NO1	CN=c1[nH]c([NH])nno1	
InChI=1S/C3H5N5O/c1-5-3-6-2(4)7-8-9-3/h1H3,(H2,4,5,6)	InChI=1S/C3H8N5O/c1-5-3-6-2(4)7-8-9-3/h2,4,7-8H,1H3,(H,5,6)
