14
gdb 129202	3.46685	1.35235	0.97286	2.4973	78.49	-0.2506	-0.0901	0.1605	1116.1127	0.103306	-432.867282	-432.860002	-432.859058	-432.899565	27.295	
N	-0.0209494843	 0.9399229336	 1.2102012466	-0.504047
C	 0.0302597255	 0.1157631848	 0.2290473483	 0.38138
N	 1.2544755055	-0.3431785913	-0.2878160122	-0.325553
N	 1.6301166927	-1.1711466488	-1.2663986497	-0.163438
C	 0.8606962263	-1.8225609271	-2.0627707029	-0.060165
C	-0.6113174767	-1.9122684011	-2.2063533666	 0.323064
O	-1.0630571221	-2.6353867991	-3.0802098051	-0.324836
C	-1.532573639	-1.1612393717	-1.3330833524	-0.172557
C	-1.2516848308	-0.3245621756	-0.3271043832	-0.046224
H	 0.9082365603	 1.203067159	 1.5460892167	 0.214422
H	 2.0614353367	 0.0374132547	 0.1861661894	 0.264527
H	 1.3858796176	-2.4405176093	-2.7870264369	 0.138312
H	-2.5741749836	-1.345918704	-1.5790826027	 0.131475
H	-2.0725340582	 0.140567426	 0.2083341405	 0.143638
68.5866	108.4796	286.0446	366.5091	387.0074	403.3425	411.0832	535.3533	604.2868	639.9262	667.2141	765.921	766.1747	849.4957	855.8694	887.1458	894.8424	940.7841	1054.8949	1092.1588	1185.2299	1209.2202	1301.0478	1388.5538	1395.677	1407.9643	1503.0198	1653.4019	1675.0785	1716.9575	1733.4246	3167.1501	3179.9119	3202.5401	3448.6785	3593.1544
N=C1NN=CC(=O)C=C1	[NH]C1=C[CH]C(=O)C=NN1	
InChI=1S/C5H5N3O/c6-5-2-1-4(9)3-7-8-5/h1-3H,(H2,6,8)	InChI=1S/C5H5N3O/c6-5-2-1-4(9)3-7-8-5/h1-3H,(H2,6,8)
