15
gdb 56133	4.95513	0.72996	0.64021	3.8379	64.78	-0.2613	-0.0783	0.183	1623.9766	0.109828	-491.11661	-491.106641	-491.105696	-491.154461	32.781	
N	-0.0031479464	 1.2770534065	-0.0457836802	-0.526015
C	 0.0709594098	-0.0795440673	 0.0820100036	 0.376286
O	 1.1088603973	-0.6824482495	 0.2322031473	-0.330626
C	-1.3035534356	-0.7538137578	 0.0507714584	-0.174994
O	-1.1036105615	-2.1557549873	-0.0197209361	-0.212546
C	-2.2119903422	-2.9098876314	 0.0033391612	 0.317774
N	-3.3906817671	-2.4502024537	 0.0723285025	-0.510639
C	-1.8505748295	-4.3790304213	-0.0638350363	 0.104722
O	-2.6939335132	-5.2366004646	-0.0582564051	-0.234721
H	 0.854405861	 1.8038664102	-0.0310323299	 0.268832
H	-0.8639458784	 1.7613203022	-0.2326547827	 0.264314
H	-1.8733549444	-0.4998817687	 0.9529925558	 0.150933
H	-1.8974752229	-0.4145923294	-0.8066134655	 0.137065
H	-4.041345797	-3.2391438133	 0.0764453839	 0.248692
H	-0.7660293499	-4.5942393745	-0.1169422369	 0.120922
14.5951	44.5317	76.1338	109.296	122.0046	203.76	260.6337	281.4033	374.5194	485.6894	519.4885	570.9065	598.7735	642.9143	738.6515	851.5446	903.4725	955.7022	1014.4457	1042.3908	1050.501	1094.3451	1150.1753	1257.1618	1291.6804	1347.0086	1404.7854	1441.907	1494.8571	1620.5165	1717.7867	1827.8366	1830.6605	2960.7929	3031.2087	3068.8153	3467.1136	3603.4682	3737.6059	14.5965	44.5313	76.1346	109.2962	122.0044	203.7599	260.6338	281.4033	374.5194	485.6894	519.4886	570.9063	598.7736	642.9146	738.6518	851.5447	903.4723	955.7023	1014.4458	1042.3913	1050.5009	1094.3453	1150.1752	1257.1623	1291.6807	1347.0089	1404.7858	1441.9074	1494.8575	1620.5171	1717.7867	1827.8375	1830.6612	2960.7932	3031.2086	3068.8153	3467.1137	3603.4681	3737.6058
NC(=O)COC(=N)C=O	NC(=O)CO[C]([NH])C=O	
InChI=1S/C4H6N2O3/c5-3(8)2-9-4(6)1-7/h1,6H,2H2,(H2,5,8)	InChI=1S/C4H6N2O3/c5-3(8)2-9-4(6)1-7/h1,6H,2H2,(H2,5,8)
