19
gdb 93051	2.55029	1.82794	1.36365	2.2393	75.37	-0.2464	0.0012	0.2476	990.6212	0.161412	-423.01539	-423.007779	-423.006835	-423.047463	30.243	
O	 0.180093956	 1.4397264891	 0.0787436275	-0.436331
C	 0.0699058696	 0.0263069898	-0.0244185857	 0.102576
C	 0.8366599252	-0.6583835333	 1.1236681273	-0.272427
C	 0.1467684813	-0.4069503046	 2.4443511037	-0.061029
C	-1.1696849327	-0.213465042	 2.5430179758	-0.093201
C	-2.0623666231	-0.3364259369	 1.3529555188	 0.098542
O	-2.7236195671	 0.898368058	 0.9412956863	-0.31119
C	-2.4318351635	 0.6013199444	-0.4483799644	-0.096858
C	-1.3930499799	-0.4583892933	-0.0349688419	-0.096264
H	-0.3158415357	 1.7152651903	 0.8600597396	 0.288731
H	 0.5430429932	-0.2192922208	-0.9807428663	 0.084598
H	 0.9276472931	-1.7369400439	 0.9314054802	 0.108792
H	 1.8556613843	-0.259992871	 1.1504241702	 0.115166
H	 0.7682698555	-0.3626242908	 3.3352442393	 0.097597
H	-1.6377700604	 0.0013205722	 3.5000945376	 0.098197
H	-2.8210914319	-1.1151407698	 1.5273576248	 0.07994
H	-3.3092647311	 0.1859439651	-0.9617470765	 0.093602
H	-2.0599462806	 1.4784641424	-0.9820795498	 0.123719
H	-1.4639257424	-1.4385829249	-0.5121611567	 0.075838
74.7153	157.573	260.0213	298.9193	357.5519	379.1918	422.8246	501.0826	547.6097	576.052	724.4305	760.9913	809.1145	845.3621	890.0316	904.5898	960.4273	982.1599	988.225	1003.3139	1006.711	1030.9445	1061.2919	1088.6687	1128.233	1169.0018	1176.9048	1213.1098	1243.1388	1276.3455	1284.4246	1301.252	1340.2922	1351.5482	1374.9963	1390.973	1417.2017	1440.9362	1468.7604	1510.2572	1707.3924	2975.6951	3010.7476	3013.1616	3054.7971	3077.3058	3084.0235	3107.8684	3150.3349	3173.2057	3777.9204
OC1CC=CC2OCC12	O[C@H]1CC=C[C@H]2OC[C@@H]12	
InChI=1S/C7H10O2/c8-6-2-1-3-7-5(6)4-9-7/h1,3,5-8H,2,4H2	InChI=1S/C7H10O2/c8-6-2-1-3-7-5(6)4-9-7/h1,3,5-8H,2,4H2/t5-,6-,7+/m0/s1
