18
gdb 11463	3.12767	1.78092	1.55552	2.1614	63.86	-0.2499	0.0793	0.3292	911.0607	0.153761	-422.078582	-422.070445	-422.069501	-422.111325	29.802	
C	 0.2089834641	 1.5510953383	 0.2701955115	-0.393824
C	 0.0908384677	 0.0649914732	-0.0508279018	 0.113542
C	 0.9860882108	-0.4134491177	-1.2049566905	-0.113035
O	 2.1863553503	-0.8010190825	-0.5479975014	-0.277342
C	 1.8052639961	-1.3064897753	 0.7183975593	 0.213638
C	 2.9006700046	-0.9395021888	 1.7190378062	-0.088532
O	 3.2723613917	 0.4171284955	 1.6258260142	-0.414792
O	 0.5585466826	-0.7237639986	 1.0483573013	-0.279714
H	 1.2498184416	 1.8118163402	 0.4780328214	 0.131793
H	-0.1628203405	 2.1605091994	-0.5605824014	 0.106747
H	-0.3790910924	 1.7881524038	 1.1609287896	 0.128485
H	-0.9568618127	-0.2019335967	-0.231307902	 0.084325
H	 0.5393383968	-1.2700522113	-1.7299788933	 0.101388
H	 1.2277686719	 0.3663992435	-1.9306950297	 0.117415
H	 1.6798010954	-2.4032508009	 0.675742877	 0.067688
H	 2.5236002299	-1.1142245142	 2.7306197073	 0.122751
H	 3.7577273208	-1.6118348611	 1.5517559792	 0.091318
H	 3.4399582813	 0.5734616634	 0.6882888831	 0.288148
68.1367	120.692	165.195	226.3328	272.3968	321.3892	350.2565	408.8645	445.9721	654.6483	736.3639	757.4384	817.6213	855.0323	892.8017	940.9561	955.3101	1033.1155	1050.2067	1089.3931	1095.3384	1117.246	1160.8205	1171.6266	1224.7742	1257.7217	1321.2654	1348.092	1367.4153	1382.8054	1391.8433	1410.9682	1413.5994	1438.8356	1481.8959	1492.4338	1498.3803	1513.807	2941.6072	2982.5766	3000.6759	3038.5203	3043.6205	3097.5882	3105.8297	3114.4054	3132.0069	3785.3368
CC1COC(CO)O1	C[C@H]1CO[C@@H](CO)O1	
InChI=1S/C5H10O3/c1-4-3-7-5(2-6)8-4/h4-6H,2-3H2,1H3	InChI=1S/C5H10O3/c1-4-3-7-5(2-6)8-4/h4-6H,2-3H2,1H3/t4-,5+/m0/s1
