20
gdb 95880	3.24024	1.12126	0.89597	3.0461	77.95	-0.2357	0.0279	0.2636	1313.9955	0.17213	-440.322746	-440.314079	-440.313135	-440.356254	32.599	
C	-0.061324403	 1.500718348	 0.0571292701	-0.404873
C	 0.0128925038	-0.015690723	-0.0090861586	 0.137438
C	 0.7809908355	-0.5180931537	-1.2420319718	-0.183833
N	 0.9612235498	-1.9566427358	-1.1679256898	-0.052559
C	 1.5259043412	-2.4554596206	 0.0784518764	-0.180335
C	 0.7323042906	-1.8806492603	 1.2514116567	-0.080466
O	 0.6582550441	-0.4654719867	 1.1769665345	-0.259882
C	 0.5969432468	-2.8063452696	-2.1680099186	 0.14814
O	 0.7110147415	-4.0140721668	-2.1433659426	-0.342654
H	 0.9435288913	 1.9328831372	 0.0885821175	 0.127923
H	-0.5876458534	 1.9015108719	-0.8144913359	 0.117944
H	-0.5944689291	 1.8109885751	 0.9589730674	 0.132232
H	-1.0045474443	-0.4431712994	-0.0471071896	 0.07139
H	 0.2379056724	-0.2730084982	-2.1600665865	 0.116125
H	 1.7590486742	-0.0153501433	-1.2769741292	 0.109014
H	 1.4808955546	-3.5455831427	 0.051193627	 0.148436
H	 2.5768529818	-2.1449199859	 0.1585634357	 0.112329
H	-0.2806882308	-2.3144283414	 1.2588565227	 0.100033
H	 1.2194308736	-2.1176519436	 2.2012495943	 0.113723
H	 0.1707883396	-2.2580979514	-3.0321225899	 0.069876
61.8788	137.1349	205.3649	225.3434	282.4139	300.8294	329.9473	354.3801	413.6714	455.4249	488.4895	586.4915	712.9682	813.469	842.0459	894.6927	909.0438	952.2724	992.9074	1028.3759	1081.8157	1109.0954	1124.4987	1152.8049	1164.3157	1208.0668	1240.1211	1275.4279	1303.1344	1326.313	1374.9359	1383.4012	1403.6222	1411.7467	1415.5208	1433.2735	1458.5312	1476.0089	1483.6656	1486.9843	1492.439	1500.7251	1792.489	2929.1179	2951.2591	2980.0332	2996.3433	3015.3724	3044.3321	3085.8093	3094.3299	3116.93	3127.6662	3129.1442
CC1CN(CCO1)C=O	C[C@H]1CN(CCO1)C=O	
InChI=1S/C6H11NO2/c1-6-4-7(5-8)2-3-9-6/h5-6H,2-4H2,1H3	InChI=1S/C6H11NO2/c1-6-4-7(5-8)2-3-9-6/h5-6H,2-4H2,1H3/t6-/m0/s1
