19
gdb 34485	2.84467	1.38136	0.99134	1.1357	94.28	-0.212	-0.0147	0.1973	1210.0063	0.159843	-348.716743	-348.708651	-348.707706	-348.749295	31.906	
C	-0.0468535155	-1.1501484715	 0.1370161895	-0.422656
C	-0.0644239392	 0.051929841	 0.0379891374	 0.198497
C	-0.040792257	 1.4583806849	-0.0798376718	 0.022735
C	-1.0753199113	 2.3048237064	-0.1690886194	 0.213978
C	-2.5047896276	 2.5223344994	 0.2555883325	-0.327901
C	-1.9792041328	 3.8737711654	 0.8755665192	-0.239949
C	-0.6933982488	 3.7475583918	-0.024158502	-0.02948
C	 0.7673648447	 3.6880403295	 0.4656001474	-0.243802
C	 1.2554670695	 2.2879256638	-0.0252362463	-0.306323
H	-0.046640676	-2.2082231093	 0.2221171526	 0.186235
H	-3.1865196023	 2.7084672883	-0.5812053145	 0.116008
H	-2.9535991182	 1.7796751333	 0.9188623649	 0.118722
H	-2.6054049973	 4.7571024784	 0.7306499668	 0.101869
H	-1.7429321108	 3.7612340373	 1.9365060481	 0.110495
H	-0.8098256358	 4.3379340856	-0.9416494402	 0.078017
H	 1.394105658	 4.505065491	 0.0971889055	 0.096414
H	 0.7969819792	 3.7165307838	 1.5607195605	 0.103956
H	 1.9877066323	 1.8378424893	 0.6515183059	 0.112983
H	 1.7333256089	 2.3482840316	-1.0119296162	 0.110201
104.1296	132.9816	156.2719	242.7474	324.0942	364.5363	490.7246	524.6396	550.4424	580.1122	605.7151	632.8381	678.5949	706.2526	795.2996	818.6384	884.6362	908.3519	932.694	960.2258	990.8828	1051.3121	1069.1325	1076.7891	1125.3567	1172.0436	1180.4836	1197.9285	1219.0644	1233.9409	1257.6701	1262.2188	1301.7868	1322.8583	1333.7062	1469.9665	1480.2925	1484.9305	1497.8307	1715.9879	2215.078	3021.1297	3021.9319	3041.3805	3047.4153	3062.0771	3081.9673	3096.2151	3106.8751	3126.5142	3504.062
C#CC1=C2CCC2CC1	C#C[C]1[C]2CC[C@H]2CC1	
InChI=1S/C9H10/c1-2-7-3-4-8-5-6-9(7)8/h1,8H,3-6H2	InChI=1S/C9H10/c1-2-7-3-4-8-5-6-9(7)8/h1,8H,3-6H2/t8-/m1/s1
