15
gdb 14428	4.18897	1.89554	1.69656	3.4907	59.83	-0.2214	0.0635	0.285	783.5503	0.120209	-399.713995	-399.707598	-399.706654	-399.744144	26.04	
O	 0.0312048102	 1.4202788204	-0.0147613767	-0.448705
C	 0.0068152447	 0.0267926098	-0.0242502966	 0.216907
C	-1.3209354482	-0.7365844505	-0.0954560205	-0.178088
C	-1.6691321684	-0.8141456987	-1.6004956247	-0.139087
N	-0.62381899	-0.0158746952	-2.2823834707	-0.330284
C	 0.3595530232	-0.6828403316	-1.3617620293	-0.190571
C	-0.7189319294	-1.803125951	-0.9759986399	 0.34741
O	-0.6906939624	-3.1523299974	-0.7518237419	-0.442811
H	-0.3281356713	 1.6785414588	-0.8770724706	 0.284521
H	 0.6232825399	-0.3365550937	 0.8014610966	 0.093143
H	-2.0877263291	-0.8563801053	 0.6587748252	 0.096237
H	-2.6897715972	-0.8957181769	-1.9506510967	 0.102209
H	-0.4949625941	-0.3854391408	-3.2221683868	 0.218996
H	 1.3834173619	-0.7906051031	-1.7136924956	 0.07784
H	-0.5856419199	-3.6050057948	-1.5966321519	 0.292282
181.0588	270.3491	315.4718	369.6709	388.5201	538.7876	555.7554	605.7938	646.769	724.1989	758.7093	818.8915	878.5765	908.544	937.9559	957.2136	977.929	1014.2674	1027.8969	1057.525	1096.3878	1109.0488	1147.6905	1178.208	1211.7688	1249.3028	1293.0416	1311.4905	1315.9245	1352.9833	1449.6781	1483.4198	3092.9792	3143.9095	3203.1259	3212.0073	3479.9622	3716.3455	3784.6511
OC1C2C3NC1C23O	O[C@H]1[C@H]2[C@H]3N[C@@H]1[C@@]23O	
InChI=1S/C5H7NO2/c7-2-1-3-5(1,8)4(2)6-3/h1-4,6-8H	InChI=1S/C5H7NO2/c7-2-1-3-5(1,8)4(2)6-3/h1-4,6-8H/t1-,2-,3+,4-,5+/m0/s1
