16
gdb 117122	2.70203	0.96294	0.74936	3.795	66.99	-0.2851	-0.057	0.2281	1473.6742	0.120652	-475.020434	-475.010488	-475.009544	-475.056781	33.497	
C	-0.0966596846	 1.360752986	 0.0470285272	-0.233489
O	-0.0096317243	-0.0435795755	-0.0859966134	-0.214708
C	-1.2379320256	-0.6773555995	 0.0691753294	-0.163411
C	-1.0605273259	-2.1762939699	-0.0249741807	 0.340267
O	-0.0005663879	-2.7392436274	-0.1083419258	-0.283064
C	-2.3479508198	-3.0567073714	-0.035900311	-0.07672
O	-2.0019137626	-4.4022734694	-0.1096608926	-0.40767
C	-3.1694773159	-2.7621049312	 1.1548113482	 0.261448
N	-3.807706887	-2.5001592312	 2.0818342517	-0.317135
H	 0.9123859243	 1.7552091874	-0.0849619787	 0.143305
H	-0.7569246319	 1.801062621	-0.715623107	 0.113102
H	-0.4700110574	 1.6513627706	 1.0404077786	 0.117834
H	-1.7073189018	-0.4565115876	 1.0452278694	 0.149188
H	-1.9735557114	-0.3657791484	-0.6966988167	 0.119298
H	-2.9378583965	-2.7603505199	-0.9189851496	 0.144488
H	-1.0283217217	-4.4139090737	-0.076856729	 0.307267
41.0685	67.3736	90.9977	113.5928	175.3432	232.7563	247.0172	328.0934	341.5066	407.414	423.6311	463.1551	553.2868	603.7001	744.0991	831.805	958.8095	983.2521	1016.7899	1080.3471	1156.2065	1174.5696	1182.9963	1226.322	1242.2828	1270.7552	1347.3916	1416.7867	1429.6554	1465.8137	1488.1025	1490.3741	1514.2797	1836.6604	2354.0407	2935.7077	2963.0669	2980.2488	2981.8465	3031.6428	3132.175	3635.1724
COCC(=O)C(O)C#N	COCC(=O)[C@@H](O)C#N	
InChI=1S/C5H7NO3/c1-9-3-5(8)4(7)2-6/h4,7H,3H2,1H3	InChI=1S/C5H7NO3/c1-9-3-5(8)4(7)2-6/h4,7H,3H2,1H3/t4-/m0/s1
