19
gdb 12807	3.35313	2.01953	1.54331	1.5798	76.59	-0.2308	0.0202	0.2509	898.0042	0.167489	-327.920547	-327.913197	-327.912253	-327.951724	29.199	
C	-0.1116074756	 1.5328584821	 0.0430195852	-0.474528
C	 0.0299521992	 0.0255308717	 0.0025591621	 0.311567
N	-0.7837225878	-0.783179839	 0.9488339684	-0.369865
C	 0.6861599201	-0.6937088762	 1.124923111	-0.085132
C	 1.4757378695	-1.967199252	 0.8398608468	-0.207861
C	 2.1069122603	-1.9688783031	-0.5669770113	-0.262715
C	 1.1553410438	-1.4551135422	-1.6210241469	-0.055227
C	 0.19961477	-0.5656645212	-1.3560318094	-0.095721
H	 0.7417385136	 2.0239661379	-0.4371298436	 0.126084
H	-1.0172844931	 1.8548614275	-0.4850697257	 0.121265
H	-0.1741558512	 1.8954762951	 1.0747445883	 0.10989
H	-1.2428277066	-0.1564561355	 1.6084308923	 0.218649
H	 1.0418731776	-0.0826476695	 1.9518625322	 0.075935
H	 2.2541810078	-2.1066706448	 1.5974781417	 0.090902
H	 0.7882794927	-2.814655868	 0.9227020732	 0.117988
H	 3.0202047434	-1.355355644	-0.5733857548	 0.108184
H	 2.4345260662	-2.9828774385	-0.8216326255	 0.102557
H	 1.2723951461	-1.8386353408	-2.6315768004	 0.087141
H	-0.4754750359	-0.2224705095	-2.1369580237	 0.080885
117.4354	189.9362	232.7826	280.2287	346.0311	429.2067	476.7285	509.7833	525.848	650.4916	730.7358	770.6967	798.0864	859.39	903.0572	927.4945	961.4505	976.9498	998.7155	1025.774	1045.8254	1071.3749	1096.6421	1138.3988	1169.4575	1195.5889	1219.5978	1274.1331	1297.4557	1330.0543	1346.9683	1384.7664	1413.7489	1427.5879	1445.3797	1475.7303	1484.5163	1486.2313	1503.2465	1717.2867	2998.0746	3020.5048	3040.9352	3058.7517	3084.5884	3087.9033	3095.6549	3123.8202	3140.5951	3165.2032	3468.2128
CC12NC1CCC=C2	C[C@]12N[C@H]1CCC=C2	
InChI=1S/C7H11N/c1-7-5-3-2-4-6(7)8-7/h3,5-6,8H,2,4H2,1H3	InChI=1S/C7H11N/c1-7-5-3-2-4-6(7)8-7/h3,5-6,8H,2,4H2,1H3/t6-,7+/m0/s1
