19
gdb 81670	3.55442	1.30075	1.21715	3.8069	75.16	-0.2134	0.0255	0.2389	1092.3599	0.161382	-419.213224	-419.205362	-419.204418	-419.245436	31.117	
C	-0.1152030703	 1.5193879713	 0.0308236672	-0.419362
C	 0.0215060334	 0.0086015933	-0.0429030167	 0.070986
C	 0.8489483542	-0.5974863153	-1.2106860183	-0.021477
C	 2.053685902	-0.4465715343	-0.2572522641	-0.186533
N	 1.0842664222	-0.5355386678	 0.8992936907	-0.135789
C	 0.7914122614	-1.9637349068	 1.1217944007	-0.296023
C	 0.48458147	-2.7804160526	-0.1569792179	 0.387034
O	 0.2407325424	-3.9700148976	-0.1423292597	-0.379609
N	 0.5201156186	-2.0178460125	-1.2938435514	-0.296626
H	 0.8350280437	 2.0338352101	-0.1373137294	 0.121781
H	-0.8302579804	 1.8754341131	-0.7183319868	 0.11801
H	-0.4804233945	 1.8107765971	 1.0198964338	 0.132708
H	-0.9558148967	-0.4644785823	 0.0998084939	 0.081935
H	 0.8434297311	-0.1453006255	-2.205402704	 0.076794
H	 2.8154853068	-1.2293200896	-0.2914699992	 0.112572
H	 2.5314984487	 0.5345437855	-0.2783661223	 0.114591
H	 1.6401023279	-2.4397092925	 1.6235609511	 0.134381
H	-0.0679784802	-2.0597308339	 1.7933400372	 0.134739
H	 0.3539171398	-2.4763810196	-2.1758737449	 0.249888
75.0388	199.6681	242.2049	260.9111	353.1218	371.1879	417.567	451.5534	488.8277	527.9338	596.6364	665.8368	791.6075	804.931	817.1102	863.439	898.633	923.1339	1004.4798	1029.9744	1058.0238	1071.0694	1095.0079	1104.6087	1145.8465	1194.4226	1229.2279	1243.6823	1266.7628	1271.1665	1309.7798	1325.1718	1355.9746	1386.3976	1414.2097	1443.9525	1462.8632	1489.6132	1494.1847	1512.3585	1806.0953	3040.4529	3049.0172	3053.5711	3066.3691	3080.3872	3095.9351	3109.2457	3117.681	3127.4606	3633.9726
CC1C2CN1CC(=O)N2	C[C@H]1[C@H]2CN1CC(=O)N2	
InChI=1S/C6H10N2O/c1-4-5-2-8(4)3-6(9)7-5/h4-5H,2-3H2,1H3,(H,7,9)	InChI=1S/C6H10N2O/c1-4-5-2-8(4)3-6(9)7-5/h4-5H,2-3H2,1H3,(H,7,9)/t4-,5+/m0/s1
