23
gdb 123061	6.59335	0.51788	0.49975	2.2575	83.95	-0.2442	0.0783	0.3224	2231.8293	0.204602	-425.402399	-425.391974	-425.39103	-425.43935	36.96	
O	 0.184262372	 1.3155134508	-0.1948621951	-0.419559
C	 0.1039967673	-0.0522998155	 0.1756105795	-0.071877
C	-1.2648029532	-0.567916095	-0.247762117	-0.182604
C	-1.4733882464	-2.034880855	 0.1008622362	-0.066959
O	-2.7644523039	-2.4170535018	-0.3299385809	-0.253622
C	-3.0657116725	-3.7634468524	-0.0855734331	 0.180101
C	-3.4301010857	-4.2157182375	 1.3597400134	-0.245597
C	-4.5694019621	-5.0700183426	 0.7374022606	-0.218121
C	-4.4696020528	-4.1998867251	-0.5461844384	-0.250182
H	 1.0473064468	 1.6476384327	 0.0684418168	 0.285116
H	 0.8957556781	-0.6439103569	-0.3135254921	 0.084223
H	 0.2321211381	-0.1778138264	 1.2637452564	 0.084149
H	-2.0407012025	 0.0335886994	 0.2375213673	 0.115373
H	-1.3825714706	-0.431731451	-1.3279720672	 0.115733
H	-0.7088826874	-2.6633562492	-0.3893248062	 0.082665
H	-1.3674421966	-2.1915903271	 1.1875564063	 0.087538
H	-2.2822420115	-4.413508848	-0.5083629579	 0.059378
H	-2.669803729	-4.722946402	 1.9582416703	 0.092299
H	-3.8286421994	-3.3674509585	 1.9244965308	 0.10684
H	-4.2544200278	-6.1016431221	 0.5579936728	 0.103232
H	-5.5274547263	-5.0875841221	 1.2600136728	 0.101669
H	-5.1489572337	-3.3439378483	-0.5052763727	 0.113411
H	-4.5634305209	-4.6855202964	-1.5197805126	 0.096795
43.7053	59.9294	88.028	117.1707	131.2299	167.0903	248.3919	267.2099	294.5745	404.619	480.3279	500.6122	643.2694	766.9302	779.8225	786.1413	890.2347	900.1194	925.4287	945.5034	971.8076	1021.8933	1040.275	1059.9743	1075.9672	1099.3194	1149.559	1177.9278	1186.1442	1191.6484	1231.6013	1240.7294	1245.8123	1252.2433	1259.3778	1272.854	1304.0431	1305.3363	1306.778	1319.0506	1380.9891	1447.2456	1467.7896	1471.4317	1486.7625	1499.1705	1509.433	1523.2351	1534.6679	2944.1399	2957.1658	2966.6474	2973.5895	2981.4221	3051.439	3055.3252	3062.6178	3066.7006	3097.5915	3106.3605	3115.4066	3127.7218	3830.159
OCCCOC1CCC1	OCCCOC1CCC1	
InChI=1S/C7H14O2/c8-5-2-6-9-7-3-1-4-7/h7-8H,1-6H2	InChI=1S/C7H14O2/c8-5-2-6-9-7-3-1-4-7/h7-8H,1-6H2
