17
gdb 124837	4.42258	0.98205	0.85595	6.7275	69.73	-0.2745	-0.0065	0.268	1329.1412	0.136113	-451.307995	-451.299331	-451.298387	-451.342307	30.849	
C	 0.1035339079	 1.518276208	 0.0363944995	-0.401192
C	 0.0047268759	 0.0086577996	 0.2493808555	 0.108924
O	 0.0746925293	-0.3344757138	 1.6303780072	-0.430336
C	-1.3371576817	-0.5345919658	-0.2428179054	-0.147032
N	-1.3994531115	-1.9859555093	-0.2043633624	 0.02756
C	-1.4038789166	-2.846720081	 0.8298098578	 0.064471
N	-1.4447555476	-4.0765921137	 0.3648583932	-0.228944
N	-1.4624027046	-3.9536933574	-0.9897665537	-0.097814
N	-1.4351142953	-2.7134909951	-1.3447838174	-0.131219
H	 1.0544710518	 1.8949140264	 0.4263034917	 0.119945
H	 0.0549020236	 1.7728717527	-1.027097356	 0.128664
H	-0.7057547116	 2.0350659049	 0.56153543	 0.132377
H	 0.8034861118	-0.4995730458	-0.3115145903	 0.096899
H	 0.9670053172	-0.1606158931	 1.9452649246	 0.293617
H	-2.1397734079	-0.1246546887	 0.3784873103	 0.140259
H	-1.512543852	-0.2497601885	-1.2809089281	 0.150363
H	-1.3640841987	-2.5402608494	 1.8604698134	 0.173459
44.1248	87.5575	118.0485	227.6949	263.7527	286.6287	316.8505	335.7979	462.8744	466.2601	675.994	736.9731	765.531	858.0126	874.8524	913.6789	947.3237	986.478	1039.7135	1072.0048	1111.9451	1121.3133	1131.115	1173.414	1195.0689	1262.8664	1313.8025	1342.3584	1347.828	1391.8246	1409.7066	1428.5218	1455.7214	1470.3295	1493.2035	1498.9444	1514.0155	2996.7413	3036.7589	3065.4703	3108.1887	3116.65	3143.3648	3308.1355	3829.2476
CC(O)CN1C=NN=N1	C[C@@H](O)Cn1cnnn1	
InChI=1S/C4H8N4O/c1-4(9)2-8-3-5-6-7-8/h3-4,9H,2H2,1H3	InChI=1S/C4H8N4O/c1-4(9)2-8-3-5-6-7-8/h3-4,9H,2H2,1H3/t4-/m1/s1
