17
gdb 36143	3.96361	1.11003	0.98723	2.4301	73.37	-0.2562	0.0427	0.2989	1204.9398	0.134754	-421.772277	-421.76404	-421.763096	-421.805492	30.907	
C	-0.0503640728	-1.1728755663	-0.3607353951	-0.44433
C	-0.0312715354	 0.002640198	-0.1141524625	 0.306795
C	 0.0134758064	 1.4289809313	 0.1969438622	-0.456499
C	 1.4192289548	 1.9927026732	 0.1780846539	 0.398976
C	 2.505537024	 1.4337388656	 1.0795814107	-0.134259
O	 3.5558314975	 2.3931059495	 1.0638263811	-0.255316
C	 3.0354358298	 3.6728911478	 0.7229894346	-0.101229
C	 1.7639078055	 3.3992950796	-0.0478814675	-0.060062
O	 1.9412797202	 2.4239557436	-1.0840118752	-0.28172
H	-0.0731418128	-2.2102331707	-0.5865710851	 0.201935
H	-0.5923735183	 1.988822925	-0.5240971908	 0.146043
H	-0.4278668488	 1.6011375195	 1.1876383116	 0.138285
H	 2.1007960616	 1.2872984269	 2.0948087553	 0.093466
H	 2.9106951442	 0.4816488554	 0.72523964	 0.129738
H	 2.8009071669	 4.2741763473	 1.6173406966	 0.094546
H	 3.797336708	 4.198990153	 0.1387623866	 0.122494
H	 1.0332798292	 4.1821885413	-0.2342041364	 0.101138
57.0512	106.6093	198.8123	234.2604	293.9199	340.2342	384.3119	420.5275	457.4791	626.6914	649.7277	678.3602	709.1337	780.4756	863.7768	907.3902	925.689	938.8514	952.6737	981.1261	1024.4963	1068.5229	1113.4058	1119.2881	1185.9414	1220.9793	1241.819	1261.3214	1287.7258	1337.6838	1359.7969	1384.3816	1452.0091	1475.7732	1498.9645	1510.4891	2242.881	2967.6077	2975.0492	3023.2144	3070.4692	3074.1554	3088.8989	3152.4364	3505.8973
C#CCC12COCC1O2	C#CC[C@]12COC[C@H]1O2	
InChI=1S/C7H8O2/c1-2-3-7-5-8-4-6(7)9-7/h1,6H,3-5H2	InChI=1S/C7H8O2/c1-2-3-7-5-8-4-6(7)9-7/h1,6H,3-5H2/t6-,7+/m1/s1
