20
gdb 120099	4.19276	0.91856	0.8502	1.6445	79.65	-0.2213	0.0636	0.2849	1420.5787	0.170476	-403.02957	-403.021048	-403.020104	-403.063313	32.219	
C	-0.0850624052	 1.3390421733	 1.1051452947	-0.230254
O	-0.2335653841	-0.0475059878	 0.9185236754	-0.244088
C	-1.323997921	-0.371618632	 0.0766299286	-0.124589
C	-1.3602043728	-1.8915237723	-0.0190162226	-0.004469
C	-2.4641665083	-2.8643591867	 0.285964458	-0.115353
C	-3.7871706574	-2.5779564774	-0.4495692897	-0.032652
C	-3.7956288706	-1.4241795914	-1.376354374	-0.250552
N	-3.1388925846	-2.6733587097	-1.804012695	-0.139864
C	-1.815088247	-2.8573605057	-1.0884275232	-0.04904
H	 0.7757769017	 1.4905436996	 1.7608429565	 0.128205
H	 0.0963623292	 1.8635143604	 0.153224334	 0.103984
H	-0.9743635002	 1.7868176413	 1.5769896188	 0.103791
H	-2.2553825382	 0.0333339431	 0.5025339068	 0.0989
H	-1.1801859465	 0.093015229	-0.9143206403	 0.098095
H	-0.4209937494	-2.2717190389	 0.3822321665	 0.115255
H	-2.3984513696	-3.6059656934	 1.0715798781	 0.094623
H	-4.6869682601	-3.1466318014	-0.2372525451	 0.100552
H	-4.722064272	-1.2555508742	-1.9201727793	 0.121659
H	-3.221350849	-0.5251801757	-1.206866168	 0.123359
H	-1.1308012049	-3.5603532399	-1.5473082804	 0.10244
58.445	103.2033	147.2268	200.0619	249.684	296.816	378.0528	434.4483	471.4109	671.2443	678.4641	711.6333	735.0574	784.4571	881.6804	893.9418	917.7828	962.2646	997.157	1020.1025	1028.1947	1050.9791	1065.5587	1072.2029	1096.3404	1121.8912	1140.6802	1154.9751	1185.4425	1195.8805	1225.9214	1244.7121	1277.3341	1284.2722	1334.2993	1343.4278	1392.3672	1450.7543	1479.6625	1485.2998	1502.6079	1504.8777	1534.6176	2945.4985	2968.8138	2987.7407	3010.8378	3114.4861	3120.8844	3129.6708	3158.2033	3182.5633	3196.3371	3249.8514
COCC1C2C3CN3C12	COC[C@H]1[C@H]2[C@H]3CN3[C@@H]12	
InChI=1S/C7H11NO/c1-9-3-4-6-5-2-8(5)7(4)6/h4-7H,2-3H2,1H3	InChI=1S/C7H11NO/c1-9-3-4-6-5-2-8(5)7(4)6/h4-7H,2-3H2,1H3/t4-,5+,6-,7-,8?/m0/s1
