17
gdb 87439	4.70663	1.18428	1.10763	2.0592	72.02	-0.2346	0.081	0.3156	1117.0208	0.134513	-421.704494	-421.697192	-421.696248	-421.736189	28.854	
C	-0.0024144948	 1.5689502496	-0.1775826743	-0.415139
C	-0.038155444	 0.0734119113	-0.0018438306	-0.059863
O	 1.23344739	-0.620957694	-0.1070536504	-0.311712
C	 0.5630933145	-0.6118250771	 1.134816346	 0.502186
C	 1.1486211199	-0.1906956922	 2.477066617	-0.239017
C	-0.0059352837	-0.9244009881	 3.2389161753	 0.105736
O	 0.8833506862	-1.691561769	 4.1015941862	-0.331587
C	 1.5423081607	-1.67485496	 2.8033170795	 0.110085
C	 0.2156572882	-1.8292220784	 1.9803014861	-0.241665
H	 0.8193488894	 2.0096212991	 0.3925643125	 0.126627
H	 0.1327435348	 1.8294164882	-1.2324442456	 0.132374
H	-0.9434474007	 2.0166810627	 0.1604830706	 0.122695
H	-0.8461613081	-0.4383326029	-0.5284059685	 0.093206
H	 1.6737209002	 0.7104702256	 2.7871312473	 0.095
H	-0.929647519	-0.5237396467	 3.6530738768	 0.103771
H	 2.4976608671	-2.1826316853	 2.6858097741	 0.111911
H	-0.3021623907	-2.7536150727	 1.7324280481	 0.095391
124.7801	164.9462	194.4305	242.0369	373.8206	449.4099	514.5716	574.5246	614.7229	742.1535	787.2774	798.2276	801.908	824.2834	877.921	913.4875	945.0441	959.656	988.6472	1013.8455	1040.1983	1081.7555	1103.0531	1123.9914	1134.1652	1141.4848	1149.8439	1170.8228	1177.1848	1222.7596	1243.3108	1326.2701	1363.6958	1410.4737	1478.1095	1492.9561	1561.1469	3036.4211	3088.6868	3100.482	3125.5394	3130.5313	3137.1503	3144.2685	3154.4137
CC1OC11C2C3OC2C13	C[C@H]1O[C@]21[C@H]1[C@@H]3O[C@H]1[C@H]23	
InChI=1S/C7H8O2/c1-2-7(9-2)3-5-4(7)6(3)8-5/h2-6H,1H3	InChI=1S/C7H8O2/c1-2-7(9-2)3-5-4(7)6(3)8-5/h2-6H,1H3/t2-,3-,4+,5-,6+,7-/m1/s1
