18
gdb 87100	2.83833	1.16678	0.99112	2.7554	81.61	-0.2536	-0.0658	0.1878	1256.2138	0.144588	-401.912544	-401.902703	-401.901759	-401.947329	35.64	
C	-0.2397009483	 1.5954667093	 0.5603394136	-0.40706
C	-0.1965304638	 0.1012432171	 0.3580070686	-0.006523
N	 0.8460496158	-0.4535750666	-0.4964567143	-0.358963
C	 0.8840029201	-0.7890994801	 0.9369008799	 0.188893
C	 2.0390969031	-0.2539415491	 1.7540340393	-0.484761
C	 0.3743252183	-2.1674254509	 1.2579978738	 0.20543
O	-0.2531082608	-2.8247159268	 0.4463191677	-0.3265
C	 0.6454820359	-2.6885678972	 2.5843008263	 0.260136
C	 0.8594167382	-3.1337719974	 3.6821257757	-0.411024
H	 0.7604636032	 2.0320408242	 0.5632659556	 0.13109
H	-0.8022500592	 2.0614266066	-0.2559999352	 0.130009
H	-0.7404348105	 1.8501760146	 1.5002108371	 0.121931
H	-1.1725044437	-0.3776276991	 0.2929456435	 0.103228
H	 0.4752822908	-1.2658823442	-0.991067549	 0.245563
H	 2.3469280932	 0.7235610552	 1.38206502	 0.133656
H	 1.7700729636	-0.1603411909	 2.809920528	 0.128167
H	 2.9042530074	-0.9213189141	 1.6851053914	 0.129956
H	 1.0431809365	-3.5369200506	 4.648548578	 0.216771
51.5784	127.0572	157.2288	161.6831	174.1962	242.9009	256.2159	292.9375	354.2086	405.876	466.4015	493.5839	583.7208	645.3249	682.0161	704.7875	735.8866	805.8129	830.3999	933.1588	994.6072	1047.0344	1059.6925	1098.7782	1105.0314	1133.1999	1177.5808	1264.1812	1286.9547	1356.601	1406.6595	1420.7633	1448.5658	1478.9426	1486.7484	1493.7355	1506.6004	1728.333	2212.0503	3039.7288	3047.876	3099.1727	3109.6569	3118.7125	3138.941	3148.9548	3459.9485	3492.5882
CC1NC1(C)C(=O)C#C	C[C@H]1N[C@]1(C)C(=O)C#C	
InChI=1S/C7H9NO/c1-4-6(9)7(3)5(2)8-7/h1,5,8H,2-3H3	InChI=1S/C7H9NO/c1-4-6(9)7(3)5(2)8-7/h1,5,8H,2-3H3/t5-,7+/m1/s1
