19
gdb 98788	4.09395	1.05606	0.85519	3.7067	78.96	-0.224	0.0133	0.2373	1348.9512	0.160092	-419.25161	-419.242354	-419.24141	-419.286551	32.788	
C	-0.0216336183	 1.4144477827	 0.006019514	-0.321578
N	-0.025472097	-0.0362397042	-0.0448682703	-0.369294
C	 0.6087470637	-0.6816252372	-1.0911497045	 0.493979
O	 1.0264091786	-0.0963906293	-2.0801249153	-0.428386
N	 0.7147497271	-2.0443194191	-0.9547428602	-0.141857
C	 0.0414083829	-2.8657288821	 0.0480277043	-0.220378
C	 0.2367412314	-4.257581475	-0.4919004989	-0.079194
C	 0.9023048339	-4.239681364	-1.6425343542	-0.076195
C	 1.2562307274	-2.8400197921	-2.0577865717	-0.188257
H	 0.856194372	 1.8211876674	 0.5266251795	 0.116338
H	-0.0077709359	 1.7838040163	-1.0193165503	 0.166417
H	-0.9247676341	 1.7721269133	 0.5092213357	 0.116382
H	-0.0800927026	-0.5180064597	 0.8373936046	 0.239324
H	 0.4902222229	-2.7538645333	 1.0503020761	 0.106745
H	-1.0238182648	-2.6015715712	 0.1456708916	 0.118883
H	-0.1356339522	-5.1319640748	 0.0263300537	 0.106425
H	 1.1738211148	-5.103045646	-2.2365237405	 0.108207
H	 0.8060331553	-2.5468291775	-3.0156803167	 0.130898
H	 2.3397389748	-2.6921438444	-2.1688624768	 0.121541
53.4024	72.6296	117.1869	152.5782	175.1695	214.6034	315.9275	390.3444	409.1927	458.8948	534.2349	694.3242	758.7682	772.4872	808.0514	856.9417	949.4937	963.7507	990.9142	1016.729	1030.4994	1051.7141	1131.4776	1150.3205	1165.1047	1179.3908	1192.7919	1202.8035	1237.0845	1326.0577	1353.2048	1382.0983	1388.7793	1441.0562	1490.4953	1505.0716	1513.995	1524.3832	1558.9178	1696.8885	1762.7137	2945.3108	2976.7999	3005.1547	3009.8288	3027.3164	3082.4518	3158.0493	3207.2211	3231.0627	3638.7496
CNC(=O)N1CC=CC1	CNC(=O)N1CC=CC1	
InChI=1S/C6H10N2O/c1-7-6(9)8-4-2-3-5-8/h2-3H,4-5H2,1H3,(H,7,9)	InChI=1S/C6H10N2O/c1-7-6(9)8-4-2-3-5-8/h2-3H,4-5H2,1H3,(H,7,9)
