23
gdb 121254	3.899	0.86444	0.77819	1.7955	85.33	-0.2537	0.0884	0.3421	1569.3674	0.206641	-388.297646	-388.288538	-388.287594	-388.33191	34.665	
C	-0.0136109999	 1.6033446235	 0.0361420813	-0.380724
C	 0.0471214022	 0.0739000331	-0.0015037814	-0.167943
C	 0.7269088235	-0.5276927702	 1.2338638757	-0.179034
C	 0.7774208651	-2.0603086876	 1.239956246	-0.001149
C	 1.6173050084	-2.687952757	 0.0925225771	-0.224333
C	 2.159326246	-4.0314461865	 0.6388741559	-0.250145
C	 2.2354881726	-3.8071249803	 2.1357002518	 0.050712
O	 2.8477669863	-2.5594954695	 2.4987846808	-0.266434
C	 1.4129057749	-2.6467126379	 2.4902292055	 0.033324
H	 0.9911141787	 2.0374139671	 0.0869713299	 0.115566
H	-0.5057689952	 2.0067699035	-0.8544108029	 0.109891
H	-0.5687589256	 1.9564020141	 0.9125149019	 0.112816
H	-0.97021646	-0.3317634887	-0.0876811457	 0.090892
H	 0.5787744933	-0.2467254173	-0.9060079037	 0.099416
H	 1.7526353052	-0.1447255626	 1.3168786666	 0.107234
H	 0.1985034249	-0.1836009776	 2.1340290692	 0.086558
H	-0.2517173531	-2.4481665377	 1.1932320848	 0.067448
H	 1.0392594976	-2.817715334	-0.8251502292	 0.098053
H	 2.4549269511	-2.024566722	-0.1398034625	 0.114608
H	 1.4628238196	-4.8561919556	 0.4418254934	 0.100716
H	 3.123159195	-4.3062071734	 0.1989142625	 0.107441
H	 2.4210384932	-4.6311874341	 2.8205300691	 0.089018
H	 0.9366427064	-2.5315568092	 3.4618157239	 0.086071
75.8771	95.142	115.3037	176.3767	245.0261	266.9555	310.5237	363.6819	396.2005	530.1102	658.1052	673.4908	746.4144	814.7717	829.5485	843.9292	873.5588	896.3105	911.9441	933.0929	964.1388	1014.0159	1033.3091	1040.3237	1047.3066	1085.9049	1096.682	1141.557	1149.8685	1199.9429	1223.7473	1256.4329	1262.1546	1289.4226	1307.4432	1321.3393	1330.9277	1338.9847	1346.2533	1375.0947	1398.3521	1414.5407	1439.6548	1481.0029	1484.927	1492.8091	1497.4483	1500.1439	1511.4279	2990.3914	3006.0753	3014.7823	3029.1106	3032.8502	3039.054	3058.8423	3064.5941	3081.7206	3096.1573	3100.7882	3111.2702	3130.8552	3146.8371
CCCC1CCC2OC12	CCC[C@H]1CC[C@H]2O[C@@H]12	
InChI=1S/C8H14O/c1-2-3-6-4-5-7-8(6)9-7/h6-8H,2-5H2,1H3	InChI=1S/C8H14O/c1-2-3-6-4-5-7-8(6)9-7/h6-8H,2-5H2,1H3/t6-,7+,8-/m0/s1
