17
gdb 94255	2.1662	1.44102	1.31177	2.5963	75.4	-0.2514	-0.045	0.2064	1083.2437	0.133732	-421.7886	-421.779717	-421.778773	-421.821995	33.385	
O	 0.5476782061	 0.9163844735	-0.5779568734	-0.427503
C	 0.1688423279	-0.1731807681	 0.1923557742	 0.132699
C	-0.0728920907	-0.0222054324	 1.7178752312	-0.273384
C	-1.2481904817	-1.0213986261	 1.6066192977	-0.265684
C	-1.2959125907	-0.7700101256	 0.0417972003	-0.008643
C	-2.3395132723	 0.2963038199	-0.2398383182	 0.127428
O	-2.144196784	 1.4860097368	-0.1473089405	-0.279275
C	-1.4991717714	-1.9188048499	-0.8132058905	 0.192092
C	-1.6695344052	-2.8681555466	-1.5321774295	-0.39248
H	-0.1358070377	 1.5909468012	-0.4583400646	 0.297911
H	 0.8842416273	-0.9741335586	-0.0115775691	 0.107176
H	 0.7515029761	-0.2845847419	 2.3829476364	 0.109526
H	-0.4200129883	 0.9855946103	 1.9580734205	 0.121817
H	-0.9596562731	-2.0554253025	 1.8017316162	 0.12927
H	-2.1632086746	-0.7980073798	 2.1588942483	 0.120271
H	-3.3390727014	-0.0977250546	-0.5175151943	 0.110661
H	-1.8093059363	-3.7085285456	-2.1664459147	 0.198119
95.4818	129.3096	149.3715	180.9791	234.3373	279.735	341.4843	457.633	497.0561	518.6134	533.4749	584.526	619.2285	628.544	643.545	755.5797	801.3946	862.7877	919.9802	951.4429	978.2865	1043.3361	1089.0726	1154.6338	1161.6365	1177.2376	1217.0381	1247.6198	1259.8035	1296.1519	1349.1198	1419.4674	1462.6591	1481.7269	1496.0445	1795.4677	2229.4059	2921.9449	3073.2408	3077.717	3082.2574	3125.3648	3140.6455	3499.8914	3737.334
OC1CCC1(C=O)C#C	O[C@H]1CC[C@]1(C=O)C#C	
InChI=1S/C7H8O2/c1-2-7(5-8)4-3-6(7)9/h1,5-6,9H,3-4H2	InChI=1S/C7H8O2/c1-2-7(5-8)4-3-6(7)9/h1,5-6,9H,3-4H2/t6-,7-/m0/s1
