20
gdb 63919	2.9775	1.61044	1.5706	0.8003	77.06	-0.229	0.078	0.3071	979.8125	0.171318	-403.107356	-403.099527	-403.098583	-403.139044	31.806	
C	-0.2542951512	 1.6126311201	 0.0745683569	-0.419512
C	-0.0187526679	 0.1001447348	 0.0057655992	 0.354021
C	-1.3539683684	-0.652470297	-0.0088629212	-0.414388
O	 0.6829218744	-0.2506876248	-1.2154918292	-0.311416
C	 1.9671626337	-0.7345741236	-0.8633528049	 0.063512
C	 2.7986155241	 0.3526724377	-0.1522002994	-0.175972
N	 2.337595486	-0.1262831489	 1.2005553371	-0.176657
C	 1.8451592478	-1.3939315814	 0.533593832	-0.069041
C	 0.8804085322	-0.4522139566	 1.1132469397	-0.064596
H	 0.6816136935	 2.171479886	 0.1202958473	 0.125133
H	-0.8123897225	 1.9445909043	-0.8057482249	 0.123624
H	-0.8397818967	 1.8637245441	 0.9651745718	 0.115486
H	-1.9179757682	-0.3794786711	-0.9054791127	 0.125402
H	-1.1844399703	-1.7324593463	-0.0285100893	 0.118932
H	-1.9608017928	-0.406981709	 0.8684878443	 0.112223
H	 2.3896678999	-1.2724020541	-1.7114598482	 0.084632
H	 3.875991109	 0.1750816449	-0.2121427223	 0.110081
H	 2.5839441336	 1.3949288875	-0.4029628245	 0.104774
H	 2.1002871516	-2.3908346275	 0.8703114028	 0.095909
H	 0.4438777623	-0.6285461091	 2.0902232454	 0.097854
160.0353	181.9847	213.3783	238.1425	332.253	364.8387	385.4924	458.6905	534.5434	602.6512	656.2233	769.3324	773.7082	818.9519	847.4596	870.7896	889.158	929.2342	943.6601	958.9673	972.9024	992.9308	1018.259	1052.2134	1062.2871	1114.7135	1172.2941	1181.6541	1198.6141	1213.5547	1233.6182	1246.6025	1282.388	1305.3635	1343.4118	1385.8158	1396.1866	1416.9898	1475.1485	1480.348	1492.4822	1502.5458	1507.753	3038.1088	3045.6878	3053.1156	3106.9856	3108.4673	3115.7935	3120.3066	3123.5895	3141.0839	3175.1128	3193.9054
CC1(C)OC2CN3C2C13	CC1(C)O[C@H]2CN3[C@H]2[C@H]13	
InChI=1S/C7H11NO/c1-7(2)6-5-4(9-7)3-8(5)6/h4-6H,3H2,1-2H3	InChI=1S/C7H11NO/c1-7(2)6-5-4(9-7)3-8(5)6/h4-6H,3H2,1-2H3/t4-,5+,6+,8?/m0/s1
