14
gdb 82695	2.98452	1.58722	1.25403	4.179	66.46	-0.2645	0.0043	0.2688	965.0971	0.101501	-436.627901	-436.620985	-436.620041	-436.65928	26.924	
O	 0.1370143793	 1.4161739903	 0.0601494115	-0.42716
C	 0.0176679174	 0.0387041297	 0.0105398421	 0.120735
C	 0.2075021865	-0.7552455023	 1.3317261496	-0.006161
O	-0.7531609155	-0.0959635035	 2.2181211107	-0.298662
C	-1.7698572313	-0.7463103446	 1.4628794395	 0.05259
C	-0.8847389926	-1.7729180333	 0.8659801365	-0.185324
C	-1.3806387308	-0.6220570705	-0.0355570512	 0.127786
C	-2.3239219989	-0.6664525554	-1.0955176966	 0.155715
N	-3.0924253365	-0.7005291305	-1.9612102852	-0.345192
H	-0.2819118776	 1.6945122898	 0.8864883639	 0.294425
H	 0.6493312012	-0.3437558056	-0.7936739279	 0.119112
H	 1.1730950801	-0.9422143138	 1.7926169142	 0.110781
H	-2.7898500835	-0.7568608426	 1.8207683727	 0.145389
H	-0.9367426078	-2.8430609876	 0.7355486304	 0.135967
133.8581	156.2938	223.5117	323.5632	477.259	504.741	507.0968	546.6374	621.2119	673.8561	740.0917	782.1398	820.6424	856.0282	901.7797	937.3291	956.529	973.2351	994.0506	1042.6786	1128.2442	1131.3102	1169.3216	1197.6808	1228.6311	1258.6388	1277.5502	1302.9402	1391.83	1440.4634	2343.5201	3110.8311	3172.5083	3227.2109	3243.5449	3756.8982
OC1C2OC3C2C13C#N	O[C@H]1[C@H]2O[C@@H]3[C@H]2[C@]13C#N	
InChI=1S/C6H5NO2/c7-1-6-2-3(4(6)8)9-5(2)6/h2-5,8H	InChI=1S/C6H5NO2/c7-1-6-2-3(4(6)8)9-5(2)6/h2-5,8H/t2-,3-,4-,5+,6+/m0/s1
