18
gdb 99389	4.73113	0.62936	0.59391	4.063	70.25	-0.2437	-0.0241	0.2196	1840.4347	0.144622	-476.245277	-476.234817	-476.233873	-476.282951	34.501	
C	 0.0477958871	 0.9509163366	 0.7764806159	-0.240794
O	-0.1359609009	-0.164730822	-0.1086437429	-0.226981
C	-1.3729631673	-0.6872409056	-0.1344970563	 0.436258
O	-2.2949804601	-0.2876934674	 0.5324616499	-0.360147
C	-1.4691391191	-1.8303908603	-1.1451293222	-0.292497
N	-2.6895806639	-2.6048728207	-1.0555215292	-0.285382
C	-2.7799801996	-3.4592589835	 0.1228718852	-0.231133
C	-3.9253024645	-4.4485084439	-0.0215380003	 0.150608
O	-4.50193748	-4.9581789632	 0.9024758959	-0.236325
H	 1.0902862563	 1.2483784502	 0.6659765117	 0.137691
H	-0.6175021254	 1.7729165742	 0.5014076376	 0.143833
H	-0.1606350772	 0.6592449742	 1.8086720349	 0.144896
H	-1.3857921598	-1.3840217914	-2.144670076	 0.138967
H	-0.5980549906	-2.483842146	-1.030916654	 0.137113
H	-3.475479497	-1.9609980831	-1.0558940314	 0.234126
H	-1.8618641698	-4.0640740945	 0.1784205616	 0.131163
H	-2.8789228437	-2.9317636212	 1.0821844533	 0.133731
H	-4.1800568845	-4.6795583226	-1.0809143737	 0.084873
39.1603	52.2467	73.7793	94.6186	114.0211	164.5761	209.2473	246.7015	293.3079	355.0117	507.6541	525.2171	582.8431	678.2625	726.5059	818.5825	897.2503	968.4758	1002.7626	1029.7409	1072.7216	1134.3433	1178.1823	1183.8385	1205.1131	1218.1665	1241.2152	1299.4653	1341.1428	1374.8207	1404.7008	1452.7153	1468.6153	1473.3302	1482.245	1496.5716	1521.0583	1817.1677	1841.0087	2881.9882	2996.4083	3030.8617	3037.4558	3054.6193	3085.8869	3130.7227	3163.2354	3514.2369
COC(=O)CNCC=O	COC(=O)CNCC=O	
InChI=1S/C5H9NO3/c1-9-5(8)4-6-2-3-7/h3,6H,2,4H2,1H3	InChI=1S/C5H9NO3/c1-9-5(8)4-6-2-3-7/h3,6H,2,4H2,1H3
