17
gdb 55584	3.64064	0.91197	0.76603	4.263	72.48	-0.2505	-0.0414	0.2091	1455.4238	0.134528	-455.203122	-455.193655	-455.192711	-455.238622	33.039	
C	 0.7562470143	 1.0187723457	 0.0632958175	-0.473168
C	-0.0969179913	-0.1504125306	 0.4902736879	 0.388104
O	-0.0544191344	-0.5990562294	 1.6190227611	-0.314426
C	-1.0443776109	-0.7275673239	-0.5620317019	-0.375158
C	-1.0623071006	-2.2448936395	-0.6829781308	 0.360484
N	-1.0243771834	-2.7726391545	-1.8351152291	-0.493681
N	-1.1610024563	-2.9080150497	 0.5545762246	-0.335533
C	-1.2608201412	-4.2626311769	 0.739108245	 0.161801
O	-1.3484997151	-5.0960354219	-0.1363314451	-0.30322
H	 1.3272536802	 1.4015621405	 0.909505811	 0.149457
H	 1.4377289035	 0.7003324909	-0.7345089049	 0.16007
H	 0.1286375187	 1.8112981674	-0.3598487244	 0.150145
H	-2.0506123465	-0.390225361	-0.2723353978	 0.15548
H	-0.8387988003	-0.328412549	-1.554935457	 0.145814
H	-1.0873058711	-3.7894679805	-1.7622953239	 0.254028
H	-1.0018309572	-2.3230024872	 1.3699700402	 0.273158
H	-1.2611996385	-4.5235315306	 1.8143523575	 0.096646
36.1711	83.4638	102.7558	161.2176	192.282	250.9371	275.5695	308.4563	387.6549	474.3485	518.8274	554.7862	641.8603	746.1955	786.1382	825.0214	890.795	950.9628	973.0457	981.5528	1029.7575	1053.6046	1086.6155	1177.0561	1209.9915	1214.0214	1330.6758	1348.7506	1385.8783	1438.3816	1451.3929	1460.0585	1472.1382	1540.8638	1730.3194	1788.6037	1807.4999	2956.7208	3017.3429	3035.8998	3095.8566	3141.0419	3157.5276	3476.6966	3502.062
CC(=O)CC(=N)NC=O	CC(=O)CC(=N)NC=O	
InChI=1S/C5H8N2O2/c1-4(9)2-5(6)7-3-8/h3H,2H2,1H3,(H2,6,7,8)	InChI=1S/C5H8N2O2/c1-4(9)2-5(6)7-3-8/h3H,2H2,1H3,(H2,6,7,8)
