16
gdb 10746	2.53458	1.93942	1.54679	1.677	65.83	-0.2602	0.029	0.2892	902.6967	0.126851	-383.675448	-383.666711	-383.665767	-383.708315	32.173	
C	-0.0586883497	 1.4663888354	-0.1794019946	-0.402312
C	-0.0353088364	-0.0552351365	 0.0098128905	 0.120058
O	 0.6698802452	-0.2920632516	 1.2325375586	-0.438531
C	-1.4024731419	-0.5876880978	 0.0862670661	 0.332254
C	-2.512386686	-1.0377541247	 0.1890504579	-0.488568
C	 0.7635670898	-0.697577479	-1.1291274726	 0.08075
C	 0.4465292511	-2.0006428921	-1.7241007691	-0.20575
O	 0.1510156663	-0.7767275323	-2.4080755356	-0.234445
H	 0.9671671077	 1.8456447368	-0.1768193157	 0.124942
H	-0.5340689731	 1.7177023761	-1.1297872384	 0.143661
H	-0.6098354169	 1.9362027048	 0.6375476074	 0.133987
H	 0.5800061471	-1.2280079169	 1.4447928264	 0.284835
H	-3.4985122695	-1.4237496354	 0.2741900093	 0.20341
H	 1.8015841407	-0.3608960083	-1.1325707774	 0.101202
H	 1.2465159107	-2.5959877693	-2.1613722583	 0.117433
H	-0.4236259553	-2.5521386393	-1.3757637745	 0.127075
79.5655	144.0647	181.3923	209.1216	239.5637	309.0086	315.5953	343.1733	433.0353	463.2632	581.7565	617.7333	641.0997	665.019	674.9689	867.7915	883.9928	938.474	969.5028	1011.984	1065.5887	1103.4652	1155.1329	1166.4341	1173.8272	1236.5043	1293.7019	1352.8496	1402.0811	1420.2432	1482.6783	1490.2182	1520.6661	2231.3022	3052.2108	3092.1147	3102.871	3131.4635	3146.7401	3187.4905	3498.6767	3804.9108
CC(O)(C#C)C1CO1	C[C@@](O)(C#C)[C@H]1CO1	
InChI=1S/C6H8O2/c1-3-6(2,7)5-4-8-5/h1,5,7H,4H2,2H3	InChI=1S/C6H8O2/c1-3-6(2,7)5-4-8-5/h1,5,7H,4H2,2H3/t5-,6-/m1/s1
