23
gdb 58625	2.30113	1.22291	1.10898	1.7629	80.69	-0.2592	0.0816	0.3407	1291.9172	0.20305	-425.41357	-425.402968	-425.402024	-425.448924	39.847	
C	 0.1494539508	 1.3654173161	 0.3602794254	-0.401578
C	-0.1368451937	-0.0787149717	-0.0680062236	-0.052011
C	-1.6441754606	-0.3083574034	-0.2692556148	-0.390254
C	 0.6388149887	-0.5109363398	-1.3162793736	 0.381521
C	 0.6880502587	 0.3455374271	-2.5098177243	-0.234623
O	 1.8228467285	 0.2499350652	-1.6410269807	-0.288936
C	 0.9039942787	-2.0176383483	-1.3982943978	 0.087221
C	 1.3773411377	-2.5255572714	-2.7587896808	-0.426035
O	 1.8444453587	-2.3508637814	-0.3784720589	-0.435543
H	 1.2195406117	 1.5373915637	 0.4896329598	 0.130715
H	-0.2213650056	 2.090704712	-0.3728126551	 0.109513
H	-0.3546510665	 1.5780329015	 1.3082110309	 0.109924
H	 0.2066455924	-0.7391623366	 0.7375958801	 0.097462
H	-2.0391931723	 0.3466034977	-1.0543024607	 0.111985
H	-1.8727278714	-1.3411752681	-0.5506439844	 0.115801
H	-2.1918423597	-0.0909449121	 0.6530789272	 0.116674
H	 0.8208934205	-0.0855475268	-3.4989532774	 0.113649
H	 0.1818753012	 1.3094257181	-2.4975616228	 0.112917
H	-0.0117229635	-2.5496621785	-1.1172077543	 0.086552
H	 2.2536420587	-1.9630757012	-3.0978192762	 0.127126
H	 1.6591082497	-3.5771929308	-2.6665130178	 0.125143
H	 0.5936148739	-2.4435048587	-3.5183325864	 0.11326
H	 2.6175909934	-1.7940131826	-0.5349066838	 0.289514
56.6218	69.0432	190.9008	198.3249	206.839	238.5017	271.7511	299.8987	302.3944	331.425	395.9796	404.2822	448.3302	489.1419	504.2968	620.7467	683.357	831.4698	852.0446	911.4884	923.3503	935.6681	954.808	970.0662	1035.73	1069.4931	1107.1956	1116.5352	1121.3606	1144.5042	1171.9404	1184.8589	1220.3521	1288.801	1341.248	1363.9341	1382.4546	1397.0671	1398.6969	1412.2855	1422.8149	1427.7665	1483.7482	1491.2386	1491.9576	1502.6252	1504.501	1510.515	1533.5533	3029.1783	3032.5873	3037.7553	3039.4757	3052.8917	3093.0259	3095.701	3100.3751	3104.1494	3110.1716	3124.4749	3133.2168	3180.5108	3779.1457
CC(C)C1(CO1)C(C)O	CC(C)[C@]1(CO1)[C@@H](C)O	
InChI=1S/C7H14O2/c1-5(2)7(4-9-7)6(3)8/h5-6,8H,4H2,1-3H3	InChI=1S/C7H14O2/c1-5(2)7(4-9-7)6(3)8/h5-6,8H,4H2,1-3H3/t6-,7-/m1/s1
