16
gdb 125749	3.24544	1.2399	0.90725	5.4462	76.1	-0.2662	-0.0751	0.191	1239.3248	0.122403	-437.904232	-437.895318	-437.894374	-437.938252	31.105	
C	 0.0027062423	 1.4977319131	-0.0127914203	-0.498166
C	 0.0047334634	 0.0045414364	 0.031892416	 0.339158
N	-0.0247877007	-0.6974948776	-1.0794058734	-0.180803
O	-0.0140210776	-2.0247849376	-0.711509285	-0.201709
C	 0.0221461969	-2.1033941846	 0.6357369556	 0.26457
C	 0.0394168682	-3.4307850969	 1.2561762233	 0.078942
O	 0.0241641624	-4.4763996464	 0.6524765993	-0.257062
C	 0.0360608703	-0.8466394119	 1.1808571905	 0.012185
C	 0.0744886938	-0.4199626059	 2.6126494329	-0.515794
H	 0.8994879961	 1.906476259	 0.4651934181	 0.140779
H	-0.0278603006	 1.840587998	-1.0484609903	 0.158836
H	-0.8648255407	 1.9056018238	 0.517082836	 0.140691
H	 0.0689470892	-3.3967197868	 2.3656881006	 0.08493
H	 0.9637034437	 0.1866246419	 2.8184735488	 0.145989
H	-0.7974387914	 0.1948124775	 2.8631059435	 0.145871
H	 0.0878519646	-1.2726083622	 3.2943748543	 0.141583
92.318	101.7709	131.9995	177.7478	189.5719	232.6722	306.0596	333.4751	362.9524	516.6217	624.7838	652.0467	698.7161	732.3995	787.843	952.6875	999.8892	1014.4389	1036.4519	1049.5748	1078.4839	1113.129	1204.0866	1308.4943	1409.0002	1415.5284	1426.6534	1446.9195	1473.665	1477.3659	1483.5873	1495.9712	1526.6855	1649.5169	1797.1092	2906.1465	3033.9469	3039.4558	3083.8342	3093.9307	3128.8531	3142.4902
CC1=NOC(C=O)=C1C	Cc1noc(C=O)c1C	
InChI=1S/C6H7NO2/c1-4-5(2)7-9-6(4)3-8/h3H,1-2H3	InChI=1S/C6H7NO2/c1-4-5(2)7-9-6(4)3-8/h3H,1-2H3
