17
gdb 14204	2.81115	2.45948	1.88727	1.9989	68.1	-0.2153	0.073	0.2883	794.7956	0.142316	-363.784464	-363.777281	-363.776337	-363.815313	28.266	
C	-0.1053715156	 1.5096056392	-0.0273773817	-0.528839
C	-0.0564039412	 0.0236952048	-0.0233840864	 0.32915
C	-0.0151872987	-1.0651248237	-1.0717268746	-0.204094
C	 1.2567631783	-1.5960995755	-0.4485583097	-0.179701
N	 0.892687953	-0.863726065	 0.8331928348	-0.202138
C	-0.3356743641	-1.6312763817	 1.2909528277	-0.238994
C	-1.0622300894	-1.075875328	 0.0801353568	 0.320723
O	-2.415494537	-0.9555142983	-0.1555977078	-0.464575
H	 0.8317143488	 1.942998657	-0.3929860626	 0.126744
H	-0.9176847347	 1.8527095264	-0.6761518446	 0.134064
H	-0.2887753021	 1.9000316344	 0.9795206867	 0.1312
H	-0.3394503602	-1.0089488494	-2.1047014889	 0.086548
H	 1.3943361704	-2.6771224147	-0.3273104799	 0.092873
H	 2.1666535584	-1.160162307	-0.8710447519	 0.107469
H	-0.1834613284	-2.7112360852	 1.4044178093	 0.090421
H	-0.7025343694	-1.2076556424	 2.2297757083	 0.111104
H	-2.726675908	-1.7597137708	-0.5858783756	 0.288045
172.3767	194.9339	223.2371	288.9853	344.0341	365.8824	463.5068	521.4224	609.9098	666.3806	695.6922	788.5546	843.713	850.2069	922.4471	927.513	936.71	997.5121	1058.4927	1073.4413	1122.0741	1134.1575	1145.2057	1165.9397	1185.4606	1232.8535	1245.3083	1282.6501	1306.5383	1352.4899	1410.7881	1476.3161	1488.5966	1497.4434	1509.3041	1530.7341	3024.3622	3028.874	3034.8176	3086.6663	3092.1342	3098.247	3105.6955	3177.8269	3789.9118
CC12C3CN1CC23O	C[C@@]12[C@H]3CN1C[C@@]23O	
InChI=1S/C6H9NO/c1-5-4-2-7(5)3-6(4,5)8/h4,8H,2-3H2,1H3	InChI=1S/C6H9NO/c1-5-4-2-7(5)3-6(4,5)8/h4,8H,2-3H2,1H3/t4-,5+,6+/m1/s1
