16
gdb 56372	2.03463	1.48173	1.26361	4.6365	74.39	-0.2568	-0.0084	0.2484	1091.1859	0.122989	-396.85354	-396.844253	-396.843309	-396.887454	33.976	
N	-0.2007683756	 1.5369125935	 0.1060483805	-0.51122
C	 0.0358518844	 0.0831305087	 0.0212146404	-0.151831
C	 0.7505937918	-0.3605152449	 1.2271026158	 0.362716
C	 1.3632128323	-0.7277993216	 2.1921936332	-0.438132
C	-1.2941644925	-0.5758381507	-0.0078905141	 0.322682
N	-2.3268729732	-1.0873976034	-0.0769731604	-0.328151
C	 0.7943448868	-0.3303516515	-1.2613673477	 0.004362
C	 2.274922191	-0.2927180526	-1.3086621738	-0.265889
N	 1.5503459165	-1.5753756461	-1.3691527963	-0.311206
H	 0.7013222726	 2.005438779	 0.0885275318	 0.244244
H	-0.7116862523	 1.8372407123	-0.7206072256	 0.24675
H	 1.8842630931	-1.04613248	 3.0624277411	 0.219313
H	 0.2268353846	-0.0749489227	-2.1543406918	 0.111147
H	 2.774251593	-0.0012899741	-2.2278450862	 0.127785
H	 2.8069865095	-0.0465305654	-0.3941217098	 0.125843
H	 1.5967090077	-2.0305821406	-0.4587926969	 0.24159
80.5083	127.9122	151.9168	166.2396	212.7876	250.9174	270.6327	350.1027	422.8139	493.5798	515.9011	570.61	625.8242	658.7879	666.9424	675.8092	831.097	870.6964	893.0997	958.4862	962.2993	1005.7188	1062.8116	1115.2562	1136.1182	1155.4597	1223.8456	1262.7525	1307.7794	1326.2677	1398.7873	1503.0132	1644.0169	2242.6437	2366.2026	3115.3053	3127.0087	3203.7876	3480.916	3485.939	3494.4973	3570.7742
NC(C#C)(C#N)C1CN1	N[C@@](C#C)(C#N)[C@H]1CN1	
InChI=1S/C6H7N3/c1-2-6(8,4-7)5-3-9-5/h1,5,9H,3,8H2	InChI=1S/C6H7N3/c1-2-6(8,4-7)5-3-9-5/h1,5,9H,3,8H2/t5-,6+/m1/s1
