22
gdb 19476	4.09404	1.43735	1.37581	0.1116	81.42	-0.2792	0.0896	0.3688	1046.8137	0.203024	-313.067433	-313.059861	-313.058916	-313.09919	30.36	
C	-0.0247481168	 1.5722092385	 0.085025013	-0.377585
C	-0.0055253117	 0.0421676082	 0.1859392411	-0.22352
C	-1.395839516	-0.5750720037	 0.0553521312	 0.075278
C	-2.0516456531	-0.6443979097	-1.3659003332	-0.016055
C	-1.2382773624	-1.951923619	-1.58869593	-0.229896
C	-1.4977478976	-2.1312097483	-0.064570151	-0.028592
C	-3.024912056	-2.3413021271	-0.034380359	-0.214943
C	-3.4485237868	-1.2032467726	-1.0283827972	-0.212729
H	 0.9780241432	 1.9916492352	 0.213699352	 0.109531
H	-0.4013591779	 1.9022152116	-0.8888535784	 0.116519
H	-0.6704083565	 2.0113948751	 0.853865598	 0.11253
H	 0.6790548928	-0.3608417948	-0.5684916698	 0.095697
H	 0.413809131	-0.2494461826	 1.1582530866	 0.092524
H	-2.0427443352	-0.137537356	 0.8283800109	 0.050084
H	-2.0048860113	 0.1907304339	-2.0666390152	 0.052751
H	-1.6572249002	-2.7012960511	-2.2679575165	 0.082685
H	-0.1910516309	-1.7804574162	-1.8377713886	 0.096767
H	-0.8869808555	-2.7935963403	 0.5515345367	 0.050889
H	-3.3156758899	-3.3357743928	-0.3854120473	 0.091884
H	-3.4442286075	-2.2028388963	 0.9665347077	 0.092118
H	-4.0938251205	-0.4543927341	-0.5596410687	 0.092341
H	-3.9672798313	-1.5876224378	-1.9115176623	 0.091722
81.4936	165.3109	206.3755	295.1103	304.751	380.1357	461.0987	510.617	647.2656	744.7222	821.4112	832.9872	839.4329	872.0262	882.6881	903.3812	937.6514	943.6148	969.3191	1004.3147	1014.8785	1031.6083	1076.4255	1084.0427	1092.4318	1114.4336	1143.9128	1176.9251	1209.7274	1229.4162	1242.0326	1258.6193	1269.7648	1285.0055	1294.7646	1310.6073	1324.6765	1354.0047	1408.0502	1414.4954	1483.9186	1492.2574	1499.2172	1500.9423	1508.1664	1523.3387	3000.4525	3017.7857	3030.3169	3045.2683	3050.8034	3055.4244	3059.3511	3081.9213	3095.395	3097.6598	3100.2444	3101.5883	3103.2158	3130.2889
CCC1C2CC1CC2	CC[C@H]1[C@H]2C[C@@H]1CC2	
InChI=1S/C8H14/c1-2-8-6-3-4-7(8)5-6/h6-8H,2-5H2,1H3	InChI=1S/C8H14/c1-2-8-6-3-4-7(8)5-6/h6-8H,2-5H2,1H3/t6-,7+,8+
