17
gdb 66791	3.01268	2.28947	1.85755	0.2275	72.21	-0.2097	0.0525	0.2623	808.4976	0.13826	-380.787885	-380.78181	-380.780866	-380.817878	25.981	
C	-0.0796590705	 1.4960009189	-0.000864309	-0.513059
C	 0.0150210295	-0.0005399169	-0.0173240869	 0.348137
C	 0.8600334593	-0.7690996648	-1.0510897262	-0.094036
C	 0.3970199398	-2.157126428	-0.8519130119	-0.060804
C	-0.9193594461	-2.1285708138	-0.108333557	-0.057251
C	-0.6910791939	-1.5725965172	 1.2429948678	-0.049943
C	 0.6692003334	-0.8911797355	 1.0650426835	-0.086552
N	 1.4918563268	-1.6357856133	 0.0157953667	-0.157919
N	-1.3293060058	-0.7250381844	 0.1635502129	-0.190601
H	 0.9156474723	 1.9512351419	-0.0206496059	 0.123842
H	-0.6405404412	 1.851936703	-0.8721789229	 0.130694
H	-0.6013448832	 1.8408944408	 0.8967452957	 0.130123
H	 1.4153309351	-0.382524949	-1.8995436539	 0.096068
H	 0.6643641675	-2.9684566632	-1.5177392089	 0.100082
H	-1.7181374969	-2.8262939129	-0.3280240346	 0.100136
H	-1.2091630703	-1.8506318982	 2.15412382	 0.097908
H	 1.2486461741	-0.5265687174	 1.9096980308	 0.083176
216.5183	253.4038	271.1451	554.776	566.4994	583.2549	691.0897	741.6248	750.0255	776.1024	795.6589	810.2031	818.852	874.2757	895.6545	899.7676	917.327	958.3435	968.3178	1016.8001	1036.8389	1047.5432	1051.7134	1133.3786	1139.7799	1167.3792	1192.863	1194.6651	1234.5617	1264.5099	1295.2719	1329.5202	1356.4015	1376.9241	1417.3007	1483.3431	1489.8312	3033.6101	3101.6673	3112.3474	3146.4426	3161.3506	3171.7808	3189.147	3201.187
CC12C3C4C5C(C1N34)N25	C[C@@]12[C@@H]3[C@@H]4[C@H]5[C@@H]([C@H]1N34)N25	
InChI=1S/C7H8N2/c1-7-5-3-2-4(9(2)7)6(7)8(3)5/h2-6H,1H3	InChI=1S/C7H8N2/c1-7-5-3-2-4(9(2)7)6(7)8(3)5/h2-6H,1H3/t2-,3-,4-,5-,6+,7+,8?,9?/m0/s1
