18
gdb 85240	2.72576	1.62477	1.15895	3.1262	73.75	-0.2614	0.0094	0.2708	1088.7063	0.146967	-439.09804	-439.089579	-439.088635	-439.13082	32.068	
C	 0.270379037	 1.5305249852	-0.081272847	-0.402639
C	-0.0444635387	 0.0544580968	 0.0967183775	 0.092371
O	 0.3760128151	-0.6668927734	-1.0895075798	-0.265943
C	 1.0615700355	-1.804486456	-0.7749084862	 0.385338
N	 1.3830875095	-2.7180815835	-1.5844097567	-0.54679
C	 1.3703184256	-1.8109145545	 0.6924301168	 0.330941
C	 1.7244066451	-3.0809617247	 1.4011380198	-0.489349
O	 2.1047668915	-0.609585857	 1.0436241299	-0.285763
C	 0.6918938662	-0.6274921815	 1.2347625926	-0.06554
H	 1.351720069	 1.6746286095	-0.1364829906	 0.147317
H	-0.1874250182	 1.9083784642	-0.9987110204	 0.13288
H	-0.1227061079	 2.1056011721	 0.7630668239	 0.1206
H	-1.1251688826	-0.1024566177	 0.2134425945	 0.094128
H	 1.0448204704	-2.5053618509	-2.5247189147	 0.225619
H	 2.5974867302	-3.5383474814	 0.9283376332	 0.155374
H	 1.9491637174	-2.8787180231	 2.4507002123	 0.128336
H	 0.900955072	-3.7981316449	 1.3395974725	 0.135445
H	 0.3322738231	-0.5511447191	 2.2572362623	 0.107674
121.9235	142.9382	175.3344	229.683	238.4465	288.7099	304.7474	402.5803	488.4697	529.4485	582.2332	679.9422	717.0024	746.458	825.2195	862.2735	896.4669	911.8261	935.338	1007.1513	1025.169	1060.2968	1087.3433	1105.982	1122.9909	1150.5476	1215.0245	1289.7279	1328.4585	1371.0238	1378.901	1404.4029	1410.1565	1463.0154	1479.8764	1485.9166	1494.5212	1499.0197	1779.1488	3021.2178	3048.4776	3052.3469	3121.134	3122.8328	3137.2726	3140.6748	3157.2356	3472.2333
CC1OC(=N)C2(C)OC12	C[C@H]1O[C]([NH])[C@@]2(C)O[C@@H]12	
InChI=1S/C6H9NO2/c1-3-4-6(2,9-4)5(7)8-3/h3-4,7H,1-2H3	InChI=1S/C6H9NO2/c1-3-4-6(2,9-4)5(7)8-3/h3-4,7H,1-2H3/t3-,4+,6+/m1/s1
