14
gdb 64641	2.3276	1.63456	1.39276	4.7563	67.78	-0.2458	-0.0391	0.2067	971.9044	0.101879	-432.904935	-432.896799	-432.895855	-432.937628	30.064	
N	-0.0482210434	 1.4927973555	 0.0246380072	-0.536768
C	 0.0631241613	 0.0348986621	 0.027843248	-0.010991
C	 0.6213878405	-0.5392601431	 1.3169917527	-0.153763
C	-0.3212011906	-1.2858044894	 1.8941835147	-0.013179
N	-1.5085088483	-1.3039532564	 1.1455489865	-0.338486
C	-1.4085795637	-0.5156244535	 0.0257736288	 0.44111
O	-2.2641774462	-0.2498960318	-0.7777016824	-0.356177
C	 0.7935709856	-0.5046614626	-1.138741703	 0.24941
N	 1.3965911132	-0.8809031549	-2.0512761576	-0.336822
H	 0.8627833366	 1.9158150833	-0.1249308882	 0.246174
H	-0.646489255	 1.7654454574	-0.7526297509	 0.256241
H	 1.6280899147	-0.3778197865	 1.6676384648	 0.129383
H	-0.2733268332	-1.8480366215	 2.8155307569	 0.148595
H	-2.3747747817	-1.7306891087	 1.4303447427	 0.275273
83.9731	136.2376	187.8523	241.2548	263.7649	324.0213	412.5391	454.8515	506.448	558.2476	590.3058	641.6184	707.6525	719.6637	771.6194	802.0335	885.8656	920.3516	992.9037	1058.8814	1076.4491	1125.5665	1200.5714	1207.1093	1317.6138	1377.1207	1412.8499	1641.4365	1674.0851	1858.8032	2338.899	3242.9745	3270.9327	3481.6761	3571.6629	3661.8306
NC1(C=CNC1=O)C#N	N[C@]1(C=CNC1=O)C#N	
InChI=1S/C5H5N3O/c6-3-5(7)1-2-8-4(5)9/h1-2H,7H2,(H,8,9)	InChI=1S/C5H5N3O/c6-3-5(7)1-2-8-4(5)9/h1-2H,7H2,(H,8,9)/t5-/m1/s1
