19
gdb 103122	2.00967	1.27591	0.96062	4.7443	74.35	-0.2336	-0.012	0.2216	1295.8186	0.156178	-460.152923	-460.142808	-460.141864	-460.187949	36.541	
C	-0.099135448	 0.7497983795	-2.1638871842	-0.418043
C	-0.0026646368	-0.3411785781	-1.1175341069	-0.096063
C	 1.3038520315	-0.6623385244	-0.3598842751	-0.196414
C	 2.5321171189	 0.1337068591	-0.5644354043	 0.158512
O	 3.6428326788	-0.3457608691	-0.5803848897	-0.280513
C	 0.0804639705	-0.028442057	 0.3299998111	 0.403675
O	 0.1440575341	 1.3237867235	 0.6668615442	-0.465991
C	-0.667049171	-0.8436457673	 1.355142238	-0.147912
O	-0.0194283515	-0.6067735364	 2.6023421533	-0.429537
H	 0.3415116688	 1.6853377399	-1.8174559039	 0.146358
H	 0.3990145182	 0.4491195467	-3.0906708926	 0.126659
H	-1.1501097953	 0.9491915435	-2.397251602	 0.123522
H	-0.5645082672	-1.2394076939	-1.3631094851	 0.097355
H	 1.5018727044	-1.7106744957	-0.1614761579	 0.101451
H	 2.3800789363	 1.2247074152	-0.6907297992	 0.083023
H	 0.4001869674	 1.3445279706	 1.598850439	 0.295793
H	-1.713759204	-0.5068028467	 1.386502195	 0.102842
H	-0.652224308	-1.9093470371	 1.0861311361	 0.097715
H	-0.6144550072	-0.8599549322	 3.3134276044	 0.297568
73.2155	112.9122	149.2795	169.6871	194.2887	214.5555	247.4319	252.1333	325.7179	380.6707	442.1072	467.1707	483.1759	544.9707	618.0001	678.5762	826.3856	909.3571	955.1304	993.0725	1027.2944	1038.9787	1055.9668	1062.333	1092.0523	1132.6056	1172.9867	1207.9444	1237.7354	1250.5554	1302.9173	1325.8077	1358.5265	1416.5733	1440.9491	1442.8886	1486.6977	1496.1141	1506.5725	1516.4996	1801.3715	2925.4839	2987.8971	3029.6453	3044.4114	3101.6959	3128.4166	3148.3375	3170.0934	3764.195	3842.7499
CC1C(C=O)C1(O)CO	C[C@H]1[C@@H](C=O)[C@]1(O)CO	
InChI=1S/C6H10O3/c1-4-5(2-7)6(4,9)3-8/h2,4-5,8-9H,3H2,1H3	InChI=1S/C6H10O3/c1-4-5(2-7)6(4,9)3-8/h2,4-5,8-9H,3H2,1H3/t4-,5+,6-/m0/s1
