22
gdb 59479	2.6421	1.13825	0.89811	2.1873	82.69	-0.2451	0.0699	0.315	1380.9597	0.193533	-404.30419	-404.29439	-404.293446	-404.339355	36.826	
C	-0.1879238385	 1.3056650873	-0.123824717	-0.403126
C	 0.2767911166	-0.1477048697	-0.2111720144	 0.138862
O	 1.2545734946	-0.3239566927	-1.2385106591	-0.42548
C	 0.7938061644	-0.6443944234	 1.1237198538	-0.042586
N	-0.221966798	-1.0103084938	 2.1168826393	-0.344267
C	 0.682275608	-2.0562906323	 1.5998862527	-0.050305
C	 0.0525834771	-3.1921725721	 0.8388570758	-0.00092
C	 0.3205115634	-3.4296101238	-0.6319698435	-0.261514
C	 0.9103392441	-4.354196839	 0.3977581276	-0.277943
H	 0.6373101219	 1.9629908146	 0.1804263868	 0.097792
H	-0.5551014065	 1.647756856	-1.0951380019	 0.121738
H	-0.9884843884	 1.4060920741	 0.6147250288	 0.132832
H	-0.5640385111	-0.7786319116	-0.5107243839	 0.105827
H	 2.0125354801	 0.2307942405	-1.0234132476	 0.275071
H	 1.6658576878	-0.090753061	 1.4816764594	 0.064623
H	 0.0576376304	-0.7209642161	 3.0496726875	 0.229872
H	 1.478907765	-2.3642533272	 2.2779057746	 0.082482
H	-0.9445082041	-3.4400521237	 1.1899294083	 0.094324
H	-0.4984001561	-3.7962593657	-1.2418539703	 0.106095
H	 0.9832067701	-2.7349344202	-1.1343795433	 0.14347
H	 1.9782412632	-4.2841008524	 0.5820068471	 0.105957
H	 0.5088990359	-5.3569082078	 0.4949700794	 0.107195
38.5629	91.0607	131.2122	182.0618	244.4832	261.8034	270.5924	298.1209	354.4114	409.6045	445.9383	504.4026	627.4682	742.8885	795.3766	821.0234	833.0054	889.0597	903.7086	921.795	946.1985	967.6713	1000.4797	1025.8652	1063.3994	1075.8302	1094.7599	1110.1883	1135.2809	1135.9352	1165.6707	1197.4545	1207.0711	1227.7098	1231.0821	1274.9079	1295.9335	1335.375	1363.882	1397.044	1412.5149	1428.5338	1472.1108	1473.3991	1493.7295	1496.8621	1506.9916	3021.1402	3064.557	3083.4382	3093.3883	3103.2891	3124.4046	3124.8931	3136.5742	3152.0058	3206.633	3231.8041	3507.7536	3798.9983
CC(O)C1NC1C1CC1	C[C@@H](O)[C@H]1N[C@H]1C1CC1	
InChI=1S/C7H13NO/c1-4(9)6-7(8-6)5-2-3-5/h4-9H,2-3H2,1H3	InChI=1S/C7H13NO/c1-4(9)6-7(8-6)5-2-3-5/h4-9H,2-3H2,1H3/t4-,6-,7+/m1/s1
