19
gdb 93625	2.12207	1.59103	1.29534	5.6591	74.89	-0.239	0.0344	0.2734	1084.3187	0.15984	-419.216872	-419.207635	-419.206691	-419.250834	34.063	
C	-0.4247538008	 1.4808043709	-0.0488955078	-0.42113
C	 0.0711603863	 0.0388790974	-0.0789672752	 0.003046
C	 0.9456978191	-0.3407097533	-1.284517926	 0.127489
O	 1.9154498574	 0.6794910789	-1.4459590473	-0.425109
C	 1.5524935001	-1.6749936406	-0.8365552017	-0.197056
N	 1.8100372667	-1.493755431	 0.5965550419	-0.284265
C	 0.9570719777	-0.4179353791	 1.1211514353	-0.156672
C	 1.7806730574	 0.6703499246	 1.6896840425	 0.324924
N	 2.4035762647	 1.5089319045	 2.1838352705	-0.347131
H	 0.4104364399	 2.1820297593	-0.0806995223	 0.165688
H	-1.0709470505	 1.6767641099	-0.910135474	 0.114917
H	-1.0062630182	 1.6770927143	 0.8573162347	 0.118463
H	-0.78960293	-0.6408198285	-0.0907020652	 0.083162
H	 0.3459505401	-0.4606786542	-2.1984206374	 0.067665
H	 2.6431210609	 0.3373411895	-1.9735678713	 0.289608
H	 0.8421720111	-2.4884911837	-1.0528010767	 0.092586
H	 2.4805482083	-1.9019803259	-1.3779543006	 0.099158
H	 1.7303184835	-2.3461998707	 1.1306994013	 0.231114
H	 0.3162198164	-0.7702675724	 1.9385275793	 0.11354
62.2203	130.7702	158.0656	215.7574	221.1255	240.6162	258.338	329.1091	397.9813	473.746	506.9817	530.5202	609.9039	703.0667	801.1469	847.7468	878.3174	892.0031	966.7426	979.8224	1017.2366	1028.5669	1100.7174	1112.9016	1156.5066	1166.9687	1192.0849	1231.7745	1245.9305	1318.2593	1325.4356	1351.3953	1370.2351	1390.5947	1411.4759	1422.112	1451.0357	1494.4682	1502.0416	1519.551	2354.2456	2973.966	3000.11	3023.3973	3026.8071	3039.3853	3046.8103	3106.2313	3147.1834	3598.6322	3831.7336
CC1C(O)CNC1C#N	C[C@H]1[C@@H](O)CN[C@H]1C#N	
InChI=1S/C6H10N2O/c1-4-5(2-7)8-3-6(4)9/h4-6,8-9H,3H2,1H3	InChI=1S/C6H10N2O/c1-4-5(2-7)8-3-6(4)9/h4-6,8-9H,3H2,1H3/t4-,5+,6+/m1/s1
