25
gdb 117887	3.38495	0.54153	0.49312	0.0463	100.11	-0.2383	0.0605	0.2988	2390.7381	0.226516	-352.349605	-352.337597	-352.336653	-352.388968	42.044	
C	-0.3478690443	 1.5065547095	 0.2534576897	-0.383598
C	-0.0460122914	 0.0212696938	 0.0318070242	-0.174137
C	 0.7785503906	-0.586310338	 1.1721018309	-0.150191
C	 1.0298799333	-2.1094153826	 1.0460004017	-0.161491
C	 1.8907059416	-2.4740441304	-0.1812563669	-0.381979
C	 1.6372521994	-2.6299137605	 2.2724990946	 0.035622
C	 2.1605485208	-3.0353509142	 3.2798599231	 0.09423
C	 2.7642368842	-3.5555011197	 4.5032494301	-0.313508
C	 1.9964954951	-4.7522623186	 5.0940791991	-0.3619
H	 0.576226856	 2.090026564	 0.3323882106	 0.114789
H	-0.9345080636	 1.9224241696	-0.5716719447	 0.110677
H	-0.9149187472	 1.6618633117	 1.1779649064	 0.11458
H	-0.9891539197	-0.5329654811	-0.0682863746	 0.093502
H	 0.4810950141	-0.0995174654	-0.9218840866	 0.099566
H	 1.7476492967	-0.0754343327	 1.2455033171	 0.098672
H	 0.265000353	-0.4028323058	 2.1234197883	 0.100763
H	 0.0498028548	-2.5942308181	 0.9224877552	 0.096379
H	 2.8671275547	-1.9822111513	-0.1243078932	 0.120336
H	 2.0600240081	-3.5530766186	-0.2253652135	 0.121242
H	 1.403510758	-2.167803337	-1.1111236569	 0.113673
H	 3.80199058	-3.8518969743	 4.3019575933	 0.124804
H	 2.8222850646	-2.7545943753	 5.2518972601	 0.124829
H	 1.9583039504	-5.5794566217	 4.379980938	 0.125959
H	 2.4835239723	-5.106987607	 6.0075909281	 0.111209
H	 0.9683092087	-4.4713110964	 5.338091706	 0.12597
16.6954	65.1114	73.8149	83.4047	127.1789	167.6432	213.5302	238.3261	246.0994	267.0562	311.9795	338.2949	388.0633	497.0845	519.7552	543.1693	724.5417	744.9484	786.0216	847.7778	873.1351	919.5627	954.7122	1000.9679	1014.5938	1054.1332	1078.1387	1100.0321	1104.7766	1130.3088	1160.2219	1201.4427	1258.5422	1286.3967	1290.9146	1323.9912	1343.2864	1348.0344	1355.7614	1393.802	1407.4588	1407.7457	1413.275	1477.0264	1481.3273	1493.8515	1494.3727	1495.6552	1499.471	1501.7671	1505.8229	1511.3508	2361.2636	2989.9189	3013.7921	3016.1923	3024.4986	3030.1299	3040.1615	3042.1286	3042.5654	3047.2033	3069.5524	3097.2859	3101.6876	3113.2697	3115.1948	3119.6347	3122.0892
CCCC(C)C#CCC	CCC[C@@H](C)C#CCC	
InChI=1S/C9H16/c1-4-6-8-9(3)7-5-2/h9H,4-5,7H2,1-3H3	InChI=1S/C9H16/c1-4-6-8-9(3)7-5-2/h9H,4-5,7H2,1-3H3/t9-/m1/s1
