16
gdb 46675	2.91257	1.79843	1.35954	5.0114	68.97	-0.2425	0.009	0.2515	934.7138	0.126197	-437.814319	-437.807652	-437.806708	-437.845198	27.078	
O	 0.0524869838	-0.0016457619	 0.1216603419	-0.362823
C	 0.0362092035	 1.1971688013	-0.0100945667	 0.312033
N	-1.0915035905	 2.0070481165	-0.0745716876	-0.324778
C	-0.8886106113	 3.4615518905	-0.2570355041	-0.233368
C	 0.5446368659	 3.4449612827	-0.8086002065	-0.015097
C	 1.94312737	 3.8187426841	-0.221496747	-0.008615
C	 1.5980161073	 3.1392032709	 1.1078891446	-0.267582
C	 1.1328565268	 2.242718738	-0.0824689325	 0.325777
O	 2.4367924043	 2.4843214676	-0.7297088715	-0.367213
H	-1.9945147221	 1.6048905402	 0.1235825382	 0.25635
H	-1.6165054317	 3.8612419432	-0.9687701189	 0.122403
H	-1.0016688059	 4.0080201454	 0.6863194299	 0.119746
H	 0.5701129794	 3.3281396174	-1.8933397217	 0.105236
H	 2.5889627316	 4.6706376362	-0.4366331254	 0.104429
H	 2.4478739904	 2.7418294082	 1.6608385161	 0.125232
H	 0.8446116585	 3.5935062496	 1.7534712613	 0.10827
148.6996	221.338	301.7788	325.3584	490.6534	495.9493	558.45	584.3818	608.5649	689.112	711.604	730.4163	830.3672	884.4127	906.5226	963.3609	992.7736	1006.5973	1012.2196	1063.1233	1093.8127	1115.5042	1145.2473	1162.2681	1189.8948	1206.7514	1212.6642	1242.4536	1297.7718	1318.9408	1372.4098	1426.2868	1491.3266	1528.5838	1842.144	3032.3892	3078.4981	3084.4381	3106.0796	3116.1438	3166.1187	3638.5376
O=C1NCC2C3CC12O3	O=C1NC[C@H]2[C@H]3C[C@@]12O3	
InChI=1S/C6H7NO2/c8-5-6-1-4(9-6)3(6)2-7-5/h3-4H,1-2H2,(H,7,8)	InChI=1S/C6H7NO2/c8-5-6-1-4(9-6)3(6)2-7-5/h3-4H,1-2H2,(H,7,8)/t3-,4+,6-/m0/s1
