20
gdb 103556	2.45953	1.29459	1.04424	1.5202	76.41	-0.2617	0.0244	0.2861	1231.4819	0.169356	-440.294724	-440.285028	-440.284084	-440.329079	36.134	
C	-0.2891688902	 1.4462998789	-0.1235792421	-0.414045
C	-0.0092088994	-0.047828539	-0.0185043951	-0.19925
C	 1.2247597165	-0.569511129	-0.7266267769	 0.438842
N	 1.6390841556	-0.5244853328	-1.9093361313	-0.548169
O	 1.7948304338	-1.117963883	 0.4032606468	-0.312143
C	 0.6624965262	-0.6524316265	 1.2512788264	 0.376258
C	 1.1644705062	 0.2847429683	 2.3317188355	-0.443777
C	-0.0262226257	-1.8939099403	 1.8125075761	-0.098614
O	 0.8488758218	-2.6590338264	 2.6158537767	-0.417377
H	 0.5850713051	 2.0463021907	 0.1407882595	 0.127693
H	-0.5607688701	 1.6936005	-1.1534503206	 0.14486
H	-1.118722989	 1.7392592459	 0.5274096493	 0.120572
H	-0.9018176692	-0.6133482178	-0.3071838236	 0.103415
H	 2.5455455215	-0.985500098	-2.0057964499	 0.22574
H	 1.8115533875	 1.0606415869	 1.91736735	 0.127225
H	 0.3212124282	 0.7672046795	 2.836791964	 0.123796
H	 1.7266024629	-0.2845484414	 3.0756756019	 0.143112
H	-0.8668872154	-1.5981234379	 2.4501137618	 0.114856
H	-0.4285467009	-2.4886562796	 0.9778656592	 0.092688
H	 1.6009070247	-2.8885164086	 2.0565213122	 0.294317
67.9246	114.8383	177.3263	201.0851	210.4214	233.7052	279.4167	325.4095	365.4628	371.3542	446.0497	460.7987	568.176	645.3355	677.3417	784.836	830.2629	852.5714	870.578	925.2413	962.4023	1011.8626	1039.943	1071.6258	1076.1739	1101.9849	1145.6781	1194.9431	1209.8116	1256.6741	1286.1027	1305.9496	1365.5935	1387.8307	1411.6149	1414.3323	1427.4159	1476.9956	1490.7527	1495.4228	1499.4377	1506.6518	1821.2016	2985.8418	3044.8241	3048.4206	3053.0903	3072.1023	3115.2138	3120.0377	3126.3508	3138.2383	3474.2848	3791.5813
CC1C(=N)OC1(C)CO	C[C@H]1[C]([NH])O[C@]1(C)CO	
InChI=1S/C6H11NO2/c1-4-5(7)9-6(4,2)3-8/h4,7-8H,3H2,1-2H3	InChI=1S/C6H11NO2/c1-4-5(7)9-6(4,2)3-8/h4,7-8H,3H2,1-2H3/t4-,6+/m0/s1
