17
gdb 68573	2.40891	1.93423	1.51173	4.3138	72.94	-0.2144	-0.0183	0.1961	936.9824	0.136958	-418.014329	-418.00664	-418.005696	-418.046069	30.086	
C	-0.0243633272	 1.5567010608	 0.084250762	-0.496278
C	 0.0025653268	 0.0529488824	-0.0130957345	 0.194573
C	 0.6636939005	-0.7108273739	-1.2174721313	-0.282978
C	-0.368274323	-1.8587749527	-0.9543050281	-0.11871
N	 0.0729428895	-2.6585261188	 0.2121463246	-0.243968
C	 0.5026963183	-1.9574368705	 1.1913031002	 0.060408
N	 0.4434834452	-0.5805977632	 1.2454084847	-0.311297
C	-1.270191965	-0.7316059488	-0.4419285915	 0.432803
O	-2.4296986427	-0.446605891	-0.5044393822	-0.321327
H	 0.9757778529	 1.9608051549	 0.2809635031	 0.118739
H	-0.3889186735	 1.9922572429	-0.849062496	 0.137898
H	-0.6906900195	 1.8725866904	 0.8926682773	 0.144364
H	 0.4844092164	-0.2021050638	-2.1669815991	 0.118215
H	 1.7151844966	-0.9837346063	-1.1090056506	 0.110481
H	-0.6955356413	-2.506294596	-1.7658048225	 0.093374
H	 0.9132901414	-2.4481229643	 2.0729077843	 0.123685
H	 1.1550068544	-0.0986548021	 1.7802693696	 0.240017
137.5004	185.4738	205.0579	252.993	319.6631	392.3185	420.3948	481.6189	497.6199	583.0447	632.8973	683.4922	780.9966	822.1471	838.9927	872.8826	930.4281	938.5887	956.5943	995.4785	1045.5122	1085.3018	1116.8143	1140.6571	1189.8633	1218.6882	1224.88	1284.1051	1306.9242	1377.4718	1412.2172	1452.7993	1474.1909	1487.0825	1490.1079	1688.3054	1892.2694	3032.6031	3068.7206	3101.4913	3128.0205	3131.4107	3137.3085	3144.5679	3558.0277
CC12CC(N=CN1)C2=O	C[C@@]12C[C@@H]([N][CH]N1)C2=O	
InChI=1S/C6H8N2O/c1-6-2-4(5(6)9)7-3-8-6/h3-4H,2H2,1H3,(H,7,8)	InChI=1S/C6H8N2O/c1-6-2-4(5(6)9)7-3-8-6/h3-4H,2H2,1H3,(H,7,8)/t4-,6+/m1/s1
