21
gdb 82735	2.77937	1.89945	1.50132	0.2212	85.79	-0.225	0.0196	0.2445	972.5585	0.186309	-349.946552	-349.939699	-349.938755	-349.977226	29.76	
C	-0.0832173765	 1.5520951252	 0.0145823819	-0.427827
C	 0.0680808729	 0.0308689316	-0.0281633505	 0.062911
C	 0.9773147598	-0.5458220669	-1.1280704574	-0.057429
C	 2.3795902436	-0.040095583	-0.7002024788	-0.246453
C	 2.164846798	-1.0107819721	 0.4768934123	-0.014317
C	 1.4276908857	-1.9675068796	-0.5051446295	-0.04329
C	 0.4528407599	-2.7276361042	 0.3451618414	-0.104308
C	 0.1627030124	-1.9655319478	 1.4069471547	-0.089737
C	 0.8338176932	-0.6192449122	 1.2046553063	-0.08469
H	 0.8633842833	 2.0738415371	 0.1775338749	 0.117932
H	-0.5154229825	 1.9311747718	-0.9184966037	 0.11192
H	-0.7563562539	 1.839971497	 0.8296937397	 0.111473
H	-0.9344845334	-0.4020637549	-0.0950034219	 0.067094
H	 0.6264239836	-0.4765854664	-2.1580923043	 0.057382
H	 3.1688500067	-0.3981648975	-1.3671089823	 0.093104
H	 2.5265204547	 1.0239635607	-0.5073267851	 0.088521
H	 2.9768945056	-1.3703379902	 1.1116885251	 0.058518
H	 2.0564814232	-2.53383173	-1.1929869567	 0.062299
H	 0.0452635477	-3.702835337	 0.1089834633	 0.091315
H	-0.5457442974	-2.1841501729	 2.197134876	 0.091112
H	 0.9132928735	 0.0262012213	 2.0806035846	 0.054467
184.0322	243.1701	274.426	363.3957	417.7893	455.8646	555.7517	612.5096	688.2519	734.6145	761.2594	804.1912	817.6048	842.8063	872.7131	886.4955	930.0906	937.071	943.3319	963.7135	992.4692	1016.5302	1036.1174	1048.1111	1060.952	1097.7662	1103.1146	1126.6596	1135.7109	1176.1843	1179.114	1227.2699	1234.2028	1262.1511	1267.3569	1298.1022	1312.7532	1326.0706	1358.2533	1383.3396	1411.2642	1493.1825	1498.7645	1522.1233	1636.4318	3030.6355	3050.8762	3063.2956	3088.3033	3093.0245	3101.5778	3104.9942	3108.952	3114.9562	3121.4748	3191.4923	3217.6208
CC1C2CC3C2C=CC13	C[C@H]1[C@H]2C[C@@H]3[C@H]2C=C[C@H]13	
InChI=1S/C9H12/c1-5-6-2-3-7-8(5)4-9(6)7/h2-3,5-9H,4H2,1H3	InChI=1S/C9H12/c1-5-6-2-3-7-8(5)4-9(6)7/h2-3,5-9H,4H2,1H3/t5-,6-,7+,8-,9+/m1/s1
