14
gdb 5040	3.54173	2.43737	1.45681	2.68	66.79	-0.2334	-0.0544	0.179	807.3888	0.110597	-374.944527	-374.937897	-374.936953	-374.975358	24.464	
C	-0.0306520341	 1.4520205083	 0.0206754597	-0.326242
N	-0.0075416309	-0.0046316277	 0.0016348846	-0.072969
C	-0.0377392763	-0.7074322652	-1.1443671912	 0.124846
N	-0.0194916647	-2.0061043382	-1.2259620535	-0.306608
C	 0.0351786741	-2.6291265646	-0.0027890604	 0.073469
N	 0.0688315218	-2.0792471317	 1.1694789931	-0.299753
C	 0.0489650136	-0.6919516203	 1.2467144532	 0.423349
N	 0.0760904973	 0.0127592578	 2.3085606417	-0.569938
H	 0.8632853774	 1.828727815	 0.5223639537	 0.165371
H	-0.0740464391	 1.8207726695	-1.0059245048	 0.129123
H	-0.8975744405	 1.7999483873	 0.5864626155	 0.165373
H	-0.0805924675	-0.1147292105	-2.056321691	 0.138298
H	 0.0515202019	-3.7171056827	-0.0422205467	 0.126555
H	 0.1155034071	-0.6153752372	 3.1097132959	 0.229126
112.315	178.0782	234.2855	343.2737	378.8588	484.6571	547.9855	551.5396	640.3311	767.6792	786.8608	867.4029	924.6688	977.3751	1006.0999	1034.7215	1088.4615	1154.5314	1157.0634	1217.2688	1298.9665	1388.1769	1425.611	1435.2125	1459.0075	1461.8927	1515.757	1561.0277	1663.7528	1724.0628	3057.3194	3133.0786	3147.2054	3152.0653	3157.7643	3511.912
CN1C=NC=NC1=N	CN1CN=CN=C1[NH]	
InChI=1S/C4H6N4/c1-8-3-6-2-7-4(8)5/h2-3,5H,1H3	InChI=1S/C4H7N4/c1-8-3-6-2-7-4(8)5/h2,5H,3H2,1H3
