14
gdb 44305	3.97005	1.87969	1.64666	5.0444	62.35	-0.2587	0.0064	0.2651	799.2469	0.10367	-436.652039	-436.646551	-436.645607	-436.681847	22.882	
O	-0.0482147022	-0.041822102	-0.0004127995	-0.335389
C	-0.0333676198	 1.1473161042	 0.0025531142	 0.451644
O	-1.1682026941	 1.9220345819	 0.0783090271	-0.238801
C	-0.7257537409	 3.2687180818	 0.2496117477	 0.092748
C	 0.0499555405	 3.5118252217	 1.5510260026	-0.116997
C	 1.2608508317	 4.0395214098	 0.7893820115	-0.120671
C	 1.298462883	 2.6470398846	 1.3215797441	-0.046236
N	 1.1334830614	 2.0112348457	-0.0305833493	-0.199548
C	 0.6383322738	 3.3663922553	-0.4677708561	-0.046365
H	-1.5204400031	 3.9637268803	-0.009615182	 0.108595
H	-0.3190827888	 3.7725941779	 2.5325460309	 0.109851
H	 1.9051323528	 4.8914044109	 0.9335290861	 0.1183
H	 1.8845842257	 2.1942750586	 2.1082097702	 0.122847
H	 0.7515853399	 3.6248315894	-1.5174798375	 0.100024
151.9533	363.1132	445.4626	551.811	646.4687	708.7364	732.9773	783.6866	801.8256	826.8914	859.4757	867.9604	881.4077	919.414	934.0711	978.5227	991.8008	1012.3981	1032.2875	1042.0954	1063.381	1071.4563	1099.6512	1172.8668	1191.1275	1211.8438	1247.4246	1284.921	1343.3638	1352.5762	1914.1232	3151.7245	3161.5207	3222.3545	3228.5844	3256.7406
O=C1OC2C3C4C3N1C24	O=C1O[C@H]2[C@@H]3[C@H]4[C@@H]3N1[C@@H]24	
InChI=1S/C6H5NO2/c8-6-7-3-1-2(3)5(9-6)4(1)7/h1-5H	InChI=1S/C6H5NO2/c8-6-7-3-1-2(3)5(9-6)4(1)7/h1-5H/t1-,2+,3-,4+,5-/m0/s1
