22
gdb 90087	3.3856	1.2678	1.17773	0.6588	89.31	-0.205	0.0762	0.2812	1190.0443	0.194197	-367.076302	-367.067995	-367.06705	-367.10855	33.606	
C	-0.1550836491	 1.5420946421	 0.1252485011	-0.449059
C	 0.0671038923	 0.0385901785	 0.052752988	 0.05891
C	 1.1780954379	-0.5854255059	-0.8228836108	-0.118717
C	 2.2442456406	-0.1057895108	 0.267973785	-0.325288
C	 1.0326717185	-0.7048166524	 1.054356676	 0.220491
C	 0.3841970699	-1.6848464499	 2.0623743553	-0.275799
N	-0.062918671	-2.4692283482	 0.8475983735	-0.10324
C	-0.1158459044	-3.9105047223	 0.95013741	-0.321304
C	 1.0710923471	-1.8718376935	 0.0846971626	 0.040804
H	 0.760897268	 2.1236595081	 0.256783637	 0.113111
H	-0.6394747158	 1.8970881083	-0.7918151613	 0.115135
H	-0.8236529492	 1.7883541008	 0.957914397	 0.115211
H	-0.8901735957	-0.4740898403	-0.0529935899	 0.08607
H	 1.3011450347	-0.4972992186	-1.907819765	 0.061952
H	 3.1753739579	-0.6760054167	 0.3142093037	 0.098557
H	 2.4423952051	 0.9652171211	 0.3244853731	 0.100492
H	 1.1147693068	-2.2390121293	 2.6719301992	 0.09341
H	-0.4306828355	-1.3200285634	 2.696445975	 0.104363
H	-0.8924227018	-4.205960012	 1.6637921191	 0.118712
H	-0.3754839397	-4.3380968686	-0.0240046507	 0.122256
H	 0.8392194575	-4.3631363796	 1.2805368436	 0.086788
H	 1.9657879762	-2.5107143173	 0.1006267686	 0.057145
152.7786	170.0644	199.7898	221.0836	294.6472	320.4854	349.9655	418.1667	481.8626	522.0262	601.3683	667.5631	752.6973	761.7406	832.2755	863.4627	878.0567	911.5707	952.2362	992.7356	1001.0067	1017.0132	1037.3294	1084.2559	1096.7432	1111.4502	1125.7542	1141.634	1160.9902	1174.0197	1188.6143	1201.1376	1206.4002	1220.8187	1248.7731	1261.6006	1288.2705	1367.7006	1405.1985	1419.0757	1449.9571	1483.5791	1495.3339	1496.1354	1499.0856	1501.2889	1525.079	2918.7192	2981.5967	2993.596	3030.4955	3044.3782	3054.5541	3069.4801	3070.4555	3084.5229	3092.9059	3097.9243	3115.7015	3135.5014
CC1C2CC11CN(C)C21	C[C@H]1[C@H]2C[C@]31CN(C)[C@@H]23	
InChI=1S/C8H13N/c1-5-6-3-8(5)4-9(2)7(6)8/h5-7H,3-4H2,1-2H3	InChI=1S/C8H13N/c1-5-6-3-8(5)4-9(2)7(6)8/h5-7H,3-4H2,1-2H3/t5-,6+,7-,8+/m0/s1
