18
gdb 107595	2.66709	1.65277	1.17835	2.4956	73.58	-0.251	0.0226	0.2736	1068.2478	0.148106	-439.077002	-439.068772	-439.067828	-439.10972	31.121	
C	-0.3299913339	 1.3367363275	-0.1184196971	-0.265695
O	 0.2456064888	 0.0464117379	 0.0823982257	-0.288918
C	 0.7932121915	-0.5091861439	-1.0502847557	 0.377884
C	-0.0918654495	-1.1339450088	-2.1161180432	-0.346146
C	 0.7995709789	-2.0012569922	-1.2652177703	-0.146983
C	 2.1583051478	-2.3308036693	-1.8443335983	-0.107377
O	 2.7717983827	-1.0659085221	-2.1705338887	-0.248506
C	 2.1205771933	-0.0303675615	-1.5563654716	 0.355602
N	 2.5772175743	 1.1412318837	-1.4421096553	-0.550977
H	 0.4276580735	 2.0572811126	-0.4382269723	 0.156669
H	-1.1354551038	 1.2953745317	-0.8648409955	 0.103421
H	-0.7492223411	 1.6367431629	 0.8441127769	 0.123585
H	-1.1486373495	-1.1571257671	-1.8754819195	 0.128792
H	 0.1449348367	-0.9865639311	-3.1652132381	 0.12717
H	 0.3570503596	-2.6626736646	-0.5316886615	 0.114906
H	 2.7912638129	-2.8527455341	-1.1171239389	 0.121121
H	 2.1167179808	-2.9216187626	-2.7646339417	 0.121448
H	 3.5236658972	 1.1974655711	-1.821342095	 0.224004
114.3577	134.3775	180.6804	193.5399	258.4865	306.2321	360.4794	432.8651	480.5347	593.901	673.4088	703.8121	750.8539	846.4908	864.6009	885.3583	941.8009	965.0765	974.7775	1020.1779	1033.4082	1057.9727	1092.6024	1107.597	1124.1144	1184.6958	1207.5268	1229.8316	1238.8582	1274.2999	1339.8003	1376.0966	1413.5925	1470.0911	1483.1589	1492.2368	1516.3555	1519.5062	1776.5389	3005.988	3035.0984	3083.1308	3095.1083	3130.0375	3136.7421	3202.1593	3226.7042	3476.1247
COC12CC1COC2=N	CO[C@]12C[C@H]1CO[C]2[NH]	
InChI=1S/C6H9NO2/c1-8-6-2-4(6)3-9-5(6)7/h4,7H,2-3H2,1H3	InChI=1S/C6H9NO2/c1-8-6-2-4(6)3-9-5(6)7/h4,7H,2-3H2,1H3/t4-,6+/m0/s1
