22
gdb 105225	1.81367	1.47361	1.05126	1.7796	78.62	-0.2423	0.0603	0.3026	1276.9183	0.192062	-441.454493	-441.443728	-441.442784	-441.490021	39.64	
C	 0.5378341283	 1.1571805641	 0.250545464	-0.439295
C	 0.1279772117	-0.2904621405	 0.5381787742	 0.076076
O	 0.3620933272	-0.64142229	 1.9018385154	-0.443305
C	-1.3472844139	-0.5519039741	 0.2785805568	 0.326452
C	-2.3250213016	 0.2996203551	 1.0855902185	-0.184686
O	-2.7693469533	 1.4593435315	 0.3825874511	-0.417459
N	-1.6844755119	-0.783442898	-1.1360970529	-0.383396
C	-1.821690263	-1.8928983009	-0.1797400222	-0.039
C	-0.9514712175	-3.1109019311	-0.378589491	-0.40537
H	 1.6188376669	 1.2872050141	 0.3785835814	 0.109758
H	 0.2919646379	 1.4253460363	-0.781532575	 0.139133
H	 0.0453254719	 1.8539401425	 0.9386131644	 0.115125
H	 0.7077281885	-0.9412576254	-0.1294123723	 0.072712
H	 1.2660039489	-0.3956597013	 2.1223551181	 0.282275
H	-3.2378379814	-0.2665224327	 1.2915453285	 0.108757
H	-1.8702818902	 0.5577565659	 2.0501241117	 0.11394
H	-2.0098795018	 2.0322087885	 0.2402145923	 0.284561
H	-2.5797320041	-0.3411406192	-1.333378564	 0.236691
H	-2.8359935549	-2.1346668675	 0.1382684735	 0.079802
H	 0.0243862712	-2.8488536721	-0.7920704427	 0.12567
H	-0.7992432055	-3.6370732193	 0.5694252541	 0.123762
H	-1.4290321833	-3.8040860159	-1.079545714	 0.1178
64.1967	93.04	136.7689	176.7327	193.7344	229.7376	258.2513	279.5905	295.6907	326.0271	345.4377	387.5719	427.973	491.3352	522.4637	616.0999	732.68	830.712	872.6352	900.7446	940.2629	955.0733	1025.4062	1046.6287	1053.0186	1061.044	1093.3113	1107.7157	1126.3956	1137.2276	1196.5962	1231.1075	1249.2911	1309.7825	1340.9041	1366.7042	1385.3197	1395.2408	1408.7485	1419.1232	1435.9298	1466.0079	1490.3091	1494.4211	1501.0093	1511.0575	1511.5814	3014.0391	3023.2401	3031.17	3038.3302	3084.6145	3088.7524	3097.809	3101.4331	3112.2508	3130.6036	3493.9944	3818.8086	3829.5866
CC(O)C1(CO)NC1C	C[C@@H](O)[C@@]1(CO)N[C@H]1C	
InChI=1S/C6H13NO2/c1-4-6(3-8,7-4)5(2)9/h4-5,7-9H,3H2,1-2H3	InChI=1S/C6H13NO2/c1-4-6(3-8,7-4)5(2)9/h4-5,7-9H,3H2,1-2H3/t4-,5+,6-/m0/s1
