19
gdb 71464	4.12072	1.20048	1.08717	1.1421	88.17	-0.2288	0.0447	0.2736	1169.5749	0.158394	-348.681692	-348.673563	-348.672619	-348.713773	32.871	
C	 0.027562115	 1.5531611359	 0.0607520125	-0.504193
C	 0.0474517642	 0.048452969	 0.0673910929	 0.299415
C	-1.2601319814	-0.7813418701	 0.2551926597	-0.274467
C	-0.3692442212	-1.8698753334	 0.8412101046	-0.1076
C	 0.7220504788	-0.8894222717	 1.1622163822	-0.17122
C	 0.9455490581	-1.8708616727	 0.0165876504	 0.24587
C	 0.8142132784	-0.7525975191	-1.0225227388	-0.331307
C	 1.8072368299	-2.9996785034	-0.0210135592	 0.113383
C	 2.5446618184	-3.9503864387	-0.0727529614	-0.384292
H	 1.0416632233	 1.9659313662	 0.0273456088	 0.119115
H	-0.5136990029	 1.9289793181	-0.8159329252	 0.120915
H	-0.4683218886	 1.9505945239	 0.9530271977	 0.117918
H	-1.9015608805	-0.3442975786	 1.026812865	 0.099254
H	-1.8540389966	-0.9990456289	-0.6400943583	 0.091298
H	-0.6492756635	-2.7552328063	 1.3963676278	 0.096196
H	 1.308656965	-0.7106983056	 2.0517739177	 0.097943
H	 0.2877501848	-0.9671373464	-1.9597891446	 0.092109
H	 1.7911158091	-0.3111905219	-1.2386894364	 0.103652
H	 3.1937417494	-4.7889977162	-0.1154792453	 0.176011
129.4855	141.5151	214.9408	274.1334	293.212	399.4733	441.2298	496.2167	507.6073	541.2138	564.7344	614.1441	647.2011	730.6493	744.8131	818.2781	849.2278	892.6891	903.3421	953.1199	966.7442	994.1602	1009.8229	1035.8551	1079.4166	1120.1478	1130.9393	1152.2269	1183.3004	1196.2719	1233.4348	1247.4359	1272.479	1350.1807	1378.5874	1416.6095	1487.2206	1491.5944	1493.7135	1509.9718	2230.8464	3022.3537	3027.87	3035.3489	3086.28	3088.3194	3094.2939	3098.4175	3205.3881	3224.8871	3505.4988
CC12CC3C1C3(C2)C#C	C[C@]12C[C@@H]3[C@H]1[C@@]3(C2)C#C	
InChI=1S/C9H10/c1-3-9-5-8(2)4-6(9)7(8)9/h1,6-7H,4-5H2,2H3	InChI=1S/C9H10/c1-3-9-5-8(2)4-6(9)7(8)9/h1,6-7H,4-5H2,2H3/t6-,7-,8-,9-/m1/s1
