18
gdb 83992	2.59209	1.65092	1.33456	1.824	72.74	-0.2306	0.0161	0.2467	1006.6713	0.149653	-439.067778	-439.060016	-439.059072	-439.100089	30.12	
O	-0.0850206535	 1.4253850727	-0.392501358	-0.421099
C	-0.0335160894	 0.0837783989	-0.0226125999	 0.088575
C	-1.3399013858	-0.6083012511	 0.3179798321	-0.099613
C	-2.6443692929	 0.160809479	 0.289503227	-0.250739
C	-3.5892044473	-0.3372367288	-0.797303502	-0.066531
O	-3.2776697696	 0.1685390208	-2.1072202133	-0.216767
C	-2.0706384013	-0.0021216482	-2.6776956173	 0.128164
N	-0.9595736004	-0.4624523164	-2.2825996806	-0.277232
C	-0.6162799767	-0.9336243267	-0.980824268	-0.055947
H	 0.0018504177	 1.4581727492	-1.3544108173	 0.295306
H	 0.8581829579	-0.1826764784	 0.5406759041	 0.09215
H	-1.2747716253	-1.3861981804	 1.0738638846	 0.086255
H	-3.1518167155	 0.0615970148	 1.2550319583	 0.10695
H	-2.4552358439	 1.2283246743	 0.1351176903	 0.133069
H	-3.6003886268	-1.4336452794	-0.8349271384	 0.115116
H	-4.611079103	 0.0107606377	-0.6246994369	 0.117219
H	-2.1381524676	 0.3613584949	-3.703890327	 0.123809
H	-0.0956298765	-1.8863422428	-1.0263058177	 0.101315
71.4301	173.8701	232.3098	283.3649	302.0644	347.8935	396.0195	460.873	589.5562	603.9274	667.6117	748.5775	762.3717	796.4624	854.2292	890.0216	959.6224	978.7355	985.7986	1019.0044	1067.5198	1086.9125	1117.8918	1127.3118	1153.5681	1198.7917	1239.9057	1245.9406	1303.4013	1345.6075	1357.1109	1363.3684	1394.6644	1416.3053	1423.0585	1447.6043	1475.6833	1504.3455	1747.4383	3031.5622	3044.8112	3089.218	3097.9393	3120.9636	3132.1972	3135.0366	3147.3351	3750.8048
OC1C2CCOC=NC12	O[C@H]1[C@H]2CCOC=N[C@@H]12	
InChI=1S/C6H9NO2/c8-6-4-1-2-9-3-7-5(4)6/h3-6,8H,1-2H2	InChI=1S/C6H9NO2/c8-6-4-1-2-9-3-7-5(4)6/h3-6,8H,1-2H2/t4-,5+,6-/m0/s1
