21
gdb 38226	2.99275	2.0161	1.67367	0.3049	86.67	-0.2418	0.0731	0.3149	907.5277	0.186298	-349.844189	-349.837957	-349.837013	-349.874084	28.768	
C	 0.0030961075	 1.751613352	-0.0314565876	-0.207615
C	 1.4892565712	 1.5037196683	 0.0715415251	-0.045705
C	 1.0785927262	 0.2964398587	 1.0457632055	-0.335661
C	-0.0614106748	 0.1669643614	-0.0556730331	 0.286147
C	-1.4165651099	-0.2333273991	-0.6407399447	-0.325114
C	-1.1639978977	 0.4056666947	-2.0847780737	-0.234752
C	 0.3940515399	 0.388390848	-2.2969278148	-0.087622
C	 1.6722819271	 0.8400864721	-1.3356153262	-0.069728
C	 0.8949396725	-0.3863709998	-1.1670543492	-0.024747
H	-0.4637249831	 2.0882379703	 0.89924929	 0.081366
H	-0.3510206841	 2.3522409146	-0.8657094153	 0.099731
H	 2.2018231008	 2.269980551	 0.38090213	 0.058141
H	 1.760928767	-0.5508481885	 1.1505738707	 0.094116
H	 0.7679230368	 0.6609033914	 2.0275670404	 0.097672
H	-1.5769935215	-1.3132692093	-0.7246459714	 0.094865
H	-2.2808063958	 0.2094791222	-0.1381843252	 0.094564
H	-1.5875453087	-0.240824839	-2.8620984538	 0.097447
H	-1.6520657418	 1.3783852638	-2.1868670396	 0.105197
H	 0.7372149865	 0.1926287967	-3.3097576589	 0.076632
H	 2.6173320334	 0.8733827729	-1.8700222901	 0.075534
H	 1.2243489885	-1.4199345223	-1.1057578381	 0.069533
304.9492	314.2883	378.5561	444.8361	527.2829	535.8058	599.0896	638.7664	673.6288	726.0474	784.4841	806.2011	837.8879	841.2941	856.7158	865.3006	879.8239	925.9159	950.5283	971.7463	987.0922	1009.9728	1037.7876	1055.464	1060.6603	1090.2519	1109.3124	1138.4737	1162.2855	1168.9313	1192.1797	1201.4538	1215.5177	1218.2924	1245.1119	1258.476	1270.593	1292.3386	1298.9188	1309.8004	1393.1305	1485.6948	1490.387	1501.0471	1531.6006	3037.7338	3048.0047	3054.4278	3060.5647	3082.1174	3099.9079	3102.968	3124.4478	3129.0242	3139.61	3150.9132	3157.6761
C1C2CC11CCC3C2C13	C1[C@H]2C[C@]31CC[C@H]1[C@@H]2[C@@H]31	
InChI=1S/C9H12/c1-2-9-3-5(4-9)7-6(1)8(7)9/h5-8H,1-4H2	InChI=1S/C9H12/c1-2-9-3-5(4-9)7-6(1)8(7)9/h5-8H,1-4H2/t5-,6-,7+,8-,9+/m0/s1
