17
gdb 65886	4.11682	0.75833	0.7092	1.1925	91.65	-0.2465	-0.0198	0.2267	1594.8709	0.133532	-384.615018	-384.605712	-384.604768	-384.649584	33.856	
C	-0.083855089	 1.5679165845	-0.0000910174	-0.451143
C	-0.0166584963	 0.0343415404	-0.0022267142	 0.024867
C	 1.1876869691	-0.5257204951	-0.8245579409	-0.102739
O	 1.9401555856	-0.7819597651	 0.3731939928	-0.266424
C	 0.790255696	-0.5459585501	 1.2029598438	-0.102737
C	-1.3085666492	-0.5651003034	-0.2614617007	 0.453936
C	-2.390261262	-1.0651614319	-0.4786141367	-0.310996
C	-3.6043848491	-1.6280870781	-0.7223446833	 0.301375
C	-4.6823580172	-2.1276900648	-0.9388941443	-0.576515
H	 0.908999601	 1.9829019799	 0.1986659749	 0.130501
H	-0.4313912637	 1.9423231939	-0.9672152797	 0.132081
H	-0.7721693751	 1.9249771495	 0.7712850488	 0.13208
H	 0.9605371099	-1.4451242926	-1.3772000457	 0.111176
H	 1.6858548802	 0.1917703532	-1.4862081955	 0.110488
H	 0.9990898896	 0.1567905427	 2.0173777318	 0.110487
H	 0.3747601836	-1.4749543763	 1.6111846525	 0.111173
H	-5.6297906133	-2.5673959365	-1.1291272061	 0.19239
64.5118	85.4393	109.935	224.0648	224.7793	262.6123	333.7201	333.796	464.5257	489.3843	508.6393	542.9496	544.6033	596.1602	601.6778	824.8372	847.219	909.749	931.2153	969.7941	1013.754	1042.8179	1080.1176	1150.887	1162.504	1162.6998	1205.9735	1303.6822	1313.6952	1364.8642	1411.9328	1489.2152	1496.1623	1508.6595	1531.8372	2180.3953	2356.3719	3015.679	3025.7569	3039.3524	3073.4416	3074.7419	3116.4884	3118.7359	3504.5818
CC1(COC1)C#CC#C	CC1(COC1)C#CC#C	
InChI=1S/C8H8O/c1-3-4-5-8(2)6-9-7-8/h1H,6-7H2,2H3	InChI=1S/C8H8O/c1-3-4-5-8(2)6-9-7-8/h1H,6-7H2,2H3
