20
gdb 18011	4.21075	1.45115	1.3005	1.62	74.33	-0.239	0.0745	0.3135	1032.9365	0.17781	-348.973984	-348.966178	-348.965234	-349.006361	29.58	
C	-0.2859614429	 1.4011212716	 0.0141397488	-0.381889
C	 0.0349044968	-0.0966177432	-0.0071452278	-0.186638
C	 0.8088496828	-0.5596386153	 1.220123001	 0.032225
C	 0.1081621335	-0.5394617909	 2.6218418738	-0.257721
C	 0.5063781267	-2.0260830441	 2.8484486931	-0.076949
C	-0.5308398921	-3.0335901063	 2.3356062212	-0.073407
O	-0.053744824	-2.9018670158	 0.975021463	-0.292298
C	 1.0582000202	-2.0775108324	 1.394981283	 0.093651
H	 0.6286417345	 2.0045767068	 0.0380657417	 0.110364
H	-0.8566404517	 1.6972765501	-0.8715381981	 0.112172
H	-0.8796075324	 1.6692856425	 0.8951150802	 0.115487
H	-0.8881041965	-0.682246542	-0.0801935658	 0.108689
H	 0.6167006572	-0.3355040223	-0.9073410225	 0.093787
H	 1.7693984029	-0.0319446759	 1.2783703664	 0.065934
H	 0.5410918092	 0.1638467815	 3.3361476417	 0.101235
H	-0.9735322802	-0.3724506647	 2.5918193893	 0.097671
H	 1.0780675465	-2.2754595681	 3.7409726112	 0.074499
H	-0.3939235702	-4.059525138	 2.7030437461	 0.097589
H	-1.5873539818	-2.7543829738	 2.4378024159	 0.098409
H	 2.0183153916	-2.4977181195	 1.0800747477	 0.067192
83.8748	104.2861	168.8571	226.1461	287.5145	365.4985	400.0563	502.9344	671.8379	761.8251	778.2043	798.322	835.9379	904.7171	919.0088	934.0542	961.966	991.9528	1005.0559	1018.6122	1045.3837	1083.5308	1129.5708	1144.4877	1149.8909	1186.8496	1200.8775	1220.553	1258.2098	1279.8575	1283.2766	1301.4605	1313.0547	1347.7126	1361.3738	1384.9837	1411.9486	1479.9467	1490.3202	1500.6735	1508.4919	1523.8002	3001.6238	3020.0928	3023.0713	3028.5518	3046.3309	3049.5292	3059.1807	3067.4232	3095.8932	3101.1807	3105.8474	3123.9169
CCC1CC2COC12	CC[C@H]1C[C@H]2CO[C@@H]12	
InChI=1S/C7H12O/c1-2-5-3-6-4-8-7(5)6/h5-7H,2-4H2,1H3	InChI=1S/C7H12O/c1-2-5-3-6-4-8-7(5)6/h5-7H,2-4H2,1H3/t5-,6-,7-/m0/s1
