20
gdb 104375	2.16811	1.58099	1.3579	2.6214	75.46	-0.228	0.0261	0.254	1089.9979	0.170859	-440.326805	-440.317431	-440.316487	-440.360621	34.805	
C	-0.0683981859	 1.3497326379	 0.019511308	-0.255058
O	-0.023304936	-0.0625541551	-0.1225136061	-0.299998
C	 0.766876432	-0.5880978968	-1.1978715428	 0.288949
C	 2.2181290313	-0.1312415693	-1.1495448758	-0.461121
C	 0.5485385352	-2.1058443665	-1.1393872728	-0.248514
C	-0.7661229447	-2.3313920586	-1.9138561732	-0.172789
N	-0.7487540741	-1.2332830168	-2.868204474	-0.312886
C	 0.0633850065	-0.193404137	-2.5246248176	 0.400672
O	 0.1778384773	 0.8622381907	-3.1156120984	-0.398639
H	 0.8947092918	 1.7592379108	 0.3517162695	 0.108385
H	-0.3607261649	 1.8504067056	-0.9098337473	 0.140241
H	-0.8153023614	 1.5505716498	 0.7917462176	 0.121301
H	 2.6431344852	-0.3121742722	-0.1575825663	 0.118657
H	 2.8129451631	-0.6748864654	-1.8891705084	 0.119866
H	 2.2946323831	 0.9322726904	-1.3876174308	 0.142139
H	 1.3700504702	-2.6175042031	-1.6483887083	 0.108945
H	 0.4973764311	-2.4582281862	-0.1081281544	 0.118667
H	-0.7894910567	-3.2991167293	-2.4239113369	 0.111244
H	-1.6363857448	-2.271685161	-1.2483520845	 0.119639
H	-1.4352826482	-1.1203815078	-3.5977451075	 0.2503
94.3191	123.8048	175.4846	185.7644	200.5601	232.6102	288.3529	310.3588	370.9116	419.4379	520.9989	532.7696	616.2435	696.4176	714.9825	756.6165	818.8679	894.1534	925.2409	964.1531	1017.751	1068.1367	1102.9179	1132.9203	1157.9961	1187.2238	1201.742	1228.5116	1244.9753	1256.4298	1295.6179	1335.0138	1373.6967	1399.9294	1445.4376	1474.5058	1476.3545	1481.4114	1486.2543	1501.5352	1519.4567	1529.0632	1812.2128	3009.9714	3024.458	3043.9038	3065.0245	3077.9841	3079.0015	3115.274	3117.5305	3128.5952	3131.5906	3633.8582
COC1(C)CCNC1=O	CO[C@@]1(C)CCNC1=O	
InChI=1S/C6H11NO2/c1-6(9-2)3-4-7-5(6)8/h3-4H2,1-2H3,(H,7,8)	InChI=1S/C6H11NO2/c1-6(9-2)3-4-7-5(6)8/h3-4H2,1-2H3,(H,7,8)/t6-/m0/s1
