20
gdb 66936	2.51814	1.90702	1.39776	1.5746	82.62	-0.2277	0.0908	0.3185	1005.9379	0.171359	-365.932748	-365.925005	-365.92406	-365.964437	31.485	
C	-0.0082454719	 1.5155653228	 0.1056031647	-0.514263
C	-0.0782756299	 0.0238973259	 0.0432455661	 0.27002
C	 0.0997113307	-1.0072086482	 1.0972218483	-0.098499
C	-0.4674667209	-2.0499596942	 0.0538591879	-0.198254
C	 0.9649405626	-2.0675393344	-0.5049193309	-0.148894
N	 1.227297599	-0.7427209048	 0.1546067969	-0.200416
C	-1.0712432435	-0.852589196	-0.6931737509	 0.394847
C	-2.5249588353	-0.5555848549	-0.8755576134	-0.358429
C	-1.6224254155	-0.7671882531	-2.0815423086	-0.342304
H	 0.7648847367	 1.829458213	 0.8115881483	 0.136598
H	 0.242476434	 1.938994113	-0.8736849313	 0.124429
H	-0.9644405422	 1.9424767787	 0.4268055047	 0.119562
H	 0.1756819741	-0.9666331881	 2.1765475116	 0.094198
H	-1.0515645913	-2.9484891958	 0.2476695894	 0.070287
H	 1.6125137221	-2.8137753301	-0.0369420897	 0.103418
H	 1.0927155813	-2.0869934174	-1.5935255063	 0.096865
H	-3.245193154	-1.3318102447	-0.6368023103	 0.112523
H	-2.8792615066	 0.4514241823	-0.677765634	 0.113347
H	-1.3759669256	 0.0983541437	-2.6885737613	 0.113468
H	-1.7386581738	-1.6866268376	-2.6473944512	 0.111497
160.7236	190.2584	209.3352	218.6831	280.979	350.6528	472.0658	498.7131	605.5788	622.2808	732.2619	758.774	784.4026	816.2272	832.5771	915.6739	920.743	936.1736	961.0909	970.3668	979.6024	1016.5501	1023.6424	1049.8717	1062.8274	1076.6471	1092.3342	1137.5473	1152.0607	1170.5964	1183.3154	1206.306	1222.7251	1267.3701	1302.8303	1383.6961	1407.3957	1444.3648	1463.0039	1486.8516	1492.3216	1505.2647	1512.9221	3031.0636	3034.2655	3090.9479	3099.4051	3118.7079	3119.6137	3123.0391	3124.8608	3191.7714	3196.1007	3210.5689
CC12C3C(CN13)C21CC1	C[C@]12[C@H]3[C@H](CN13)C12CC1	
InChI=1S/C8H11N/c1-7-6-5(4-9(6)7)8(7)2-3-8/h5-6H,2-4H2,1H3	InChI=1S/C8H11N/c1-7-6-5(4-9(6)7)8(7)2-3-8/h5-6H,2-4H2,1H3/t5-,6+,7+,9?/m0/s1
