20
gdb 63804	2.96597	1.64089	1.46933	2.9243	76.64	-0.2276	0.0672	0.2948	986.9533	0.172037	-403.118491	-403.110708	-403.109764	-403.150095	31.942	
C	-0.1479879686	 1.5736762575	-0.0100742023	-0.452547
C	 0.0307551715	 0.0554703503	-0.017219746	 0.410504
O	-1.2438854246	-0.5864751641	 0.0007112378	-0.474936
C	 0.9035537742	-0.4893225164	-1.1872866666	-0.300709
C	 1.6502907126	-1.6516619341	-0.5492260657	-0.018398
C	 2.5668729549	-1.3957641526	 0.592486359	-0.037298
C	 2.255529128	-0.0784125073	 1.2855116262	-0.270131
C	 0.7671502778	-0.5083793805	 1.2002662567	-0.012649
N	 1.1706473201	-1.9338623284	 0.8256596514	-0.140491
H	 0.8075982063	 2.10320103	 0.0349110824	 0.118358
H	-0.6618854471	 1.9012148662	-0.9218769627	 0.108022
H	-0.7579466711	 1.8766509332	 0.8459478566	 0.126244
H	-1.7331809545	-0.2952789502	-0.7760696284	 0.273874
H	 0.2656745802	-0.8267464403	-2.0095220087	 0.098353
H	 1.5814496956	 0.2731178844	-1.5858926354	 0.100534
H	 1.8420963899	-2.543771885	-1.136685974	 0.089827
H	 3.4464702591	-2.008054265	 0.7690045972	 0.087981
H	 2.60946387	-0.0761732242	 2.3183789459	 0.114272
H	 2.5696871387	 0.8542429815	 0.8052841196	 0.094581
H	 0.1767390669	-0.459858325	 2.1144092172	 0.084611
136.0055	230.0859	240.8459	271.9849	341.9942	356.5468	373.2257	449.804	471.3174	585.7555	706.6638	749.3407	770.4786	781.5922	806.1835	883.3197	926.4166	932.0569	944.0004	972.5381	981.7868	1008.1453	1041.3262	1054.3453	1080.2642	1118.9277	1134.9689	1144.333	1187.4225	1189.0124	1231.8653	1252.6871	1271.7186	1291.3482	1304.0062	1352.3394	1389.451	1403.1834	1408.7985	1478.9077	1491.1648	1494.9118	1504.0165	3028.9891	3041.1414	3045.7898	3087.266	3094.9289	3107.0683	3120.1112	3125.641	3148.5119	3166.6182	3804.5616
CC1(O)CC2C3CC1N23	C[C@@]1(O)C[C@H]2[C@H]3C[C@@H]1N23	
InChI=1S/C7H11NO/c1-7(9)3-5-4-2-6(7)8(4)5/h4-6,9H,2-3H2,1H3	InChI=1S/C7H11NO/c1-7(9)3-5-4-2-6(7)8(4)5/h4-6,9H,2-3H2,1H3/t4-,5+,6+,7-,8?/m1/s1
