17
gdb 52491	7.62099	0.48287	0.45795	2.2743	97.93	-0.2284	-0.0163	0.212	2369.2515	0.131389	-384.672428	-384.661428	-384.660484	-384.713983	35.898	
C	 0.0726688297	 1.5304346149	 0.0342821323	-0.518308
C	 0.0429077288	 0.0796646946	-0.0073147139	 0.248218
C	 0.0143281319	-1.1297611704	-0.0411647927	-0.203216
C	-0.0167222205	-2.4886464712	-0.0793798932	-0.123568
C	-0.047044078	-3.697455781	-0.1128277722	 0.270444
C	-0.0694141982	-5.1455600465	-0.1562006874	-0.528636
C	-1.449620556	-5.7837224149	 0.1107054946	 0.39419
C	-1.4686300206	-7.300723893	 0.0442241737	-0.479139
O	-2.4302697136	-5.1296445897	 0.351885785	-0.262894
H	 1.0732732292	 1.9137592751	-0.1959288839	 0.154789
H	-0.6245396225	 1.9620242522	-0.6928252482	 0.156569
H	-0.2070019496	 1.9042353174	 1.0258027771	 0.156508
H	 0.2825610057	-5.5121905048	-1.1316115195	 0.152258
H	 0.6354303144	-5.5681253031	 0.5750064846	 0.152988
H	-0.7575135015	-7.7267456407	 0.7607877701	 0.140456
H	-2.4729252467	-7.6640925256	 0.2628607585	 0.147684
H	-1.1624281327	-7.6432767932	-0.9507101847	 0.141657
5.4877	7.6728	51.422	85.4017	112.4624	139.8739	245.1969	286.5654	320.5784	376.6026	395.6148	465.715	541.7551	546.1234	565.1251	673.2323	792.6876	825.9421	942.8649	996.3767	1047.2876	1048.6021	1052.2921	1166.7241	1223.0721	1279.1273	1341.5664	1382.4105	1412.4875	1435.0253	1464.4733	1472.0402	1472.3521	1476.5317	1833.967	2284.4625	2390.9623	3001.9479	3022.9855	3027.4614	3037.1494	3084.6826	3085.1897	3097.2295	3156.162
CC#CC#CCC(C)=O	CC#CC#CCC(=O)C	
InChI=1S/C8H8O/c1-3-4-5-6-7-8(2)9/h7H2,1-2H3	InChI=1S/C8H8O/c1-3-4-5-6-7-8(2)9/h7H2,1-2H3
