17
gdb 38140	2.81632	1.948	1.41667	2.8484	71.95	-0.2439	-0.0103	0.2336	923.2036	0.138367	-421.792361	-421.78567	-421.784726	-421.823431	26.804	
C	 0.3327494433	 1.5768485378	 0.199152168	-0.082257
O	 1.3964396774	 1.404409135	-0.7631531079	-0.285066
C	 1.2919347286	-0.032629356	-0.6808761211	 0.089297
C	 2.4486312799	-0.6535799853	 0.0700129704	 0.015926
O	 2.7872854322	-0.0484258504	 1.311566038	-0.241579
C	 2.1920060141	-1.3634273535	 1.3426323944	-0.000079
C	 0.8126933951	-1.4436152754	 1.8808272519	-0.064056
C	-0.2001367518	-0.7675153522	 1.3327567211	-0.090659
C	-0.0411660209	 0.0696063682	 0.1083386609	-0.117672
H	 0.7186138113	 1.8778188975	 1.1787136634	 0.117264
H	-0.4212964047	 2.2924213115	-0.14633566	 0.101657
H	 1.2196285129	-0.4879674394	-1.6762468673	 0.075999
H	 3.3067080487	-0.9528737347	-0.5327633406	 0.09655
H	 2.8839762618	-2.1471623591	 1.645630367	 0.093138
H	 0.655590702	-2.0646341007	 2.7573725163	 0.099038
H	-1.1943641116	-0.8364151892	 1.7667161219	 0.100709
H	-0.9018549082	-0.063760484	-0.5532617865	 0.09179
119.2626	182.0993	263.2128	354.7994	456.9859	494.4125	553.0378	634.734	728.1473	739.7742	788.7902	828.4037	852.0517	881.4075	948.3696	963.2252	987.8887	1003.8753	1014.8362	1033.8549	1066.8443	1089.1665	1112.3311	1149.2443	1164.8855	1194.3089	1255.8899	1266.3625	1285.0494	1339.5794	1352.4569	1356.8865	1393.5158	1426.6948	1453.5444	1514.8473	1705.863	3026.4315	3031.628	3061.7059	3088.297	3104.2166	3128.4875	3155.7419	3182.8026
C1OC2C3OC3C=CC12	C1O[C@H]2[C@H]3O[C@H]3C=C[C@@H]12	
InChI=1S/C7H8O2/c1-2-5-7(9-5)6-4(1)3-8-6/h1-2,4-7H,3H2	InChI=1S/C7H8O2/c1-2-5-7(9-5)6-4(1)3-8-6/h1-2,4-7H,3H2/t4-,5-,6+,7-/m0/s1
