18
gdb 124806	4.16205	0.99192	0.83898	3.8962	75.46	-0.2578	-0.011	0.2469	1383.4858	0.14605	-439.093659	-439.084279	-439.083334	-439.128416	33.517	
C	-0.0197992145	 1.44565937	-0.4059585499	-0.386176
C	 0.0162283704	 0.0574805829	 0.2384896218	 0.053621
O	 0.4349429074	 0.196558626	 1.5813549786	-0.440868
C	-1.3130085284	-0.6472946601	 0.1403972219	 0.375643
N	-1.8797849698	-1.0880766968	 1.2359240292	-0.225346
O	-3.0595679177	-1.7103628527	 0.8392139153	-0.219599
C	-3.1717574238	-1.6239914716	-0.5004167508	 0.445614
C	-4.3840683044	-2.2321076783	-1.111079099	-0.4903
C	-2.096009935	-0.9634859635	-1.0069395127	-0.439817
H	 0.9579477641	 1.9202399656	-0.2902002636	 0.130999
H	-0.2517100015	 1.3825306798	-1.4735452368	 0.109841
H	-0.7702465399	 2.0708350682	 0.0854557317	 0.129213
H	 0.747772468	-0.5583822399	-0.3140670903	 0.086088
H	-0.1057471653	-0.3930064703	 2.1217463583	 0.30017
H	-5.29391649	-1.7598091937	-0.7266443871	 0.154142
H	-4.3603877329	-2.1108371401	-2.195418962	 0.143413
H	-4.4444768925	-3.3004493834	-0.8798590639	 0.153735
H	-1.8914152644	-0.7367122122	-2.0399549305	 0.119626
47.5392	101.5584	126.7497	169.9049	212.9356	239.835	277.9413	332.4001	356.6436	465.2587	484.6798	633.344	646.3314	703.6435	750.2303	811.7921	913.0684	945.0853	1003.0503	1018.4463	1029.9487	1062.1175	1065.9253	1099.5676	1123.9756	1178.3577	1275.143	1307.1009	1355.5942	1395.432	1413.2118	1418.2463	1450.6568	1474.3927	1485.7576	1490.054	1501.0096	1525.4439	1645.4947	2942.5505	3044.0334	3044.6929	3102.02	3119.9038	3129.2911	3141.2431	3274.956	3771.8602
CC(O)C1=NOC(C)=C1	C[C@@H](O)c1noc(C)c1	
InChI=1S/C6H9NO2/c1-4-3-6(5(2)8)7-9-4/h3,5,8H,1-2H3	InChI=1S/C6H9NO2/c1-4-3-6(5(2)8)7-9-4/h3,5,8H,1-2H3/t5-/m1/s1
