18
gdb 22156	4.37372	0.56236	0.54404	1.2608	81.18	-0.2482	0.0063	0.2545	2017.1036	0.144035	-439.011348	-439.000451	-438.999507	-439.049768	37.051	
C	-0.0243569005	 1.4383168716	 0.2470000911	-0.481637
C	 0.0765014361	-0.0303629742	-0.048110822	 0.375629
C	 0.2439910063	-1.0086046747	 1.1012600987	-0.413816
C	 1.4474952797	-0.7658156217	 1.8934133609	 0.053158
C	 2.4484138555	-0.5425827112	 2.5262408988	 0.046416
C	 3.6361341634	-0.2962249456	 3.3433564795	-0.192785
O	 3.3605988779	 0.3942898164	 4.5549212505	-0.402027
N	 0.0095395322	-0.567977451	-1.2045326143	-0.163741
O	-0.1912553095	 0.3772247923	-2.2212923125	-0.396054
H	 0.3136212104	 2.0282416778	-0.6055296728	 0.154117
H	-1.0668464392	 1.7142303503	 0.4494949343	 0.139102
H	 0.5670880536	 1.6899613728	 1.1304400451	 0.142132
H	-0.6352234847	-0.9397492409	 1.7588637439	 0.137293
H	 0.2518972284	-2.0219800522	 0.68751623	 0.148989
H	 4.1497205134	-1.2520666689	 3.5350043498	 0.118329
H	 4.3443194615	 0.3362525369	 2.7966087248	 0.141174
H	 2.6623062792	-0.0894110479	 5.0082469005	 0.286658
H	-0.1656897438	-0.1713652796	-3.0122557962	 0.307064
19.8939	45.2904	68.5237	85.5652	130.412	226.4139	280.5284	307.8288	329.3761	346.7796	360.1277	394.6773	449.503	517.1452	565.1988	663.902	781.5512	818.7947	905.4528	982.4661	987.1482	1043.5708	1047.2269	1056.2117	1151.2161	1211.5483	1215.8683	1265.4832	1322.6225	1359.4534	1398.2966	1401.9889	1418.334	1453.3811	1480.5445	1487.5133	1491.8639	1736.8228	2359.8604	2975.9591	3003.1354	3036.7842	3062.8356	3079.1821	3106.478	3153.0732	3817.2208	3821.2009
CC(CC#CCO)=NO	CC(=NO)CC#CCO	
InChI=1S/C6H9NO2/c1-6(7-9)4-2-3-5-8/h8-9H,4-5H2,1H3	InChI=1S/C6H9NO2/c1-6(7-9)4-2-3-5-8/h8-9H,4-5H2,1H3
