20
gdb 113722	3.45487	0.85462	0.74957	3.8424	80.5	-0.2897	0.0134	0.3031	1550.5622	0.169442	-403.146222	-403.136084	-403.13514	-403.182091	36.287	
C	-0.3633187435	 1.5752690497	 0.265551439	-0.385141
C	 0.1211355257	 0.1612330546	-0.0747396316	-0.188337
C	 0.8605874457	-0.4846009174	 1.0814169334	-0.0027
C	 0.1354947973	-1.2832210687	 2.1361839521	-0.295637
C	 1.0903102646	-1.9742718843	 1.189067133	-0.04412
C	 0.57189495	-2.9267468524	 0.1287901427	-0.033756
O	 1.3196275175	-2.8950334507	-1.0760067524	-0.411771
C	 0.5090633713	-4.3047037291	 0.6696145445	 0.263304
N	 0.4954151253	-5.3799173148	 1.0929208903	-0.31895
H	 0.4773512599	 2.2290928179	 0.5222683575	 0.116506
H	-0.8893422834	 2.0262716494	-0.5811604843	 0.115842
H	-1.0465802825	 1.5631576493	 1.1210942131	 0.119946
H	-0.7403619578	-0.4524818297	-0.362285152	 0.095363
H	 0.7772150082	 0.1919108154	-0.9527578136	 0.112621
H	 1.6934054626	 0.1134946416	 1.4454859418	 0.089966
H	 0.4231477245	-1.1886752744	 3.1768159028	 0.122422
H	-0.9259327248	-1.4589438852	 1.9859610127	 0.119275
H	 2.0428039713	-2.2868382933	 1.6105493419	 0.096591
H	-0.4444515151	-2.6446843176	-0.161644063	 0.136159
H	 2.2337560633	-3.1201779004	-0.8677181177	 0.292417
45.0565	75.0356	99.4191	156.5696	203.4737	230.6049	244.2762	275.4419	329.8136	361.418	438.7334	511.9729	569.7832	616.366	761.3757	796.0417	838.0923	862.6339	916.4662	961.6303	970.9555	1031.1109	1044.5773	1065.9621	1074.0041	1114.8371	1144.8401	1157.2342	1196.5916	1240.3455	1270.1281	1294.131	1304.8695	1341.5012	1402.4293	1412.6286	1417.0234	1435.6801	1481.5977	1496.4724	1498.1791	1506.6322	2353.5676	3031.7519	3033.853	3061.5607	3078.6794	3101.6522	3108.8862	3125.2647	3128.9988	3137.8964	3216.1343	3802.242
CCC1CC1C(O)C#N	CC[C@H]1C[C@H]1[C@@H](O)C#N	
InChI=1S/C7H11NO/c1-2-5-3-6(5)7(9)4-8/h5-7,9H,2-3H2,1H3	InChI=1S/C7H11NO/c1-2-5-3-6(5)7(9)4-8/h5-7,9H,2-3H2,1H3/t5-,6+,7-/m0/s1
