21
gdb 122031	3.81168	0.68545	0.5901	3.1351	86.32	-0.2251	-0.0643	0.1608	1911.2081	0.179347	-420.415224	-420.404012	-420.403068	-420.452871	38.357	
C	 0.0302371046	 1.5084648719	 0.0103074468	-0.378714
C	-0.0377649944	-0.0182935928	 0.0940327858	-0.200801
C	-1.4626764322	-0.5447884127	-0.0650712718	-0.094454
N	-1.4995939808	-1.9932973817	 0.0331960425	-0.348777
C	-2.7003089107	-2.6717571768	 0.0135253591	 0.299983
C	-2.4979960381	-4.1672441593	-0.0292781574	 0.103556
O	-3.3807482421	-4.9842541568	-0.0718921064	-0.240569
N	-3.8087025252	-2.0389088655	 0.0662549649	-0.303856
C	-5.0853371623	-2.7265411207	 0.1431053972	-0.3057
H	 1.0586802293	 1.8641894602	 0.1200446965	 0.117219
H	-0.3478041908	 1.8706382111	-0.9517221614	 0.12083
H	-0.5703455189	 1.9738674204	 0.7989261967	 0.122944
H	 0.602262535	-0.4553376041	-0.6855808935	 0.09317
H	 0.3650139414	-0.3607449073	 1.0549443855	 0.108097
H	-2.1165632847	-0.1431222348	 0.7160555031	 0.130443
H	-1.8958948407	-0.2065341164	-1.0196404599	 0.105814
H	-0.6978437059	-2.4839294006	-0.3330564643	 0.236796
H	-1.4269685058	-4.4838598558	-0.0212549557	 0.072752
H	-5.1399632874	-3.4455098856	 0.9690963482	 0.125214
H	-5.8685851693	-1.9759015957	 0.283566104	 0.110369
H	-5.310026591	-3.2868103469	-0.7730184398	 0.125682
42.2974	58.5098	84.3817	99.4172	153.2261	189.8622	233.7788	237.9713	272.7509	277.5772	329.4607	384.6559	418.5337	509.7498	547.9583	753.3954	761.0578	848.9154	890.8038	914.1485	1004.6112	1039.8825	1084.9253	1093.1453	1105.7739	1133.3383	1165.055	1189.6882	1262.1314	1276.5977	1312.6034	1332.2885	1401.279	1413.3281	1435.3464	1444.2517	1479.1534	1491.1011	1499.4871	1500.4475	1504.5121	1518.9801	1522.4435	1694.2214	1828.1538	2835.2525	2983.9455	3008.6381	3011.4674	3035.5813	3051.996	3065.807	3074.913	3090.6293	3103.2862	3110.5993	3610.8761
CCCNC(C=O)=NC	CCCNC(=NC)C=O	
InChI=1S/C6H12N2O/c1-3-4-8-6(5-9)7-2/h5H,3-4H2,1-2H3,(H,7,8)	InChI=1S/C6H12N2O/c1-3-4-8-6(5-9)7-2/h5H,3-4H2,1-2H3,(H,7,8)
