21
gdb 111896	2.85603	1.25427	0.97669	1.0674	85.66	-0.2229	0.0179	0.2408	1292.6356	0.182196	-387.08077	-387.07174	-387.070796	-387.114562	34.134	
C	 0.0426397483	 1.3939651074	 0.0722864924	-0.231494
O	-0.1847679368	 0.0170816953	-0.1063305412	-0.242914
C	 0.5780600664	-0.5639734986	-1.1607813669	 0.086328
C	 2.0420878767	-0.7980824559	-0.8180694053	-0.220909
C	 2.4018541114	-2.0789410513	-0.949135511	 0.330546
C	 3.7487694081	-2.6799848024	-0.69878379	-0.49496
C	 1.2273508941	-2.9182427392	-1.3577228389	-0.135972
C	 0.1034076706	-2.9730094759	-0.3412579295	-0.271873
C	 0.0582360394	-1.9663895305	-1.4623473133	-0.067638
H	 1.0683301502	 1.6152809875	 0.4044407082	 0.102823
H	-0.146288635	 1.9629900234	-0.8526510781	 0.099196
H	-0.6514848262	 1.7388481067	 0.843262636	 0.123774
H	 0.480916198	 0.0838326431	-2.0499945495	 0.061589
H	 2.6947428893	-0.003752211	-0.473410978	 0.086268
H	 4.4753948621	-1.9274102165	-0.3816463675	 0.122926
H	 3.6937529569	-3.4560822398	 0.0748679236	 0.13041
H	 4.1370987968	-3.1684409797	-1.6015781084	 0.125841
H	 1.3632362471	-3.7460386293	-2.0454539656	 0.081693
H	-0.5926803417	-3.8030124917	-0.4049017252	 0.106334
H	 0.3038462269	-2.6167616631	 0.6626305277	 0.123702
H	-0.6988280227	-2.0832488883	-2.2275181196	 0.084329
78.5633	118.6556	161.9817	188.7909	206.0974	239.5681	325.7393	345.4459	467.7754	483.6138	578.1905	594.6546	734.4979	793.6812	824.7946	843.3889	857.3162	935.1842	964.7152	994.4215	1009.9992	1036.7936	1044.1721	1059.8025	1072.7242	1101.3648	1102.4974	1136.7852	1179.082	1183.1375	1200.2724	1221.0872	1275.538	1323.6119	1359.3052	1380.2292	1381.9124	1413.2553	1477.1261	1478.1263	1479.9636	1488.1845	1489.8024	1510.2323	1708.4881	2937.3255	2968.3428	3013.8079	3019.0165	3065.8428	3106.5335	3113.2918	3131.4958	3165.1504	3186.5312	3192.4721	3224.465
COC1C=C(C)C2CC12	CO[C@H]1C=C(C)[C@H]2C[C@@H]12	
InChI=1S/C8H12O/c1-5-3-8(9-2)7-4-6(5)7/h3,6-8H,4H2,1-2H3	InChI=1S/C8H12O/c1-5-3-8(9-2)7-4-6(5)7/h3,6-8H,4H2,1-2H3/t6-,7-,8+/m1/s1
