19
gdb 56335	5.11798	0.54889	0.52899	4.4225	74.49	-0.2455	-0.0175	0.228	2027.1266	0.15787	-456.395509	-456.384997	-456.384053	-456.432919	36.168	
N	 0.0118519061	 1.1547081849	 0.3927294001	-0.563329
C	-0.3225908908	-0.1942437415	 0.4300543358	 0.447379
O	-0.0892351335	-0.9067065627	 1.3900988993	-0.391532
N	-0.9140985901	-0.6623093093	-0.7221157692	-0.337676
C	-1.1342630213	-2.0934750045	-0.8832992388	-0.15512
C	-2.4106903647	-2.5718419919	-0.1810019868	-0.18174
C	-2.6253274537	-4.0856192097	-0.3431863614	-0.27485
C	-3.8162084125	-4.5647867581	 0.4537128734	 0.158953
O	-4.7682126795	-5.1433181445	-0.0030097903	-0.239431
H	 0.2306263867	 1.5192345881	 1.3076809162	 0.261802
H	-0.5713055769	 1.765859691	-0.159457237	 0.247112
H	-0.8177134133	-0.1099109878	-1.5579597653	 0.242828
H	-1.1928798583	-2.3027016082	-1.9561582234	 0.101147
H	-0.2746183232	-2.6406841056	-0.4792862105	 0.128688
H	-2.3273965239	-2.3164159261	 0.8804427767	 0.134706
H	-3.2729069453	-2.0261609404	-0.5818763112	 0.105906
H	-2.7692275418	-4.3697060893	-1.3903510219	 0.116305
H	-1.7387690836	-4.6145661236	 0.0371445996	 0.12388
H	-3.7580088003	-4.3281988309	 1.5425284446	 0.074971
42.7747	52.3995	77.5369	86.1065	115.4627	202.6268	270.4782	306.2561	334.391	393.358	425.404	495.6335	539.4091	570.4317	674.7474	746.7882	782.2744	818.6973	885.9418	942.005	996.3128	1036.2726	1089.8482	1103.297	1142.6658	1163.8389	1221.0923	1257.9894	1301.0636	1332.3458	1347.0247	1357.6594	1412.0027	1430.0306	1465.3753	1472.039	1500.8499	1532.2838	1628.8152	1798.0108	1836.1856	2855.117	3009.0833	3032.6694	3044.225	3075.0628	3087.3164	3104.8359	3573.2711	3641.3759	3686.4248
NC(=O)NCCCC=O	NC(=O)NCCCC=O	
InChI=1S/C5H10N2O2/c6-5(9)7-3-1-2-4-8/h4H,1-3H2,(H3,6,7,9)	InChI=1S/C5H10N2O2/c6-5(9)7-3-1-2-4-8/h4H,1-3H2,(H3,6,7,9)
