23
gdb 115504	3.76937	0.85972	0.82349	0.7909	82.39	-0.2534	0.0858	0.3392	1551.0693	0.205556	-425.439241	-425.429243	-425.428299	-425.474722	36.218	
C	-0.3859252897	 1.5776741554	 0.1923140405	-0.386508
C	-0.1291555564	 0.0689996145	 0.1090643226	-0.200757
C	-1.3956135133	-0.7573988649	-0.124158592	 0.020445
C	-2.0867307273	-0.5021894529	-1.479649799	-0.07976
O	-2.6505303351	-1.7485215463	-1.910449216	-0.269286
C	-2.4021323311	-2.7506464929	-0.9454566912	 0.219863
C	-1.1749025148	-2.2803919969	-0.174548343	-0.271454
O	-3.4615720385	-2.8837659661	-0.0288905837	-0.248409
C	-4.6755094653	-3.2977929616	-0.6251190727	-0.240671
H	 0.5405717624	 2.1263409107	 0.3873412167	 0.114025
H	-0.8090683635	 1.9666808603	-0.7400870153	 0.119888
H	-1.0892914614	 1.8140603513	 0.9984733494	 0.116739
H	 0.5872208626	-0.1399672156	-0.6973398729	 0.094205
H	 0.3487468946	-0.2681449722	 1.0373816856	 0.098045
H	-2.1125849049	-0.5472626946	 0.6778606565	 0.088034
H	-2.8783260501	 0.2520813392	-1.4176317128	 0.103999
H	-1.3644021403	-0.1743777444	-2.2408385455	 0.09425
H	-2.2740615044	-3.691998736	-1.5000964704	 0.066095
H	-0.270640072	-2.5218995938	-0.7444252149	 0.100219
H	-1.1076531127	-2.7469585086	 0.8093805602	 0.113605
H	-5.4148509352	-3.3801140101	 0.1747780579	 0.122004
H	-5.0241880925	-2.5753071439	-1.3722702853	 0.123774
H	-4.5675236211	-4.2794019008	-1.1126687548	 0.101654
68.1845	81.56	105.0154	139.5349	188.4237	197.2117	230.4392	292.4568	342.2701	405.4899	451.0351	542.3403	606.1651	770.9001	787.0109	857.255	869.5196	933.3131	952.5592	957.3466	980.1541	1013.8357	1042.7553	1062.6587	1105.0192	1130.5285	1151.4043	1160.6026	1182.7549	1198.1535	1223.502	1248.8474	1284.7496	1299.8233	1335.9286	1341.3743	1370.5395	1379.5629	1396.1782	1409.1304	1413.8829	1476.3871	1479.9052	1484.2282	1486.6869	1499.915	1506.3216	1515.6292	1528.7946	2984.4673	2998.757	3003.7289	3011.5786	3031.0911	3034.4552	3048.7634	3053.2211	3061.0729	3065.76	3097.8735	3103.6356	3121.0488	3125.993
CCC1COC(C1)OC	CC[C@H]1CO[C@@H](C1)OC	
InChI=1S/C7H14O2/c1-3-6-4-7(8-2)9-5-6/h6-7H,3-5H2,1-2H3	InChI=1S/C7H14O2/c1-3-6-4-7(8-2)9-5-6/h6-7H,3-5H2,1-2H3/t6-,7+/m1/s1
