20
gdb 30910	1.95552	1.73631	0.99044	3.1189	83.23	-0.1791	0.0367	0.2158	1236.4357	0.171918	-399.373263	-399.363465	-399.36252	-399.408124	35.271	
C	 0.0568306763	 1.5830582155	 0.1789757931	-0.368589
C	 0.0142381361	 0.0500823669	 0.0203943322	-0.310672
C	 0.6510831198	-0.4729964984	-1.2246983062	 0.223461
C	 0.1055476957	-0.8270464391	-2.4401154092	 0.194091
N	-1.2507300555	-0.8180820405	-2.808924793	-0.601035
N	 1.0668284817	-1.2890795673	-3.301884698	-0.326394
C	 2.1936556634	-1.2181422729	-2.6245206138	-0.016018
N	 2.0149021048	-0.7233706798	-1.3722254939	-0.040846
C	 3.0457065001	-0.5406064721	-0.3749988575	-0.343816
H	 1.0858152394	 1.9538718598	 0.2297048969	 0.114115
H	-0.4261592795	 2.0771243391	-0.6698969967	 0.117028
H	-0.4573616435	 1.8966293487	 1.0935841201	 0.111907
H	 0.4682820432	-0.4143173422	 0.9058950464	 0.099505
H	-1.0309762945	-0.2803704593	 0.0136611863	 0.121802
H	-1.6905482228	 0.0847671353	-2.679381644	 0.238004
H	-1.3336097185	-1.0859094477	-3.782468257	 0.244257
H	 3.1692854405	-1.50772707	-2.9871873677	 0.118622
H	 3.135411484	 0.5099698856	-0.0798371897	 0.140232
H	 2.8414746646	-1.1365105122	 0.5207705746	 0.141661
H	 4.0004658545	-0.8653463294	-0.7933840131	 0.142686
67.1807	99.6725	136.4296	169.9285	174.2892	191.1869	280.729	282.1073	321.6603	403.6034	499.3525	585.0653	648.1448	692.0324	719.6921	753.3773	779.4074	798.9049	832.6118	964.3215	1003.021	1075.0076	1079.0467	1085.7667	1150.4099	1166.1166	1246.4871	1264.7015	1299.0544	1349.3711	1360.3316	1405.0996	1418.5488	1454.3795	1456.7905	1476.0534	1481.2331	1495.6193	1502.9174	1520.344	1539.4753	1641.3603	1641.8675	3015.3691	3031.2355	3033.6359	3059.9977	3089.016	3101.3782	3106.457	3132.3673	3240.8112	3525.7669	3614.4879
CCC1=C(N)N=CN1C	CCc1c(N)ncn1C	
InChI=1S/C6H11N3/c1-3-5-6(7)8-4-9(5)2/h4H,3,7H2,1-2H3	InChI=1S/C6H11N3/c1-3-5-6(7)8-4-9(5)2/h4H,3,7H2,1-2H3
