20
gdb 101207	3.37462	0.95905	0.83037	1.9206	76.68	-0.2448	-0.0309	0.2138	1404.4791	0.168984	-440.270335	-440.260888	-440.259944	-440.304884	34.924	
C	-0.0014807816	 1.5265314164	 0.1295473972	-0.390607
C	-0.0323479151	-0.0022936209	 0.0754383487	 0.01721
C	-1.4781919086	-0.5259399687	 0.0551060173	-0.050306
O	-2.1678039846	-0.0967127882	-1.1008233047	-0.422637
N	 0.6202062465	-0.4887999294	-1.1407422711	-0.101457
C	 0.930285977	-1.9409293966	-1.2279736869	-0.297883
C	 2.3000408538	-1.5548356171	-1.8014308662	 0.397202
O	 3.1922181452	-2.1383100551	-2.3357083667	-0.277031
C	 2.0254367614	-0.094568637	-1.4173252782	-0.295184
H	 1.0195411796	 1.9154202332	 0.0851657166	 0.114465
H	-0.5746611755	 1.9457628618	-0.7007447747	 0.135762
H	-0.449362425	 1.8749318375	 1.0647933618	 0.120057
H	 0.4694393527	-0.4080632911	 0.9766583793	 0.053145
H	-1.471133426	-1.6263112367	 0.131031712	 0.084391
H	-2.0239208628	-0.1449222189	 0.9247378393	 0.105459
H	-1.5310298805	-0.1861940157	-1.823343236	 0.283414
H	 1.0308805585	-2.4411588782	-0.2505370643	 0.123676
H	 0.2664592545	-2.5348852148	-1.8636848441	 0.138293
H	 2.162769166	 0.6668653654	-2.1910514027	 0.138003
H	 2.6037927043	 0.1931429342	-0.5247448666	 0.12403
75.3752	90.3422	122.934	186.3851	207.9717	247.8089	317.5123	345.0354	416.6648	437.7177	483.2421	514.3244	583.541	695.8414	747.2365	773.6058	861.7885	936.1283	939.5686	996.7448	1035.9787	1054.3717	1068.2727	1091.0775	1093.977	1125.6538	1153.5717	1166.5255	1203.8454	1243.0443	1261.154	1298.2527	1331.4926	1365.4951	1384.9505	1415.0752	1440.4818	1456.4483	1482.9568	1492.7648	1498.5435	1514.175	1924.1756	2899.2172	2963.8046	2976.3858	2986.8391	3047.9621	3071.0196	3078.2355	3080.4852	3114.4129	3132.2292	3742.893
CC(CO)N1CC(=O)C1	C[C@@H](CO)N1CC(=O)C1	
InChI=1S/C6H11NO2/c1-5(4-8)7-2-6(9)3-7/h5,8H,2-4H2,1H3	InChI=1S/C6H11NO2/c1-5(4-8)7-2-6(9)3-7/h5,8H,2-4H2,1H3/t5-/m0/s1
