23
gdb 100458	3.25674	0.60476	0.57538	1.4139	92.25	-0.242	0.0576	0.2996	2078.4118	0.202668	-388.272949	-388.261158	-388.260214	-388.311596	41.429	
C	-0.1260269196	 1.5289713572	 0.0292744434	-0.372113
C	 0.0527230825	-0.0014454923	-0.0203789966	-0.123661
C	 0.78092156	-0.4379277942	-1.3072544786	-0.372212
C	 0.7468395488	-0.4921439317	 1.1716863372	 0.11037
C	 1.3246606753	-0.8865293991	 2.1534309083	 0.005374
C	 2.0414689907	-1.3807428009	 3.3283860373	-0.136811
C	 1.9575665915	-2.9146165035	 3.4499425706	-0.381039
C	 3.5011699619	-0.8978842219	 3.2970869275	-0.066667
O	 4.1094101977	-1.2813629529	 4.520584954	-0.420528
H	 0.8470828181	 2.0300329063	 0.0336714529	 0.120634
H	-0.6865302718	 1.8756051052	-0.8450552776	 0.109733
H	-0.6665324045	 1.8325385592	 0.9296226871	 0.122519
H	-0.9492300823	-0.4535077286	-0.0352407252	 0.102526
H	 1.7855803836	-0.0051832892	-1.3462802182	 0.120491
H	 0.8793936587	-1.5256369449	-1.353710571	 0.121918
H	 0.2280049973	-0.1016234682	-2.1904060288	 0.109802
H	 1.5902977566	-0.9416209973	 4.229111763	 0.109408
H	 0.9181007471	-3.2388387659	 3.5442101671	 0.117765
H	 2.3818213251	-3.3924987693	 2.561006608	 0.115463
H	 2.5168500991	-3.2474485066	 4.3267032098	 0.132453
H	 4.0115171924	-1.3486136667	 2.4316362103	 0.09178
H	 3.5182649535	 0.1936676279	 3.1643287011	 0.094217
H	 5.0384676982	-1.0375789727	 4.4852773083	 0.288579
15.7575	69.7706	74.4691	128.6758	190.2226	205.5393	224.1618	228.5006	233.0415	272.2099	306.6519	321.9305	410.0226	458.685	487.1386	557.5002	563.6323	714.4354	840.446	894.92	928.8296	931.4274	964.8065	997.773	1072.8974	1077.7621	1110.9172	1120.9946	1140.29	1171.4036	1210.3841	1236.8785	1261.8753	1325.8855	1327.629	1347.3801	1352.5833	1393.7114	1397.696	1416.1615	1450.561	1485.6766	1488.8315	1492.7032	1497.9558	1500.2184	1510.5612	1521.0556	2359.1764	2977.9402	3001.687	3005.8766	3022.9695	3034.6375	3038.0878	3045.0932	3104.7827	3110.0801	3115.536	3117.4896	3119.3756	3137.9913	3837.8217
CC(C)C#CC(C)CO	CC(C)C#C[C@@H](C)CO	
InChI=1S/C8H14O/c1-7(2)4-5-8(3)6-9/h7-9H,6H2,1-3H3	InChI=1S/C8H14O/c1-7(2)4-5-8(3)6-9/h7-9H,6H2,1-3H3/t8-/m1/s1
