20
gdb 29779	2.42662	1.50941	0.94695	1.8948	85.38	-0.1629	0.054	0.217	1257.5293	0.171174	-399.355807	-399.345457	-399.344513	-399.390914	37.473	
C	-0.0108874599	 1.4364066107	 0.0301329887	-0.333948
N	 0.1017366842	-0.0022572893	 0.0082745478	-0.048992
C	 0.0568145273	-0.7699540081	-1.1449190588	-0.206371
C	 0.0186202347	-2.0946566044	-0.7770649645	 0.220184
N	 0.036374244	-3.249465416	-1.5816231937	-0.61627
C	 0.040124191	-2.1328613368	 0.6485030685	 0.070504
N	-0.0250113393	-3.3550698193	 1.3761366076	-0.626013
C	 0.0921225005	-0.8282407405	 1.1100899588	 0.25452
C	 0.1164649181	-0.3130175384	 2.5100966124	-0.510168
H	 0.6413745095	 1.8657657855	 0.7962931795	 0.13185
H	 0.3009256345	 1.8334979318	-0.9386488423	 0.135565
H	-1.0380298404	 1.7735821277	 0.2259490809	 0.125848
H	 0.055561733	-0.3024029512	-2.1163997459	 0.096449
H	-0.4601818029	-3.1242171596	-2.4550090677	 0.231922
H	-0.3791780379	-4.0218152945	-1.070399297	 0.241554
H	 0.8879345391	-3.7901652572	 1.4767926784	 0.2372
H	-0.4031792834	-3.2221693876	 2.3065519253	 0.230505
H	 0.955665135	 0.3708880147	 2.6895065386	 0.125741
H	-0.8005675181	 0.2213436169	 2.7930373347	 0.123303
H	 0.2328962307	-1.1494170346	 3.2054253987	 0.116616
71.4559	103.3533	131.9433	155.3398	164.6496	252.6964	278.087	285.6575	301.5194	309.1822	333.9166	555.3421	575.6225	599.0121	608.265	634.0802	695.726	731.8088	807.7038	838.974	877.5834	1030.0331	1056.2695	1072.436	1116.7466	1146.3584	1160.8705	1220.0492	1231.1053	1276.9628	1409.5115	1417.2322	1424.3493	1468.2974	1481.1413	1489.779	1494.9194	1497.5011	1520.5063	1587.9021	1624.1637	1642.9788	1665.2328	3004.6039	3007.7762	3049.019	3079.0737	3102.1446	3123.044	3255.4528	3482.3726	3504.4797	3580.9366	3601.4309
CN1C=C(N)C(N)=C1C	Cn1cc(N)c(N)c1C	
InChI=1S/C6H11N3/c1-4-6(8)5(7)3-9(4)2/h3H,7-8H2,1-2H3	InChI=1S/C6H11N3/c1-4-6(8)5(7)3-9(4)2/h3H,7-8H2,1-2H3
