18
gdb 68261	2.38338	1.50701	1.46243	3.1931	76.81	-0.2855	0.0184	0.3038	1029.2094	0.147	-401.916651	-401.908177	-401.907233	-401.949207	32.825	
C	-0.025290643	 1.4738416992	 0.0509060823	-0.520903
C	 0.0454233481	-0.0271410384	 0.0164047249	 0.293678
C	 0.698581985	-0.9503956013	-1.0608467402	-0.288865
C	 0.0828639365	-1.9274175054	-0.0216126077	-0.115485
C	 0.6603202053	-0.9971144814	 1.0830033174	-0.284762
C	-1.1808360654	-1.0000650001	-0.0160281476	 0.3123
O	-1.9963116249	-0.9390698728	 1.1276522937	-0.480769
C	-2.0219883114	-1.0039869135	-1.2213055058	 0.209374
N	-2.7267706964	-1.0285326873	-2.1378541906	-0.348887
H	 0.9785996406	 1.9075557408	 0.1027540666	 0.125489
H	-0.517587521	 1.8641944656	-0.8459793017	 0.13511
H	-0.5892480332	 1.8146789456	 0.9248509895	 0.13726
H	 0.2678103978	-0.937220069	-2.0644090879	 0.124722
H	 1.7892899607	-0.9290039595	-1.0935843025	 0.10334
H	 0.0802045626	-3.0168303839	-0.0515110866	 0.086348
H	 1.7497016214	-0.9770766299	 1.158186496	 0.096911
H	 0.1809302645	-1.024740993	 2.0596673609	 0.119254
H	-2.6482014972	-1.6472360757	 1.0842082093	 0.295883
118.4518	167.6044	192.4858	211.3387	280.6132	300.2651	350.2257	387.637	510.9492	520.7836	530.766	603.1673	658.0655	683.815	801.6776	805.9492	907.2029	914.676	948.6971	995.4769	1020.0706	1030.7484	1076.8567	1096.7041	1109.0498	1169.7718	1187.1281	1190.965	1221.2536	1231.9181	1237.1711	1301.5625	1369.0372	1412.473	1486.1921	1491.0082	1496.5734	1538.9344	2344.2676	3034.5171	3070.0413	3078.611	3104.1757	3108.6331	3120.2786	3135.8727	3162.1624	3809.8211
CC12CC(C1)C2(O)C#N	C[C@@]12C[C@@H](C1)[C@]2(O)C#N	
InChI=1S/C7H9NO/c1-6-2-5(3-6)7(6,9)4-8/h5,9H,2-3H2,1H3	InChI=1S/C7H9NO/c1-6-2-5(3-6)7(6,9)4-8/h5,9H,2-3H2,1H3/t5-,6+,7-/m1/s1
