23
gdb 82310	2.40098	1.70316	1.2612	0.2574	88.05	-0.2547	0.088	0.3427	1113.1429	0.207634	-351.148932	-351.140689	-351.139745	-351.181126	34.146	
C	-0.890375901	 0.9851226092	-0.0390816111	-0.411885
C	 0.0148475063	-0.242560384	-0.1526954861	-0.043857
C	 1.0810947479	-0.1380169899	-1.2410512883	-0.029509
C	 2.3290470149	 0.6548816311	-0.9291451417	-0.293634
C	 2.329655961	-0.8457711138	-0.7657571256	-0.037975
C	 2.050547844	-1.3973768724	 0.6249971832	-0.291894
C	 0.8206346851	-0.6202973508	 1.1060480582	 0.356164
C	 0.9439235601	 0.3073840948	 2.2942137215	-0.301209
C	 0.1547709159	-0.9741535024	 2.4052713039	-0.340699
H	-0.3071596058	 1.8961546793	 0.1267466684	 0.118874
H	-1.4635615444	 1.1224184062	-0.9617586296	 0.110178
H	-1.6111185506	 0.8867549343	 0.7805232076	 0.110543
H	-0.6193690474	-1.1058668176	-0.4055571755	 0.070198
H	 0.7591360707	-0.2008063925	-2.2753781148	 0.074223
H	 2.8783845938	 1.0602643686	-1.7719865751	 0.103352
H	 2.3522638956	 1.2801962914	-0.0428325558	 0.115352
H	 2.9307215003	-1.4387184117	-1.446385742	 0.07611
H	 1.8193368372	-2.4684699411	 0.5484342732	 0.095309
H	 2.8974334753	-1.2992333568	 1.3141524748	 0.092605
H	 1.9055567941	 0.3613917558	 2.7948182321	 0.105055
H	 0.3940157793	 1.2417391049	 2.29432863	 0.10971
H	-0.92683898	-0.8979569242	 2.4654167352	 0.106621
H	 0.5720084277	-1.7893850785	 2.9881045676	 0.106366
102.0601	201.4033	235.96	264.7285	283.2671	341.6808	372.8336	409.1275	490.8112	558.3171	608.6176	726.4889	766.0001	785.7969	828.1744	858.782	871.3677	906.9039	913.65	930.0371	975.216	981.3064	1014.1973	1041.0031	1058.7419	1067.0231	1075.4426	1082.7518	1093.4123	1108.2141	1125.6772	1147.9309	1190.1147	1199.9702	1203.9366	1261.8587	1301.8033	1312.6731	1341.3839	1362.8026	1374.836	1396.6132	1412.3705	1463.604	1482.8424	1495.7573	1496.7849	1502.7231	1507.8307	2983.1397	3012.229	3029.9389	3053.2694	3092.3751	3105.6717	3117.8699	3129.0509	3130.4143	3156.8749	3168.3884	3196.3029	3214.0858	3216.3777
CC1C2CC2CC11CC1	C[C@H]1[C@H]2C[C@H]2CC21CC2	
InChI=1S/C9H14/c1-6-8-4-7(8)5-9(6)2-3-9/h6-8H,2-5H2,1H3	InChI=1S/C9H14/c1-6-8-4-7(8)5-9(6)2-3-9/h6-8H,2-5H2,1H3/t6-,7-,8+/m0/s1
