18
gdb 85450	2.6217	1.47315	1.11393	4.8105	71.76	-0.2554	0.0134	0.2688	1116.3951	0.148082	-439.109304	-439.101161	-439.100217	-439.142178	31.085	
C	 0.1348240739	 1.6877390173	-0.059994256	-0.393037
C	 0.0468437004	 0.1732704889	 0.0961933317	 0.04156
O	 0.6514291927	-0.4592779407	-1.0507743567	-0.229159
C	 1.8669946316	-1.0062109218	-0.7523439347	 0.431221
O	 2.5460883733	-1.5343589731	-1.5813159774	-0.331555
C	 2.1535987089	-0.8110161629	 0.7325376696	-0.437545
C	 0.8106297481	-0.3985604903	 1.2939833492	 0.308945
C	 0.5430494058	 0.0181415402	 2.6863132662	-0.298434
N	 0.1673885907	-1.3338737139	 2.2273181772	-0.347864
H	 1.1760404591	 2.0240966099	-0.0394022313	 0.127364
H	-0.3050032453	 1.9920329812	-1.0133161802	 0.138599
H	-0.4053775756	 2.1901087841	 0.7476309411	 0.122547
H	-1.0026544812	-0.142637171	 0.1105485617	 0.095558
H	 2.535356522	-1.7304516888	 1.1772280143	 0.156772
H	 2.9190387912	-0.0341781456	 0.839523054	 0.140537
H	 1.3532972754	 0.0485367118	 3.4098318328	 0.126867
H	-0.244655135	 0.7464057835	 2.8654765079	 0.115936
H	-0.835407016	-1.3759461287	 2.0572161105	 0.231687
80.7943	110.1836	220.3499	244.2524	288.1535	328.4207	381.9222	489.8736	515.5582	525.1322	568.0197	684.3515	768.9099	825.7262	833.3054	914.2363	925.7201	958.0478	974.0808	1006.6363	1046.6089	1077.5304	1106.0804	1126.9806	1144.8665	1163.0809	1183.6496	1250.0657	1268.6606	1317.6055	1332.8393	1366.8732	1409.6033	1421.666	1453.4413	1487.0869	1493.3828	1517.3648	1889.3135	3041.2916	3044.1005	3056.4735	3103.9139	3118.9836	3125.8377	3136.5746	3187.3282	3485.5376
CC1OC(=O)CC11CN1	C[C@H]1OC(=O)C[C@]21CN2	
InChI=1S/C6H9NO2/c1-4-6(3-7-6)2-5(8)9-4/h4,7H,2-3H2,1H3	InChI=1S/C6H9NO2/c1-4-6(3-7-6)2-5(8)9-4/h4,7H,2-3H2,1H3/t4-,6-/m1/s1
