16
gdb 16542	3.16305	2.25294	1.55151	4.3079	67.24	-0.2255	0.0204	0.246	838.7366	0.131012	-379.878023	-379.87063	-379.869686	-379.909992	26.776	
C	-0.0821653179	 1.4037613272	 0.2740049904	-0.350407
N	-0.0721814667	-0.0369388159	 0.2566291569	-0.069434
C	-1.1575463117	-0.9608339345	-0.0555715884	-0.055433
C	-1.533279041	-1.0816013188	-1.5498655576	-0.095779
O	-0.4592230114	-2.0183458018	-1.7907965518	-0.281153
C	-0.0699437798	-2.0182071418	-0.399425787	 0.018223
C	 0.9530477206	-0.9221894218	-0.0937265766	 0.374711
N	 2.213208166	-0.8791738281	-0.1806865048	-0.562233
H	 0.9156924307	 1.7607934379	 0.5445752219	 0.140062
H	-0.3490449047	 1.8405458582	-0.6993996735	 0.126437
H	-0.7873689692	 1.7734827071	 1.0257652952	 0.13406
H	-1.9380591159	-1.0529914662	 0.7006509227	 0.092825
H	-2.5100563674	-1.5474527317	-1.729464858	 0.109711
H	-1.4454004543	-0.1708985152	-2.1536651522	 0.10757
H	 0.0441652582	-3.0153481843	 0.0245941788	 0.102155
H	 2.5834564344	 0.0525246598	 0.0176196242	 0.208685
97.6809	114.6357	143.539	244.7181	262.4508	407.5451	466.6682	662.0315	666.7826	762.5458	823.0615	835.3064	860.6775	898.7373	970.6314	986.0545	1015.7935	1035.8587	1069.6492	1142.9884	1155.9808	1179.7662	1182.8264	1229.9457	1280.9051	1288.7332	1299.0914	1347.1413	1391.1905	1452.3305	1481.1714	1509.3776	1510.5856	1785.0912	2996.1642	3018.7332	3067.5632	3069.699	3102.6636	3111.2821	3128.0703	3451.763
CN1C2COC2C1=N	CN1[C@H]2CO[C@H]2[C]1[NH]	
InChI=1S/C5H8N2O/c1-7-3-2-8-4(3)5(7)6/h3-4,6H,2H2,1H3	InChI=1S/C5H8N2O/c1-7-3-2-8-4(3)5(7)6/h3-4,6H,2H2,1H3/t3-,4+/m0/s1
