19
gdb 93290	2.10389	1.86072	1.25776	4.3459	74.98	-0.2627	0.0142	0.2769	1065.901	0.160136	-423.069162	-423.060896	-423.059952	-423.101987	31.623	
C	 0.0085702295	 1.6279646906	-0.0426409378	-0.394861
C	-0.0150497844	 0.0957149177	 0.0235011763	-0.121802
C	 0.8337191522	-0.5392996078	-1.101103996	-0.092901
O	 2.146095505	-0.7550193112	-0.5507623019	-0.232563
C	 2.0904402913	-0.79768396	 0.8087176796	 0.417992
O	 3.0393882651	-1.0751007457	 1.4876853563	-0.364623
C	 0.6976035789	-0.4625159949	 1.2472395442	 0.192666
C	 0.4840959085	-0.0353154647	 2.6758849445	-0.309879
C	 0.0692502862	-1.4114867191	 2.2563784136	-0.307513
H	 1.036533361	 2.0053873034	-0.0247219021	 0.132899
H	-0.4661533653	 1.9834427306	-0.9629360424	 0.117134
H	-0.5246439939	 2.0707184614	 0.8034299002	 0.120939
H	-1.0484807607	-0.2574466698	-0.0412101222	 0.084209
H	 0.4310987006	-1.5057900129	-1.4250511576	 0.115494
H	 0.9443360614	 0.1081874809	-1.973992041	 0.121301
H	 1.3776042922	 0.0604422283	 3.282744144	 0.143732
H	-0.2901599786	 0.6995064727	 2.8667657302	 0.118717
H	-0.9888197616	-1.6210465687	 2.140240399	 0.119186
H	 0.6746073026	-2.2483395109	 2.5856586534	 0.139872
74.4419	173.2072	207.4285	238.251	246.8248	253.1678	334.759	459.1516	498.9299	571.7601	705.5691	717.0978	754.7464	787.5475	844.0577	891.8182	916.9722	959.4141	964.2903	994.4024	1018.2654	1061.2454	1064.8778	1093.4574	1105.6415	1133.5309	1161.2052	1201.1025	1241.848	1261.6276	1302.7746	1349.367	1367.1482	1401.4075	1420.5921	1455.7703	1487.5633	1498.5276	1498.7986	1519.5976	1868.6753	3035.3905	3037.8698	3061.1777	3104.7127	3106.1848	3113.1699	3133.8442	3137.3813	3220.4916	3234.5708
CC1COC(=O)C11CC1	C[C@H]1COC(=O)C21CC2	
InChI=1S/C7H10O2/c1-5-4-9-6(8)7(5)2-3-7/h5H,2-4H2,1H3	InChI=1S/C7H10O2/c1-5-4-9-6(8)7(5)2-3-7/h5H,2-4H2,1H3/t5-/m0/s1
