14
gdb 8096	2.95203	2.16105	1.56342	4.6562	58.36	-0.2735	0.0016	0.2752	828.1158	0.105585	-419.671037	-419.663669	-419.662725	-419.702448	27.343	
C	-0.0914745065	 1.4933451876	 0.0508319974	-0.48868
C	 0.0640743485	 0.0110279721	 0.0540649674	 0.427851
O	-1.1570227033	-0.7802011109	-0.0280453221	-0.278478
C	-0.680295132	-1.6517680334	 0.938067577	 0.472367
O	-1.2633671954	-2.5485101747	 1.4527420409	-0.328094
C	 0.667130157	-0.990014767	 1.0449506167	-0.41016
C	 1.2100731388	-0.8195788226	-0.3860806132	 0.05158
O	 1.0544979738	-1.7688218248	-1.3809087134	-0.403219
H	 0.878894807	 1.9781573946	 0.1878354247	 0.133088
H	-0.5090742606	 1.827631256	-0.9045219382	 0.149901
H	-0.7631112413	 1.8149939596	 0.8517102017	 0.143635
H	 1.269279499	-0.8771610813	 1.9354310059	 0.125214
H	 2.1628740477	-0.2840055859	-0.3914113977	 0.106506
H	 1.6032010274	-2.5315537192	-1.167773877	 0.298489
127.2703	203.1303	211.0065	259.1803	282.7376	312.4591	451.2468	486.5523	580.7597	674.5666	703.3522	741.3972	826.2928	916.6789	923.9922	963.0331	967.3804	1021.1885	1078.0358	1132.6239	1157.2644	1197.8481	1260.8309	1302.82	1335.9418	1417.5456	1474.7458	1488.0685	1514.8148	1945.8536	3042.7003	3079.173	3111.8759	3125.5888	3221.0458	3807.4829
CC12OC(=O)C1C2O	C[C@]12OC(=O)[C@H]1[C@H]2O	
InChI=1S/C5H6O3/c1-5-2(3(5)6)4(7)8-5/h2-3,6H,1H3	InChI=1S/C5H6O3/c1-5-2(3(5)6)4(7)8-5/h2-3,6H,1H3/t2-,3-,5+/m1/s1
