21
gdb 118711	3.30151	1.13692	0.99436	0.9719	79.69	-0.2475	0.0767	0.3242	1287.1956	0.181638	-424.151824	-424.14267	-424.141726	-424.186349	34.341	
C	 2.2478184065	 1.2470024841	-1.4355427583	-0.2208
O	 2.022687728	-0.1399845788	-1.4825792194	-0.238157
C	 0.7084157101	-0.4950438446	-1.1034588417	-0.136743
C	 0.6187341517	-2.0147537648	-1.043235253	 0.485917
O	 1.0793067509	-2.3517349156	 0.2478740121	-0.500895
C	-0.6669967165	-2.7289537322	-1.6117918839	-0.113479
C	-0.1401651413	-2.3853641742	-3.0375598777	-0.229516
C	 1.1103238903	-2.8740770766	-2.2538116972	-0.098924
C	 0.190850008	-4.0241144635	-1.7224592171	-0.260955
H	 1.5733891388	 1.7966657484	-2.1127812496	 0.098444
H	 2.1112768828	 1.6496170923	-0.4192257156	 0.104993
H	 3.2799434484	 1.4229335262	-1.7490684826	 0.124608
H	 0.4754056081	-0.1060852509	-0.1003965842	 0.098174
H	-0.0222561764	-0.0604449893	-1.8004165261	 0.084606
H	 1.3918504123	-3.2600321482	 0.2512233148	 0.281729
H	-1.6909630137	-2.6472445483	-1.2434793414	 0.071338
H	-0.4811320236	-3.0539192222	-3.8308347865	 0.09341
H	-0.1606799819	-1.3480624797	-3.3689153465	 0.100606
H	 2.1330796495	-2.9541659434	-2.6225002664	 0.080527
H	 0.4608636183	-4.5390307315	-0.7972923494	 0.0791
H	-0.1348018404	-4.7520364071	-2.4692799304	 0.096016
45.3162	88.9748	127.8849	168.9538	232.2475	286.7423	325.6172	392.7866	444.3059	453.5005	561.63	607.5663	729.5722	796.5292	802.5439	892.6225	896.9164	918.8266	973.3472	994.0703	1004.1579	1005.5422	1053.4615	1056.3186	1086.7736	1110.7193	1130.7898	1160.095	1173.5848	1176.0075	1188.5304	1196.6391	1225.5847	1236.2701	1245.4593	1248.7629	1295.2998	1365.7275	1429.5521	1481.6223	1485.6591	1499.2344	1512.5324	1528.5563	1553.7492	2962.9613	2987.0997	3007.2576	3016.2003	3057.8506	3076.3176	3101.4577	3110.5993	3111.9348	3117.0437	3144.6522	3845.9955
COCC1(O)C2CC1C2	COC[C@@]1(O)[C@H]2C[C@@H]1C2	
InChI=1S/C7H12O2/c1-9-4-7(8)5-2-6(7)3-5/h5-6,8H,2-4H2,1H3	InChI=1S/C7H12O2/c1-9-4-7(8)5-2-6(7)3-5/h5-6,8H,2-4H2,1H3/t5-,6+,7-
