21
gdb 57258	2.1937	1.41401	1.26298	2.8553	82.32	-0.2682	0.0344	0.3027	1154.8398	0.181438	-383.272243	-383.262199	-383.261255	-383.306569	38.303	
C	 0.2776080746	 1.4437875792	 0.2426097982	-0.405182
C	-0.0018219576	-0.0546300233	 0.0135423679	 0.011179
N	 0.4805310681	-0.7850512605	 1.1949442527	-0.523337
C	-1.4688715724	-0.2472233274	-0.1428740234	 0.259551
N	-2.6090845112	-0.4254123805	-0.2229099166	-0.35517
C	 0.7066996823	-0.5540776373	-1.2682282381	 0.384804
C	 0.1578560617	 0.0067982432	-2.5696586355	-0.484719
C	 2.1936755219	-0.7942529705	-1.1884365801	-0.303244
C	 1.2478456866	-1.9639993202	-1.3174232811	-0.316825
H	 1.3515033837	 1.5842954476	 0.3845487032	 0.138201
H	-0.0541740233	 2.0456614135	-0.6043639639	 0.139225
H	-0.2484232099	 1.8014649115	 1.132968032	 0.125419
H	 0.1478031576	-0.3229080688	 2.0359023927	 0.239884
H	 0.0910968185	-1.7223716567	 1.2122420757	 0.245478
H	 0.2564532086	 1.0962290552	-2.6234252023	 0.119274
H	 0.7072074428	-0.4101348137	-3.4182307512	 0.118251
H	-0.899806269	-0.2430011895	-2.7012328091	 0.144135
H	 2.7953698791	-0.5095429786	-2.0448826231	 0.10899
H	 2.6721705339	-0.6672474792	-0.2248675812	 0.129577
H	 1.1491070176	-2.6101338075	-0.4538865179	 0.110942
H	 1.1827840965	-2.4843853766	-2.2667757889	 0.113569
54.4787	143.3327	189.9895	207.9177	223.1421	269.3216	280.4286	311.5939	348.4515	362.5571	401.8036	428.7167	465.0672	538.8114	600.4735	654.3979	790.3637	801.7377	882.7424	885.7029	904.8518	935.2646	952.8277	993.4136	1029.7948	1044.9622	1073.0888	1093.8808	1128.5987	1165.5561	1188.7771	1193.7694	1284.0082	1312.0107	1352.2958	1402.5343	1421.0569	1456.7325	1485.5737	1486.9635	1497.1901	1501.979	1507.8865	1662.6898	2337.1941	3036.1688	3051.5169	3099.3971	3111.8029	3124.5112	3137.652	3142.1969	3149.5582	3220.5476	3233.7863	3502.3059	3578.6885
CC(N)(C#N)C1(C)CC1	C[C@@](N)(C#N)C1(C)CC1	
InChI=1S/C7H12N2/c1-6(3-4-6)7(2,9)5-8/h3-4,9H2,1-2H3	InChI=1S/C7H12N2/c1-6(3-4-6)7(2,9)5-8/h3-4,9H2,1-2H3/t7-/m1/s1
