19
gdb 64649	3.24972	1.22609	1.08909	1.8933	80.94	-0.2397	0.0535	0.2931	1172.5394	0.157182	-385.783748	-385.775121	-385.774177	-385.81693	33.667	
C	-0.0826650138	 1.6468045638	 0.1486278743	-0.490902
C	-0.0018595515	 0.1267217464	 0.0509922983	 0.345989
C	-1.4015320864	-0.4801688803	-0.1804427154	-0.418636
C	-1.9826089246	-0.0912037847	-1.460531307	 0.314363
C	-2.4374494307	 0.2334817782	-2.5255125421	-0.46775
C	 1.1578283882	-0.5717748171	-0.7375016899	 0.018563
C	 2.1813695747	-0.147901473	 0.3429238785	-0.240263
C	 0.9082491373	-0.6927607523	 1.0313240598	-0.002268
O	 0.9198919984	-1.8060453928	 0.0530274053	-0.312881
H	 0.8859608114	 2.1349445161	 0.2595854688	 0.118102
H	-0.5636296748	 2.0505217213	-0.747273451	 0.141652
H	-0.7003390361	 1.9343076982	 1.0073487343	 0.120036
H	-1.3225144122	-1.5688106394	-0.129615053	 0.154289
H	-2.0672250159	-0.1612089928	 0.6327877797	 0.120626
H	-2.8535393481	 0.5094175491	-3.4624821561	 0.19401
H	 1.2859771619	-0.6846461696	-1.8144458474	 0.100286
H	 3.0407527693	-0.813659522	 0.4194897193	 0.112118
H	 2.4540589356	 0.9009711962	 0.4539131304	 0.101274
H	 0.7405057172	-0.9495674154	 2.078966713	 0.09139
64.9738	126.5814	174.3827	224.6779	321.763	350.6803	366.2736	385.2403	460.6842	558.3564	610.4738	622.8585	636.5222	694.9782	758.4894	787.7778	863.3915	874.3335	906.8357	924.7244	944.238	978.6948	1024.6153	1035.7318	1103.3157	1119.8398	1129.5675	1169.0216	1171.225	1203.6301	1213.8148	1254.6443	1275.9054	1318.5967	1337.2382	1416.9885	1470.2231	1487.9439	1495.7216	1513.016	2233.1651	3020.6727	3040.3722	3088.9223	3099.5431	3101.8649	3103.6167	3119.6039	3138.5872	3165.4219	3505.3986
CC1(CC#C)C2CC1O2	C[C@@]1(CC#C)[C@H]2C[C@@H]1O2	
InChI=1S/C8H10O/c1-3-4-8(2)6-5-7(8)9-6/h1,6-7H,4-5H2,2H3	InChI=1S/C8H10O/c1-3-4-8(2)6-5-7(8)9-6/h1,6-7H,4-5H2,2H3/t6-,7+,8-
