18
gdb 51287	3.44741	1.2452	0.98467	2.9703	81.88	-0.2088	-0.0033	0.2055	1195.7658	0.149497	-401.97599	-401.968158	-401.967214	-402.008843	30.129	
O	 1.9377139757	 4.1522809247	 0.1642937175	-0.305414
C	 1.062735247	 3.3225515504	 0.0692912724	 0.14697
N	 1.2283593722	 1.969576968	-0.0767944977	-0.402937
C	 2.4217311609	 1.2432795611	-0.1546520465	 0.43339
C	 2.4947673355	-0.0908382797	-0.2830951267	-0.22836
C	 3.9278965975	-0.5724327463	-0.3015723021	-0.257617
C	 4.7416367047	 0.722976008	-0.2903235539	-0.043739
C	 4.5567763097	 1.6898911768	-1.4288342508	-0.274208
C	 3.7700957911	 1.8839298008	-0.1471864755	-0.119654
H	-0.0151542501	 3.5786144055	 0.0941310174	 0.079494
H	 0.3777118338	 1.4267063463	-0.1078316574	 0.251429
H	 1.6443178294	-0.7558192743	-0.3853044505	 0.077482
H	 4.1553679284	-1.1906832109	 0.5781455349	 0.105166
H	 4.1492466416	-1.1946030814	-1.1789740592	 0.106818
H	 5.6874413414	 0.7370735588	 0.2377039868	 0.086948
H	 5.3638601518	 2.3888876307	-1.6204368596	 0.113666
H	 4.0163866533	 1.3654042475	-2.3124449941	 0.110377
H	 3.952872516	 2.7551392539	 0.4634196752	 0.120188
48.9823	152.7426	188.7676	281.3328	315.9909	344.5533	384.1427	545.3088	609.9036	645.5732	706.4023	776.8551	801.5676	807.9717	847.6299	853.6503	905.0452	968.7437	990.633	1008.8555	1018.944	1053.8096	1071.6332	1097.0042	1102.4442	1121.1111	1184.4159	1206.3459	1247.5919	1279.9085	1317.4121	1371.0609	1402.1632	1450.182	1475.5752	1490.0131	1514.4383	1698.3704	1813.1277	2935.5944	3004.5172	3031.4042	3125.5789	3180.5326	3187.6976	3213.8584	3234.2347	3608.1077
O=CNC1=CCC2CC12	O=CNC1=CC[C@H]2C[C@@H]12	
InChI=1S/C7H9NO/c9-4-8-7-2-1-5-3-6(5)7/h2,4-6H,1,3H2,(H,8,9)	InChI=1S/C7H9NO/c9-4-8-7-2-1-5-3-6(5)7/h2,4-6H,1,3H2,(H,8,9)/t5-,6+/m0/s1
