17
gdb 108894	3.11066	1.02482	0.86037	4.7323	75.37	-0.2381	0.0015	0.2396	1336.2619	0.13648	-418.008706	-417.99979	-417.998846	-418.04299	31.834	
O	 0.0039101078	 1.4254160989	 0.0634893994	-0.41112
C	 0.0181158716	 0.0196941384	-0.080305515	-0.177137
C	-1.3809757146	-0.4975379406	-0.0437151993	 0.320714
C	-2.4986532224	 0.2107501537	 0.0839984154	-0.162815
C	-3.7063108027	-0.7028841873	 0.0970619315	-0.147118
N	-3.1463847451	-1.9949469713	-0.3302240633	-0.312922
C	-1.6886466296	-1.9717082205	-0.1325845135	-0.256286
C	-4.3310381848	-0.7507478873	 1.4402174181	 0.249396
N	-4.8219497142	-0.8277224084	 2.4845698834	-0.328123
H	 0.911860749	 1.7403991399	 0.0466556748	 0.294589
H	 0.4902064635	-0.2875073846	-1.0303008024	 0.104453
H	 0.5998681158	-0.4666909528	 0.7228755496	 0.104973
H	-2.5710776915	 1.2824309477	 0.1944575265	 0.133358
H	-4.4855118017	-0.3706457114	-0.6033847695	 0.128617
H	-3.5952490251	-2.7795990772	 0.1233331374	 0.23706
H	-1.1803181906	-2.4574689434	-0.9773856478	 0.113316
H	-1.3545234554	-2.4923726737	 0.7816005247	 0.109043
74.0684	84.9254	126.7376	192.2914	221.2888	230.5253	285.9468	419.6938	436.675	497.7685	556.5642	634.552	691.3627	808.4582	849.6774	903.016	938.4907	974.2508	992.7261	1016.1483	1073.9155	1082.1082	1123.258	1186.2293	1202.027	1218.8552	1254.585	1265.8401	1296.9542	1341.5328	1365.5922	1449.46	1469.9968	1504.7488	1519.2267	1734.3779	2341.518	2943.4118	2953.0484	2958.8019	3001.4599	3010.5299	3255.0578	3577.8224	3842.1238
OCC1=CC(NC1)C#N	OCC1=C[C@@H](NC1)C#N	
InChI=1S/C6H8N2O/c7-2-6-1-5(4-9)3-8-6/h1,6,8-9H,3-4H2	InChI=1S/C6H8N2O/c7-2-6-1-5(4-9)3-8-6/h1,6,8-9H,3-4H2/t6-/m1/s1
