22
gdb 105425	2.58068	0.95321	0.7903	2.8247	87.15	-0.2458	0.0271	0.2729	1573.5637	0.191415	-404.336103	-404.325683	-404.324739	-404.37197	37.779	
C	 0.5687152243	-0.1016974872	 1.4195023687	-0.378185
C	 0.0362603378	-0.116942537	-0.0175111407	-0.240243
C	-1.3735572494	-0.664021034	-0.1196897183	 0.428817
C	-1.8694496	-1.3312524368	-1.3769949735	-0.330897
C	-1.6208333963	-2.1405137264	-0.1190663539	-0.308765
O	-2.3251516838	 0.0686086498	 0.6360484793	-0.248844
C	-2.7644063166	 1.2233290106	 0.0849423634	 0.11506
N	-3.497244736	 2.0060353462	 0.7417342379	-0.211873
C	-3.9563339235	 3.2034627586	 0.0698761111	-0.314052
H	 1.5767072597	 0.3215034949	 1.4574358042	 0.11103
H	-0.0784253875	 0.4955241783	 2.0672673103	 0.141332
H	 0.6103421092	-1.1146780043	 1.8325798732	 0.118506
H	 0.0584435422	 0.8989701019	-0.4336003274	 0.098659
H	 0.687755364	-0.723876306	-0.6568111173	 0.099975
H	-2.9024349581	-1.163504554	-1.6597011528	 0.124897
H	-1.1825403021	-1.4349600216	-2.2099787378	 0.117765
H	-0.7614644612	-2.8009772919	-0.0859515071	 0.116323
H	-2.4890125925	-2.489893424	 0.4268486703	 0.132699
H	-2.4412857249	 1.3814186443	-0.9547575689	 0.081143
H	-3.6390874615	 4.0873594243	 0.6350740719	 0.126389
H	-3.5912973054	 3.3065572743	-0.9656777419	 0.093545
H	-5.0522618783	 3.2178939	 0.0491650093	 0.12672
50.9794	98.7908	108.6621	144.2352	198.88	214.8667	219.7657	306.1042	313.3596	326.1114	384.9983	443.6043	523.7675	574.2436	737.6781	769.8959	797.4932	906.7721	911.2196	957.3833	977.8962	992.901	1007.508	1052.7555	1069.2875	1080.7036	1086.1443	1124.4962	1141.7939	1147.6492	1188.9027	1230.492	1252.3533	1294.4256	1346.5591	1382.6014	1401.1526	1411.5781	1449.8596	1455.2657	1478.4723	1480.8303	1495.3339	1499.0114	1504.4355	1509.1374	1775.5495	2963.2793	3006.9576	3021.8817	3042.3657	3055.962	3062.5264	3075.3732	3109.6928	3123.6997	3135.7049	3141.8898	3220.3531	3235.7907
CCC1(CC1)OC=NC	CCC1(CC1)OC=NC	
InChI=1S/C7H13NO/c1-3-7(4-5-7)9-6-8-2/h6H,3-5H2,1-2H3	InChI=1S/C7H13NO/c1-3-7(4-5-7)9-6-8-2/h6H,3-5H2,1-2H3
