18
gdb 32606	2.78101	1.25666	0.9267	4.4691	75.83	-0.1746	0.054	0.2286	1274.1265	0.148571	-435.324389	-435.315099	-435.314154	-435.358878	34.022	
C	 0.1392764802	 1.5712454782	-0.0681710901	-0.373654
C	-0.0361245442	 0.0597405709	 0.1015675288	-0.155312
N	 0.7012564918	-0.4806462257	 1.2256125804	-0.088315
C	 2.0931359167	-0.6645230649	 1.3118214721	-0.202017
C	 2.3687891112	-1.1213246656	 2.5527160222	 0.303147
N	 3.5669266278	-1.3990912257	 3.2230128799	-0.601801
N	 1.1554843034	-1.2432084734	 3.2248452389	-0.39602
C	 0.0955445093	-0.8175249726	 2.4240751722	 0.461496
O	-1.0862747483	-0.7569346571	 2.7150754437	-0.452525
H	 1.1904950522	 1.8347976838	-0.222657311	 0.116183
H	-0.4295307069	 1.9239764679	-0.9342823989	 0.117252
H	-0.2190464863	 2.1007416486	 0.8190104366	 0.137183
H	-1.0849593676	-0.1825633915	 0.2906752123	 0.146184
H	 0.2716823706	-0.4656344103	-0.8107834699	 0.104848
H	 2.7449946342	-0.487912086	 0.4739174219	 0.120582
H	 4.3686521633	-1.1549245152	 2.6551339435	 0.249728
H	 3.6467605403	-2.3771062864	 3.4876572739	 0.248269
H	 1.0500123722	-1.389850215	 4.2136943636	 0.264772
47.8288	84.0801	189.593	204.2048	210.5994	286.3198	295.7928	327.4442	387.3362	432.4191	558.1272	604.3047	624.8775	644.7854	685.7411	752.1714	792.5013	810.1732	840.2309	965.6622	1018.0913	1086.9921	1099.0638	1142.2086	1177.1234	1203.0255	1258.3748	1297.0903	1376.7059	1401.3552	1410.2987	1426.8647	1460.1889	1483.3512	1491.1229	1503.0411	1638.2386	1711.8693	1819.0926	3030.3315	3038.6655	3098.693	3114.5523	3124.5966	3281.6912	3489.0621	3603.4488	3685.6416
CCN1C=C(N)NC1=O	CCn1cc(N)[nH]c1=O	
InChI=1S/C5H9N3O/c1-2-8-3-4(6)7-5(8)9/h3H,2,6H2,1H3,(H,7,9)	InChI=1S/C5H9N3O/c1-2-8-3-4(6)7-5(8)9/h3H,2,6H2,1H3,(H,7,9)
