19
gdb 69421	4.58809	0.92378	0.83782	4.6053	80.93	-0.2298	0.0258	0.2556	1390.3071	0.158789	-382.037377	-382.028582	-382.027638	-382.071153	32.815	
C	 0.0776970807	 1.5721086862	 0.0346701446	-0.499302
C	 0.0230784977	 0.0736957313	-0.0061220058	 0.338319
C	-0.9753546618	-0.7678129751	 0.7515295443	-0.346475
C	 0.5028468191	-0.9654191017	 0.9970886012	-0.058372
N	 1.1698162781	-1.732929412	-0.0535781792	-0.078512
C	 0.8588732501	-3.1501796377	-0.1519773727	-0.292794
C	 1.5900076023	-3.7754382854	-1.2598109826	 0.276999
N	 2.1473591359	-4.2650180486	-2.1451572824	-0.30584
C	 0.6519481319	-0.8007543824	-1.1009886787	-0.239613
H	 1.0870351621	 1.9399069769	-0.1801581224	 0.12608
H	-0.6024308476	 2.0136966233	-0.703418562	 0.125568
H	-0.2156519676	 1.9512136672	 1.0187541739	 0.122378
H	-1.5010886375	-0.2505542815	 1.5486060829	 0.116721
H	-1.5714410848	-1.5225160258	 0.2437069508	 0.10684
H	 0.9655566383	-0.8489325135	 1.9717776062	 0.099329
H	 1.1637098273	-3.6364013451	 0.7822652134	 0.154941
H	-0.214815809	-3.3719331522	-0.2910161827	 0.127968
H	-0.0507390518	-1.247369903	-1.8170347336	 0.105051
H	 1.4700981367	-0.3284576007	-1.6528690551	 0.120714
60.3099	100.6538	167.4589	198.3726	246.2116	310.9568	371.0094	387.5506	398.3119	487.6561	506.9626	627.4652	722.9365	814.3366	851.8683	899.864	939.4451	950.782	979.7963	981.5271	1004.9541	1032.6224	1058.3442	1085.8764	1108.2679	1123.9654	1166.7422	1197.6227	1251.7846	1263.2552	1299.4842	1304.0163	1376.0763	1402.8268	1428.2261	1471.7469	1485.9126	1488.8268	1498.2143	1510.7055	2366.0698	2943.3504	3013.6325	3025.2615	3058.6892	3079.3107	3084.9126	3100.5576	3107.2912	3161.6848	3196.5675
CC12CC1N(CC#N)C2	C[C@]12C[C@H]1N(CC#N)C2	
InChI=1S/C7H10N2/c1-7-4-6(7)9(5-7)3-2-8/h6H,3-5H2,1H3	InChI=1S/C7H10N2/c1-7-4-6(7)9(5-7)3-2-8/h6H,3-5H2,1H3/t6-,7-/m1/s1
