18
gdb 74732	2.31418	2.1526	1.49566	0.7023	77.74	-0.2243	0.0014	0.2256	942.0953	0.147485	-401.791007	-401.783643	-401.782699	-401.822391	29.944	
C	 0.080748428	 1.4222161014	 0.0975382319	-0.528222
C	 0.0020174106	-0.0602144539	-0.0116724258	 0.364756
C	 0.0150602057	-0.8745501904	-1.0682733154	-0.153301
C	-0.0401324135	-2.2423376684	-0.4264333441	-0.139141
N	 1.0532437951	-2.0612179858	 0.6808445355	-0.390841
C	-0.0495102463	-1.0415253577	 1.1787489473	 0.121217
C	-1.1031496616	-0.6272127961	 2.2399245353	-0.192105
O	-2.1344467108	-1.1489304185	 1.3080123307	-0.315278
C	-1.0638889452	-2.0369781679	 0.783805629	 0.127528
H	 0.9403841063	 1.7333864125	 0.7041063925	 0.132024
H	 0.181285265	 1.879380469	-0.8905749525	 0.129461
H	-0.8142822904	 1.8446658352	 0.5699903058	 0.135145
H	 0.0828409927	-0.6570072197	-2.123857862	 0.106413
H	 0.0200374187	-3.150349042	-1.0269737398	 0.077788
H	 1.0156827078	-2.8880492123	 1.2882087615	 0.212584
H	-1.0916735611	-1.2034728508	 3.1717521634	 0.112861
H	-1.2458096155	 0.4376321062	 2.4403495876	 0.119134
H	-1.1025595357	-2.9553521207	 1.3831587691	 0.079977
136.6674	180.1282	246.3635	302.3301	332.9405	433.3422	498.0422	555.2289	583.6873	629.8697	702.6235	741.3857	789.087	806.9044	827.2708	861.3034	882.9999	916.6218	954.6921	1006.0108	1021.8094	1062.1183	1069.7548	1101.1287	1110.1529	1135.1768	1155.0771	1224.884	1239.1008	1258.0682	1267.0477	1289.5625	1327.2543	1391.7093	1414.3872	1477.6529	1484.1254	1506.2809	1699.9499	3019.0185	3020.9028	3039.2834	3069.0942	3109.7623	3112.0903	3122.2343	3241.0385	3382.0755
CC1=CC2NC11COC21	CC1=C[C@H]2N[C@]31CO[C@@H]23	
InChI=1S/C7H9NO/c1-4-2-5-6-7(4,8-5)3-9-6/h2,5-6,8H,3H2,1H3	InChI=1S/C7H9NO/c1-4-2-5-6-7(4,8-5)3-9-6/h2,5-6,8H,3H2,1H3/t5-,6+,7+/m1/s1
