20
gdb 69048	3.16311	1.08511	0.95231	3.1224	82.61	-0.2499	0.0236	0.2735	1318.7449	0.169851	-403.121932	-403.112774	-403.111829	-403.156243	34.025	
C	 0.0241544513	 1.4948586056	 0.2111019755	-0.493296
C	 0.108957174	 0.0041741322	 0.0614662119	 0.269905
C	-0.6569184528	-0.9578989165	 0.9502123907	-0.386812
C	 0.8438561053	-1.0373051034	 0.8919980596	 0.398679
C	 1.3223175029	-1.7757123136	-0.3560811531	-0.293119
C	 0.5208910242	-0.7428402703	-1.2198512672	-0.274296
O	 1.649779127	-0.808427869	 2.0064410303	-0.228644
C	 1.5287820345	-1.6759997587	 3.0389247748	 0.102999
N	 2.2882462951	-1.5669148103	 4.0397280812	-0.440735
H	 0.9028945489	 1.9853334072	-0.2220270196	 0.122453
H	-0.8638564025	 1.8950024869	-0.2920892632	 0.121338
H	-0.0311477551	 1.7814187013	 1.2658585386	 0.129565
H	-1.0469616529	-0.5072874434	 1.8578996197	 0.120446
H	-1.2805632666	-1.7453362786	 0.5306325372	 0.105516
H	 2.4003755439	-1.6762216458	-0.4981085331	 0.120238
H	 1.0459868203	-2.8318395314	-0.4413260027	 0.095871
H	-0.3027458231	-1.1466853815	-1.8167551209	 0.098664
H	 1.16985132	-0.1513047962	-1.8699020973	 0.108209
H	 0.7328528427	-2.4160409266	 2.8890751454	 0.093911
H	 2.0596572331	-2.2836716779	 4.7256434122	 0.229109
58.1999	106.9029	126.9174	185.9944	199.4435	252.6268	339.8971	370.3484	430.2976	460.9505	536.3284	628.3999	710.6037	788.8879	814.2327	825.0691	874.543	932.2041	939.7724	971.0306	983.7767	1015.3575	1049.8197	1053.918	1066.9342	1110.8708	1147.014	1187.3653	1215.3719	1230.7815	1238.4439	1262.4867	1286.4379	1327.2787	1397.3268	1411.8135	1424.0427	1478.9414	1481.1309	1486.245	1497.7611	1519.5083	1743.6597	3025.2909	3043.7695	3045.5761	3053.8178	3085.1104	3097.3157	3100.8343	3103.8064	3120.4632	3195.9761	3515.2902
CC12CC1(CC2)OC=N	C[C@]12C[C@]1(CC2)O[CH][NH]	
InChI=1S/C7H11NO/c1-6-2-3-7(6,4-6)9-5-8/h5,8H,2-4H2,1H3	InChI=1S/C7H11NO/c1-6-2-3-7(6,4-6)9-5-8/h5,8H,2-4H2,1H3/t6-,7-/m0/s1
