16
gdb 31198	2.17502	1.60196	0.93396	6.559	80.62	-0.1918	0.0165	0.2084	1203.3188	0.12623	-396.980729	-396.972114	-396.97117	-397.014408	31.362	
C	 0.0568870149	 1.3217122376	 0.2455836814	-0.345013
N	-0.0291374884	-0.0353254883	-0.2648435332	-0.394017
C	-1.1760623455	-0.7746442188	-0.0974948683	 0.335187
C	-1.3402043455	-2.1608857568	-0.075495483	 0.08714
C	-2.7493590705	-2.4170750379	 0.0502379211	-0.252123
C	-3.3820576638	-1.2130804447	 0.1075512757	-0.085213
N	-2.4126249912	-0.2161715022	 0.021837885	-0.316096
C	-0.27298591	-3.0762975963	-0.1512259046	 0.174425
N	 0.6382162208	-3.7941921504	-0.2107804494	-0.382676
H	 1.0740081503	 1.6878299608	 0.0960586922	 0.145705
H	-0.6072619575	 1.9886054295	-0.3176152664	 0.129064
H	-0.1917532845	 1.4052080912	 1.3144865403	 0.126321
H	 0.8064695011	-0.5900965005	-0.149496736	 0.265841
H	-3.2092749127	-3.3907390861	 0.0974569123	 0.116406
H	-4.4227365556	-0.9566691924	 0.2097496227	 0.128328
H	-2.5997858719	 0.7705207653	 0.00879956	 0.266722
62.5838	117.3091	161.5973	173.1448	231.3605	294.8407	414.0289	439.2937	511.6685	533.0061	563.0745	619.8271	632.5665	659.5205	735.6983	752.5976	830.8904	911.8848	1041.0141	1086.3673	1097.0883	1149.3023	1167.9544	1203.4846	1285.1929	1331.7932	1380.7233	1451.0765	1465.6591	1489.3348	1517.8313	1553.1195	1563.7775	1638.5488	2319.3344	2987.4076	3051.7084	3131.4667	3265.359	3287.7965	3606.8679	3691.6588
CNC1=C(C=CN1)C#N	CNc1c(cc[nH]1)C#N	
InChI=1S/C6H7N3/c1-8-6-5(4-7)2-3-9-6/h2-3,8-9H,1H3	InChI=1S/C6H7N3/c1-8-6-5(4-7)2-3-9-6/h2-3,8-9H,1H3
