19
gdb 14380	3.63587	2.14463	1.84838	1.7976	73.69	-0.2342	0.0818	0.3159	816.4399	0.165871	-327.861876	-327.85469	-327.853745	-327.892587	29.075	
C	-0.087811716	 1.4746518877	 0.0296339242	-0.440104
C	 0.0078329866	-0.0546928874	 0.0129415437	 0.328418
C	-1.3794398687	-0.6734865875	 0.182804294	-0.466274
C	 0.895848783	-0.530641057	-1.1466267212	-0.065396
C	 2.1276462177	-0.419409784	-0.3383296323	-0.055079
C	 1.1886559712	-0.5423378854	 0.9253285733	-0.118036
C	 1.271791371	-2.0512277013	 0.6615192428	-0.165569
N	 1.6652799051	-1.7718464057	-0.7613733415	-0.162364
H	 0.8997301047	 1.9409429108	-0.0415515032	 0.117071
H	-0.6927336066	 1.8409648615	-0.8075621434	 0.112611
H	-0.5619953804	 1.8228392386	 0.9543114903	 0.112212
H	-2.065387432	-0.2791802856	-0.5757467375	 0.115184
H	-1.3747822697	-1.7606658456	 0.0807161056	 0.121756
H	-1.8012933678	-0.425376122	 1.1639890485	 0.112944
H	 0.7573556235	-0.3759285528	-2.2099685491	 0.089188
H	 3.1161903482	-0.0227848008	-0.5269901781	 0.094815
H	 1.3311409111	-0.1032883276	 1.912467751	 0.066243
H	 2.1256479548	-2.5223630351	 1.1558053475	 0.106399
H	 0.3823648144	-2.6737217508	 0.8024730355	 0.095981
171.2756	208.6278	245.8226	268.4616	347.0989	365.6732	474.0833	538.143	611.2977	752.7566	763.3977	796.9005	829.9348	868.7774	921.088	939.0662	953.2228	961.0369	984.2845	1004.0992	1011.7944	1038.9691	1056.1851	1139.6162	1151.9215	1181.6271	1189.4457	1205.0706	1222.2091	1244.2718	1291.1183	1301.7483	1345.478	1402.5453	1422.1105	1481.6098	1485.4977	1502.8431	1504.4801	1523.2417	3023.4823	3029.1714	3046.0937	3083.5751	3088.3736	3098.1284	3102.8963	3117.939	3120.0683	3186.0524	3206.5359
CC1(C)C2C3C1CN23	CC1(C)[C@H]2[C@H]3[C@@H]1CN23	
InChI=1S/C7H11N/c1-7(2)4-3-8-5(4)6(7)8/h4-6H,3H2,1-2H3	InChI=1S/C7H11N/c1-7(2)4-3-8-5(4)6(7)8/h4-6H,3H2,1-2H3/t4-,5+,6+,8?/m0/s1
