21
gdb 55739	3.90344	1.01836	0.93877	2.493	83.51	-0.242	-0.0103	0.2317	1344.1589	0.181641	-387.067577	-387.058645	-387.057701	-387.102518	33.54	
C	-0.1198375707	 1.5291464513	 0.0117185373	-0.473178
C	 0.0905148107	 0.0240317136	 0.0025819135	 0.388539
O	 1.1982731605	-0.4619921828	-0.0086015603	-0.289829
C	-1.17730503	-0.8270890449	 0.0083410733	-0.483861
C	-0.9405535351	-2.3161612752	-0.0013464625	 0.398955
C	-0.1835882526	-3.1720872192	 1.0631081178	-0.243744
C	-0.6751130224	-4.180546367	-0.0131695253	-0.046066
C	-2.0352143472	-3.4271538609	 0.0014711895	-0.271824
C	-0.2005082351	-3.1608674775	-1.0864626542	-0.243753
H	 0.8449138207	 2.0376173026	 0.0073051143	 0.141782
H	-0.7040518684	 1.8387306655	-0.8622346411	 0.137425
H	-0.6914725447	 1.8299496593	 0.8969724807	 0.137389
H	-1.7727811757	-0.5379733487	 0.8867880041	 0.120276
H	-1.7868885748	-0.5288320664	-0.8572798224	 0.120258
H	 0.8922741502	-3.0059812797	 1.1359294349	 0.1081
H	-0.651731745	-3.2452759238	 2.0501142733	 0.078783
H	-0.5248270036	-5.260330605	-0.0199905091	 0.068279
H	-2.6393370926	-3.5171561533	 0.909904653	 0.082792
H	-2.6535692044	-3.5077119421	-0.8982311903	 0.082791
H	-0.6841349692	-3.2237907009	-2.0666879808	 0.078783
H	 0.8740860594	-2.993917685	-1.1744690655	 0.108101
24.7377	87.2244	114.3106	137.9818	290.6339	305.2955	324.1859	471.45	540.2678	546.8706	559.6738	711.0863	762.1084	793.6677	830.4836	838.9207	888.484	937.1452	939.862	962.7067	963.5555	992.7723	995.2235	1033.3997	1102.7431	1103.5548	1136.2702	1141.4567	1154.2869	1155.3527	1185.9644	1226.4435	1228.5735	1240.5564	1274.557	1310.9719	1367.8334	1384.2322	1439.7068	1464.6988	1477.3876	1498.5434	1499.3101	1556.7429	1809.6801	3003.8422	3032.4915	3035.0609	3036.864	3044.9691	3050.4976	3097.021	3098.8486	3109.0533	3127.6385	3131.9249	3152.2237
CC(=O)CC12CC(C1)C2	CC(=O)C[C@@]12C[C@@H](C1)C2	
InChI=1S/C8H12O/c1-6(9)2-8-3-7(4-8)5-8/h7H,2-5H2,1H3	InChI=1S/C8H12O/c1-6(9)2-8-3-7(4-8)5-8/h7H,2-5H2,1H3/t7-,8+
