14
gdb 123964	3.86137	1.64405	1.16337	5.5135	68.57	-0.2149	-0.0094	0.2054	959.1923	0.105275	-429.048502	-429.041905	-429.040961	-429.079567	25.425	
C	 0.0012196397	 1.4985257131	-0.0790427081	-0.272953
N	 1.3388944533	 2.0572896582	 0.1835446849	-0.236011
C	 2.3578036951	 1.3163805677	 0.3070711189	 0.078221
N	 2.4203349577	-0.0859459859	 0.1938428514	-0.442852
C	 1.1795902766	-0.6911499666	 0.131881484	 0.415828
C	 0.0046059528	 0.0017763801	-0.0066997788	 0.247566
N	-1.0142963153	-0.897296091	-0.0595268715	-0.26467
N	-0.5385386575	-2.103994368	 0.0348604632	-0.129527
N	 0.8220992449	-1.9900391474	 0.1472098595	-0.317082
H	-0.6970286829	 1.9397411427	 0.6429390996	 0.133749
H	-0.3265655212	 1.8603518414	-1.063684672	 0.130684
H	 3.3303462647	 1.7678190369	 0.5001718266	 0.123145
H	 3.1991928521	-0.5561462596	 0.6288656306	 0.25718
H	 1.3820994401	-2.8223538216	 0.2307296016	 0.276721
96.9493	243.7773	318.3445	361.503	406.7041	488.1296	499.0194	534.8836	636.5891	698.6292	727.5901	769.1402	892.835	930.5205	948.2232	993.0067	1019.4419	1031.6415	1074.2964	1228.8834	1242.5903	1250.6703	1287.2537	1357.6316	1387.6738	1406.5268	1443.3784	1499.3802	1573.5621	1649.8441	1748.0573	3005.0351	3035.4972	3140.2976	3617.065	3665.8213
C1N=CNC2=C1N=NN2	C1N=CNc2c1nn[nH]2	
InChI=1S/C4H5N5/c1-3-4(6-2-5-1)8-9-7-3/h2H,1H2,(H2,5,6,7,8,9)	InChI=1S/C4H5N5/c1-3-4(6-2-5-1)8-9-7-3/h2H,1H2,(H2,5,6,7,8,9)
