19
gdb 80170	2.23713	1.73127	1.4182	3.5166	74.41	-0.2334	-0.0053	0.2282	1019.8484	0.159152	-423.045141	-423.036727	-423.035783	-423.077837	32.666	
C	 0.0457925612	 1.6423907067	 0.0451743557	-0.400936
C	 0.0633489319	 0.113677077	-0.0052089804	-0.08884
C	 0.783895631	-0.5408933548	-1.1726660455	-0.098116
C	 2.2843493653	-0.524805538	-1.180069646	 0.088297
O	 2.9233952759	 0.3454447798	-0.2886242464	-0.409626
C	 1.5722962528	-1.7509714976	-0.6585470646	-0.118731
C	 1.3954152429	-1.8313457744	 0.8453467114	-0.334875
C	 0.6899936744	-0.5256407919	 1.2462082293	 0.395948
O	 0.6186862276	-0.0844561294	 2.3628362168	-0.323007
H	 1.0626666907	 2.0365128485	-0.006301041	 0.14467
H	-0.5323893461	 2.0566309461	-0.7862004598	 0.10449
H	-0.4055837769	 1.9745618934	 0.9839808324	 0.131528
H	-0.9766449421	-0.2511107637	-0.0152620214	 0.099852
H	 0.277625817	-0.5802654119	-2.1305957022	 0.089488
H	 2.7662698552	-0.6123189342	-2.1534434614	 0.090309
H	 3.7242106145	-0.0806293319	 0.0354881618	 0.29367
H	 1.6267980907	-2.6686263296	-1.2330058552	 0.088796
H	 0.747113565	-2.6732196514	 1.1186046881	 0.128322
H	 2.320992639	-1.9438625428	 1.417807978	 0.118762
89.0275	164.3006	207.0091	218.5219	250.7058	322.7139	331.9	442.2613	493.849	545.3351	572.2022	667.3439	692.564	736.3703	782.7362	803.5854	877.5155	913.6666	986.4913	1013.162	1026.0452	1035.7426	1070.6259	1089.5897	1110.2382	1136.6014	1167.8107	1190.9882	1222.3942	1266.8127	1280.8727	1300.1454	1317.6954	1348.9932	1369.207	1404.37	1441.0373	1461.5202	1492.7876	1507.5841	1847.5164	2980.766	3039.405	3047.3942	3086.3613	3103.9366	3116.542	3140.2048	3166.0732	3175.9877	3803.1231
CC1C2C(O)C2CC1=O	C[C@H]1[C@H]2[C@@H](O)[C@H]2CC1=O	
InChI=1S/C7H10O2/c1-3-5(8)2-4-6(3)7(4)9/h3-4,6-7,9H,2H2,1H3	InChI=1S/C7H10O2/c1-3-5(8)2-4-6(3)7(4)9/h3-4,6-7,9H,2H2,1H3/t3-,4+,6-,7+/m1/s1
