19
gdb 98069	3.25871	0.93058	0.80206	2.2784	73.15	-0.2532	-0.0952	0.1579	1473.1191	0.155136	-460.194446	-460.183803	-460.182859	-460.231035	36.982	
C	 0.2803850686	 1.5752985782	-0.0232665241	-0.402603
C	 0.0270497814	 0.0500934891	-0.073856028	-0.065446
C	-1.4645448378	-0.2859860164	-0.0251119933	-0.392798
C	 0.6761621615	-0.5103786486	-1.3245265351	 0.29563
O	 0.078797446	-0.8357119813	-2.3252041662	-0.291461
C	 2.2128306025	-0.6654158192	-1.3117287261	 0.262419
O	 2.8682302228	-0.45705777	-0.3130851945	-0.308714
C	 2.8781426835	-1.1090537374	-2.5974031705	-0.122021
O	 4.262257166	-1.2176612125	-2.4444361954	-0.421671
H	 1.348307716	 1.8058832799	-0.0263558097	 0.138341
H	-0.1905023444	 2.0763181025	-0.8754147175	 0.129259
H	-0.1520741473	 1.9874093454	 0.8927673574	 0.129706
H	 0.5512620744	-0.3924832388	 0.7812170775	 0.111345
H	-1.984709019	 0.1291205519	-0.892554067	 0.134335
H	-1.6304587704	-1.3669573418	-0.0276083807	 0.123201
H	-1.9155220552	 0.1283967955	 0.8811082199	 0.115201
H	 2.4244577397	-2.0638494249	-2.9054215331	 0.137599
H	 2.6104766439	-0.388423233	-3.3866971347	 0.133305
H	 4.4489221678	-0.9763382588	-1.5245581588	 0.294375
40.1712	57.1515	105.8718	144.7376	194.7092	204.7421	240.3332	283.3969	297.8932	337.6953	348.6179	400.189	444.1479	514.7186	677.9665	713.4933	806.5809	852.2946	922.2162	941.0877	971.8109	983.9367	1103.838	1122.4384	1135.0238	1182.5962	1213.7541	1226.4336	1310.9363	1316.1705	1371.2697	1397.1244	1418.7979	1443.4719	1471.8357	1486.7266	1487.7635	1501.2578	1511.5929	1787.4197	1796.7336	2991.8206	3008.3817	3040.5569	3046.0761	3049.1196	3112.7196	3116.7234	3123.9629	3128.697	3710.0253
CC(C)C(=O)C(=O)CO	CC(C)C(=O)C(=O)CO	
InChI=1S/C6H10O3/c1-4(2)6(9)5(8)3-7/h4,7H,3H2,1-2H3	InChI=1S/C6H10O3/c1-4(2)6(9)5(8)3-7/h4,7H,3H2,1-2H3
