16
gdb 25582	3.81966	1.14048	0.93588	4.0028	71.27	-0.2208	0.0066	0.2273	1203.2902	0.127376	-434.133285	-434.125397	-434.124453	-434.16629	28.707	
O	 0.977171086	 1.2127472346	 1.5165235094	-0.345105
C	 0.4444936796	 1.4781242506	 0.4508468953	 0.163979
N	 1.0622078312	 1.4401517426	-0.7489921349	-0.252583
C	 2.4716803991	 1.0466704927	-0.8912614916	-0.319421
C	 3.4522489454	 2.0643332359	-0.4112798644	 0.304409
C	 4.4263517053	 2.7994081223	-1.0407196477	-0.169901
N	 5.0972144486	 3.5936089759	-0.1418028658	-0.259605
C	 4.5339254576	 3.3436571518	 1.0211683279	 0.012932
N	 3.540393452	 2.4222666387	 0.9176612609	-0.279671
H	-0.6192988454	 1.7705403847	 0.3744134081	 0.094269
H	 0.5606012473	 1.7647072857	-1.5599647325	 0.258935
H	 2.5976770261	 0.103944923	-0.3467959772	 0.144457
H	 2.6518017383	 0.8442380048	-1.9487651571	 0.130604
H	 4.6851193717	 2.7928432169	-2.0897346914	 0.101333
H	 4.8027946547	 3.7987579274	 1.9628476148	 0.129225
H	 2.9058448125	 2.0748428524	 1.6257941063	 0.286141
83.2596	115.1901	137.0511	228.3043	258.938	327.9723	421.7819	502.8255	630.4351	671.6474	728.5432	735.3688	792.3848	826.1396	854.0002	932.8868	938.8683	999.6426	1026.1816	1034.3665	1123.4545	1150.3073	1206.4731	1261.7185	1272.1868	1302.618	1382.8701	1388.4082	1424.085	1436.5499	1464.8593	1505.4077	1523.2561	1609.7653	1775.7943	2964.4988	3045.6477	3119.1854	3237.952	3251.3288	3577.8797	3641.4785
O=CNCC1=CN=CN1	O=CNCc1cnc[nH]1	
InChI=1S/C5H7N3O/c9-4-7-2-5-1-6-3-8-5/h1,3-4H,2H2,(H,6,8)(H,7,9)	InChI=1S/C5H7N3O/c9-4-7-2-5-1-6-3-8-5/h1,3-4H,2H2,(H,6,8)(H,7,9)
