15
gdb 28534	3.16916	1.40387	0.97356	2.2088	73.79	-0.1864	-0.0022	0.1843	1126.3637	0.114332	-454.021275	-454.013424	-454.01248	-454.053117	31.051	
N	-0.0927757392	 1.3563679134	-0.1903656162	-0.56662
C	-0.0266172642	-0.0176048804	-0.1091187775	 0.31695
N	-1.1698313668	-0.703604845	-0.0795862771	-0.434534
C	-1.1209412662	-2.0340878659	-0.0570078926	 0.419553
O	-2.3081745515	-2.6878891579	-0.0310881427	-0.429003
C	 0.0594558132	-2.7670627002	-0.0524826739	-0.232461
C	 1.253250922	-2.0439623067	-0.0714128121	-0.193689
C	 1.2266366798	-0.6622261286	-0.101023266	 0.290144
O	 2.3356729962	 0.151383863	-0.11595405	-0.466969
H	 0.7298527839	 1.8525623528	 0.1143890108	 0.262913
H	-0.972689765	 1.7514273705	 0.1031343276	 0.252531
H	-2.986343019	-1.9997609281	-0.0442939031	 0.291832
H	 0.0399500383	-3.848031177	-0.0294799378	 0.101904
H	 2.2069302618	-2.5659706381	-0.0625934033	 0.090847
H	 3.1273647666	-0.3927918019	-0.0657009362	 0.296602
140.9271	230.2796	253.965	301.5004	345.9568	373.6123	423.2317	457.2595	485.9116	494.3283	527.0367	534.9206	604.6846	692.5871	752.6824	783.2664	793.1698	813.0632	917.97	990.629	1082.4368	1148.6137	1165.912	1221.667	1286.7219	1325.8242	1355.153	1420.3222	1499.3304	1533.6539	1620.9138	1650.5922	1672.3571	3159.4034	3224.2746	3583.5199	3702.6968	3782.2005	3833.3883
NC1=NC(O)=CC=C1O	Nc1nc(O)ccc1O	
InChI=1S/C5H6N2O2/c6-5-3(8)1-2-4(9)7-5/h1-2,8H,(H3,6,7,9)	InChI=1S/C5H6N2O2/c6-5-3(8)1-2-4(9)7-5/h1-2,8H,(H3,6,7,9)
