17
gdb 24171	5.09897	0.9701	0.86163	5.2053	74.09	-0.2209	0.0299	0.2508	1313.9999	0.137747	-418.011726	-418.003887	-418.002943	-418.045853	28.44	
C	-0.0035668162	 1.4559385674	 0.4021170072	-0.205283
C	-0.0824157276	-0.0368582465	 0.1792467047	 0.091053
C	-1.30539513	-0.6629774686	-0.3358178299	-0.178594
O	-0.1722090172	-0.4592631976	-1.181761944	-0.223921
N	 1.334428309	 1.9779155349	 0.1757883612	 0.011154
C	 2.1672872176	 2.5606004402	 1.1095399829	-0.131548
C	 3.3140096051	 2.8797982821	 0.4331089207	-0.09081
N	 3.2144494341	 2.5106706565	-0.888207935	-0.271471
C	 2.0209597001	 1.9748447413	-1.007194441	 0.0064
H	-0.7140002876	 1.9555159479	-0.2654620579	 0.131251
H	-0.2861961816	 1.6945801436	 1.4315886849	 0.128847
H	 0.5965800878	-0.6333682751	 0.7892720669	 0.111792
H	-1.5246692545	-1.6994339613	-0.0865570372	 0.12599
H	-2.1740238855	-0.0454660664	-0.5612527479	 0.120095
H	 1.8598988199	 2.6906842746	 2.1343846919	 0.122719
H	 4.2024260501	 3.3553921088	 0.8200444836	 0.107277
H	 1.5918588865	 1.5584327783	-1.9060736912	 0.145051
26.8647	73.9898	109.1433	276.4715	300.7262	363.1294	451.3266	631.6428	679.8464	722.9424	740.6616	799.9236	831.4733	852.5142	866.0218	915.4286	950.2293	963.3281	1047.0711	1095.7506	1102.5717	1121.8295	1141.5182	1159.2847	1165.9634	1232.5415	1259.2573	1292.1592	1314.1628	1345.3688	1392.306	1412.4504	1447.6391	1469.7078	1527.624	1531.4401	1545.2583	3047.6902	3087.3064	3098.1082	3117.2014	3175.8966	3246.1813	3258.286	3273.6295
C(C1CO1)N1C=CN=C1	C([C@H]1CO1)n1ccnc1	
InChI=1S/C6H8N2O/c1-2-8(5-7-1)3-6-4-9-6/h1-2,5-6H,3-4H2	InChI=1S/C6H8N2O/c1-2-8(5-7-1)3-6-4-9-6/h1-2,5-6H,3-4H2/t6-/m0/s1
