12
gdb 25177	3.07983	1.53892	1.02617	6.2637	71.01	-0.2669	-0.0901	0.1769	1038.2004	0.080671	-431.748153	-431.741281	-431.740337	-431.779779	25.142	
O	-0.0440797208	-0.0661998876	 0.0043259273	-0.346894
C	 0.0244654961	 1.1404583237	 0.00927986	 0.394906
N	-1.1495538755	 1.9342781973	 0.0284574217	-0.340093
C	-1.1601940442	 3.2841191865	 0.0352595227	 0.132993
N	-0.0904715582	 4.0238560225	 0.0250442563	-0.280951
C	 1.0944964349	 3.3502215694	 0.0063807343	-0.03004
C	 1.2193038907	 1.9829050871	-0.0019758083	-0.050086
C	 2.4978751443	 1.3568709661	-0.0215752529	 0.250832
N	 3.5487785406	 0.8719196033	-0.0375434366	-0.322401
H	-2.0166069687	 1.4108304034	 0.0371196993	 0.282173
H	-2.139572144	 3.7555771346	 0.0502870676	 0.157073
H	 1.9869879048	 3.9688664637	-0.0021045214	 0.152488
117.3749	149.1261	203.1847	352.2771	398.2794	470.5614	499.5006	588.858	594.1959	606.9273	732.9536	745.7303	807.1177	908.4341	960.5142	1008.0719	1088.4214	1112.0762	1216.7562	1265.2338	1369.1756	1419.8526	1477.9316	1570.412	1638.1994	1818.0837	2346.7086	3175.3945	3184.9184	3584.0654
O=C1NC=NC=C1C#N	O=c1[nH]cncc1C#N	
InChI=1S/C5H3N3O/c6-1-4-2-7-3-8-5(4)9/h2-3H,(H,7,8,9)	InChI=1S/C5H3N3O/c6-1-4-2-7-3-8-5(4)9/h2-3H,(H,7,8,9)
