19
gdb 104830	2.06911	1.50109	1.18653	3.1896	72.9	-0.2325	0.0146	0.247	1145.2419	0.15868	-456.317624	-456.308053	-456.307108	-456.35253	34.626	
C	-1.611052083	-0.8146231325	 0.2562105972	-0.335334
N	-0.2946519542	-0.2000752519	 0.1439435094	-0.31008
C	 0.6171721046	-0.4266667111	 1.2322776794	 0.121603
C	 0.1095565264	 0.1618946082	 2.562337476	-0.075757
O	-0.1813735447	 1.5311499858	 2.4604557404	-0.416674
C	 1.3302065141	-1.8144673106	 1.3968537728	-0.140775
O	 2.6256538366	-1.1676951137	 1.1647588217	-0.255696
C	 2.0351802578	 0.054976727	 0.9629491837	 0.403798
N	 2.5184519259	 1.184936028	 0.7064372916	-0.55447
H	-2.1959953849	-0.3094344539	 1.0301628135	 0.146132
H	-2.1405558668	-0.6806219567	-0.690467524	 0.12734
H	-1.5958737626	-1.894800285	 0.48587442	 0.094232
H	 0.1416556026	-0.432391736	-0.7398359059	 0.225271
H	-0.8115438473	-0.3426192693	 2.874763691	 0.107941
H	 0.8679646075	-0.0467279375	 3.3356346839	 0.090504
H	 0.5485588842	 1.9480888576	 1.9818775836	 0.302851
H	 1.3082747275	-2.2876321188	 2.3816824716	 0.120007
H	 1.1126947491	-2.5434139116	 0.6120113583	 0.116946
H	 3.5367770071	 1.1621624521	 0.6311021259	 0.232161
49.1015	100.3899	111.1306	169.1903	185.5429	259.0761	300.3647	340.5307	371.7152	421.3141	451.4631	561.6083	639.764	708.0275	761.0265	768.2206	867.0823	900.9013	941.2162	956.7172	998.106	1052.9597	1083.3879	1101.3655	1118.5801	1152.4666	1159.4824	1203.1219	1233.7994	1267.5959	1287.2907	1367.6981	1385.0276	1447.5085	1461.5563	1486.4855	1501.2696	1506.855	1515.2823	1523.3634	1814.8389	2947.0742	2965.0344	3057.1567	3061.2525	3077.6951	3118.8422	3120.7981	3477.0057	3547.5952	3747.4192
CNC1(CO)COC1=N	CN[C@@]1(CO)CO[C]1[NH]	
InChI=1S/C5H10N2O2/c1-7-5(2-8)3-9-4(5)6/h6-8H,2-3H2,1H3	InChI=1S/C5H10N2O2/c1-7-5(2-8)3-9-4(5)6/h6-8H,2-3H2,1H3/t5-/m0/s1
