19
gdb 64978	3.57304	0.97544	0.81928	2.0163	81.89	-0.2551	-0.016	0.2391	1419.2691	0.159245	-419.24183	-419.232534	-419.23159	-419.276266	34.382	
C	 0.1432584539	 1.3408424178	-0.5745934478	-0.508799
C	 0.1078830804	-0.089611914	-0.072092732	 0.202662
C	 1.4303271874	-0.81127719	 0.1558232942	-0.274313
C	 0.6212314808	-0.3776034634	 1.3333008063	-0.274322
C	-1.0076058918	-0.9995293975	-0.5035170654	 0.410536
O	-1.0919005218	-2.1572854815	-0.1347062853	-0.381419
N	-1.946418544	-0.4415400043	-1.3548503703	-0.338628
C	-3.0381871429	-1.1359396621	-1.8503575957	 0.101556
N	-3.8589946225	-0.5573271048	-2.6288559603	-0.468551
H	 1.0140519733	 1.8618570059	-0.1676575102	 0.127364
H	 0.222039278	 1.3917921934	-1.6671460758	 0.128948
H	-0.7425404457	 1.9080519804	-0.2646847906	 0.128962
H	 1.4445057736	-1.8693006692	-0.0749462329	 0.141308
H	 2.3319686576	-0.2621299074	-0.0922766153	 0.114562
H	 0.9540924327	 0.476258287	 1.9131008693	 0.114567
H	 0.0966706434	-1.1470564447	 1.8861584083	 0.141319
H	-1.8654511699	 0.518620742	-1.6535290602	 0.261635
H	-3.068073614	-2.1658339157	-1.4910501803	 0.140678
H	-4.5993429285	-1.201406292	-2.9009870958	 0.231934
46.2929	125.4601	149.4047	176.439	247.1143	300.9315	302.7563	315.6006	354.9416	408.422	508.4152	583.7059	640.972	762.7122	794.6409	808.735	832.7912	848.3697	952.582	960.5466	961.6526	1048.7998	1077.2996	1087.1672	1091.2205	1092.4813	1118.4641	1173.3878	1204.8013	1292.353	1323.3727	1326.911	1393.4296	1416.9655	1450.652	1483.7963	1496.7071	1499.4576	1508.8506	1723.7547	1773.4829	3020.8848	3079.8997	3105.5039	3130.2276	3140.7186	3143.0924	3232.1853	3245.1655	3506.1559	3630.9504
CC1(CC1)C(=O)NC=N	CC1(CC1)C(=O)NC=N	
InChI=1S/C6H10N2O/c1-6(2-3-6)5(9)8-4-7/h4H,2-3H2,1H3,(H2,7,8,9)	InChI=1S/C6H10N2O/c1-6(2-3-6)5(9)8-4-7/h4H,2-3H2,1H3,(H2,7,8,9)
