17
gdb 30053	2.7143	1.54633	0.99731	0.891	77.79	-0.2411	-0.0441	0.1971	1152.6327	0.13664	-418.075018	-418.066315	-418.065371	-418.108851	30.975	
C	 0.0611642336	 1.4551324383	 0.0235537675	-0.323139
N	-0.0306924834	 0.0022432107	 0.0381522436	-0.06783
C	-0.1594177214	-0.7883373703	-1.0513213025	 0.018522
N	-0.2197161048	-2.0768929057	-0.7557950801	-0.275078
C	-0.1237881857	-2.1205927351	 0.5996090395	-0.148122
C	-0.0040673948	-0.8489146425	 1.1384255021	 0.197564
C	 0.1255553339	-0.3921822713	 2.5195217064	 0.295291
C	 0.1348918091	-1.469831419	 3.5915114584	-0.487022
O	 0.2220436318	 0.7904007006	 2.8068681018	-0.349635
H	 1.002477435	 1.7851891004	 0.4646250759	 0.161078
H	 0.0026600609	 1.7862743532	-1.0154414254	 0.130746
H	-0.7525566665	 1.8973895256	 0.5994252894	 0.161376
H	-0.2057935643	-0.3727695004	-2.0479840861	 0.136834
H	-0.1441448455	-3.0585590031	 1.1350550652	 0.120652
H	 0.9657217144	-2.16561803	 3.4352918381	 0.143145
H	 0.2362855447	-0.9933450514	 4.5668509271	 0.142482
H	-0.790506287	-2.0542264003	 3.562997249	 0.143135
70.9173	108.7204	143.0417	180.1308	196.3883	231.5698	317.7168	412.0797	493.7394	560.0884	640.4129	667.4841	692.0939	712.0748	849.3045	878.8109	927.6218	951.6472	1043.3914	1084.4186	1101.0971	1154.3391	1170.6428	1257.8746	1271.7541	1330.5553	1373.1676	1387.4942	1399.3744	1454.4281	1469.5725	1474.3568	1476.1768	1497.3614	1524.0935	1570.2287	1747.2604	3043.6642	3065.0385	3107.5706	3147.9612	3148.78	3156.4911	3241.7865	3245.0946
CN1C=NC=C1C(C)=O	Cn1cncc1C(=O)C	
InChI=1S/C6H8N2O/c1-5(9)6-3-7-4-8(6)2/h3-4H,1-2H3	InChI=1S/C6H8N2O/c1-5(9)6-3-7-4-8(6)2/h3-4H,1-2H3
