21
gdb 95218	2.46514	1.68302	1.18868	2.2772	77.85	-0.253	0.0793	0.3323	1108.438	0.183068	-424.219396	-424.210899	-424.209955	-424.252082	33.338	
C	-0.0185432484	 1.5292177846	-0.1202487343	-0.414318
C	 0.0447418254	 0.0122167039	-0.0163218132	 0.128496
O	 0.6448278454	-0.4663096405	-1.217417027	-0.253064
C	 0.4190632602	-1.8428789028	-1.4252131874	-0.116286
C	 0.8065739501	-2.6879833748	-0.2321466132	 0.041468
O	 2.112912081	-2.4694177239	 0.2913539837	-0.245446
C	 0.990758547	-2.0365368108	 1.0747927085	 0.026175
C	 0.800313025	-0.5272042595	 1.2205912497	-0.02338
C	 2.1507000347	 0.1561999356	 1.4805393513	-0.392861
H	 0.9765516265	 1.950547662	-0.2833161196	 0.13358
H	-0.6505304773	 1.8187403486	-0.9638213114	 0.121248
H	-0.4361442762	 1.963886474	 0.7932825628	 0.112879
H	-0.9869556467	-0.3794792685	 0.0359086783	 0.059291
H	-0.6445907228	-2.0355267167	-1.6545100242	 0.087442
H	 1.0100570678	-2.1274984784	-2.3022841233	 0.118324
H	 0.4945381514	-3.7327413303	-0.2785652654	 0.088513
H	 0.8443181796	-2.628566409	 1.9784952657	 0.089158
H	 0.1486866738	-0.3667796375	 2.0896027524	 0.070221
H	 2.7915758552	 0.0703417996	 0.6003231562	 0.144525
H	 2.0242559421	 1.2136152868	 1.7264492018	 0.110665
H	 2.667888016	-0.3225526225	 2.3178912986	 0.113369
89.2189	201.998	220.3552	243.4951	283.8292	297.6883	315.9993	353.5589	423.19	478.9052	552.6001	667.5462	734.7986	745.6338	817.1015	850.1093	879.8967	923.4062	962.2084	996.9926	1009.6669	1032.5671	1074.8259	1103.8057	1109.0447	1141.0894	1152.673	1182.2064	1192.4889	1278.8201	1295.9322	1325.3882	1335.8297	1369.1434	1377.1832	1390.8879	1401.5349	1412.5756	1418.113	1472.6805	1481.535	1482.9956	1494.4264	1502.3652	1512.1381	2936.2791	2949.5788	3020.6956	3046.0081	3048.7302	3071.261	3093.7129	3107.2471	3110.9218	3118.4746	3128.868	3137.4378
CC1OCC2OC2C1C	C[C@H]1OC[C@H]2O[C@H]2[C@H]1C	
InChI=1S/C7H12O2/c1-4-5(2)8-3-6-7(4)9-6/h4-7H,3H2,1-2H3	InChI=1S/C7H12O2/c1-4-5(2)8-3-6-7(4)9-6/h4-7H,3H2,1-2H3/t4-,5+,6+,7-/m0/s1
