21
gdb 71354	2.85624	1.85471	1.48936	0.0448	85.52	-0.247	0.0973	0.3443	978.655	0.184732	-349.899651	-349.892438	-349.891494	-349.930891	30.519	
C	 0.0869752183	 1.547816393	-0.2105611855	-0.523881
C	 0.0347497034	 0.0467491324	-0.0352450996	 0.321853
C	 0.5611073482	-0.9364448746	-1.1143115958	-0.284033
C	 0.0494537819	-1.8416659406	 0.0132778664	-0.053686
C	 0.6760876285	-0.8680596527	 1.0775353794	-0.057735
C	-0.2129769534	-0.9263417654	 2.3158491897	-0.055883
C	-1.1955883641	 0.1902973483	 2.5793580514	-0.312478
C	-1.5840742936	-0.9532737835	 1.6719499136	-0.055941
C	-1.2007383897	-0.9052328102	 0.1961168506	-0.05772
H	 1.1246792949	 1.8719794799	-0.3517379343	 0.118661
H	-0.4717660983	 1.8388735423	-1.1077566749	 0.118636
H	-0.3224449157	 2.1128732234	 0.6288507943	 0.124065
H	 0.0099746162	-0.9579085179	-2.0600017402	 0.082842
H	 1.6409868964	-0.9256237932	-1.2939638495	 0.082853
H	 0.0497371058	-2.9324612262	 0.058745057	 0.062759
H	 1.7608481291	-0.8490712295	 1.2054361264	 0.056163
H	 0.0593273136	-1.5944580162	 3.1254474243	 0.081097
H	-1.6574031799	 0.1915166811	 3.562519789	 0.104982
H	-1.0287014901	 1.1820375242	 2.1831423108	 0.110177
H	-2.3591773293	-1.6418417703	 1.9898544452	 0.081103
H	-1.9919591423	-0.9234933142	-0.5569131284	 0.056165
102.9069	212.6101	276.035	330.7155	385.616	421.904	501.0448	625.8952	682.7275	684.4492	748.6378	806.5927	814.8288	819.9271	885.1669	897.0091	911.9245	926.6391	961.1835	999.7635	1003.9793	1006.1872	1026.2826	1059.5689	1064.751	1073.6844	1087.9619	1102.5329	1127.8936	1151.503	1181.6852	1192.4187	1208.6975	1217.9233	1236.1926	1272.0845	1285.98	1328.0276	1342.5303	1384.7161	1409.4334	1478.2724	1488.4148	1502.7285	1519.2136	3028.6371	3035.0601	3084.2244	3084.8925	3085.993	3092.3003	3097.1902	3120.646	3138.1089	3162.7119	3172.9524	3236.8297
CC12CC3C1C1CC1C23	C[C@@]12C[C@H]3[C@@H]1[C@H]1C[C@H]1[C@@H]23	
InChI=1S/C9H12/c1-9-3-6-7(9)4-2-5(4)8(6)9/h4-8H,2-3H2,1H3	InChI=1S/C9H12/c1-9-3-6-7(9)4-2-5(4)8(6)9/h4-8H,2-3H2,1H3/t4-,5+,6-,7-,8+,9+
