20
gdb 36365	2.48072	1.18022	0.99787	1.0465	85.23	-0.2238	0.0393	0.2631	1291.4241	0.169518	-365.923838	-365.914581	-365.913637	-365.958309	34.82	
C	-0.9241206639	 0.2646477146	-0.7961295271	-0.46497
C	-0.1049576598	 0.6170007877	 0.0117736238	 0.302955
C	 0.9259144096	 1.010024226	 0.9779675717	-0.283298
N	 1.879992826	 2.0608836689	 0.5984096095	-0.105397
C	 1.9779658082	 2.5188494497	-0.784521631	-0.270918
C	 1.4274001621	 3.4177741246	 0.271146768	 0.012913
C	-0.0088541695	 3.8333359671	 0.2932933581	 0.004382
C	-0.5527645336	 4.5482315377	 1.5117559384	-0.268686
C	-0.3449528663	 5.30447114	 0.2263647911	-0.279418
H	-1.6564863663	-0.0465979136	-1.4995991289	 0.20005
H	 0.4478507237	 1.318457817	 1.9151797308	 0.141672
H	 1.5189323484	 0.1174254383	 1.2145569418	 0.13989
H	 2.9877222318	 2.6516584192	-1.1654986161	 0.110135
H	 1.2668788553	 2.117231677	-1.503511719	 0.12235
H	 2.0947613715	 4.176497039	 0.6832669652	 0.081961
H	-0.6942454891	 3.1636506632	-0.212573773	 0.103421
H	-1.5668818584	 4.3271391812	 1.8254735697	 0.11329
H	 0.1339630631	 4.7444293174	 2.3288242527	 0.113593
H	 0.4785036601	 6.0099171413	 0.1805448601	 0.112998
H	-1.215283753	 5.6023820536	-0.3473033557	 0.113077
60.5204	78.7252	125.1423	173.7973	223.9109	298.7831	329.9673	346.3218	423.2594	508.0196	585.4724	611.2171	659.8636	736.8611	771.0565	811.4791	835.1594	882.052	920.4577	926.4126	952.143	984.9198	1009.2569	1059.1704	1069.9481	1078.1134	1105.9586	1128.6127	1138.7563	1170.5601	1200.3321	1219.0652	1230.9688	1279.5176	1317.9882	1333.1638	1366.6747	1454.1263	1468.9041	1469.647	1503.1196	1511.2664	2222.2954	3023.5561	3059.5698	3086.0096	3096.3198	3129.5033	3134.0363	3179.9352	3183.5687	3208.1895	3224.0664	3502.0289
C#CCN1CC1C1CC1	C#CCN1C[C@H]1C1CC1	
InChI=1S/C8H11N/c1-2-5-9-6-8(9)7-3-4-7/h1,7-8H,3-6H2	InChI=1S/C8H11N/c1-2-5-9-6-8(9)7-3-4-7/h1,7-8H,3-6H2/t8-,9?/m0/s1
