14
gdb 62355	4.21547	1.14773	1.1093	2.4207	71.75	-0.2502	-0.0116	0.2387	1093.6884	0.098481	-436.604309	-436.596387	-436.595442	-436.636556	30.49	
O	-0.0436025422	 1.3861523861	 0.0002923424	-0.454979
C	-0.0368081315	 0.0001990416	 0.0121625983	 0.217437
C	 1.0375360605	-0.5779210902	-0.7500003922	 0.275617
C	 1.9246192549	-1.0861066565	-1.3809853165	-0.387291
C	-0.4875569999	-0.7685428992	 1.2147593452	-0.007408
O	-1.4956596973	 0.0215929985	 1.8927174202	-0.296218
C	-2.3667469627	-0.1504726044	 0.7927016639	 0.432277
N	-3.5674032946	 0.1672776226	 0.6640437889	-0.541062
C	-1.3490637864	-0.8543780253	-0.0323133846	-0.263592
H	-0.4680974326	 1.6720486844	 0.8207250199	 0.303131
H	 2.7151779738	-1.5216776989	-1.9412073256	 0.204848
H	 0.0566755001	-1.5007377169	 1.7957131163	 0.139265
H	-3.9303784488	 0.6296981754	 1.49870707	 0.238438
H	-1.5087602534	-1.6367695772	-0.7580281261	 0.139537
120.5469	129.1812	172.8564	275.3502	361.017	370.8482	430.0455	478.0294	536.4598	557.5327	608.6988	671.0673	693.1047	737.7327	750.5597	831.1884	861.1733	866.1447	915.5737	968.6508	988.6771	1023.9542	1076.1294	1099.7471	1170.6168	1220.4631	1260.4708	1340.9997	1415.0311	1839.6378	2245.3331	3213.6759	3246.9753	3488.4685	3500.6584	3761.586
OC1(C#C)C2OC(=N)C12	O[C@@]1(C#C)[C@H]2O[C]([NH])[C@@H]12	
InChI=1S/C6H5NO2/c1-2-6(8)3-4(6)9-5(3)7/h1,3-4,7-8H	InChI=1S/C6H5NO2/c1-2-6(8)3-4(6)9-5(3)7/h1,3-4,7-8H/t3-,4-,6+/m0/s1
