19
gdb 51881	4.18007	0.87603	0.76429	2.8355	73.21	-0.2393	-0.0219	0.2174	1458.7112	0.159049	-460.166227	-460.157565	-460.156621	-460.200543	31.544	
O	-0.5207927938	 0.6470082747	 0.8379523286	-0.242145
C	 0.075497801	 0.962728065	-0.1598623404	 0.155259
C	 1.3517025685	 1.7801880324	-0.1651358554	-0.302461
C	 1.3432253506	 2.8754751784	-1.2307210075	 0.096477
C	 2.5665012707	 3.7910873662	-1.1469529253	-0.08932
O	 2.5697950976	 4.7257023199	-2.211497796	-0.250384
C	 2.5411571643	 4.0708650535	-3.4705096011	-0.07922
C	 1.3197435554	 3.1650557706	-3.5693729581	-0.082288
O	 1.3143875052	 2.2282405206	-2.500172617	-0.268016
H	-0.28113399	 0.662952683	-1.1680289538	 0.09676
H	 1.5046863213	 2.1966125545	 0.8345540543	 0.123556
H	 2.1852722961	 1.0996722727	-0.3882574089	 0.132899
H	 0.4414519247	 3.5037228007	-1.1253919806	 0.081818
H	 2.5573619192	 4.3701901773	-0.2188578396	 0.11482
H	 3.4809013541	 3.1740944525	-1.1712865503	 0.091694
H	 2.5137950721	 4.8534176763	-4.2345020395	 0.112436
H	 3.4559340991	 3.4717665629	-3.6097219959	 0.09597
H	 0.4033151215	 3.7757842462	-3.5436225454	 0.099911
H	 1.3305280625	 2.5850477027	-4.4969224282	 0.112235
55.2508	73.9873	125.9476	199.1265	263.8249	330.1964	355.7676	416.7732	457.3102	491.0602	530.1597	625.3636	799.7939	838.2845	888.5468	913.807	966.2777	983.8837	1021.0563	1098.3093	1111.8836	1117.4162	1140.081	1145.8097	1152.8231	1229.5344	1250.6556	1278.1224	1302.4512	1326.654	1351.4314	1378.918	1393.352	1412.981	1423.0393	1425.9086	1443.7512	1480.5399	1487.2907	1493.0306	1831.6343	2914.9471	2953.3412	2969.1262	2976.3605	2988.7902	3025.4563	3088.2485	3090.497	3090.6813	3105.048
O=CCC1COCCO1	O=CC[C@H]1COCCO1	
InChI=1S/C6H10O3/c7-2-1-6-5-8-3-4-9-6/h2,6H,1,3-5H2	InChI=1S/C6H10O3/c7-2-1-6-5-8-3-4-9-6/h2,6H,1,3-5H2/t6-/m0/s1
