18
gdb 61570	3.48221	0.86488	0.76249	3.5238	69.	-0.2609	0.0145	0.2754	1480.273	0.146039	-476.231023	-476.221403	-476.220458	-476.266555	34.506	
N	-0.0675409104	 1.305662621	 0.0607219163	-0.518749
C	-0.0189190669	-0.0465728715	-0.0173166418	 0.377288
O	 1.0210000657	-0.6766940617	-0.1229169504	-0.374475
C	-1.3591843337	-0.7915292604	 0.0661746853	 0.037811
O	-1.1455675016	-2.1300063517	-0.2973574345	-0.44014
C	-1.9563190594	-0.7017189706	 1.4872238513	-0.234314
C	-3.2997484384	-1.3846592978	 1.549217412	 0.098215
C	-4.3742814261	-0.9114776904	 2.4279900886	-0.182282
O	-4.402061994	-0.630046426	 1.0270809164	-0.244196
H	 0.7900368596	 1.8251064898	-0.0345992845	 0.269308
H	-0.9393711088	 1.8052389828	 0.0267174619	 0.270391
H	-2.0704580881	-0.3327775551	-0.6372743933	 0.099563
H	-0.1771844656	-2.2249110955	-0.3174344171	 0.293031
H	-1.2586904306	-1.1829220302	 2.1834285782	 0.114222
H	-2.0714608835	 0.3448531706	 1.7910485153	 0.092661
H	-3.2972070168	-2.4315657261	 1.2495463894	 0.116272
H	-5.1337665181	-1.6074603151	 2.7813649963	 0.116812
H	-4.1998843533	-0.0515417322	 3.0745179907	 0.108582
55.7965	62.4004	87.2731	139.0269	230.8877	261.0042	316.7761	340.3396	420.4208	440.8429	491.987	524.265	564.1495	656.8868	719.2199	792.0703	851.798	857.6066	926.1453	958.7154	1021.1742	1089.5914	1101.5968	1108.5122	1155.5008	1156.989	1175.7476	1238.709	1250.0423	1291.4568	1313.6642	1356.2038	1374.6804	1440.1469	1456.1127	1471.6472	1530.2044	1622.4628	1785.9842	2996.2821	3032.9638	3079.2032	3082.8543	3132.4543	3165.7115	3600.2863	3643.2841	3732.6055
NC(=O)C(O)CC1CO1	NC(=O)[C@@H](O)C[C@H]1CO1	
InChI=1S/C5H9NO3/c6-5(8)4(7)1-3-2-9-3/h3-4,7H,1-2H2,(H2,6,8)	InChI=1S/C5H9NO3/c6-5(8)4(7)1-3-2-9-3/h3-4,7H,1-2H2,(H2,6,8)/t3-,4-/m0/s1
