20
gdb 76446	2.93388	0.99575	0.93803	3.5907	78.19	-0.2515	0.0251	0.2767	1366.9218	0.167702	-440.265239	-440.254837	-440.253893	-440.30051	37.463	
C	-0.1668921428	 1.5085718414	 0.0659675824	-0.43175
C	 0.034193051	 0.0095694574	 0.0843593438	-0.103821
C	 1.3964143386	-0.6166126826	-0.1815504147	 0.011087
O	 2.5316399165	 0.1889957575	-0.30570829	-0.417355
C	 0.776692386	-0.6997151023	 1.1908842303	 0.356918
C	 1.3602118018	 0.0341106999	 2.3736305237	-0.447659
O	 0.1813505552	-1.9435257218	 1.5314547837	-0.223996
C	 1.0260587115	-2.9739750005	 1.7547161457	 0.109107
N	 0.5732794131	-4.0814805127	 2.1575556551	-0.445658
H	 0.7592234907	 2.0428136467	 0.2907580847	 0.127512
H	-0.5069536705	 1.8361422594	-0.9223906044	 0.119374
H	-0.9236751315	 1.8187766172	 0.7936513953	 0.12942
H	-0.7979801935	-0.5720157432	-0.3025892557	 0.105364
H	 1.4132523827	-1.5342868611	-0.7689954612	 0.098616
H	 2.4985645818	 0.6245669751	-1.1643495935	 0.294222
H	 2.1109385714	-0.5832951067	 2.8778466127	 0.121686
H	 1.849484715	 0.9566171181	 2.0605771924	 0.140607
H	 0.5754442191	 0.2708715821	 3.0987071175	 0.130857
H	 2.0750697806	-2.7351286366	 1.5377856178	 0.098208
H	 1.3357679632	-4.7489437973	 2.2557243245	 0.227262
77.1165	123.1229	140.9152	150.0243	167.0895	193.6762	221.5542	269.924	301.5779	338.436	387.5938	420.125	521.8854	579.2186	621.0954	739.9679	821.4529	831.0068	876.7835	953.1498	975.4609	1026.9339	1052.1085	1062.0428	1087.3334	1118.928	1132.9751	1161.6276	1175.1359	1228.4546	1274.5227	1288.8422	1319.7962	1376.7383	1408.9721	1415.8581	1420.9145	1458.5878	1482.3735	1491.9196	1502.5037	1513.5122	1741.6271	3037.0256	3037.5325	3045.113	3094.7571	3102.9441	3103.7882	3119.2226	3151.6294	3154.4539	3513.7126	3799.5636
CC1C(O)C1(C)OC=N	C[C@H]1[C@@H](O)[C@]1(C)O[CH][NH]	
InChI=1S/C6H11NO2/c1-4-5(8)6(4,2)9-3-7/h3-5,7-8H,1-2H3	InChI=1S/C6H11NO2/c1-4-5(8)6(4,2)9-3-7/h3-5,7-8H,1-2H3/t4-,5+,6+/m0/s1
