18
gdb 37912	2.65134	2.03781	1.45747	2.3831	74.99	-0.2318	0.0336	0.2654	925.6617	0.150904	-401.92021	-401.913305	-401.91236	-401.952037	27.538	
C	-0.0903851163	 1.4048766395	-0.0929291568	-0.290659
C	 1.4274154453	 1.5891572066	-0.0188848583	-0.064544
C	 1.9410025959	 1.0545383618	 1.2865816854	-0.040657
C	 1.2025833774	 1.1536437093	 2.6259292967	-0.18765
N	 0.1434633825	 0.24183257	 2.9991293179	-0.262803
C	-0.5296126596	-0.5662870212	 2.309963304	 0.128698
O	-0.5708509324	-0.8943843621	 0.9909483648	-0.234379
C	 0.1466703497	-0.1371951869	 0.0265711296	 0.128044
C	 1.6427775162	 0.0761493766	 0.1871222916	-0.118714
H	-0.6693609226	 1.8727077422	 0.7081216806	 0.114967
H	-0.5365929046	 1.6757219956	-1.0512850495	 0.109298
H	 2.0068861431	 2.2662963114	-0.6333603404	 0.089878
H	 3.0116464033	 1.2161921522	 1.3954520665	 0.091338
H	 1.9572613898	 1.0629721544	 3.4171485798	 0.116438
H	 0.8035004046	 2.1727939534	 2.7415389102	 0.116675
H	-1.2725206994	-1.1846909376	 2.8162226636	 0.115392
H	-0.0842763989	-0.6317259039	-0.9182197139	 0.09977
H	 2.4029019662	-0.5774569513	-0.2238153317	 0.088908
42.0437	198.5471	293.4367	379.7483	398.1434	477.3581	509.7788	636.0266	709.2546	761.243	786.4138	814.2155	838.1869	877.1819	940.5923	955.6202	981.9122	984.0155	995.5771	1016.5695	1041.8403	1061.9155	1075.5872	1116.4298	1144.2417	1178.1829	1188.6727	1241.1926	1268.3014	1300.8172	1312.8981	1350.8882	1384.4473	1395.4777	1446.075	1448.5308	1474.7594	1495.6922	1785.3731	2994.7903	3030.8911	3063.0853	3095.3551	3121.1251	3124.3099	3127.4519	3179.1637	3195.909
C1C2C3CN=COC1C23	C1[C@H]2[C@H]3CN=CO[C@@H]1[C@@H]23	
InChI=1S/C7H9NO/c1-4-5-2-8-3-9-6(1)7(4)5/h3-7H,1-2H2	InChI=1S/C7H9NO/c1-4-5-2-8-3-9-6(1)7(4)5/h3-7H,1-2H2/t4-,5+,6-,7-/m0/s1
