12
gdb 21399	3.95306	2.05981	1.35419	2.016	62.5	-0.2577	-0.0746	0.183	823.6523	0.085494	-410.823556	-410.817126	-410.816182	-410.854434	23.98	
N	-0.0208909128	 1.2331352518	 0.4787919166	-0.552045
C	-0.0197704296	 0.0898247153	-0.0542154652	 0.503366
N	-1.1827230516	-0.5439832328	-0.426196018	-0.370879
C	-1.2590506762	-1.7880134867	-1.0115080704	 0.366802
N	-2.3890743206	-2.2926609378	-1.3213935599	-0.519185
C	 0.0666171436	-2.3918942019	-1.2058286249	-0.023365
N	 1.1848956411	-1.8640992105	-0.8859672265	-0.037055
O	 1.1567411805	-0.5991765712	-0.2978749551	-0.27838
H	 0.9269503338	 1.5404318214	 0.6845192911	 0.241569
H	-2.0417356866	-0.0418243821	-0.2487099461	 0.285708
H	-2.2711664978	-3.212385655	-1.7426365519	 0.231691
H	 0.1358539163	-3.3756692905	-1.6601076396	 0.151774
105.3146	126.4304	361.0603	371.2286	491.2266	514.7276	581.1892	623.0316	699.7849	724.3594	729.4351	799.8148	824.4472	912.0667	917.3887	924.3251	1006.9701	1099.4843	1156.2726	1302.3097	1360.8918	1407.398	1463.4349	1660.0736	1730.6668	1785.5394	3189.2543	3507.758	3536.3339	3615.1425
N=C1NC(=N)C=NO1	[NH][C]1N[C]([NH])C=NO1	
InChI=1S/C3H4N4O/c4-2-1-6-8-3(5)7-2/h1H,(H3,4,5,7)	InChI=1S/C3H4N4O/c4-2-1-6-8-3(5)7-2/h1H,(H3,4,5,7)
