19
gdb 94105	4.18811	0.83017	0.76005	3.332	73.91	-0.2616	0.0049	0.2665	1510.6407	0.15827	-460.195503	-460.186334	-460.18539	-460.231293	32.4	
C	-0.2709159865	 1.3744980323	-0.0740846423	-0.405004
C	 0.0889082354	-0.0990568556	-0.0961725994	 0.144454
C	 1.1654865086	-0.513743889	-1.1085410197	-0.234548
C	 1.6985337856	-1.8196513798	-0.5067941296	 0.06501
C	 1.382686818	-1.6672484256	 1.0022648103	-0.087821
O	 0.6692571761	-0.4524649373	 1.1613426994	-0.263745
O	 0.9616166958	-2.9406560433	-1.0288561489	-0.191733
C	 1.6240375204	-3.8760973571	-1.7336866226	 0.167035
O	 1.0838571461	-4.8208156623	-2.2243140013	-0.274128
H	 0.6229008859	 1.9839283418	 0.0915913282	 0.12153
H	-0.7281241902	 1.6712523155	-1.0228749389	 0.119581
H	-0.9823867122	 1.5822828695	 0.7295585785	 0.131304
H	-0.8175043674	-0.7033256286	-0.2672899402	 0.0827
H	 0.793617516	-0.6577054348	-2.1247718506	 0.118949
H	 1.9607015109	 0.2394175053	-1.124644501	 0.10917
H	 2.7639819743	-1.9774786424	-0.701186931	 0.092124
H	 0.7866404842	-2.5320630644	 1.323743781	 0.116744
H	 2.286306643	-1.614997389	 1.6177803075	 0.111222
H	 2.7113824659	-3.6727932452	-1.8002590894	 0.077157
29.5208	41.4264	128.8759	161.5707	225.8928	267.3063	285.3596	350.1714	431.6365	473.1214	592.014	637.4093	752.0443	847.361	873.6872	909.2563	909.9412	987.3542	999.9295	1043.8804	1056.1773	1083.944	1126.5586	1143.6192	1155.958	1198.9889	1207.6394	1249.953	1269.2193	1311.6872	1354.7309	1370.6778	1393.6486	1399.4335	1415.5711	1442.4645	1468.7768	1484.5458	1498.3006	1511.3081	1866.616	2939.9902	2966.7793	3015.7784	3041.9858	3048.5239	3060.4201	3079.7159	3115.7506	3121.7917	3124.3852
CC1CC(CO1)OC=O	C[C@H]1C[C@@H](CO1)OC=O	
InChI=1S/C6H10O3/c1-5-2-6(3-8-5)9-4-7/h4-6H,2-3H2,1H3	InChI=1S/C6H10O3/c1-5-2-6(3-8-5)9-4-7/h4-6H,2-3H2,1H3/t5-,6-/m0/s1
