20
gdb 107880	2.36203	1.64639	1.15907	1.5763	78.92	-0.2284	0.06	0.2884	1124.4312	0.170473	-403.048845	-403.04038	-403.039436	-403.081883	32.776	
C	-0.0426894634	 1.5814221284	-0.0369310237	-0.380436
C	-0.0491448208	 0.0499365911	 0.0512708186	-0.325561
C	 0.6951797683	-0.4703096213	 1.2568944882	 0.346653
C	 0.4544580958	-0.2178004176	 2.7468786294	-0.230762
N	 1.6594583771	-1.1482661883	 2.8282998956	-0.173909
C	 1.1032802238	-1.9416783782	 1.6146281349	-0.090479
C	 2.4600838494	-1.8646089217	 0.9241203547	 0.118676
O	 2.4273058367	-2.0071430832	-0.4742549341	-0.438031
C	 2.2385311914	-0.4792759017	 1.5531885047	-0.104738
H	 0.9788152563	 1.9692534655	-0.1144853948	 0.114831
H	-0.5978006538	 1.9275385398	-0.9137778996	 0.114226
H	-0.5023526199	 2.0346572646	 0.8479964624	 0.116799
H	-1.0858656478	-0.3104846285	 0.0953065828	 0.095747
H	 0.3969057472	-0.3848608462	-0.8486866816	 0.12057
H	 0.6532210781	 0.7827531726	 3.1464124736	 0.097193
H	-0.4494915886	-0.6375672797	 3.2031202699	 0.09623
H	 0.4457419663	-2.7995208183	 1.7687796062	 0.079162
H	 3.2520519091	-2.462871603	 1.3939842077	 0.081539
H	 3.3088806637	-1.8307141274	-0.8170446214	 0.287871
H	 2.9114401509	 0.3768687532	 1.6416548565	 0.074419
70.9589	159.2271	179.6652	225.0521	265.3194	281.8946	342.5888	419.0584	469.7267	542.8608	638.9645	723.1153	771.8819	810.5759	854.4235	885.2863	894.4678	919.7189	924.8684	980.348	983.6979	1044.2002	1066.8044	1072.5077	1104.4123	1125.1011	1138.1573	1145.4174	1186.6097	1205.0726	1211.7449	1250.928	1276.6588	1290.1821	1313.1038	1339.2312	1379.1466	1410.0686	1436.4842	1481.9458	1500.4989	1505.657	1521.3573	3019.1586	3020.7968	3026.6834	3032.7518	3077.8128	3084.1071	3087.3456	3099.9002	3102.0283	3106.7904	3822.4448
CCC12CN3C1C(O)C23	CC[C@@]12CN3[C@@H]1[C@@H](O)[C@@H]23	
InChI=1S/C7H11NO/c1-2-7-3-8-5(7)4(9)6(7)8/h4-6,9H,2-3H2,1H3	InChI=1S/C7H11NO/c1-2-7-3-8-5(7)4(9)6(7)8/h4-6,9H,2-3H2,1H3/t4-,5-,6+,7-
