23
gdb 115267	3.4697	0.91327	0.88603	2.6108	81.84	-0.2374	0.0729	0.3103	1456.1982	0.204476	-425.439699	-425.42954	-425.428596	-425.475517	37.964	
C	-0.2380567026	 1.6348795736	 0.0523554085	-0.419882
C	 0.0331951527	 0.1289218972	-0.019000209	 0.404607
C	-1.2702865678	-0.6681488115	 0.0859510333	-0.413629
C	 0.8616000106	-0.2617478455	-1.2740211333	-0.30545
C	 1.9508565259	-1.1979813283	-0.7274209566	 0.025749
C	 3.215699537	-1.2478825798	-1.5663451651	-0.101679
O	 4.1339328464	-2.1155767136	-0.9154685045	-0.424266
C	 2.1442673526	-0.6248652812	 0.6804647083	-0.07916
O	 0.848032571	-0.2475740151	 1.1133306613	-0.299317
H	 0.7022645638	 2.1947369237	 0.0590303931	 0.111552
H	-0.8292446416	 1.9688842921	-0.8073968004	 0.108278
H	-0.7883696216	 1.8817513821	 0.9651471034	 0.119083
H	-1.9788406318	-0.3685480617	-0.6934139236	 0.106887
H	-1.0773937112	-1.7406038847	-0.0135255576	 0.11229
H	-1.7361292884	-0.4974667894	 1.0608352107	 0.121786
H	 0.24184785	-0.7272421047	-2.0445415642	 0.102399
H	 1.3226474438	 0.6295705023	-1.7166218537	 0.092977
H	 1.5570841895	-2.2172717736	-0.6380371515	 0.086337
H	 2.9802090153	-1.6048158332	-2.5817587999	 0.087483
H	 3.6302192395	-0.2301887013	-1.6644808893	 0.083116
H	 4.94307157	-2.1451648466	-1.4340671793	 0.2877
H	 2.5515807071	-1.3429645565	 1.3957305576	 0.116509
H	 2.8243009896	 0.2448047656	 0.646504242	 0.076629
19.6012	108.513	141.1952	191.0919	230.4064	265.6635	267.3954	301.0366	331.3483	367.0563	415.8723	448.9328	456.8676	589.6718	630.1253	776.7591	862.5588	884.1945	891.9404	930.0262	946.8645	967.1253	1006.5491	1053.6901	1068.7467	1075.8525	1093.419	1128.7451	1175.5233	1180.5982	1217.5095	1242.0858	1259.9959	1270.2539	1290.1363	1310.2028	1342.0326	1349.3648	1397.6074	1401.2011	1416.8426	1459.9969	1476.3242	1483.9647	1492.5761	1496.996	1505.4809	1516.3262	1524.2018	2944.8525	2956.7108	2987.0138	3029.6723	3031.2271	3037.4544	3044.5282	3094.4994	3100.3746	3101.2002	3108.064	3111.2127	3116.067	3831.403
CC1(C)CC(CO)CO1	CC1(C)C[C@@H](CO)CO1	
InChI=1S/C7H14O2/c1-7(2)3-6(4-8)5-9-7/h6,8H,3-5H2,1-2H3	InChI=1S/C7H14O2/c1-7(2)3-6(4-8)5-9-7/h6,8H,3-5H2,1-2H3/t6-/m0/s1
