17
gdb 112476	2.49446	1.40702	0.96497	3.9916	70.92	-0.2635	-0.0054	0.2581	1193.0043	0.136032	-459.000643	-458.992224	-458.99128	-459.034974	30.791	
O	-0.0278926454	 1.3643678787	-0.1059931522	-0.41804
C	-0.0193192084	-0.0409934492	-0.173541016	-0.05429
C	-1.3759330535	-0.6371161839	 0.2343177584	 0.05318
O	-2.3565726015	-0.0324372075	-0.6384089491	-0.258993
C	-3.1015768154	-0.6975905474	-1.5552570777	 0.410517
O	-3.8100604762	-0.0674911496	-2.2903833029	-0.32036
C	-3.0253415943	-2.2151723256	-1.6025545018	-0.404353
C	-2.1195304272	-2.8506716446	-0.5946916817	-0.075161
C	-1.380546272	-2.1286369165	 0.2375786636	-0.081662
H	-0.778700361	 1.6619127596	-0.6339285067	 0.297838
H	 0.2343404148	-0.4097904578	-1.1807423085	 0.094261
H	 0.7540847628	-0.3925722309	 0.5175251013	 0.113427
H	-1.6178301711	-0.2510568517	 1.2333523245	 0.115576
H	-4.0545547054	-2.5826001751	-1.5037454112	 0.154578
H	-2.7317862573	-2.482233854	-2.6260695526	 0.154654
H	-2.091837695	-3.9360865348	-0.563481141	 0.108692
H	-0.727646244	-2.5977682897	 0.9676467534	 0.110136
34.8444	73.6393	130.0619	192.5792	318.2865	414.9801	443.1362	461.9654	481.3531	541.3217	550.9202	576.2082	708.893	741.4471	886.0151	930.85	969.4544	976.2282	1001.6521	1008.9689	1079.3951	1088.7443	1118.9065	1174.0946	1213.4041	1217.6552	1245.2307	1289.7929	1353.2598	1384.0489	1400.1354	1418.5484	1432.4918	1448.792	1496.3278	1749.8615	1845.9438	2976.4117	3026.8792	3033.0212	3055.7487	3078.4198	3163.1271	3185.0145	3793.2282
OCC1OC(=O)CC=C1	OC[C@H]1OC(=O)CC=C1	
InChI=1S/C6H8O3/c7-4-5-2-1-3-6(8)9-5/h1-2,5,7H,3-4H2	InChI=1S/C6H8O3/c7-4-5-2-1-3-6(8)9-5/h1-2,5,7H,3-4H2/t5-/m0/s1
