16
gdb 54469	3.60452	1.3734	1.13311	4.4219	69.9	-0.2102	0.0068	0.217	1056.0065	0.124821	-433.985446	-433.977739	-433.976794	-434.017678	30.172	
N	 0.0776082761	 1.2499323836	-0.2319441466	-0.541999
C	 0.0088900822	-0.0608005622	 0.1556576476	 0.302387
O	 0.9743861553	-0.6778113063	 0.5766903669	-0.382243
C	-1.3115208574	-0.7116838459	-0.0089333073	 0.262144
N	-1.6397357653	-1.8793989397	 0.8463820206	-0.341224
C	-1.5206012702	-2.0762924343	-0.5921632441	-0.09393
C	-2.8143660373	-1.567110295	-1.3032681506	-0.056693
N	-3.7509573954	-1.0450532291	-0.2781608495	-0.301982
C	-2.6110411818	-0.2181177362	-0.7329485597	-0.1672
H	 0.9297673187	 1.7397560146	-0.0081135538	 0.263715
H	-0.7600538667	 1.7996677789	-0.3226091757	 0.260021
H	-0.7369992411	-2.148960459	 1.2464808222	 0.252212
H	-0.7688862378	-2.7183348814	-1.0323075676	 0.118079
H	-3.1466655344	-1.863712622	-2.2888501125	 0.102375
H	-4.5701464564	-0.7096005424	-0.7869830062	 0.232141
H	-2.7516263484	 0.7522900164	-1.1922303638	 0.092196
77.5639	158.7016	184.0315	336.7936	353.8772	402.1217	437.0336	473.641	555.018	622.2366	666.9944	737.1331	752.4896	799.4154	813.1799	846.244	881.0055	907.5461	910.7818	957.8344	1009.18	1025.1693	1092.5585	1095.3313	1111.6686	1155.337	1236.6082	1244.101	1264.6062	1314.8061	1361.0203	1369.3646	1428.9088	1618.2857	1768.7881	3186.0607	3204.2286	3212.9352	3443.6626	3461.0462	3591.7051	3720.8763
NC(=O)C12NC1C1NC21	NC(=O)[C@]12N[C@H]1[C@H]1N[C@@H]21	
InChI=1S/C5H7N3O/c6-4(9)5-2-1(7-2)3(5)8-5/h1-3,7-8H,(H2,6,9)	InChI=1S/C5H7N3O/c6-4(9)5-2-1(7-2)3(5)8-5/h1-3,7-8H,(H2,6,9)/t1-,2+,3-,5+/m0/s1
