20
gdb 103238	2.60994	1.53266	1.18135	1.5341	78.21	-0.2207	0.0587	0.2794	1111.8174	0.169726	-403.042087	-403.033453	-403.032509	-403.075087	33.991	
C	 0.2995186771	 1.2563213336	 1.0468169275	-0.381905
C	 0.0904198455	 0.1658910965	-0.0116396499	-0.285625
C	-1.2436417647	-0.5591499725	 0.1128818779	 0.389171
O	-2.2751082117	 0.1712481851	-0.5326677965	-0.459805
C	-1.5495177953	-2.0128510347	-0.0750043044	-0.128734
C	-0.6979294872	-2.9854913234	 0.7622087017	-0.054312
C	 0.2533512355	-2.4107589506	 1.7460468856	-0.250536
N	-1.1824589558	-2.3982137327	 2.0658580008	-0.147419
C	-1.9060843703	-1.3539407783	 1.2467348612	-0.091465
H	 1.2300484213	 1.8036861804	 0.8701887585	 0.118694
H	-0.5157788788	 1.9888084388	 1.0306051105	 0.105202
H	 0.3397786632	 0.8342855575	 2.0563265495	 0.127945
H	 0.0794322583	 0.6201891718	-1.0091715664	 0.108664
H	 0.9277792844	-0.5339175252	-0.0125856593	 0.112144
H	-2.4530951516	 0.9561049062	-0.0025784568	 0.285697
H	-2.2107347135	-2.3501892051	-0.8623016141	 0.10379
H	-0.753230644	-4.0570749447	 0.5962787382	 0.10338
H	 0.7882076681	-3.1376724175	 2.3531211763	 0.120911
H	 0.7930889475	-1.4890144461	 1.59324326	 0.123745
H	-2.8725844078	-1.032615459	 1.6149427898	 0.10046
80.0983	128.0669	199.9645	245.2319	268.5367	317.8431	356.8659	384.4737	441.6403	531.0905	604.0309	660.1664	700.8019	731.8779	788.3146	804.1192	839.4888	894.333	923.8766	971.7525	979.7314	1005.9025	1009.8841	1040.3374	1055.5604	1080.2465	1093.2343	1112.1419	1132.6555	1160.0908	1221.0847	1241.6373	1259.4845	1285.3192	1300.5013	1346.9235	1359.5208	1411.5089	1433.1265	1481.1294	1497.3935	1501.7398	1514.8758	3030.4198	3045.3681	3085.5995	3108.7483	3110.1942	3128.0334	3154.3469	3184.9171	3202.4387	3256.8738	3797.683
CCC1(O)C2C3CN3C12	CC[C@@]1(O)[C@H]2[C@H]3CN3[C@@H]12	
InChI=1S/C7H11NO/c1-2-7(9)5-4-3-8(4)6(5)7/h4-6,9H,2-3H2,1H3	InChI=1S/C7H11NO/c1-2-7(9)5-4-3-8(4)6(5)7/h4-6,9H,2-3H2,1H3/t4-,5+,6-,7-,8?/m1/s1
