17
gdb 125969	3.7079	1.18035	1.01918	3.8442	74.7	-0.2163	-0.0085	0.2077	1176.5742	0.136322	-417.965211	-417.957306	-417.956362	-417.998344	29.513	
C	-0.5918469381	 1.4187464211	-0.0037106258	-0.411688
C	-0.1929552784	-0.0356115281	 0.0590068049	 0.013877
C	 1.1390528834	-0.4841664865	-0.4383161081	-0.25953
N	 0.8376339663	-0.5203840543	 0.9906477116	-0.175871
C	 1.5026205069	 0.3415400407	 1.8679413031	 0.155074
C	 1.0159879449	 1.0190466657	 2.9479430981	-0.00358
O	 2.0160178873	 1.65485494	 3.5888944099	-0.164126
N	 3.2102212225	 1.397358556	 2.9386794708	-0.131359
C	 2.9004572867	 0.6243671517	 1.9271335626	-0.03171
H	 0.2761555654	 2.081382393	 0.0337520517	 0.133289
H	-1.1321653856	 1.6135033473	-0.9356765994	 0.128975
H	-1.254681893	 1.6858823363	 0.8267131998	 0.125873
H	-1.0211119569	-0.7360683413	-0.0321088508	 0.100554
H	 1.2632957884	-1.4524251764	-0.9149769025	 0.123488
H	 1.8145728105	 0.292211504	-0.7941844001	 0.120149
H	 0.0309437474	 1.132452778	 3.3698400324	 0.145983
H	 3.6805037723	 0.2776715827	 1.264256892	 0.130603
48.873	122.8099	171.4725	215.3842	303.0982	372.6152	430.1629	522.6025	569.1968	622.3773	681.9926	796.1804	801.7494	866.7741	896.0614	909.3139	919.5319	933.6652	988.1949	1032.525	1049.9512	1122.6404	1128.7782	1142.4567	1159.8468	1192.2227	1206.6985	1256.4153	1344.09	1389.8047	1405.3289	1424.8909	1478.5747	1486.4668	1493.5859	1510.6887	1654.0126	3037.7989	3096.0374	3099.0202	3114.0349	3132.6356	3185.7439	3245.1442	3276.9511
CC1CN1C1=CON=C1	C[C@H]1CN1c1conc1	
InChI=1S/C6H8N2O/c1-5-3-8(5)6-2-7-9-4-6/h2,4-5H,3H2,1H3	InChI=1S/C6H8N2O/c1-5-3-8(5)6-2-7-9-4-6/h2,4-5H,3H2,1H3/t5-,8?/m0/s1
