19
gdb 119204	1.86577	1.38195	0.93123	4.546	77.66	-0.2413	0.0168	0.258	1327.8924	0.157532	-419.189123	-419.179051	-419.178107	-419.224523	36.032	
C	 0.0473336803	 1.5070609612	-0.1752534727	-0.389331
C	-0.1710036196	 0.0074923195	-0.2453073102	-0.06565
O	 0.8789918235	-0.5533898718	-1.0417043351	-0.289481
C	 0.8112571029	-1.9303193885	-1.2106856101	 0.270138
C	-0.1536533308	-2.4879788603	-2.253080219	-0.356896
C	 1.3359083885	-2.4442626354	-2.5355255096	-0.025784
N	 1.9592218832	-1.4985103626	-3.4158324989	-0.524278
C	 1.0602239807	-2.7061443528	-0.0121499468	 0.258311
N	 1.2448482006	-3.3163420868	 0.9530626426	-0.352255
H	 1.0177471589	 1.7336490161	 0.2743220573	 0.138282
H	 0.0170635574	 1.9520304252	-1.1740780498	 0.125128
H	-0.7342275628	 1.9706518197	 0.4335303846	 0.125455
H	-0.1473928203	-0.4406225409	 0.7572138335	 0.123006
H	-1.1436475023	-0.2340664215	-0.6973639949	 0.099468
H	-0.6308520893	-3.4417029476	-2.0578190611	 0.135064
H	-0.7729720955	-1.7421389984	-2.7399636402	 0.125494
H	 1.8484860206	-3.401026172	-2.4812255868	 0.123143
H	 1.6292748067	-1.6209573297	-4.3675303308	 0.234916
H	 1.7311431374	-0.5545701533	-3.1220617019	 0.245269
59.3811	92.5174	139.9766	149.1517	164.9884	198.4469	243.9024	293.5899	335.1873	396.2403	429.7194	500.3131	575.1841	620.9078	702.5506	807.4983	820.7394	843.8777	886.6102	933.4524	941.8963	1016.9262	1042.7196	1083.6949	1092.4798	1143.0372	1176.153	1186.9897	1237.8442	1286.6643	1288.8446	1298.8598	1402.2251	1415.0641	1429.4012	1464.5673	1483.8982	1499.284	1525.7267	1649.4666	2346.8797	3000.1751	3040.1838	3047.6627	3121.3538	3127.4561	3134.0101	3145.6944	3231.5099	3504.9643	3588.5462
CCOC1(CC1N)C#N	CCO[C@]1(C[C@H]1N)C#N	
InChI=1S/C6H10N2O/c1-2-9-6(4-7)3-5(6)8/h5H,2-3,8H2,1H3	InChI=1S/C6H10N2O/c1-2-9-6(4-7)3-5(6)8/h5H,2-3,8H2,1H3/t5-,6-/m1/s1
