17
gdb 50732	2.62232	1.50721	0.99085	1.5382	72.22	-0.2499	-0.0217	0.2282	1149.8194	0.138174	-455.180337	-455.172376	-455.171432	-455.213168	29.535	
N	 0.9742433895	-0.1000701645	 0.2537245183	-0.470522
C	-0.1823796485	 0.3613756729	-0.0008637882	 0.088812
N	-1.3021824417	-0.466920376	 0.0394897391	-0.126045
C	-1.1093181809	-1.8887050454	 0.3540154438	-0.144156
C	-2.4236303717	-2.5164270225	 0.7827155627	-0.111438
O	-3.4206336405	-2.2675348574	-0.1907428672	-0.237701
C	-3.7317768931	-0.8951629318	-0.2478146338	-0.192641
C	-2.5433499535	 0.064676339	-0.2865035118	 0.393775
O	-2.7135378208	 1.235596138	-0.5575778862	-0.362603
H	 1.6688224051	 0.6412182483	 0.1840555391	 0.234184
H	-0.445471885	 1.3855705415	-0.2650076912	 0.147253
H	-0.711887939	-2.4041986938	-0.5276559676	 0.131144
H	-0.3537808453	-1.9598076905	 1.1401462162	 0.145812
H	-2.3130080496	-3.6006608754	 0.8610226201	 0.125315
H	-2.737606426	-2.1286089966	 1.7658368933	 0.10132
H	-4.3194913224	-0.7221908155	-1.1521048861	 0.150814
H	-4.3501385968	-0.5883444602	 0.6131046994	 0.126674
86.8755	124.0073	178.4241	248.751	293.0174	351.3302	366.7926	487.5641	493.7189	571.9566	604.4575	680.472	756.1979	840.0001	891.5694	954.3436	1011.832	1019.0271	1087.7274	1094.919	1129.421	1153.78	1172.2599	1243.7269	1257.1392	1307.6549	1336.7379	1352.7213	1370.7751	1395.8068	1414.7859	1431.7805	1467.2902	1497.491	1511.4502	1710.924	1786.8916	2969.3341	2977.4797	3047.2687	3104.186	3108.6272	3112.1685	3141.3053	3507.2687
N=CN1CCOCC1=O	[NH][CH]N1CCOCC1=O	
InChI=1S/C5H8N2O2/c6-4-7-1-2-9-3-5(7)8/h4,6H,1-3H2	InChI=1S/C5H8N2O2/c6-4-7-1-2-9-3-5(7)8/h4,6H,1-3H2
