15
gdb 82022	2.71745	1.47215	1.32561	2.2154	66.38	-0.2536	0.0229	0.2765	999.1976	0.110119	-457.673381	-457.665223	-457.664279	-457.705803	31.476	
O	 0.0602820713	 1.4274930213	-0.0378982878	-0.434749
C	 0.1080385958	 0.0271475318	-0.0163089171	 0.019307
C	-1.2535089256	-0.6796392658	-0.0105272672	 0.004539
O	-1.9544374488	-0.0981665176	-1.1223952336	-0.261086
C	-1.0655083442	-1.1911760983	-1.3788297439	-0.034606
C	 0.3731569773	-0.6218981199	-1.4627445846	 0.171354
O	 0.6274425604	 0.3126672222	-2.4693848842	-0.458249
C	 1.3650445117	-1.6883657153	-1.4207000904	 0.295228
C	 2.1629586592	-2.5860820473	-1.36675184	-0.447164
H	-0.7789983064	 1.6526701782	-0.4670884248	 0.303212
H	 0.8265361026	-0.2935168979	 0.7370372277	 0.11244
H	-1.8443514242	-1.0527835204	 0.8169307881	 0.116463
H	-1.4748147618	-2.0665991697	-1.8677062216	 0.122832
H	 0.7347101914	 1.1614526303	-2.0136392634	 0.289506
H	 2.8788327413	-3.3700924615	-1.3316965772	 0.200973
108.9787	146.6702	191.6694	272.3303	292.3979	297.548	429.3823	481.9842	512.14	558.5495	625.4958	639.4182	659.5231	674.9484	705.9764	807.1539	860.9916	878.2552	910.0215	940.9673	1009.5576	1056.9572	1083.5678	1116.8703	1167.216	1211.3895	1242.0054	1261.606	1294.7779	1363.4676	1396.2521	1436.753	2231.6927	3131.8231	3193.4376	3208.5088	3500.0718	3706.1429	3730.1833
OC1C2OC2C1(O)C#C	O[C@H]1[C@H]2O[C@H]2[C@]1(O)C#C	
InChI=1S/C6H6O3/c1-2-6(8)4(7)3-5(6)9-3/h1,3-5,7-8H	InChI=1S/C6H6O3/c1-2-6(8)4(7)3-5(6)9-3/h1,3-5,7-8H/t3-,4+,5-,6+/m1/s1
