18
gdb 19443	3.20269	2.02723	1.56787	1.6515	71.93	-0.2214	0.0752	0.2966	881.9769	0.153231	-347.7498	-347.742418	-347.741474	-347.781368	28.836	
C	 0.1155168256	 1.5060205932	-0.0902299814	-0.324703
C	 1.3656181302	 0.671526276	 0.0916428745	-0.324704
C	 0.0248478665	 0.0151223792	-0.006075883	 0.217975
C	-0.7004014537	-0.8469401942	 1.0234412164	-0.140933
O	-1.1499764727	-1.7474242294	-0.0182781312	-0.319743
C	-0.4881115791	-0.9753704474	-1.0249823381	 0.420623
C	-1.0812250005	-0.7750268957	-2.3792705941	-0.337061
C	 0.1785422731	-1.6159866691	-2.1959675053	-0.33706
H	-0.2425403511	 2.0877028224	 0.7535048222	 0.115666
H	-0.0516291171	 1.9740656049	-1.0554088635	 0.116431
H	 2.0438673321	 0.5752324135	-0.7505447086	 0.116431
H	 1.8578669156	 0.6855978686	 1.0590830288	 0.115666
H	-0.0634414344	-1.3589322803	 1.755363522	 0.103784
H	-1.5431606138	-0.371139069	 1.5400977317	 0.103784
H	-2.0061628606	-1.3000714468	-2.5926476768	 0.124844
H	-0.9926959762	 0.1994967219	-2.8496546144	 0.112079
H	 1.126710892	-1.2153182748	-2.5412723389	 0.112079
H	 0.0791985843	-2.6921595431	-2.2892108602	 0.124843
78.0315	189.4888	194.3034	277.3147	354.7886	365.2911	525.5247	551.7158	572.1933	753.2863	771.3896	856.0668	862.1133	875.4592	894.5499	921.7066	956.8695	986.5242	996.7969	1019.3007	1043.45	1059.3416	1063.0053	1074.2296	1104.1855	1150.8879	1182.6504	1184.0053	1189.5215	1248.5882	1317.7155	1357.8788	1434.2347	1445.912	1464.74	1490.0437	1517.3733	1529.0978	3010.5121	3054.8101	3120.8957	3123.7913	3124.3229	3126.2295	3198.3609	3207.1074	3213.3374	3221.6297
C1CC11COC11CC1	C1CC21COC12CC1	
InChI=1S/C7H10O/c1-2-6(1)5-8-7(6)3-4-7/h1-5H2	InChI=1S/C7H10O/c1-2-6(1)5-8-7(6)3-4-7/h1-5H2
