20
gdb 105490	2.03584	1.6504	1.12865	1.7197	74.3	-0.244	0.0236	0.2676	1153.8968	0.170775	-440.301226	-440.291863	-440.290919	-440.335248	35.102	
C	 0.7901685583	-0.4008640075	-1.3332560363	-0.391909
C	 0.0347370898	-0.0625873424	-0.0423834691	-0.25612
C	 0.6870316203	-0.627501982	 1.2145354096	 0.16507
C	-0.1868739935	-0.7677227575	 2.4959061453	-0.12884
O	 0.2997434712	-2.1121173253	 2.7199723498	-0.286628
C	 0.7851332686	-2.1712122227	 1.3557646704	-0.127966
C	 2.0067008737	 0.0886183703	 1.5508248233	 0.378202
N	 2.7164205822	-0.4613957795	 2.5794666751	-0.531059
O	 2.3859819872	 1.0779436081	 0.9517325349	-0.376044
H	 0.8841190802	-1.4843175969	-1.4720276778	 0.107116
H	 0.2595247339	-0.0049454339	-2.2042259244	 0.113595
H	 1.7912245387	 0.0344976108	-1.3172422812	 0.148124
H	-0.0382872801	 1.0245340574	 0.0599414156	 0.119671
H	-0.9886663635	-0.4536391234	-0.1012356189	 0.085203
H	 0.0245315237	-0.104757146	 3.3402057067	 0.115821
H	-1.2638445272	-0.7601842033	 2.2813043774	 0.107904
H	 0.0794112252	-2.7044998452	 0.7049648094	 0.107665
H	 1.7722680732	-2.6366243824	 1.2874287519	 0.118713
H	 2.3196027797	-1.1903608775	 3.1524839983	 0.271967
H	 3.5305085785	 0.035706559	 2.9016625603	 0.259515
71.5947	116.6793	168.9528	192.4359	211.6494	270.6351	293.9644	362.7007	394.878	424.8237	446.2218	514.124	641.7771	672.7049	756.3668	776.3617	796.0475	886.1126	942.6953	964.2628	1002.4753	1012.2365	1028.6315	1048.91	1106.9055	1133.0129	1155.5147	1182.2839	1218.1412	1242.5327	1300.7612	1308.9474	1351.4028	1373.2671	1392.9022	1406.6712	1474.8184	1497.2713	1505.5497	1513.6625	1531.8676	1614.8611	1785.9897	3008.5572	3016.7509	3029.6024	3034.746	3081.5448	3084.8021	3090.3977	3100.755	3136.8139	3571.0647	3712.7191
CCC1(COC1)C(N)=O	CCC1(COC1)C(=O)N	
InChI=1S/C6H11NO2/c1-2-6(5(7)8)3-9-4-6/h2-4H2,1H3,(H2,7,8)	InChI=1S/C6H11NO2/c1-2-6(5(7)8)3-9-4-6/h2-4H2,1H3,(H2,7,8)
