18
gdb 98999	4.4525	0.73296	0.66969	2.6966	70.84	-0.266	-0.0406	0.2254	1666.2226	0.145087	-476.239971	-476.229929	-476.228985	-476.276614	34.766	
C	-0.6336961677	 1.3963934353	-1.1851191393	-0.227769
O	-0.7028738433	-0.0293962269	-1.0977838004	-0.234683
C	-1.4904256458	-0.5198961166	-0.1187752716	 0.406427
N	-2.1433713601	 0.2273167297	 0.6636247067	-0.525477
C	-1.4074990349	-2.0429091341	-0.1380207234	-0.413666
C	-2.6780519487	-2.7434129854	 0.3006093635	 0.357982
O	-3.2955926927	-2.4345254933	 1.2994861772	-0.323508
C	-3.1781374627	-3.891470741	-0.5571287063	-0.128597
O	-4.3109135283	-4.4917325267	-0.0133215297	-0.416189
H	 0.0469642966	 1.6081480841	-2.0105362623	 0.127199
H	-1.6225620891	 1.8191923201	-1.3813798217	 0.140642
H	-0.2557912862	 1.8228078443	-0.25207155	 0.140043
H	-2.6751899417	-0.3327003646	 1.3279024804	 0.248223
H	-1.0995629097	-2.3784125491	-1.1311221849	 0.137885
H	-0.615265487	-2.3468736829	 0.5593523865	 0.167806
H	-3.3721306445	-3.4860774526	-1.5665632319	 0.124229
H	-2.3559999135	-4.6173952086	-0.676438224	 0.122264
H	-4.525815361	-3.9680112718	 0.7748263913	 0.297189
23.0219	57.67	122.534	146.048	176.9381	200.2731	269.831	298.8794	369.8165	390.4091	394.6284	484.4667	566.1177	656.4002	730.3633	821.5768	879.813	917.7069	939.3807	1009.1994	1029.0913	1086.1715	1127.9746	1152.6155	1180.3058	1194.1077	1218.1678	1251.7573	1295.0492	1333.6819	1388.5713	1447.4463	1452.7971	1475.3848	1476.3266	1485.2989	1499.1256	1732.0432	1796.4336	2956.9859	2981.0629	3035.7043	3048.0535	3107.7572	3121.7747	3152.5124	3511.3987	3693.3121
COC(=N)CC(=O)CO	CO[C]([NH])CC(=O)CO	
InChI=1S/C5H9NO3/c1-9-5(6)2-4(8)3-7/h6-7H,2-3H2,1H3	InChI=1S/C5H9NO3/c1-9-5(6)2-4(8)3-7/h6-7H,2-3H2,1H3
