20
gdb 61643	3.5661	0.77824	0.73071	1.7513	77.02	-0.249	-0.0381	0.211	1596.7031	0.168923	-440.268221	-440.25833	-440.257386	-440.303967	35.614	
C	-0.6397134398	 1.1154072878	 0.6209734226	-0.397297
C	 0.0952865607	-0.1244782177	 0.1691783004	 0.012381
N	 1.3424326512	 0.0721926612	-0.5914320327	-0.351194
C	 1.3990942992	-0.596147318	 0.718062026	-0.015604
C	 2.1713017136	 0.1043423581	 1.8140225491	-0.225525
C	 1.8072974509	-0.4504473334	 3.20527394	 0.050596
O	 2.0757753308	-1.8245876849	 3.29628935	-0.437426
C	 2.5540888215	 0.3023820621	 4.2855429738	 0.13725
O	 3.2752459456	-0.2619624192	 5.0728371251	-0.260558
H	 0.0518456356	 1.9051178369	 0.922754947	 0.124096
H	-1.2527023014	 1.5125020757	-0.1953078697	 0.123559
H	-1.3066380251	 0.8924287959	 1.4613324062	 0.114608
H	-0.5638492027	-0.9202662588	-0.1775206352	 0.083508
H	 1.4208788158	-0.6064503601	-1.3435086294	 0.230745
H	 1.5441421986	-1.674294515	 0.7229210219	 0.10263
H	 3.245672674	-0.0449482715	 1.6498601133	 0.113731
H	 1.9857992521	 1.1826230637	 1.7807860246	 0.105382
H	 0.731382849	-0.2609951566	 3.3781143958	 0.095836
H	 2.684895433	-1.9218383995	 4.0454924977	 0.294473
H	 2.4068561574	 1.4015381734	 4.3124517935	 0.098809
55.3784	59.6777	101.8016	145.9049	186.5306	255.9903	300.2465	336.5331	345.4987	403.1153	441.8391	501.1331	531.4946	750.0277	759.9675	800.2872	843.4334	902.0788	914.3928	965.0852	993.8261	1017.0912	1041.574	1068.6322	1098.7018	1140.52	1165.0915	1197.9656	1240.5494	1251.7861	1274.0372	1282.6623	1313.247	1360.1773	1394.4832	1403.668	1426.6045	1440.7452	1469.2244	1472.2425	1493.2917	1505.4585	1812.1351	2924.7921	2944.6593	3033.875	3036.486	3086.9657	3093.5202	3101.6175	3128.632	3137.4264	3507.6769	3689.0453
CC1NC1CC(O)C=O	C[C@H]1N[C@H]1C[C@@H](O)C=O	
InChI=1S/C6H11NO2/c1-4-6(7-4)2-5(9)3-8/h3-7,9H,2H2,1H3	InChI=1S/C6H11NO2/c1-4-6(7-4)2-5(9)3-8/h3-7,9H,2H2,1H3/t4-,5-,6+/m1/s1
