13
gdb 14591	4.09677	1.0915	0.86643	5.1235	64.86	-0.2736	-0.0377	0.2359	1216.0787	0.095293	-394.817372	-394.809334	-394.808389	-394.850785	27.018	
O	-0.535395162	 0.918723922	 1.1035874102	-0.281847
C	-0.1765395383	 1.4208834191	 0.0682183137	 0.162592
N	 1.0534445966	 1.2091398857	-0.5228965603	-0.317174
C	 2.0321774053	 0.3870625114	 0.0067918605	 0.14409
N	 3.1350255753	 0.2506969829	-0.6050545145	-0.268595
C	 4.1657964226	-0.6098988347	-0.0549654069	-0.240946
C	 3.8580550982	-1.2900737129	 1.2146057004	 0.237228
N	 3.5803961798	-1.8061034016	 2.2106579889	-0.304418
H	-0.7982652216	 2.1133347526	-0.5287791294	 0.098917
H	 1.2727830064	 1.6719311423	-1.3942522647	 0.268356
H	 1.7411315803	-0.0858534454	 0.9470181496	 0.169657
H	 4.4187656496	-1.3739141048	-0.8006295425	 0.166069
H	 5.0782643978	-0.0172426465	 0.086073375	 0.16607
62.9882	91.9399	176.5735	186.7695	210.2031	351.1273	362.0638	384.6947	440.9858	657.7374	667.0878	786.5767	913.9437	964.2371	1030.6851	1033.1062	1051.9276	1090.5782	1257.2657	1265.8674	1343.6166	1369.805	1437.9958	1461.3556	1502.4344	1752.3987	1827.5013	2354.6603	2968.5219	3034.0734	3058.6661	3123.9213	3607.3816
O=CNC=NCC#N	O=CNC=NCC#N	
InChI=1S/C4H5N3O/c5-1-2-6-3-7-4-8/h3-4H,2H2,(H,6,7,8)	InChI=1S/C4H5N3O/c5-1-2-6-3-7-4-8/h3-4H,2H2,(H,6,7,8)
