17
gdb 37111	3.94703	1.64134	1.51029	2.0693	75.27	-0.2104	-0.0017	0.2087	914.2982	0.13687	-384.602926	-384.596469	-384.595525	-384.633214	27.588	
C	-0.010237278	 1.532604457	-0.2278481822	-0.280589
C	 1.2792784486	 0.8296986769	 0.0948529251	-0.138525
C	-0.0509686935	 0.0689618755	 0.1117822421	-0.139132
C	 0.473719317	-0.7934336775	-1.0794889015	 0.265902
O	 0.8317253397	 0.0468872551	-2.2047566606	-0.299412
C	 1.738801846	-0.0632908618	-1.1047697133	 0.289672
C	 2.8789683191	-1.0520306755	-1.25638744	-0.361233
C	 2.1223292499	-2.3749606842	-1.3742721796	-0.059122
C	 0.7958116536	-2.2332222437	-1.2326863163	-0.165557
H	-0.3726221848	 2.1840134127	 0.561426239	 0.11127
H	-0.2142900013	 1.8673843241	-1.2369018392	 0.136927
H	 1.9230016577	 1.1098477014	 0.9181339125	 0.092442
H	-0.6030313692	-0.3361194984	 0.9488281351	 0.095193
H	 3.5078830104	-0.854812471	-2.1324748852	 0.128058
H	 3.5415382856	-1.0396709462	-0.3823018257	 0.119511
H	 2.625618837	-3.3084278889	-1.6070628653	 0.101608
H	 0.0673243423	-3.0343359656	-1.2676745949	 0.102986
212.5306	256.5393	306.6824	409.0106	460.0816	520.8877	556.4928	655.5371	669.9137	743.4816	756.124	777.634	834.8621	852.4128	872.5985	913.871	923.6756	929.1348	939.3073	979.7921	1014.5681	1043.6335	1047.0135	1104.6155	1119.2124	1146.7318	1160.4025	1172.9616	1226.5413	1262.2712	1296.1397	1321.2507	1364.5173	1405.5452	1460.7866	1467.3153	1630.2369	3033.1342	3066.9271	3138.9518	3178.5883	3196.6142	3207.7426	3209.9149	3233.0061
C1C2C1C13OC21CC=C3	C1[C@H]2[C@@H]1[C@@]13O[C@@]21CC=C3	
InChI=1S/C8H8O/c1-2-7-5-4-6(5)8(7,3-1)9-7/h1-2,5-6H,3-4H2	InChI=1S/C8H8O/c1-2-7-5-4-6(5)8(7,3-1)9-7/h1-2,5-6H,3-4H2/t5-,6+,7-,8+/m1/s1
