19
gdb 82385	2.28332	1.96192	1.31269	0.4466	73.29	-0.2265	0.0664	0.2928	1003.3704	0.160649	-422.983771	-422.975989	-422.975045	-423.015815	31.171	
O	 0.534143197	 0.8918255296	-0.8421619757	-0.432551
C	 0.0504576904	-0.1774381316	-0.0358292245	 0.088601
C	 0.7251859307	-0.2419109786	 1.3241810772	-0.089661
C	 0.5536225806	 0.8345851693	 2.3873075185	-0.345552
C	-0.0843998473	-0.5202511626	 2.5611056163	 0.120945
O	-1.4707470329	-0.6935150654	 2.5226532345	-0.263821
C	-2.1671384032	-0.5104688584	 1.3247403073	 0.120943
C	-2.3106626871	 0.8480419852	 0.6870051643	-0.345549
C	-1.4669966564	-0.2316049158	 0.0228493904	-0.089657
H	 0.2805243856	 1.713965392	-0.4082995177	 0.275451
H	 0.3690483712	-1.0738060911	-0.5796176934	 0.095284
H	 1.7121295296	-0.6919938877	 1.2867325996	 0.097051
H	 1.4172067432	 1.076004126	 2.9976293791	 0.116348
H	-0.0912085467	 1.6818547789	 2.1904446604	 0.115449
H	 0.333038847	-1.1810879261	 3.3139583708	 0.103935
H	-3.0325214614	-1.1652851664	 1.3160752945	 0.103935
H	-3.2582867035	 1.0979736836	 0.2221436451	 0.116347
H	-1.8231883386	 1.6899871462	 1.1623204602	 0.115449
H	-1.9098367281	-0.6749648672	-0.8633557169	 0.097051
99.7378	179.4775	215.6183	240.1759	346.5938	391.6685	434.0893	448.5195	535.465	657.232	703.8541	742.6624	777.506	787.0714	814.6078	834.9233	933.0033	975.3946	977.0424	998.3978	1013.1535	1042.3174	1045.8184	1064.9949	1107.3989	1131.5715	1134.0671	1153.2088	1159.8367	1228.8448	1231.8243	1276.8349	1284.462	1347.8356	1362.9527	1391.9258	1400.3759	1430.602	1433.2035	1472.8562	1499.5608	3043.1564	3138.178	3144.2862	3149.2082	3151.1841	3159.8089	3163.697	3222.4793	3235.4107	3802.512
OC1C2CC2OC2CC12	O[C@H]1[C@H]2C[C@H]2O[C@H]2C[C@@H]12	
InChI=1S/C7H10O2/c8-7-3-1-5(3)9-6-2-4(6)7/h3-8H,1-2H2	InChI=1S/C7H10O2/c8-7-3-1-5(3)9-6-2-4(6)7/h3-8H,1-2H2/t3-,4+,5+,6-,7-
