18
gdb 11862	4.98104	1.26018	1.17325	2.4312	68.4	-0.2325	0.069	0.3015	1069.5403	0.15334	-384.902174	-384.894301	-384.893356	-384.934852	29.757	
O	 0.0551556355	 1.1656123569	 0.6075737949	-0.421081
C	 0.0300501609	-0.174825312	 0.1622203033	-0.064086
C	-1.356434904	-0.5450108304	-0.3344722653	 0.121933
C	-1.7140745409	-2.044668857	-0.4134225484	-0.393422
C	-2.6771725002	-1.7194728493	 0.722837501	 0.471501
C	-4.0765902334	-2.1727997154	 0.9645392457	-0.331999
C	-2.9774834186	-2.4607318743	 1.9822344923	-0.329704
O	-2.3290985011	-0.3295717275	 0.7302403713	-0.333509
H	-0.6808390677	 1.2475005923	 1.2271650281	 0.292745
H	 0.7614268884	-0.2629386244	-0.649517534	 0.106743
H	 0.3264815392	-0.8735389957	 0.9623352139	 0.083474
H	-1.6196054462	 0.0549610718	-1.2129178256	 0.087435
H	-2.1833521812	-2.3641874545	-1.3453681179	 0.115841
H	-0.8990935312	-2.7279551753	-0.1614177834	 0.111989
H	-4.8038298999	-1.4100013416	 1.2212458578	 0.126485
H	-4.4668955897	-2.9940156543	 0.3718130819	 0.115593
H	-2.6156748631	-3.4787763692	 2.0864634084	 0.115638
H	-2.9897886269	-1.8856853599	 2.902023656	 0.124424
49.3505	112.0453	189.1692	296.6553	302.3774	354.9959	443.8	467.8653	511.2057	567.3759	755.331	801.9323	835.659	877.4328	898.7923	919.4244	927.0311	984.7224	1021.8113	1049.1843	1053.289	1068.7474	1094.0653	1124.3593	1171.8393	1186.69	1212.0748	1232.4815	1248.9013	1305.1971	1347.6681	1375.0577	1403.5051	1437.7349	1449.0604	1488.1283	1497.3067	1506.2681	2967.0461	3043.6935	3066.7652	3068.7776	3123.5476	3126.6249	3129.283	3210.0626	3224.2142	3779.9652
OCC1CC2(CC2)O1	OC[C@H]1CC2(CC2)O1	
InChI=1S/C6H10O2/c7-4-5-3-6(8-5)1-2-6/h5,7H,1-4H2	InChI=1S/C6H10O2/c7-4-5-3-6(8-5)1-2-6/h5,7H,1-4H2/t5-/m1/s1
