13
gdb 7402	3.29069	1.58865	1.32736	3.2894	55.61	-0.2404	-0.0835	0.1569	934.8025	0.092216	-435.790794	-435.781909	-435.780965	-435.825461	29.751	
C	 0.7425939596	 0.8907886872	 0.2935453213	-0.505299
C	-0.4732280511	 0.0763274716	-0.055477539	 0.346651
O	-1.5073996889	 0.0602908773	 0.5644441848	-0.279536
C	-0.3995172468	-0.7918515335	-1.3291171062	 0.232626
O	-0.8568159729	-0.4335401799	-2.3869659876	-0.294616
C	 0.2639200617	-2.1665772315	-1.136977919	 0.330701
N	 0.152741997	-2.9594735727	-2.2205698204	-0.522642
O	 0.8270741276	-2.428450766	-0.0899202278	-0.34448
H	 1.0450833514	 1.5082451306	-0.55981086	 0.150684
H	 0.5333468284	 1.5205176857	 1.1597726346	 0.151808
H	 1.5673357371	 0.2045752852	 0.5153262406	 0.174264
H	-0.3245438779	-2.6076200824	-3.0353950723	 0.283672
H	 0.5572096747	-3.8808408117	-2.220192999	 0.276165
28.008	72.0168	144.9957	153.3789	194.219	303.1784	329.7499	347.0776	442.3011	481.4826	554.1678	630.9851	652.1975	671.3914	812.7857	957.9302	993.697	1071.6734	1093.8945	1233.5151	1371.6803	1375.8192	1460.033	1467.0038	1595.5513	1794.5224	1809.8425	1819.0252	3037.0982	3106.042	3150.6247	3591.7223	3730.4609
CC(=O)C(=O)C(N)=O	CC(=O)C(=O)C(=O)N	
InChI=1S/C4H5NO3/c1-2(6)3(7)4(5)8/h1H3,(H2,5,8)	InChI=1S/C4H5NO3/c1-2(6)3(7)4(5)8/h1H3,(H2,5,8)
