20
gdb 62087	4.11798	0.7036	0.65063	1.7135	78.79	-0.2522	-0.021	0.2311	1747.0347	0.167383	-440.305539	-440.294532	-440.293588	-440.343602	37.025	
C	 0.1021762538	 1.4740393254	-0.0853177384	-0.405637
C	 0.0171888309	-0.0621787135	 0.0269349065	-0.103578
C	 0.7599207429	-0.5750099811	 1.2587853966	-0.076742
O	 2.1401113259	-0.2346682899	 1.1059756107	-0.191829
C	 2.9168168837	-0.3736994985	 2.1968648058	 0.128069
N	 4.1592336916	-0.1654527875	 2.1182006208	-0.440629
C	-1.4436863727	-0.5098967711	 0.0822920128	 0.382192
C	-2.1948693457	-0.5677093557	-1.2338565475	-0.481525
O	-1.9692871248	-0.8065512378	 1.1325961734	-0.30591
H	 1.1494675654	 1.7829706598	-0.0854784855	 0.154135
H	-0.3626588448	 1.8388954948	-1.0051454143	 0.120975
H	-0.3995820681	 1.9504342462	 0.7635536503	 0.129463
H	 0.4836706972	-0.4964879901	-0.8664240161	 0.10002
H	 0.3463630584	-0.12059134	 2.1661399109	 0.124512
H	 0.6514092501	-1.6625968629	 1.3479259602	 0.116017
H	 2.3589521485	-0.6638995212	 3.0982731963	 0.088222
H	 4.5905012946	-0.2997216093	 3.030347189	 0.229195
H	-2.0437835205	 0.3411538464	-1.8242189523	 0.140578
H	-1.8082806575	-1.401771337	-1.8322233155	 0.146989
H	-3.2581697788	-0.7233559768	-1.0483525935	 0.145485
40.673	45.3172	71.033	101.4041	108.386	156.7246	209.5232	234.238	283.7062	310.6904	331.0235	495.0604	562.7547	599.598	652.6227	791.5099	824.2375	893.6579	931.9644	953.8424	988.9083	1010.5331	1046.6004	1084.4832	1132.5928	1132.9565	1162.6037	1193.6391	1267.5586	1295.2061	1326.404	1347.9408	1383.8747	1402.5568	1407.6723	1432.3413	1462.2107	1474.2971	1494.046	1504.9939	1509.362	1748.034	1802.016	3017.3712	3030.6358	3032.3011	3039.1169	3043.6299	3077.2755	3101.1078	3113.7652	3135.6234	3154.5516	3518.2712
CC(COC=N)C(C)=O	C[C@@H](CO[CH][NH])C(=O)C	
InChI=1S/C6H11NO2/c1-5(6(2)8)3-9-4-7/h4-5,7H,3H2,1-2H3	InChI=1S/C6H11NO2/c1-5(6(2)8)3-9-4-7/h4-5,7H,3H2,1-2H3/t5-/m0/s1
