15
gdb 34810	4.14518	1.33238	1.25255	5.1501	68.19	-0.2572	0.0221	0.2793	987.2117	0.115087	-416.74619	-416.739739	-416.738794	-416.777034	25.854	
N	-0.0561821684	-1.1543370649	-0.0826709836	-0.328853
C	-0.0209036191	-0.000607207	-0.0235687135	 0.286412
C	-0.0314499784	 1.4493261943	-0.0059074925	-0.145664
C	-0.0574513044	 2.0858856191	 1.4203650706	-0.062312
N	 1.4052068102	 1.7296830787	 1.4910858162	-0.298059
C	 1.3819486575	 2.1132857725	 0.0338449001	-0.062321
C	 1.0253925642	 3.6267010978	 0.0804068935	 0.020321
O	-0.3290782776	 3.9597111683	-0.2652679125	-0.236974
C	-0.0275489106	 3.606654592	 1.0946646639	 0.020322
H	-0.737548428	 1.8474627935	-0.7310712346	 0.148617
H	-0.7103097898	 1.7243755022	 2.2123331059	 0.100314
H	 1.9430172896	 2.384926887	 2.0623564918	 0.21566
H	 2.2046557075	 1.7798856933	-0.5955391518	 0.10031
H	 1.7686553741	 4.4033378912	-0.0629653758	 0.121114
H	-0.2137938269	 4.3655991919	 1.8466456123	 0.121114
153.2713	159.1948	350.804	392.7148	447.0833	539.6644	554.1858	586.9963	704.1197	795.8428	836.6721	861.3836	881.5255	891.8804	903.4525	946.0367	961.7711	985.2349	1044.5043	1050.5868	1083.4326	1123.7663	1133.0021	1201.0366	1215.485	1223.1856	1253.3739	1275.7857	1288.2208	1336.4424	1341.8054	1400.9405	2363.0477	3144.0092	3145.252	3149.8897	3176.0603	3188.0906	3427.5096
N#CC1C2NC1C1OC21	N#C[C@H]1[C@H]2N[C@@H]1[C@H]1O[C@@H]21	
InChI=1S/C6H6N2O/c7-1-2-3-5-6(9-5)4(2)8-3/h2-6,8H	InChI=1S/C6H6N2O/c7-1-2-3-5-6(9-5)4(2)8-3/h2-6,8H/t2-,3+,4-,5-,6+
