15
gdb 47215	2.07668	1.78436	1.31633	4.1598	72.42	-0.2288	-0.0328	0.1961	1007.358	0.112572	-416.788099	-416.779769	-416.778825	-416.821595	30.297	
O	-0.2717636779	 0.675694747	-1.3934912754	-0.303449
C	-0.0251970351	 1.3285285658	-0.412928271	 0.381917
C	-1.0422383263	 1.4940180967	 0.7137996229	-0.257433
N	-0.7996040487	 2.7031807089	 1.4857786251	-0.296739
C	 0.1367004362	 3.6185176564	 1.0918041819	 0.10097
N	 1.120278932	 3.4376864508	 0.2962917891	-0.255704
C	 1.3079194591	 2.0612162333	-0.1935101476	-0.250486
C	 2.1126487746	 1.2701243508	 0.7401718013	 0.352208
C	 2.7395575944	 0.6015646171	 1.5181396905	-0.479299
H	-2.0372213416	 1.4988223034	 0.256390261	 0.144273
H	-0.9748349031	 0.6028560965	 1.3531232563	 0.153191
H	-1.5401729411	 3.0236374346	 2.0879140772	 0.252648
H	 0.0108077601	 4.6038216146	 1.5426288256	 0.120446
H	 1.812462177	 2.0994416431	-1.1641342722	 0.134142
H	 3.3148528904	 0.0217479711	 2.1969890553	 0.203314
64.2952	83.2957	126.9008	195.826	332.2362	374.2773	439.7316	462.7606	494.2168	554.0552	611.0963	631.8861	637.622	647.0458	741.0577	929.7183	940.8728	971.2634	987.6327	1006.6795	1032.7728	1163.7097	1227.4882	1249.2958	1268.7979	1303.7201	1329.1174	1408.2037	1469.8433	1530.9207	1720.6082	1833.6575	2228.4115	3016.1676	3061.7815	3070.5414	3126.4636	3502.9934	3636.3096
O=C1CNC=NC1C#C	O=C1CNC=N[C@H]1C#C	
InChI=1S/C6H6N2O/c1-2-5-6(9)3-7-4-8-5/h1,4-5H,3H2,(H,7,8)	InChI=1S/C6H6N2O/c1-2-5-6(9)3-7-4-8-5/h1,4-5H,3H2,(H,7,8)/t5-/m0/s1
