23
gdb 64363	2.01927	1.78923	1.32467	1.6865	83.96	-0.2538	0.0751	0.3289	1116.9635	0.205479	-388.295838	-388.286564	-388.285619	-388.329731	36.346	
C	 0.2557161257	 1.5528291115	-0.1479594383	-0.417447
C	-0.000563921	 0.0418027706	 0.0195511082	 0.194926
C	-1.5037671935	-0.2277137898	 0.121863624	-0.437248
C	 0.6638164525	-0.7552646869	-1.1300799753	-0.232273
C	 2.1646899192	-0.8011625847	-0.7791297231	-0.22451
C	 2.2110213637	-0.8306500749	 0.7704463062	-0.290882
C	 0.7937500061	-0.4769242899	 1.232833778	 0.440821
C	 0.4614543693	-0.1664166963	 2.6253407728	-0.264805
O	 0.1517586963	-1.4499938419	 2.074160658	-0.279711
H	 1.3230809978	 1.7892525482	-0.2006727408	 0.113331
H	-0.2114823459	 1.9211615798	-1.0677543709	 0.112493
H	-0.165602624	 2.1161889303	 0.6909010572	 0.111669
H	-2.0075838665	 0.0840408849	-0.7995176137	 0.10593
H	-1.7036315872	-1.2885125049	 0.2866209466	 0.12908
H	-1.9590303332	 0.3296917899	 0.9477357442	 0.108252
H	 0.2521721123	-1.7717224879	-1.1393561361	 0.101506
H	 0.4682447984	-0.3157594165	-2.1131970653	 0.089529
H	 2.667300209	-1.6627915842	-1.2255631822	 0.099849
H	 2.6723838865	 0.0898466863	-1.1612063827	 0.101632
H	 2.4587371087	-1.8223657263	 1.1586282672	 0.119416
H	 2.9536627607	-0.1332496511	 1.1693510482	 0.103212
H	 1.2492237917	-0.1589615039	 3.3788874635	 0.108228
H	-0.3993629468	 0.4594698279	 2.8603433442	 0.107004
35.7966	178.331	208.7565	219.7373	252.7308	275.3204	325.7141	338.1501	361.8829	429.8246	507.1776	533.0731	582.1961	655.2918	784.5586	802.4267	846.7802	886.7884	903.9809	941.7808	952.3033	958.2577	970.2735	1007.2847	1034.9738	1067.0391	1108.6884	1131.5743	1145.1115	1169.3023	1208.1791	1232.7567	1243.8403	1259.3441	1282.3736	1303.1132	1341.3221	1348.5947	1399.6879	1405.9535	1427.6027	1477.4713	1481.6856	1483.8386	1496.4536	1502.0156	1508.4546	1514.9255	1532.976	3029.7033	3031.5154	3036.2676	3049.1987	3058.5274	3072.281	3080.9848	3089.5968	3090.9141	3098.8882	3101.8665	3108.5237	3127.491	3153.4478
CC1(C)CCCC11CO1	CC1(C)CCC[C@]21CO2	
InChI=1S/C8H14O/c1-7(2)4-3-5-8(7)6-9-8/h3-6H2,1-2H3	InChI=1S/C8H14O/c1-7(2)4-3-5-8(7)6-9-8/h3-6H2,1-2H3/t8-/m1/s1
