15
gdb 74346	3.67581	1.1158	0.86129	6.3827	81.37	-0.2052	-0.0248	0.1804	1274.2515	0.112827	-416.859113	-416.850364	-416.84942	-416.893128	31.209	
C	-0.0486791042	 1.5736718761	 0.0077910979	-0.520457
C	-0.0090453371	 0.0763331431	-0.0359985996	 0.226959
C	-0.0879854574	-0.777901855	-1.1718862557	-0.367611
C	 0.0017786263	-2.0685412947	-0.7299443113	 0.247946
O	 0.1283769574	-2.067345728	 0.6489458531	-0.199994
C	 0.1192322001	-0.7781887895	 1.035640808	 0.287995
N	 0.3010871518	-0.5504215943	 2.3810350833	-0.601584
H	 0.1214130007	-1.3587178887	 2.9602494807	 0.268665
H	-0.1536223591	 0.2800295268	 2.7308687502	 0.266538
C	-0.0066834775	-3.3087486816	-1.3863225566	 0.21106
N	-0.0188310607	-4.3256298448	-1.9460510481	-0.352292
H	 0.5889471005	 1.9655915774	 0.8076684397	 0.129685
H	 0.3119933007	 2.0004788531	-0.9321582777	 0.139126
H	-1.0615036581	 1.9632680116	 0.1716635399	 0.132225
H	-0.1910772435	-0.4752704115	-2.2028074739	 0.131739
46.6681	115.5359	148.084	202.0916	241.6105	260.2662	308.6398	417.7022	503.3244	524.0051	593.0056	599.5073	645.2137	651.4974	717.2309	799.7733	861.2494	970.4313	999.7806	1063.5908	1077.9582	1165.3804	1227.075	1269.3679	1340.3734	1417.0446	1464.6682	1489.9103	1503.4237	1569.7199	1637.842	1669.4962	2324.9801	3020.2314	3074.6307	3109.2403	3256.5722	3567.9489	3670.3178
CC1=C[C-](OC1=[NH2+])C#N	Cc1cc(oc1N)C#N	
InChI=1S/C6H5N2O/c1-4-2-5(3-7)9-6(4)8/h2,8H,1H3/q-1/p+1	InChI=1S/C6H6N2O/c1-4-2-5(3-7)9-6(4)8/h2H,8H2,1H3
