12
gdb 132298	2.02863	1.90426	0.98227	5.1572	61.78	-0.2379	-0.0379	0.2	1064.7764	0.077182	-513.987715	-513.980082	-513.979137	-514.020209	27.653	
N	 0.0479757265	 1.3516403269	-0.0293927477	-0.561013
C	-0.021371786	 0.0040881604	-0.0130419288	 0.436386
C	-1.2075812938	-0.6976672632	-0.002138752	-0.359236
C	-1.2229855544	-2.1122903952	-0.000918337	 0.436986
O	-2.101365622	-2.9172133853	 0.0067167722	-0.324523
O	 0.1539694156	-2.6890086805	-0.0102563868	-0.243715
C	 1.1785827703	-1.8870609173	-0.0171976472	 0.419996
F	 2.3061688816	-2.5512894649	-0.021537277	-0.034249
N	 1.2161575825	-0.609161855	-0.0193909617	-0.435799
H	 0.9531516268	 1.7844522655	 0.0314517992	 0.277993
H	-0.7765181807	 1.9194453002	 0.0449392861	 0.274121
H	-2.1672595865	-0.1995227515	 0.0034521609	 0.113053
108.7331	153.7391	170.6566	209.9441	336.9861	355.2759	458.5177	519.9119	549.6182	598.8712	633.6768	713.0008	715.7749	780.2071	796.4297	806.6472	972.3272	1043.0113	1111.1549	1163.2108	1323.4506	1413.5971	1472.594	1594.8453	1655.4529	1701.796	1909.691	3224.2652	3626.4956	3759.3052
NC1=CC(=O)OC(F)=N1	Nc1cc(=O)oc(F)n1	
InChI=1S/C4H3FN2O2/c5-4-7-2(6)1-3(8)9-4/h1H,6H2	InChI=1S/C4H3FN2O2/c5-4-7-2(6)1-3(8)9-4/h1H,6H2
