18
gdb 8465	2.93002	1.99413	1.51731	3.3756	73.38	-0.2343	-0.0017	0.2326	911.5078	0.152285	-347.812167	-347.803912	-347.802968	-347.844487	30.905	
C	-0.0031555113	 1.5349355123	 0.0411793867	-0.493465
C	-0.0208291172	 0.0349113033	 0.0252779448	 0.306705
C	 1.1408196548	-0.8180875057	-0.3461472226	-0.367343
C	 0.5965214841	-0.9576340583	 1.0752659841	 0.176104
C	 1.4427891242	-0.7581269951	 2.2995030516	-0.497923
C	-0.6839963658	-1.7288497427	 1.0172881221	 0.377922
O	-1.1563830577	-2.5745237342	 1.72672545	-0.324087
C	-1.2931926326	-0.8246043176	-0.086072615	-0.415721
H	 0.9754927148	 1.9182078063	 0.3477804064	 0.122188
H	-0.216581689	 1.9395663371	-0.9553538924	 0.129042
H	-0.755328701	 1.9361929396	 0.729107612	 0.124366
H	 1.0354235931	-1.6274455528	-1.0647297801	 0.116267
H	 2.1071204309	-0.3220764524	-0.3821809418	 0.118261
H	 2.1242767521	 0.0899005301	 2.1765212941	 0.118523
H	 0.8220894312	-0.574028711	 3.1819612434	 0.132296
H	 2.0523638624	-1.6450586584	 2.5034863429	 0.136664
H	-2.1985789353	-0.3383944212	 0.2909311123	 0.125653
H	-1.5065346378	-1.2718239794	-1.0620195584	 0.114549
100.5746	145.7831	173.2482	208.627	237.2276	323.4472	370.3414	435.7559	497.3454	557.838	608.9325	664.5412	674.0898	779.4217	847.4854	942.0043	975.1005	988.9319	996.6923	1027.415	1065.0773	1079.3317	1108.1774	1120.442	1190.7078	1207.5009	1260.8316	1353.3005	1385.5297	1413.0341	1426.5654	1461.0639	1479.541	1487.1232	1494.4935	1500.0962	1508.4932	1868.7217	3024.3414	3031.8986	3047.8908	3083.9939	3094.9629	3098.9898	3101.399	3103.5299	3105.5832	3187.7589
CC12CC1(C)C(=O)C2	C[C@@]12C[C@]1(C)C(=O)C2	
InChI=1S/C7H10O/c1-6-3-5(8)7(6,2)4-6/h3-4H2,1-2H3	InChI=1S/C7H10O/c1-6-3-5(8)7(6,2)4-6/h3-4H2,1-2H3/t6-,7-/m1/s1
