18
gdb 37555	4.07255	1.6052	1.35103	1.6365	83.94	-0.2161	0.023	0.2391	972.3911	0.149558	-364.689485	-364.682837	-364.681893	-364.720405	27.41	
C	-0.0243201514	 1.6405399991	 0.0376539623	-0.191698
C	 1.4606962701	 1.3234856997	-0.0002615117	-0.121416
C	 1.2131507845	 0.0927646434	 0.956313061	-0.201138
N	-0.0784192454	 0.114162998	 0.0424992005	-0.196069
C	 1.1889154978	 0.0682946075	-0.9140277995	 0.329637
C	 1.3634375696	-0.4549779385	-2.329685203	-0.411166
C	 2.3329901303	-1.6860879318	-2.1223396585	-0.231561
C	 2.5201457807	-1.8377843156	-0.6037083404	-0.328944
C	 1.8799271468	-0.8494240785	 0.0005132002	 0.433375
H	-0.4323710942	 2.0892751807	 0.9492108848	 0.099907
H	-0.4822495957	 2.0903266747	-0.8484154488	 0.103134
H	 2.3409906704	 1.9750594229	-0.0119925198	 0.07259
H	 1.1131471219	 0.0989254771	 2.0416501216	 0.088564
H	 0.4035717489	-0.7759984997	-2.7430993864	 0.127971
H	 1.7854042215	 0.2849617043	-3.0144721391	 0.112001
H	 1.9166262641	-2.5994673322	-2.5640269959	 0.110516
H	 3.2933567602	-1.5173205205	-2.6263068602	 0.10758
H	 3.0945761599	-2.6473367708	-0.1701520872	 0.096718
97.761	235.7148	286.3351	300.3784	516.8969	587.4649	631.2939	675.8341	705.5248	752.436	777.4199	819.8526	835.2283	863.4838	872.4599	889.3574	917.1465	959.684	985.9009	1026.3724	1036.1838	1060.4525	1083.8631	1096.1986	1148.6599	1153.8781	1171.0781	1198.573	1219.9309	1236.0734	1251.0652	1270.8484	1282.7191	1317.4687	1366.8152	1468.3927	1496.1033	1520.0267	1771.01	3021.4926	3037.3738	3050.0856	3051.6203	3066.4853	3100.0673	3110.1655	3122.0283	3202.9889
C1C2C3N1C21CCC=C31	C1[C@H]2[C@H]3N1[C@]12CCC=C31	
InChI=1S/C8H9N/c1-2-5-7-6-4-9(7)8(5,6)3-1/h2,6-7H,1,3-4H2	InChI=1S/C8H9N/c1-2-5-7-6-4-9(7)8(5,6)3-1/h2,6-7H,1,3-4H2/t6-,7-,8+/m0/s1
