19
gdb 104621	2.4848	1.27826	1.00451	4.0645	76.17	-0.2423	0.0186	0.2608	1237.9462	0.158823	-419.196585	-419.187155	-419.186211	-419.230857	34.808	
C	 0.7291526158	 1.4992713105	-0.0070140118	-0.414155
C	 0.0012281915	 0.1616657282	-0.0046972798	 0.089235
C	 0.2844657201	-0.7891250899	-1.2035515532	-0.324877
C	 1.035591042	-1.7038488486	-0.1881754277	 0.162183
C	 2.5687552086	-1.7069207565	-0.3410246428	-0.118544
O	 3.2083579382	-2.1714655404	 0.8280256889	-0.418541
N	 0.5205865024	-0.8797665229	 0.9239312787	-0.347254
C	 0.582995329	-3.1042145051	-0.1133082107	 0.251787
N	 0.2791431494	-4.2187625089	-0.0614772348	-0.346627
H	 1.7960263551	 1.3859557714	-0.2265543459	 0.119711
H	 0.2974052815	 2.1695907546	-0.7583014653	 0.125688
H	 0.6348800565	 1.9901870196	 0.9679065843	 0.128388
H	-1.0666063338	 0.3397382378	 0.1660204043	 0.087917
H	-0.6010973755	-1.2455391718	-1.6447351343	 0.131277
H	 0.9168029149	-0.3857338756	-1.9977914114	 0.115782
H	 2.8493316658	-2.2875767494	-1.2330368625	 0.109975
H	 2.9087788235	-0.6774995326	-0.4858527027	 0.116437
H	 2.9937356095	-3.1055645218	 0.9380676251	 0.302201
H	 1.2377099355	-0.5986010385	 1.5856629213	 0.229415
77.528	97.7498	149.0815	171.0663	223.3484	251.8399	326.9013	340.4649	392.2236	407.2632	463.5699	533.3485	580.9285	663.5314	727.2923	789.2926	864.6997	884.4972	926.6024	961.6913	976.6827	1054.093	1088.2223	1107.0809	1131.468	1155.9969	1172.7684	1193.0416	1253.1913	1283.7038	1309.3295	1347.0518	1379.0367	1403.7117	1410.22	1419.8797	1483.3642	1489.2366	1494.1878	1498.1657	2345.6713	2993.4809	3028.5319	3030.6508	3078.793	3091.5553	3098.2457	3104.7467	3144.9987	3523.3824	3791.9489
CC1CC(CO)(N1)C#N	C[C@H]1C[C@@](CO)(N1)C#N	
InChI=1S/C6H10N2O/c1-5-2-6(3-7,4-9)8-5/h5,8-9H,2,4H2,1H3	InChI=1S/C6H10N2O/c1-5-2-6(3-7,4-9)8-5/h5,8-9H,2,4H2,1H3/t5-,6+/m0/s1
