16
gdb 123875	5.1357	1.07834	0.91929	4.512	72.38	-0.213	-0.0304	0.1826	1220.9916	0.125503	-434.01559	-434.008152	-434.007208	-434.048352	27.21	
C	-0.1135620766	 1.5598076384	-0.0044418742	-0.233551
C	 1.4231601875	 1.5138945864	-0.2201494159	-0.164731
N	 1.4241398821	 0.1587547005	 0.3674700206	-0.160784
C	-0.0408969497	 0.0381235512	 0.2875099352	-0.176175
C	 2.2897037907	-0.8313907135	-0.0195288814	 0.315468
C	 2.1787042409	-2.1916415772	-0.0328696792	-0.076577
O	 3.3455956314	-2.6954124209	-0.4744992849	-0.15613
N	 4.1850588758	-1.6102238682	-0.7427549376	-0.000824
N	 3.5596027653	-0.5423215545	-0.4748509117	-0.201162
H	-0.4115579151	 2.150744678	 0.8625802193	 0.121928
H	-0.7118583203	 1.8558767946	-0.8654899134	 0.118173
H	 1.7239760792	 1.5243419938	-1.27514193	 0.116805
H	 2.0310616605	 2.2390777173	 0.3269662025	 0.122894
H	-0.5166899049	-0.3216638258	 1.2055144883	 0.115132
H	-0.3726707532	-0.5881168957	-0.5539513352	 0.102788
H	 1.4052822662	-2.8906004644	 0.2308155674	 0.156748
70.4115	99.9198	158.7079	189.5621	365.6413	453.1868	489.5907	636.3529	713.4159	743.2289	751.2112	760.2569	849.0638	881.101	942.5515	945.2057	990.0302	1024.9814	1097.3509	1119.8174	1122.8534	1143.8646	1154.271	1206.1597	1224.9334	1270.921	1293.121	1323.9142	1347.4706	1353.7725	1444.9141	1491.6373	1511.5788	1536.0129	1660.3619	2992.4834	3028.0223	3064.3203	3087.878	3095.8765	3150.8162	3302.6753
C1CN(C1)C1=CON=N1	C1CN(C1)c1conn1	
InChI=1S/C5H7N3O/c1-2-8(3-1)5-4-9-7-6-5/h4H,1-3H2	InChI=1S/C5H7N3O/c1-2-8(3-1)5-4-9-7-6-5/h4H,1-3H2
