21
gdb 119779	3.65099	0.82717	0.71878	2.9521	82.41	-0.2395	0.018	0.2575	1625.7195	0.181751	-424.225567	-424.215785	-424.214841	-424.261028	35.229	
C	-0.0729716	 1.4015813909	-0.1350297039	-0.224338
O	 0.0288227312	-0.0016981724	-0.1169157697	-0.226526
C	-1.2089807324	-0.6371821159	 0.0875366026	-0.154983
C	-1.0507944358	-2.1224346641	 0.0692433424	 0.290568
C	 0.0706157337	-2.8109170887	-0.1534853817	-0.204691
C	-0.1337028365	-4.2991408085	-0.0116059203	 0.101941
O	 0.5290763506	-4.8201457923	 1.1445432799	-0.434315
C	-1.6799933696	-4.4419838918	 0.0282434539	-0.241938
C	-2.2349322151	-3.0288152829	 0.3339088111	-0.313029
H	 0.9312559421	 1.79961292	-0.2979684664	 0.129901
H	-0.7312774859	 1.7536595627	-0.9453067206	 0.10497
H	-0.4620120381	 1.7962733124	 0.8172472764	 0.104252
H	-1.6553853428	-0.3219058765	 1.0505691236	 0.092478
H	-1.9359766043	-0.3326144189	-0.6897838596	 0.094914
H	 1.0409905164	-2.3685533341	-0.3391045305	 0.106654
H	 0.2969210081	-4.8717303232	-0.8396774669	 0.082881
H	 0.364086611	-4.2034499992	 1.8664125895	 0.271224
H	-2.0425465919	-4.7783584871	-0.94767259	 0.104193
H	-1.9733886179	-5.1947930228	 0.7635134903	 0.106289
H	-2.5842308149	-2.9218877315	 1.3704192353	 0.104674
H	-3.0959271278	-2.7784162961	-0.2977326454	 0.104879
70.9054	74.812	97.9269	126.7997	168.1509	233.7442	317.444	338.5791	379.4053	399.565	413.4325	505.435	685.9756	755.5209	772.8597	863.101	873.8361	924.3072	955.7056	984.2694	1005.7289	1023.1576	1059.0525	1079.9024	1139.5446	1167.4653	1171.5367	1185.6109	1219.8422	1235.3243	1259.2408	1264.8171	1277.0423	1289.9787	1336.2625	1343.2661	1424.5852	1435.3676	1476.7215	1479.1562	1485.5243	1494.6756	1498.9135	1520.0233	1717.9127	2917.5801	2927.9433	2968.9101	3011.0784	3011.9419	3042.4688	3050.8576	3066.4978	3111.9518	3117.1429	3221.8821	3798.631
COCC1=CC(O)CC1	COCC1=C[C@@H](O)CC1	
InChI=1S/C7H12O2/c1-9-5-6-2-3-7(8)4-6/h4,7-8H,2-3,5H2,1H3	InChI=1S/C7H12O2/c1-9-5-6-2-3-7(8)4-6/h4,7-8H,2-3,5H2,1H3/t7-/m0/s1
