18
gdb 22126	4.11674	0.85399	0.83933	1.9055	77.58	-0.2533	-0.0285	0.2248	1405.2087	0.144412	-439.045335	-439.035915	-439.034971	-439.080288	34.382	
C	-0.2750482579	 1.659153381	-0.0943550109	-0.453773
C	 0.0139737416	 0.1685091117	 0.0107229608	 0.223201
C	 1.2233355956	-0.329614184	-0.8773217024	-0.370923
C	 2.0197418491	-0.507142836	 0.3942249997	 0.436358
C	 0.8325572023	-0.2499356184	 1.2938916141	-0.375282
N	 3.2553359634	-0.7244549143	 0.5569526711	-0.228655
O	 3.5794593595	-0.7826382047	 1.9236115901	-0.392064
C	-1.2248521702	-0.6714959065	-0.1815131311	 0.123753
O	-2.3296438676	-0.2439142844	-0.3953272361	-0.253991
H	 0.640493636	 2.2417882674	 0.0473659359	 0.116755
H	-0.6952932967	 1.9053102104	-1.0734542978	 0.132553
H	-1.0022641366	 1.9670215049	 0.6621442467	 0.132911
H	 1.0258411131	-1.2715636664	-1.4019939791	 0.126351
H	 1.599260374	 0.3976448043	-1.6010899058	 0.133517
H	 0.9554010532	 0.5309482003	 2.0484407984	 0.137925
H	 0.4630612823	-1.1536973242	 1.7921630373	 0.129848
H	 4.5302756854	-0.9356124866	 1.9011593543	 0.309475
H	-1.0408218464	-1.7705431546	-0.1080412052	 0.072043
30.3622	80.8935	191.4701	230.9593	240.4396	256.8608	301.9651	343.7534	378.7775	389.8696	430.6042	476.5545	580.0873	723.7067	765.6256	813.7546	857.8054	889.6334	912.8939	964.8724	985.138	1017.5411	1068.419	1128.0858	1147.1539	1171.9116	1196.9616	1236.5406	1262.9087	1320.0828	1406.0547	1411.0372	1432.471	1446.4009	1465.7914	1490.0852	1493.0407	1788.059	1828.3547	2843.1373	3040.5966	3041.7613	3044.9766	3103.9833	3105.4504	3114.6849	3120.3042	3817.5051
CC1(CC(C1)=NO)C=O	C[C@]1(CC(=NO)C1)C=O	
InChI=1S/C6H9NO2/c1-6(4-8)2-5(3-6)7-9/h4,9H,2-3H2,1H3	InChI=1S/C6H9NO2/c1-6(4-8)2-5(3-6)7-9/h4,9H,2-3H2,1H3/t6-
