23
gdb 108503	2.60031	1.39791	1.15804	1.447	84.17	-0.2391	0.0785	0.3176	1196.0278	0.207199	-388.296317	-388.287607	-388.286663	-388.329567	34.204	
C	 0.0285773509	 1.635590021	 0.0514756399	-0.384838
C	 0.0176520435	 0.106271953	-0.0535081662	-0.275048
C	-1.3787705057	-0.5085767978	-0.0126342206	 0.362815
C	-2.0888712604	-0.4831847539	 1.3831842738	-0.286304
C	-2.1276083314	-2.0369847345	 1.4052962536	-0.244063
C	-1.4638777912	-2.0757018764	-0.0007389477	 0.067505
O	-2.298549752	-2.4825430217	-1.0687334087	-0.258072
C	-3.1453069292	-1.3861674077	-1.397376129	-0.098285
C	-2.2818813769	-0.1306668388	-1.2005570632	-0.284689
H	 1.0521272725	 2.0228672671	 0.0507561226	 0.112767
H	-0.5022912428	 2.0975507144	-0.7872966173	 0.118148
H	-0.4536391063	 1.9735316881	 0.9751433719	 0.117413
H	 0.5123577199	-0.2022947229	-0.9844755286	 0.095992
H	 0.6169317509	-0.3149443351	 0.764828724	 0.091005
H	-1.4867727803	-0.0330245421	 2.176871651	 0.097866
H	-3.0689952018	 0.002372461	 1.3877308752	 0.093875
H	-1.525086412	-2.4950504369	 2.1934994149	 0.099365
H	-3.1225104479	-2.4881236885	 1.4277544098	 0.105808
H	-0.5317511443	-2.6421289254	-0.0761930403	 0.070412
H	-3.4951640979	-1.5285289168	-2.4232460982	 0.107959
H	-4.0281524706	-1.3612948567	-0.7382828916	 0.089572
H	-2.8818663995	 0.7657111629	-1.0196664474	 0.099572
H	-1.6710007274	 0.0429651877	-2.093566458	 0.101226
84.1442	122.7006	172.8616	213.2218	231.9569	316.8685	352.7358	383.2074	443.4598	584.4398	625.6744	658.041	738.2417	791.1475	820.6219	845.1592	890.7907	926.0822	941.8036	952.4928	966.0188	995.5515	1006.7237	1043.8085	1057.6641	1067.213	1127.3984	1149.8489	1180.9258	1213.0062	1217.5346	1233.0003	1247.1231	1260.2888	1269.3183	1279.0808	1323.0177	1338.0156	1353.886	1368.4616	1394.7561	1413.3234	1470.036	1480.3468	1484.1579	1495.0883	1500.7563	1507.3692	1518.9997	2973.6091	3008.0614	3034.3765	3039.182	3041.9859	3051.0153	3061.6153	3072.7914	3089.5208	3094.5954	3098.019	3102.1392	3104.401	3120.2081
CCC12CCC1OCC2	CC[C@]12CC[C@H]1OCC2	
InChI=1S/C8H14O/c1-2-8-4-3-7(8)9-6-5-8/h7H,2-6H2,1H3	InChI=1S/C8H14O/c1-2-8-4-3-7(8)9-6-5-8/h7H,2-6H2,1H3/t7-,8-/m1/s1
