20
gdb 119844	4.38555	0.96205	0.84465	0.9625	81.2	-0.2376	0.0345	0.2721	1428.3558	0.172084	-403.15931	-403.150805	-403.149861	-403.192882	32.104	
C	 0.0593546096	 1.4859673358	-0.0704940206	-0.39101
C	-0.0337289804	-0.0274750748	-0.0419662986	-0.037252
O	 0.6551625791	-0.5277501629	-1.2011090194	-0.271371
C	 0.727883052	-1.8568346964	-1.3131438632	 0.437288
N	 0.2091021214	-2.6930762827	-0.4984969407	-0.33202
C	 0.594420817	-4.0437929396	-0.9339622115	-0.175887
C	 1.3424254648	-3.9031486123	-2.2654846584	-0.046708
C	 0.5875503939	-3.2588925886	-3.3920412829	-0.276626
C	 1.4606377259	-2.4081448069	-2.4889654154	-0.156972
H	 1.1026356109	 1.8134345198	-0.0432079516	 0.126949
H	-0.4031349137	 1.8888615539	-0.9761288058	 0.127892
H	-0.457216845	 1.9069424991	 0.7971986377	 0.120345
H	 0.427139137	-0.4538912779	 0.8553882287	 0.119347
H	-1.0714394802	-0.3768052238	-0.0684533176	 0.11851
H	 1.232316672	-4.5009371473	-0.1665271705	 0.105435
H	-0.2967827696	-4.6773323486	-1.0215944373	 0.107211
H	 2.1576601836	-4.5775675716	-2.4981175605	 0.090922
H	 0.9534644082	-3.4300881956	-4.3986291312	 0.114185
H	-0.4900542537	-3.1513852695	-3.3136532518	 0.120396
H	 2.3312264573	-1.8997358399	-2.8832722094	 0.099365
60.5455	110.7264	156.2989	228.3956	272.3974	282.9337	351.0423	377.4126	431.0005	666.0642	719.1688	753.2759	797.088	808.9504	816.4548	862.3948	908.6918	916.2402	988.848	1000.6284	1028.0747	1059.6068	1065.4816	1081.6348	1095.2598	1107.3829	1144.9222	1183.6165	1193.1279	1221.0988	1267.7035	1287.8851	1328.9075	1352.9433	1380.4547	1410.6853	1443.7044	1479.6653	1485.388	1497.0475	1499.1881	1521.1201	1693.9918	3019.9287	3044.9596	3045.3117	3049.214	3081.2525	3119.9619	3123.3092	3124.5656	3181.7896	3193.8594	3214.5823
CCOC1=NCC2CC12	CCOC1=NC[C@H]2C[C@@H]12	
InChI=1S/C7H11NO/c1-2-9-7-6-3-5(6)4-8-7/h5-6H,2-4H2,1H3	InChI=1S/C7H11NO/c1-2-9-7-6-3-5(6)4-8-7/h5-6H,2-4H2,1H3/t5-,6-/m1/s1
