19
gdb 67661	2.9304	1.85675	1.60982	1.2217	77.25	-0.2377	0.0803	0.318	912.5324	0.161808	-385.851119	-385.844478	-385.843534	-385.881582	28.703	
O	-0.0810834864	 1.3917215631	 0.0354726361	-0.469586
C	 0.0177753541	 0.0114912764	 0.0411217438	 0.385481
C	-0.1606105162	-0.8061702635	-1.2312340041	-0.128324
C	 0.6582745519	-2.07014918	-1.4437066275	-0.228552
C	 0.8592405606	-2.600437609	-0.015840808	-0.042449
C	 1.8837382611	-1.7091724116	 0.7473809312	-0.245015
C	 0.7031942425	-0.8064614989	 1.1618876508	-0.098248
C	-0.3156865497	-1.9412275455	 0.8311861073	-0.039826
C	-1.1223358953	-0.9845395515	-0.0764442552	-0.14469
H	 0.6775136844	 1.7496976035	-0.4391359029	 0.282401
H	-0.5090731687	-0.2262020137	-2.0801247589	 0.08218
H	 0.0856481677	-2.7772783055	-2.056923583	 0.093479
H	 1.6157897529	-1.8961614732	-1.9482607445	 0.091725
H	 1.0008966161	-3.6808994613	 0.0362889535	 0.061641
H	 2.3066890445	-2.2232590192	 1.6157416471	 0.094647
H	 2.7009397858	-1.2738781957	 0.161817083	 0.082735
H	 0.6960947929	-0.293208731	 2.1250016554	 0.068336
H	-0.8059614462	-2.5262407695	 1.6054909498	 0.065316
H	-2.1936686219	-0.8416258239	-0.1283326439	 0.088749
217.4336	255.0757	299.6765	360.2581	402.5583	494.4377	585.1679	617.4789	679.0868	694.8139	804.8445	819.8361	838.2816	846.6593	885.2327	903.4127	919.9828	931.403	971.3255	983.0532	983.7157	1026.9978	1052.063	1074.9233	1089.6164	1123.1954	1167.2863	1174.5669	1201.2956	1211.1419	1229.8601	1242.9232	1245.6998	1281.7717	1292.978	1312.7724	1333.9853	1340.7547	1451.7717	1483.9095	1498.9432	3021.4365	3035.1933	3062.0572	3086.3778	3095.4282	3099.0359	3141.9173	3166.8197	3199.2085	3787.7941
OC12C3CC4CC1C4C23	O[C@@]12[C@H]3C[C@H]4C[C@@H]1[C@H]4[C@@H]23	
InChI=1S/C8H10O/c9-8-4-1-3-2-5(8)7(8)6(3)4/h3-7,9H,1-2H2	InChI=1S/C8H10O/c9-8-4-1-3-2-5(8)7(8)6(3)4/h3-7,9H,1-2H2/t3-,4-,5+,6+,7+,8-/m1/s1
