23
gdb 123178	7.75605	0.44392	0.43578	0.4869	84.22	-0.2427	0.0794	0.3221	2515.0232	0.203652	-425.396537	-425.385673	-425.384728	-425.434181	38.092	
O	-0.0345130019	 1.309002693	-0.4056474303	-0.421987
C	-0.0283784353	-0.0191310216	 0.0961434012	-0.073702
C	-1.3916688003	-0.6350462331	-0.1893090825	-0.167656
C	-1.5054939298	-2.0768153938	 0.3115775122	-0.202084
C	-2.8708976407	-2.6868047945	 0.0267222173	-0.056132
O	-2.8857617027	-4.0096880422	 0.537290325	-0.251178
C	-4.1000888149	-4.661435568	 0.3463634543	 0.151424
C	-4.3670080194	-5.3578936488	-0.9651486794	-0.287433
C	-4.0526635077	-6.1525021807	 0.2887125128	-0.287717
H	 0.8248772975	 1.7016877037	-0.2277149019	 0.285084
H	 0.7595732791	-0.6232155221	-0.3832264802	 0.084377
H	 0.1656893226	-0.0351157561	 1.1812818322	 0.084692
H	-2.1587745163	-0.0063628719	 0.2795197651	 0.10597
H	-1.5707354487	-0.5902857641	-1.2707114684	 0.105858
H	-0.7389135908	-2.7054837179	-0.1581518569	 0.103891
H	-1.3249970133	-2.1206942021	 1.3926743917	 0.105617
H	-3.6652975469	-2.0874707707	 0.5028377052	 0.085484
H	-3.0761660275	-2.6930124625	-1.055681804	 0.089712
H	-4.9459611656	-4.1900973237	 0.8500400071	 0.080163
H	-5.3783634832	-5.3720004553	-1.3564887045	 0.11104
H	-3.5870488952	-5.3005243033	-1.7162081003	 0.117691
H	-3.0691878306	-6.6037612448	 0.352254488	 0.124323
H	-4.8454992783	-6.7160008296	 0.7673333361	 0.112565
42.4258	54.502	81.6055	101.1836	122.3543	162.4764	201.0081	262.0968	271.9041	351.7009	412.2685	492.6924	515.0162	754.6103	758.927	812.1613	817.6688	834.3211	944.6694	958.7731	975.1821	1010.5045	1047.3277	1053.1645	1068.2064	1071.1561	1091.6197	1109.429	1129.8612	1182.5476	1193.555	1203.9562	1220.8132	1235.0836	1244.7123	1284.1509	1296.6452	1311.7648	1318.5199	1367.7761	1387.768	1439.573	1452.0726	1463.1167	1491.555	1497.9353	1501.9992	1525.5833	1530.8256	2958.5765	2959.7428	2983.6901	2991.837	3024.4453	3033.0731	3056.5757	3081.2838	3083.6726	3134.7301	3141.7611	3219.2354	3234.2608	3831.0364
OCCCCOC1CC1	OCCCCOC1CC1	
InChI=1S/C7H14O2/c8-5-1-2-6-9-7-3-4-7/h7-8H,1-6H2	InChI=1S/C7H14O2/c8-5-1-2-6-9-7-3-4-7/h7-8H,1-6H2
