17
gdb 124306	3.92133	0.9816	0.92655	4.244	74.32	-0.231	-0.0084	0.2226	1286.8763	0.136312	-418.052693	-418.044009	-418.043065	-418.087849	30.936	
C	 0.6708800041	 0.2150658782	-0.4951774768	-0.472918
C	-0.3766841791	 0.1727312126	 0.6014603276	 0.385137
O	-0.3377071088	 0.9072018961	 1.5599723527	-0.298976
C	-1.5164691893	-0.842365851	 0.4291835306	-0.391881
C	-1.0642360628	-2.2275245996	 0.07785141	 0.322399
N	-1.1827178079	-2.6859700944	-1.1689512629	-0.286401
N	-0.664916721	-3.9284375303	-1.1236575668	-0.179982
C	-0.2246888814	-4.2771828702	 0.1086128171	-0.013028
C	-0.4642818847	-3.1930087458	 0.9238223991	-0.281003
H	 1.282935624	 1.1107629458	-0.3840687966	 0.136359
H	 1.3102223652	-0.6716271097	-0.421629582	 0.149626
H	 0.2073813917	 0.1822909434	-1.4859856604	 0.141987
H	-2.0971425557	-0.831503245	 1.3548881339	 0.125983
H	-2.1584341198	-0.4776198873	-0.3818702493	 0.135875
H	-0.661532738	-4.4850351366	-1.961259232	 0.277102
H	 0.2088347856	-5.2452906519	 0.3040444061	 0.136456
H	-0.2455781322	-3.1067628643	 1.9758997097	 0.113265
33.9803	45.3211	103.1169	133.6602	291.5755	328.7993	392.3474	474.3684	512.148	543.2804	658.551	690.2116	761.3243	783.0564	790.5146	848.9245	868.4602	947.3482	989.3155	1017.9416	1029.1295	1071.6326	1111.622	1159.5679	1214.8392	1234.8406	1283.8411	1316.8033	1383.5013	1404.8536	1452.0766	1461.068	1474.0139	1475.392	1492.6192	1571.037	1815.3989	3042.548	3045.6079	3106.0822	3109.0818	3154.9346	3256.3873	3275.3218	3677.4499
CC(=O)CC1=NNC=C1	CC(=O)Cc1n[nH]cc1	
InChI=1S/C6H8N2O/c1-5(9)4-6-2-3-7-8-6/h2-3H,4H2,1H3,(H,7,8)	InChI=1S/C6H8N2O/c1-5(9)4-6-2-3-7-8-6/h2-3H,4H2,1H3,(H,7,8)
