22
gdb 119832	4.5968	0.77314	0.7067	1.2889	84.08	-0.238	0.0351	0.2731	1708.1491	0.193795	-404.389315	-404.379363	-404.378419	-404.425515	35.629	
C	 0.1621132166	 1.6644520423	 0.0468450496	-0.385186
C	 0.07742384	 0.1371702243	 0.0929522832	-0.154604
C	 0.5764609187	-0.5123135036	-1.1995381645	-0.293842
C	 0.5176188827	-2.0071924811	-1.1919441637	 0.419603
N	 0.1169738376	-2.7500886708	-0.2420768654	-0.316246
C	 0.2585434362	-4.13535061	-0.706160934	-0.200608
C	 0.7769624824	-4.0262872608	-2.1674837532	 0.104526
C	-0.1765451003	-4.5546249467	-3.2277131455	-0.395761
O	 0.9515886239	-2.5954830603	-2.3432079645	-0.270893
H	 1.1936165106	 2.0035139283	-0.102397523	 0.112508
H	-0.440323048	 2.0740496941	-0.7720936421	 0.112266
H	-0.2008222023	 2.1075249242	 0.9791285178	 0.113936
H	 0.6603135664	-0.2503354359	 0.9348467425	 0.114159
H	-0.9544033255	-0.1799776139	 0.2763571198	 0.112949
H	-0.0008698955	-0.1565769408	-2.0635209329	 0.122073
H	 1.6142648126	-0.2184601193	-1.4075778277	 0.12295
H	 0.9516748224	-4.6787960576	-0.0546165138	 0.111509
H	-0.7069778191	-4.6525762975	-0.6528996841	 0.10832
H	 1.7653970507	-4.4817736023	-2.2875370415	 0.088463
H	-1.1652810067	-4.0978697847	-3.1165251182	 0.12621
H	 0.1947106967	-4.337881515	-4.2331866404	 0.127524
H	-0.28617856	-5.639595163	-3.1271758083	 0.120145
37.0267	59.103	83.2397	131.3759	213.7173	240.0025	247.5876	317.677	323.4129	400.3553	457.9781	604.7627	707.2167	738.0731	745.2232	839.9966	878.657	897.3505	930.9096	935.6652	964.6757	1025.8574	1057.9632	1071.8893	1114.5157	1124.1105	1131.3206	1144.125	1199.4445	1229.2142	1251.2567	1306.3191	1318.1425	1332.8277	1353.1496	1385.0876	1409.1537	1414.1565	1421.1012	1467.8505	1485.3492	1488.6222	1495.082	1500.6373	1504.6498	1509.1778	1737.449	3020.4091	3027.7293	3028.6005	3036.9096	3044.8864	3045.1927	3052.8147	3065.749	3076.7224	3102.0003	3104.292	3109.4429	3118.8948
CCCC1=NCC(C)O1	CCCC1=NC[C@@H](C)O1	
InChI=1S/C7H13NO/c1-3-4-7-8-5-6(2)9-7/h6H,3-5H2,1-2H3	InChI=1S/C7H13NO/c1-3-4-7-8-5-6(2)9-7/h6H,3-5H2,1-2H3/t6-/m1/s1
