21
gdb 78449	3.87935	1.18775	1.11517	1.7751	81.86	-0.2392	0.0918	0.3309	1206.7396	0.183479	-387.043042	-387.035077	-387.034133	-387.074931	32.435	
C	-0.0001399281	 1.5202566213	 0.0211081767	-0.426881
C	-0.0324501216	 0.0050606515	-0.0094170951	-0.035187
C	 1.2666998063	-0.718222118	-0.2765219734	-0.051513
C	 0.6502833012	-0.7331664219	 1.1180436683	-0.05151
C	 0.5046290338	-2.2608429795	 1.2668905814	 0.03997
O	 1.8178424159	-2.7242148904	 0.7791919803	-0.305679
C	 1.2908250775	-2.2417826786	-0.5117806088	 0.039974
C	-0.0976400621	-2.7743730234	-0.0680166892	 0.024189
C	-0.2700134687	-4.2845910155	-0.1603984317	-0.429942
H	 0.9415442852	 1.888601642	 0.441221203	 0.117589
H	-0.1012099681	 1.936002443	-0.9871244387	 0.119667
H	-0.8169466249	 1.9186367966	 0.6324295877	 0.119668
H	-0.9534451495	-0.39362335	-0.420783194	 0.087517
H	 2.1593813738	-0.1471881969	-0.5054697357	 0.091406
H	 1.0773651288	-0.1734181658	 1.942458982	 0.091406
H	 0.2314851113	-2.6673455274	 2.2412476569	 0.072279
H	 1.8306855392	-2.6285781984	-1.3767452275	 0.072279
H	-0.9867522456	-2.274252214	-0.4556560235	 0.065207
H	 0.6116688537	-4.8008735877	 0.2238542352	 0.137803
H	-1.1432888187	-4.6101974116	 0.4156000825	 0.110878
H	-0.4291956294	-4.5928938951	-1.1996367265	 0.110879
189.8749	201.0742	220.9906	229.6929	294.0598	294.619	347.6657	405.7229	546.5448	608.5126	695.0853	784.3347	791.394	824.7015	840.7509	848.9102	880.2199	907.9502	970.3117	980.9467	1000.2216	1024.7929	1038.94	1060.2477	1087.771	1088.1003	1088.6146	1138.138	1146.8098	1182.3127	1208.9819	1231.4543	1251.4007	1281.2759	1283.5429	1292.1929	1303.4449	1403.6725	1411.0968	1417.016	1429.425	1494.4006	1494.7609	1500.1452	1510.2729	3029.5858	3033.2032	3083.2313	3089.3111	3095.1949	3098.2669	3114.9761	3118.2566	3136.9809	3156.9458	3170.2384	3179.3655
CC1C2C1C1OC2C1C	C[C@H]1[C@H]2[C@@H]1[C@@H]1O[C@H]2[C@H]1C	
InChI=1S/C8H12O/c1-3-5-6(3)8-4(2)7(5)9-8/h3-8H,1-2H3	InChI=1S/C8H12O/c1-3-5-6(3)8-4(2)7(5)9-8/h3-8H,1-2H3/t3-,4+,5-,6+,7-,8+
