19
gdb 73277	2.37929	1.80909	1.37488	2.5338	70.65	-0.2515	0.0687	0.3202	1008.717	0.159913	-460.14405	-460.136134	-460.135189	-460.176391	30.56	
C	-0.068427325	 1.5347590053	-0.0510013432	-0.453158
C	-0.0067410138	 0.0196533151	 0.000190387	 0.324883
C	-1.2280927017	-0.7704134216	 0.5121821997	-0.100679
O	-0.4072211102	-1.5352904651	 1.4197461013	-0.290614
C	 0.7230301127	-0.672459404	 1.1926122462	 0.086274
C	 2.0149449318	-1.4059397615	 0.8794729417	-0.126475
O	 2.0416875172	-1.9092523627	-0.4460539623	-0.223213
C	 1.7228957556	-0.8977659264	-1.3569231328	 0.006876
O	 0.3779411901	-0.5029864638	-1.2721054864	-0.287143
H	 0.9182075339	 1.9580325019	-0.2673475152	 0.121745
H	-0.7512587449	 1.8536020533	-0.8443765995	 0.132215
H	-0.4173033295	 1.950101295	 0.8992541966	 0.119226
H	-1.9734208338	-0.1656176337	 1.0455123891	 0.092441
H	-1.7150597487	-1.3963859234	-0.2407331628	 0.118049
H	 0.8789144929	 0.0041318095	 2.0457639997	 0.068179
H	 2.8641228952	-0.7191733023	 1.0375787015	 0.090075
H	 2.1274098434	-2.260018785	 1.5531225655	 0.128772
H	 2.394767436	-0.0307262692	-1.2053064562	 0.071774
H	 1.8602695988	-1.3041066914	-2.3605827097	 0.120773
95.4459	158.5884	208.6413	242.3973	306.6475	364.6697	383.4387	423.5962	487.5213	574.1003	641.761	740.595	817.5334	861.5953	872.7852	912.8667	967.4647	973.7068	1014.9164	1036.5355	1070.5564	1090.6794	1131.8794	1155.8016	1178.0827	1209.0046	1218.697	1238.6864	1275.7947	1300.8916	1331.6328	1365.5174	1372.8999	1396.4261	1408.6233	1444.7167	1475.6393	1484.6869	1489.7131	1508.7966	1512.1376	2913.7224	2962.4823	2996.2629	3014.7595	3036.0754	3092.8162	3095.5483	3105.0014	3115.2194	3116.1284
CC12COC1COCO2	C[C@]12CO[C@H]1COCO2	
InChI=1S/C6H10O3/c1-6-3-8-5(6)2-7-4-9-6/h5H,2-4H2,1H3	InChI=1S/C6H10O3/c1-6-3-8-5(6)2-7-4-9-6/h5H,2-4H2,1H3/t5-,6-/m0/s1
