20
gdb 107959	2.73354	1.38678	1.35009	2.6958	79.25	-0.2367	0.078	0.3146	1087.8365	0.170622	-403.053798	-403.045387	-403.044442	-403.08657	32.876	
C	 0.1120159181	 1.5206440577	-0.0033374781	-0.525164
C	 0.0024533254	 0.0186922471	-0.0416630273	 0.26061
C	 0.4314019128	-0.9773700114	-1.1182133354	-0.235302
N	-0.1347926929	-1.9370965547	-0.080092706	-0.202438
C	 0.4280069938	-1.0303738366	 1.0425667897	-0.040061
C	-0.9164517774	-1.0067205706	 1.7693291883	-0.305181
C	-1.2426351087	-0.891688056	 0.274782416	 0.298825
C	-2.5732161126	-1.0243887111	-0.411245014	-0.185986
O	-3.126538795	-2.3052775044	-0.1643068923	-0.418194
H	 1.1575155881	 1.8381724093	-0.0838269997	 0.124659
H	-0.439424794	 1.9777389452	-0.8323599112	 0.124549
H	-0.290122574	 1.9266113168	 0.9313122138	 0.122996
H	-0.1064778864	-0.9839092536	-2.0721382084	 0.099206
H	 1.5049188094	-1.1135338251	-1.2904882676	 0.098136
H	 1.4334474893	-1.2083227556	 1.4301220463	 0.080994
H	-1.2203325244	-1.9369817291	 2.2549448922	 0.113118
H	-1.1332634354	-0.1355132989	 2.3923732086	 0.098046
H	-3.2824135944	-0.2860045378	-0.0201957278	 0.110915
H	-2.4628367233	-0.8326082212	-1.491815705	 0.086728
H	-2.4015410883	-2.9334452898	-0.2782157922	 0.293544
87.8829	136.8107	206.5541	246.6698	253.0201	290.2994	407.5407	431.828	455.2322	507.8863	620.2216	667.3079	717.7006	785.1126	845.6148	884.2241	891.6914	913.9153	928.579	961.3019	1008.3348	1022.0779	1058.2957	1089.7577	1097.24	1139.0965	1155.4368	1161.2658	1191.9374	1211.0698	1228.4366	1240.7754	1270.2297	1323.3747	1332.3987	1370.2816	1408.7792	1439.8339	1486.2353	1489.1401	1495.1422	1497.8969	1525.4529	2962.4738	3026.0819	3033.8396	3060.8812	3061.9322	3088.7055	3093.3645	3093.9074	3095.949	3127.0613	3768.3013
CC12CN3C1CC23CO	C[C@@]12CN3[C@@H]1C[C@@]23CO	
InChI=1S/C7H11NO/c1-6-3-8-5(6)2-7(6,8)4-9/h5,9H,2-4H2,1H3	InChI=1S/C7H11NO/c1-6-3-8-5(6)2-7(6,8)4-9/h5,9H,2-4H2,1H3/t5-,6-,7-/m1/s1
