18
gdb 56650	2.3425	1.28884	1.04369	4.5014	72.15	-0.2777	0.0148	0.2926	1214.1393	0.145141	-439.075976	-439.066086	-439.065142	-439.110813	35.85	
C	-0.0534052083	 1.5181408017	-0.0238323513	-0.408898
C	 0.0641796156	 0.0111298436	-0.0074854631	-0.02791
C	 1.4156511852	-0.669139536	-0.142881006	-0.378199
C	 0.675204442	-0.7018480448	 1.1668017255	 0.373987
O	 1.1471198987	 0.073291972	 2.2386977576	-0.469144
C	 0.0581516231	-2.008705318	 1.6592433428	-0.061726
O	 0.9120240026	-2.6823132039	 2.5589188866	-0.41386
C	-1.2664300542	-1.7558753259	 2.2759281145	 0.26452
N	-2.2949744151	-1.556052816	 2.7627344362	-0.323803
H	 0.7661081718	 1.9804740844	 0.5311579911	 0.125869
H	-0.0353508898	 1.8976403821	-1.0504274304	 0.119833
H	-0.9909337472	 1.8396869244	 0.4402889703	 0.135365
H	-0.7673546896	-0.5117497197	-0.4748370037	 0.09954
H	 1.5002664859	-1.5826283359	-0.7220319645	 0.122525
H	 2.2866158523	-0.0221305923	-0.1911990604	 0.118005
H	 2.0922757076	-0.0874582421	 2.3262100549	 0.294818
H	-0.093132162	-2.6835859091	 0.8107530103	 0.138491
H	 1.0701339315	-2.0675859943	 3.2872575995	 0.290588
57.9074	101.5021	168.8819	189.2804	191.7767	208.716	250.0674	301.5569	359.0811	384.2327	438.9695	501.9321	546.3213	578.066	617.7304	792.917	813.1386	885.7673	896.0575	939.6834	982.1036	1019.1731	1045.1491	1077.4531	1095.6186	1137.7655	1187.6107	1227.7279	1237.8005	1288.4908	1331.8548	1353.284	1407.9861	1422.7564	1427.6741	1483.8599	1491.3523	1504.7086	2356.0157	3042.1853	3072.2207	3104.7742	3120.9596	3124.663	3138.7216	3212.4671	3776.7852	3814.6272
CC1CC1(O)C(O)C#N	C[C@H]1C[C@]1(O)[C@@H](O)C#N	
InChI=1S/C6H9NO2/c1-4-2-6(4,9)5(8)3-7/h4-5,8-9H,2H2,1H3	InChI=1S/C6H9NO2/c1-4-2-6(4,9)5(8)3-7/h4-5,8-9H,2H2,1H3/t4-,5-,6+/m0/s1
