19
gdb 99958	2.11626	1.3544	1.06888	2.4847	72.44	-0.244	-0.083	0.161	1225.1475	0.153692	-460.17987	-460.168789	-460.167845	-460.216575	38.201	
C	 0.444190207	 1.1493011054	 0.468024042	-0.41695
C	 0.2679485867	-0.2780258227	-0.0623383289	-0.215888
C	 0.6285544102	-0.4507010307	-1.5632171081	 0.240925
C	-0.3031574297	 0.329196444	-2.4955727942	-0.423095
O	 1.9957148251	-0.1281844425	-1.8169591574	-0.470307
C	 0.5478149877	-1.9456982266	-1.8903515433	 0.300478
O	-0.3801722502	-2.4653711281	-2.4626792831	-0.295565
C	 1.6755734904	-2.8890539145	-1.4306099041	 0.105362
O	 2.2813069856	-2.7834269077	-0.3984264581	-0.217867
H	 1.4796804285	 1.4934824078	 0.3656496677	 0.115037
H	-0.2087572361	 1.8682237539	-0.0353085416	 0.125021
H	 0.2076312663	 1.1815253308	 1.5353410127	 0.129823
H	 0.9031617576	-0.9565768485	 0.5124914817	 0.140003
H	-0.7704512462	-0.6000016973	 0.079183299	 0.109684
H	-0.2452836004	 1.4013051742	-2.2868434379	 0.110372
H	-0.0118741893	 0.1668845707	-3.5359790011	 0.130887
H	-1.3391194776	 0.0049273348	-2.3749090141	 0.136067
H	 2.1346104832	 0.7950177054	-1.5841153246	 0.287689
H	 1.788527881	-3.7593969886	-2.1124627566	 0.108323
63.8433	65.8305	88.0746	112.6801	166.2983	189.6754	206.6666	253.9746	280.5758	300.5672	358.8381	379.8332	433.7378	500.4451	565.517	666.2556	736.2045	788.0538	823.7004	929.5438	988.2285	1004.4776	1021.5016	1054.1793	1115.0788	1158.2416	1181.4661	1217.9476	1326.1418	1342.9956	1384.6109	1388.8651	1407.2155	1412.168	1480.4575	1485.1994	1497.6198	1502.8804	1509.2911	1806.4847	1823.1667	2908.6867	3034.1142	3043.7325	3051.3576	3094.0426	3105.8502	3119.0108	3124.5628	3137.3975	3825.864
CCC(C)(O)C(=O)C=O	CC[C@@](C)(O)C(=O)C=O	
InChI=1S/C6H10O3/c1-3-6(2,9)5(8)4-7/h4,9H,3H2,1-2H3	InChI=1S/C6H10O3/c1-3-6(2,9)5(8)4-7/h4,9H,3H2,1-2H3/t6-/m1/s1
