18
gdb 11525	4.01148	1.05648	0.9448	3.5918	69.27	-0.2485	-0.0224	0.2261	1247.9518	0.151203	-384.926801	-384.917749	-384.916804	-384.962124	31.135	
C	 0.1975861448	 1.4928515594	 0.1216880234	-0.417333
C	-0.0786695558	-0.0152653156	-0.0003017395	-0.046654
C	-1.585287945	-0.3476544134	-0.1265321697	-0.245215
C	-2.3903669906	 0.061846503	 1.0844414131	 0.092753
C	-3.4323970854	-0.8017890268	 1.6540212851	-0.17962
O	-2.1540179447	-0.6846384726	 2.2809099983	-0.233209
C	 0.6318544315	-0.5554900129	-1.2264833159	 0.155876
O	 1.4260216414	-1.459056347	-1.2324059293	-0.244886
H	 1.2716557836	 1.6886608324	 0.1931172893	 0.132446
H	-0.1873592112	 2.0388784347	-0.7475897412	 0.119183
H	-0.2728691405	 1.9090189687	 1.0159483057	 0.135063
H	 0.3227301787	-0.5455264179	 0.868630807	 0.114478
H	-2.0025392085	 0.1474006939	-1.0144943193	 0.104019
H	-1.6993154539	-1.4273218627	-0.2737995848	 0.117721
H	-2.4884085263	 1.1353357756	 1.2515749987	 0.095911
H	-4.2648651109	-0.360979619	 2.2007338889	 0.117243
H	-3.6394153434	-1.7663412626	 1.1921046292	 0.117064
H	 0.3498212862	-0.0350420973	-2.1752002588	 0.06516
41.0459	45.4613	79.4813	167.834	211.8528	284.7041	319.1923	340.8081	399.7689	462.8652	576.7379	790.1254	839.8323	876.7045	904.3905	919.6713	953.7546	983.1449	1038.6036	1086.0182	1127.834	1151.7475	1158.8033	1164.4383	1179.2448	1248.6243	1282.3294	1298.2783	1347.3702	1360.9958	1406.4554	1430.419	1446.1391	1472.472	1495.5546	1504.8191	1530.5743	1838.1951	2827.4567	3017.1333	3034.0182	3066.5673	3077.9286	3082.7829	3103.3103	3103.9585	3120.9658	3169.8935
CC(CC1CO1)C=O	C[C@@H](C[C@H]1CO1)C=O	
InChI=1S/C6H10O2/c1-5(3-7)2-6-4-8-6/h3,5-6H,2,4H2,1H3	InChI=1S/C6H10O2/c1-5(3-7)2-6-4-8-6/h3,5-6H,2,4H2,1H3/t5-,6-/m0/s1
