18
gdb 75807	3.05801	1.30695	1.08666	4.945	71.97	-0.2521	0.0047	0.2568	1144.3496	0.148093	-439.095765	-439.087455	-439.086511	-439.128845	31.598	
N	 0.3507132144	 1.326447504	-0.3068421777	-0.503784
C	 0.1302860233	-0.0614802346	-0.015682275	-0.250385
C	 0.0984778522	-0.4559928496	 1.4713983664	 0.436509
O	 0.7547478279	-0.2860444607	 2.4464501474	-0.319065
O	-1.0837497151	-1.1452492422	 1.3615766022	-0.279839
C	-1.2676872838	-0.7665591537	-0.0372042657	 0.44497
C	-2.5361412452	 0.0065713649	-0.4326851198	-0.28936
C	-2.591770407	-0.8568548624	-1.7262208187	-0.21272
C	-1.6139335136	-1.8642573968	-1.0548470696	-0.297001
H	 0.3107930365	 1.5156855608	-1.3017050233	 0.239783
H	-0.3177165324	 1.9284416018	 0.1606189938	 0.242211
H	 0.8739506379	-0.6612271027	-0.5518876931	 0.121836
H	-3.3577296853	-0.2172393021	 0.2523328166	 0.126612
H	-2.4483834281	 1.0912466996	-0.5413165075	 0.091659
H	-3.5690571985	-1.2389619355	-2.0237351006	 0.112765
H	-2.1408728703	-0.3486859841	-2.5823384308	 0.10663
H	-0.795166345	-2.2743765204	-1.6522024318	 0.103941
H	-2.1449668479	-2.6876932665	-0.5698858128	 0.125236
81.4339	101.2273	195.3116	231.3919	278.5608	322.3467	359.4582	446.9731	479.4764	556.1237	691.1153	704.2304	750.968	783.2012	828.2277	862.3501	869.7102	898.0265	925.7956	948.8229	1034.1023	1073.5167	1097.3079	1130.9479	1183.5223	1188.1509	1202.1969	1226.1452	1244.5615	1249.4339	1279.2819	1287.2052	1303.4898	1415.9248	1466.1986	1481.446	1502.5224	1662.1325	1941.5844	3056.4387	3058.5799	3060.7014	3071.2682	3108.4314	3113.6768	3132.5275	3515.5248	3603.5715
NC1C(=O)OC11CCC1	N[C@H]1C(=O)OC21CCC2	
InChI=1S/C6H9NO2/c7-4-5(8)9-6(4)2-1-3-6/h4H,1-3,7H2	InChI=1S/C6H9NO2/c7-4-5(8)9-6(4)2-1-3-6/h4H,1-3,7H2/t4-/m0/s1
