16
gdb 57163	2.4479	1.50195	0.94173	5.4767	74.93	-0.2735	-0.0626	0.2109	1195.3668	0.123046	-434.105417	-434.09585	-434.094906	-434.141434	33.078	
C	-1.582982547	 0.776001183	 0.5745593907	-0.333483
N	-0.4187038041	 0.0440022622	 0.0717322211	-0.168924
C	 0.7180209982	-0.2419525099	 0.8434216278	 0.411033
C	 0.7273872809	 0.2410745954	 2.281163955	-0.508358
O	 1.6540978937	-0.8510400393	 0.3773076237	-0.315278
C	-0.5153768623	-0.3609001062	-1.2588178222	 0.335848
N	-1.5726200336	-0.0753030394	-1.9202917674	-0.510584
C	 0.5674961258	-1.0957352675	-1.8840698948	 0.255596
N	 1.2622484468	-1.676103411	-2.6053505033	-0.342712
H	-1.7471641042	 1.6749908004	-0.0243420907	 0.158449
H	-2.4792981954	 0.1568631455	 0.4903418254	 0.158458
H	-1.4254199706	 1.0518464057	 1.6123441375	 0.137985
H	-0.0903786149	-0.1952072903	 2.8624758197	 0.153242
H	 1.6779117491	-0.07084076	 2.7118440195	 0.162454
H	 0.6444511207	 1.3301029951	 2.3453715444	 0.153239
H	-1.5051116231	-0.4309288338	-2.8718006563	 0.253036
17.9831	57.0198	131.5369	185.8404	203.7291	246.2429	270.9732	364.5651	390.4211	407.7541	443.8231	585.6754	589.3153	607.568	704.31	739.6003	879.3571	913.2618	1007.5343	1052.6226	1078.9286	1155.341	1165.963	1207.5504	1354.5875	1395.5409	1401.3038	1459.8152	1468.4869	1484.0487	1494.4276	1512.6741	1653.0818	1796.3721	2336.0255	3050.4039	3066.5956	3116.6946	3122.5878	3166.7869	3204.0759	3520.4567
CN(C(C)=O)C(=N)C#N	CN(C(=O)C)C(=N)C#N	
InChI=1S/C5H7N3O/c1-4(9)8(2)5(7)3-6/h7H,1-2H3	InChI=1S/C5H7N3O/c1-4(9)8(2)5(7)3-6/h7H,1-2H3
