21
gdb 114906	2.94691	1.24406	1.1438	2.6884	77.3	-0.2457	0.0709	0.3166	1179.5389	0.18492	-424.223512	-424.215353	-424.214409	-424.25639	31.969	
O	 0.0079079575	 1.2906625782	-0.5083686311	-0.423438
C	 0.1126094804	-0.0626076594	-0.1014830331	-0.082751
C	-1.2704325964	-0.6356717622	 0.1461172894	 0.131874
O	-2.0917339342	-0.5301085723	-1.0484119225	-0.338711
C	-2.5757729852	-1.8900266569	-0.8836023183	 0.144653
C	-2.2197325968	-2.7941568741	-2.056472159	-0.21928
C	-0.712378659	-3.0634400645	-1.8824986223	-0.211833
C	-0.5151840492	-3.1328468425	-0.3510015191	-0.223676
C	-1.5442082372	-2.1544958012	 0.2497314701	-0.109112
H	-0.618719723	 1.2990100232	-1.2422305836	 0.294547
H	 0.6540529714	-0.6593692435	-0.8499245188	 0.087785
H	 0.6979642523	-0.0754097522	 0.8249821587	 0.106228
H	-1.7379319157	-0.0708156779	 0.9654512503	 0.078413
H	-3.6390947703	-1.8940328659	-0.620164177	 0.070934
H	-2.7917109113	-3.7265827045	-1.9674564899	 0.097872
H	-2.4759621762	-2.3371185056	-3.0166465704	 0.10917
H	-0.3817495943	-3.9743595432	-2.3884734922	 0.097257
H	-0.1408837293	-2.2318172636	-2.30548764	 0.112661
H	-0.7485750445	-4.1428588687	 0.0050570393	 0.099915
H	 0.5136414214	-2.921641806	-0.0446632475	 0.103585
H	-1.9218781305	-2.4800820072	 1.2194387472	 0.073909
81.619	132.2321	159.6823	238.4218	288.0826	362.28	438.3377	470.536	482.2238	576.603	630.7183	791.5347	817.9252	840.4973	859.0761	882.2849	905.8078	916.1099	954.8309	971.8278	1035.1391	1053.458	1060.3641	1077.9586	1102.6409	1134.1421	1154.1099	1189.6118	1198.8489	1225.8464	1260.543	1285.1731	1288.3485	1321.1448	1322.6912	1339.7474	1349.6899	1364.2336	1372.0923	1412.0483	1441.3805	1467.9578	1486.5053	1499.5752	1506.4088	2994.4945	3006.5416	3029.1179	3039.4667	3048.7489	3056.9578	3069.2087	3085.3779	3092.5642	3102.8207	3106.7739	3787.9485
OCC1OC2CCCC12	OC[C@H]1O[C@H]2CCC[C@@H]12	
InChI=1S/C7H12O2/c8-4-7-5-2-1-3-6(5)9-7/h5-8H,1-4H2	InChI=1S/C7H12O2/c8-4-7-5-2-1-3-6(5)9-7/h5-8H,1-4H2/t5-,6+,7-/m1/s1
