19
gdb 17462	4.15809	1.92861	1.6479	1.4999	73.86	-0.2248	0.0848	0.3096	857.7589	0.167203	-327.891693	-327.884759	-327.883815	-327.922232	28.385	
C	-0.0659954777	 1.5095132087	 0.0052879001	-0.480692
C	 0.0030063004	 0.0001745537	-0.0005445717	 0.363762
C	-0.8322612279	-0.7955514305	 0.97600235	-0.346488
C	 0.6774531197	-0.8091778957	 1.0860813755	-0.039042
N	 1.5057323671	-1.8724321334	 0.5202721363	-0.101225
C	 0.8162129924	-2.9920112263	-0.1351819397	-0.249381
C	 1.3030162836	-1.8470546799	-0.945740293	-0.005641
C	 0.359918499	-0.7018405439	-1.3221024753	-0.322174
H	 0.8607280845	 1.9529690726	-0.377548921	 0.116379
H	-0.8915575875	 1.8743885212	-0.6175390192	 0.117212
H	-0.2269676785	 1.8923490776	 1.0181293506	 0.115584
H	-1.3588893807	-0.2338998522	 1.742119696	 0.106774
H	-1.3753882071	-1.6701899382	 0.6381412347	 0.109694
H	 1.1289855195	-0.3317990874	 1.9493015896	 0.091383
H	 1.3756434106	-3.9241412665	-0.1312481364	 0.112278
H	-0.251860896	-3.1216743115	 0.005604537	 0.111554
H	 2.1958893672	-1.9768163251	-1.5527870005	 0.088473
H	-0.5247684705	-1.0450759635	-1.8704724441	 0.106329
H	 0.8852097217	 0.0013359203	-1.9766610088	 0.105221
176.067	214.9442	240.3991	324.0346	358.1819	441.2233	500.9248	584.3166	661.1346	722.0623	766.9607	814.7714	842.3512	865.21	888.5661	929.2719	954.6991	971.2608	1037.6703	1048.7051	1052.0944	1080.9436	1099.812	1115.4387	1118.8865	1136.5774	1164.1989	1201.7072	1254.6878	1287.6718	1292.8096	1311.7651	1382.736	1394.9701	1418.4663	1480.2562	1487.0829	1492.3224	1501.1223	1522.6307	3019.8654	3038.8034	3075.7478	3078.8988	3097.631	3111.8873	3129.4265	3131.1241	3162.6633	3194.5569	3214.1012
CC12CC1N1CC1C2	C[C@]12C[C@H]1N1C[C@H]1C2	
InChI=1S/C7H11N/c1-7-2-5-4-8(5)6(7)3-7/h5-6H,2-4H2,1H3	InChI=1S/C7H11N/c1-7-2-5-4-8(5)6(7)3-7/h5-6H,2-4H2,1H3/t5-,6-,7+,8?/m1/s1
