23
gdb 109865	1.8912	1.61556	1.04699	1.1356	85.17	-0.2432	0.0681	0.3114	1266.503	0.204386	-388.266119	-388.256174	-388.25523	-388.300572	37.972	
C	 0.1743750845	 0.9246262355	 1.6678464428	-0.376932
C	-0.2334546032	 0.7486961034	 0.2004005724	-0.198348
C	-1.4809718458	-0.1156562089	 0.0360892139	-0.056452
C	-2.0235796844	-0.4942039447	-1.4028460175	-0.005934
C	-1.28068882	-0.0211898972	-2.6480426741	-0.404305
C	-1.9447151739	-1.9793688528	-1.0160222737	-0.125658
C	-0.5358925504	-2.3631445269	-0.6115475113	-0.352843
C	-1.4081946613	-1.6177190039	 0.3583876785	 0.401294
O	-1.7992739934	-2.1642065204	 1.5721544058	-0.470383
H	 1.0613294713	 1.5586372469	 1.7635973921	 0.111364
H	-0.6313158283	 1.3837997878	 2.2510558821	 0.117999
H	 0.4077217353	-0.039094563	 2.1344429071	 0.103116
H	-0.4167238395	 1.7344401904	-0.2468560516	 0.093863
H	 0.604714548	 0.3155047626	-0.3583970105	 0.092205
H	-2.2988260741	 0.3231454624	 0.6185526051	 0.074286
H	-3.0703834865	-0.1841414393	-1.4796172973	 0.074103
H	-0.2329566738	-0.3367206289	-2.6538361806	 0.112676
H	-1.74980679	-0.4276066427	-3.5508075871	 0.1129
H	-1.2985222751	 1.071160351	-2.7294169289	 0.112353
H	-2.672153467	-2.7370024217	-1.2819145437	 0.087904
H	-0.4212889508	-3.4158160104	-0.3719855309	 0.110642
H	 0.3372834394	-1.9140890384	-1.0781462349	 0.102635
H	-1.0178858811	-2.261130551	 2.1266263923	 0.283515
71.5897	122.6367	153.8572	202.7904	219.6864	233.5279	254.0447	280.37	339.1405	389.898	449.0226	497.7392	543.429	640.7188	672.729	781.1353	800.76	844.7954	873.821	919.6519	957.8055	968.8864	991.1689	1010.9974	1045.7485	1060.785	1071.5592	1087.6832	1112.8269	1145.0294	1163.7157	1199.8977	1230.9363	1247.0954	1284.7478	1304.7827	1318.6995	1345.2119	1366.1597	1383.9425	1408.164	1411.9607	1419.7711	1482.6636	1492.1698	1498.4148	1499.4602	1501.0843	1507.2624	3019.8325	3028.8846	3030.8768	3034.7148	3050.9459	3059.185	3092.2369	3094.0072	3101.8716	3102.8615	3108.9176	3181.4998	3198.5005	3800.6163
CCC1C(C)C2CC12O	CC[C@H]1[C@@H](C)[C@H]2C[C@@]12O	
InChI=1S/C8H14O/c1-3-6-5(2)7-4-8(6,7)9/h5-7,9H,3-4H2,1-2H3	InChI=1S/C8H14O/c1-3-6-5(2)7-4-8(6,7)9/h5-7,9H,3-4H2,1-2H3/t5-,6+,7-,8-/m1/s1
