19
gdb 37806	2.51207	2.08674	1.65293	2.1474	73.07	-0.2291	0.0678	0.2969	901.112	0.163214	-423.012176	-423.005599	-423.004655	-423.042823	27.537	
C	-0.0036596524	 1.5511911097	 0.0013065796	-0.254734
C	 1.4578346864	 1.9532150147	-0.0595697843	-0.107399
C	 2.3728320627	 1.2746398265	 0.9491047011	-0.098932
C	 1.8621330273	 0.6315634373	 2.2372564706	-0.103292
O	 1.2543658704	-0.6346636877	 2.0824752677	-0.226675
C	 0.0110674054	-0.6373958229	 1.4208908541	-0.085614
C	 0.0479189136	 0.0008801844	 0.0158420844	 0.052351
O	 1.2675108979	-0.3566415097	-0.6362077983	-0.246144
C	 2.1816086893	 0.6891907103	-0.4349087772	 0.10421
H	-0.5403801826	 1.9449448125	 0.8702355309	 0.103844
H	-0.5209231451	 1.9068211929	-0.8953751163	 0.108456
H	 1.7229812971	 2.9233158724	-0.4631280358	 0.085421
H	 3.3301456813	 1.773557113	 1.0777601368	 0.08883
H	 2.7133599907	 0.4542221343	 2.9012710718	 0.113051
H	 1.1797817363	 1.3241259696	 2.7606864652	 0.086779
H	-0.2554235713	-1.694684204	 1.3299844474	 0.112291
H	-0.7702669344	-0.1419568048	 2.0239141251	 0.080576
H	-0.7751208713	-0.4256142163	-0.5677441886	 0.086181
H	 3.0087640086	 0.6384525482	-1.132653834	 0.100801
160.0373	262.2756	294.0994	385.0671	388.6316	446.3545	589.2869	687.1705	721.419	743.7515	772.9674	787.2838	820.198	885.8569	918.8333	935.4336	979.6321	990.2577	1028.7206	1031.1344	1067.7217	1080.0816	1104.2708	1119.6424	1123.406	1175.0956	1193.3363	1213.5256	1262.7211	1287.6384	1307.9324	1330.3813	1343.2727	1353.0701	1375.7942	1388.0504	1419.4472	1437.791	1489.391	1492.0161	1504.1158	2947.3809	2955.3344	3042.445	3054.27	3075.3363	3081.8468	3088.7069	3137.6019	3173.3357	3189.263
C1C2C3COCC1OC23	C1[C@H]2[C@H]3COC[C@@H]1O[C@@H]23	
InChI=1S/C7H10O2/c1-4-2-8-3-6-5(1)7(6)9-4/h4-7H,1-3H2	InChI=1S/C7H10O2/c1-4-2-8-3-6-5(1)7(6)9-4/h4-7H,1-3H2/t4-,5+,6-,7+/m1/s1
