17
gdb 104950	2.76606	0.84717	0.7051	2.8582	82.08	-0.2709	-0.0693	0.2016	1589.7153	0.132566	-421.78337	-421.773556	-421.772611	-421.819523	33.612	
C	-0.1526064255	 1.39940026	 0.1605727207	-0.385434
C	 0.382597487	-0.0356888269	 0.1290781693	-0.266815
C	 0.7753625686	-0.4840216089	-1.2688141164	 0.191414
C	 0.5033932529	-1.8679203435	-1.7231756424	-0.212991
O	-0.3253189057	-0.7962561017	-2.1480151093	-0.253279
C	 1.8677509353	 0.2245368478	-1.8893789672	 0.094158
C	 2.7987843569	 0.8334024897	-2.3624215874	 0.068723
C	 3.8898692554	 1.5469562285	-2.9741289529	 0.013674
O	 4.782992007	 2.0862125334	-2.3616807739	-0.228377
H	 0.605379105	 2.1112426468	-0.1798520895	 0.13498
H	-1.0287319122	 1.498077186	-0.4869131972	 0.135106
H	-0.4451635317	 1.6784807741	 1.1764199716	 0.120721
H	 1.2570017825	-0.1316379373	 0.7830176874	 0.118027
H	-0.3788284161	-0.7304966414	 0.4983061231	 0.111738
H	 1.1297308311	-2.3145422307	-2.4929544217	 0.128566
H	 0.0569256617	-2.562935564	-1.0129863076	 0.125119
H	 3.850499628	 1.5667670481	-4.0819941266	 0.104672
45.1811	68.9317	88.9309	120.3574	199.9128	221.2739	235.7486	288.7714	336.5731	437.6585	516.1736	547.5126	598.1118	708.7389	775.9518	835.2654	861.7529	944.1867	994.0796	1020.32	1042.1222	1092.4028	1104.7041	1136.8491	1167.1189	1261.9682	1293.1241	1348.3666	1387.4301	1412.0193	1420.5748	1470.7277	1498.8039	1507.5468	1517.2825	1765.4143	2319.6261	2924.1703	3040.8572	3045.266	3082.8966	3085.0952	3118.7386	3121.9868	3179.1935
CCC1(CO1)C#CC=O	CC[C@]1(CO1)C#CC=O	
InChI=1S/C7H8O2/c1-2-7(6-9-7)4-3-5-8/h5H,2,6H2,1H3	InChI=1S/C7H8O2/c1-2-7(6-9-7)4-3-5-8/h5H,2,6H2,1H3/t7-/m1/s1
