15
gdb 34215	4.00156	1.42318	1.4076	1.88	70.88	-0.235	0.0241	0.2591	946.8398	0.113456	-420.577056	-420.570518	-420.569574	-420.607834	26.834	
C	 0.0001437752	-1.133386473	 0.0102319225	-0.33009
C	-0.024122865	 0.0686777861	 0.0278101107	 0.101399
C	-0.0213247347	 1.4870688028	 0.0250338699	 0.339613
O	-1.0249067716	 2.1628849762	 0.7732978069	-0.290648
C	-0.6810786361	 3.4959515411	 0.4204245495	 0.12765
C	 0.8043792121	 3.6021474153	 0.824263785	-0.239756
C	 1.2206481461	 2.3980196524	-0.0044980959	-0.22804
C	 0.2478933388	 2.4015156937	-1.1677113381	-0.009575
O	-0.6344786869	 3.4882946311	-1.0056010648	-0.248229
H	 0.0131119901	-2.1950556857	-0.0013699343	 0.185351
H	-1.4151619046	 4.2056432034	 0.7899759007	 0.106663
H	 1.2576187206	 4.5371669164	 0.4883293329	 0.119502
H	 0.9489905781	 3.4672598724	 1.8975269848	 0.121864
H	 2.2225828017	 1.9995923745	-0.0636080466	 0.115064
H	 0.4278548361	 2.0837962633	-2.183343033	 0.129232
143.3465	158.2165	412.2325	452.534	487.0138	529.0915	575.2655	592.4528	619.6416	691.9705	723.2318	739.1553	833.5526	860.4051	881.0566	891.9549	932.5003	964.6015	977.9993	1009.6793	1040.391	1043.5022	1087.0071	1124.1754	1157.041	1203.4756	1232.2126	1291.2035	1311.8087	1331.8097	1396.1857	1475.45	2244.6732	3079.7645	3139.7781	3185.2031	3232.7077	3246.0378	3503.2444
C#CC12OC3CC1C2O3	C#C[C@@]12O[C@H]3C[C@@H]1[C@@H]2O3	
InChI=1S/C7H6O2/c1-2-7-4-3-5(9-7)8-6(4)7/h1,4-6H,3H2	InChI=1S/C7H6O2/c1-2-7-4-3-5(9-7)8-6(4)7/h1,4-6H,3H2/t4-,5+,6+,7-/m1/s1
