20
gdb 78161	2.26244	1.63667	1.29178	4.0722	78.15	-0.241	-0.0046	0.2365	1086.2243	0.171158	-403.164453	-403.155779	-403.154835	-403.197619	33.15	
C	 1.012374471	 2.2026656997	 0.2950172792	-0.422695
C	 0.7941635888	 0.7071760766	 0.3004119011	 0.001788
C	 0.8496427587	-0.2123183224	-0.8674328085	-0.064919
C	 1.4226711146	 0.1612800507	-2.2419810186	 0.007979
C	 0.6012088165	 1.1778027339	-3.0419425638	-0.407107
C	 2.8809059074	 0.5661541732	-1.938071982	-0.358708
C	 3.0924162519	 0.3204015767	-0.4362163442	 0.381961
O	 4.0834606157	 0.5780962618	 0.1892714138	-0.314735
N	 1.9214302875	-0.2637574149	 0.1464677673	-0.151276
H	 1.6433780364	 2.5537078752	-0.5228416209	 0.129822
H	 0.0466548495	 2.7128820298	 0.2187694236	 0.126562
H	 1.4832965156	 2.5143181919	 1.2329809526	 0.144675
H	 0.1274860037	 0.3904404793	 1.1013115572	 0.105852
H	 0.1710056057	-1.062180416	-0.8527291365	 0.095387
H	 1.4393864423	-0.7721165195	-2.8156470846	 0.090452
H	 0.5596028714	 2.15015276	-2.543132275	 0.122209
H	 1.0328660624	 1.3299819993	-4.0364213542	 0.121162
H	-0.4276378758	 0.8281012948	-3.1770449408	 0.120134
H	 3.6129635594	-0.0089498828	-2.5118719788	 0.137195
H	 3.0932013972	 1.6215111526	-2.1391877267	 0.13426
82.6208	130.8839	181.7168	220.0783	228.022	278.7953	341.692	402.362	493.9111	526.3872	586.2131	646.947	655.2224	732.1945	750.8339	829.6432	887.4085	919.4571	947.9377	983.3779	1032.989	1042.2184	1086.331	1114.8463	1125.8908	1135.8935	1165.4076	1188.5214	1212.5125	1263.4034	1306.3491	1333.5623	1363.9837	1383.2597	1412.9746	1421.0408	1437.184	1462.0189	1487.4788	1495.4887	1502.7391	1502.8295	1851.5037	3034.9795	3037.2156	3044.5555	3057.9422	3098.4029	3101.6406	3103.4709	3109.0826	3115.5434	3130.3675	3142.3575
CC1C2C(C)CC(=O)N12	C[C@H]1[C@H]2[C@@H](C)CC(=O)N12	
InChI=1S/C7H11NO/c1-4-3-6(9)8-5(2)7(4)8/h4-5,7H,3H2,1-2H3	InChI=1S/C7H11NO/c1-4-3-6(9)8-5(2)7(4)8/h4-5,7H,3H2,1-2H3/t4-,5-,7+,8?/m0/s1
