23
gdb 101120	3.27295	1.00716	0.92632	1.7245	85.64	-0.2436	0.083	0.3266	1414.4125	0.204334	-388.26608	-388.256284	-388.25534	-388.300965	36.84	
C	 0.2110030532	 1.5624666142	-0.1211271484	-0.394963
C	 0.1184798993	 0.0403547364	 0.0211260363	-0.171584
C	 0.6034808433	-0.5041442543	 1.3817363172	-0.093407
C	-0.2500743702	-0.016545556	 2.5626463791	-0.404646
C	 0.6634384984	-2.006201398	 1.3408193054	 0.456475
C	-0.488561065	-3.037339783	 1.3418703177	-0.296828
C	 0.4917627553	-4.0645578742	 2.0101091601	-0.236137
C	 1.5805707196	-2.9865166443	 1.9542772671	-0.05783
O	 1.7219740475	-2.6083698847	 0.5765583776	-0.305835
H	 1.2345953821	 1.9133007749	 0.0531377284	 0.115109
H	-0.0792269885	 1.877024487	-1.1283992134	 0.11341
H	-0.4435353753	 2.0828122609	 0.5848918239	 0.116188
H	-0.9183864894	-0.282492594	-0.1446122121	 0.093607
H	 0.7182081581	-0.4332318803	-0.7643009667	 0.115831
H	 1.6364696439	-0.1613371816	 1.5313483622	 0.079563
H	 0.0973265203	-0.4515971365	 3.5051636575	 0.113384
H	-0.2035076466	 1.0709433487	 2.662268122	 0.119307
H	-1.3022623442	-0.2929501673	 2.4320378976	 0.116589
H	-1.3204755445	-2.7689661343	 1.9970139673	 0.105845
H	-0.8721612152	-3.2960670888	 0.3523221422	 0.107288
H	 0.193265611	-4.3264343399	 3.0281607259	 0.102931
H	 0.7132162194	-4.9749429544	 1.4481365974	 0.109719
H	 2.4481179373	-2.8497985105	 2.5911482456	 0.095983
56.4642	87.4368	124.8573	197.8815	211.0434	246.3187	267.9764	291.8749	336.3956	454.0486	473.3353	498.0181	674.3449	737.4998	774.0421	784.0278	841.2235	879.5361	921.4437	926.6545	945.9017	967.0643	987.5072	1008.0995	1016.907	1058.7577	1063.4093	1138.4681	1156.6256	1184.2832	1200.9918	1213.6652	1218.9558	1262.0393	1282.7525	1293.2413	1315.1195	1353.4766	1377.0211	1405.8765	1413.4091	1452.2916	1463.5679	1485.7611	1491.8633	1495.5459	1502.1693	1506.3141	1510.8072	3010.5988	3021.8051	3032.287	3035.0812	3062.854	3064.0146	3071.1156	3098.2287	3099.6744	3104.493	3113.9275	3116.4873	3130.9231	3174.5227
CCC(C)C12CCC1O2	CC[C@@H](C)[C@]12CC[C@H]1O2	
InChI=1S/C8H14O/c1-3-6(2)8-5-4-7(8)9-8/h6-7H,3-5H2,1-2H3	InChI=1S/C8H14O/c1-3-6(2)8-5-4-7(8)9-8/h6-7H,3-5H2,1-2H3/t6-,7-,8-/m1/s1
