17
gdb 29649	2.42045	1.61963	0.98497	3.6174	72.74	-0.1806	0.0467	0.2273	1166.8476	0.134957	-455.20619	-455.196507	-455.195563	-455.240482	34.191	
C	-0.0811328066	 1.4668853105	-0.0012925695	-0.350528
N	-0.0271702823	 0.0249131279	 0.0257946652	-0.145443
C	-0.0819830656	-0.758927392	-1.1254753595	 0.451449
O	-0.1412039648	-0.378467044	-2.2816538912	-0.447063
N	-0.0557979377	-2.0541281596	-0.6406296242	-0.42947
C	 0.0063576829	-2.0892840056	 0.7626371847	 0.24553
C	 0.0291970156	-3.34639137	 1.5546733246	-0.50467
C	 0.0246346711	-0.7994721342	 1.1566286322	 0.205662
O	-0.0083891386	-0.2797709121	 2.4121729492	-0.429788
H	 0.8612819725	 1.9186662908	 0.3313293345	 0.119682
H	-0.2588478696	 1.7548976954	-1.0389926618	 0.171675
H	-0.8919979818	 1.8413801065	 0.6305586329	 0.139115
H	-0.1011361514	-2.8490121625	-1.2531139779	 0.262508
H	 0.8952065191	-3.9735440274	 1.3074288848	 0.128416
H	 0.078609747	-3.103395879	 2.6182901632	 0.145728
H	-0.870680568	-3.9524682332	 1.3898501341	 0.13209
H	 0.8428998781	 0.1230891384	 2.6227231886	 0.305109
107.7046	124.1108	151.8882	166.4163	209.1505	232.7368	245.0964	263.214	264.4232	351.1524	451.5173	565.1222	621.5165	628.5754	649.0213	749.4889	757.8473	925.2388	983.1497	1054.098	1067.9472	1159.0125	1181.1788	1220.435	1257.7628	1284.1538	1355.3685	1406.5293	1415.6811	1438.1162	1469.5983	1480.1202	1496.8497	1499.1764	1515.2108	1755.5562	1825.2452	3014.7821	3023.589	3057.3819	3086.1835	3128.693	3145.2793	3693.1954	3760.644
CN1C(=O)NC(C)=C1O	Cn1c(=O)[nH]c(C)c1O	
InChI=1S/C5H8N2O2/c1-3-4(8)7(2)5(9)6-3/h8H,1-2H3,(H,6,9)	InChI=1S/C5H8N2O2/c1-3-4(8)7(2)5(9)6-3/h8H,1-2H3,(H,6,9)
