15
gdb 29611	3.22885	1.15245	0.88411	5.0801	69.74	-0.1939	0.0077	0.2016	1239.92	0.112966	-453.986078	-453.977472	-453.976528	-454.020186	31.016	
N	 0.3512714993	 1.3389368607	 0.2682505234	-0.617054
C	 0.1131333844	-0.0292918847	 0.0699822086	 0.171177
C	-1.0537075324	-0.7454788475	 0.2375655697	-0.152744
N	-0.7716572297	-2.0773060769	 0.0034507223	-0.238255
C	 0.5463175242	-2.2369329921	-0.3127902954	-0.169453
C	 1.112387998	-0.9818195702	-0.2755687544	 0.248169
O	 2.4191336295	-0.6406171053	-0.5817471341	-0.232449
C	 3.3766167389	-0.9686989823	 0.3284030821	 0.151893
O	 4.5319337912	-0.7434889367	 0.1440653102	-0.26505
H	 1.1479351433	 1.6586585359	-0.268924156	 0.252796
H	-0.4507413562	 1.9163628661	 0.0525811258	 0.244071
H	-2.0448154325	-0.4223332137	 0.5089294104	 0.116505
H	-1.4429352227	-2.8213718598	 0.0557909275	 0.267991
H	 0.9720262676	-3.1949404514	-0.5590916994	 0.132829
H	 2.9444522971	-1.4602397221	 1.2187539892	 0.089574
34.6071	134.546	148.4635	202.0285	257.3313	278.7099	356.9613	434.6804	475.118	507.7112	620.0491	622.7693	687.2615	702.6509	741.2036	784.49	849.4884	910.1395	1048.5041	1075.3212	1084.6116	1133.9166	1155.4175	1232.4319	1278.1806	1360.5388	1403.3846	1443.9707	1484.0424	1579.2719	1634.7925	1658.6442	1871.3671	2981.5953	3270.7429	3277.0979	3535.3618	3626.1131	3702.7499
NC1=CNC=C1OC=O	Nc1c[nH]cc1OC=O	
InChI=1S/C5H6N2O2/c6-4-1-7-2-5(4)9-3-8/h1-3,7H,6H2	InChI=1S/C5H6N2O2/c6-4-1-7-2-5(4)9-3-8/h1-3,7H,6H2
