16
gdb 75866	3.03455	1.43995	0.98857	1.5581	74.69	-0.2329	-0.0814	0.1515	1134.8432	0.124504	-434.100244	-434.091647	-434.090703	-434.134216	30.263	
C	 0.1917082866	 1.3357298087	 0.343979829	-0.339251
N	 0.1060466562	-0.0930007377	 0.0835038196	-0.132847
C	-1.1024198301	-0.7895594802	-0.009126435	 0.340203
N	-2.2347696694	-0.2306227249	 0.1271476254	-0.546843
C	-0.6712132345	-2.2300151193	-0.2871001894	-0.279457
N	 0.7919454512	-2.2221437381	-0.3285798289	-0.283459
C	 1.1336234187	-0.9993229026	-0.1135430651	 0.285837
C	 2.5776027867	-0.6393269762	-0.0896640035	 0.11284
O	 3.0099171624	 0.4699914472	 0.1017301001	-0.262497
H	 0.6922176292	 1.8551121976	-0.4760027519	 0.145038
H	-0.8337609235	 1.6945528712	 0.439774952	 0.170143
H	 0.7426664939	 1.5345953673	 1.2657002037	 0.145012
H	-2.990129589	-0.9055686521	 0.0251740219	 0.224391
H	-1.0253545142	-2.9147009102	 0.4926476228	 0.149871
H	-1.0760025331	-2.5955478983	-1.238311425	 0.149881
H	 3.2225792989	-1.5204005126	-0.2707169158	 0.121136
61.3935	85.1416	141.7617	184.4431	200.2432	292.4952	320.9876	425.4185	510.9331	518.6929	640.9643	662.8947	701.5469	788.3296	818.2447	955.1548	978.0532	1016.335	1033.9604	1036.6572	1157.0884	1184.3301	1185.4121	1234.0106	1285.74	1372.6052	1389.5852	1419.607	1441.9827	1481.7235	1494.8696	1503.6311	1650.7545	1742.2139	1812.4985	2963.536	3039.2403	3058.27	3070.2199	3126.551	3157.2683	3506.3358
CN1C(=N)CN=C1C=O	CN1[C]([NH])CN=C1C=O	
InChI=1S/C5H7N3O/c1-8-4(6)2-7-5(8)3-9/h3,6H,2H2,1H3	InChI=1S/C5H7N3O/c1-8-4(6)2-7-5(8)3-9/h3,6H,2H2,1H3
