19
gdb 85308	2.54659	1.61591	1.20784	2.1728	74.68	-0.2349	-0.0088	0.2261	1059.4145	0.160911	-423.042349	-423.034599	-423.033654	-423.074591	30.821	
O	 0.1252210923	 1.1759758836	-0.6997237652	-0.442846
C	 0.0260664745	-0.0613168742	-0.0030694358	 0.120766
C	 0.6136575591	 0.0379371395	 1.4287925825	-0.359402
C	-0.2205238104	-0.6596146835	 2.5116633583	 0.409316
O	 0.2485308066	-0.9880854754	 3.5746835074	-0.329978
C	-1.6626125152	-0.8922535552	 2.1191743827	-0.111169
C	-1.6372749662	-1.7609754005	 0.8172844032	-0.248541
C	-1.4564819613	-0.4339487802	 0.0372926643	-0.007742
C	-2.1726230133	 0.2752071184	 1.2182444444	-0.241886
H	 1.0537827886	 1.4268756962	-0.7368394301	 0.283307
H	 0.5597018152	-0.8472897648	-0.5606917061	 0.07206
H	 1.6464348863	-0.3132972793	 1.4968909612	 0.121415
H	 0.6221287592	 1.1015214544	 1.701072033	 0.139654
H	-2.248199887	-1.2279953144	 2.9747562529	 0.082518
H	-0.8653397172	-2.5317089914	 0.725961326	 0.103857
H	-2.6154055714	-2.2109498165	 0.6336474629	 0.112266
H	-1.8862932491	-0.3500383988	-0.9622514185	 0.077671
H	-3.2592164758	 0.2325141927	 1.1137270001	 0.107821
H	-1.8754422751	 1.2971123693	 1.464129357	 0.110913
80.5864	142.6736	279.11	295.8813	331.6747	397.0675	431.6672	475.4351	486.0262	545.8946	644.8818	727.5253	813.3692	831.5919	880.6171	907.7719	916.5076	940.9829	983.251	1009.6663	1020.8173	1064.3552	1079.5212	1084.9377	1134.9089	1141.9001	1205.3346	1225.38	1232.2729	1246.6645	1269.648	1281.444	1284.1072	1323.6912	1343.2309	1382.6818	1427.0631	1455.4701	1485.1137	1513.7784	1820.6321	2969.4742	3034.3878	3050.5535	3066.3399	3096.3554	3102.5393	3110.9671	3117.8963	3122.1751	3815.9812
OC1CC(=O)C2CC1C2	O[C@H]1CC(=O)[C@@H]2C[C@H]1C2	
InChI=1S/C7H10O2/c8-6-3-7(9)5-1-4(6)2-5/h4-6,8H,1-3H2	InChI=1S/C7H10O2/c8-6-3-7(9)5-1-4(6)2-5/h4-6,8H,1-3H2/t4-,5+,6-/m0/s1
