21
gdb 52762	2.04988	1.12426	0.99227	1.7322	88.97	-0.2322	0.0466	0.2788	1398.6446	0.178716	-387.061082	-387.049834	-387.04889	-387.097926	39.613	
C	-0.1070009264	 1.4557366255	-0.030290416	-0.502727
C	-0.0684714395	-0.0002699403	-0.0032547469	 0.086757
C	-0.0014067837	-1.2052762725	 0.0380857901	-0.008654
C	 0.0321696727	-2.6427704883	 0.0297379539	 0.081135
C	 1.1523481803	-3.2687707689	-0.7876231419	-0.460837
C	-0.4713935571	-3.3984570807	 1.2719599534	-0.081183
C	-0.8674847662	-2.6859487237	 2.5427450883	-0.406864
C	-1.3367938422	-3.3227372223	 0.0403833345	 0.079472
O	-2.4941736871	-2.5496301833	 0.0512348782	-0.427007
H	 0.8788470875	 1.8797993435	 0.1905715816	 0.151933
H	-0.4178140961	 1.8330401836	-1.010873308	 0.148763
H	-0.8085315133	 1.8481798862	 0.7140498675	 0.151078
H	 2.1315809027	-3.0170735252	-0.3671962582	 0.124861
H	 1.0595227369	-4.3589679714	-0.7957426649	 0.115567
H	 1.127968537	-2.9170453057	-1.8240105332	 0.124825
H	 0.0357098233	-4.3488735546	 1.4222211577	 0.083978
H	-1.4795543272	-1.8082609148	 2.328424346	 0.126757
H	-1.4553048739	-3.352614474	 3.1825413998	 0.117599
H	 0.0119267635	-2.3615154361	 3.1084236242	 0.114888
H	-1.4381314412	-4.21443989	-0.5751619168	 0.093865
H	-2.24818303	-1.6491923771	-0.2006852793	 0.285794
42.3272	83.49	86.873	135.5487	192.1756	199.2754	216.0459	255.702	262.7923	280.681	302.0004	372.3636	427.3628	542.5944	579.2854	585.2772	638.0065	766.8522	821.9944	891.8886	980.1398	1024.8489	1050.8395	1052.7573	1057.6124	1079.7199	1106.3004	1122.062	1152.3667	1166.2574	1241.2603	1341.464	1348.9149	1383.2501	1410.0249	1415.0259	1419.0466	1432.1603	1476.9336	1479.6265	1487.0849	1488.402	1497.8003	1500.6031	2349.4922	3026.5596	3031.7191	3039.5103	3086.4524	3088.9686	3096.8552	3100.1098	3106.5355	3118.0787	3128.6676	3141.6892	3735.5925
CC#CC1(C)C(C)C1O	CC#C[C@@]1(C)[C@@H](C)[C@H]1O	
InChI=1S/C8H12O/c1-4-5-8(3)6(2)7(8)9/h6-7,9H,1-3H3	InChI=1S/C8H12O/c1-4-5-8(3)6(2)7(8)9/h6-7,9H,1-3H3/t6-,7+,8-/m0/s1
