20
gdb 30724	2.96745	1.18071	0.89963	1.8172	84.35	-0.1653	0.0541	0.2194	1336.6074	0.171871	-399.358957	-399.348779	-399.347834	-399.394478	37.305	
C	 0.2553908656	 1.5445042433	-0.265588552	-0.361735
C	-0.1154273029	 0.1032040819	 0.1304206365	-0.30396
C	 0.6036318672	-0.398464092	 1.3415238882	 0.271725
C	 0.1276929325	-0.7784697697	 2.5848356583	 0.070796
N	-1.210662899	-0.8564712785	 3.0660486194	-0.627452
C	 1.2435113621	-1.1758967002	 3.3838375328	 0.240426
N	 1.1236236219	-1.5706654648	 4.7292716534	-0.616988
C	 2.3720863311	-1.0292621662	 2.6108595786	-0.186302
N	 1.9670848259	-0.5624395349	 1.3729240676	-0.317793
H	 1.3223375471	 1.6333853251	-0.4956336274	 0.10869
H	-0.3028988909	 1.8644679945	-1.1514390659	 0.109465
H	 0.0371602529	 2.2400497484	 0.550202651	 0.123101
H	-1.1918058923	 0.0545488991	 0.3300885006	 0.095716
H	 0.0588183413	-0.5606809609	-0.7288606456	 0.101598
H	-1.8792912491	-0.9428786103	 2.3096238836	 0.231441
H	-1.4691808868	-0.0368660698	 3.6083960804	 0.23757
H	 0.1968772717	-1.9544546775	 4.8859887041	 0.241813
H	 1.8175804041	-2.2568608438	 4.9984929982	 0.232251
H	 3.4109476861	-1.2163946917	 2.8272482344	 0.098939
H	 2.5796765516	-0.4127435919	 0.5922171238	 0.250699
30.8184	100.7283	116.1354	197.2074	234.179	249.5991	257.4236	289.7758	311.3714	346.2813	410.3623	524.1581	569.8147	627.1595	654.8269	697.205	731.702	745.9123	788.1743	819.153	842.3163	951.8592	1014.717	1057.4928	1082.661	1107.994	1128.2626	1218.3793	1239.7457	1276.6993	1305.0418	1352.0395	1360.9268	1407.8905	1459.1683	1477.3653	1496.2141	1500.248	1510.2885	1581.5732	1627.5538	1643.5626	1669.2805	2997.6801	3033.2509	3057.425	3100.3361	3112.0471	3263.7471	3483.5881	3504.7256	3578.8871	3602.3671	3695.2151
CCC1=C(N)C(N)=CN1	CCc1c(N)c(N)c[nH]1	
InChI=1S/C6H11N3/c1-2-5-6(8)4(7)3-9-5/h3,9H,2,7-8H2,1H3	InChI=1S/C6H11N3/c1-2-5-6(8)4(7)3-9-5/h3,9H,2,7-8H2,1H3
