19
gdb 73376	2.39437	2.1686	1.56617	2.9244	72.62	-0.2354	0.0713	0.3068	914.1716	0.16183	-423.012148	-423.00527	-423.004325	-423.042886	29.198	
O	-0.0885270838	 1.3337333919	 0.0070698951	-0.504955
C	 0.0230735248	-0.0653131181	 0.0097641954	 0.417008
C	 0.6707257566	-0.6929072588	-1.2372436316	-0.273079
C	 0.3503501661	-2.207845965	-1.0698983304	-0.258846
C	-0.7748503926	-2.2086555942	-0.0270436845	-0.027706
C	-0.4248653721	-1.8162457523	 1.4475393082	 0.066948
C	 0.6488135179	-0.7231283472	 1.2838796838	-0.290902
O	-1.6354596472	-1.0033534756	 1.4990696663	-0.297509
C	-1.3624662015	-0.7853603262	 0.0959094954	 0.045331
H	 0.7978291735	 1.7096261057	 0.0039504661	 0.276418
H	 0.1985699196	-0.2857188187	-2.1383880814	 0.104673
H	 1.7433476592	-0.4810032735	-1.3019856102	 0.089981
H	 0.0212670897	-2.6562611206	-2.0111234022	 0.106374
H	 1.2194840778	-2.7822448899	-0.7328057492	 0.1037
H	-1.508594957	-3.011493106	-0.0825508846	 0.080692
H	-0.3378658008	-2.5381397138	 2.2603874997	 0.076881
H	 1.6656706634	-1.0966164219	 1.1305119256	 0.088832
H	 0.6275414755	-0.0427271763	 2.1375814905	 0.112583
H	-2.190788759	-0.3752705895	-0.4809574918	 0.083576
220.851	230.626	275.7596	329.4217	408.0576	427.5262	514.9438	584.9304	621.8444	683.9418	746.5611	782.6841	798.5198	862.6024	885.6766	900.4246	928.6644	954.5372	964.2332	998.1277	1028.946	1037.672	1053.6391	1094.0561	1127.6493	1146.5015	1191.7309	1200.7839	1216.1411	1234.7352	1239.8121	1258.1632	1288.3253	1303.3161	1316.0005	1340.8215	1352.0683	1389.7432	1479.9977	1487.2023	1508.5104	3035.6197	3050.0622	3057.9494	3074.8179	3095.3709	3111.9549	3121.2102	3126.8683	3136.17	3809.4406
OC12CCC3C(C1)OC23	O[C@@]12CC[C@H]3[C@@H](C1)O[C@@H]23	
InChI=1S/C7H10O2/c8-7-2-1-4-5(3-7)9-6(4)7/h4-6,8H,1-3H2	InChI=1S/C7H10O2/c8-7-2-1-4-5(3-7)9-6(4)7/h4-6,8H,1-3H2/t4-,5+,6+,7-/m0/s1
