22
gdb 122118	1.91547	1.07092	0.7883	3.2077	81.3	-0.2366	0.0338	0.2704	1558.4985	0.192434	-441.50191	-441.491006	-441.490062	-441.539367	37.612	
C	 1.156018957	 1.3043341547	 0.136248463	-0.373511
C	 0.5707476001	-0.1050492571	 0.0032834496	-0.1679
N	 0.4453043229	-0.5578246012	-1.3789466386	-0.027049
C	 1.6253470531	-1.007330674	-2.1079964202	-0.198259
C	 1.9218305442	-2.4911580277	-1.9237701198	-0.053638
O	 2.3074530718	-2.7235315062	-0.5836786739	-0.230063
C	 2.534637901	-4.0856202598	-0.3059319468	-0.228604
C	-0.7594361393	-0.5870318893	-2.0107008412	 0.148765
O	-0.9444060181	-0.958392072	-3.1534515803	-0.355381
H	 2.1598970407	 1.3660079651	-0.2948506248	 0.125585
H	 0.5241713269	 2.039844138	-0.3709325803	 0.123966
H	 1.2310279734	 1.5831075977	 1.1921537524	 0.119614
H	 1.1833504156	-0.8306327649	 0.5449543903	 0.138016
H	-0.4296154206	-0.1307173377	 0.448715337	 0.112498
H	 1.4483146822	-0.8176309311	-3.1693752769	 0.140614
H	 2.4913427213	-0.4221649125	-1.7839543744	 0.112565
H	 1.0287839744	-3.0811156995	-2.1813410059	 0.111224
H	 2.729388227	-2.7896714057	-2.6141942228	 0.088075
H	 1.6308324405	-4.6919533531	-0.4725685519	 0.109699
H	 3.3435283325	-4.4979884744	-0.9293059969	 0.106956
H	 2.8248216227	-4.1626044466	 0.7446462687	 0.127245
H	-1.578160779	-0.2268960025	-1.3562384262	 0.069583
32.3994	67.2781	84.452	117.7456	141.1769	215.837	221.2529	236.4641	293.0374	327.3206	343.2852	399.9159	443.47	566.5626	642.2038	790.4091	802.1086	869.8716	945.4203	1006.2502	1030.9743	1040.3667	1089.6169	1109.7105	1126.4813	1159.8188	1183.6154	1201.3267	1242.7244	1264.5019	1289.6985	1335.7022	1384.8285	1405.3813	1409.4085	1418.0166	1432.8706	1448.1088	1468.5574	1480.7332	1485.4115	1492.1707	1494.5784	1502.2449	1505.7558	1527.0095	1784.1737	2931.0561	2958.9355	2975.6153	3008.2491	3020.3976	3038.6748	3049.7772	3062.5489	3095.778	3110.8918	3115.3815	3119.352	3121.6525
CCN(CCOC)C=O	CCN(CCOC)C=O	
InChI=1S/C6H13NO2/c1-3-7(6-8)4-5-9-2/h6H,3-5H2,1-2H3	InChI=1S/C6H13NO2/c1-3-7(6-8)4-5-9-2/h6H,3-5H2,1-2H3
