22
gdb 15261	2.53654	1.56368	1.18156	1.0557	79.1	-0.2338	0.0796	0.3135	1156.6882	0.198518	-350.186044	-350.176144	-350.175199	-350.22083	35.482	
C	 0.0134364706	 1.5298657602	 0.1813172343	-0.374149
C	 0.0174168309	 0.0491787638	-0.2185442895	-0.187625
C	-1.3655643374	-0.5673064023	-0.1313428559	-0.060894
C	-1.602147054	-2.0645532287	 0.0280826243	-0.074875
C	-0.4594845557	-3.0551987907	 0.1069274125	-0.409054
C	-1.8947809614	-1.1045859291	 1.1673443595	 0.104894
O	-1.031113379	-1.0493862891	 2.2616299653	-0.234983
C	-1.4015696849	-1.9336190021	 3.300250707	-0.232254
H	 1.0113306606	 1.9694749809	 0.084329683	 0.105339
H	-0.6689985104	 2.1108913693	-0.4494241036	 0.106696
H	-0.3095873066	 1.6448997645	 1.2203434553	 0.129337
H	 0.3936795221	-0.0569125874	-1.2442876701	 0.090181
H	 0.7117913124	-0.4925070495	 0.4281607049	 0.109015
H	-2.1037979739	-0.0494099066	-0.7409126771	 0.077997
H	-2.4798762064	-2.4440785182	-0.4900474195	 0.077582
H	 0.3118509314	-2.7250745716	 0.8059300243	 0.13103
H	-0.8182288027	-4.0327826211	 0.4474031411	 0.110725
H	 0.0116650534	-3.2011835373	-0.8714430392	 0.114727
H	-2.9381582925	-0.9161913116	 1.4278387268	 0.074898
H	-1.391579047	-2.9814309425	 2.9695106354	 0.110567
H	-0.6767253801	-1.8052805301	 4.1078448211	 0.125041
H	-2.4066814294	-1.7021962308	 3.6849254001	 0.105803
56.9116	114.1597	130.1	160.6107	178.4158	203.6158	247.2187	258.1594	296.67	350.253	493.5156	568.5685	607.0018	747.1073	780.8172	805.4883	854.8907	955.3347	975.5903	1004.4868	1022.3391	1065.7778	1101.5389	1117.7764	1133.4626	1155.5874	1171.0761	1184.6398	1188.3428	1235.7179	1267.7102	1297.9168	1337.5945	1370.7956	1393.5768	1406.7134	1416.4796	1448.3179	1478.549	1486.5656	1488.9241	1499.4841	1500.1273	1503.1367	1508.1293	1510.9462	2983.4566	3023.7378	3030.9005	3032.2546	3037.7624	3074.2546	3084.6474	3085.6513	3101.775	3111.9019	3115.769	3118.432	3121.9669	3136.633
CCC1C(C)C1OC	CC[C@H]1[C@@H](C)[C@H]1OC	
InChI=1S/C7H14O/c1-4-6-5(2)7(6)8-3/h5-7H,4H2,1-3H3	InChI=1S/C7H14O/c1-4-6-5(2)7(6)8-3/h5-7H,4H2,1-3H3/t5-,6+,7-/m1/s1
