16
gdb 90290	3.50181	1.34757	1.20079	5.5372	72.82	-0.2389	-0.027	0.2119	1042.1278	0.125443	-437.892361	-437.884855	-437.883911	-437.924269	29.227	
O	-0.0257145739	 1.4569239996	 0.1614843451	-0.41219
C	 0.0700074263	 0.0645126111	 0.0669702791	 0.087498
C	 0.1246488175	-0.6797554163	 1.4645533309	-0.349731
C	-1.3791072838	-0.7125671887	 1.3422145807	 0.245777
C	-2.4729341931	-0.1605092242	 1.8689461652	-0.323367
C	-3.3474691099	 0.3060301902	 0.7399549224	 0.41249
O	-4.4647653503	 0.7678072507	 0.7806346172	-0.376775
N	-2.567670188	 0.1692078103	-0.4177679473	-0.326846
C	-1.3759484908	-0.5650718626	-0.1509133138	-0.026076
H	 0.8092603916	 1.7963668045	 0.4990708716	 0.291435
H	 0.8245640816	-0.2559874222	-0.6633312357	 0.075488
H	 0.6105451234	-1.6565677193	 1.384737869	 0.119383
H	 0.5477443033	-0.1223701975	 2.3026774535	 0.118932
H	-2.6938594173	 0.085922241	 2.8976568948	 0.118062
H	-3.0140002897	 0.2184417441	-1.319489449	 0.248119
H	-1.2871601569	-1.4911070006	-0.7295238937	 0.097799
96.1601	174.6638	251.0861	272.9995	320.8146	409.8218	449.5487	482.1156	565.1003	607.9286	719.5819	735.2669	794.6107	801.3956	848.2305	871.3538	894.0425	936.7725	966.6907	1049.312	1078.9415	1096.3077	1134.8178	1182.1809	1189.1235	1215.9355	1238.5784	1274.3946	1302.28	1360.4215	1398.9514	1410.9883	1466.2984	1695.4022	1823.6999	3008.7976	3046.7347	3061.6643	3123.1742	3241.4674	3645.8567	3819.556
OC1CC2=CC(=O)NC12	O[C@H]1C[C]2[CH]C(=O)N[C@@H]12	
InChI=1S/C6H7NO2/c8-4-1-3-2-5(9)7-6(3)4/h2,4,6,8H,1H2,(H,7,9)	InChI=1S/C6H7NO2/c8-4-1-3-2-5(9)7-6(3)4/h2,4,6,8H,1H2,(H,7,9)/t4-,6+/m0/s1
