16
gdb 98927	4.09467	0.90395	0.74391	2.8564	78.31	-0.2223	-0.0535	0.1688	1465.6578	0.122647	-434.069077	-434.059106	-434.058162	-434.105201	34.605	
C	 0.0531484401	 1.5489400234	 0.0778479426	-0.309252
N	 0.0053065364	 0.1033482002	 0.064252514	-0.308756
C	 0.6530193453	-0.6181111542	 1.0070975509	 0.476529
N	 1.332752568	-0.071164384	 1.9451815789	-0.584131
N	 0.519546987	-2.0333344361	 0.8739881285	-0.415035
C	-0.1683839688	-2.7571938416	-0.0676566433	 0.320073
O	-0.8107460777	-2.2835015963	-0.9909470622	-0.369702
C	-0.0614466078	-4.1925329815	 0.1380104895	 0.200278
C	 0.0129348895	-5.3828051187	 0.2883902232	-0.372071
H	 1.0821258752	 1.9138960292	-0.0112799955	 0.138111
H	-0.5330236027	 1.9220579504	-0.7642028262	 0.121519
H	-0.3591714047	 1.9522143662	 1.009163161	 0.138009
H	-0.5096795231	-0.4036191873	-0.6400557093	 0.279421
H	 1.7538546364	-0.7565744078	 2.5663220516	 0.202297
H	 1.0046250465	-2.5678622206	 1.5780075853	 0.2634
H	 0.0705737606	-6.4374935612	 0.4099281111	 0.219311
33.5781	62.9764	112.2779	125.1001	160.704	218.1542	273.9397	310.9743	409.7718	443.9004	446.9775	563.8552	623.0024	670.1949	686.99	696.0095	720.0038	743.8026	759.5439	893.2455	982.4248	1085.7173	1165.2699	1175.537	1200.7837	1230.4908	1313.0421	1455.933	1473.1883	1490.2241	1516.4898	1584.3511	1732.6515	1758.7894	2229.2818	3031.5143	3082.5697	3132.0804	3492.8076	3522.9725	3590.256	3634.468
CNC(=N)NC(=O)C#C	CNC(=N)NC(=O)C#C	
InChI=1S/C5H7N3O/c1-3-4(9)8-5(6)7-2/h1H,2H3,(H3,6,7,8,9)	InChI=1S/C5H7N3O/c1-3-4(9)8-5(6)7-2/h1H,2H3,(H3,6,7,8,9)
