17
gdb 126003	3.92389	1.39175	1.17851	6.0184	73.92	-0.2134	0.017	0.2303	1053.5996	0.139596	-414.185038	-414.177784	-414.176839	-414.216861	27.993	
C	 0.1794060174	 1.4758266531	 0.0575813659	-0.402173
C	-0.0568445707	-0.0318678775	-0.053137138	 0.019191
C	 0.7116299145	-0.6662982488	-1.2567366289	-0.186602
N	 1.8820894278	-1.1851646203	-0.5774045901	 0.058912
N	 3.0584445457	-1.720414002	-0.9848767567	-0.185502
N	 3.6686871486	-2.0953703717	 0.10411332	-0.185667
C	 2.895795579	-1.8337231168	 1.2068407271	-0.198906
C	 1.7329828238	-1.2477741579	 0.759066701	 0.368436
N	 0.4740844532	-0.7789846806	 1.1261204798	-0.41814
H	 1.2496444397	 1.7004341263	 0.1124853713	 0.141275
H	-0.2385399571	 1.9971560191	-0.8095881384	 0.129189
H	-0.3050237281	 1.880183152	 0.95258463	 0.122829
H	-1.1282761781	-0.2302825466	-0.1453958028	 0.101002
H	 0.1451481614	-1.4770286427	-1.7265506701	 0.137179
H	 0.9769353507	 0.0695008489	-2.0189231684	 0.140165
H	 3.2267956963	-2.073750065	 2.2024169937	 0.113753
H	 0.4375030257	-0.2598260996	 1.9934073246	 0.24506
81.7727	174.1553	255.9345	270.7729	344.6366	397.0733	452.9664	613.9733	654.3404	693.8672	718.7384	774.8496	788.0617	819.3201	855.5619	937.1426	947.5055	1005.3353	1049.8371	1111.8157	1117.6104	1138.9607	1157.8354	1219.7614	1257.2597	1263.4748	1320.5329	1337.4211	1344.6649	1372.5361	1402.4791	1409.9739	1492.3528	1495.5896	1508.3059	1538.6361	1613.3417	3032.8481	3048.5537	3067.1015	3103.0696	3111.3167	3113.9574	3283.7949	3576.5654
CC1CN2N=NC=C2N1	C[C@H]1Cn2nncc2N1	
InChI=1S/C5H8N4/c1-4-3-9-5(7-4)2-6-8-9/h2,4,7H,3H2,1H3	InChI=1S/C5H8N4/c1-4-3-9-5(7-4)2-6-8-9/h2,4,7H,3H2,1H3/t4-/m0/s1
