14
gdb 129613	3.39382	1.28329	0.97093	1.671	68.03	-0.2268	-0.0018	0.2251	1126.1648	0.101946	-432.877968	-432.870037	-432.869093	-432.910948	28.948	
N	-0.179634758	 1.2678761398	-0.4128809756	-0.601511
C	-0.13760456	-0.0725837262	-0.1537581043	 0.428006
C	-1.1102102254	-1.0408089699	-0.0460374728	 0.065144
C	-2.5998134504	-0.9167863771	-0.2137803844	-0.464946
C	-2.9579025191	 0.0729736885	-1.2333324821	 0.269019
N	-3.1792448504	 0.8938611512	-2.0168774127	-0.3177
C	-0.3610275186	-2.1938573372	 0.3003521959	-0.031499
N	 0.9236549928	-1.9715872524	 0.4019327797	-0.158189
O	 1.0655500412	-0.5968912987	 0.1025505157	-0.214445
H	 0.7048816106	 1.6685380324	-0.690231543	 0.272127
H	-0.9622367822	 1.5794897108	-0.9728664555	 0.285651
H	-3.028097231	-1.8822438434	-0.5053494069	 0.168277
H	-3.1019178987	-0.6274214368	 0.7199766944	 0.169521
H	-0.7298592608	-3.195027071	 0.4825005416	 0.130545
53.7907	121.6043	225.5921	260.7176	300.5263	357.0764	378.8732	431.4272	488.5813	591.3775	625.1432	720.3205	727.771	761.7979	896.505	909.3863	938.0898	940.3189	951.3117	1072.6178	1186.6349	1228.0306	1261.5809	1301.9712	1353.7627	1439.7921	1462.4487	1553.6661	1639.5323	1687.1274	2355.1783	3013.485	3069.2811	3228.5192	3552.7448	3662.3665
NC1=C(CC#N)C=NO1	Nc1c(CC#N)cno1	
InChI=1S/C5H5N3O/c6-2-1-4-3-8-9-5(4)7/h3H,1,7H2	InChI=1S/C5H5N3O/c6-2-1-4-3-8-9-5(4)7/h3H,1,7H2
