21
gdb 121618	4.17616	0.61541	0.55526	4.0578	76.25	-0.2617	-0.0246	0.237	1975.1671	0.179038	-461.379453	-461.368397	-461.367453	-461.417005	38.585	
C	 0.0531706716	 1.4605675979	-0.3098342843	-0.402852
C	-0.0427866837	 0.0071968412	 0.1746028537	 0.066857
O	 0.5415707455	-0.1206677478	 1.4420380589	-0.438656
C	-1.4880591347	-0.5039397301	 0.2171306225	 0.355014
O	-1.9212058449	-0.9441198964	 1.2620201777	-0.325278
C	-2.3162970775	-0.449168675	-1.0516165062	-0.313604
C	-3.5931531328	-1.2871165471	-0.9873651878	-0.164525
C	-4.43755777	-1.15090094	-2.2473646609	-0.077205
O	-5.5839456647	-1.9694532725	-2.0888248724	-0.418274
H	 1.0958988862	 1.7823713889	-0.2548398582	 0.138226
H	-0.2863555577	 1.5677739601	-1.3441648414	 0.113991
H	-0.5398251069	 2.1190786126	 0.3321961691	 0.127485
H	 0.4872220291	-0.6351347792	-0.5528912554	 0.087296
H	-0.139075468	-0.5404989726	 1.9934361968	 0.292193
H	-2.5585858246	 0.6089296547	-1.2309246449	 0.135604
H	-1.6813014339	-0.7435430858	-1.8979150375	 0.12155
H	-3.3424247628	-2.3428085325	-0.8396927261	 0.119254
H	-4.1882743724	-0.9888213249	-0.1197104824	 0.129778
H	-4.7171845571	-0.0940226888	-2.3955999615	 0.08346
H	-3.8480104812	-1.4547659306	-3.1289675589	 0.08266
H	-6.1245446397	-1.8900759022	-2.8800103508	 0.287026
39.4115	60.597	84.335	105.9358	128.5778	211.1055	240.7393	261.9443	285.7081	314.8877	377.1912	415.2553	458.1695	507.2109	576.2038	688.6285	760.306	801.3562	865.4123	929.675	1002.9303	1021.4511	1038.4127	1073.2838	1080.5682	1103.7117	1133.1322	1190.897	1209.5107	1241.0492	1273.2673	1299.9204	1307.4936	1318.1662	1357.9017	1391.1151	1400.0732	1434.49	1452.3305	1467.7919	1489.4693	1495.1434	1499.86	1527.9678	1789.5894	2934.8653	2951.2275	2975.1268	3010.7331	3042.9994	3044.5667	3060.4162	3107.4632	3118.8107	3127.5337	3671.5446	3830.9877
CC(O)C(=O)CCCO	C[C@@H](O)C(=O)CCCO	
InChI=1S/C6H12O3/c1-5(8)6(9)3-2-4-7/h5,7-8H,2-4H2,1H3	InChI=1S/C6H12O3/c1-5(8)6(9)3-2-4-7/h5,7-8H,2-4H2,1H3/t5-/m1/s1
