17
gdb 46573	3.12614	1.71856	1.34819	4.9344	72.72	-0.2298	0.0124	0.2422	952.7154	0.139031	-417.933615	-417.92694	-417.925996	-417.964495	27.315	
O	-0.1375590096	-0.0869044474	-0.1822262242	-0.366027
C	-0.0260074139	 1.105589303	-0.0245684095	 0.342768
N	-1.0850456316	 2.0065968345	 0.0361908098	-0.303633
C	-0.7856685916	 3.4172479737	 0.34759054	-0.29981
C	 0.659306488	 3.2231043359	 0.7815341822	 0.271711
C	 2.1256743426	 3.7241009459	 0.781569135	-0.255192
N	 2.2845287848	 2.2186218647	 1.1418204341	-0.162591
C	 1.0791297075	 2.4611003847	 2.0632912003	-0.200375
C	 1.2039550729	 2.0211363855	 0.0311486567	-0.069552
H	-2.0270172575	 1.6612321408	-0.0637227421	 0.253235
H	-0.8913538022	 4.0609889885	-0.5356370562	 0.117474
H	-1.4445501528	 3.7961756131	 1.1361806556	 0.11855
H	 2.5754008338	 3.9951159465	-0.1765400473	 0.112932
H	 2.4537933196	 4.3857676794	 1.5870397846	 0.110295
H	 1.3222844586	 3.052825516	 2.949453605	 0.101575
H	 0.5479058811	 1.5455521114	 2.3318740691	 0.129549
H	 1.6222858802	 2.1612862137	-0.9706645832	 0.099092
138.5723	229.86	288.1838	345.4869	482.7883	501.0112	577.3769	590.8929	615.0447	642.9132	746.0337	770.983	850.1557	901.9017	908.9335	926.8884	966.5135	1005.7298	1010.3633	1032.8905	1076.7049	1083.9702	1148.5723	1164.0422	1172.7205	1194.527	1203.6869	1231.7296	1251.9191	1308.9629	1316.9922	1349.4027	1424.5737	1511.9388	1514.6697	1551.8317	1831.5206	3014.0814	3056.654	3059.5383	3065.4234	3066.7299	3127.2132	3131.3107	3636.1374
O=C1NCC23CN(C2)C13	O=C1NC[C@@]23CN(C2)[C@@H]13	
InChI=1S/C6H8N2O/c9-5-4-6(1-7-5)2-8(4)3-6/h4H,1-3H2,(H,7,9)	InChI=1S/C6H8N2O/c9-5-4-6(1-7-5)2-8(4)3-6/h4H,1-3H2,(H,7,9)/t4-/m0/s1
