17
gdb 98787	3.34725	1.163	0.9706	3.2153	69.5	-0.2467	0.0121	0.2588	1226.803	0.137085	-455.189646	-455.180907	-455.179963	-455.224375	30.515	
C	-0.2390673972	 1.4128286059	 0.9879338534	-0.334393
N	 0.0558152405	-0.0051003156	 1.0428548705	-0.30765
C	 0.7725275464	-0.6393837638	 0.0858360291	 0.368787
O	 1.2407140585	-0.111746039	-0.908711131	-0.382108
C	 0.9711221404	-2.1434897298	 0.3002131549	-0.010882
C	 2.4647677701	-2.5680906302	 0.259118509	-0.190398
N	 2.7579181923	-3.0339255641	 1.6250511891	-0.247719
C	 1.6619948658	-3.0007633125	 2.2508350928	 0.114143
O	 0.5307319693	-2.5728413246	 1.6164020988	-0.245635
H	 0.1867332874	 1.9406521685	 1.8482160009	 0.129871
H	 0.2061434464	 1.8049091437	 0.0726739388	 0.171788
H	-1.3194411757	 1.5923428934	 0.9664855144	 0.129494
H	-0.2664169807	-0.5613726582	 1.81850708	 0.259486
H	 0.3614021688	-2.6650028375	-0.4416345305	 0.127989
H	 2.6482484162	-3.3814158347	-0.4493582783	 0.125876
H	 3.1104023886	-1.7331124091	-0.0219455113	 0.146329
H	 1.5078818126	-3.2943888122	 3.2829786894	 0.145022
53.4447	72.3113	91.2699	144.6542	195.1559	295.9098	331.3054	455.7329	492.7489	562.4715	615.0303	729.5528	786.7513	848.6851	882.1053	950.2245	967.1959	983.3386	995.3729	1058.1441	1095.2536	1109.2811	1153.6154	1178.8605	1190.6897	1259.4324	1283.3371	1311.6091	1333.337	1348.4063	1441.4749	1495.1024	1499.9669	1504.9841	1571.9753	1718.1402	1781.0026	3031.1661	3059.6831	3084.5525	3085.5923	3110.5649	3152.9114	3220.0028	3640.8451
CNC(=O)C1CN=CO1	CNC(=O)[C@H]1CN=CO1	
InChI=1S/C5H8N2O2/c1-6-5(8)4-2-7-3-9-4/h3-4H,2H2,1H3,(H,6,8)	InChI=1S/C5H8N2O2/c1-6-5(8)4-2-7-3-9-4/h3-4H,2H2,1H3,(H,6,8)/t4-/m1/s1
