14
gdb 43586	3.64771	1.25445	1.03011	3.1579	65.9	-0.2674	-0.0541	0.2133	1088.9922	0.101299	-436.700845	-436.693501	-436.692556	-436.733122	27.153	
O	 0.0479084103	-0.0026141784	 0.0594728836	-0.299774
C	-0.0078146818	 1.1937859972	-0.0318550051	 0.415276
C	-1.2806877522	 2.0411912382	-0.1794193163	-0.352518
C	-0.8223750135	 3.3126863295	-0.9480339276	-0.192159
C	-1.5688559824	 4.5213860557	-0.6056565225	 0.283274
N	-2.159405137	 5.4775867737	-0.3380306182	-0.311033
C	 0.6755049519	 3.4226683502	-0.6301335879	 0.043493
O	 0.9546541734	 3.2858901694	 0.7494837435	-0.229782
C	 1.1668010742	 2.1382033401	-0.1000169323	-0.085758
H	-2.0596066744	 1.4826003781	-0.698285624	 0.151652
H	-1.6515050445	 2.300201873	 0.8159657391	 0.170953
H	-0.927483269	 3.1474296106	-2.0270688721	 0.143362
H	 1.3043092052	 4.1093469471	-1.1891250072	 0.131731
H	 2.1850107399	 1.7774960257	-0.1961577031	 0.131283
83.6676	131.1297	173.5331	281.4118	371.1867	431.1496	488.0275	539.8018	558.3598	647.3409	696.9059	816.3511	822.8524	862.5326	889.5752	961.0401	1007.0393	1036.8402	1077.5963	1089.1096	1159.0083	1189.1062	1239.5981	1256.7211	1283.9011	1311.0979	1344.7775	1405.0738	1454.2983	1857.0735	2363.7498	3046.9132	3083.0973	3146.7019	3166.879	3191.5123
O=C1CC(C#N)C2OC12	O=C1C[C@@H](C#N)[C@H]2O[C@@H]12	
InChI=1S/C6H5NO2/c7-2-3-1-4(8)6-5(3)9-6/h3,5-6H,1H2	InChI=1S/C6H5NO2/c7-2-3-1-4(8)6-5(3)9-6/h3,5-6H,1H2/t3-,5+,6-/m0/s1
