14
gdb 21715	3.56552	1.91404	1.30316	5.1498	61.62	-0.2168	-0.0097	0.2071	887.5045	0.108369	-412.017315	-412.009882	-412.008938	-412.048846	27.599	
N	 0.0713823592	 1.2087691877	 0.6161380734	-0.519378
C	-0.0811267892	 0.0577601397	-0.297564252	-0.28316
C	-1.435784944	-0.5440409179	-0.1172738961	 0.186161
C	-2.1517436489	-0.7244800249	 1.0549465041	 0.394446
N	-1.7990262767	-0.4243503663	 2.3321958732	-0.58319
O	-3.3034978292	-1.3019085313	 0.795271937	-0.236478
N	-3.3046340865	-1.506366599	-0.7075281739	-0.058781
N	-2.2192329637	-1.0448233749	-1.1114543987	-0.155918
H	 1.033195249	 1.5336305343	 0.6053528197	 0.238033
H	-0.5014340794	 1.9810977175	 0.2869423549	 0.238163
H	 0.0577694331	 0.3003666965	-1.3607424037	 0.118573
H	 0.7061869059	-0.661035392	-0.0325855363	 0.121989
H	-1.0767253223	 0.2872727366	 2.3775438992	 0.273325
H	-2.5492747773	-0.3526105859	 3.0018195693	 0.266214
107.199	188.5707	225.0065	289.4541	325.6573	346.284	419.7847	457.2545	528.9041	637.6336	665.5237	693.2255	746.8405	775.007	885.4434	972.7005	1000.6417	1040.7965	1104.6373	1175.6824	1253.9937	1302.658	1347.6485	1412.9024	1477.1109	1506.4231	1514.6209	1589.5256	1650.7727	1662.3616	2999.0809	3029.4134	3489.1578	3507.8485	3571.5343	3667.2322
NCC1=C(N)ON=N1	NCc1c(N)onn1	
InChI=1S/C3H6N4O/c4-1-2-3(5)8-7-6-2/h1,4-5H2	InChI=1S/C3H6N4O/c4-1-2-3(5)8-7-6-2/h1,4-5H2
