16
gdb 43446	2.89873	1.57598	1.11146	2.6231	74.54	-0.2474	0.0019	0.2493	1067.8334	0.125557	-434.085628	-434.077935	-434.076991	-434.117895	29.822	
N	-0.1406430921	 1.2822968593	 0.0104564898	-0.563128
C	-0.0085497181	 0.0273073698	 0.0028891859	 0.465559
N	 1.133876562	-0.7795342612	-0.0069379614	-0.429382
C	 0.8351265254	-2.1328385408	-0.0131744384	 0.330434
N	 1.5737880546	-3.1648924507	-0.022427046	-0.559545
C	-0.6551864043	-2.1495595543	-0.0064259516	 0.37429
C	-1.4601284251	-3.1628778477	-0.764067827	-0.312109
C	-1.4531849382	-3.1713754122	 0.7471377905	-0.312108
O	-1.0860548339	-0.7973453754	 0.0031671025	-0.256916
H	 0.7596624591	 1.7542882335	 0.0089011406	 0.217503
H	 2.064882118	-0.3987792938	-0.0092116774	 0.261391
H	 2.5670502637	-2.9356371685	-0.0257273543	 0.214738
H	-2.3491434371	-2.793271228	-1.2617582548	 0.138078
H	-0.8996199461	-3.9289336497	-1.2874369615	 0.14656
H	-0.8879271607	-3.9432351296	 1.2566889155	 0.146558
H	-2.3375695571	-2.8074338306	 1.2571017178	 0.138077
94.6841	123.5658	235.3556	237.8609	355.2339	416.9258	425.4482	514.6764	587.0319	650.4134	689.1447	724.3889	760.7343	764.9168	773.4795	830.2577	911.8967	926.5136	964.9513	969.8824	1030.8665	1059.583	1072.4665	1084.6178	1097.7771	1199.9403	1207.0055	1300.6358	1353.5265	1372.265	1427.6072	1439.8705	1485.2132	1770.6438	1795.1761	3142.9903	3143.0646	3234.8007	3247.6687	3486.6991	3533.4339	3670.0227
N=C1NC(=N)C2(CC2)O1	[NH][C]1N[C]([NH])C2(CC2)O1	
InChI=1S/C5H7N3O/c6-3-5(1-2-5)9-4(7)8-3/h1-2H2,(H3,6,7,8)	InChI=1S/C5H7N3O/c6-3-5(1-2-5)9-4(7)8-3/h1-2H2,(H3,6,7,8)
