25
gdb 93831	2.18908	1.41227	1.04783	1.0581	88.93	-0.24	0.0802	0.3201	1309.2679	0.22924	-389.522906	-389.51311	-389.512166	-389.556731	38.409	
C	-0.0584704183	 1.5306443421	 0.0960826703	-0.402525
C	 0.0066468893	 0.0133311299	 0.0026580432	 0.155945
C	 0.6524882608	-0.4874059965	-1.2944511375	-0.195486
C	 0.8415075759	-2.0109888063	-1.2537430778	-0.235828
C	 1.5642221965	-2.4617268459	 0.0330942197	 0.023722
C	 3.0547500788	-2.0906247915	 0.0245469001	-0.396061
C	 0.8043727967	-1.8631524265	 1.2375011344	 0.14852
C	 1.4030110595	-2.1835546559	 2.6005390999	-0.413554
O	 0.7372502313	-0.4437587793	 1.136840202	-0.276649
H	 0.9484104774	 1.958059462	 0.0533652159	 0.120171
H	-0.6456965096	 1.9428639543	-0.7302091023	 0.110604
H	-0.5193792857	 1.8366341627	 1.0391277136	 0.119962
H	-1.01867262	-0.3977532188	 0.0596838389	 0.055896
H	 0.028047584	-0.2030211787	-2.1494751843	 0.090017
H	 1.6181804499	 0.0161574208	-1.4243216044	 0.099669
H	-0.1451565713	-2.4922792773	-1.2923392885	 0.089094
H	 1.3898403101	-2.3537738157	-2.1385148169	 0.08942
H	 1.4806956688	-3.5544786988	 0.1040685463	 0.062909
H	 3.1952602362	-1.0113592838	 0.1301578452	 0.126852
H	 3.5955425054	-2.5761430404	 0.8419991674	 0.112812
H	 3.5262975431	-2.4053663312	-0.9123128741	 0.105465
H	-0.2254180277	-2.2646906243	 1.2058727961	 0.054168
H	 2.3939657634	-1.7352451375	 2.7090599494	 0.126213
H	 0.7646529665	-1.7841714783	 3.3932197785	 0.119128
H	 1.492537629	-3.2657671354	 2.7380821248	 0.109536
101.9108	165.4915	190.566	214.9287	234.0418	241.1447	257.5097	284.3264	357.2057	394.2338	439.0295	474.8943	491.4159	550.7068	667.6291	757.1138	813.4191	847.0105	873.7306	933.6366	943.9018	968.7102	992.9696	1007.852	1023.4013	1064.7951	1100.4608	1114.5039	1125.8233	1155.7653	1187.5489	1200.2964	1233.2831	1243.3579	1325.1931	1329.7095	1345.8575	1363.6166	1368.0603	1383.0412	1397.7147	1403.1367	1406.76	1415.3714	1425.076	1475.1019	1481.5334	1484.4542	1490.1158	1496.5067	1499.9492	1506.2984	1516.4596	2922.3388	2928.9928	3007.0869	3021.0776	3028.3884	3039.8093	3040.3644	3045.3066	3058.6	3071.9802	3101.5041	3112.1519	3116.1039	3119.2164	3119.3975	3125.6349
CC1CCC(C)C(C)O1	C[C@H]1CC[C@@H](C)[C@@H](C)O1	
InChI=1S/C8H16O/c1-6-4-5-7(2)9-8(6)3/h6-8H,4-5H2,1-3H3	InChI=1S/C8H16O/c1-6-4-5-7(2)9-8(6)3/h6-8H,4-5H2,1-3H3/t6-,7+,8-/m1/s1
