17
gdb 45671	3.05372	1.62998	1.12691	2.709	79.57	-0.2316	-0.0119	0.2196	1053.0977	0.137379	-384.725475	-384.718389	-384.717444	-384.757068	28.145	
O	-0.1464813055	-0.0081326247	-0.0063087417	-0.299896
C	-0.0797903841	 1.1895733746	 0.0106425067	 0.371776
C	-1.2688833994	 2.1793707823	 0.0798151896	-0.359972
C	-0.6260380876	 3.4219373318	 0.6547923866	-0.220572
C	 0.7041482846	 3.3559276649	 0.5918331839	 0.315746
C	 1.8453220346	 4.0365431901	 1.2993387723	-0.369852
C	 2.7733592924	 2.8468573233	 1.5272888806	-0.064367
C	 2.4125227234	 1.7639682785	 0.8327324407	-0.088526
C	 1.1927603773	 2.0563049796	-0.0102078434	-0.20807
H	-1.6748752663	 2.3135247491	-0.9335370337	 0.132398
H	-2.0822521397	 1.7720529433	 0.689828719	 0.131595
H	-1.1973283485	 4.2010435352	 1.1467509078	 0.098188
H	 2.3431027305	 4.8004349185	 0.6826670903	 0.119026
H	 1.5382036751	 4.5341095265	 2.2258576051	 0.119108
H	 3.6420737884	 2.9129548036	 2.1727061961	 0.100621
H	 2.9328014757	 0.8144684118	 0.8166601136	 0.111568
H	 1.4744344391	 2.1441734915	-1.0749379434	 0.11123
88.6598	180.5953	254.2382	311.0311	410.4103	450.6487	524.2258	602.3773	625.9881	700.5576	724.251	771.9872	809.0646	837.2922	897.7331	937.2572	947.8143	966.1306	973.8712	996.3082	1014.2258	1093.3003	1118.6904	1144.3576	1164.0972	1175.9312	1228.5627	1260.0012	1268.7982	1277.159	1324.3516	1361.0676	1453.9469	1472.6142	1658.367	1727.694	1860.719	2943.9141	2993.3926	3008.5005	3061.6738	3074.2278	3192.1027	3192.9967	3221.3178
O=C1CC=C2CC=CC12	O=C1C[CH][C]2CC=C[C@@H]12	
InChI=1S/C8H8O/c9-8-5-4-6-2-1-3-7(6)8/h1,3-4,7H,2,5H2	InChI=1S/C8H8O/c9-8-5-4-6-2-1-3-7(6)8/h1,3-4,7H,2,5H2/t7-/m1/s1
