18
gdb 74576	3.5494	1.23543	1.05527	2.9467	79.07	-0.2265	-0.0235	0.203	1170.4766	0.147721	-401.955268	-401.947326	-401.946381	-401.987896	30.321	
C	 0.0877503051	 1.5244238751	-0.0564190468	-0.490911
C	 0.0129582856	 0.0314403933	-0.0735664715	 0.321721
C	 0.1048530633	-0.7841083423	-1.1277991136	-0.197854
C	 0.0151901279	-2.2237274741	-0.7075244701	-0.151856
N	-0.2650900468	-2.1788680507	 0.7696055363	-0.099369
C	-1.6587179441	-2.6674500337	 0.5842759421	-0.301997
C	-1.3609792121	-2.8994141076	-0.9052942992	 0.393835
O	-1.9371296087	-3.4016337716	-1.8208712004	-0.284349
C	-0.1381875341	-0.7775977002	 1.2011502865	-0.266972
H	 0.9073312981	 1.8699166136	 0.5864133972	 0.131645
H	 0.2444890701	 1.9337797917	-1.0574604015	 0.130638
H	-0.8322970812	 1.9623387717	 0.3508720194	 0.131005
H	 0.24687017	-0.4803708478	-2.1577337855	 0.10682
H	 0.8755512051	-2.8324001731	-1.0144968257	 0.105289
H	-1.9052177686	-3.5660419405	 1.1602161634	 0.13388
H	-2.4412908542	-1.9141826657	 0.7567153547	 0.122396
H	 0.7328499733	-0.6385433635	 1.8591167492	 0.110381
H	-1.0172117689	-0.4791701947	 1.7901969856	 0.105698
90.4135	120.9254	167.9772	251.5197	310.4602	366.3093	438.6447	445.887	550.9056	586.3432	624.1425	725.0931	807.7404	840.3819	869.8933	886.1004	953.5458	991.7572	1003.5209	1024.4977	1041.6869	1074.4427	1093.2634	1111.0817	1173.7644	1181.1397	1219.4326	1238.1279	1257.7421	1273.309	1294.1244	1348.2668	1414.9876	1463.5111	1479.6433	1486.533	1502.2072	1706.8497	1910.9322	2988.5731	3003.5589	3017.6845	3020.5313	3023.3937	3066.0218	3068.3261	3116.6633	3210.2209
CC1=CC2N(CC2=O)C1	CC1=C[C@H]2N(CC2=O)C1	
InChI=1S/C7H9NO/c1-5-2-6-7(9)4-8(6)3-5/h2,6H,3-4H2,1H3	InChI=1S/C7H9NO/c1-5-2-6-7(9)4-8(6)3-5/h2,6H,3-4H2,1H3/t6-/m1/s1
