19
gdb 105715	2.35923	1.41422	1.16391	3.2749	81.45	-0.2378	-0.0065	0.2313	1162.4423	0.159729	-382.087215	-382.078225	-382.07728	-382.120943	33.486	
C	 0.1156742172	 1.5480274879	-0.0514655735	-0.408255
C	-0.0209820807	 0.0261835061	 0.0319681267	-0.193587
C	-1.4749422566	-0.5057680418	 0.0446616693	 0.106592
N	-1.4787971925	-1.9813521075	 0.1141683679	-0.33793
C	-2.5394745853	-2.4361956464	 1.0268944468	-0.213009
C	-2.8465348711	-1.1976109851	 1.8208988872	-0.062841
C	-2.270963069	-0.1283540949	 1.2846263454	-0.087414
C	-2.1900022844	-0.0208398309	-1.1657714395	 0.247389
N	-2.7407832327	 0.3182031346	-2.125200825	-0.352467
H	 1.1715272502	 1.8317370566	-0.0809730879	 0.122382
H	-0.3619400873	 1.9445508263	-0.9526965689	 0.143382
H	-0.3327371236	 2.0459166414	 0.8143823588	 0.118597
H	 0.493992097	-0.4421213854	-0.8146157511	 0.109204
H	 0.4497183536	-0.3624159097	 0.9402609314	 0.112062
H	-1.5335178042	-2.4074396108	-0.8015603522	 0.233702
H	-3.443555309	-2.8001613953	 0.5103428872	 0.11256
H	-2.1798270189	-3.2613169221	 1.6565168171	 0.117483
H	-3.4728261817	-1.207213064	 2.7041674469	 0.113836
H	-2.3456354011	 0.8944325311	 1.6270837532	 0.118314
88.8729	103.336	155.5834	172.9914	212.2545	260.781	307.5428	397.5862	457.8489	501.7023	568.8398	625.5265	645.4756	747.2119	781.4316	799.9902	853.6218	941.8427	947.6609	964.6217	975.2833	1016.2372	1047.6526	1076.4426	1126.4425	1149.5173	1158.2556	1188.9359	1202.7693	1289.7046	1335.649	1344.2466	1365.6589	1417.0015	1452.7358	1479.6809	1501.6199	1506.0927	1515.2796	1691.567	2333.484	2962.4375	3018.868	3040.1114	3042.93	3085.8775	3109.283	3116.4153	3211.2895	3240.5956	3575.9557
CCC1(NCC=C1)C#N	CC[C@]1(NCC=C1)C#N	
InChI=1S/C7H10N2/c1-2-7(6-8)4-3-5-9-7/h3-4,9H,2,5H2,1H3	InChI=1S/C7H10N2/c1-2-7(6-8)4-3-5-9-7/h3-4,9H,2,5H2,1H3/t7-/m1/s1
