15
gdb 132370	1.93162	1.92396	0.97546	2.0637	69.57	-0.2772	-0.0497	0.2274	1149.3865	0.111667	-458.175572	-458.167107	-458.166163	-458.210971	29.072	
C	 0.048216058	 1.4765784358	 0.0144864189	-0.461169
C	 0.0345405444	-0.0218132401	 0.0139884734	 0.346664
N	 0.03539569	-0.6322382849	-1.1832445813	-0.333538
C	 0.0229860749	-1.9450921829	-1.1041527902	 0.340952
F	 0.0232179576	-2.592857888	-2.2485736244	-0.044756
N	 0.0102458556	-2.7000105536	-0.0189924031	-0.331647
C	 0.0105388944	-1.9978106751	 1.1198961457	 0.35189
C	-0.0031330434	-2.7549118156	 2.4128695477	-0.462206
N	 0.0224110807	-0.6589580672	 1.1859505039	-0.305649
H	 0.932810139	 1.8403228795	-0.5175343233	 0.15261
H	-0.8239030102	 1.8563547196	-0.5268467338	 0.152612
H	 0.0462830643	 1.8579652366	 1.0349864753	 0.143944
H	 0.8763144183	-2.4889611955	 3.0075562268	 0.15192
H	-0.8803696744	-2.4684366246	 3.0011746876	 0.151876
H	-0.0147611692	-3.828726534	 2.2285624768	 0.146498
19.2138	40.2395	184.4903	187.9976	200.6555	287.4893	334.3557	550.6779	570.9107	581.0684	598.8109	623.8522	690.1641	837.1413	967.4326	988.1786	1003.9938	1055.3497	1061.3489	1069.7494	1097.9499	1231.508	1378.6655	1385.1744	1416.3673	1427.1818	1461.9848	1474.0038	1475.2898	1476.6181	1485.7019	1583.6821	1617.1694	3051.494	3051.6028	3110.0002	3110.2943	3163.5705	3164.6391
CC1=NC(F)=NC(C)=N1	Cc1nc(F)nc(C)n1	
InChI=1S/C5H6FN3/c1-3-7-4(2)9-5(6)8-3/h1-2H3	InChI=1S/C5H6FN3/c1-3-7-4(2)9-5(6)8-3/h1-2H3
