18
gdb 22738	2.55665	1.37676	0.99755	1.1206	77.02	-0.2414	-0.0067	0.2346	1198.9923	0.146082	-439.012124	-439.003213	-439.002269	-439.045772	33.715	
O	-0.1706579379	 1.3205135347	 0.0979470965	-0.410972
N	 0.0126525132	-0.090116452	 0.1124592048	-0.266965
C	-1.1169021697	-0.6641943257	 0.0983688762	 0.333874
C	-2.5585026328	-0.1893805412	-0.0383717517	 0.056959
O	-2.8219216229	 0.7286197273	-1.0689151441	-0.437187
C	-2.9479570948	-1.6681106144	-0.3571888696	-0.34487
C	-1.5135572911	-2.0946371494	 0.0222382489	 0.271163
C	-0.6915672123	-3.2589926801	-0.4619731261	-0.315766
C	-1.0928843656	-3.1835677021	 0.9841265583	-0.310345
H	 0.7344263206	 1.644496275	 0.0465079255	 0.309537
H	-2.9674617989	 0.1465095973	 0.9269946425	 0.087363
H	-2.1738400063	 1.4371118049	-0.9696532335	 0.297527
H	-3.7607190451	-2.0889567315	 0.2377830053	 0.10603
H	-3.1657944236	-1.7859255896	-1.4210247894	 0.122805
H	-1.1883130054	-3.9856486017	-1.0964306861	 0.120367
H	 0.3417236841	-3.0563687655	-0.7214780942	 0.13261
H	-0.3342631863	-2.9323539934	 1.7173622664	 0.128662
H	-1.8675581053	-3.8556754726	 1.3391035302	 0.119208
62.7618	140.3883	158.8202	214.4456	256.7711	308.6367	368.0594	372.1981	415.7291	427.0103	507.1429	529.9406	679.5236	776.9961	795.542	813.3034	845.7936	921.0706	941.357	946.6589	968.2499	1027.3424	1053.9272	1073.8629	1100.6733	1133.0365	1170.0774	1194.5706	1209.7579	1241.5519	1253.7905	1341.0546	1349.4023	1401.6059	1417.9936	1459.3621	1477.4604	1494.0319	1773.7216	2980.5623	3070.6948	3128.6589	3129.936	3132.8876	3212.9472	3227.9057	3787.761	3827.4921
ON=C1C(O)CC11CC1	O[N][C]1[C@@H](O)CC21CC2	
InChI=1S/C6H9NO2/c8-4-3-6(1-2-6)5(4)7-9/h4,8-9H,1-3H2	InChI=1S/C6H9NO2/c8-4-3-6(1-2-6)5(4)7-9/h4,8-9H,1-3H2/t4-/m0/s1
