13
gdb 25248	3.454	1.69763	1.14645	1.9385	67.59	-0.2503	-0.0439	0.2064	964.1559	0.092448	-452.772494	-452.766225	-452.765281	-452.803309	23.922	
N	-0.0552772451	 1.3295484018	 0.0106243651	-0.552181
C	-0.0678388144	 0.0679450647	 0.0038763301	 0.354842
O	 1.0564597894	-0.7512141294	-0.0065518668	-0.274496
C	 0.7228106346	-2.1653996975	-0.0123927917	-0.193228
C	-0.7679019922	-2.1428234859	-0.0043116322	 0.224079
C	-1.1790552383	-0.8624244693	 0.0047865835	 0.224809
O	-2.5335743827	-0.8340946072	 0.0122158696	-0.181972
C	-2.857837563	-2.1611116777	 0.0066948763	 0.047112
N	-1.8556420904	-2.9913480137	-0.0030293492	-0.339134
H	 0.9035305372	 1.6805026156	 0.0074011983	 0.232274
H	 1.159669771	-2.6226601267	-0.9068784206	 0.146003
H	 1.1691653872	-2.6322468054	 0.8723998466	 0.146004
H	-3.9117462432	-2.3913635194	 0.011082791	 0.165889
155.1423	209.6316	261.2182	302.2716	535.3833	607.2967	622.0476	641.4047	653.7626	750.4903	787.1628	845.763	867.7957	948.2181	948.8343	1016.8704	1029.6739	1089.7788	1111.65	1181.8171	1216.7369	1292.0374	1316.5516	1414.0476	1434.1206	1501.1323	1516.1961	1644.0154	1788.6722	3041.6577	3080.1715	3282.0126	3486.3371
N=C1OCC2=C1OC=N2	[NH][C]1OCc2c1ocn2	
InChI=1S/C5H4N2O2/c6-5-4-3(1-8-5)7-2-9-4/h2,6H,1H2	InChI=1S/C5H4N2O2/c6-5-4-3(1-8-5)7-2-9-4/h2,6H,1H2
