15
gdb 25229	3.17605	1.63047	1.09187	3.0955	73.12	-0.2383	-0.0256	0.2127	1033.0148	0.115102	-420.687271	-420.680504	-420.67956	-420.718717	26.087	
O	-0.0638141274	-0.0503099245	 0.0047747936	-0.333532
C	 0.011771439	 1.1554985838	 0.0106254391	 0.282016
C	-1.2116780962	 2.1195589658	 0.0313793335	-0.31806
C	-0.6701091068	 3.5816066652	 0.0312756514	-0.37009
C	 0.7948376032	 3.3223202554	 0.0097818537	 0.345345
C	 1.1950604171	 2.0214862601	-0.0020155447	 0.140971
C	 2.6316595381	 2.0445978772	-0.0222097889	-0.363248
C	 2.9622162722	 3.3610880455	-0.0204473318	-0.007885
O	 1.8366677293	 4.1660688992	-0.0005105013	-0.198284
H	-1.8395259324	 1.9102754285	-0.8391498311	 0.137964
H	-1.8162274825	 1.9017858459	 0.9161905452	 0.137889
H	-1.0059832769	 4.1532634861	-0.8410929159	 0.132756
H	-0.981782886	 4.1444888097	 0.9182108184	 0.132749
H	 3.3166772361	 1.2122519539	-0.0358968024	 0.136156
H	 3.8991995631	 3.8928076381	-0.0310446187	 0.145255
101.6063	169.3587	232.2163	303.6404	509.6315	541.9684	598.4996	622.0717	628.7221	670.8393	731.9816	756.1588	841.0279	851.7913	914.4531	969.2403	999.577	1010.3291	1053.612	1077.7285	1146.9928	1150.6925	1221.879	1249.9156	1263.5628	1291.4636	1381.6706	1454.1571	1467.2619	1490.5464	1536.172	1621.0264	1818.0499	3039.6269	3069.0658	3070.2188	3113.2948	3264.4762	3289.3619
O=C1CCC2=C1C=CO2	O=C1CCc2c1cco2	
InChI=1S/C7H6O2/c8-6-1-2-7-5(6)3-4-9-7/h3-4H,1-2H2	InChI=1S/C7H6O2/c8-6-1-2-7-5(6)3-4-9-7/h3-4H,1-2H2
