15
gdb 131651	3.7882	1.14421	0.90795	2.0006	73.97	-0.2415	-0.0772	0.1643	1219.5008	0.11405	-450.097972	-450.09013	-450.089186	-450.130848	29.088	
O	 0.0617577902	 1.3713795898	 0.2347536748	-0.409569
C	 0.03427338	 0.001986693	-0.1033295463	-0.134779
C	-1.3762804777	-0.5343787118	-0.150994261	 0.366189
C	-1.8812927038	-1.3092412747	-1.1322607831	-0.242736
C	-3.2474089612	-1.7805311284	-1.0486199306	 0.439325
N	-3.8043562634	-2.5213722911	-1.9279365125	-0.545959
N	-3.8593984939	-1.3013629539	 0.1291569068	-0.304719
N	-3.3271979034	-0.5201439806	 1.0823776326	-0.038354
N	-2.1244979321	-0.1419921617	 0.9640655973	-0.278162
H	-0.5040342735	 1.4695017405	 1.0114154294	 0.299504
H	 0.5122812248	-0.1065097731	-1.0808648229	 0.12267
H	 0.6115078565	-0.6032122213	 0.6167814387	 0.110532
H	-1.3038331915	-1.6017515996	-2.0009525148	 0.134622
H	-4.7725512727	-2.7434652047	-1.692629721	 0.206981
H	-4.8216563483	-1.5441402026	 0.3215504026	 0.274455
64.6443	144.2474	154.4672	245.4138	335.7661	414.0997	429.9918	454.564	544.1142	560.3147	664.5782	681.6604	758.4405	782.6996	806.5641	918.2691	921.9403	1004.179	1023.6132	1077.1206	1099.0704	1126.5183	1192.7539	1220.8601	1299.1407	1351.7915	1368.7049	1422.1969	1440.8981	1495.8763	1555.6148	1657.6041	1737.2379	2958.3569	3090.933	3212.6609	3466.9031	3602.7383	3775.5956
OCC1=CC(=N)NN=N1	OCc1cc([NH])[nH]nn1	
InChI=1S/C4H6N4O/c5-4-1-3(2-9)6-8-7-4/h1,9H,2H2,(H2,5,6,7)	InChI=1S/C4H11N4O/c5-4-1-3(2-9)6-8-7-4/h3-9H,1-2H2
