17
gdb 111969	3.20106	1.15599	0.90829	1.8911	69.85	-0.2525	-0.0313	0.2212	1249.2691	0.134703	-458.974876	-458.965967	-458.965023	-459.008994	32.432	
O	-0.1540681384	 1.5100842828	 0.3168152522	-0.424687
C	 0.0380224073	 0.1107177844	 0.1808284835	-0.080946
C	-1.3305812287	-0.5048202419	-0.1046709607	-0.158779
C	-1.9503434787	-0.1418160446	-1.4363966588	-0.071158
C	-2.4207018335	-1.1999812167	-2.1007387887	-0.105713
C	-2.2670480886	-2.4766479938	-1.3147642733	 0.018967
O	-1.7648005838	-3.5685734201	-2.0484927442	-0.440142
C	-1.2905362709	-2.0306704088	-0.2130368139	 0.343603
O	-0.5400073879	-2.7865193531	 0.3514967552	-0.326796
H	 0.7048692825	 1.9204038827	 0.4536102266	 0.291548
H	 0.725656859	-0.1240745508	-0.6459293022	 0.097657
H	 0.4488384649	-0.3402770266	 1.0949096173	 0.110467
H	-1.9927710706	-0.2227597305	 0.728600997	 0.122684
H	-1.9880773678	 0.8861744216	-1.7753172452	 0.12034
H	-2.9027547274	-1.1791627912	-3.0705097492	 0.113795
H	-3.228433056	-2.7468736299	-0.8360534087	 0.095808
H	-1.1826816314	-4.0485764834	-1.4425918868	 0.293351
54.846	94.6198	157.0695	214.4239	267.6964	269.9425	316.9093	348.17	363.3928	498.3897	566.5492	628.2401	680.73	731.1447	764.0303	888.9023	903.7819	986.5784	996.5983	1014.1271	1071.4442	1095.1224	1108.3771	1135.0705	1164.9416	1207.6523	1226.0114	1241.7455	1284.5887	1313.2585	1338.0885	1376.9979	1412.2478	1453.6748	1523.045	1670.0602	1839.6042	2910.9554	2983.7475	2995.7709	3029.6361	3201.9138	3223.801	3742.8388	3831.119
OCC1C=CC(O)C1=O	OC[C@H]1C=C[C@@H](O)C1=O	
InChI=1S/C6H8O3/c7-3-4-1-2-5(8)6(4)9/h1-2,4-5,7-8H,3H2	InChI=1S/C6H8O3/c7-3-4-1-2-5(8)6(4)9/h1-2,4-5,7-8H,3H2/t4-,5-/m1/s1
