18
gdb 75124	2.98212	1.28989	1.00737	3.1022	74.66	-0.2359	-0.0223	0.2136	1195.4291	0.147145	-439.11649	-439.107722	-439.106778	-439.15113	31.883	
C	-0.8585608661	 1.2688223739	 0.2390939546	-0.433626
C	 0.0335061314	 0.0726024377	 0.0385504499	 0.386011
N	 0.0245346495	-0.5544888207	-1.0603217711	-0.30289
C	 0.7853579985	-1.738704046	-1.4190663582	-0.272261
C	 0.8072379355	-2.8771274756	-0.3957707265	 0.376535
O	 0.5009715334	-4.0043992237	-0.6963852656	-0.293204
C	 1.2525455154	-2.5379044061	 1.0277344828	-0.311314
C	 1.7785235931	-1.1238860738	 1.2225624789	-0.098233
O	 0.7493974178	-0.1337701131	 1.1843613111	-0.254313
H	-0.2556427555	 2.1584144909	 0.4475640596	 0.136848
H	-1.4618690671	 1.4308465535	-0.6522173369	 0.144973
H	-1.5091797072	 1.1116081027	 1.105245178	 0.138253
H	 0.3586914554	-2.1552367643	-2.3350471854	 0.132496
H	 1.8280086646	-1.4754550464	-1.6544358111	 0.124954
H	 0.4054829896	-2.7127184111	 1.7020701748	 0.146632
H	 2.0215929069	-3.2674099565	 1.3065226563	 0.137974
H	 2.2164704694	-1.0188890165	 2.2179191144	 0.125073
H	 2.5592045354	-0.8791074849	 0.4925229244	 0.116091
26.551	79.2416	135.7459	227.1899	288.574	295.8458	350.8322	380.0137	474.7206	507.7839	542.2349	615.9422	688.7077	721.3476	801.7277	867.2737	933.4973	962.1244	982.315	1058.6018	1077.6408	1102.2867	1116.4357	1194.1689	1205.9843	1239.2601	1260.6235	1293.2456	1339.3214	1360.098	1402.6222	1415.836	1432.4403	1471.5347	1476.9091	1477.8081	1511.8177	1770.2727	1817.963	2990.4628	3039.4452	3043.572	3048.7515	3086.0972	3090.8096	3104.4014	3105.5411	3173.3894
CC1=NCC(=O)CCO1	CC1=NCC(=O)CCO1	
InChI=1S/C6H9NO2/c1-5-7-4-6(8)2-3-9-5/h2-4H2,1H3	InChI=1S/C6H9NO2/c1-5-7-4-6(8)2-3-9-5/h2-4H2,1H3
