19
gdb 100375	1.81357	1.39052	0.98242	2.7484	78.67	-0.2796	0.0036	0.2832	1298.1607	0.156433	-419.222019	-419.211644	-419.210699	-419.257525	36.709	
C	-0.1574855751	 1.5568146519	 0.0214282685	-0.411072
C	 0.0214151066	 0.0372150138	 0.0666126637	-0.190674
C	 0.8367805588	-0.4689010607	 1.2783150491	 0.193134
C	 2.2661214921	 0.0937566515	 1.3265125057	-0.414365
O	 0.0954080765	-0.0547611523	 2.4363870523	-0.220447
C	 0.4214761118	-0.5724568003	 3.6471141225	 0.11892
N	-0.0454153027	-0.0360359737	 4.6867428439	-0.435808
C	 0.894911094	-1.9489163535	 1.2044891866	 0.263578
N	 0.9516866265	-3.1006503333	 1.1283165435	-0.334242
H	 0.7893490578	 2.0793294197	-0.142250596	 0.121814
H	-0.8240893709	 1.8222764319	-0.8037586694	 0.125288
H	-0.5994491341	 1.9251506215	 0.9497674479	 0.152587
H	-0.9571655278	-0.450376763	 0.1119511675	 0.131625
H	 0.5154959942	-0.3228958588	-0.8418989167	 0.119417
H	 2.2244668932	 1.1776102854	 1.4473695611	 0.149172
H	 2.8231297025	-0.3282685941	 2.166494677	 0.137215
H	 2.8023055952	-0.1462955445	 0.4047134843	 0.141399
H	 1.0593469504	-1.4622921124	 3.5953629077	 0.116282
H	 0.2484736611	-0.5581009491	 5.5100077708	 0.236177
78.3208	95.1683	129.2106	148.1091	151.1954	198.341	225.1523	272.9449	307.5372	339.4698	403.4555	470.3964	510.9005	570.5661	622.3605	745.7469	792.9133	826.8992	904.9651	927.7715	997.9051	1009.8913	1047.8887	1070.4316	1100.4208	1182.263	1194.5345	1201.0247	1280.3369	1322.063	1374.7566	1406.9629	1411.1824	1425.7722	1473.7504	1484.6652	1492.2616	1502.6515	1509.5615	1744.9337	2351.5883	3050.0738	3052.1759	3056.1399	3059.5954	3092.7473	3116.5554	3131.5004	3137.5215	3146.5212	3516.8574
CCC(C)(OC=N)C#N	CC[C@@](C)(O[CH][NH])C#N	
InChI=1S/C6H10N2O/c1-3-6(2,4-7)9-5-8/h5,8H,3H2,1-2H3	InChI=1S/C6H10N2O/c1-3-6(2,4-7)9-5-8/h5,8H,3H2,1-2H3/t6-/m1/s1
