23
gdb 114204	3.09066	1.03714	0.87467	1.8025	86.06	-0.2547	0.0732	0.3279	1431.8157	0.204434	-388.268765	-388.258986	-388.258042	-388.303443	36.882	
C	 0.024821881	 1.5536573145	-0.166248753	-0.380723
C	 0.04095643	 0.0305006501	 0.0049264856	-0.198074
C	-1.3599323781	-0.5643357567	 0.0896285443	 0.047645
C	-2.2640658507	-0.531853947	-1.1842849131	-0.342043
C	-2.7147634808	-1.9452436227	-0.822574131	 0.475918
C	-4.0699550928	-2.4922946961	-0.7570102827	-0.269834
O	-3.132534344	-2.9289688233	-1.7532742579	-0.275789
C	-1.55663502	-2.1231229367	 0.1711218045	-0.131227
C	-0.4245484467	-2.9950803061	-0.3699880378	-0.39061
H	 1.0400005347	 1.9583627069	-0.2232970823	 0.111906
H	-0.5008810207	 1.8441095284	-1.082292637	 0.119746
H	-0.4821267277	 2.0412282214	 0.6739973622	 0.112969
H	 0.5879888487	-0.4224761912	-0.8307334214	 0.096777
H	 0.6005179217	-0.2286327695	 0.913393532	 0.094954
H	-1.893628688	-0.0969017822	 0.9251667144	 0.069309
H	-3.0297977859	 0.2442805314	-1.2538513298	 0.102162
H	-1.6738059668	-0.5267843612	-2.1070753216	 0.110191
H	-4.3222637237	-3.2326402966	 0.0020815529	 0.111506
H	-4.9107285117	-1.9101316803	-1.1337287477	 0.111714
H	-1.8534240219	-2.485033755	 1.1610342851	 0.067628
H	-0.1087489357	-2.6831900517	-1.3704518245	 0.119288
H	 0.4502194063	-2.9644477683	 0.2870406343	 0.111911
H	-0.7576784473	-4.0342265783	-0.4472924756	 0.124674
63.5368	95.2778	153.6785	196.5286	215.2311	228.4234	266.439	319.1201	342.3372	394.8372	445.5302	515.9229	593.2726	723.8303	779.9997	795.0446	854.4433	878.8151	908.3193	921.5745	953.5681	966.1732	1021.871	1037.8288	1055.1966	1106.9964	1119.7842	1131.056	1146.2549	1169.7365	1190.7777	1206.9931	1234.7939	1256.1744	1275.924	1297.3642	1343.1078	1348.365	1394.2287	1408.8153	1411.8215	1436.6341	1480.8429	1487.5011	1496.6421	1497.924	1499.756	1507.397	1536.3888	3019.1125	3027.6254	3030.5292	3037.6874	3046.7671	3049.2784	3058.7517	3073.1727	3097.3136	3102.4881	3104.9726	3107.9024	3110.0521	3158.6045
CCC1CC2(CO2)C1C	CC[C@H]1C[C@]2(CO2)[C@H]1C	
InChI=1S/C8H14O/c1-3-7-4-8(5-9-8)6(7)2/h6-7H,3-5H2,1-2H3	InChI=1S/C8H14O/c1-3-7-4-8(5-9-8)6(7)2/h6-7H,3-5H2,1-2H3/t6-,7-,8-/m0/s1
