18
gdb 78102	2.83055	1.27136	1.05286	4.2288	74.18	-0.2315	0.0238	0.2553	1170.898	0.146298	-439.065155	-439.056248	-439.055304	-439.098792	32.969	
C	 0.2757258329	 1.5752523286	-0.0093082873	-0.43427
C	 0.195629458	 0.0668218811	 0.0527532522	-0.084873
C	 1.361720471	-0.8785063737	-0.1903432309	-0.11429
N	 2.5896731488	-0.3630618807	 0.3980288432	-0.032326
C	 2.0349687171	-0.3097904812	 1.76197239	-0.253361
C	 0.6968599419	-0.8098218464	 1.1778734294	 0.336945
O	-0.0642798558	-1.786965285	 1.7825182447	-0.452376
C	 3.575731158	 0.4031683193	-0.1341176417	 0.132517
O	 4.3588482231	 1.066511849	 0.5134895487	-0.331832
H	 1.230226132	 1.9510412995	 0.3681207618	 0.14615
H	 0.1673909404	 1.9258528932	-1.0410447413	 0.126482
H	-0.5212640338	 2.0365138498	 0.5837695067	 0.120861
H	-0.7168321111	-0.3600516186	-0.3625473093	 0.100399
H	 1.3716881942	-1.6648049613	-0.9350071778	 0.118878
H	 2.4948559713	-1.0492674915	 2.4238402828	 0.132743
H	 2.0675733808	 0.6796058429	 2.227499802	 0.125314
H	-0.799472328	-1.3645581437	 2.2397796634	 0.292715
H	 3.6075368594	 0.3203136288	-1.2402326267	 0.070325
62.9304	170.1557	174.9297	207.17	233.1601	254.0947	306.1562	336.6037	385.2747	470.0737	519.9841	589.5447	671.3467	752.2811	775.7354	863.2097	929.5059	955.2438	985.3366	1032.6894	1038.9864	1048.3824	1120.5842	1129.0434	1145.0956	1173.292	1221.3411	1239.6327	1278.1902	1313.1718	1349.7484	1396.001	1420.7106	1436.7576	1475.4563	1492.0812	1505.1382	1512.9671	1789.7068	2921.8917	3037.5045	3053.4467	3095.59	3107.2773	3115.5105	3131.2942	3192.9363	3800.1154
CC1C2N(CC12O)C=O	C[C@H]1[C@H]2N(C[C@@]12O)C=O	
InChI=1S/C6H9NO2/c1-4-5-6(4,9)2-7(5)3-8/h3-5,9H,2H2,1H3	InChI=1S/C6H9NO2/c1-4-5-6(4,9)2-7(5)3-8/h3-5,9H,2H2,1H3/t4-,5+,6+/m0/s1
