21
gdb 22560	2.12877	1.35671	0.95885	1.314	82.47	-0.2315	0.0114	0.2429	1306.1255	0.180604	-420.349436	-420.339245	-420.338301	-420.384486	37.81	
C	 0.517005283	 0.1206888876	 1.1996145652	-0.378633
C	 0.482895918	-0.9625350169	 0.1135220446	-0.264709
C	 0.4989058339	-0.4115147458	-1.3049645016	 0.252341
C	-0.3775068446	-1.0780587532	-2.3191856676	-0.280788
N	-0.7311187605	 0.2488873401	-1.8048188739	-0.346278
C	 1.777734038	 0.2078929107	-1.7882861006	 0.348404
C	 1.8024752212	 1.0006167173	-3.0662665745	-0.497112
N	 2.8123123961	-0.007454409	-1.0652787498	-0.196355
O	 3.9671479653	 0.5612476395	-1.6260509074	-0.398039
H	 1.4422037255	 0.6978249953	 1.1434296181	 0.136484
H	-0.3236049589	 0.8162711269	 1.0987142268	 0.108842
H	 0.4561179324	-0.331229321	 2.1943884068	 0.110279
H	 1.3361374763	-1.6348949004	 0.2415520933	 0.119699
H	-0.4230305316	-1.5703498275	 0.2312956642	 0.079573
H	-0.0882817817	-1.0984939813	-3.366297641	 0.119975
H	-0.946047039	-1.9442394381	-1.9907988042	 0.115841
H	-1.4605705743	 0.1712498809	-1.1000920697	 0.233184
H	 0.7908892565	 1.2520584313	-3.3833274125	 0.15106
H	 2.3795466287	 1.9170011857	-2.9185512737	 0.145721
H	 2.3097582711	 0.4375955172	-3.857830838	 0.136622
H	 4.6365779246	 0.3447363008	-0.9687820646	 0.303889
63.2146	108.3926	120.9059	169.7511	201.2671	244.0106	263.9488	319.9981	359.3699	368.4377	412.0905	452.1988	493.2392	540.6958	601.6701	731.0289	775.8131	841.4565	852.1158	927.6051	957.2595	980.7149	996.6442	1031.2711	1042.3544	1056.9686	1101.4951	1110.5751	1141.9161	1187.8707	1253.7983	1284.754	1322.5204	1367.8107	1379.6479	1396.965	1407.6275	1422.257	1473.4284	1480.7346	1491.879	1495.6955	1510.2277	1512.4903	1713.4156	3025.5526	3037.415	3044.3556	3083.9139	3102.3212	3105.3807	3106.7436	3132.9333	3159.6433	3191.5302	3497.7573	3821.133
CCC1(CN1)C(C)=NO	CC[C@]1(CN1)C(=NO)C	
InChI=1S/C6H12N2O/c1-3-6(4-7-6)5(2)8-9/h7,9H,3-4H2,1-2H3	InChI=1S/C6H12N2O/c1-3-6(4-7-6)5(2)8-9/h7,9H,3-4H2,1-2H3/t6-/m0/s1
