19
gdb 16895	3.98994	1.74141	1.34984	1.5531	76.68	-0.2328	0.0154	0.2482	956.3804	0.167827	-327.915826	-327.908577	-327.907633	-327.947101	28.792	
C	 0.1319124774	 1.5807778512	 0.0008135589	-0.39887
C	-0.0206893659	 0.0540419625	 0.0134776212	-0.02343
C	 0.5543814347	-0.5702317115	-1.27733654	-0.201097
C	 0.6835138183	-2.0876068364	-1.2034142456	-0.054214
N	 2.0409786606	-2.6074844535	-0.9235823231	-0.337669
C	 0.9794083481	-2.7033006395	 0.1131279016	-0.065915
C	 1.085487383	-1.8030549717	 1.2888692228	-0.067387
C	 0.6153208328	-0.5564114123	 1.2454592175	-0.037966
H	 1.1895980674	 1.8666929932	-0.015119332	 0.120478
H	-0.3466266476	 2.016188076	-0.8826235292	 0.110327
H	-0.3245255224	 2.033303921	 0.8875162449	 0.110401
H	-1.0989916288	-0.1685787181	 0.0512076698	 0.083057
H	-0.0688123365	-0.2830815756	-2.1317591092	 0.089725
H	 1.5524922067	-0.1538691565	-1.4515631273	 0.113772
H	 0.0689588961	-2.659610972	-1.8940952903	 0.080591
H	 2.153451384	-3.5178358918	-1.3658092484	 0.224413
H	 0.5842264967	-3.697600513	 0.3135188759	 0.084125
H	 1.5416580676	-2.1954257867	 2.1941071965	 0.086213
H	 0.6782307478	 0.0765365346	 2.1285162263	 0.083444
90.9773	203.9703	247.4832	296.8659	372.6397	410.7765	449.0598	524.0895	577.6559	726.1987	737.3846	815.2567	822.5116	873.166	914.5724	929.1025	936.0315	982.9325	995.1064	1007.788	1062.4086	1095.355	1126.1286	1145.7326	1167.8531	1193.2713	1221.2663	1261.0648	1271.524	1311.8825	1333.059	1354.4106	1392.529	1407.7965	1425.8106	1454.1589	1478.0187	1496.8744	1500.4681	1710.0558	2972.469	3026.8853	3034.4057	3078.9281	3097.116	3099.2899	3116.2526	3134.1676	3139.3197	3166.0747	3479.2441
CC1CC2NC2C=C1	C[C@H]1C[C@H]2N[C@H]2C=C1	
InChI=1S/C7H11N/c1-5-2-3-6-7(4-5)8-6/h2-3,5-8H,4H2,1H3	InChI=1S/C7H11N/c1-5-2-3-6-7(4-5)8-6/h2-3,5-8H,4H2,1H3/t5-,6+,7-/m1/s1
