19
gdb 46354	3.33088	1.12343	0.88445	0.9781	76.19	-0.2367	-0.024	0.2127	1310.1487	0.158591	-423.013467	-423.004776	-423.003832	-423.048472	31.198	
O	-0.0150850574	 0.0113550328	-0.0973441333	-0.296864
C	-0.0621189589	 1.2022102524	 0.0179218812	 0.385583
C	-1.1931471143	 2.2145513191	 0.2520470521	-0.338804
C	-0.0986839751	 3.2605461596	 0.6286372254	-0.255282
C	 1.0225208157	 2.2962707963	 0.1247977771	-0.111896
C	 2.2110023115	 1.9909330661	 1.0126498271	 0.153439
C	 3.2667057413	 0.9936162427	 0.4854291843	-0.286513
C	 4.2528245248	 2.1633053078	 0.6729791262	-0.069158
O	 3.1829060497	 3.0641284003	 1.0383806505	-0.29832
H	-1.7262354919	 2.4472705157	-0.6758237963	 0.134405
H	-1.9297402691	 1.9386397302	 1.0110543131	 0.131231
H	-0.1585271628	 4.2228616667	 0.120808437	 0.11554
H	-0.0375915972	 3.4347347395	 1.7054328898	 0.118412
H	 1.3801429074	 2.5745413714	-0.8742612798	 0.101716
H	 1.8633140175	 1.7642314062	 2.0314111288	 0.072596
H	 3.4358452942	 0.1075922493	 1.0973827028	 0.117262
H	 3.1084608366	 0.6868214462	-0.5495436009	 0.118644
H	 4.9738449643	 2.0374417759	 1.4906945681	 0.102533
H	 4.7882474936	 2.505589822	-0.2199980633	 0.105476
52.0353	60.928	72.5724	119.5623	240.7264	321.3292	365.573	454.0097	555.0985	677.5623	701.2348	760.7994	785.9327	843.3975	893.178	927.5229	944.1883	950.5085	997.406	1007.0315	1028.7331	1054.1287	1082.6156	1105.9357	1161.1351	1181.4112	1196.4605	1208.3045	1223.1123	1230.2496	1255.6055	1262.5752	1283.0781	1294.0053	1357.9037	1398.0746	1438.676	1490.6083	1492.2912	1531.9252	1881.8143	2988.9274	3016.1084	3041.2839	3056.503	3058.5471	3079.4423	3088.2605	3110.4224	3141.0705	3143.6791
O=C1CCC1C1CCO1	O=C1CC[C@H]1[C@H]1CCO1	
InChI=1S/C7H10O2/c8-6-2-1-5(6)7-3-4-9-7/h5,7H,1-4H2	InChI=1S/C7H10O2/c8-6-2-1-5(6)7-3-4-9-7/h5,7H,1-4H2/t5-,7-/m1/s1
