18
gdb 96878	4.31378	0.91041	0.83054	3.663	76.51	-0.2484	-0.028	0.2203	1434.0536	0.144756	-439.097267	-439.087452	-439.086508	-439.133518	33.564	
C	-0.1627030618	 1.4437127881	 0.3981779578	-0.340104
N	-0.268621871	-0.0091925653	 0.3969046614	-0.321297
C	 0.6406276954	-0.6906694107	 0.9091528956	 0.475551
C	 0.8860284159	-2.172594744	 1.096792308	-0.401305
C	 2.2004811985	-1.6838450225	 1.77132625	 0.021037
O	 1.8326495085	-0.3078901751	 1.5176283828	-0.250871
C	 2.3142320214	-2.0089248379	 3.2569399582	 0.365589
C	 3.0220756346	-3.3119044513	 3.5762875425	-0.49089
O	 1.8468822899	-1.2843470617	 4.0991179197	-0.279461
H	 0.7576819452	 1.8251132273	 0.8544562177	 0.130549
H	-0.2236099168	 1.8062974187	-0.6336147562	 0.127285
H	-1.020590637	 1.861688321	 0.9356684319	 0.132034
H	 0.1737276622	-2.6738940311	 1.7547892335	 0.14546
H	 1.0070482157	-2.7443016398	 0.1759208204	 0.141169
H	 3.1173368492	-1.9500009144	 1.2351242253	 0.102506
H	 4.0953805234	-3.2036068974	 3.379114981	 0.150566
H	 2.8738262917	-3.5659899845	 4.6261506207	 0.151987
H	 2.661818935	-4.1260578697	 2.9374251997	 0.140194
39.2781	58.9129	80.7781	118.7093	161.1185	212.0587	240.4204	282.7913	363.38	504.5399	556.0029	585.8709	595.7463	730.3016	763.4822	924.9859	933.8237	957.4126	980.6076	1022.6378	1048.7054	1073.7323	1112.1164	1125.2246	1137.1574	1179.6664	1191.4101	1235.8352	1273.8488	1367.6012	1383.8199	1440.555	1461.8785	1464.3143	1474.4224	1493.8749	1497.6074	1830.6947	1861.2377	3021.0512	3033.8938	3059.0654	3086.0225	3087.1393	3092.8131	3094.1238	3144.1135	3155.8735
CN=C1CC(O1)C(C)=O	CN=C1C[C@@H](O1)C(=O)C	
InChI=1S/C6H9NO2/c1-4(8)5-3-6(7-2)9-5/h5H,3H2,1-2H3	InChI=1S/C6H9NO2/c1-4(8)5-3-6(7-2)9-5/h5H,3H2,1-2H3/t5-/m1/s1
