14
gdb 45079	2.47103	1.7903	1.18662	5.6428	64.87	-0.2943	-0.0198	0.2745	990.3412	0.101897	-436.718765	-436.711597	-436.710652	-436.750843	26.794	
O	-0.036836532	 0.0378866794	-0.4013407537	-0.305744
C	-0.0165600763	 1.1693723131	-0.0354623841	 0.440121
O	-1.1194938553	 1.8485637471	 0.3751703441	-0.210028
C	-0.7950296064	 3.15367011	 0.8191660696	 0.090595
C	 0.0415792093	 3.2440268365	 2.0570761832	-0.318844
C	 0.6867133822	 3.378519903	 0.6911311078	-0.070606
C	 1.2247405885	 2.1117109177	 0.0494390359	-0.331425
C	 2.3328498253	 1.4752642481	 0.7553427255	 0.308012
N	 3.2127488497	 0.9970039018	 1.3306630954	-0.316996
H	-1.5547632864	 3.8773510082	 0.556782831	 0.131413
H	-0.0343649009	 4.1481362389	 2.6499418712	 0.139932
H	 0.2068539036	 2.3358391106	 2.627874795	 0.153032
H	 1.0961246357	 4.3307266683	 0.3817945914	 0.124834
H	 1.5406432029	 2.3045555172	-0.9827564623	 0.165704
79.9082	142.0161	171.9627	328.4283	416.7441	435.657	502.0735	535.3909	631.2252	690.456	707.2652	802.9556	819.8682	853.1167	958.5508	968.4915	1022.2281	1037.5103	1065.1239	1088.5349	1095.5827	1134.6292	1167.6811	1202.8746	1234.2291	1313.1904	1348.1174	1389.1118	1477.1031	1902.9772	2367.4587	3051.6578	3138.6621	3201.9539	3212.3161	3232.4016
O=C1OC2CC2C1C#N	O=C1O[C@H]2C[C@H]2[C@H]1C#N	
InChI=1S/C6H5NO2/c7-2-4-3-1-5(3)9-6(4)8/h3-5H,1H2	InChI=1S/C6H5NO2/c7-2-4-3-1-5(3)9-6(4)8/h3-5H,1H2/t3-,4+,5-/m0/s1
