15
gdb 125599	3.20516	1.43749	0.99847	0.6081	72.88	-0.2466	-0.0503	0.1963	1117.2789	0.114642	-450.180281	-450.172393	-450.171449	-450.212795	29.588	
C	-0.0317916159	 1.4808542598	 0.0028432674	-0.453335
C	-0.0081907934	-0.015422998	 0.0113982481	 0.325832
N	-0.035895548	-0.6450217614	-1.1127762666	-0.230291
N	-0.0139115736	-2.0030414187	-1.0936245033	-0.313115
C	 0.0362499342	-2.8231686926	 0.01474911	 0.495377
O	 0.0535800721	-4.0324507998	-0.0412315352	-0.385902
N	 0.0644349664	-2.1032888925	 1.1987629162	-0.43984
C	 0.0463394104	-0.7126716877	 1.3149044989	 0.328002
N	 0.0722637849	-0.0462200777	 2.4037677881	-0.519477
H	 0.8559020473	 1.8806309203	 0.5024645596	 0.14873
H	-0.0732837992	 1.8422022934	-1.0252996115	 0.134935
H	-0.8943511543	 1.8533365113	 0.563752388	 0.148789
H	-0.0368454218	-2.4520878787	-1.995131801	 0.28317
H	 0.1014169237	-2.6713159063	 2.0337111433	 0.264082
H	 0.1092939771	-0.6521653013	 3.225264598	 0.213044
94.7014	138.2576	161.425	303.6105	319.6972	378.4469	407.4279	484.5778	533.5473	560.3372	583.5428	623.7775	722.9101	751.1875	763.8746	796.3173	857.8177	972.8385	1023.2066	1061.3401	1114.6216	1190.9092	1242.5194	1318.2678	1399.4598	1411.49	1440.0062	1466.5821	1467.5996	1473.6731	1674.2697	1713.4266	1833.781	3050.3758	3106.7191	3153.1742	3460.5219	3611.09	3654.5443
CC1=NNC(=O)NC1=N	Cc1n[nH]c(=O)[nH]c1[NH]	
InChI=1S/C4H6N4O/c1-2-3(5)6-4(9)8-7-2/h1H3,(H3,5,6,8,9)	InChI=1S/C4H9N4O/c1-2-3(5)6-4(9)8-7-2/h2-3,5,7H,1H3,(H2,6,8,9)
