16
gdb 66630	2.74681	1.9719	1.5015	1.5002	67.1	-0.2226	0.064	0.2866	887.4345	0.12475	-437.784539	-437.777537	-437.776593	-437.815421	28.885	
O	-0.1842831466	 1.4325807526	-0.0009621724	-0.450404
C	 0.0107492284	 0.0782690164	-0.0221897136	 0.327107
C	 0.0428325646	-0.9880848842	 1.0526340275	-0.179807
C	-1.0180260892	-1.0068773375	-0.0745998917	-0.133371
C	-0.2486541326	-1.8697560215	-1.1248426543	-0.124667
N	 0.5315338515	-2.9251740766	-0.4405896199	-0.315257
C	 1.1474601706	-1.8342804385	 0.3516963889	-0.125894
C	 0.9375171952	-0.8543057366	-0.8742198877	 0.356875
O	 1.8778209651	-0.4123099401	-1.7656613471	-0.481818
H	 0.606248946	 1.8486962429	 0.3616726048	 0.292632
H	-0.2234906236	-0.927371223	 2.0996685385	 0.091547
H	-2.0795019838	-0.9431162817	 0.1232394213	 0.095053
H	-0.713622025	-2.1012861379	-2.0828405018	 0.073431
H	-0.028665776	-3.5795500888	 0.1054452002	 0.21115
H	 2.0882819747	-2.0327271035	 0.8652845103	 0.070037
H	 2.2954860007	-1.1831758319	-2.1693068831	 0.293386
194.2253	235.1084	280.7591	313.1877	349.0574	387.8053	552.2618	577.7695	592.9692	635.3393	737.3124	776.7706	836.7894	839.9917	857.817	898.4504	911.5666	928.8455	947.8054	984.318	993.7122	1032.4801	1051.1465	1098.6661	1117.193	1160.0033	1198.2204	1227.4642	1229.7734	1269.0518	1301.9616	1322.1397	1331.2638	1415.1593	1497.3369	3117.1506	3122.5921	3198.6496	3209.6322	3453.3883	3784.4035	3789.178
OC12C3C1C1NC3C21O	O[C@@]12[C@H]3[C@@H]1[C@@H]1N[C@H]3[C@]21O	
InChI=1S/C6H7NO2/c8-5-1-2(5)4-6(5,9)3(1)7-4/h1-4,7-9H	InChI=1S/C6H7NO2/c8-5-1-2(5)4-6(5,9)3(1)7-4/h1-4,7-9H/t1-,2+,3+,4-,5-,6+
