19
gdb 38262	3.1729	1.72656	1.41577	1.7212	74.98	-0.2546	0.0984	0.3529	958.9934	0.162603	-422.966344	-422.959796	-422.958852	-422.99691	27.755	
C	-0.0574263165	 1.5917534154	 0.0999112333	-0.250615
C	 1.4464072292	 1.2291703057	-0.0198932326	-0.106796
C	 1.171593588	 0.074538477	 1.0143397931	-0.312014
C	-0.0114974586	 0.029830306	 0.0103420849	 0.318966
C	-1.1727422364	-0.8481920469	-0.3639429506	-0.237133
O	-1.585480665	-0.4107344424	-1.6700106177	-0.245051
C	-0.5458435524	-0.3800160447	-2.6173198065	 0.019023
O	 0.4776476023	 0.5614948872	-2.333606642	-0.268748
C	 1.0511347382	 0.191415728	-1.0986829442	 0.137114
H	-0.3816656758	 2.0045115424	 1.0587580179	 0.08555
H	-0.5041733108	 2.1112700519	-0.7453063812	 0.119158
H	 2.2994938561	 1.9079480984	-0.0244368796	 0.077881
H	 1.8621926414	-0.7740427483	 1.0078045681	 0.095288
H	 0.9444229066	 0.3987914067	 2.0320066925	 0.100921
H	-0.8788821701	-1.9101266923	-0.3922524058	 0.093729
H	-2.0498921029	-0.7445780482	 0.2805597185	 0.114539
H	-0.0965023947	-1.38676496	-2.7117406166	 0.076768
H	-0.9978831531	-0.0764368276	-3.5626684328	 0.120042
H	 1.7480609545	-0.6481494683	-1.2367742787	 0.06138
191.3175	260.0058	349.4988	374.1325	414.3989	449.1565	522.0105	585.8387	643.8724	722.3423	790.9611	847.5161	887.0416	913.754	919.1881	950.9493	975.3826	995.4887	1020.6328	1025.4178	1062.2009	1067.8684	1094.4809	1120.2367	1144.8054	1160.4266	1179.1148	1204.9556	1215.0264	1235.8693	1245.6808	1277.2658	1319.0692	1329.6257	1386.7845	1396.5185	1441.0581	1491.3664	1493.008	1504.451	1534.6623	2924.7324	2976.8241	2998.2997	3052.6522	3068.4632	3088.9828	3112.1847	3122.6233	3123.1965	3162.9212
C1C2CC11COCOC21	C1[C@H]2C[C@]31COCO[C@@H]23	
InChI=1S/C7H10O2/c1-5-2-7(1)3-8-4-9-6(5)7/h5-6H,1-4H2	InChI=1S/C7H10O2/c1-5-2-7(1)3-8-4-9-6(5)7/h5-6H,1-4H2/t5-,6-,7+/m0/s1
