16
gdb 38825	3.11464	1.83779	1.31263	1.3983	68.54	-0.2499	0.0208	0.2707	933.4537	0.126043	-437.852223	-437.845497	-437.844552	-437.883386	26.564	
C	 0.0038694666	 1.5685046633	 0.0228792473	-0.269152
C	 1.5397151093	 1.5327229259	 0.0498463875	-0.063667
O	 1.9707042979	 0.8219571714	-1.1320704887	-0.301793
C	 1.5627455026	 0.0610505142	-0.0048990101	 0.408467
C	 2.348265187	-1.0311870848	 0.6341216114	-0.29015
N	 1.6059886178	-1.6226581034	 1.7478793381	-0.270445
C	 0.3811532752	-1.3544027635	 1.9076684616	 0.13705
O	-0.4713464617	-0.5704567186	 1.1911058584	-0.239417
C	 0.030330952	 0.006716372	-0.0176998971	 0.045314
H	-0.4452415817	 1.9205455231	 0.9535647587	 0.125736
H	-0.4424234299	 2.0789993108	-0.8328179336	 0.118435
H	 2.2434830261	 2.2358936085	 0.4791980441	 0.113662
H	 2.5650303279	-1.8216707949	-0.097491829	 0.130554
H	 3.317215126	-0.6764479788	 1.0016017728	 0.128038
H	-0.1635208972	-1.7840637145	 2.7463930808	 0.128741
H	-0.4464740078	-0.4885868208	-0.8676097822	 0.098626
116.5407	156.7579	319.0394	391.3396	445.7641	465.184	495.383	512.1075	659.3081	747.0585	830.5268	846.6263	882.4667	916.9997	945.5881	961.2047	981.8262	1000.0147	1025.9032	1048.7921	1068.4906	1145.0685	1162.6502	1179.5948	1218.2871	1253.1968	1269.6374	1290.7204	1329.4083	1354.4534	1414.1742	1455.2139	1478.0575	1493.7609	1732.4568	3018.8287	3064.4881	3073.9587	3080.6467	3141.1091	3161.1248	3192.6592
C1C2OC22CN=COC12	C1[C@@H]2O[C@]32CN=CO[C@@H]13	
InChI=1S/C6H7NO2/c1-4-6(5(1)9-6)2-7-3-8-4/h3-5H,1-2H2	InChI=1S/C6H7NO2/c1-4-6(5(1)9-6)2-7-3-8-4/h3-5H,1-2H2/t4-,5-,6+/m0/s1
