17
gdb 85157	2.09512	1.84278	1.08464	8.694	73.08	-0.2084	-0.0282	0.1802	1092.1997	0.134531	-455.165409	-455.15665	-455.155705	-455.198947	32.528	
C	-0.4675274995	 1.4064574754	-0.08000955	-0.383843
C	-0.0357997977	-0.0456757785	-0.064687056	 0.035797
N	 1.2438198075	-0.3299744482	-0.8188897944	-0.337851
C	 1.8979881636	-0.6637505836	 0.2959753142	 0.509907
N	 3.1456784228	-0.8673899661	 0.6412002956	-0.542654
H	 3.9152124866	-0.6581731753	 0.0227310669	 0.267668
H	 3.1945022073	-0.6939065935	 1.6820372492	 0.317354
C	 0.7360383847	-0.5692841565	 1.1958674297	-0.269309
C	 1.0983927899	 0.3282085334	 2.49289466	 0.376234
O	 2.233525805	 0.0235933872	 2.9351447785	-0.471214
O	 0.2353165181	 1.110894401	 2.8606073946	-0.413214
H	 0.3497432568	 2.0667465419	 0.2183513847	 0.138492
H	-0.8293932666	 1.696097721	-1.0726521731	 0.104877
H	-1.2672118538	 1.544769489	 0.6500980334	 0.16905
H	-0.8365040957	-0.7062136364	-0.4082864732	 0.101979
H	 1.5977126228	 0.0627431912	-1.6812449527	 0.261026
H	 0.3779711181	-1.5193001021	 1.5950703726	 0.135702
69.5972	127.1734	174.2043	194.843	207.6188	322.8366	349.491	398.6705	440.3563	506.9733	568.7251	588.834	660.3433	721.1733	784.491	815.7377	837.0327	856.4568	905.2922	1029.006	1050.9725	1059.2154	1075.0048	1132.1548	1163.4342	1214.4339	1249.5187	1275.1835	1324.3757	1381.7801	1416.6023	1450.6003	1472.1004	1485.2683	1530.8292	1745.6	1825.7938	2932.2207	3042.2856	3072.9538	3114.536	3124.7758	3147.0885	3579.0639	3627.7653
CC1NC(=[NH2+])C1C([O-])=O	C[C@H]1N[C](N)[C@H]1C(=O)[O]	
InChI=1S/C5H8N2O2/c1-2-3(5(8)9)4(6)7-2/h2-3H,1H3,(H2,6,7)(H,8,9)	InChI=1S/C5H8N2O2/c1-2-3(5(8)9)4(6)7-2/h2-3,7H,6H2,1H3/t2-,3+/m1/s1
