20
gdb 95223	2.61616	1.60283	1.18946	2.4151	74.02	-0.2235	0.0601	0.2836	1076.2563	0.172781	-440.258046	-440.249876	-440.248931	-440.29031	32.788	
O	-0.1125034858	 1.4309587463	-0.0724115556	-0.462404
C	 0.0039655803	 0.0105499225	 0.0021439757	 0.122384
C	 0.7827989985	-0.4644090463	 1.2252791157	-0.262616
C	 0.9099062603	-1.9968437733	 1.1835174014	-0.152677
N	-0.3214285085	-2.7376052646	 0.9072296351	-0.090316
C	-1.4979315706	-2.5132360374	 1.7324097341	-0.232614
C	-1.4700110365	-2.0261085306	 0.3231726797	-0.039964
C	-1.4385694352	-0.5188376476	 0.0610048968	 0.102739
O	-2.1543618534	 0.1656067787	 1.0791304719	-0.441475
H	 0.736415527	 1.8192893733	 0.1595690222	 0.28707
H	 0.4838732748	-0.3765441087	-0.9109837114	 0.071272
H	 1.7885698531	-0.0246482776	 1.2373871636	 0.085182
H	 0.2650168579	-0.1224428336	 2.1273259386	 0.116656
H	 1.6200590515	-2.2649870195	 0.3902293347	 0.10476
H	 1.3294787745	-2.3745601351	 2.1220478476	 0.107318
H	-2.0600452768	-3.4071171218	 1.9910213753	 0.109374
H	-1.47862206	-1.7470944124	 2.502463851	 0.126354
H	-1.9874419948	-2.6048019242	-0.4376150408	 0.090863
H	-1.9123001292	-0.330351431	-0.9137231975	 0.06994
H	-1.9020223672	 1.093939863	 0.982241102	 0.288155
102.6864	197.4256	252.6601	281.0359	296.1206	347.0075	368.0027	394.1799	464.07	498.8457	572.926	636.9171	689.3601	734.1238	789.3369	860.6565	914.5663	928.1964	945.5172	1000.7727	1036.8357	1044.9676	1096.3597	1101.724	1114.4998	1125.5551	1146.4641	1164.2644	1204.1305	1240.2712	1272.5727	1276.1707	1329.1182	1345.64	1361.4385	1375.6197	1395.6864	1408.8849	1424.0744	1437.361	1485.7827	1491.7462	1518.4571	2972.4028	2990.5498	3015.6517	3025.0271	3066.1415	3082.8166	3105.9136	3133.3949	3193.3365	3757.1956	3827.505
OC1CCN2CC2C1O	O[C@H]1CCN2C[C@H]2[C@H]1O	
InChI=1S/C6H11NO2/c8-5-1-2-7-3-4(7)6(5)9/h4-6,8-9H,1-3H2	InChI=1S/C6H11NO2/c8-5-1-2-7-3-4(7)6(5)9/h4-6,8-9H,1-3H2/t4-,5-,6+,7?/m0/s1
