22
gdb 5815	3.26231	1.66044	1.36767	1.4541	78.12	-0.2372	0.0763	0.3135	1038.8885	0.197218	-350.218079	-350.208585	-350.207641	-350.251252	36.458	
C	-0.3106990929	 1.493837345	 0.8464627755	-0.429205
C	 0.1194166047	 0.0872566377	 0.4446889146	 0.441561
C	-0.8179147715	-0.9695682423	 1.0186426934	-0.429202
C	 0.5059369648	-0.0963925758	-1.0445459646	-0.385987
C	 1.9403749197	-0.3550647589	-0.518788847	 0.441561
C	 2.4732973387	-1.7690240831	-0.7227619721	-0.429202
C	 2.9806063673	 0.6943595622	-0.8949778193	-0.429205
O	 1.4945952219	-0.1671355023	 0.8564812209	-0.366263
H	 0.373572231	 2.2439934725	 0.4409686451	 0.115365
H	-1.3196655468	 1.7119787206	 0.4789059993	 0.110903
H	-0.3148860258	 1.5921279824	 1.9370148895	 0.121118
H	-1.8411415877	-0.8201659261	 0.6561761906	 0.1109
H	-0.4953441735	-1.9751718552	 0.7356281204	 0.115361
H	-0.8301604251	-0.9119483016	 2.1120376269	 0.121125
H	 0.0348087723	-0.9449597546	-1.5454037879	 0.098199
H	 0.392958498	 0.7940304299	-1.6668569468	 0.098198
H	 2.7461586874	-1.9344681089	-1.7710326709	 0.110901
H	 3.3644155936	-1.9308252616	-0.10736709	 0.121124
H	 1.7255204568	-2.5146278494	-0.4394030224	 0.115362
H	 2.5944804397	 1.7045216808	-0.7341458996	 0.115365
H	 3.8802144779	 0.5731218052	-0.2826143929	 0.121119
H	 3.2674155895	 0.5977402636	-1.9481170726	 0.110903
79.1601	188.5964	206.4452	213.2655	231.442	248.7003	310.6057	345.0841	354.0854	375.9743	384.707	453.7104	502.2299	594.6013	736.0034	855.0729	883.4874	894.7658	910.2311	918.8667	944.5488	978.4134	982.9796	1007.1075	1018.7578	1043.4676	1136.5238	1205.0717	1224.6021	1273.5981	1279.444	1284.1468	1307.9141	1395.6998	1400.3796	1409.8869	1412.7644	1470.9879	1477.8735	1478.001	1484.0748	1489.244	1489.8448	1499.33	1500.5104	1510.0504	3028.6504	3029.4539	3034.3127	3035.4196	3065.6084	3097.4904	3097.8054	3104.7338	3105.6183	3110.7965	3113.0335	3113.8672	3118.121	3121.3222
CC1(C)CC(C)(C)O1	CC1(C)CC(C)(C)O1	
InChI=1S/C7H14O/c1-6(2)5-7(3,4)8-6/h5H2,1-4H3	InChI=1S/C7H14O/c1-6(2)5-7(3,4)8-6/h5H2,1-4H3
