20
gdb 117275	7.07213	0.56255	0.52791	1.2536	86.22	-0.2543	0.037	0.2913	2125.4463	0.168072	-403.143192	-403.132089	-403.131145	-403.181957	37.421	
C	 0.1056403067	 1.5964731792	-0.2387116079	-0.389843
C	-0.0000889582	 0.1003906739	-0.0097098512	-0.027975
O	 0.6263858078	-0.5530172002	-1.1251535721	-0.246696
C	 0.6365423813	-1.8994729888	-1.1066560219	 0.4143
N	 0.1250535535	-2.5702499133	-0.1635067465	-0.528907
C	 1.3401639131	-2.4014828037	-2.365024189	-0.462992
C	 1.4159540151	-3.8510433748	-2.4630785575	 0.038769
C	 1.4714169842	-5.0518278909	-2.5310354914	 0.104608
C	 1.5471632541	-6.5027387099	-2.6287653397	-0.498941
H	 1.1517221397	 1.908983091	-0.3060180414	 0.12588
H	-0.399504675	 1.8872853818	-1.1643108157	 0.125881
H	-0.361607748	 2.1334529893	 0.5921787729	 0.120176
H	 0.5000337872	-0.2116492411	 0.913068138	 0.119514
H	-1.0406919421	-0.2332203581	 0.0603387048	 0.119442
H	 0.2420723778	-3.5659000108	-0.3475873441	 0.228326
H	 0.8158303962	-1.9784098699	-3.2314273191	 0.152369
H	 2.342843728	-1.9556949376	-2.3866841912	 0.152368
H	 2.0421752952	-6.8093573917	-3.5566814894	 0.151522
H	 2.1138933728	-6.9296442181	-1.7942352594	 0.151074
H	 0.5497788106	-6.9555384662	-2.6202400483	 0.151125
19.5276	32.8643	75.0821	84.3944	132.2831	175.9022	206.7065	253.7809	282.5425	348.2646	382.6371	405.0368	449.2225	554.6136	681.5624	786.5653	806.8985	878.3966	891.4888	928.1347	967.698	1045.5593	1053.1551	1054.5872	1124.9326	1137.3177	1171.0668	1184.1784	1215.3118	1288.1824	1298.7873	1370.4902	1406.3729	1415.539	1433.2861	1453.511	1477.5632	1479.1101	1485.498	1496.75	1521.4119	1736.4474	2377.1256	3026.7696	3029.3469	3044.5018	3047.5772	3054.3241	3083.4596	3091.1083	3091.1987	3119.0193	3122.6922	3495.1738
CCOC(=N)CC#CC	CCO[C]([NH])CC#CC	
InChI=1S/C7H11NO/c1-3-5-6-7(8)9-4-2/h8H,4,6H2,1-2H3	InChI=1S/C7H11NO/c1-3-5-6-7(8)9-4-2/h8H,4,6H2,1-2H3
