20
gdb 13388	4.749	1.15239	1.05165	0.8889	76.62	-0.2331	0.0317	0.2648	1193.6255	0.177553	-349.006924	-348.998554	-348.997609	-349.040337	30.522	
C	-0.184989044	 1.3447675443	-0.3036837019	-0.227699
O	-0.050921233	-0.040960669	-0.106717081	-0.230697
C	 0.6937070973	-0.6739205747	-1.1254746469	-0.056954
C	 0.7447883701	-2.1750913527	-0.8518527288	-0.004581
C	-0.6766573266	-2.8058344707	-0.8947086197	-0.255994
C	-0.7219340201	-3.4913674696	-2.2384241882	-0.055701
C	 0.4752402003	-3.5439070929	-2.8185495908	-0.05496
C	 1.5470841445	-2.899953461	-1.9712723204	-0.276392
H	 0.7924097491	 1.8536094207	-0.3177635093	 0.101486
H	-0.702282423	 1.5765607949	-1.2486546105	 0.102257
H	-0.7748338838	 1.7398850607	 0.5272930545	 0.125001
H	 0.2322020144	-0.4869068374	-2.1116612219	 0.086678
H	 1.7166424383	-0.260899131	-1.1612258036	 0.08189
H	 1.2081033216	-2.3154078578	 0.1284907343	 0.076876
H	-0.8232375067	-3.5303648185	-0.0821152202	 0.10077
H	-1.4536856789	-2.0451739084	-0.7649274588	 0.113475
H	-1.634668764	-3.908873397	-2.6500281982	 0.087063
H	 0.6914020995	-4.011952494	-3.7728173776	 0.087265
H	 2.1778404687	-2.2057840824	-2.542464455	 0.096314
H	 2.2293220162	-3.6554282236	-1.5586512059	 0.103903
62.7116	98.6536	125.8616	178.5134	237.7891	327.2266	366.2617	407.2804	470.6505	695.0746	725.754	784.1169	851.7591	903.1751	918.0198	945.5496	975.031	979.089	999.1074	1025.7442	1092.6082	1097.1158	1131.8206	1158.6422	1175.7107	1185.0696	1216.1264	1235.2145	1245.8009	1281.269	1307.9263	1328.2107	1354.8599	1382.1765	1417.8056	1479.9957	1485.4066	1487.7941	1494.9915	1502.7556	1526.8903	1690.0555	2940.5922	2967.4671	2971.59	3008.4963	3010.0548	3014.2409	3033.9837	3067.8532	3074.3368	3110.3911	3178.0094	3204.0212
COCC1CC=CC1	COC[C@H]1CC=CC1	
InChI=1S/C7H12O/c1-8-6-7-4-2-3-5-7/h2-3,7H,4-6H2,1H3	InChI=1S/C7H12O/c1-8-6-7-4-2-3-5-7/h2-3,7H,4-6H2,1H3
