22
gdb 93508	2.70602	1.3187	1.05352	3.3301	83.34	-0.2518	0.0246	0.2764	1234.0212	0.19558	-404.379079	-404.369953	-404.369008	-404.412679	35.125	
C	-0.1320713348	 1.5384057873	-0.0543565954	-0.419028
C	 0.039601469	 0.0176990328	 0.0151272276	 0.00714
C	 0.6985019753	-0.5042084047	-1.2605723817	-0.076193
O	 0.9230952611	-1.9216854056	-1.2735129299	-0.259008
C	 1.3631364611	-2.548909	-0.1398657116	 0.381223
N	 2.0779073512	-3.5928007007	-0.201026364	-0.504059
C	 0.8519159238	-2.0184578837	 1.1793532011	-0.28313
C	 0.8203216619	-0.4813464895	 1.2513574771	-0.003067
C	 2.2337278863	 0.1021088327	 1.3982684323	-0.403343
H	 0.8247459667	 2.0515964319	-0.1934199243	 0.123073
H	-0.7827541392	 1.8227359998	-0.8879213287	 0.117691
H	-0.5849295111	 1.9201386749	 0.866243025	 0.119656
H	-0.9606792111	-0.4335325722	 0.0726189006	 0.0803
H	 0.0694953176	-0.3064168659	-2.1330194082	 0.115018
H	 1.6603021944	 0.0011570183	-1.4264099825	 0.106629
H	 2.282222439	-3.8120890082	-1.1791000547	 0.214685
H	-0.1703250791	-2.4007839544	 1.3029994587	 0.119138
H	 1.458975749	-2.4579191165	 1.9729920654	 0.125262
H	 0.2491984398	-0.1972665634	 2.1441763471	 0.07233
H	 2.8838011258	-0.1697546685	 0.5599136846	 0.12604
H	 2.2197854688	 1.1929447868	 1.4740454109	 0.116723
H	 2.7053947844	-0.2855099212	 2.3066596106	 0.122919
84.69	111.772	186.169	216.8637	249.677	284.548	302.6713	366.9187	405.6855	439.6645	510.7434	551.5637	568.381	718.1624	748.0804	830.8138	883.3346	916.9724	928.9629	956.1285	966.1406	1003.3365	1033.2227	1050.0909	1097.7615	1116.7576	1129.9227	1160.7716	1181.4228	1248.5872	1269.9573	1296.5658	1312.6833	1342.988	1355.6833	1384.3561	1391.8328	1413.8395	1422.4813	1439.8781	1472.5999	1494.7634	1497.6693	1500.2779	1515.7935	1519.4224	1745.2544	3002.0449	3015.9859	3016.2759	3029.3848	3035.6912	3040.8593	3086.8519	3101.3687	3102.2351	3107.7281	3115.405	3117.1993	3452.9238
CC1COC(=N)CC1C	C[C@H]1CO[C]([NH])C[C@H]1C	
InChI=1S/C7H13NO/c1-5-3-7(8)9-4-6(5)2/h5-6,8H,3-4H2,1-2H3	InChI=1S/C7H13NO/c1-5-3-7(8)9-4-6(5)2/h5-6,8H,3-4H2,1-2H3/t5-,6+/m1/s1
