19
gdb 73763	2.10507	1.89617	1.09341	3.755	83.78	-0.2305	-0.0384	0.192	1134.3671	0.158658	-385.930135	-385.92125	-385.920306	-385.964015	32.962	
C	-0.1133106267	 1.4884796244	 0.1562868078	-0.499135
C	-0.0582520909	 0.0030210515	 0.0056158528	 0.217902
C	 0.0043447343	-0.7261177888	-1.1284744304	 0.078176
C	 0.0525457495	-0.2904846997	-2.5575873065	-0.496973
C	 0.045631505	-2.179258951	-0.7891150665	 0.3574
O	 0.0288941768	-3.0970592035	-1.5798350843	-0.341393
C	 0.087884389	-2.2868207345	 0.7180793097	-0.160252
C	 1.2855617561	-1.64010013	 1.3977056499	-0.281373
C	-0.0087193268	-0.8760336098	 1.2238853361	-0.12989
H	 0.737596259	 1.8473687838	 0.7489033411	 0.138486
H	-0.1072212523	 2.0080422344	-0.8039026437	 0.132263
H	-1.0174427027	 1.7885781438	 0.7009320297	 0.136037
H	 0.9757725215	-0.6352921039	-3.0372697421	 0.138484
H	-0.7704625884	-0.7424111717	-3.1215972204	 0.143232
H	-0.0073137768	 0.7947116631	-2.6675877232	 0.117017
H	-0.3909013542	-3.1303922733	 1.1976041416	 0.108579
H	 1.5338080775	-2.0092589408	 2.3878834025	 0.121438
H	 2.1364708628	-1.3497273816	 0.7903471826	 0.124346
H	-0.5901443927	-0.6123244724	 2.1002669134	 0.095654
52.0875	118.1734	148.5246	198.1099	220.4617	267.2922	297.3723	398.5486	477.9961	541.6252	570.9826	653.7971	674.2395	781.5572	797.9026	832.714	910.1408	944.7472	953.3354	960.1535	1020.5621	1053.5761	1069.1265	1072.6218	1094.8425	1120.1107	1135.9953	1182.1293	1193.799	1307.4592	1320.6995	1367.5192	1412.0379	1417.3976	1472.7288	1477.597	1479.1819	1481.5677	1487.1911	1699.0087	1801.8131	3021.8963	3035.2367	3067.5263	3085.6979	3120.6092	3124.2593	3127.6801	3172.7411	3203.4848	3217.0452
CC1=C(C)C(=O)C2CC12	CC1=C(C)C(=O)[C@H]2C[C@@H]12	
InChI=1S/C8H10O/c1-4-5(2)8(9)7-3-6(4)7/h6-7H,3H2,1-2H3	InChI=1S/C8H10O/c1-4-5(2)8(9)7-3-6(4)7/h6-7H,3H2,1-2H3/t6-,7-/m0/s1
