16
gdb 63721	3.75486	1.1428	1.03659	4.991	70.87	-0.2804	-0.0039	0.2764	1160.2446	0.121891	-437.856455	-437.847928	-437.846984	-437.889306	32.211	
C	-0.0274673458	 1.5740568003	 0.0823959438	-0.461381
C	 0.0067551321	 0.0585304166	-0.0063659051	 0.38272
O	-1.2753081714	-0.5128312748	-0.1559261274	-0.474462
C	 1.0723500501	-0.5900727229	-0.9839281168	-0.361815
C	 1.6783852565	-1.3020910533	 0.2334978165	 0.31818
O	 2.0605315229	-0.2847576145	 1.1750843095	-0.268001
C	 0.6971334006	-0.6897650499	 1.1551854473	-0.065249
C	 2.3488730157	-2.5636349629	 0.2864091955	 0.201941
N	 2.880610231	-3.5904483931	 0.2849704086	-0.336056
H	 0.9647482813	 1.9662309932	 0.3177167165	 0.144836
H	-0.345780455	 2.0086652399	-0.8729207098	 0.115932
H	-0.7316404474	 1.8931360256	 0.8565545276	 0.131955
H	-1.7075074524	-0.0957699109	-0.9091227213	 0.286209
H	 0.5823096149	-1.2764359934	-1.6759627289	 0.133042
H	 1.7604261682	 0.0735773128	-1.5113256719	 0.119481
H	 0.2532331387	-1.0715761824	 2.0672886658	 0.132668
94.9991	144.2201	228.225	240.2864	269.702	274.7302	350.2814	406.3833	424.9581	505.943	550.2178	558.034	584.5851	680.1909	798.7241	851.1615	909.8337	936.8431	944.318	964.6099	1026.5376	1097.3003	1109.425	1141.0649	1184.0456	1223.9451	1251.551	1254.0781	1387.4833	1393.8704	1415.6996	1460.7198	1488.7461	1495.5984	2359.1353	3030.9174	3077.8837	3099.9803	3131.7517	3148.3901	3199.0473	3808.3834
CC1(O)CC2(OC12)C#N	C[C@@]1(O)C[C@]2(O[C@@H]12)C#N	
InChI=1S/C6H7NO2/c1-5(8)2-6(3-7)4(5)9-6/h4,8H,2H2,1H3	InChI=1S/C6H7NO2/c1-5(8)2-6(3-7)4(5)9-6/h4,8H,2H2,1H3/t4-,5+,6-/m0/s1
