17
gdb 109661	2.17072	1.36514	1.15859	2.6202	67.05	-0.2404	-0.0261	0.2143	1142.6483	0.132455	-496.069615	-496.0601	-496.059155	-496.103819	34.291	
C	-0.1065187332	 0.9774830878	 0.3818046574	-0.245723
O	-0.4009626025	 0.0089283819	-0.622462617	-0.258129
C	-1.5158065867	-0.7617284772	-0.3539975513	-0.002865
C	-1.4068634609	-2.1570751883	-0.8557086406	 0.012681
O	-0.1901910278	-2.5502651218	-1.3984827771	-0.42945
C	-1.3683739513	-1.9155507434	 0.6715297661	 0.229174
O	-0.1414391192	-2.1023022667	 1.2884777335	-0.472231
C	-2.5645016467	-2.2732989123	 1.4541390215	 0.101847
O	-3.6965653985	-2.0841343588	 1.0640606535	-0.286639
H	 0.7714411225	 1.5273732824	 0.0374750027	 0.134269
H	-0.943784385	 1.6768007044	 0.5039601475	 0.121345
H	 0.1105841102	 0.4910695015	 1.337810915	 0.145101
H	-2.4847659112	-0.2638126543	-0.3686771463	 0.123908
H	-2.2749919839	-2.6635537087	-1.2641679864	 0.134776
H	 0.311301976	-1.7363830774	-1.5578257767	 0.309112
H	 0.399414873	-2.6164366873	 0.6693961759	 0.293519
H	-2.3411142449	-2.7351808418	 2.4394846723	 0.089303
105.0666	121.4548	157.4475	168.9593	200.8872	222.8965	247.9651	310.8642	353.0619	364.7135	497.707	578.2796	610.1873	639.8368	674.9974	738.4663	757.8412	901.2765	1015.5365	1044.346	1054.2045	1091.222	1148.6733	1166.4761	1177.0175	1205.4754	1241.2039	1275.2735	1324.8056	1363.0752	1370.4064	1427.3597	1441.6597	1482.4112	1487.7497	1506.3344	1787.8919	2910.9838	3016.5938	3093.992	3119.4462	3137.0257	3174.1777	3701.9998	3723.7318
COC1C(O)C1(O)C=O	CO[C@H]1[C@@H](O)[C@]1(O)C=O	
InChI=1S/C5H8O4/c1-9-4-3(7)5(4,8)2-6/h2-4,7-8H,1H3	InChI=1S/C5H8O4/c1-9-4-3(7)5(4,8)2-6/h2-4,7-8H,1H3/t3-,4+,5-/m1/s1
