15
gdb 132748	2.35257	1.82484	1.03425	1.4442	71.4	-0.2474	-0.011	0.2364	1077.5671	0.11254	-461.979182	-461.971266	-461.970321	-462.01209	29.435	
C	-0.0305312403	 1.4977044494	-0.0109410498	-0.485343
C	-0.0066457083	-0.006616288	 0.0095794004	 0.222871
C	 0.0659612179	-0.7310824941	-1.1717944979	 0.084352
F	 0.1169021502	-0.1028057402	-2.3680087405	-0.098686
C	 0.089450277	-2.1228733576	-1.1799453414	 0.313153
O	 0.1601645673	-2.8239129776	-2.3319222426	-0.427618
C	 0.0367615124	-2.7648711331	 0.0546265466	-0.227795
C	-0.0347952765	-1.9733908175	 1.1938034571	 0.000868
N	-0.0568002842	-0.6367318399	 1.19092086	-0.334922
H	 0.8685084128	 1.9030078794	-0.4875078815	 0.136319
H	-0.8890391672	 1.8738725599	-0.5776170711	 0.136319
H	-0.0891663002	 1.8654841948	 1.0137675702	 0.144931
H	 0.1872918106	-2.1947101706	-3.0643651862	 0.308586
H	 0.0520787484	-3.8467539166	 0.1056733776	 0.115431
H	-0.07714851	-2.4454654084	 2.1720545492	 0.111535
50.772	141.9389	243.0208	268.5248	293.884	307.1865	475.2041	492.8182	530.0456	546.8694	563.861	606.5424	699.53	765.6187	851.1267	851.6398	958.5157	973.1003	1045.5746	1060.4119	1112.6621	1183.4409	1266.4233	1295.5472	1333.4908	1389.1404	1405.0844	1470.1648	1481.9882	1485.0906	1526.0592	1633.2136	1649.1829	3040.1849	3093.6245	3152.2975	3160.6111	3210.3416	3784.4026
CC1=C(F)C(O)=CC=N1	Cc1c(F)c(O)ccn1	
InChI=1S/C6H6FNO/c1-4-6(7)5(9)2-3-8-4/h2-3H,1H3,(H,8,9)	InChI=1S/C6H6FNO/c1-4-6(7)5(9)2-3-8-4/h2-3H,1H3,(H,8,9)
