14
gdb 84195	3.77862	1.11465	0.88956	2.0959	72.92	-0.2444	-0.0637	0.1807	1212.5385	0.101649	-432.887457	-432.879426	-432.878481	-432.920263	29.684	
O	 0.138547124	 1.4356525348	-0.0477914361	-0.42852
C	 0.0778420328	 0.0368985185	 0.0785928007	 0.069286
C	 0.6571816313	-0.4934745756	 1.3651928507	-0.236575
C	-0.2414924364	-1.3196681764	 1.9221862781	 0.262602
N	-1.4307186795	-1.4049984152	 1.1582116074	-0.410196
C	-1.3703165359	-0.473532394	 0.127662473	 0.349759
N	-2.2611504649	-0.018536597	-0.6510524384	-0.552535
C	-0.1110534713	-2.0963192053	 3.10543264	 0.22265
N	-0.0332019005	-2.7286670145	 4.0717251868	-0.320458
H	-0.6231687616	 1.6786616308	-0.5941265753	 0.299859
H	 0.5863447167	-0.4544767298	-0.7717074383	 0.112966
H	 1.655522598	-0.3026200909	 1.7250052227	 0.14278
H	-2.3027047189	-1.6975707595	 1.5726447231	 0.266006
H	-3.1884902137	-0.407343236	-0.4804734344	 0.222378
97.8549	116.7371	151.536	254.9411	328.9229	372.4007	425.8325	454.4347	486.2539	539.0455	593.5161	643.1377	662.3823	731.2907	801.2147	850.5971	886.1413	972.1904	1018.0388	1084.8455	1113.668	1186.8039	1239.782	1265.631	1307.1582	1357.8404	1410.1671	1432.0885	1668.164	1767.5329	2351.0153	2931.6072	3271.3202	3481.4094	3625.5285	3737.5462
OC1C=C(NC1=N)C#N	O[C@H]1C=C(N[C]1[NH])C#N	
InChI=1S/C5H5N3O/c6-2-3-1-4(9)5(7)8-3/h1,4,9H,(H2,7,8)	InChI=1S/C5H5N3O/c6-2-3-1-4(9)5(7)8-3/h1,4,9H,(H2,7,8)/t4-/m0/s1
