16
gdb 75300	2.45192	1.96409	1.20074	1.8311	70.81	-0.2263	-0.0057	0.2205	997.5484	0.1266	-434.101922	-434.094367	-434.093423	-434.134083	28.924	
N	 0.0176268205	 1.3498392914	-0.0541740064	-0.55358
C	-0.0673708488	-0.004039435	 0.0406507129	 0.376653
N	-1.1379062756	-0.6974306174	 0.1283856631	-0.299527
C	-0.78528979	-2.1183559139	 0.0071849742	-0.19089
C	 0.7669701099	-2.1795966907	 0.0249685647	 0.011572
C	 1.5846743182	-2.43795324	-1.2711041203	-0.392211
C	 1.8569986761	-0.9222397642	-1.2722901327	 0.389144
O	 2.3991185092	-0.1308802356	-1.9807531515	-0.305088
N	 1.1536660077	-0.7409619126	-0.0360524128	-0.169425
H	 0.875378424	 1.7827074758	 0.244598718	 0.269788
H	-0.8338479032	 1.8586766382	 0.1201350511	 0.268383
H	-1.2143411117	-2.6878606434	 0.8378179821	 0.112634
H	-1.2108285287	-2.5353242677	-0.916546224	 0.106005
H	 1.1600417181	-2.6784005808	 0.9131380413	 0.095441
H	 2.4695013231	-3.0726656632	-1.187480437	 0.137679
H	 0.9926065514	-2.7568679308	-2.1330163126	 0.143422
81.4871	140.0128	213.9122	299.3258	369.8338	412.934	449.2569	489.8642	529.4895	602.1593	695.3029	710.6919	733.8912	772.4841	863.6558	914.6269	971.9819	1012.5221	1030.2433	1048.6176	1083.2946	1137.122	1153.7627	1177.3981	1209.1055	1229.2483	1271.4915	1312.2116	1353.6133	1402.569	1446.358	1508.4451	1615.4152	1742.2499	1903.0583	3005.2873	3060.8503	3072.2505	3087.4174	3129.4901	3603.0052	3724.9188
NC1=NCC2CC(=O)N12	NC1=NC[C@H]2CC(=O)N12	
InChI=1S/C5H7N3O/c6-5-7-2-3-1-4(9)8(3)5/h3H,1-2H2,(H2,6,7)	InChI=1S/C5H7N3O/c6-5-7-2-3-1-4(9)8(3)5/h3H,1-2H2,(H2,6,7)/t3-/m1/s1
