13
gdb 128895	4.3945	1.22159	1.04184	3.7064	69.24	-0.2768	-0.017	0.2598	1071.273	0.091666	-411.751761	-411.744947	-411.744003	-411.783591	24.676	
N	-0.2183127181	-1.2072668918	-0.2037545721	-0.305604
C	-0.1237580562	-0.0589960622	-0.1203391708	 0.300463
C	-0.017610665	 1.3888912414	-0.0133083781	-0.339701
C	-0.2829745435	 1.9988192334	 1.4327866736	-0.177802
N	 1.1040151449	 2.4980561673	 1.339154693	 0.094476
N	 2.1072231598	 3.2078730269	 1.870953123	-0.167172
N	 3.0635293687	 3.1338501025	 0.9705885807	-0.170055
C	 2.6765070042	 2.3991067896	-0.1201431502	-0.207362
C	 1.3881900535	 1.9889790431	 0.1330549241	 0.335614
H	-0.6247496454	 1.8609137677	-0.7897428802	 0.160973
H	-1.0368158096	 2.7861510901	 1.4701128597	 0.162126
H	-0.4357977699	 1.2660798682	 2.2253891988	 0.171963
H	 3.3402504365	 2.2368953038	-0.9514145615	 0.142082
90.3902	128.7256	186.849	296.9016	407.9958	491.7955	551.9357	669.0746	695.5662	751.6607	779.5869	840.003	866.1478	963.5353	1012.5925	1046.0031	1094.2744	1109.6763	1138.5092	1175.9457	1200.3305	1251.0762	1286.725	1308.4666	1356.3296	1477.5926	1514.4172	1541.3186	2366.9745	3088.7346	3092.2078	3161.576	3293.9254
N#CC1CN2N=NC=C12	N#C[C@H]1Cn2nncc12	
InChI=1S/C5H4N4/c6-1-4-3-9-5(4)2-7-8-9/h2,4H,3H2	InChI=1S/C5H4N4/c6-1-4-3-9-5(4)2-7-8-9/h2,4H,3H2/t4-/m0/s1
