16
gdb 92824	2.96553	1.81957	1.33774	2.175	69.48	-0.2393	-0.0143	0.225	936.7941	0.127677	-434.079641	-434.072666	-434.071722	-434.110873	27.509	
O	 0.0577773749	 1.4446004085	 0.2518778902	-0.439464
C	 0.0635683906	 0.0442991878	 0.0586072534	 0.088958
C	 0.4980645721	-0.6292243067	 1.3997470909	-0.172175
N	-0.7320251235	-0.773760713	 2.2291532645	-0.305412
C	-1.6799908876	-0.6928695045	 1.3937750698	 0.391819
N	-3.0479957349	-0.4626271175	 1.5063836777	-0.382955
C	-3.3675822022	 0.2451035444	 0.3336226619	 0.060308
N	-2.4819135538	 0.2823971187	-0.5933715308	-0.272896
C	-1.3654102514	-0.5193271994	-0.0678920777	-0.079648
H	-0.5518655007	 1.8181021015	-0.3955092948	 0.294034
H	 0.714100233	-0.2404369207	-0.7796934675	 0.068571
H	 0.961028302	-1.6074038972	 1.2152872448	 0.105375
H	 1.2230655055	-0.0054312641	 1.9288514839	 0.125876
H	-3.4842423489	-0.2487526307	 2.391089064	 0.267831
H	-4.3444932017	 0.7122190236	 0.2575897277	 0.140398
H	-1.3375372635	-1.4831127206	-0.5966962679	 0.10938
133.5911	178.193	289.0065	320.7484	383.9163	405.6492	487.3657	562.6538	619.1275	680.4492	714.4169	824.4995	845.745	870.9626	892.4361	949.6442	972.4476	974.4178	987.2124	1055.7663	1063.9234	1131.418	1176.2698	1219.4844	1238.7199	1294.4561	1306.3523	1317.1558	1348.1491	1358.0165	1385.4106	1398.8542	1482.8702	1642.8677	1773.9895	2999.8254	3013.4026	3031.5982	3101.377	3196.2509	3622.8984	3792.1338
OC1CN=C2NC=NC12	O[C@H]1C[N][C]2N[CH][N][C@@H]12	
InChI=1S/C5H7N3O/c9-3-1-6-5-4(3)7-2-8-5/h2-4,9H,1H2,(H,6,7,8)	InChI=1S/C5H7N3O/c9-3-1-6-5-4(3)7-2-8-5/h2-4,9H,1H2,(H,6,7,8)/t3-,4-/m0/s1
