16
gdb 97522	3.68999	0.65251	0.55829	2.2243	81.58	-0.2767	-0.0551	0.2216	1938.0647	0.121809	-437.890088	-437.880112	-437.879168	-437.927937	33.059	
C	-0.0733663645	 1.6043259781	 0.0117123368	-0.370245
C	-0.0883659844	 0.0649350777	 0.0028373495	-0.332963
C	-1.429201514	-0.5001262758	 0.0127994632	 0.254797
C	-2.5492667485	-0.9464751477	 0.0212560928	-0.081579
C	-3.8512948194	-1.5473408195	 0.0306578188	 0.276211
O	-4.0766464986	-2.7292941394	 0.0269050183	-0.338208
O	-4.8200826057	-0.5724155249	 0.0447489143	-0.189489
C	-6.1333773735	-0.9764065669	 0.0552488431	 0.124533
N	-7.0192924253	-0.0839696116	 0.0681392063	-0.427222
H	 0.9573586077	 1.9690294313	 0.0036326307	 0.124304
H	-0.5889083503	 2.0032396369	-0.8654062535	 0.138779
H	-0.5713687643	 1.9928704092	 0.9034970057	 0.138773
H	 0.4430425812	-0.312884918	-0.8800525118	 0.14821
H	 0.4604072113	-0.3231526209	 0.8705181103	 0.148205
H	-6.2465376634	-2.0602485714	 0.0509237911	 0.146146
H	-7.9420351782	-0.5166597173	 0.0747752944	 0.239746
12.6739	58.218	85.2667	107.0288	163.9535	176.1784	240.912	273.2819	398.0856	404.6729	500.0392	552.7439	617.7341	767.3067	779.4378	838.6033	852.1597	947.3663	1002.05	1072.3167	1075.9486	1098.6021	1099.6733	1248.2159	1263.3156	1281.6829	1346.8362	1390.5373	1412.5112	1461.1368	1495.3605	1503.8924	1744.7255	1804.0281	2352.2029	3025.7808	3050.855	3054.9239	3126.5496	3131.5425	3142.3629	3507.1686
CCC#CC(=O)OC=N	CCC#CC(=O)O[CH][NH]	
InChI=1S/C6H7NO2/c1-2-3-4-6(8)9-5-7/h5,7H,2H2,1H3	InChI=1S/C6H7NO2/c1-2-3-4-6(8)9-5-7/h5,7H,2H2,1H3
