18
gdb 84896	2.7998	1.41705	1.07112	4.6542	77.83	-0.264	0.0009	0.265	1136.1504	0.148193	-401.965463	-401.95708	-401.956136	-401.998361	31.53	
C	-0.0419551376	 1.6053513031	-0.0628212419	-0.4009
C	 0.005646772	 0.0689342227	-0.0220818364	-0.040312
C	 0.6902199028	-0.5038622582	-1.2406857548	-0.079845
C	 1.9241868466	-0.9997233616	-1.1966186871	-0.069864
C	 2.7368363417	-1.0075240594	 0.0665024592	-0.124202
O	 2.1491886639	-0.241746965	 1.1090028571	-0.2559
C	 0.7555340476	-0.4789782151	 1.2158597423	-0.04272
C	 0.2915115264	 0.1232581245	 2.4731871628	 0.288601
N	-0.1172497755	 0.5819197458	 3.4509694843	-0.325296
H	 0.9702293356	 2.0148270526	-0.007389885	 0.136753
H	-0.4974574553	 1.947651442	-0.996582456	 0.117474
H	-0.6266061463	 2.0056209975	 0.7701613429	 0.140895
H	-1.0223406188	-0.3145675072	 0.021144823	 0.095997
H	 0.1329689597	-0.4860038793	-2.1733240481	 0.099904
H	 2.3942968959	-1.4272757043	-2.0779067777	 0.101371
H	 2.9073764091	-2.0453861485	 0.405337842	 0.109065
H	 3.7238440985	-0.5631105802	-0.1029830665	 0.131667
H	 0.5628714736	-1.5624502792	 1.2852163397	 0.117313
98.571	143.9297	168.6464	227.596	256.9041	276.986	359.1408	438.961	485.0004	503.1669	562.1206	644.7134	725.4774	800.5158	821.8171	908.4617	922.5411	982.5925	996.3436	1011.263	1054.8815	1074.388	1105.215	1119.538	1126.6031	1210.3253	1259.1834	1297.3222	1333.3117	1345.4509	1372.3269	1393.7794	1404.4691	1414.8685	1486.9831	1494.0988	1502.2723	1724.2492	2367.4635	2946.827	2970.3098	3022.9964	3044.4249	3063.5761	3116.3159	3127.2495	3156.8067	3179.0595
CC1C=CCOC1C#N	C[C@H]1C=CCO[C@H]1C#N	
InChI=1S/C7H9NO/c1-6-3-2-4-9-7(6)5-8/h2-3,6-7H,4H2,1H3	InChI=1S/C7H9NO/c1-6-3-2-4-9-7(6)5-8/h2-3,6-7H,4H2,1H3/t6-,7-/m0/s1
