20
gdb 42131	2.17517	1.813	1.15407	2.3304	76.05	-0.2477	0.014	0.2617	1103.2538	0.173123	-440.278828	-440.270635	-440.269691	-440.311563	31.45	
C	 0.0219010877	 1.4916023872	-0.0137991996	-0.206371
C	 1.4504294045	 2.0886141909	-0.0562662913	-0.192799
C	 1.9033073347	 2.7181719013	-1.3958110147	-0.14878
N	 2.533773132	 1.7806252982	-2.3286379672	-0.221796
C	 1.8216149836	 0.9395769219	-2.9272861517	 0.116872
O	 0.4512548131	 0.8670957455	-2.8479065994	-0.216801
C	-0.0023600962	-0.4068769828	-2.4065478232	-0.010224
O	 0.4972065735	-0.718807045	-1.1517327361	-0.212873
C	-0.1046895853	-0.0372479524	-0.0510653385	-0.069073
H	-0.4542079815	 1.7823168909	 0.9320419622	 0.095277
H	-0.5889569242	 1.9367353353	-0.8047008658	 0.112657
H	 1.5022909983	 2.8871926277	 0.691844803	 0.099583
H	 2.191414093	 1.3399381613	 0.2472907401	 0.111666
H	 1.0510059359	 3.2295916799	-1.862087943	 0.107057
H	 2.6547595441	 3.4820549067	-1.1750242034	 0.100528
H	 2.2701182253	 0.1929320573	-3.5882425197	 0.109496
H	-1.098082091	-0.3465134165	-2.427932828	 0.10668
H	 0.3525573951	-1.1943240615	-3.0841514268	 0.11221
H	 0.3839579353	-0.4696810382	 0.8277655588	 0.11373
H	-1.172108198	-0.3059475275	-0.0034690157	 0.09296
88.5642	171.9044	181.0533	223.2578	274.4669	308.7193	397.2711	409.7531	468.7235	543.6048	661.0265	697.2267	715.4717	829.5581	849.7428	938.7767	958.1864	976.4392	998.5745	1017.3545	1031.311	1054.3531	1087.5688	1132.0172	1158.6073	1188.8209	1234.4948	1278.351	1296.777	1310.5307	1337.1786	1363.8974	1377.847	1396.0305	1397.1573	1415.3751	1440.5402	1476.9932	1480.9197	1492.2079	1505.9004	1510.8894	1773.4265	2981.1661	3010.6529	3017.6369	3021.6354	3037.0108	3064.5145	3069.0473	3072.1664	3076.6867	3092.0128	3098.912
C1CCN=COCOC1	C1CCN=COCOC1	
InChI=1S/C6H11NO2/c1-2-4-8-6-9-5-7-3-1/h5H,1-4,6H2/b7-5-	InChI=1S/C6H11NO2/c1-2-4-8-6-9-5-7-3-1/h5H,1-4,6H2/b7-5-
