17
gdb 80106	2.7433	1.52386	1.2486	1.9385	79.64	-0.2404	-0.0074	0.2329	1051.9199	0.135602	-380.819902	-380.811758	-380.810814	-380.852225	31.405	
C	-0.0794442618	 1.547230878	-0.0160645441	-0.429129
C	 0.0105630368	 0.0430175332	 0.0706266107	-0.028415
N	 1.2540397576	-0.7306985546	-0.2202032538	-0.172343
C	 2.4418920427	 0.0459032273	-0.0834299935	 0.038582
N	 2.7850653244	 0.4858983407	 1.0586552157	-0.19655
C	 1.7440332782	 0.0749007801	 2.0121121905	-0.245815
C	 0.6965297609	-0.6893223709	 1.1804099432	 0.093137
C	 0.1244406101	-1.884418003	 1.7282639212	 0.19518
C	-0.3616403072	-2.8604936813	 2.2350013269	-0.360945
H	 0.8049292764	 2.0529351192	 0.3757453712	 0.145574
H	-0.2177992094	 1.8595879867	-1.0563688282	 0.132797
H	-0.9510691131	 1.8898806172	 0.5513415367	 0.133695
H	-0.8544344316	-0.4706001005	-0.3423122265	 0.111041
H	 3.0354680406	 0.2070189432	-0.9790662903	 0.13145
H	 2.1748964551	-0.5765562852	 2.7785198137	 0.134931
H	 1.3389148813	 0.9558589024	 2.5225400629	 0.122849
H	-0.7883412909	-3.7308802525	 2.6687387336	 0.193961
131.4489	156.2815	181.3963	223.8271	236.5115	357.1822	448.1766	489.8593	514.7374	556.7514	584.36	612.7892	654.4009	698.019	783.6218	839.2052	893.4807	950.8454	959.764	981.015	1007.0925	1034.6008	1082.352	1127.8661	1160.6483	1205.2569	1222.6914	1299.5715	1322.7371	1335.8563	1410.2823	1428.2061	1482.0631	1496.2043	1503.0519	1678.8222	2239.587	3041.6738	3045.1501	3085.1368	3101.2736	3128.0466	3144.9817	3183.6834	3501.7144
CC1N2C=NCC12C#C	C[C@H]1N2C=NC[C@@]12C#C	
InChI=1S/C7H8N2/c1-3-7-4-8-5-9(7)6(7)2/h1,5-6H,4H2,2H3	InChI=1S/C7H8N2/c1-3-7-4-8-5-9(7)6(7)2/h1,5-6H,4H2,2H3/t6-,7+,9?/m1/s1
