18
gdb 13104	4.06328	1.20021	1.01016	0.8743	71.99	-0.2404	0.0229	0.2633	1206.6986	0.153942	-381.109796	-381.100973	-381.100029	-381.144182	31.019	
C	-0.6051278462	 0.1200411461	 0.780343246	-0.360648
C	 0.3915080413	 0.5173152179	-0.3084261169	-0.146243
N	 0.6801682438	-0.6250970993	-1.1730753066	-0.335795
C	 1.861515592	-0.8756726749	-1.4944121191	 0.429859
O	 3.0483855634	-0.2305024728	-1.1669066597	-0.268369
C	 3.8432403078	-1.2876657845	-1.7831835276	-0.081737
C	 2.5564965452	-1.9801877108	-2.2908827197	-0.121132
N	 2.3748635604	-3.3768807755	-1.9621019668	-0.509556
H	-1.5180452327	-0.2862929398	 0.3354776827	 0.122923
H	-0.180043254	-0.6467180222	 1.4357688586	 0.113562
H	-0.8709055	 0.9856699816	 1.3953994929	 0.108098
H	-0.0505247922	 1.3049638853	-0.9327042949	 0.108655
H	 1.3011625356	 0.9375750452	 0.1407576424	 0.109509
H	 4.5290977428	-0.8853373172	-2.5318854556	 0.121592
H	 4.3934017542	-1.8590122725	-1.0296122389	 0.118259
H	 2.4144694051	-1.8513051026	-3.367638392	 0.113519
H	 2.2962477569	-3.4913930322	-0.9549721237	 0.23343
H	 1.4972912567	-3.7079630117	-2.3509063613	 0.244074
34.0938	103.5507	122.7487	166.7601	240.52	259.725	267.3881	350.5516	445.3969	543.0801	672.263	741.089	796.5264	828.7304	871.6309	916.2476	961.9569	977.7476	1001.639	1070.3043	1099.1671	1124.87	1150.9213	1165.7634	1177.6091	1233.6175	1254.6043	1301.1374	1333.8175	1382.8777	1406.9012	1429.9324	1487.6348	1491.9495	1508.6305	1515.5481	1667.7592	1837.9359	3008.5858	3037.5002	3043.1631	3057.0654	3075.9089	3108.068	3116.791	3121.0492	3491.5598	3570.4484
CCN=C1OCC1N	CCN=C1OC[C@H]1N	
InChI=1S/C5H10N2O/c1-2-7-5-4(6)3-8-5/h4H,2-3,6H2,1H3	InChI=1S/C5H10N2O/c1-2-7-5-4(6)3-8-5/h4H,2-3,6H2,1H3/t4-/m1/s1
