18
gdb 63619	2.63695	1.13203	0.95133	2.4604	75.8	-0.2443	-0.0951	0.1492	1294.1914	0.144599	-439.083624	-439.074015	-439.073071	-439.1184	34.509	
C	 0.3103881164	 1.6382915238	-0.2449698883	-0.447813
C	 0.0197834072	 0.1765190327	 0.0195526754	 0.31915
C	-1.3006239692	-0.3267589515	-0.5305961305	-0.451234
N	 1.1798995447	-0.7030061174	-0.0254884978	-0.344615
C	 0.5237405209	-0.4969940203	 1.2856344791	-0.202647
C	 1.2883335269	 0.2257307303	 2.3315398212	 0.316398
O	 2.1972722945	 1.0066314505	 2.1505733736	-0.293097
C	 0.8574526908	-0.0331599816	 3.7834010044	 0.091244
O	-0.0262924159	-0.7838230533	 4.1049596643	-0.224804
H	 1.2782974296	 1.9243575004	 0.1659260675	 0.16481
H	 0.325681394	 1.8174263947	-1.3257348691	 0.120986
H	-0.4678904386	 2.274879315	 0.1893504599	 0.114857
H	-1.3195735728	-0.2191437659	-1.6212944323	 0.129895
H	-1.4637573052	-1.3814380808	-0.2876757542	 0.117914
H	-2.1407354036	 0.2479245618	-0.1275480039	 0.133133
H	 0.9217654891	-1.6233101111	-0.3766567098	 0.235514
H	-0.110853662	-1.2841848431	 1.6809965798	 0.11075
H	 1.4611875232	 0.5504236457	 4.5102885709	 0.109558
51.5518	127.6664	135.9005	169.554	203.5364	241.1394	253.6966	320.881	364.9294	411.2205	436.7235	525.3343	595.3733	644.7313	704.0741	797.9648	857.8086	930.5282	961.7348	981.7086	1018.5619	1040.8131	1073.7662	1095.2422	1150.5661	1177.6941	1200.7628	1305.3776	1350.5747	1364.6429	1412.7562	1423.1822	1454.0428	1480.0986	1486.5939	1504.1276	1509.1694	1788.9574	1821.2828	2924.7759	3028.4406	3038.197	3093.9029	3098.0575	3107.1749	3157.5107	3164.0614	3485.0577
CC1(C)NC1C(=O)C=O	CC1(C)N[C@H]1C(=O)C=O	
InChI=1S/C6H9NO2/c1-6(2)5(7-6)4(9)3-8/h3,5,7H,1-2H3	InChI=1S/C6H9NO2/c1-6(2)5(7-6)4(9)3-8/h3,5,7H,1-2H3/t5-/m0/s1
