18
gdb 99355	6.10169	0.63006	0.60373	2.4493	76.01	-0.25	0.0478	0.2978	1825.9759	0.145217	-439.093891	-439.083339	-439.082395	-439.131134	35.896	
C	 0.036076889	 1.1167775395	-0.4692052418	-0.233156
O	-0.1328022374	-0.065607666	 0.3160964735	-0.267126
C	-1.3096631104	-0.711483729	 0.1170900903	 0.518309
O	-2.1719646083	-0.3509847539	-0.6543344991	-0.417333
N	-1.3799269959	-1.8112064162	 0.9163754539	-0.360045
C	-2.5006420139	-2.7257802826	 0.8440898802	-0.15883
C	-2.4087613732	-3.7015034258	-0.3532895274	-0.344419
C	-3.5197970097	-4.6422054047	-0.3779260433	 0.292499
C	-4.4501012016	-5.4031094527	-0.3578394837	-0.438134
H	 1.0218686955	 1.5045129264	-0.2103213988	 0.129438
H	-0.0137561928	 0.8867293598	-1.5366497666	 0.138793
H	-0.7354076275	 1.8545851911	-0.2339674724	 0.139524
H	-0.5615166346	-2.0535494362	 1.4490799128	 0.25508
H	-2.5488931	-3.2881933454	 1.7799760377	 0.119211
H	-3.4183099698	-2.1401199507	 0.755034374	 0.149755
H	-2.3921122127	-3.1080717872	-1.2742281982	 0.156609
H	-1.4567947486	-4.2451762847	-0.3054919241	 0.123542
H	-5.2685742781	-6.0793595917	-0.359469217	 0.196283
45.0206	49.4721	62.8117	103.0816	146.9478	165.0445	224.5165	315.2243	355.8321	366.6353	420.4439	458.7867	583.3551	621.551	647.1559	683.5442	773.5826	785.8693	924.3243	971.0106	1015.5228	1037.3428	1093.3833	1169.6748	1183.5462	1214.7389	1226.9284	1270.6527	1300.3339	1337.9432	1401.8889	1467.3076	1469.0466	1480.8238	1481.763	1501.2791	1545.1839	1811.5322	2239.0993	3028.4556	3049.712	3069.2075	3075.7592	3123.0308	3126.8143	3153.2563	3507.3209	3657.3386
COC(=O)NCCC#C	COC(=O)NCCC#C	
InChI=1S/C6H9NO2/c1-3-4-5-7-6(8)9-2/h1H,4-5H2,2H3,(H,7,8)	InChI=1S/C6H9NO2/c1-3-4-5-7-6(8)9-2/h1H,4-5H2,2H3,(H,7,8)
