18
gdb 101548	3.28558	0.86633	0.75466	0.9763	70.89	-0.2744	-0.0813	0.1931	1500.8719	0.14499	-476.231296	-476.221318	-476.220374	-476.26695	34.994	
C	 0.059770727	 1.561123007	-0.0331972828	-0.401117
C	 0.1111160762	 0.0393159628	 0.0030348558	 0.111594
C	 0.6886542331	-0.5250906298	 1.2988295238	-0.072266
O	-0.0317359383	-0.1104213258	 2.4432783766	-0.416337
O	-1.2389070535	-0.5059046239	-0.0624092278	-0.277494
C	-1.8125210805	-0.6295772184	-1.2674170576	 0.312123
N	-1.2727255545	-0.3056432094	-2.3668127939	-0.503444
C	-3.2010973842	-1.2218660763	-1.1352210998	 0.110761
O	-3.8965028581	-1.4332081975	-2.0930856554	-0.232137
H	 1.0785680744	 1.9609107749	-0.0186750426	 0.12323
H	-0.4293394234	 1.9070739222	-0.9453342441	 0.142532
H	-0.4707171702	 1.9427550373	 0.842060694	 0.133247
H	 0.6674404491	-0.3470380737	-0.8564134899	 0.115585
H	 0.7301317149	-1.6223984589	 1.2247201359	 0.096086
H	 1.712979425	-0.1588473819	 1.4216784803	 0.116895
H	-0.9399085672	-0.4081569083	 2.3213599544	 0.290194
H	-1.929046214	-0.5203515081	-3.1206578874	 0.248269
H	-3.5219731157	-1.4431563721	-0.0977044995	 0.10228
67.014	75.0119	92.1013	166.3032	179.3223	222.7998	258.6666	284.1391	336.6217	392.7459	415.2642	483.107	571.6165	625.2306	751.2803	823.7421	894.404	903.9146	926.9368	949.4771	1009.4354	1037.8768	1072.192	1121.7246	1142.4189	1153.6142	1239.119	1328.7526	1350.1561	1370.896	1388.1088	1414.514	1426.8393	1436.5107	1489.3975	1492.6482	1501.1125	1715.34	1832.1184	2941.9672	2992.58	3053.0079	3075.3524	3084.331	3125.0127	3148.8047	3469.0301	3810.7962
CC(CO)OC(=N)C=O	C[C@@H](CO)O[C]([NH])C=O	
InChI=1S/C5H9NO3/c1-4(2-7)9-5(6)3-8/h3-4,6-7H,2H2,1H3	InChI=1S/C5H9NO3/c1-4(2-7)9-5(6)3-8/h3-4,6-7H,2H2,1H3/t4-/m0/s1
