19
gdb 20098	4.20143	1.7083	1.50893	1.1991	75.52	-0.2107	0.09	0.3006	913.9779	0.166379	-327.861878	-327.854665	-327.853721	-327.893208	28.524	
C	-0.8638467032	-0.4324239662	-1.1215827923	-0.229483
C	-1.052852346	 0.9448673	-0.5876226587	-0.227564
N	-0.0906371073	 0.0288237488	 0.0243736134	-0.149135
C	-0.4108109985	-0.4987209412	 1.3085082092	 0.39361
C	-0.3530279503	-1.9561162592	 1.6279399628	-0.313151
C	-1.643331062	-1.2168180514	 1.9163185658	-0.118423
C	-1.4820666251	-0.4041574685	 3.2036443121	-0.217073
C	-0.2465893277	 0.3305434852	 2.5837793744	-0.282229
H	-1.6716508369	-1.1401797163	-0.9445964155	 0.113302
H	-0.2994373209	-0.6027741113	-2.0337280906	 0.117501
H	-0.6264507801	 1.8007284077	-1.1022164231	 0.116298
H	-1.9792917711	 1.1390163111	-0.0508185386	 0.11197
H	-0.3892730371	-2.6106744014	 0.7621545921	 0.109552
H	 0.2660001145	-2.3312210816	 2.4422528783	 0.099665
H	-2.5829471443	-1.5281753382	 1.4748283233	 0.081339
H	-2.3151398777	 0.2754119236	 3.3968973099	 0.099546
H	-1.2921982385	-0.9883354144	 4.1108793327	 0.094554
H	 0.7130122058	 0.2293849886	 3.1009962362	 0.095765
H	-0.4433774334	 1.3921661645	 2.4155043888	 0.103957
95.2896	161.1971	206.6971	263.9631	391.8846	471.674	494.229	551.1214	699.7537	785.3967	789.413	842.3498	857.7815	897.4531	912.3501	934.8267	961.8058	969.3706	1007.4541	1020.2238	1036.2779	1093.6203	1099.9075	1114.2412	1121.1975	1144.7641	1171.3304	1183.582	1216.8207	1225.3445	1240.5726	1242.4773	1294.1906	1323.014	1405.9338	1479.4368	1483.4456	1487.9506	1512.2643	1514.847	3038.2422	3049.7599	3089.4117	3092.7092	3098.7923	3102.8579	3111.5137	3174.2272	3181.5601	3190.4077	3196.8496
C1CN1C12CC1CC2	C1CN1[C@]12C[C@H]1CC2	
InChI=1S/C7H11N/c1-2-7(5-6(1)7)8-3-4-8/h6H,1-5H2	InChI=1S/C7H11N/c1-2-7(5-6(1)7)8-3-4-8/h6H,1-5H2/t6-,7-/m1/s1
