16
gdb 51126	3.33511	1.39418	1.20975	2.8624	68.55	-0.2336	0.017	0.2506	1030.7957	0.123581	-437.82237	-437.814727	-437.813783	-437.85501	29.199	
O	 0.2670581456	 1.5133742031	-1.4056290185	-0.318576
C	 0.1189086657	 1.5229077102	-0.2037587817	 0.13578
N	 1.114571683	 1.2925658127	 0.7017787392	-0.394315
C	 2.434297685	 0.9655299449	 0.3087810078	 0.358577
C	 3.6477707553	 1.4797712842	 1.0302799298	-0.346679
C	 3.4621968515	 1.8184887777	-0.4276618404	-0.135208
C	 3.7772673828	 0.5913735098	-1.3382464373	 0.038944
O	 4.1971833302	-0.5194169389	-0.5229903546	-0.24303
C	 2.7985147862	-0.2310119099	-0.6472897902	-0.024006
H	-0.8510235109	 1.7258527037	 0.2922233395	 0.078393
H	 0.8664510119	 1.2363025371	 1.6783219897	 0.250171
H	 3.4464318278	 2.3065752896	 1.7045353582	 0.115407
H	 4.425376161	 0.7949705123	 1.3436844218	 0.142629
H	 3.3479264155	 2.8292482941	-0.7923946654	 0.111355
H	 4.0991886131	 0.6108514591	-2.3710312149	 0.115592
H	 2.1325258565	-1.0148105797	-0.9855857131	 0.114966
53.0085	117.0873	210.7258	285.1471	366.9458	414.8278	441.2834	524.4113	537.1314	628.0294	759.1128	782.549	795.761	832.0636	868.1083	885.2548	923.5845	971.6554	988.4255	1019.6182	1026.9933	1031.7525	1073.1126	1103.9613	1144.6826	1198.0245	1211.4223	1252.7004	1279.2188	1360.029	1398.015	1428.5974	1471.296	1504.5021	1806.3548	2938.7412	3139.2689	3196.4752	3211.6463	3223.8711	3235.2869	3604.895
O=CNC12CC1C1OC21	O=CN[C@]12C[C@H]1[C@H]1O[C@@H]21	
InChI=1S/C6H7NO2/c8-2-7-6-1-3(6)4-5(6)9-4/h2-5H,1H2,(H,7,8)	InChI=1S/C6H7NO2/c8-2-7-6-1-3(6)4-5(6)9-4/h2-5H,1H2,(H,7,8)/t3-,4+,5+,6+/m0/s1
