18
gdb 83718	2.59967	1.75323	1.25325	3.5393	72.2	-0.23	0.0275	0.2575	1020.3542	0.151182	-435.253454	-435.245803	-435.244859	-435.285628	29.92	
N	 0.0187855659	 1.4724576138	 0.1986518321	-0.527217
C	-0.0092986332	 0.0325509363	 0.0093154542	-0.052423
C	-1.4242753204	-0.5340488799	-0.0820004142	-0.02429
N	-2.2995987659	 0.2137839158	-1.0226137863	-0.319159
C	-2.5107973697	-1.0002085567	-1.8529311567	-0.18433
C	-1.3391043744	-1.6827699299	-1.1167052769	 0.08393
O	-0.0822640467	-1.5405118412	-1.7859157918	-0.250867
C	 0.6339992242	-0.4890101788	-1.2776473387	 0.389044
N	 1.6886608316	-0.0212464717	-1.7857062831	-0.543376
H	 0.9651684139	 1.7935684123	 0.0068844747	 0.244188
H	-0.5642519883	 1.8767000378	-0.5323019415	 0.234175
H	 0.5130346459	-0.4468484073	 0.8489280136	 0.103962
H	-1.8705994836	-0.775616384	 0.8857910365	 0.078196
H	-3.1343401279	 0.6131494193	-0.6122105852	 0.229405
H	-3.4628043068	-1.5170608959	-1.6756310855	 0.101076
H	-2.3772805738	-0.8463968514	-2.9280803262	 0.118975
H	-1.4566617063	-2.7224108888	-0.8114396912	 0.095719
H	 1.9371796853	-0.5127184098	-2.6453735439	 0.222991
92.2722	134.3062	237.3973	266.1582	320.0273	378.9115	456.7264	486.3309	600.79	624.0996	702.0611	740.0136	806.7023	837.0246	880.8351	891.3302	938.8882	960.2294	991.2864	999.3979	1032.7766	1049.4222	1085.9136	1126.5689	1145.5787	1162.241	1215.7055	1230.0983	1239.3483	1284.7635	1288.2055	1335.4468	1356.7292	1373.1074	1380.0806	1419.8178	1504.1635	1654.6438	1778.6815	3014.096	3017.2721	3074.8987	3082.3041	3114.0242	3470.3936	3478.2236	3544.7769	3557.3092
NC1C2NCC2OC1=N	N[C@H]1[C@H]2NC[C@H]2O[C]1[NH]	
InChI=1S/C5H9N3O/c6-3-4-2(1-8-4)9-5(3)7/h2-4,7-8H,1,6H2	InChI=1S/C5H9N3O/c6-3-4-2(1-8-4)9-5(3)7/h2-4,7-8H,1,6H2/t2-,3+,4+/m1/s1
