21
gdb 64254	3.06424	1.28285	1.22557	0.7087	78.8	-0.2373	0.0875	0.3248	1160.9768	0.180482	-424.226926	-424.217758	-424.216814	-424.260956	35.327	
C	-0.1259436452	 1.5967184816	 0.1016310578	-0.41637
C	 0.0706824894	 0.0855311502	 0.057149279	 0.446451
C	-1.2404082017	-0.691815156	 0.1542051286	-0.409484
O	 0.7261782019	-0.2942027229	-1.1597618261	-0.300482
C	 2.0261668603	-0.7720842233	-0.8451398866	-0.166274
C	 1.8911026793	-1.1823812256	 0.6029633128	 0.423088
C	 1.8926278576	-2.6109771947	 1.0789318089	-0.325089
C	 2.9936098063	-1.6416423726	 1.4891012072	-0.349376
O	 0.9549796478	-0.2738398826	 1.1233801671	-0.315558
H	 0.8388255191	 2.0987108279	-0.0021572577	 0.120153
H	-0.7815335249	 1.9155879992	-0.7128734742	 0.121627
H	-0.5750618951	 1.8941863841	 1.0532543333	 0.121955
H	-1.8782691718	-0.4622489405	-0.7038240018	 0.122508
H	-1.0362878327	-1.7649778681	 0.1576944036	 0.122178
H	-1.7739933828	-0.4274127866	 1.0713162115	 0.11802
H	 2.2743484984	-1.5987621332	-1.5171013707	 0.110438
H	 2.7778085531	 0.0232964736	-0.9658910731	 0.095762
H	 1.1654279574	-2.8788851504	 1.8369975898	 0.122166
H	 2.1327054825	-3.3985489565	 0.3718942694	 0.112886
H	 3.9832621716	-1.7652153433	 1.0611714411	 0.116855
H	 2.9848153096	-1.2795528404	 2.51096254	 0.128548
37.4898	115.5917	200.5201	230.763	261.8952	282.1367	327.1634	346.0213	409.7535	430.6746	512.8848	532.1033	642.4786	764.422	790.4311	800.0956	853.0638	896.8583	916.6041	926.6354	942.9667	983.5435	998.4778	1009.3032	1049.645	1074.7125	1085.8955	1093.6538	1166.7965	1188.3325	1212.4437	1237.174	1258.6663	1292.9568	1346.7558	1397.293	1402.7834	1412.7049	1451.4752	1472.3885	1476.3047	1492.9835	1496.1352	1504.2562	1521.1363	2981.4132	3045.5622	3050.8693	3080.4749	3120.9404	3128.5106	3128.9043	3131.4352	3132.2739	3133.4234	3214.2451	3228.1862
CC1(C)OCC2(CC2)O1	CC1(C)OCC2(CC2)O1	
InChI=1S/C7H12O2/c1-6(2)8-5-7(9-6)3-4-7/h3-5H2,1-2H3	InChI=1S/C7H12O2/c1-6(2)8-5-7(9-6)3-4-7/h3-5H2,1-2H3
