19
gdb 121775	2.69485	0.82653	0.65831	1.1113	84.74	-0.2664	0.0093	0.2757	1720.5676	0.154519	-385.803678	-385.792973	-385.792028	-385.840283	37.855	
C	-0.1801086112	 1.4818498508	 0.068652848	-0.384052
C	 0.134904295	-0.0143566878	-0.0055479049	-0.184425
C	 0.6704881208	-0.5562411902	 1.3115241159	-0.03592
O	 0.9416873517	-1.9412487037	 1.1423146081	-0.244664
C	 1.4855170384	-2.5613592242	 2.2963783367	-0.223249
C	 0.5124975498	-2.6553530848	 3.4004990298	 0.346511
C	-0.2825797819	-2.7060130396	 4.2993627287	-0.470741
C	 1.9826524353	-3.8869265821	 1.9183119736	 0.309112
C	 2.4141604199	-4.9677734794	 1.6264707576	-0.403707
H	 0.7132749286	 2.0672293364	 0.312826372	 0.116665
H	-0.5651423411	 1.8483167741	-0.8871124483	 0.119008
H	-0.9347103709	 1.6940216349	 0.83401053	 0.118313
H	-0.7644540583	-0.5801175078	-0.2733963319	 0.112221
H	 0.8736076485	-0.2104103303	-0.7908558488	 0.10922
H	 1.5945368919	-0.0267565974	 1.6017616287	 0.085221
H	-0.0611699665	-0.4059530325	 2.1193267983	 0.102587
H	 2.3432182611	-1.9648966921	 2.6577357175	 0.12203
H	-0.9853467884	-2.7635406108	 5.0938745493	 0.20443
H	 2.7874064671	-5.9267195334	 1.3634184597	 0.20144
55.7595	63.1671	102.8231	125.9961	141.9726	216.8715	224.9455	240.1478	334.4095	364.1907	379.0171	519.2484	558.37	628.1405	635.4224	643.2987	674.3015	679.4035	766.8436	887.7207	904.0039	918.6332	1002.3134	1039.0771	1055.0109	1115.8902	1151.1099	1191.6405	1268.1331	1316.5626	1318.932	1325.9923	1345.8534	1412.4728	1436.5439	1492.5429	1500.734	1507.7113	1526.0141	2235.4418	2251.6376	2933.7349	2956.6989	3010.3744	3032.5663	3042.117	3075.0759	3101.9501	3109.6742	3501.3725	3504.0685
CCCOC(C#C)C#C	CCCOC(C#C)C#C	
InChI=1S/C8H10O/c1-4-7-9-8(5-2)6-3/h2-3,8H,4,7H2,1H3	InChI=1S/C8H10O/c1-4-7-9-8(5-2)6-3/h2-3,8H,4,7H2,1H3
