19
gdb 69855	2.27268	2.09608	1.5049	2.4798	73.78	-0.2467	0.0685	0.3152	952.6536	0.159313	-422.986717	-422.979009	-422.978065	-423.0182	31.745	
C	-0.0810450953	 1.4667516835	-0.0013517986	-0.491682
C	 0.0648759106	-0.0231543768	-0.0374822531	 0.401395
O	-0.5574211297	-0.788755692	 1.0151020631	-0.304457
C	 0.8634432887	-0.8971782843	 0.8202948104	-0.026132
C	 1.3160342922	-1.9845620882	-0.1819226538	-0.084573
C	 0.0093293433	-2.2688667961	-0.9767847069	-0.283212
C	 0.1867705159	-0.78220809	-1.3878328895	 0.336652
O	-0.4948635482	-0.1624084795	-2.4292634802	-0.491359
C	 1.7373869802	-1.0694182251	-1.3819558469	-0.28825
H	 0.6743643698	 1.9453603843	-0.632411083	 0.126059
H	-1.063011912	 1.7634763392	-0.3829100431	 0.139689
H	 0.0230305461	 1.8364499033	 1.0216350488	 0.125214
H	 1.4893414673	-0.568510372	 1.6439665592	 0.096689
H	 1.9526901184	-2.7901709024	 0.177799377	 0.071151
H	 0.1954773019	-2.9442304441	-1.8158270093	 0.083978
H	-0.8849474579	-2.5507980706	-0.425524135	 0.122852
H	-0.3610277217	-0.6755858579	-3.2323642049	 0.281504
H	 2.4140851504	-0.2339565161	-1.1790793801	 0.096017
H	 2.0768279	-1.6315039752	-2.2576055641	 0.088463
173.6651	194.1765	241.0291	276.8529	332.4375	381.0263	440.6477	487.3544	518.9185	555.6179	612.4875	639.228	724.696	811.1971	850.5937	871.1736	889.4021	914.8543	935.2264	969.197	997.4195	1006.2871	1028.9466	1058.8411	1098.9153	1114.2415	1134.2997	1157.5118	1206.4044	1211.6088	1230.5031	1279.9441	1284.8646	1298.3404	1383.1593	1409.404	1457.7198	1471.877	1483.3479	1495.152	1515.22	3042.0701	3044.8739	3074.1539	3105.2413	3107.3777	3126.1484	3136.0654	3163.758	3166.7205	3820.1665
CC12OC1C1CC2(O)C1	C[C@]12O[C@H]1[C@H]1C[C@]2(O)C1	
InChI=1S/C7H10O2/c1-6-5(9-6)4-2-7(6,8)3-4/h4-5,8H,2-3H2,1H3	InChI=1S/C7H10O2/c1-6-5(9-6)4-2-7(6,8)3-4/h4-5,8H,2-3H2,1H3/t4-,5-,6-,7-/m0/s1
