18
gdb 47939	2.25651	1.69712	1.16185	4.9835	69.1	-0.2389	0.0149	0.2538	1076.4206	0.149879	-476.235001	-476.227019	-476.226075	-476.267739	30.343	
O	 0.0082215454	 0.0183959878	-0.0651980292	-0.358107
C	-0.0246984581	 1.2310587815	 0.0042507894	 0.376102
C	-1.3687811328	 1.9858024968	-0.0235781976	-0.176058
O	-1.768662031	 2.3881261568	-1.325356782	-0.220992
C	-1.1352439108	 3.5113089969	-1.861141686	 0.016331
O	 0.1961303588	 3.2599256238	-2.2432214322	-0.227025
C	 1.2230873525	 3.8556978292	-1.4758477486	-0.068211
C	 1.2427376458	 3.4040978855	-0.0045065668	-0.209592
N	 1.1194616017	 1.9717617726	 0.1686962105	-0.274365
H	-2.1152914082	 1.2624837245	 0.3062202639	 0.140139
H	-1.3788265763	 2.8425642627	 0.666766752	 0.095548
H	-1.6995574336	 3.7429421846	-2.7688657837	 0.12179
H	-1.1829730267	 4.3666351368	-1.1642711519	 0.076881
H	 2.1525452136	 3.5568595308	-1.9708107196	 0.118237
H	 1.1638736579	 4.9552964658	-1.5103740593	 0.098216
H	 2.1810416326	 3.7359247812	 0.4524467249	 0.120595
H	 0.4437602454	 3.9018616121	 0.5516517808	 0.123253
H	 1.9585060237	 1.4142784006	 0.0816625855	 0.247258
71.6054	142.7339	223.9283	254.0243	281.3778	379.978	406.6546	459.0204	505.9601	555.6197	570.1968	621.5753	713.0722	838.8729	854.7502	914.3227	947.5459	963.4889	1014.2382	1068.5334	1095.538	1125.1262	1179.7876	1205.4046	1256.5937	1282.1563	1301.8326	1333.2326	1359.2446	1391.7667	1403.5448	1413.1507	1445.6823	1470.2718	1476.8907	1494.651	1497.412	1508.8989	1793.5945	2946.9604	2984.6196	2991.465	3055.5748	3076.0752	3088.8923	3101.4399	3130.1338	3591.6548
O=C1COCOCCN1	O=C1COCOCCN1	
InChI=1S/C5H9NO3/c7-5-3-9-4-8-2-1-6-5/h1-4H2,(H,6,7)	InChI=1S/C5H9NO3/c7-5-3-9-4-8-2-1-6-5/h1-4H2,(H,6,7)
