17
gdb 31749	4.86951	0.87015	0.75234	2.1541	72.58	-0.2075	0.0182	0.2257	1476.4021	0.13531	-458.968397	-458.959516	-458.958572	-459.002594	31.982	
C	 0.0286621066	 1.3596463205	-0.037371467	-0.24928
O	 0.2868397621	-0.0308221256	-0.1118028109	-0.255727
C	 0.7480937605	-0.5884898703	 1.0286472813	 0.354527
C	 1.0081431403	-0.0237120041	 2.2440253987	-0.185868
O	 1.4725999042	-0.990079362	 3.101022728	-0.189404
C	 1.491026844	-2.1630771802	 2.4193171772	 0.347228
C	 1.9651340902	-3.3744377869	 3.1582455521	-0.160545
O	 2.4653319237	-4.3675866698	 2.2823813964	-0.40531
C	 1.0622939347	-1.9828197295	 1.1411474866	-0.418154
H	 0.9423739625	 1.9187532095	 0.2059386206	 0.121929
H	-0.3349818664	 1.666191141	-1.0190546084	 0.136485
H	-0.7347090131	 1.5795831382	 0.7211814396	 0.122973
H	 0.9339336866	 0.9702804883	 2.6461367021	 0.130629
H	 2.7039991559	-3.0631843205	 3.9135186061	 0.108945
H	 1.1398980161	-3.8515973049	 3.7011096576	 0.131712
H	 3.1535526063	-3.9577323563	 1.7469984776	 0.285062
H	 0.9620386958	-2.7337287276	 0.3749350923	 0.124797
60.0722	90.791	148.3453	195.1465	220.2802	251.7088	341.2682	381.5443	450.6658	465.1899	620.1312	643.0106	665.9402	688.0856	736.1439	813.0496	957.3533	992.1404	1004.4178	1065.5866	1080.0185	1146.1978	1175.085	1182.0093	1193.9489	1214.1566	1248.5675	1313.0933	1374.64	1413.9195	1440.178	1475.2109	1484.4229	1501.1562	1508.099	1587.907	1662.5915	2984.4923	2999.026	3045.9535	3055.1065	3138.812	3274.5435	3298.6291	3805.6748
COC1=COC(CO)=C1	COc1coc(CO)c1	
InChI=1S/C6H8O3/c1-8-6-2-5(3-7)9-4-6/h2,4,7H,3H2,1H3	InChI=1S/C6H8O3/c1-8-6-2-5(3-7)9-4-6/h2,4,7H,3H2,1H3
