18
gdb 78978	3.08742	2.01636	1.77203	1.7935	72.02	-0.2283	0.0727	0.301	837.8438	0.151584	-401.902166	-401.896134	-401.89519	-401.932121	26.536	
O	 0.1292658688	 1.4009907064	 0.1502836673	-0.453813
C	 0.0574126806	 0.0010585104	 0.0277101599	 0.165252
C	-1.3624867758	-0.5285902601	-0.2724072456	-0.041201
C	-1.6865005004	 0.0627350848	-1.6496574092	-0.122578
C	-0.346794572	-0.2489836088	-2.343645581	-0.097934
C	-1.4544677122	-1.2853502189	-2.2419859369	-0.030329
N	-1.1775545621	-1.9163840516	-0.9261168777	-0.141282
C	 0.3006791414	-2.0973686285	-0.9740442345	-0.172588
C	 0.6859330013	-0.6264308472	-1.2441831859	-0.109058
H	-0.2174871345	 1.7782147609	-0.6674003299	 0.285051
H	 0.4934176659	-0.4024647793	 0.9457247484	 0.087667
H	-2.1054275168	-0.5029458779	 0.5221026778	 0.080261
H	-2.3867962775	 0.8404190672	-1.9254641086	 0.093492
H	-0.0867860192	 0.214933312	-3.285390825	 0.091328
H	-1.9273513448	-1.8131962796	-3.0611546878	 0.091814
H	 0.6894905158	-2.4896487324	-0.0292436946	 0.101857
H	 0.5589781861	-2.7865935436	-1.7823410965	 0.104484
H	 1.7270505354	-0.3782917237	-1.4447806903	 0.067576
219.9046	305.6047	371.1267	440.9894	512.8017	579.9876	699.2407	727.9271	770.3822	795.4866	806.2481	824.1367	840.1481	880.8721	893.4741	925.6119	934.239	946.6171	976.2993	1008.7335	1026.3292	1035.721	1062.9337	1071.6942	1096.2657	1121.5965	1184.1231	1193.3844	1204.946	1214.0411	1239.0887	1250.4314	1268.8273	1285.2195	1300.1931	1331.5917	1363.2388	1437.8528	1502.211	3053.2159	3081.6319	3108.876	3133.208	3138.4345	3180.8369	3195.1674	3212.9985	3783.7558
OC1C2C3C4C3N2CC14	O[C@H]1[C@H]2[C@H]3[C@@H]4[C@H]3N2C[C@H]14	
InChI=1S/C7H9NO/c9-7-2-1-8-5-3(2)4(5)6(7)8/h2-7,9H,1H2	InChI=1S/C7H9NO/c9-7-2-1-8-5-3(2)4(5)6(7)8/h2-7,9H,1H2/t2-,3+,4-,5+,6+,7+/m0/s1
