21
gdb 110219	2.09421	1.29017	1.18989	1.2072	78.94	-0.2227	0.0654	0.288	1230.3839	0.180558	-424.193055	-424.183252	-424.182308	-424.227433	37.051	
C	 0.2496747112	 1.4235777324	 0.287790074	-0.373634
C	-0.1892195386	-0.0062128716	-0.0526696196	-0.212652
C	 0.5785133069	-0.5869741292	-1.2247845373	-0.103649
C	 1.9691835153	-1.1912919698	-1.1875729754	 0.294105
O	 3.0081165749	-0.7408557795	-1.9842764162	-0.463648
C	 2.1770274256	-2.0451986598	 0.0677460723	-0.293453
C	 0.9350045743	-2.9142433857	-0.3293016148	-0.29302
C	 0.7433642867	-2.0417099555	-1.5731531373	 0.308622
O	 0.2629212306	-2.4875216506	-2.7894508374	-0.457675
H	 1.3081465389	 1.455236021	 0.5700307589	 0.1102
H	 0.1155381736	 2.0934455461	-0.5689640688	 0.114154
H	-0.329211302	 1.8317595877	 1.1221421457	 0.112804
H	-0.0727700693	-0.6413563329	 0.8323440452	 0.098878
H	-1.2607537676	-0.0138735091	-0.2899215109	 0.102136
H	 0.458987194	-0.0238985303	-2.1513278885	 0.091286
H	 3.1534615537	 0.1937385104	-1.8045338034	 0.285508
H	 3.1099770077	-2.6109855653	 0.0160397803	 0.107245
H	 2.1289969931	-1.5336294441	 1.0348526359	 0.092965
H	 1.2213863581	-3.9385792695	-0.5862090622	 0.095042
H	 0.1031962164	-2.9553177191	 0.380755021	 0.10042
H	 0.8336715664	-3.2020213155	-3.0947880513	 0.284367
64.7787	132.458	163.1056	197.4513	230.8068	242.2252	268.3607	307.1493	327.4381	378.5896	442.1732	499.0185	578.0247	617.6366	708.6199	739.5372	780.5318	808.4793	836.7727	938.3866	945.0333	972.8085	1035.9382	1039.8316	1088.9637	1112.2507	1137.7537	1144.8747	1194.665	1209.0824	1222.1657	1233.3344	1273.433	1291.1832	1324.2297	1334.1039	1363.5469	1376.0548	1408.1781	1474.9237	1481.0331	1492.2998	1498.2932	1507.7513	1531.1837	3025.5481	3028.0704	3041.2775	3048.088	3061.4305	3088.2409	3094.0122	3101.2299	3110.362	3113.6745	3786.9847	3802.3383
CCC1C2(O)CCC12O	CC[C@H]1[C@@]2(O)CC[C@@]12O	
InChI=1S/C7H12O2/c1-2-5-6(8)3-4-7(5,6)9/h5,8-9H,2-4H2,1H3	InChI=1S/C7H12O2/c1-2-5-6(8)3-4-7(5,6)9/h5,8-9H,2-4H2,1H3/t5-,6-,7+
