15
gdb 48047	3.78527	0.71962	0.63472	3.4835	83.04	-0.2534	-0.098	0.1554	1709.93	0.110167	-420.599902	-420.590791	-420.589847	-420.635723	30.998	
O	-0.907171905	 1.6019884661	-0.5778830239	-0.218602
C	 0.1790199849	 1.1058388771	-0.4588724061	 0.083284
C	 1.4625778375	 1.8844080153	-0.1286824748	 0.104536
O	 2.5023507156	 1.2600467919	-0.0356771904	-0.269615
C	 1.3302399539	 3.2967667486	 0.0446939888	 0.081692
C	 1.2146534905	 4.4931720945	 0.1908400903	 0.102291
C	 1.080700925	 5.8988908389	 0.3629923859	-0.173443
C	 1.9646797893	 6.6209786944	 1.3800016373	-0.248761
C	 2.2165140116	 6.8232937555	-0.0757734379	-0.248765
H	 0.3813079201	 0.0198320213	-0.5747579314	 0.107725
H	 0.0743085353	 6.2868970406	 0.2428209028	 0.129995
H	 1.4914912281	 7.4154160957	 1.9451979833	 0.13267
H	 2.660622901	 6.0104766448	 1.9419488004	 0.142164
H	 3.0860564206	 6.3522904945	-0.5172333904	 0.142163
H	 1.9202564916	 7.7598927809	-0.5334873238	 0.132667
36.8108	63.5496	99.0334	126.4639	150.2956	247.3057	300.648	416.4396	524.6859	536.7617	613.3257	618.0967	706.9399	788.2363	820.9855	853.7198	878.0469	994.7181	1027.9384	1064.3062	1088.0716	1114.0463	1129.7793	1203.2345	1207.455	1270.6277	1363.349	1394.7272	1468.3861	1496.1839	1740.0273	1832.7604	2311.8559	2923.563	3148.2514	3151.4128	3161.439	3234.8634	3249.5594
O=CC(=O)C#CC1CC1	O=CC(=O)C#CC1CC1	
InChI=1S/C7H6O2/c8-5-7(9)4-3-6-1-2-6/h5-6H,1-2H2	InChI=1S/C7H6O2/c8-5-7(9)4-3-6-1-2-6/h5-6H,1-2H2
