18
gdb 85840	2.7373	1.26648	1.15437	6.0687	72.63	-0.2375	0.0343	0.2718	1128.8668	0.148196	-435.250293	-435.24099	-435.240045	-435.28376	35.259	
N	 0.2866841028	 1.0473232434	-0.6212699036	-0.518346
C	 0.1005321138	-0.2151244473	 0.0406357802	-0.002715
C	 0.1987064956	-0.324097443	 1.5952562112	 0.055447
O	-0.080327516	 0.9608850383	 2.1353489088	-0.432243
C	-1.0351892535	-1.2624533776	 1.577313314	-0.28229
C	-1.397159864	-0.7363798081	 0.1536912046	 0.142203
N	-2.4267032802	 0.2942639204	 0.2019394096	-0.554377
C	-1.7576709565	-1.7520042456	-0.8359396851	 0.264465
N	-1.9858008744	-2.5670105991	-1.623641156	-0.347174
H	 0.1468369041	 1.8062023106	 0.0378579378	 0.245586
H	 1.2244515815	 1.1359811543	-0.9937898149	 0.238349
H	 0.7193566336	-0.9841639818	-0.4271661062	 0.097377
H	 1.1286424674	-0.7288496816	 2.0120030943	 0.074699
H	-0.1583206716	 0.8811175582	 3.0913061685	 0.294151
H	-0.7587729401	-2.3184362662	 1.5734229644	 0.12748
H	-1.8014120322	-1.0878001397	 2.3362995292	 0.117487
H	-2.1891442828	 0.9414242942	 0.9494330879	 0.23505
H	-2.3879125875	 0.8306158506	-0.6624478348	 0.244851
105.7549	137.3344	187.8551	223.7168	240.1613	273.0204	282.5879	340.3163	368.5884	412.7463	430.7187	543.8754	581.056	617.96	651.0895	784.1467	814.9974	837.6579	901.765	904.6476	933.9852	1008.0875	1033.4263	1073.0563	1101.5167	1143.7184	1173.5139	1203.7846	1242.4572	1256.0528	1282.7246	1311.3936	1368.606	1401.5149	1422.2122	1468.0362	1661.8513	1670.0949	2352.0193	3028.4308	3072.5798	3090.1603	3135.7331	3478.2909	3517.482	3557.8241	3599.4446	3822.7044
NC1C(O)CC1(N)C#N	N[C@H]1[C@@H](O)C[C@]1(N)C#N	
InChI=1S/C5H9N3O/c6-2-5(8)1-3(9)4(5)7/h3-4,9H,1,7-8H2	InChI=1S/C5H9N3O/c6-2-5(8)1-3(9)4(5)7/h3-4,9H,1,7-8H2/t3-,4-,5-/m0/s1
