15
gdb 49033	2.57739	1.4253	1.10699	4.8908	72.83	-0.2491	-0.052	0.1971	1085.4053	0.1126	-416.778115	-416.770153	-416.769209	-416.81091	29.039	
O	-0.1835869516	 0.1948735231	-0.633535008	-0.2688
C	 0.0852980278	 1.0305034439	 0.198930645	 0.059856
C	 1.2779842395	 1.8891018173	 0.1511407076	 0.179061
C	 1.6652526195	 3.0277634803	 1.1019201614	-0.252171
N	 2.1968898882	 3.8407549586	-0.0408678925	-0.308475
C	 1.7134953074	 2.8506694165	-0.99039931	-0.039018
C	 2.426456661	 1.5516498234	-0.8022338049	-0.241332
C	 3.7859534952	 1.4740595993	-0.3365181972	 0.326624
N	 4.8753192945	 1.3943743316	 0.0418230779	-0.338996
H	-0.5909725583	 1.2289489472	 1.0597185976	 0.082093
H	 0.7756771062	 3.4729509405	 1.5590794674	 0.121417
H	 2.4086473219	 2.809473426	 1.8736219807	 0.1412
H	 1.7248585364	 4.7318866984	-0.1324549286	 0.241688
H	 1.196169185	 3.0943327488	-1.9109397781	 0.131517
H	 2.1264013274	 0.772597455	-1.4974222582	 0.165336
103.0779	135.3283	151.7672	205.4122	236.8775	335.2965	387.1741	491.5177	560.7658	605.9848	701.2549	723.0943	771.8762	827.547	899.2876	947.8221	986.584	1004.7394	1015.4583	1049.3154	1063.7201	1112.0655	1149.4028	1209.7384	1252.7117	1282.9994	1356.4916	1363.5493	1426.6734	1453.2367	1504.2807	1790.9452	2361.4658	2886.7515	3046.9905	3103.1469	3167.5521	3192.3514	3561.396
O=CC12CNC1C2C#N	O=C[C@]12CN[C@H]1[C@H]2C#N	
InChI=1S/C6H6N2O/c7-1-4-5-6(4,3-9)2-8-5/h3-5,8H,2H2	InChI=1S/C6H6N2O/c7-1-4-5-6(4,3-9)2-8-5/h3-5,8H,2H2/t4-,5+,6+/m1/s1
