16
gdb 52183	5.99716	0.72806	0.67879	0.4564	67.52	-0.2644	-0.0003	0.264	1562.8266	0.124152	-475.07513	-475.066544	-475.0656	-475.110188	30.038	
O	-0.1159594158	 0.8058377233	 1.2612402715	-0.318382
C	-0.0701901634	 1.3641110821	 0.1862154267	 0.156156
N	 1.0138372097	 1.3843427023	-0.6384552409	-0.276465
C	 2.2734280286	 0.7579965211	-0.290866706	-0.178222
C	 3.3863275903	 1.7793827275	-0.1567799224	 0.13094
C	 4.8379453794	 1.2715949856	-0.1874048399	-0.439091
C	 4.9121960828	 2.0461373549	-1.5043205668	 0.45177
O	 5.7081436023	 2.2752776783	-2.3537518653	-0.306377
O	 3.6079683777	 2.4812628705	-1.4362979598	-0.262697
H	-0.9241160808	 1.9205873415	-0.2456474488	 0.084667
H	 0.9676390183	 1.9117787016	-1.496449979	 0.263293
H	 2.1189979309	 0.2427288195	 0.660872336	 0.160252
H	 2.5513133373	 0.0137226213	-1.0481878713	 0.116858
H	 3.1608401992	 2.5136522341	 0.6199514741	 0.115199
H	 5.5019562961	 1.643958606	 0.5933946769	 0.153384
H	 4.9668704674	 0.1925256803	-0.295393095	 0.148716
30.3565	62.5954	103.7093	174.5147	250.6711	292.0972	403.9635	452.7755	520.8459	533.5662	561.7226	708.6083	775.343	843.7075	879.6068	924.862	987.8252	1029.5137	1038.1234	1055.0426	1098.3777	1122.904	1167.1066	1212.0003	1225.9557	1267.4563	1306.3858	1350.2624	1415.9047	1428.8145	1455.7952	1474.1803	1529.0481	1805.7649	1946.6762	2952.0645	3026.069	3089.2535	3093.7575	3115.8012	3149.3525	3633.9659
O=CNCC1CC(=O)O1	O=CNC[C@H]1CC(=O)O1	
InChI=1S/C5H7NO3/c7-3-6-2-4-1-5(8)9-4/h3-4H,1-2H2,(H,6,7)	InChI=1S/C5H7NO3/c7-3-6-2-4-1-5(8)9-4/h3-4H,1-2H2,(H,6,7)/t4-/m1/s1
