16
gdb 19628	4.73704	1.98759	1.82548	1.8211	67.57	-0.2464	0.0981	0.3445	766.1479	0.131537	-346.521917	-346.51596	-346.515016	-346.551671	24.566	
C	-0.086650927	 1.4805979684	-0.0372133087	-0.292149
O	 1.113267905	 0.6764407095	 0.0129445845	-0.299193
C	-0.1400770976	 0.0216855647	-0.0041815745	 0.521586
C	-0.5050032766	-0.9920863907	 1.0503066898	-0.166842
C	-1.686075398	-1.7958829816	 0.4768779133	-0.073776
C	-2.0202587574	-1.2114090676	-0.8979175152	-0.232304
C	-0.48597187	-1.0272939591	-1.06998329	-0.168341
C	-0.2770012036	-2.1232550441	 0.0631547412	-0.071131
H	-0.2932890125	 2.0570283071	 0.8637196908	 0.112997
H	-0.2444134934	 2.0149497549	-0.9736522522	 0.111538
H	-0.2850389534	-0.9700852843	 2.1091812043	 0.095003
H	-2.3312213621	-2.3616163137	 1.1373570504	 0.08964
H	-2.4161424356	-1.980507187	-1.5668008149	 0.101855
H	-2.6428115358	-0.3111557059	-0.9581897563	 0.091199
H	-0.0100905972	-0.9945987163	-2.0471227219	 0.082351
H	 0.3223849751	-3.0181656444	 0.1316200093	 0.097568
166.7292	269.6206	332.6887	437.3451	491.4952	606.562	728.8768	783.3351	790.7658	803.3419	853.7019	876.689	880.6394	921.7627	954.3267	981.0177	1005.2071	1009.1258	1027.1694	1041.5452	1074.5568	1115.4982	1137.3841	1145.7283	1158.2193	1159.5475	1197.4027	1224.6582	1274.1768	1285.733	1351.1275	1454.8205	1497.536	1542.8898	3033.0208	3077.7656	3096.0792	3150.764	3162.7164	3191.8285	3209.8224	3234.7785
C1OC11C2C3CC1C23	C1O[C@]21[C@H]1[C@H]3C[C@@H]2[C@@H]13	
InChI=1S/C7H8O/c1-3-5-4(1)7(2-8-7)6(3)5/h3-6H,1-2H2	InChI=1S/C7H8O/c1-3-5-4(1)7(2-8-7)6(3)5/h3-6H,1-2H2/t3-,4+,5-,6-,7-/m0/s1
