21
gdb 63385	2.85098	1.17035	0.97107	1.8129	85.23	-0.2489	0.0567	0.3056	1295.1041	0.178827	-387.054665	-387.044575	-387.04363	-387.088856	39.098	
C	 0.5846690302	 1.4843968241	 0.1078292607	-0.45814
C	-0.0732657981	 0.1149896703	-0.0234567531	 0.432921
O	-1.4731098863	 0.2528088469	-0.2086344086	-0.477232
C	 0.627590259	-0.8668710946	-1.0147671725	-0.325653
C	 1.1278653694	-1.7374942477	 0.1947405111	 0.156925
C	 2.6271054018	-1.5765097849	 0.4899217812	-0.450803
C	 0.205188124	-0.8779614263	 1.1323536005	-0.304074
C	 0.7774271649	-3.1466645032	 0.1187551774	 0.291211
C	 0.4908466858	-4.3134853226	 0.056987218	-0.47808
H	 1.658025935	 1.4059377814	 0.3034641686	 0.12123
H	 0.462796992	 2.0609025881	-0.8184265212	 0.106321
H	 0.1236774636	 2.0467260239	 0.9259227538	 0.126218
H	-1.6194942936	 0.8533548874	-0.9480069301	 0.271973
H	-0.1038526757	-1.3929376862	-1.6293517971	 0.113268
H	 1.4154257174	-0.4545007368	-1.6517551143	 0.094022
H	 2.9042524639	-0.5194262543	 0.5479161483	 0.114263
H	 2.8853733421	-2.0492752333	 1.4423398203	 0.126486
H	 3.2277761714	-2.0444590617	-0.2958896335	 0.12571
H	 0.6872861994	-0.4714072859	 2.0251786146	 0.098836
H	-0.7066471721	-1.4029468205	 1.4174005027	 0.12443
H	 0.2312359059	-5.3414303343	 0.0016451832	 0.190167
69.7174	140.4579	180.025	235.2484	240.9708	262.2875	283.3788	300.9372	353.9304	358.3176	425.3503	437.8022	514.0303	561.0085	578.8531	617.4233	619.2508	713.7138	830.5854	854.1025	892.3558	905.3925	942.6643	952.4344	957.5656	980.0989	1070.493	1117.3534	1142.1112	1160.942	1213.3544	1235.2503	1266.5621	1275.7352	1307.3829	1376.7837	1403.0374	1408.685	1458.64	1477.9338	1483.9998	1489.2053	1493.7343	1498.8985	2229.4854	3020.347	3035.8957	3056.3216	3066.7093	3089.4253	3108.5567	3111.4402	3116.7829	3132.9001	3141.4353	3502.4561	3796.342
CC1(O)CC(C)(C1)C#C	C[C@@]1(O)C[C@@](C)(C1)C#C	
InChI=1S/C8H12O/c1-4-7(2)5-8(3,9)6-7/h1,9H,5-6H2,2-3H3	InChI=1S/C8H12O/c1-4-7(2)5-8(3,9)6-7/h1,9H,5-6H2,2-3H3/t7-,8+
