21
gdb 34017	2.96844	1.27916	1.10418	1.0067	88.86	-0.2345	0.0551	0.2896	1196.9906	0.184099	-349.931591	-349.923233	-349.922289	-349.964089	33.79	
C	 0.0084752262	-1.192581894	-0.0023653966	-0.429214
C	 0.0104085736	 0.0109357804	-0.0227551962	 0.235847
C	-0.0088029494	 1.4493436318	-0.02832873	 0.152119
C	 0.485582996	 2.1366027125	-1.2909474197	-0.319018
C	 1.3463698761	 2.1688826016	-0.057696023	-0.053137
C	 1.5524747858	 3.4725851066	 0.7146532238	-0.225955
C	 0.420819831	 3.795133408	 1.7044840073	-0.183901
C	-0.9589992564	 3.5584490882	 1.0830188602	-0.218638
C	-1.1606890311	 2.0704518463	 0.7661404712	-0.266125
H	 0.0120917397	-2.2539734043	 0.0102396582	 0.18495
H	 0.7834402162	 1.5043607909	-2.1190465586	 0.11951
H	-0.0133495744	 3.0558587424	-1.5823536876	 0.111646
H	 2.2034242475	 1.50442977	-0.0780909399	 0.096548
H	 2.5030321579	 3.4212217388	 1.2553064676	 0.100867
H	 1.6543027708	 4.3006927541	 0.001323704	 0.100722
H	 0.5184716657	 3.1578040867	 2.5933152069	 0.098583
H	 0.5194123831	 4.8303149799	 2.0484456555	 0.091977
H	-1.7495152693	 3.8842138845	 1.7675060068	 0.095582
H	-1.0700466303	 4.1679314121	 0.1765273295	 0.096296
H	-2.1014652504	 1.9101417459	 0.2268037032	 0.103076
H	-1.2480790882	 1.5220323476	 1.7118976374	 0.108265
109.6527	144.1622	173.2293	271.8602	332.8012	372.8588	386.0203	478.5362	515.3754	547.8351	554.8587	579.8509	638.6184	667.5744	763.3969	815.2921	850.6588	883.667	911.9318	932.2771	937.9389	965.6057	1007.0519	1061.1071	1075.7434	1104.2531	1116.4604	1135.7554	1185.1898	1198.6143	1238.4922	1283.1267	1293.712	1302.3787	1362.0627	1367.8884	1375.2704	1387.5055	1409.0962	1476.7329	1488.17	1492.4063	1496.428	1508.3712	2230.265	3016.7138	3019.5129	3023.7441	3027.1608	3061.3517	3066.6246	3070.5405	3075.3315	3130.2906	3163.4104	3220.9939	3504.575
C#CC12CC1CCCC2	C#C[C@]12C[C@H]1CCCC2	
InChI=1S/C9H12/c1-2-9-6-4-3-5-8(9)7-9/h1,8H,3-7H2	InChI=1S/C9H12/c1-2-9-6-4-3-5-8(9)7-9/h1,8H,3-7H2/t8-,9+/m1/s1
