13
gdb 132840	3.0879	1.52948	1.02285	4.2773	70.42	-0.2554	-0.0776	0.1777	1052.1733	0.089745	-460.774774	-460.767782	-460.766838	-460.806574	25.79	
F	 0.2492607647	 0.1603080398	-0.4782280464	-0.040851
C	 0.1144467161	 1.4488256691	-0.2050942448	 0.24695
C	-1.1555561368	 2.0088487524	-0.2062628324	-0.19176
C	-1.2707155345	 3.3615223781	 0.0830814276	-0.111268
C	-0.1128401755	 4.09138152	 0.3599440205	-0.011627
N	 1.1003679508	 3.5502486019	 0.3597009673	-0.298266
C	 1.2305230047	 2.2442071863	 0.082194837	 0.080786
C	 2.6328333019	 1.7376584268	 0.1083352229	 0.10752
O	 2.9783664839	 0.6034052418	-0.1097468158	-0.255631
H	-2.0135904055	 1.3855133039	-0.4297576103	 0.133378
H	-2.2410727059	 3.845040775	 0.0945526315	 0.12246
H	-0.1706011321	 5.1516491352	 0.5899612294	 0.122259
H	 3.3492607782	 2.5481076497	 0.3594897836	 0.09605
92.912	191.9458	203.7647	289.0646	410.732	432.4036	458.8761	570.2978	571.501	669.3326	766.5853	767.4086	840.1782	895.8316	957.5956	996.3645	1049.2564	1072.8273	1134.1446	1202.0424	1265.7182	1313.2733	1330.0265	1402.0817	1468.8998	1492.9704	1607.4043	1628.5037	1814.9064	2920.7681	3168.2141	3196.5691	3211.1897
FC1=CC=CN=C1C=O	Fc1cccnc1C=O	
InChI=1S/C6H4FNO/c7-5-2-1-3-8-6(5)4-9/h1-4H	InChI=1S/C6H4FNO/c7-5-2-1-3-8-6(5)4-9/h1-4H
