16
gdb 17862	4.58314	1.67352	1.50329	3.321	65.12	-0.2422	0.0765	0.3187	878.4958	0.129198	-383.640529	-383.633565	-383.632621	-383.671527	26.857	
C	-0.0027652968	 1.5652921631	-0.1398588029	-0.415367
C	-0.0527939324	 0.0692198957	 0.025062669	-0.080099
O	 1.219175107	-0.6371039735	-0.0778089172	-0.303052
C	 0.5603682389	-0.6285143114	 1.1467706182	 0.561657
C	 1.1279897097	-0.2934754713	 2.5383524611	-0.068888
C	-0.2051747548	-0.7959979409	 3.1476276879	-0.221789
C	 0.2536108856	-1.8157705227	 2.0748205591	-0.073134
O	 1.6359772098	-1.6878957387	 2.6046429739	-0.311705
H	 0.8250250834	 1.9924346876	 0.4317133441	 0.128652
H	 0.1320618776	 1.8321075334	-1.1930037626	 0.135161
H	-0.938363069	 2.0196146876	 0.2042428384	 0.124459
H	-0.8613409156	-0.4366109297	-0.5050974138	 0.09833
H	 1.793122234	 0.5042382247	 2.8658317935	 0.104298
H	-0.1116265402	-1.1608275501	 4.1700952468	 0.116376
H	-1.1164729007	-0.2186879385	 2.9705156129	 0.09977
H	-0.1151364765	-2.8160850753	 1.8524855517	 0.105331
149.03	169.6241	193.5412	262.6081	411.3788	448.413	492.784	586.9453	682.0091	762.5868	792.0409	806.9228	868.0905	912.8013	916.5105	984.6804	1009.986	1021.9167	1052.6952	1092.7688	1121.7561	1126.6044	1145.2012	1171.1209	1184.1118	1211.8836	1244.005	1260.1164	1355.1521	1409.812	1472.1665	1480.1473	1492.5906	1559.206	3037.5539	3065.5203	3096.2994	3102.0092	3127.4709	3133.9094	3138.2212	3158.9804
CC1OC11C2CC1O2	C[C@H]1O[C@]21[C@H]1C[C@@H]2O1	
InChI=1S/C6H8O2/c1-3-6(8-3)4-2-5(6)7-4/h3-5H,2H2,1H3	InChI=1S/C6H8O2/c1-3-6(8-3)4-2-5(6)7-4/h3-5H,2H2,1H3/t3-,4-,5+,6-/m1/s1
