18
gdb 97275	2.3948	1.16118	0.80519	4.0925	81.97	-0.2464	-0.0201	0.2263	1418.8671	0.145351	-435.287855	-435.277795	-435.276851	-435.323498	34.885	
C	-0.0386821617	 1.157451305	 0.3831029855	-0.317753
N	 0.1259005072	-0.2779321111	 0.2917737825	-0.231755
C	 0.4688555263	-0.7576937982	-0.8278041626	 0.113172
N	 0.6064218583	-2.1341913991	-1.0378252778	-0.168032
C	 0.1239496607	-2.9856409012	-0.0041973959	 0.086046
N	 0.6266726052	-4.1211978526	 0.2205894256	-0.396328
C	 1.1066473443	-2.6586250025	-2.2629210473	 0.423545
C	 1.8305744007	-1.6815589123	-3.1774650727	-0.506826
O	 0.9638124373	-3.8145615664	-2.5614646029	-0.296824
H	 0.608578059	 1.5486738942	 1.1759265393	 0.135015
H	 0.1909218673	 1.6925190901	-0.5525910485	 0.10005
H	-1.0699021553	 1.3929595433	 0.6699901121	 0.133805
H	 0.6639037066	-0.1456937782	-1.7116535324	 0.105059
H	-0.6834953773	-2.5066454404	 0.551397546	 0.130671
H	 0.1220865468	-4.5716890877	 0.9842890768	 0.236087
H	 1.1306654323	-0.9979670005	-3.6694395101	 0.150266
H	 2.5729724983	-1.0821147169	-2.643944955	 0.146332
H	 2.3208962439	-2.2777197055	-3.9463715226	 0.15747
63.1674	80.6056	108.7492	156.2333	193.2019	202.4602	214.8105	256.2654	372.9865	384.2647	415.8487	478.4651	530.0422	591.6467	692.9274	783.5451	866.7814	973.7782	980.8642	1015.9912	1050.159	1071.7039	1100.9988	1140.4029	1155.5186	1218.5932	1291.9203	1338.3617	1389.4903	1425.5554	1429.2057	1447.5632	1475.4072	1477.925	1489.3376	1503.4653	1723.2222	1741.9724	1834.644	2972.1051	3047.1132	3062.6855	3081.7439	3091.4593	3115.274	3115.7819	3163.0996	3484.2383
CN=CN(C=N)C(C)=O	CN=CN(C=N)C(=O)C	
InChI=1S/C5H9N3O/c1-5(9)8(3-6)4-7-2/h3-4,6H,1-2H3	InChI=1S/C5H9N3O/c1-5(9)8(3-6)4-7-2/h3-4,6H,1-2H3
