17
gdb 82687	2.85777	1.57774	1.23396	1.9252	80.04	-0.2327	0.0419	0.2746	1033.3355	0.135454	-384.605125	-384.597317	-384.596373	-384.637061	31.1	
O	-0.0283067724	 1.4866464262	 0.1537527033	-0.433414
C	-0.0201335747	 0.0817682501	 0.0983886769	 0.064488
C	 0.2176310564	-0.7380940025	 1.4009159803	-0.143943
C	-0.8302185509	-0.1669133564	 2.393297648	-0.229337
C	-1.8781585279	-0.7883821408	 1.4721117836	-0.115589
C	-0.8806646337	-1.7454745813	 0.8848574579	-0.136269
C	-1.3869526797	-0.5868710085	 0.0182112415	 0.25353
C	-2.2669704241	-0.6372791115	-1.0959027894	 0.109503
C	-2.9992996067	-0.673709125	-2.0506892247	-0.392819
H	 0.8723516579	 1.8044860543	 0.0367646532	 0.284466
H	 0.6169830021	-0.2895559996	-0.7148091071	 0.076374
H	 1.2255554078	-0.99295505	 1.7205676815	 0.072057
H	-0.7971405227	-0.6885402143	 3.3534807818	 0.099896
H	-0.8344031365	 0.9161641689	 2.5411979024	 0.10976
H	-2.9326540945	-0.9516413519	 1.6502551874	 0.09855
H	-0.8980058497	-2.8052216654	 0.6817112498	 0.104765
H	-3.6485730209	-0.7027768524	-2.8898514064	 0.177982
131.0447	151.8308	213.64	239.053	307.8883	415.7522	488.8087	509.6565	567.9758	580.8764	617.9887	649.8543	710.5899	769.9486	809.8226	852.7103	870.3501	919.4057	955.3998	972.3984	991.462	1008.0428	1041.0515	1100.5256	1123.7146	1144.7427	1147.106	1194.6862	1217.5574	1231.9804	1258.3801	1291.5473	1312.4138	1376.415	1444.0662	1491.6807	2233.7791	3023.2428	3057.9028	3116.2622	3140.8685	3208.5553	3240.1084	3504.6853	3821.6209
OC1C2CC3C2C13C#C	O[C@H]1[C@H]2C[C@@H]3[C@H]2[C@]13C#C	
InChI=1S/C8H8O/c1-2-8-5-3-4(6(5)8)7(8)9/h1,4-7,9H,3H2	InChI=1S/C8H8O/c1-2-8-5-3-4(6(5)8)7(8)9/h1,4-7,9H,3H2/t4-,5+,6-,7-,8+/m0/s1
