21
gdb 89358	2.42343	1.5363	1.32947	2.8537	82.19	-0.2276	0.0001	0.2277	1105.11	0.1827	-387.111539	-387.102832	-387.101888	-387.144425	33.916	
C	-0.0905937537	 1.534274839	 0.030280822	-0.416002
C	 0.0519490782	 0.0136814112	 0.0464230995	 0.029889
C	 1.0001644609	-0.5639705313	-1.0704223596	-0.273708
C	 2.0373901663	-1.3277084648	-0.2122030124	 0.211974
C	 3.1866214554	-2.0277362011	-0.8909921528	-0.498312
C	 1.0935702623	-2.0118364806	 0.8449422969	-0.290902
C	 0.7711828848	-0.5500195291	 1.2979582625	-0.144703
C	 2.2427611583	-0.303991653	 0.9247348582	 0.41293
O	 3.1817870998	 0.2648167888	 1.400533679	-0.337776
H	 0.8846507623	 2.0266396004	 0.114828764	 0.130165
H	-0.5569716197	 1.8734223931	-0.9007564721	 0.116141
H	-0.7123287696	 1.8831928602	 0.8617157727	 0.116371
H	-0.9419330005	-0.44006482	-0.0318759619	 0.074653
H	 0.4784242606	-1.2353149463	-1.759512445	 0.100152
H	 1.4669926025	 0.2286031823	-1.6644802015	 0.105283
H	 3.7777461781	-1.3183289192	-1.4799219055	 0.128457
H	 3.8569675704	-2.4889758292	-0.1590050141	 0.12512
H	 2.8323811156	-2.8111206642	-1.5700818049	 0.116875
H	 0.2556279617	-2.5867884316	 0.4415616837	 0.102347
H	 1.6368582691	-2.592062144	 1.5935920862	 0.112497
H	 0.3657225174	-0.3088890908	 2.2787868249	 0.078549
120.3925	142.9921	173.1511	214.2335	230.0755	277.6573	342.2828	401.8398	447.9947	493.6899	563.2319	659.4738	703.8725	785.8433	798.8156	823.1912	858.2466	909.8953	924.9197	938.9782	997.3498	1002.9875	1033.0796	1048.3129	1066.1483	1110.5293	1146.7378	1158.1315	1190.9745	1212.2538	1228.981	1249.1711	1260.4932	1318.8096	1355.9689	1369.374	1414.833	1416.2166	1486.3197	1489.8904	1492.5001	1495.9227	1498.7488	1506.0816	1889.8113	3027.7233	3030.5039	3034.8897	3044.1694	3059.661	3085.8703	3095.4137	3098.1158	3098.5691	3103.5808	3126.8506	3140.2208
CC1CC2(C)CC1C2=O	C[C@H]1C[C@]2(C)C[C@H]1C2=O	
InChI=1S/C8H12O/c1-5-3-8(2)4-6(5)7(8)9/h5-6H,3-4H2,1-2H3	InChI=1S/C8H12O/c1-5-3-8(2)4-6(5)7(8)9/h5-6H,3-4H2,1-2H3/t5-,6+,8+/m0/s1
