17
gdb 44229	3.71065	1.28243	1.19176	3.5986	72.77	-0.2445	-0.0063	0.2382	1066.1207	0.13709	-417.963409	-417.95604	-417.955096	-417.995429	28.68	
O	-0.075572149	 0.0660361464	-0.4258447483	-0.310431
C	-0.0895367947	 1.2170749382	-0.1062951393	 0.387155
C	-1.1782683982	 2.288568856	 0.1421134406	-0.383911
C	-0.0025153164	 3.2901473518	 0.0719163878	-0.086372
N	 0.9806837132	 2.1442152786	 0.0582430743	-0.136985
C	 1.6262943939	 2.6334466021	-1.2092741582	-0.258993
C	 0.5462187085	 3.7278447594	-1.2988877747	 0.336632
C	-0.2081319749	 4.234811134	-2.4663340856	-0.302613
N	 0.7882884349	 5.0780514475	-1.7750057029	-0.361089
H	-1.9300456475	 2.3422218535	-0.6477367439	 0.138299
H	-1.6776376961	 2.2274854222	 1.1123849414	 0.138063
H	 0.0990086784	 4.0134842998	 0.8851762154	 0.091331
H	 2.6325071232	 3.0212033069	-1.0329924488	 0.130335
H	 1.6520975817	 1.8785105801	-1.9992951805	 0.134472
H	 0.0713419468	 3.9290685705	-3.4708939361	 0.130043
H	-1.2653509553	 4.4537634471	-2.3352906115	 0.118193
H	 0.3271334215	 5.759560036	-1.1764117895	 0.235871
74.451	174.909	212.5569	300.9707	336.0443	435.0565	479.0107	529.487	543.3172	694.4378	773.1571	807.7287	845.6132	873.5479	922.6177	950.104	964.8571	977.8122	994.4521	1032.4001	1040.975	1082.2421	1097.104	1123.5572	1130.0006	1180.881	1208.6296	1231.6951	1258.4302	1271.6045	1286.0691	1321.77	1417.2052	1442.1287	1497.7177	1513.5808	1894.251	3062.298	3071.3728	3079.6213	3103.8223	3120.2205	3133.9078	3190.277	3493.8419
O=C1CC2N1CC21CN1	O=C1C[C@H]2N1C[C@]12CN1	
InChI=1S/C6H8N2O/c9-5-1-4-6(2-7-6)3-8(4)5/h4,7H,1-3H2	InChI=1S/C6H8N2O/c9-5-1-4-6(2-7-6)3-8(4)5/h4,7H,1-3H2/t4-,6+/m1/s1
