16
gdb 18917	3.94084	2.34348	2.07423	1.3333	66.29	-0.2187	0.0798	0.2985	714.9387	0.132111	-346.55247	-346.54659	-346.545645	-346.581928	25.036	
O	-0.1261777281	 1.3938807788	 0.1016600394	-0.467269
C	 0.0358357455	 0.027399181	 0.0386647521	 0.397209
C	-0.0294772544	-0.8210826533	-1.217524806	-0.152132
C	 1.0351889904	-1.901235183	-1.2039828015	-0.233025
C	 1.1048522874	-2.1353276092	 0.2955814761	-0.06981
C	-0.2550677755	-1.9144774187	 0.9357124567	-0.070309
C	 0.8210324146	-0.8543004647	 1.0572257642	-0.170222
C	-1.0282936957	-1.0287037859	-0.07253622	-0.142564
H	 0.6345877733	 1.8087485368	-0.3213811883	 0.283381
H	-0.3898537822	-0.3596843284	-2.1294673693	 0.085474
H	 0.7312832384	-2.8018336314	-1.7497262086	 0.099053
H	 1.9895685465	-1.5531137611	-1.6171934467	 0.093233
H	 1.7783367584	-2.8687925162	 0.7245461183	 0.083065
H	-0.6834176359	-2.5460625561	 1.7014973258	 0.085326
H	 1.3541973451	-0.5096644004	 1.9327115943	 0.087399
H	-2.0995695878	-0.9368960283	-0.1816895067	 0.091191
239.6174	310.3902	352.1331	404.2386	548.1208	590.893	694.7709	732.73	742.0875	767.7226	832.9725	841.794	871.2347	902.7616	922.0223	948.3609	970.1291	976.2516	1011.2245	1030.324	1031.3327	1072.863	1077.9567	1136.4993	1190.4425	1204.2799	1225.9397	1255.7093	1271.7613	1298.8166	1317.9162	1372.4902	1469.5047	1493.2094	3030.1358	3070.0922	3179.4535	3190.348	3201.4191	3212.3481	3219.7156	3778.2097
OC12C3CC4C(C14)C23	O[C@@]12[C@H]3C[C@@H]4[C@@H]([C@H]14)[C@@H]23	
InChI=1S/C7H8O/c8-7-3-1-2-4(5(2)7)6(3)7/h2-6,8H,1H2	InChI=1S/C7H8O/c8-7-3-1-2-4(5(2)7)6(3)7/h2-6,8H,1H2/t2-,3+,4+,5-,6+,7+/m1/s1
