21
gdb 73848	2.45179	1.57976	1.03436	0.2189	95.82	-0.2029	-0.021	0.1819	1213.791	0.182577	-349.984335	-349.975259	-349.974315	-350.017902	34.768	
C	 0.0399139085	 1.5646923026	 0.0396564052	-0.488802
C	-0.0044337876	 0.0571943305	-0.1174135381	 0.188796
C	-1.2121949068	-0.5939025164	-0.0939721984	 0.188768
C	-2.490827775	 0.200386545	 0.0887941682	-0.488807
C	-1.3561661086	-2.0377550405	-0.0939173575	-0.102253
C	-0.5571721243	-2.9342308345	-0.7003058582	-0.085313
C	 0.5706845886	-2.509306821	-1.6022722769	-0.31909
C	 1.5721166206	-1.7863428204	-0.7416843326	-0.085306
C	 1.2804756582	-0.6163637103	-0.1451394689	-0.102268
H	 1.0694150956	 1.9304575988	 0.0431869159	 0.117825
H	-0.4830481605	 2.0680324666	-0.7821994981	 0.128467
H	-0.4394891484	 1.9022318349	 0.9670992368	 0.125186
H	-2.6479345194	 0.9016478553	-0.7393423362	 0.128453
H	-3.3617303849	-0.4581571176	 0.1277345335	 0.11783
H	-2.4821306804	 0.8001767284	 1.0075499798	 0.125205
H	-2.2110393285	-2.4170103283	 0.4646354326	 0.082278
H	-0.7236621594	-3.9956833322	-0.5378253933	 0.08878
H	 1.0232847244	-3.3669838707	-2.1049872626	 0.097471
H	 0.1886316871	-1.8285246837	-2.3764265952	 0.111724
H	 2.5549188966	-2.2282219625	-0.6015309327	 0.08878
H	 2.083515814	-0.101874944	 0.3812146566	 0.082276
81.3238	126.4562	143.3224	170.4257	275.0326	314.0019	319.799	387.1173	432.4529	443.1077	510.5269	617.5171	626.695	710.1558	721.6487	778.7529	789.1185	931.5068	932.1698	967.5513	981.9391	1008.8875	1023.6359	1024.2649	1050.2639	1062.5466	1108.0067	1162.5068	1226.5185	1240.1801	1257.7027	1289.7058	1325.8741	1401.6258	1411.8033	1425.2541	1432.9148	1472.5172	1478.5231	1489.6598	1490.4562	1497.8679	1568.7627	1667.7247	1676.3496	2996.3874	3018.8321	3020.7835	3064.7474	3070.5425	3095.6943	3112.9631	3114.2539	3128.2973	3129.649	3166.169	3169.5164
CC1=C(C)C=CCC=C1	CC1=C(C)C=CCC=C1	
InChI=1S/C9H12/c1-8-6-4-3-5-7-9(8)2/h4-7H,3H2,1-2H3	InChI=1S/C9H12/c1-8-6-4-3-5-7-9(8)2/h4-7H,3H2,1-2H3
