22
gdb 7777	3.07001	1.63904	1.1317	0.1754	84.68	-0.2251	0.0365	0.2616	1130.8333	0.201302	-313.106659	-313.098169	-313.097225	-313.139066	33.003	
C	-0.0048341568	 1.5597968443	 0.0325657128	-0.401875
C	 0.0232148033	 0.029810877	-0.0083005668	 0.035787
C	 0.6972003438	-0.5043681762	-1.2798063683	-0.189628
C	 0.6123385287	-2.0344414616	-1.3544103825	-0.261794
C	 0.9378249026	-2.6869327586	-0.0365559576	-0.131282
C	 1.0012418701	-2.0395538847	 1.1296644679	 0.312056
C	 1.3623436319	-2.7314486383	 2.4163395381	-0.475117
C	 0.7187066061	-0.5563486338	 1.2313850651	-0.276982
H	 1.0111093865	 1.9713509334	-0.0028923403	 0.110524
H	-0.5593002975	 1.9703071537	-0.8180983587	 0.108162
H	-0.4788864537	 1.9265435141	 0.9496797048	 0.107861
H	-1.0155612496	-0.3322208377	-0.0067880306	 0.070483
H	 0.2424033335	-0.0553104234	-2.1705504961	 0.085621
H	 1.7521018453	-0.1965382756	-1.2771695183	 0.092214
H	-0.3951677731	-2.3388834414	-1.6775722594	 0.10225
H	 1.2896777024	-2.412322267	-2.1312570057	 0.097344
H	 1.1332067707	-3.7578042345	-0.0577422731	 0.069863
H	 1.5823757751	-3.7910621947	 2.2597322524	 0.116619
H	 2.241947212	-2.2673262129	 2.8822758213	 0.118287
H	 0.5495547301	-2.6559190761	 3.1507514395	 0.118027
H	 1.6646628573	-0.020301108	 1.4120554339	 0.098095
H	 0.1077788713	-0.362585078	 2.1242626615	 0.093488
111.2099	165.2779	200.2706	239.4454	258.2173	276.522	361.3595	421.9239	429.3227	452.2832	486.3373	632.8574	782.7213	827.5611	850.0978	889.9666	900.3022	947.343	967.5017	983.0677	1026.9322	1054.2358	1067.1003	1103.2134	1120.6689	1162.3495	1176.4844	1179.7976	1250.7396	1278.1565	1319.0434	1330.7119	1369.3874	1372.7415	1382.9384	1399.4516	1412.8377	1413.4624	1471.536	1478.75	1479.5122	1491.2222	1495.7458	1498.6882	1500.0458	1743.0663	2977.1398	2988.3873	2992.9455	3009.8298	3012.2188	3022.2357	3022.5256	3034.3786	3053.9531	3058.9661	3088.118	3094.507	3107.2337	3136.6795
CC1CCC=C(C)C1	C[C@H]1CCC=C(C)C1	
InChI=1S/C8H14/c1-7-4-3-5-8(2)6-7/h4,8H,3,5-6H2,1-2H3	InChI=1S/C8H14/c1-7-4-3-5-8(2)6-7/h4,8H,3,5-6H2,1-2H3/t8-/m0/s1
