15
gdb 44719	2.48287	1.70649	1.20345	5.4122	70.15	-0.2771	0.0013	0.2783	1009.9599	0.113832	-416.799857	-416.792493	-416.791549	-416.832225	27.592	
N	-0.1482498652	 1.1878940571	-0.5430114884	-0.529967
C	-0.0751035741	 0.0273723373	-0.0853942608	 0.44816
O	 0.9550507836	-0.6297569297	 0.577883305	-0.26461
C	 0.1880429947	-1.866755914	 0.6386421339	 0.105591
C	-0.6006900148	-1.9920720391	 1.9565378721	-0.261406
C	-1.8397276633	-1.3155670832	 1.2633517605	-0.167415
C	-2.3971453004	-0.1222815165	 1.8766827627	 0.295097
N	-2.8375102163	 0.8150792851	 2.3898747982	-0.320615
C	-1.0062559312	-1.162963898	-0.0607473328	-0.185067
H	 0.7033551638	 1.7233641942	-0.3677780143	 0.238241
H	 0.7505122606	-2.7118387482	 0.2456752769	 0.108045
H	-0.8024507145	-3.0170034055	 2.2718743846	 0.128464
H	-0.161457216	-1.4342773815	 2.783752024	 0.146468
H	-2.6449162299	-2.0386875865	 1.1142787393	 0.139403
H	-1.4827665173	-1.4608652914	-0.9910550409	 0.119611
74.6592	106.647	200.512	269.8243	371.4351	436.9339	515.3178	529.7877	601.3208	707.3628	753.9437	808.2527	860.6814	872.6401	880.4129	925.8425	976.2646	1005.1663	1013.9514	1040.0556	1074.6535	1125.2698	1175.6177	1190.3853	1200.7023	1243.1862	1274.241	1292.3638	1325.8736	1351.2738	1466.5987	1832.5125	2359.282	3083.7061	3089.2746	3133.9347	3153.4172	3157.2757	3485.867
N=C1OC2CC(C#N)C12	[NH][C]1O[C@H]2C[C@@H](C#N)[C@@H]12	
InChI=1S/C6H6N2O/c7-2-3-1-4-5(3)6(8)9-4/h3-5,8H,1H2	InChI=1S/C6H6N2O/c7-2-3-1-4-5(3)6(8)9-4/h3-5,8H,1H2/t3-,4-,5+/m0/s1
