16
gdb 41757	2.32409	2.25053	1.95469	1.8179	67.58	-0.2461	-0.012	0.2341	821.6634	0.127939	-437.889304	-437.882945	-437.882001	-437.919746	25.9	
C	-0.0661569783	 1.4854255473	-0.1220184365	-0.071163
O	 1.115575765	 2.1568701286	 0.3382596004	-0.253502
C	 2.1860861725	 1.3302544285	 0.6581673924	 0.15983
O	 2.0103025353	 0.7642351054	 1.9927100576	-0.236955
C	 0.9643391135	-0.0709183147	 2.1965518499	 0.139832
N	 0.0450262054	-0.4684162841	 1.4202365652	-0.26911
C	 0.0443473313	-0.0374445217	 0.010026664	-0.070752
C	 1.3231634553	-0.4766491396	-0.6732513126	-0.082801
C	 2.4059678481	 0.2222722577	-0.3405378213	-0.078157
H	-0.9031705664	 1.8558714395	 0.4789213393	 0.121002
H	-0.236127068	 1.7557980913	-1.1723256486	 0.106693
H	 3.0542991457	 1.9778755878	 0.780384874	 0.102908
H	 0.9839069637	-0.4203254753	 3.2283135209	 0.126964
H	-0.8341614877	-0.4834372461	-0.4635594574	 0.083929
H	 1.3341580685	-1.3155411408	-1.3605114803	 0.108692
H	 3.4051387859	 0.0291090662	-0.712757087	 0.112592
160.7121	289.7078	315.9801	344.9695	417.1065	572.3678	584.6756	601.5401	652.2521	728.1229	794.0479	815.5732	873.8482	909.6267	921.9486	967.7185	970.8374	985.2001	1034.7462	1055.4394	1077.915	1102.5419	1147.6366	1204.4745	1250.2304	1325.261	1341.106	1354.293	1379.5737	1398.0051	1413.9309	1419.2114	1505.0379	1697.6916	1716.8392	3019.825	3071.748	3077.4279	3120.9619	3147.3187	3182.9509	3208.1596
C1OC2OC=NC1C=C2	C1O[C@H]2OC=N[C@@H]1C=C2	
InChI=1S/C6H7NO2/c1-2-6-8-3-5(1)7-4-9-6/h1-2,4-6H,3H2	InChI=1S/C6H7NO2/c1-2-6-8-3-5(1)7-4-9-6/h1-2,4-6H,3H2/t5-,6+/m1/s1
