19
gdb 32804	3.17529	1.08658	0.822	2.4924	80.51	-0.185	0.0348	0.2198	1414.6594	0.159311	-419.2516	-419.242113	-419.241169	-419.286812	33.701	
C	 0.0133784789	 1.494976436	 0.0034142253	-0.389471
C	 0.0095297687	-0.0226514162	-0.0237638182	-0.035442
O	 0.692452287	-0.4738677124	 1.1473747574	-0.289518
C	 0.7942623111	-1.8121488645	 1.3029040548	 0.31443
C	 1.4185746557	-2.4263329904	 2.364906754	 0.187012
C	 2.1135632726	-1.8815204931	 3.562904923	-0.512918
N	 1.2671112656	-3.7784175718	 2.087924689	-0.299685
C	 0.5878311618	-3.8964120061	 0.919062347	 0.001266
N	 0.2833282082	-2.7169602076	 0.414773168	-0.345416
H	 1.0369322148	 1.8809458994	 0.0066932753	 0.123673
H	-0.5015094123	 1.8868666383	-0.8789824185	 0.115329
H	-0.4964847313	 1.8689046486	 0.896086616	 0.123693
H	-1.0119119037	-0.4218939431	-0.0328072322	 0.109716
H	 0.5134558301	-0.4098988148	-0.9176163515	 0.10959
H	 1.6437596001	-2.1972621513	 4.503451113	 0.123011
H	 3.1702411565	-2.1755879626	 3.6084772113	 0.123177
H	 2.0756719377	-0.7905530066	 3.5245531918	 0.152522
H	 1.6056711333	-4.5343327027	 2.6589490791	 0.261555
H	 0.3411689451	-4.8520205891	 0.4823966355	 0.127474
53.1108	67.9141	116.9962	137.9401	222.4198	246.0381	267.8977	330.0043	351.2543	488.5785	508.8715	642.5681	659.4253	730.4217	766.4114	782.0108	811.4588	920.7467	959.7542	984.4313	1065.6535	1075.1199	1118.0817	1134.4525	1184.1195	1191.788	1254.4726	1289.7473	1322.1726	1381.9894	1392.5744	1416.961	1421.8231	1483.8258	1484.7059	1489.6595	1494.3362	1499.1613	1519.3323	1529.0944	1660.2471	3009.6887	3025.3246	3043.1648	3050.7363	3059.3324	3117.5541	3119.7378	3126.713	3254.4238	3665.2997
CCOC1=C(C)NC=N1	CCOc1c(C)[nH]cn1	
InChI=1S/C6H10N2O/c1-3-9-6-5(2)7-4-8-6/h4H,3H2,1-2H3,(H,7,8)	InChI=1S/C6H10N2O/c1-3-9-6-5(2)7-4-8-6/h4H,3H2,1-2H3,(H,7,8)
