21
gdb 122302	5.08568	0.7228	0.69461	2.2501	79.75	-0.2318	0.0755	0.3073	1704.355	0.180695	-424.169801	-424.160333	-424.159389	-424.205085	34.568	
C	-0.3093704539	 1.463466216	-0.0215128801	-0.383368
C	 0.1102249812	-0.0077212185	 0.0302615551	-0.184495
C	 0.6796537865	-0.4931461968	-1.2941428928	-0.062351
O	 1.0394670656	-1.8670322009	-1.1530106945	-0.284201
C	 1.5261960282	-2.4390747289	-2.2999707003	 0.36079
C	 0.661568883	-2.8276528494	-3.4851889396	-0.352769
C	 1.4761690919	-3.8682986502	-2.7602871261	 0.011437
O	 2.8331672781	-3.8452231709	-3.2136017383	-0.285029
C	 3.0024331335	-2.4929528433	-2.7037358197	-0.140929
H	 0.5394974535	 2.1131464853	-0.2616648515	 0.117472
H	-1.0808434585	 1.632659206	-0.7807841515	 0.117457
H	-0.7141247326	 1.7896512328	 0.9406418529	 0.119397
H	 0.8629934245	-0.1619273128	 0.8117020858	 0.109047
H	-0.7458863162	-0.639711094	 0.2929185298	 0.107959
H	-0.0595383555	-0.3839103419	-2.1021869588	 0.094912
H	 1.5626354467	 0.1024271996	-1.574831349	 0.091488
H	-0.3992150128	-2.8487385462	-3.2526520963	 0.118654
H	 0.9179352792	-2.5507398179	-4.5045079398	 0.113592
H	 1.0933802872	-4.7817490181	-2.321729157	 0.114556
H	 3.364702578	-1.7992125713	-3.4710553066	 0.103121
H	 3.6736302025	-2.4875533387	-1.8374255515	 0.113258
51.8826	65.0409	105.9995	140.212	229.9498	253.0196	313.1675	334.2065	375.4224	452.2275	475.7806	694.6872	743.33	765.6474	871.2108	899.4441	902.7569	914.1586	941.2003	984.0802	990.6204	1009.1899	1033.8345	1059.8475	1073.6439	1086.3541	1102.3203	1145.0918	1161.8581	1190.1254	1219.528	1266.5905	1286.5124	1299.857	1316.0942	1335.4014	1393.8682	1414.8223	1433.9077	1483.8702	1492.749	1500.8011	1507.6568	1512.5747	1526.1957	2975.5654	3010.1663	3025.0233	3032.862	3040.325	3073.5287	3079.8427	3101.2686	3109.8311	3110.6047	3191.64	3208.5194
CCCOC12CC1OC2	CCCO[C@]12C[C@H]1OC2	
InChI=1S/C7H12O2/c1-2-3-9-7-4-6(7)8-5-7/h6H,2-5H2,1H3	InChI=1S/C7H12O2/c1-2-3-9-7-4-6(7)8-5-7/h6H,2-5H2,1H3/t6-,7+/m1/s1
