21
gdb 90984	2.64529	1.85204	1.34781	1.4644	81.66	-0.2332	0.087	0.3202	1027.7526	0.183316	-387.05907	-387.051206	-387.050262	-387.090826	32.165	
C	-0.0914660998	 1.5327279675	-0.0601645038	-0.407641
C	 0.0395302002	 0.0196239955	 0.0407018083	 0.081375
O	 0.8769924023	-0.4828727066	-1.01957247	-0.297465
C	 1.8703322307	-1.1871200107	-0.3111062077	 0.14534
C	 1.2543935882	-1.971106738	 0.8824962719	-0.132177
C	 2.5687985021	-1.7517860486	 1.6627922566	-0.271228
C	 2.3174074552	-0.4010805032	 0.9560759804	-0.129351
C	 0.7756263	-0.5202005045	 1.2770452007	 0.323713
C	 0.190958508	-0.2032360026	 2.6343971966	-0.512252
H	 0.877449208	 2.0214562696	 0.0820998934	 0.117597
H	-0.4704325413	 1.8105079241	-1.0477102144	 0.126609
H	-0.789920365	 1.9157516592	 0.6911416926	 0.113049
H	-0.9547238324	-0.4436860939	-0.0482479228	 0.070784
H	 2.5922159048	-1.6436188561	-0.9875249166	 0.08287
H	 0.6352216095	-2.8687597411	 0.8335878156	 0.067258
H	 2.5074904958	-1.7610501032	 2.7524583922	 0.097569
H	 3.4379365413	-2.3238079547	 1.324776113	 0.091702
H	 2.9277834323	 0.5027204244	 0.9921461862	 0.068265
H	 0.1689521346	 0.8770974837	 2.8131420968	 0.122783
H	-0.8395494248	-0.5700796982	 2.7085687735	 0.119099
H	 0.7632908505	-0.6598198826	 3.4464492473	 0.122103
143.3139	201.5898	220.9793	251.0931	303.3607	332.456	430.2044	475.23	485.6375	622.2991	670.0433	713.4786	766.0291	816.0217	851.697	890.9273	892.1815	908.1353	939.9161	996.1462	1010.5537	1036.3708	1068.2216	1089.3857	1090.6238	1100.4672	1113.1097	1123.8015	1168.766	1174.191	1203.1978	1228.3481	1243.7556	1253.6198	1284.9594	1318.1668	1365.2698	1381.8344	1405.9696	1415.8059	1486.2464	1490.7809	1493.9585	1499.0694	1527.5539	2988.3564	3030.1833	3037.5786	3055.9772	3088.6809	3095.0952	3099.6326	3106.9908	3109.9934	3116.5309	3118.2157	3134.5035
CC1OC2C3CC2C13C	C[C@H]1O[C@@H]2[C@H]3C[C@@H]2[C@@]13C	
InChI=1S/C8H12O/c1-4-8(2)5-3-6(8)7(5)9-4/h4-7H,3H2,1-2H3	InChI=1S/C8H12O/c1-4-8(2)5-3-6(8)7(5)9-4/h4-7H,3H2,1-2H3/t4-,5-,6+,7-,8+/m1/s1
