16
gdb 114424	3.184	1.17225	1.14099	3.6958	64.9	-0.249	-0.0004	0.2485	1117.739	0.124728	-475.001533	-474.993656	-474.992711	-475.034453	29.375	
O	 0.0196166279	 1.376402747	-0.2641100433	-0.41692
C	 0.079550437	 0.0251145909	 0.1477126242	-0.082755
C	-1.3024252214	-0.5990034444	 0.1130655543	 0.111456
O	-1.883997786	-0.5088835643	-1.2219509609	-0.320986
C	-2.1878323793	-1.9204947259	-1.238721025	-0.033949
C	-1.4942716359	-2.1375153975	 0.1323403225	-0.077133
N	-0.4912870369	-2.9353602233	-0.5694730759	-0.32418
C	-1.0137376689	-2.7486248269	-1.8423054553	 0.415848
O	-0.6377811484	-3.0723836405	-2.9319740835	-0.342145
H	-0.3887223046	 1.3766261565	-1.1384437479	 0.298225
H	 0.7667943682	-0.5581392989	-0.4824910268	 0.091841
H	 0.4677286739	 0.0193761337	 1.1727053643	 0.11186
H	-1.9661438179	-0.0966028382	 0.8279299727	 0.095515
H	-3.2211657677	-2.1498203451	-1.4976548819	 0.113132
H	-1.945406348	-2.6038867174	 1.0062781196	 0.104932
H	 0.442903948	-3.2059477157	-0.2935671871	 0.255256
70.8136	118.1488	178.7573	211.4434	311.3036	430.1521	437.2956	480.1702	508.2868	543.0936	685.1719	749.179	816.4835	824.4328	880.4801	908.4857	961.2085	1010.4334	1046.5443	1055.9109	1086.8161	1119.4434	1137.2236	1170.7773	1206.4515	1224.8929	1268.0488	1286.186	1339.8576	1345.3968	1362.853	1400.2101	1433.4434	1498.4737	1902.5432	2997.34	3033.7373	3070.5733	3123.0155	3133.4983	3590.3931	3790.4146
OCC1OC2C1NC2=O	OC[C@H]1O[C@@H]2[C@H]1NC2=O	
InChI=1S/C5H7NO3/c7-1-2-3-4(9-2)5(8)6-3/h2-4,7H,1H2,(H,6,8)	InChI=1S/C5H7NO3/c7-1-2-3-4(9-2)5(8)6-3/h2-4,7H,1H2,(H,6,8)/t2-,3+,4-/m1/s1
