19
gdb 51642	5.11941	0.85513	0.80195	4.874	78.41	-0.247	0.028	0.2751	1441.0288	0.160867	-419.185683	-419.177385	-419.176441	-419.220112	30.864	
N	-0.177943695	 1.3064456156	 0.1684890836	-0.443693
C	-0.0896949279	 0.0549211345	 0.0291910396	 0.120332
O	-1.1901170917	-0.7151145697	 0.1020684067	-0.182827
C	-1.0241357881	-2.1300826123	 0.060222975	 0.133533
C	-1.0623400514	-2.7844668721	 1.4653035964	-0.239073
C	-1.6953646488	-4.148320121	 1.225382075	-0.043195
N	-3.1670746575	-4.0854829565	 1.1190742198	-0.322577
C	-2.3545893886	-4.1473938369	-0.112779195	-0.04471
C	-2.1586605965	-2.7838890816	-0.7613703323	-0.242556
H	 0.7408457537	 1.7309660021	 0.0615581552	 0.226876
H	 0.8299640991	-0.5155220241	-0.1683057292	 0.080665
H	-0.0600977768	-2.3592089214	-0.4145939036	 0.080272
H	-0.0624599795	-2.8588313387	 1.9021584299	 0.09749
H	-1.6844390404	-2.17973515	 2.1309525349	 0.134059
H	-1.2378910412	-5.041455189	 1.6378198774	 0.088617
H	-3.5569590058	-5.0061146827	 1.3106553074	 0.230132
H	-2.4035565462	-5.0399142347	-0.7275383626	 0.089178
H	-3.0653101913	-2.1791872374	-0.6739608229	 0.135806
H	-1.8963502662	-2.8572884742	-1.8199402851	 0.101671
33.3089	58.9778	114.6801	236.3271	330.4528	365.4904	379.6989	476.2925	514.8139	680.7896	694.1444	771.8762	817.0596	848.4235	862.595	907.9241	910.6411	949.4059	974.6867	1012.2092	1042.4715	1059.3231	1083.4208	1094.2414	1132.7656	1139.9196	1179.5144	1197.9326	1236.5562	1247.285	1289.8784	1300.1067	1321.8494	1326.9243	1377.9984	1390.6437	1420.7354	1431.8546	1475.7804	1487.784	1744.1426	2997.5612	3010.6501	3059.0741	3064.9034	3109.0112	3113.9191	3159.3965	3169.6935	3488.567	3518.5606
N=COC1CC2NC2C1	[NH][CH]O[C@H]1C[C@H]2N[C@H]2C1	
InChI=1S/C6H10N2O/c7-3-9-4-1-5-6(2-4)8-5/h3-8H,1-2H2	InChI=1S/C6H10N2O/c7-3-9-4-1-5-6(2-4)8-5/h3-8H,1-2H2/t4-,5+,6-
