14
gdb 129938	3.44931	1.6291	1.10812	2.275	68.82	-0.1949	0.021	0.2159	1003.5281	0.104699	-432.872915	-432.866003	-432.865059	-432.903945	27.185	
N	-0.0064935563	 1.431609371	 0.1606100532	-0.603494
C	 0.0240971178	 0.0401819572	 0.0373627379	 0.045576
C	-1.0304845223	-0.826327923	 0.0025852195	-0.107026
O	-0.6108945362	-2.1736847544	-0.0270912556	-0.229195
C	 0.7197167006	-2.0752866428	-0.0244453662	 0.477008
C	 1.2105482385	-0.78826041	 0.0178474685	 0.159359
C	 2.6164318426	-0.9742930018	 0.0206302144	-0.171513
N	 2.934135059	-2.2661129049	-0.0195960744	-0.22599
N	 1.7440751911	-2.9465436528	-0.0473139707	-0.358143
H	 0.7218441052	 1.888749419	-0.3722552022	 0.250285
H	-0.9039902426	 1.8355256113	-0.0730865758	 0.246098
H	-2.0978281558	-0.6889010815	 0.0085080282	 0.124889
H	 3.4118572039	-0.2446916562	 0.0528275368	 0.112703
H	 1.7465334845	-3.9504802411	-0.0758577436	 0.279443
189.5568	243.2167	245.9369	285.6942	370.6794	426.4976	537.254	581.9793	621.4773	635.1688	664.8316	690.1563	728.5489	766.107	792.3507	867.9974	968.8898	1046.7421	1059.8646	1089.1403	1160.066	1233.7379	1272.4256	1319.976	1340.9282	1439.6153	1494.6915	1568.1148	1609.9307	1638.0549	1667.3925	3246.0922	3288.7297	3540.059	3631.7463	3693.8226
NC1=COC2=C1C=NN2	Nc1coc2c1cn[nH]2	
InChI=1S/C5H5N3O/c6-4-2-9-5-3(4)1-7-8-5/h1-2H,6H2,(H,7,8)	InChI=1S/C5H5N3O/c6-4-2-9-5-3(4)1-7-8-5/h1-2H,6H2,(H,7,8)
