18
gdb 7831	3.16593	1.67702	1.17274	1.4901	63.86	-0.2435	0.063	0.3065	1005.6582	0.154618	-422.073967	-422.0661	-422.065156	-422.105782	30.264	
O	-0.0822143633	 1.4200645967	 0.0377125219	-0.428868
C	 0.0050333073	 0.0031505377	 0.0024287254	 0.092592
C	 0.7319872684	-0.5412143508	 1.2410415304	-0.099206
O	 0.7280801482	-1.9577597133	 1.2683459419	-0.243451
C	-0.5878976755	-2.4803606126	 1.317834431	-0.099205
C	-1.4064928232	-2.0706362483	 0.0845527962	 0.092592
O	-2.7540072047	-2.5052814222	 0.19316322	-0.428868
C	-1.4178696577	-0.5489765584	-0.0412460892	-0.202655
H	 0.8070043865	 1.7786135933	-0.0479639721	 0.284228
H	 0.5514596307	-0.3335857445	-0.8933930597	 0.071607
H	 1.7841166889	-0.2360704104	 1.2446235348	 0.094852
H	 0.2492184216	-0.1253366326	 2.1411674534	 0.095481
H	-0.4847233244	-3.5693968187	 1.3766341936	 0.094852
H	-1.1186525711	-2.1349741287	 2.2207489062	 0.09548
H	-0.9257392335	-2.5038547923	-0.8074484213	 0.071607
H	-2.7636048801	-3.4672590457	 0.159773864	 0.284228
H	-1.9857175912	-0.1292136872	 0.7985366396	 0.114705
H	-1.9219257567	-0.242358632	-0.9621975562	 0.110029
155.4464	156.4686	278.4007	286.6117	292.7851	320.0436	380.7329	423.7441	434.8587	467.9499	504.0312	584.9332	879.7052	888.828	934.8515	970.7726	980.1304	1064.7302	1079.8072	1086.5154	1122.4389	1124.7059	1170.7001	1188.3906	1223.0112	1287.6254	1288.3899	1312.7127	1320.0204	1337.6051	1351.7807	1393.0484	1407.7739	1435.8647	1445.8688	1491.1271	1491.2954	1506.6225	2963.202	2970.1043	2975.5612	2981.8502	3041.1001	3067.7722	3070.6855	3096.5382	3816.1299	3816.1714
OC1COCC(O)C1	O[C@H]1COC[C@@H](O)C1	
InChI=1S/C5H10O3/c6-4-1-5(7)3-8-2-4/h4-7H,1-3H2	InChI=1S/C5H10O3/c6-4-1-5(7)3-8-2-4/h4-7H,1-3H2/t4-,5+
