16
gdb 132347	1.89903	1.77775	0.92396	4.4365	76.36	-0.23	-0.0047	0.2253	1199.754	0.124754	-442.113707	-442.105568	-442.104624	-442.146408	31.055	
C	-0.0220796951	 1.492836688	 0.0384767153	-0.464997
C	 0.0341436136	-0.0105985074	-0.0139135214	 0.34095
C	-0.0057825527	-0.6962560635	-1.2187219543	-0.257218
C	 0.0491666755	-2.1021661801	-1.2224412096	 0.390733
N	 0.0639410466	-2.8093727135	-2.406136419	-0.589093
C	 0.1404126262	-2.7500811353	 0.0127875346	-0.378086
C	 0.1721125641	-1.9471249955	 1.1433272579	 0.343706
F	 0.2576789619	-2.5562764251	 2.3269784607	-0.081131
N	 0.1230878939	-0.6370164043	 1.176061726	-0.393708
H	 0.87258769	 1.8869329169	 0.5310397188	 0.142014
H	-0.0968083577	 1.9327649281	-0.9587185504	 0.114521
H	-0.8813800598	 1.8186427808	 0.6332668589	 0.140889
H	-0.0748823535	-0.1529578571	-2.1551290072	 0.081996
H	-0.3018507346	-2.3389109523	-3.2187611559	 0.255437
H	-0.1894787684	-3.783617554	-2.3569211698	 0.256128
H	 0.18848716	-3.8285307656	 0.1004079654	 0.09786
85.6084	193.9043	212.1144	241.9137	290.3277	328.5519	380.8412	480.3065	514.3399	523.0435	567.3666	594.6107	608.0069	674.5646	748.8347	838.799	850.4447	981.2449	998.4737	1005.8357	1058.3136	1072.4626	1103.8422	1203.0738	1232.77	1336.8035	1401.6238	1428.7325	1462.9237	1474.4176	1493.1957	1509.7921	1617.181	1648.9845	1664.4096	3041.6233	3101.9997	3126.7956	3180.3651	3202.4168	3586.8802	3693.112
CC1=CC(N)=CC(F)=N1	Cc1cc(N)cc(F)n1	
InChI=1S/C6H7FN2/c1-4-2-5(8)3-6(7)9-4/h2-3H,1H3,(H2,8,9)	InChI=1S/C6H7FN2/c1-4-2-5(8)3-6(7)9-4/h2-3H,1H3,(H2,8,9)
