19
gdb 68861	2.43489	1.82947	1.35524	0.5931	73.95	-0.2543	0.0764	0.3307	1016.8525	0.15805	-423.014365	-423.006077	-423.005133	-423.046659	32.424	
C	-0.0010177525	 1.5336333669	-0.0606035204	-0.487172
C	 0.1689943593	 0.0403289537	-0.002678564	 0.356561
C	 0.354575552	-0.7386769929	-1.3085133125	-0.316362
C	 1.0977744019	-1.9951704596	-0.8846869446	 0.057626
O	 2.4105066023	-1.7402339384	-0.3589885147	-0.262731
C	 1.334480142	-1.9847192471	 0.560904384	-0.041586
C	 0.7561633671	-0.7109694263	 1.1271466566	 0.332662
C	 1.3077826431	-0.1420948224	 2.4032288706	-0.502397
O	-0.6726977729	-0.666632569	 0.9332035604	-0.340934
H	 0.8652771287	 2.0019364897	-0.5392815539	 0.127519
H	-0.8888767212	 1.7913386937	-0.6488598298	 0.128861
H	-0.1257650116	 1.9602757035	 0.936583924	 0.129764
H	-0.6167528102	-0.9806239116	-1.7537280305	 0.113758
H	 0.9321184146	-0.1651969802	-2.0413644854	 0.113384
H	 0.9996173729	-2.9182749984	-1.4488919755	 0.098493
H	 1.4196600474	-2.8844501018	 1.1658181756	 0.096911
H	 2.3906465709	-0.0051469006	 2.3162294853	 0.137186
H	 0.8487980834	 0.8181744934	 2.6464648549	 0.129692
H	 1.1201326932	-0.8261684825	 3.23831276	 0.128765
159.1123	174.8611	177.2625	202.8159	253.0664	342.1439	371.2315	435.5072	468.303	502.973	565.6118	653.6099	715.3424	763.2005	823.3973	867.3023	883.5095	906.729	942.0177	977.434	999.1901	1023.6852	1083.7141	1090.2253	1128.7865	1143.7671	1203.1256	1228.0491	1241.4928	1263.8766	1316.7025	1351.3085	1407.6088	1413.8583	1435.6366	1454.5894	1467.3784	1476.8085	1485.3542	1496.8971	1511.968	3036.0619	3038.3333	3044.6359	3087.88	3097.4902	3099.5003	3128.5233	3134.892	3140.33	3158.8054
CC12CC3OC3C1(C)O2	C[C@@]12C[C@H]3O[C@H]3[C@]1(C)O2	
InChI=1S/C7H10O2/c1-6-3-4-5(8-4)7(6,2)9-6/h4-5H,3H2,1-2H3	InChI=1S/C7H10O2/c1-6-3-4-5(8-4)7(6,2)9-6/h4-5H,3H2,1-2H3/t4-,5-,6-,7+/m1/s1
