16
gdb 49385	3.75838	1.5582	1.44158	4.8932	68.89	-0.2425	0.0207	0.2632	921.4785	0.125688	-437.835372	-437.82876	-437.827816	-437.866457	26.172	
O	 0.2901882394	 0.1590428088	 0.5618607021	-0.303977
C	 0.2734575379	 1.3426530392	 0.3449536269	 0.173245
N	 1.2353196726	 2.0125520148	-0.407142697	-0.066052
C	 2.6572711387	 1.9685870692	-0.228245492	-0.0548
C	 1.8921238589	 3.2688569059	-0.1452323085	-0.073861
C	 2.1882010921	 3.6093969952	 1.3435682348	 0.039781
C	 3.717531557	 3.3516999225	 1.4359379349	-0.227634
C	 3.1541014167	 1.9143724286	 1.2457101735	 0.042468
O	 1.980181647	 2.3321591461	 1.9992005491	-0.265764
H	-0.5669739638	 2.0100090468	 0.6160696076	 0.076298
H	 3.2928514299	 1.6625822586	-1.0511029649	 0.114463
H	 1.8774742885	 4.0353819808	-0.9117216402	 0.111268
H	 1.6787883269	 4.4488735962	 1.8141265846	 0.097637
H	 4.3704833309	 3.7679647022	 0.6643488333	 0.106789
H	 4.1139875162	 3.5212165241	 2.4381663325	 0.121871
H	 3.6303951611	 1.009964771	 1.6175238633	 0.108269
119.5359	160.0503	243.8738	380.5374	433.4885	528.9817	627.6742	698.0339	732.0972	807.9307	815.2322	844.5574	865.4882	875.167	937.1008	950.7712	956.784	1024.5933	1030.9074	1039.5522	1066.2314	1081.4846	1097.6634	1103.6256	1175.1805	1222.6147	1255.2439	1270.1626	1275.6131	1285.3882	1317.6672	1411.9725	1419.0757	1488.9139	1811.9912	2949.7845	3066.9195	3136.4861	3142.5693	3154.3598	3177.734	3187.8169
O=CN1C2C1C1CC2O1	O=CN1[C@H]2[C@@H]1[C@@H]1C[C@H]2O1	
InChI=1S/C6H7NO2/c8-2-7-5-3-1-4(9-3)6(5)7/h2-6H,1H2	InChI=1S/C6H7NO2/c8-2-7-5-3-1-4(9-3)6(5)7/h2-6H,1H2/t3-,4+,5-,6+,7?
