17
gdb 87301	2.17482	1.32111	0.95473	4.8518	79.87	-0.2551	0.0185	0.2736	1259.8886	0.133924	-380.828205	-380.818679	-380.817735	-380.862873	34.462	
C	-0.0108610626	 1.5115918071	-0.1266941371	-0.408436
C	 0.0533926887	 0.0130793722	 0.0452859186	-0.037255
N	 1.3695884385	-0.6279065825	-0.0103949767	-0.350508
C	 0.6073417732	-0.6914712007	 1.255031131	 0.096809
C	 1.2223740796	 0.0866130278	 2.4199142363	-0.40805
C	 2.3035658971	-0.6514119612	 3.0739449099	 0.280722
N	 3.1580936435	-1.229653324	 3.5930130102	-0.306041
C	-0.0094025617	-1.9406052133	 1.6242494118	 0.298538
C	-0.5114322977	-2.9860443416	 1.9421654671	-0.43375
H	 0.8684932906	 2.0082959871	 0.288160933	 0.132669
H	-0.051136236	 1.7580349004	-1.1928157572	 0.133553
H	-0.9083429881	 1.9225874294	 0.3469870624	 0.127695
H	-0.7719619799	-0.5229537418	-0.4203990566	 0.103198
H	 1.3312422705	-1.524949117	-0.4867003661	 0.247903
H	 1.6246347432	 1.0349508275	 2.0572896915	 0.159092
H	 0.4508487212	 0.3122543078	 3.1641066164	 0.157157
H	-0.94817105	-3.9121700272	 2.2247524556	 0.206703
54.3406	110.9668	138.8773	161.2169	175.5297	239.9105	320.1817	380.1907	385.9911	448.0567	493.7839	553.834	563.0713	611.3116	672.49	720.5597	804.2134	866.3094	921.609	952.3436	979.5164	1036.0226	1058.6903	1094.5466	1123.02	1218.7899	1238.727	1299.6539	1312.8595	1351.2581	1409.3796	1450.1553	1451.6469	1487.1488	1501.1055	2235.6379	2367.4001	3041.6955	3058.9489	3103.2545	3115.679	3119.9338	3137.8522	3500.3141	3517.9629
CC1NC1(CC#N)C#C	C[C@H]1N[C@]1(CC#N)C#C	
InChI=1S/C7H8N2/c1-3-7(4-5-8)6(2)9-7/h1,6,9H,4H2,2H3	InChI=1S/C7H8N2/c1-3-7(4-5-8)6(2)9-7/h1,6,9H,4H2,2H3/t6-,7+/m1/s1
