17
gdb 45900	2.61807	1.60194	1.09708	2.5093	77.28	-0.2112	-0.0017	0.2095	1088.4171	0.139231	-418.043183	-418.035332	-418.034388	-418.075865	30.005	
O	-0.0676472785	-0.0427372934	-0.6981295122	-0.385254
C	 0.0066367568	 0.9581406098	-0.0091094059	 0.411303
N	-1.0926507301	 1.3217374266	 0.7783691382	-0.350472
C	-1.702495783	 2.5230798214	 1.1735945687	 0.028826
C	-1.3030950296	 3.7957505643	 1.1453625978	-0.099279
C	 0.0340616285	 4.3207247458	 0.6729294763	-0.341696
C	 1.177581311	 3.6835376791	 1.4130089831	-0.044571
C	 1.6680785016	 2.487627685	 1.1038964258	-0.02674
N	 1.1760422726	 1.6959175548	 0.0365434092	-0.342585
H	-1.7557970701	 0.5649398446	 0.6944826633	 0.257598
H	-2.6953135469	 2.3153405064	 1.5608060571	 0.108095
H	-2.0179327235	 4.5178110122	 1.5245183858	 0.090935
H	 0.1548278124	 4.1258806743	-0.4004892817	 0.126877
H	 0.0629112614	 5.4054194176	 0.8047626523	 0.105671
H	 1.5827048925	 4.197173264	 2.2794210281	 0.100255
H	 2.4984362671	 2.0547161154	 1.6579650064	 0.105919
H	 1.8760386181	 1.2079661519	-0.5054329824	 0.255117
77.3681	106.6645	199.7332	247.177	282.449	460.4621	497.6812	521.3613	565.3886	598.4142	649.1749	715.4239	719.9863	770.7007	790.502	814.7255	865.6711	922.4312	954.851	964.911	981.744	1042.0674	1103.9783	1156.5029	1215.4628	1267.4989	1312.0671	1343.7551	1360.6932	1433.6976	1451.5237	1468.4977	1481.4857	1504.9303	1733.0738	1741.1485	1792.2073	3023.4417	3088.3541	3139.7138	3167.8371	3184.1847	3191.8891	3593.2336	3611.1161
O=C1NC=CCC=CN1	O=C1NC=CCC=CN1	
InChI=1S/C6H8N2O/c9-6-7-4-2-1-3-5-8-6/h2-5H,1H2,(H2,7,8,9)/b4-2-,5-3-	InChI=1S/C6H8N2O/c9-6-7-4-2-1-3-5-8-6/h2-5H,1H2,(H2,7,8,9)/b4-2-,5-3-
