22
gdb 106791	2.48487	1.48575	1.10012	1.3678	87.2	-0.2214	0.0118	0.2331	1210.8405	0.194305	-367.213868	-367.204735	-367.203791	-367.247346	35.558	
C	 0.0310609297	 1.4870717973	-0.4075303724	-0.379126
C	 0.0290302564	 0.0957054209	 0.2387135537	-0.267813
C	-1.3488491199	-0.5250076599	 0.2806796255	 0.28862
N	-1.8847513774	-1.0304035746	-1.0131008368	-0.409395
C	-1.6884458126	-1.9805726461	 0.0943770211	 0.25948
C	-0.696400951	-3.0903083764	-0.1487953075	-0.466039
C	-2.9069798445	-2.2793955154	 0.9772259161	-0.337254
C	-3.2666130212	-0.9368883336	 1.5733618359	-0.091853
C	-2.3933898119	 0.007665607	 1.2162489628	-0.137164
H	 1.0439040087	 1.8989085327	-0.4515789189	 0.109126
H	-0.3605632061	 1.4307878448	-1.4275453991	 0.13181
H	-0.5889945877	 2.1953915441	 0.152707138	 0.111009
H	 0.6985460606	-0.561277323	-0.3251197624	 0.103658
H	 0.4278358844	 0.1538325034	 1.2596479377	 0.094283
H	-2.8661661161	-0.7731709648	-1.1031876025	 0.21767
H	 0.1262077329	-2.7502780353	-0.7812676608	 0.128929
H	-0.2842437524	-3.4660896412	 0.7942569911	 0.112622
H	-1.1793676922	-3.9307902715	-0.6612080667	 0.117534
H	-3.7323217186	-2.7229202129	 0.4032712094	 0.109904
H	-2.6536115332	-3.009590501	 1.7581347732	 0.110852
H	-4.1450652785	-0.7849294457	 2.1902226594	 0.096174
H	-2.4248658293	 1.0459039613	 1.5272073531	 0.096972
76.3101	148.8127	181.8348	201.7992	228.0232	277.5012	302.7999	360.4187	412.3937	489.1452	510.0343	582.3802	681.2683	728.8278	746.9132	775.5117	796.0711	878.8289	922.3257	947.2648	956.2545	966.6879	977.9515	1019.42	1071.4391	1077.243	1100.5565	1109.3204	1139.1398	1163.8535	1194.8902	1248.9439	1269.0341	1310.5275	1316.9561	1364.0949	1385.8809	1405.7759	1413.2723	1433.2758	1472.1962	1475.7806	1487.6637	1497.2519	1498.9209	1509.4024	1665.2466	3010.9073	3026.9665	3029.6597	3035.0568	3037.5412	3075.5951	3086.0686	3102.2076	3114.9555	3127.7686	3184.0988	3208.9071	3470.8868
CCC12NC1(C)CC=C2	CC[C@@]12N[C@]1(C)CC=C2	
InChI=1S/C8H13N/c1-3-8-6-4-5-7(8,2)9-8/h4,6,9H,3,5H2,1-2H3	InChI=1S/C8H13N/c1-3-8-6-4-5-7(8,2)9-8/h4,6,9H,3,5H2,1-2H3/t7-,8+/m1/s1
