15
gdb 54043	2.47387	1.13883	0.83116	4.417	70.59	-0.2902	-0.058	0.2322	1323.0318	0.110071	-416.852883	-416.843275	-416.84233	-416.88878	32.441	
C	-0.4608872364	 1.3780129183	 0.0770608753	-0.48855
C	 0.1383202293	-0.0054495355	 0.0565193256	 0.390989
O	 0.7042754218	-0.5049483425	 0.9940122286	-0.273887
C	 0.0426144288	-0.7940635634	-1.2890124237	-0.268199
C	 0.4371083196	-2.2755720386	-1.0804935054	-0.349197
C	 0.7043789235	-2.9654746208	-2.3379119134	 0.268194
N	 0.9282053565	-3.499434022	-3.3373590791	-0.290282
C	-1.2739460237	-0.6485983314	-1.9063655966	 0.286964
N	-2.3291107134	-0.526072012	-2.3612736441	-0.306988
H	-0.123443775	 1.9618572353	-0.7859379372	 0.154171
H	-1.5513395589	 1.3095156506	 0.0017891474	 0.181575
H	-0.1855969828	 1.8799195074	 1.0044975733	 0.158571
H	 0.7745420057	-0.3220365604	-1.9596179382	 0.173746
H	 1.326109198	-2.2985067595	-0.4451007743	 0.185744
H	-0.3540805932	-2.7987898556	-0.5355863881	 0.177147
42.0789	53.4008	120.3873	129.4975	162.4522	224.8236	260.9222	360.3025	386.0241	458.0743	479.3915	535.3531	590.02	616.6879	794.4015	849.4228	927.8238	982.6455	1020.0518	1046.3572	1088.7539	1180.7884	1214.8401	1241.9697	1319.8662	1349.1826	1391.3954	1457.8931	1462.0851	1471.3311	1829.9241	2359.1122	2369.2984	3026.0155	3046.3589	3074.646	3108.633	3119.8777	3163.4496
CC(=O)C(CC#N)C#N	CC(=O)[C@@H](CC#N)C#N	
InChI=1S/C6H6N2O/c1-5(9)6(4-8)2-3-7/h6H,2H2,1H3	InChI=1S/C6H6N2O/c1-5(9)6(4-8)2-3-7/h6H,2H2,1H3/t6-/m0/s1
