21
gdb 104313	2.89126	1.27289	1.20504	1.8844	76.97	-0.2282	0.0625	0.2907	1164.4952	0.181921	-424.212324	-424.203365	-424.202421	-424.245566	34.927	
C	 0.0576595889	 1.5723580128	-0.0192291344	-0.409336
C	-0.0022453953	 0.0399483969	-0.0089052011	-0.206264
C	-1.4235897127	-0.5416206376	 0.0119846796	 0.355706
O	-2.1129904959	-0.1681080404	 1.2086791115	-0.484094
C	-2.2621681669	-0.1878488682	-1.2479123612	-0.13688
O	-3.1684572924	-1.2616419208	-1.4712517778	-0.254873
C	-2.6093195397	-2.4208835479	-0.9097524361	 0.108134
C	-1.2000119711	-2.7910474706	-1.2937217418	-0.348832
C	-1.482331125	-2.0619550055	 0.009223717	-0.081154
H	 1.0949872226	 1.9193578368	-0.0223055156	 0.122542
H	-0.4319966316	 1.9968295242	-0.9025518375	 0.121773
H	-0.4176736192	 2.0006385603	 0.8705603771	 0.111381
H	 0.5270942795	-0.3548953802	-0.883609629	 0.097464
H	 0.523495496	-0.3381737767	 0.8750355838	 0.105593
H	-2.2178352038	 0.7885714268	 1.2089774731	 0.27749
H	-2.8480129606	 0.7265489106	-1.1129237081	 0.101685
H	-1.6081478427	-0.045299242	-2.1210981396	 0.089804
H	-3.3568322419	-3.1760027035	-0.7005962262	 0.102139
H	-0.9210329511	-3.83595942	-1.2114785784	 0.114999
H	-0.7192762398	-2.2675746356	-2.1133135827	 0.114787
H	-1.3149047172	-2.5542559694	 0.9590754975	 0.097936
96.6873	133.8159	175.4967	229.5148	240.0261	282.7489	341.6879	377.1962	410.0586	433.224	489.8467	617.7367	710.7496	752.5058	780.4927	805.0575	848.9698	909.4371	940.0776	966.9951	983.3732	988.0903	1024.9607	1037.5144	1059.4714	1068.2033	1102.8587	1109.4543	1149.7762	1184.383	1195.9518	1201.7714	1246.1852	1297.5053	1316.529	1335.1579	1375.7422	1384.4831	1404.6028	1417.3139	1475.8437	1478.2356	1500.8776	1507.0908	1511.2677	2988.0746	3029.999	3037.5727	3069.8177	3075.0591	3097.6923	3106.52	3132.0508	3186.5069	3194.2777	3217.7373	3819.6179
CCC1(O)COC2CC12	CC[C@@]1(O)CO[C@H]2C[C@@H]12	
InChI=1S/C7H12O2/c1-2-7(8)4-9-6-3-5(6)7/h5-6,8H,2-4H2,1H3	InChI=1S/C7H12O2/c1-2-7(8)4-9-6-3-5(6)7/h5-6,8H,2-4H2,1H3/t5-,6+,7-/m1/s1
