18
gdb 13005	2.72474	2.45561	1.52371	1.7945	72.98	-0.2313	0.0148	0.2461	886.4044	0.152947	-347.809426	-347.801636	-347.800691	-347.840978	29.917	
C	-0.0848420935	 1.4989370434	 0.0224098126	-0.505463
C	-0.0551084633	 0.0039022066	-0.0254500804	 0.29279
C	 0.0381269974	-0.7775987703	-1.1068227364	-0.177047
C	 0.04695012	-2.2539339515	-0.7698673794	-0.293038
C	 0.0140632733	-2.2491896793	 0.7525579093	-0.017337
O	 1.1424961587	-1.6180986029	 1.3664922441	-0.301265
C	-0.0845662213	-0.853489459	 1.2169130741	 0.327135
C	-0.7309801908	-0.3957108713	 2.4941017243	-0.498005
H	 0.7652313834	 1.8961896471	 0.5914224358	 0.13332
H	-0.0497148078	 1.9285196331	-0.9822880384	 0.124915
H	-0.9918442001	 1.8697832377	 0.5158927939	 0.125455
H	 0.1418780284	-0.413665026	-2.1238374107	 0.090147
H	-0.8256705307	-2.7781836202	-1.1816857297	 0.1077
H	 0.9371461829	-2.7660860663	-1.1555935381	 0.121484
H	-0.4046527977	-3.0881820376	 1.3034845767	 0.087603
H	-0.2213836971	 0.4860019834	 2.8978740991	 0.127535
H	-1.780657609	-0.1295574626	 2.3290681189	 0.122749
H	-0.6845139729	-1.1861749443	 3.2468707443	 0.131322
152.5578	176.5929	197.9394	240.875	267.483	304.9094	391.2362	454.6737	550.7101	607.6134	652.3164	738.6208	805.5375	814.3239	863.1256	923.3656	945.0856	984.7882	1024.0222	1039.3333	1055.9038	1074.1635	1111.112	1146.6491	1185.3666	1240.8354	1299.2048	1313.1356	1349.8108	1406.1177	1414.5237	1439.432	1462.5372	1477.0315	1482.6778	1488.4099	1497.133	1706.4099	3018.602	3021.1763	3034.8028	3056.673	3065.1348	3094.9978	3111.2346	3124.4635	3139.0988	3184.3047
CC1=CCC2OC12C	CC1=CC[C@H]2O[C@@]12C	
InChI=1S/C7H10O/c1-5-3-4-6-7(5,2)8-6/h3,6H,4H2,1-2H3	InChI=1S/C7H10O/c1-5-3-4-6-7(5,2)8-6/h3,6H,4H2,1-2H3/t6-,7+/m1/s1
