21
gdb 120019	2.4555	1.1895	0.90017	2.5071	79.52	-0.2416	-0.022	0.2197	1361.8433	0.180207	-424.223762	-424.21373	-424.212785	-424.259452	35.967	
C	 0.1676615959	 0.7520179286	 0.626651499	-0.253743
O	-0.6156940909	 0.1337836039	-0.3792749882	-0.235506
C	 0.1266300907	-0.4374488182	-1.4324028366	-0.104818
C	 0.6031243018	-1.8649585285	-1.1347076704	-0.109546
C	 1.1401223351	-2.7989426977	-2.2841710162	-0.027135
C	 1.6779967588	-2.0816014729	-3.520719059	-0.39483
C	 2.2628150591	-3.3125365648	-1.3272655604	-0.341539
C	 1.923489046	-2.1415843123	-0.3959996247	 0.386432
O	 2.5164197231	-1.5892436283	 0.4878077209	-0.300344
H	 0.8630617855	 0.0522601734	 1.1052917761	 0.142521
H	 0.7522446013	 1.589621825	 0.2148200822	 0.100926
H	-0.5303445891	 1.144433817	 1.3703623453	 0.120299
H	-0.5507325381	-0.4759225389	-2.2940504882	 0.108818
H	 0.9749609513	 0.2078850494	-1.7066011188	 0.0931
H	-0.2049366165	-2.3737014569	-0.5935329675	 0.114251
H	 0.4242598862	-3.5676716432	-2.5833397163	 0.079821
H	 2.4209025789	-1.3204441336	-3.2556933838	 0.121597
H	 2.1654588723	-2.79468635	-4.1935207269	 0.120511
H	 0.8795551152	-1.5874830892	-4.0831925064	 0.123006
H	 2.0341022398	-4.2756175242	-0.8597114268	 0.130593
H	 3.2863452337	-3.3437285086	-1.7109357232	 0.125583
55.6906	61.3765	119.635	147.1173	186.3246	208.9281	245.6587	306.7589	367.8049	393.6234	458.1773	469.4676	542.9492	699.2177	738.4504	827.4044	847.5069	884.1096	947.4498	973.7807	1016.9533	1035.3307	1084.0706	1100.7859	1128.0782	1141.7976	1164.3214	1188.2142	1209.6241	1222.2938	1241.4835	1265.1062	1288.3271	1347.4474	1365.594	1398.1371	1415.112	1440.4222	1477.3854	1488.8484	1495.093	1498.2088	1501.1991	1519.5246	1876.0593	2981.0905	2988.8298	3028.8454	3035.5932	3053.1239	3055.123	3062.2985	3075.5851	3098.7139	3101.4288	3111.7218	3118.3562
COCC1C(C)CC1=O	COC[C@H]1[C@@H](C)CC1=O	
InChI=1S/C7H12O2/c1-5-3-7(8)6(5)4-9-2/h5-6H,3-4H2,1-2H3	InChI=1S/C7H12O2/c1-5-3-7(8)6(5)4-9-2/h5-6H,3-4H2,1-2H3/t5-,6-/m0/s1
