18
gdb 92238	2.83877	1.85383	1.44049	2.2086	69.94	-0.2181	0.0758	0.2939	933.4323	0.149939	-439.044297	-439.037347	-439.036402	-439.07552	28.325	
O	 0.0693689575	 1.4454334224	 0.1179564149	-0.435864
C	 0.0154972885	 0.056791392	-0.0352724023	 0.134502
C	 0.4159042618	-0.8391185909	 1.1693803812	-0.217147
N	-0.8396261943	-1.6204238229	 1.0182629281	-0.09522
C	-1.748970477	-1.7171677353	 2.1658640004	-0.21464
C	-2.7032131657	-0.5404904751	 2.042496155	 0.045813
O	-2.038471228	 0.729692021	 1.9521204796	-0.274243
C	-2.489663742	 0.0989310852	 0.7337722772	 0.017642
C	-1.3819594106	-0.6469948747	 0.0234122785	-0.064694
H	-0.3982956868	 1.6562095767	 0.935653978	 0.299736
H	 0.5633850556	-0.1751359914	-0.9510773314	 0.096591
H	 1.3229339022	-1.4428261701	 1.0563031077	 0.100468
H	 0.4801208153	-0.2664854982	 2.1029028577	 0.099404
H	-2.3259552393	-2.6522912813	 2.1394008532	 0.107508
H	-1.1844049994	-1.7028476555	 3.1045392746	 0.117354
H	-3.6593886773	-0.5265017257	 2.5602343847	 0.102697
H	-3.2671723114	 0.6315775303	 0.1939352167	 0.106408
H	-1.7523917291	-1.0939637967	-0.9069309936	 0.073686
111.2801	192.2477	287.5639	378.3217	395.0466	428.2079	526.3255	564.0459	647.7122	704.1293	754.0131	813.5154	832.5785	846.9441	871.3896	922.669	959.8991	984.7147	991.5795	1035.3083	1055.787	1078.969	1095.6378	1132.9695	1157.8295	1193.6646	1223.695	1248.0718	1253.1241	1262.3754	1297.9884	1313.1085	1324.4332	1331.2817	1354.5601	1420.6241	1455.1276	1486.1937	1502.8678	3007.0565	3017.6508	3032.5291	3065.021	3071.392	3094.0348	3145.2302	3163.8678	3782.9011
OC1CN2CC3OC3C12	O[C@H]1CN2C[C@H]3O[C@H]3[C@@H]12	
InChI=1S/C6H9NO2/c8-3-1-7-2-4-6(9-4)5(3)7/h3-6,8H,1-2H2	InChI=1S/C6H9NO2/c8-3-1-7-2-4-6(9-4)5(3)7/h3-6,8H,1-2H2/t3-,4+,5+,6+/m0/s1
