12
gdb 25135	3.69991	1.27622	0.94891	5.7843	73.59	-0.2595	-0.1108	0.1487	1115.2227	0.078612	-431.695054	-431.687929	-431.686984	-431.727266	25.904	
N	-0.02579805	 1.321466616	 0.0099468622	-0.500025
C	-0.0384513839	 0.0606342197	 0.0037272702	 0.432145
O	 1.2003591008	-0.6502253532	-0.0069540087	-0.220729
C	 1.2111441866	-1.9845649247	-0.0147757895	 0.107514
C	 0.0841588498	-2.7200659374	-0.0132331517	-0.238292
C	-1.1433587662	-1.96531189	-0.0027353549	 0.215653
N	-1.2093067114	-0.6720065542	 0.005063482	-0.306444
C	-2.390936778	-2.6950379168	-0.0005979708	 0.26387
N	-3.3574514072	-3.3290771493	 0.0006096133	-0.300814
H	 0.9293746884	 1.6765940253	 0.006904786	 0.237881
H	 2.2178341094	-2.3878993266	-0.0222582464	 0.162801
H	 0.0989103517	-3.7992200287	-0.0195185318	 0.146441
75.5211	141.3393	154.0789	357.6941	435.2625	443.963	450.7206	578.3462	591.09	711.7618	713.7851	770.2178	792.421	804.7165	858.9809	960.1705	972.67	1056.5766	1111.5336	1174.4301	1267.6402	1299.9011	1451.1298	1574.3064	1678.0896	1744.2004	2357.0216	3206.1534	3257.1765	3515.7532
N=C1OC=CC(=N1)C#N	[NH]C1=NC(=CCO1)C#N	
InChI=1S/C5H3N3O/c6-3-4-1-2-9-5(7)8-4/h1-2,7H	InChI=1S/C5H4N3O/c6-3-4-1-2-9-5(7)8-4/h1,7H,2H2
