18
gdb 93070	2.20704	1.72538	1.02675	3.9861	75.49	-0.2224	0.0075	0.2298	1153.0968	0.14916	-439.141019	-439.132735	-439.131791	-439.174001	31.403	
C	-0.0568102059	 1.4762008963	 0.1059666391	-0.392695
C	 0.0312159894	-0.035817362	-0.0451226844	 0.104129
C	 0.7102576595	-0.4686204568	-1.3418136078	-0.260344
C	 0.6825843273	-1.9527787991	-1.5519076228	-0.100815
C	 0.4555606174	-2.8876738612	-0.6276013622	 0.013884
N	 0.2401351269	-2.7457020015	 0.7498467668	-0.376548
C	 0.5934421133	-1.7257023334	 1.624966615	 0.442881
O	 0.7364759771	-1.933612478	 2.8033754059	-0.373338
O	 0.7824245764	-0.4983189199	 1.1032710643	-0.245883
H	 0.9415084418	 1.9227054033	 0.0709389381	 0.131509
H	-0.6584071592	 1.9040741077	-0.7012150113	 0.119065
H	-0.5160519064	 1.7377107652	 1.0620158232	 0.134458
H	-0.9729525302	-0.473896538	 0.0040982216	 0.103364
H	 0.2030226021	 0.0252796113	-2.1809521324	 0.109118
H	 1.7393366378	-0.0817452651	-1.3426817181	 0.121829
H	 0.8437523064	-2.3105867624	-2.5633942698	 0.093914
H	 0.4208782556	-3.930164042	-0.9265570383	 0.11232
H	 0.1193423907	-3.6066058544	 1.2607436232	 0.263153
90.0369	125.8516	165.3102	221.0926	282.0626	367.553	394.2168	428.5044	463.8144	548.4108	599.7168	651.0601	731.3377	763.7016	811.7623	846.1174	899.0012	924.0689	960.4123	967.292	1022.0554	1074.5579	1128.5261	1130.2859	1155.3962	1238.9809	1254.4935	1328.7756	1331.7579	1394.2331	1402.3839	1413.4799	1448.9993	1467.801	1485.7499	1489.4969	1498.9095	1748.8608	1833.3298	3006.2348	3033.5208	3046.2693	3047.9046	3120.534	3131.2082	3172.4566	3193.1321	3633.0272
CC1CC=CNC(=O)O1	C[C@H]1CC=CNC(=O)O1	
InChI=1S/C6H9NO2/c1-5-3-2-4-7-6(8)9-5/h2,4-5H,3H2,1H3,(H,7,8)	InChI=1S/C6H9NO2/c1-5-3-2-4-7-6(8)9-5/h2,4-5H,3H2,1H3,(H,7,8)/t5-/m0/s1
