19
gdb 82794	2.48107	2.04136	1.65655	1.6211	78.03	-0.2336	0.0086	0.2422	906.852	0.162413	-385.871341	-385.864571	-385.863627	-385.902138	28.676	
O	 0.1970270885	 1.3915337048	 0.1987470301	-0.429079
C	 0.018212397	 0.0124635724	 0.0240001948	 0.130606
C	-1.4182033997	-0.5956913421	 0.036596184	-0.06132
C	-2.5143882195	 0.2127244717	-0.7010616517	-0.252536
C	-2.0624097627	-0.4095854415	-2.0750726989	-0.064103
C	-1.1618415346	 0.4756569677	-2.8972611461	-0.084132
C	 0.1194503195	 0.3584027219	-2.5356790375	-0.098855
C	 0.2932020231	-0.617997773	-1.4006132612	-0.116915
C	-1.0812169258	-1.3474045607	-1.2940382477	-0.040799
H	-0.1787398833	 1.8295693499	-0.5748615466	 0.277833
H	 0.6351322833	-0.4701921817	 0.787415524	 0.088198
H	-1.7166288992	-1.0919954657	 0.9610038286	 0.062538
H	-3.5172934995	-0.1114156674	-0.4110210544	 0.102325
H	-2.4717575125	 1.3031958447	-0.6177127268	 0.092278
H	-2.8707085147	-0.8715372231	-2.6467159701	 0.069994
H	-1.5384519283	 1.1522279966	-3.6575418156	 0.095692
H	 0.9430974138	 0.925043064	-2.9562911989	 0.100167
H	 1.2051330259	-1.2162429669	-1.4598712791	 0.065839
H	-1.1371475214	-2.4263308318	-1.4299227969	 0.062269
136.2286	219.0171	306.7911	373.5288	431.8738	525.5571	551.9811	629.8108	648.2103	751.3918	772.7309	796.4079	814.8916	830.7921	882.2182	888.6598	916.7281	937.314	974.9575	994.664	1016.0162	1041.3482	1046.2824	1101.6721	1127.924	1135.9843	1143.7935	1161.5963	1202.5451	1217.9816	1241.3126	1249.3934	1279.7142	1290.8727	1301.335	1326.4199	1334.024	1372.4818	1436.764	1485.7104	1660.7703	3047.0023	3063.4735	3073.758	3080.0672	3091.2764	3102.0283	3123.8219	3177.3482	3202.944	3771.6114
OC1C2CC3C=CC1C23	O[C@H]1[C@H]2C[C@H]3C=C[C@@H]1[C@@H]23	
InChI=1S/C8H10O/c9-8-5-2-1-4-3-6(8)7(4)5/h1-2,4-9H,3H2	InChI=1S/C8H10O/c9-8-5-2-1-4-3-6(8)7(4)5/h1-2,4-9H,3H2/t4-,5-,6+,7+,8-/m1/s1
