19
gdb 99542	2.20623	1.21853	0.83966	4.0531	82.11	-0.2582	0.0201	0.2783	1385.7013	0.157263	-382.044435	-382.033983	-382.033038	-382.080102	37.645	
C	-0.0972962545	 1.605332125	 0.0092924909	-0.402939
C	 0.0318510059	 0.0802458184	-0.0186734948	-0.190571
C	 0.7306211896	-0.5048254162	 1.228252181	-0.145364
C	-0.0071085457	-0.1375436666	 2.4399153508	 0.293694
N	-0.6235674112	 0.1534429681	 3.3736078856	-0.33372
C	 0.8993017098	-2.0716832958	 1.1572933982	-0.172176
N	 1.604454246	-2.5694267327	-0.0206114731	-0.50602
C	 1.5792262371	-2.5490606148	 2.3616492081	 0.347651
C	 2.1693468287	-2.9024739996	 3.3459248924	-0.431376
H	 0.8854846685	 2.0842548075	 0.0771382337	 0.120628
H	-0.5822841412	 1.9656368849	-0.9023234877	 0.122221
H	-0.692690025	 1.9378004377	 0.8641435256	 0.150424
H	-0.9595856831	-0.3786205514	-0.1162815241	 0.117155
H	 0.6115825927	-0.2184240012	-0.8981957669	 0.09696
H	 1.7368438379	-0.0732327747	 1.3102621186	 0.124477
H	-0.1120866766	-2.4982937337	 1.1316090818	 0.130441
H	 1.1314382231	-2.2955981223	-0.8743578474	 0.237184
H	 2.5529275856	-2.2086138089	-0.0523840629	 0.235824
H	 2.6697925626	-3.2290987638	 4.2241439103	 0.205506
52.3678	90.1461	119.1924	157.5212	194.1182	209.5657	249.2756	280.4335	320.8225	342.1582	410.8529	481.225	525.239	579.7829	602.9076	647.9555	665.1845	772.8261	808.9189	885.7403	890.7546	950.9083	1001.6547	1059.7895	1104.986	1116.6877	1133.8023	1188.1706	1252.3108	1283.7181	1333.4973	1350.0784	1363.5699	1403.3763	1418.406	1487.7176	1499.5596	1507.8944	1648.1469	2245.0329	2352.8247	3020.4122	3030.4688	3038.5541	3040.7994	3076.9967	3108.9002	3122.8168	3502.4335	3503.2236	3596.9681
CCC(C#N)C(N)C#C	CC[C@@H](C#N)[C@@H](N)C#C	
InChI=1S/C7H10N2/c1-3-6(5-8)7(9)4-2/h2,6-7H,3,9H2,1H3	InChI=1S/C7H10N2/c1-3-6(5-8)7(9)4-2/h2,6-7H,3,9H2,1H3/t6-,7-/m0/s1
