23
gdb 64194	2.40031	1.4258	1.34397	1.4616	85.	-0.2341	0.0798	0.3139	1148.4225	0.204819	-388.274958	-388.265565	-388.264621	-388.308873	36.334	
C	-0.5696261441	 1.4033363701	 0.2344804591	-0.461525
C	-0.0108296813	-0.0008483693	 0.0289127293	 0.257962
C	-1.1122566637	-0.9587102766	-0.43858725	-0.421812
C	 1.2759505076	-0.1177400538	-0.849573615	-0.26315
C	 1.8689973592	-1.113443375	 0.1818560004	-0.300895
C	 0.8112117088	-0.6411110449	 1.2017518289	 0.442093
C	 1.2411423418	 0.1633936656	 2.451377679	-0.35968
C	 0.5660460543	-0.9719557368	 3.2409677856	-0.072968
O	 0.167025601	-1.6347404019	 2.0248975077	-0.314487
H	 0.206879289	 2.1112661608	 0.5420387934	 0.108402
H	-1.0079139618	 1.7816876333	-0.6963273426	 0.11296
H	-1.3589174185	 1.4136283021	 0.995669096	 0.113033
H	-1.561262714	-0.5931596597	-1.368760103	 0.104096
H	-0.7271113657	-1.9660229806	-0.6213376892	 0.117373
H	-1.8991942522	-1.0453274687	 0.3162037603	 0.120581
H	 1.1373490313	-0.4834579886	-1.8699923889	 0.096168
H	 1.8337341976	 0.8223139042	-0.8903588621	 0.094499
H	 1.6956864187	-2.1567398477	-0.0942732527	 0.114881
H	 2.91898101	-0.9966798782	 0.4631458444	 0.092536
H	 2.3196565263	 0.2625902806	 2.5890218744	 0.107034
H	 0.7752327338	 1.1429399773	 2.5650571347	 0.111353
H	 1.2364728068	-1.5956426849	 3.8448350225	 0.100786
H	-0.297041115	-0.6854160073	 3.8537846378	 0.100761
68.3374	89.879	208.3979	217.6011	226.4566	280.0884	299.575	341.1437	353.9923	450.0888	453.6389	528.6637	635.2561	743.488	783.9848	858.6806	861.7805	887.2936	907.6223	944.335	951.0765	966.5158	980.8164	999.8903	1023.252	1031.8717	1114.8159	1155.6915	1172.4882	1182.3802	1197.1169	1214.9227	1225.0866	1236.8679	1257.1669	1270.1845	1294.0317	1299.6319	1355.1015	1399.4544	1417.8279	1472.7872	1480.9674	1484.6637	1489.7359	1495.0339	1501.637	1507.8237	1531.0493	3016.1173	3019.9611	3033.1524	3052.8211	3055.0233	3060.1381	3077.0453	3083.3953	3093.2058	3099.3928	3102.4078	3111.6928	3118.5092	3131.939
CC1(C)CCC11CCO1	CC1(C)CC[C@]21CCO2	
InChI=1S/C8H14O/c1-7(2)3-4-8(7)5-6-9-8/h3-6H2,1-2H3	InChI=1S/C8H14O/c1-7(2)3-4-8(7)5-6-9-8/h3-6H2,1-2H3/t8-/m1/s1
