22
gdb 123186	1.95261	0.92059	0.65763	3.3092	84.05	-0.24	0.0368	0.2768	1769.9402	0.191093	-441.47296	-441.461827	-441.460883	-441.510967	37.971	
C	 1.1885279088	 1.4381103225	-0.5860886066	-0.386938
C	 0.7982819417	-2.5073*^-6	-0.2930976802	-0.030146
O	 1.0134613427	-0.7729591269	-1.4598440042	-0.244206
C	 0.7016029497	-2.1365574407	-1.3006141816	-0.053794
C	 1.1366620637	-2.879870587	-2.5521186802	-0.102747
O	 2.5522670637	-2.9653258434	-2.66032036	-0.205967
C	 3.1853170402	-1.911927595	-3.2243071046	 0.139147
N	 4.4412040622	-1.8570036759	-3.2311477838	-0.212592
C	 5.0484743274	-0.7220530182	-3.8936060743	-0.312483
H	 2.2419383889	 1.4977878579	-0.8734942386	 0.131818
H	 0.5851460041	 1.841698182	-1.4041978806	 0.126135
H	 1.0338811891	 2.0615800752	 0.2994076721	 0.117904
H	 1.396245614	-0.4035742784	 0.5403435851	 0.094615
H	-0.260714767	-0.0615990073	 0.0092946375	 0.087366
H	 1.2209525369	-2.5604311445	-0.4263084502	 0.10479
H	-0.382773671	-2.2804086551	-1.1502859224	 0.088048
H	 0.7744797701	-3.9107817101	-2.5125749583	 0.120177
H	 0.7078107721	-2.3939189271	-3.4384081632	 0.114418
H	 2.513966006	-1.1617174859	-3.6643936285	 0.084114
H	 4.3236560674	-0.0090209132	-4.3206626177	 0.093689
H	 5.6858775927	-0.1790351727	-3.1859634765	 0.122851
H	 5.7008975965	-1.0714777488	-4.7025337332	 0.123802
37.2461	55.1082	80.3061	104.2886	153.1475	162.769	204.0428	248.7031	252.2864	299.1648	346.9006	429.8399	455.51	505.5901	576.2604	821.5991	848.5485	906.3997	954.7027	973.1408	1052.1809	1057.2583	1071.2486	1119.1605	1141.3366	1157.3003	1161.9039	1167.5657	1190.3883	1229.5115	1270.4627	1298.7815	1331.9683	1385.7393	1395.2033	1406.5275	1417.6461	1448.2335	1451.3273	1481.6893	1484.2664	1487.415	1498.6261	1504.1062	1506.3867	1533.8645	1777.3995	2952.1694	2963.4978	2964.5162	2988.8187	2998.5985	3020.8032	3031.4813	3046.0029	3053.3604	3071.7004	3102.2258	3120.6956	3123.3047
CCOCCOC=NC	CCOCCOC=NC	
InChI=1S/C6H13NO2/c1-3-8-4-5-9-6-7-2/h6H,3-5H2,1-2H3	InChI=1S/C6H13NO2/c1-3-8-4-5-9-6-7-2/h6H,3-5H2,1-2H3
