18
gdb 70485	3.30265	1.03543	0.90687	4.829	75.53	-0.2511	0.0225	0.2736	1326.5735	0.14566	-439.044115	-439.03518	-439.034235	-439.078841	32.257	
C	-0.1093398339	 1.4907675792	 0.0136396805	-0.512725
C	 0.1331975238	 0.0174148981	 0.0221695662	 0.39637
O	-0.7153595403	-0.8097164111	 0.8270492209	-0.274605
C	 0.6979333549	-0.9269313573	 1.0124958135	-0.046464
C	 1.1833681901	-1.8971683194	-0.0705851148	-0.290129
C	 0.6594468318	-0.858460959	-1.1246839429	 0.076541
O	-0.3224501078	-1.2745776951	-2.0516755339	-0.188523
C	 0.0757528774	-1.5306378983	-3.3137846991	 0.126635
N	-0.7452324069	-1.9811218062	-4.1586611886	-0.439768
H	 0.7546861721	 2.0283285146	-0.3901603007	 0.122641
H	-0.9788275289	 1.7305867355	-0.6079142724	 0.14623
H	-0.3053553513	 1.8493842642	 1.0272164411	 0.138798
H	 1.0951472386	-0.7419044123	 2.0033679617	 0.109592
H	 2.2642622187	-2.0465123642	-0.1180853708	 0.107071
H	 0.6645889663	-2.8573252159	-0.0718178179	 0.130351
H	 1.4928986561	-0.3680098935	-1.6432626499	 0.087643
H	 1.1357979092	-1.2981147705	-3.4928742007	 0.081525
H	-0.2860325698	-2.0986975485	-5.0593585422	 0.228818
36.6085	101.5961	111.8959	190.9593	196.4564	269.9604	330.2107	385.7364	437.753	524.1557	618.2919	681.9358	750.6709	817.4568	852.2215	871.6836	906.9322	926.6776	972.6177	1029.6597	1043.1568	1046.1035	1068.7708	1099.8248	1136.9773	1171.5463	1207.2674	1208.2663	1263.7152	1283.164	1293.5298	1380.692	1406.0146	1427.8982	1454.3064	1475.1801	1486.8346	1494.7984	1746.7784	3006.7409	3029.8124	3038.4	3074.9948	3101.5851	3125.145	3138.6062	3194.7302	3518.9228
CC12OC1CC2OC=N	C[C@]12O[C@H]1C[C@H]2O[CH][NH]	
InChI=1S/C6H9NO2/c1-6-4(8-3-7)2-5(6)9-6/h3-5,7H,2H2,1H3	InChI=1S/C6H9NO2/c1-6-4(8-3-7)2-5(6)9-6/h3-5,7H,2H2,1H3/t4-,5+,6-/m1/s1
