17
gdb 55349	2.42374	1.88232	1.2238	2.8924	67.27	-0.2376	0.0107	0.2482	1008.9904	0.13838	-455.160989	-455.153404	-455.15246	-455.193092	29.249	
O	-1.0464019184	-0.1516426537	-0.1365430701	-0.259026
C	-0.3657450022	 1.0119103802	-0.2301332233	 0.414623
O	 0.7886936909	 1.0921214364	-0.5442701744	-0.35085
C	-1.3243470889	 2.1585569768	 0.1061288848	-0.139088
C	-1.7643115951	 3.0008450977	-1.1109867734	-0.242478
C	-2.9636072732	 2.0232565605	-1.2169450376	-0.182458
N	-2.6596571276	 1.5222555678	 0.1611537793	-0.088375
C	-2.4401472808	 0.1107249171	 0.3528341891	 0.139653
N	-3.3989766518	-0.7147954273	-0.2734020418	-0.493951
H	-3.3380985941	-0.6644337931	-1.2842196294	 0.243437
H	-3.2818437708	-1.6817402016	 0.0031678374	 0.252994
H	-0.9910631801	 2.6822381403	 1.0073849745	 0.111382
H	-2.0587750222	 4.0134229883	-0.8334598334	 0.12392
H	-1.0692586679	 3.0378447345	-1.9496180433	 0.132202
H	-3.9627732567	 2.4531299711	-1.3084330539	 0.121791
H	-2.8232106295	 1.2805337855	-2.0120234411	 0.104837
H	-2.4065144517	-0.1217221605	 1.4223277867	 0.111386
119.5768	124.7241	238.1842	251.5828	288.196	346.0246	507.2412	541.3549	590.4869	670.3975	698.4173	740.8349	768.9928	800.141	831.2013	875.1032	922.6972	951.3617	1014.1894	1040.5093	1072.2219	1102.627	1160.134	1182.0831	1207.3269	1241.7346	1260.1314	1264.0611	1286.8936	1313.0798	1325.3205	1356.5799	1461.3099	1490.0041	1513.1835	1665.883	1870.7538	3024.9457	3059.608	3064.8294	3092.9439	3105.3473	3151.6798	3532.2872	3615.5661
[O-]C(=O)C1CCN1C=[NH2+]	O1C(=O)[C@H]2CCN2[C@H]1N	
InChI=1S/C5H8N2O2/c6-3-7-2-1-4(7)5(8)9/h3-4,6H,1-2H2,(H,8,9)	InChI=1S/C5H8N2O2/c6-5-7-2-1-3(7)4(8)9-5/h3,5H,1-2,6H2/t3-,5-/m1/s1
