19
gdb 73790	2.16299	1.74713	1.0135	4.8925	79.99	-0.2537	-0.0328	0.2208	1181.7978	0.158982	-423.08918	-423.08009	-423.079146	-423.123227	33.198	
C	 0.4039792397	 1.5272949198	 0.1098769409	-0.487726
C	 0.1796527133	 0.0481943727	-0.0246607901	 0.207308
C	-0.1205740274	-0.5990925971	-1.1668383181	 0.049052
C	-0.3244967538	 0.026003211	-2.5216987864	-0.478528
C	-0.1585874104	-2.0924851436	-1.1955004742	 0.387871
O	-0.1357764243	-2.7204680037	-2.2246775053	-0.336012
O	-0.1693700707	-2.7683795132	-0.0168212644	-0.231232
C	-0.4599135805	-2.031215196	 1.1736874258	-0.084343
C	 0.349949576	-0.7501917007	 1.2467735536	-0.307501
H	 1.3678739091	 1.7156633169	 0.5998329042	 0.135685
H	 0.4000531094	 2.0577436012	-0.8417625271	 0.134803
H	-0.3614161943	 1.9750156743	 0.7569601223	 0.134888
H	 0.4746942783	-0.2720520701	-3.2075652629	 0.147027
H	-1.2559813593	-0.3355658195	-2.9678546673	 0.141577
H	-0.3643377754	 1.1146600454	-2.4795335941	 0.113698
H	-1.5333587697	-1.7994703103	 1.1972251952	 0.110917
H	-0.2367852757	-2.7091825448	 2.0005409816	 0.121867
H	 1.4139637921	-0.9744182986	 1.4094565101	 0.127799
H	 0.0223948138	-0.1633001135	 2.1132148762	 0.112851
82.0201	102.9115	126.3604	145.6273	227.9225	315.3278	327.9824	343.0824	447.2229	468.926	509.2854	536.9345	658.1703	673.0951	781.2406	840.9177	907.6739	940.1296	1004.7115	1013.7296	1064.9714	1090.1552	1101.7432	1113.5494	1164.817	1177.8938	1233.9524	1274.336	1324.8094	1378.5209	1408.3784	1419.0797	1430.1833	1466.1229	1470.9242	1478.5448	1482.3525	1493.5046	1508.6256	1713.09	1810.1142	3008.6046	3019.043	3022.5768	3050.6109	3060.1514	3065.2764	3101.3858	3104.7441	3139.5279	3154.0048
CC1=C(C)C(=O)OCC1	CC1=C(C)C(=O)OCC1	
InChI=1S/C7H10O2/c1-5-3-4-9-7(8)6(5)2/h3-4H2,1-2H3	InChI=1S/C7H10O2/c1-5-3-4-9-7(8)6(5)2/h3-4H2,1-2H3
