20
gdb 15442	4.83283	0.82662	0.76208	0.9156	72.16	-0.258	0.0767	0.3347	1497.2604	0.175844	-386.111258	-386.101642	-386.100698	-386.146317	34.012	
O	 0.0554162471	 1.4052161882	 0.1590285777	-0.423177
C	 0.0139414384	-0.0102299568	 0.2643267194	-0.065368
C	-1.338919099	-0.4795572819	-0.2615912959	-0.200883
C	-1.4757631381	-1.9876062635	-0.2089149914	-0.014468
C	-1.9534847849	-2.6931052263	 1.0396357095	-0.283354
C	-2.8048628908	-2.7099077212	-0.2055713647	-0.000963
C	-4.1272229354	-1.9906491831	-0.2445454974	-0.097442
O	-5.1088902462	-2.8573268223	 0.3133890295	-0.421169
H	 0.9029328595	 1.7070787312	 0.498065168	 0.284792
H	 0.8222163875	-0.477848224	-0.3222454575	 0.081766
H	 0.1378060617	-0.339919845	 1.3080917566	 0.089292
H	-2.1197950719	 0.008231592	 0.3308504592	 0.105066
H	-1.4523092642	-0.1168332729	-1.2908989748	 0.104638
H	-0.6947233957	-2.5062527006	-0.7614945537	 0.080586
H	-1.4648923705	-3.6089929645	 1.3527973146	 0.109018
H	-2.2979042987	-2.0712045814	 1.8608765765	 0.110883
H	-2.8271636752	-3.6481578838	-0.7534155272	 0.088566
H	-4.0694879125	-1.0482643265	 0.3203580999	 0.083532
H	-4.3811639638	-1.7309537358	-1.2853852912	 0.085103
H	-5.9662453473	-2.4310431716	 0.2216261428	 0.283581
64.2881	91.0635	98.2606	114.9686	214.4666	256.9021	265.1817	291.992	315.6166	425.0411	459.7379	562.3349	780.5037	806.4259	840.859	896.9901	907.8186	952.3472	1012.3367	1052.4142	1056.9582	1071.274	1075.2931	1091.7204	1142.8413	1171.497	1188.4497	1232.3564	1238.2348	1248.0073	1258.5621	1284.03	1314.9337	1327.6241	1386.2791	1427.9159	1460.0741	1471.8644	1491.6226	1498.3286	1521.152	1527.7764	2960.6685	2964.2066	2990.5323	2999.6669	3033.5682	3082.6221	3121.4074	3126.2157	3145.0894	3211.0854	3823.8812	3831.4396
OCCC1CC1CO	OCC[C@H]1C[C@H]1CO	
InChI=1S/C6H12O2/c7-2-1-5-3-6(5)4-8/h5-8H,1-4H2	InChI=1S/C6H12O2/c7-2-1-5-3-6(5)4-8/h5-8H,1-4H2/t5-,6-/m0/s1
