18
gdb 100366	1.90068	1.2678	1.23525	4.3	76.5	-0.2524	0.0153	0.2677	1200.3217	0.14376	-439.039838	-439.029563	-439.028619	-439.075006	37.066	
C	 0.4118979759	 1.7567752027	-0.129728556	-0.415689
C	 0.0482090449	 0.3030965427	 0.1951619079	 0.152008
C	 0.8276065754	-0.1779584962	 1.4450046157	-0.076762
O	 0.6149138931	-1.537532495	 1.7480941575	-0.415774
O	-1.3608199245	 0.3368658724	 0.4828411359	-0.22224
C	-2.0613220998	-0.8198064748	 0.5724673946	 0.135825
N	-3.2383915436	-0.7811366023	 1.0254610082	-0.446137
C	 0.3649090573	-0.5768933974	-0.93935546	 0.303598
C	 0.6757198256	-1.3088658092	-1.8418545148	-0.485187
H	 1.4712498612	 1.8417793889	-0.3816560588	 0.129152
H	-0.1832331151	 2.1059507327	-0.975285321	 0.145226
H	 0.1926085439	 2.388018918	 0.7354897789	 0.136953
H	 1.8940958459	 0.0487661985	 1.3001055703	 0.100295
H	 0.4618673022	 0.3950728467	 2.3015710413	 0.132932
H	 0.9819386551	-2.0565196546	 1.0224906145	 0.288796
H	-1.5252125999	-1.6971909114	 0.2058808122	 0.098307
H	-3.6452578454	-1.7141070737	 0.9982771236	 0.226585
H	 0.932320568	-1.9374358881	-2.6596724498	 0.212112
68.329	101.7466	139.1846	152.8573	189.146	210.2356	232.0329	271.1312	361.8982	378.8236	433.0945	455.0394	494.9777	609.6935	638.4066	648.7275	680.0925	748.6059	817.0869	900.4379	915.8569	987.0643	1031.2339	1077.4869	1109.0408	1137.2445	1166.3503	1189.0124	1262.4782	1300.1429	1384.2065	1404.3061	1421.0036	1424.8176	1477.9975	1488.1531	1493.5427	1736.7974	2223.6694	2999.8333	3055.8327	3100.9034	3107.0979	3135.5414	3146.0832	3494.9982	3512.6803	3788.5551
CC(CO)(OC=N)C#C	C[C@@](CO)(O[CH][NH])C#C	
InChI=1S/C6H9NO2/c1-3-6(2,4-8)9-5-7/h1,5,7-8H,4H2,2H3	InChI=1S/C6H9NO2/c1-3-6(2,4-8)9-5-7/h1,5,7-8H,4H2,2H3/t6-/m1/s1
