23
gdb 81351	2.38228	1.42944	1.32335	1.2097	84.88	-0.2542	0.0712	0.3253	1152.594	0.206822	-388.283699	-388.274763	-388.273819	-388.316539	35.688	
C	-0.1263262465	 1.5509554946	 0.0920891033	-0.437479
C	 0.0051341292	 0.0331776093	 0.0451081406	 0.056501
C	 0.7161562199	-0.5937091104	-1.2008268982	-0.028849
C	 2.0635034342	-0.3014871633	-0.4790313239	-0.255012
C	 1.2193090987	-0.6129765382	 0.7885643733	-0.029844
C	 0.9273781265	-2.108303581	 0.6032500726	 0.107114
O	-0.1362692559	-2.4866802957	 1.4627857912	-0.433045
C	 0.5789377358	-2.1123118574	-0.9427922198	-0.008729
C	-0.7647044367	-2.7379004281	-1.3115831263	-0.424068
H	 0.8024905287	 2.0766505653	-0.1465476979	 0.113523
H	-0.8870614102	 1.8913613357	-0.6194764222	 0.112241
H	-0.4425144485	 1.8776594189	 1.0889296534	 0.116033
H	-0.9590855	-0.4105933159	 0.3051780882	 0.078324
H	 0.5135125419	-0.2421927708	-2.2150104526	 0.049501
H	 2.9105560535	-0.9581973058	-0.7042770028	 0.083733
H	 2.3853193387	 0.737622613	-0.5383428863	 0.099642
H	 1.5222170982	-0.2995516984	 1.7885620076	 0.058101
H	 1.8150435403	-2.7216024978	 0.8140351035	 0.056898
H	-0.3291687653	-3.4169906544	 1.3132747408	 0.281598
H	 1.3661112735	-2.644886713	-1.4901563884	 0.062755
H	-1.6013810696	-2.2559961548	-0.8003269372	 0.130198
H	-0.9360361253	-2.6623117612	-2.3906027306	 0.112228
H	-0.7931802609	-3.8044942309	-1.0576571484	 0.098637
142.9802	182.8486	189.205	206.9317	257.4134	264.7928	280.7235	366.8499	395.5659	483.2068	510.6408	551.4932	695.0096	768.1741	791.8697	829.0317	856.0174	872.6195	904.5586	942.4751	997.3956	1008.1455	1017.3436	1045.8814	1067.4558	1090.7234	1097.6719	1106.4326	1117.4661	1149.4599	1156.677	1201.5923	1226.4721	1253.3113	1256.1108	1272.5788	1284.69	1320.3795	1340.8612	1371.5908	1399.3729	1407.2872	1415.9478	1424.9142	1494.5546	1496.3179	1497.1717	1500.78	1520.5553	2988.2865	3022.6822	3030.0153	3030.9252	3048.7179	3072.7444	3083.3995	3086.5016	3088.0701	3106.0133	3109.3672	3122.2708	3137.7146	3826.2518
CC1C2CC1C(O)C2C	C[C@H]1[C@H]2C[C@@H]1[C@@H](O)[C@H]2C	
InChI=1S/C8H14O/c1-4-6-3-7(4)8(9)5(6)2/h4-9H,3H2,1-2H3	InChI=1S/C8H14O/c1-4-6-3-7(4)8(9)5(6)2/h4-9H,3H2,1-2H3/t4-,5-,6+,7-,8-/m0/s1
