22
gdb 115816	4.48126	0.91272	0.83339	2.3473	82.82	-0.2393	0.0767	0.316	1468.0718	0.194981	-404.33339	-404.324297	-404.323353	-404.367794	34.376	
C	 0.1331262915	 1.4843823745	 0.2437292659	-0.383814
C	 0.0226991305	-0.0145638647	-0.0481221987	-0.193079
C	-1.4063345279	-0.5319867336	 0.0187582382	 0.15697
C	-1.5893133329	-2.0341049803	-0.258723148	-0.341634
C	-2.8438064883	-2.3715884799	 0.5465768718	 0.322665
C	-3.9521226857	-3.2010426777	 0.0199403468	-0.295625
N	-3.0809685984	-3.7098701257	 1.1004602367	-0.351881
C	-3.072051784	-1.1615293123	 1.4598442084	-0.13536
O	-1.9050962113	-0.3620718338	 1.3459539506	-0.264658
H	 1.1750025045	 1.8167160197	 0.2105900486	 0.10928
H	-0.428448114	 2.0723009575	-0.490933073	 0.110567
H	-0.2698120884	 1.712646643	 1.2336327485	 0.138348
H	 0.4224883123	-0.2366772173	-1.0455223468	 0.094453
H	 0.6250268468	-0.5835057819	 0.6708858317	 0.102676
H	-2.0383199901	 0.0441113692	-0.6827024787	 0.059088
H	-1.6822882434	-2.2618298726	-1.3239739119	 0.103589
H	-0.7267789166	-2.5846675734	 0.1373266317	 0.105354
H	-4.9775614164	-2.9987816532	 0.3212723643	 0.11699
H	-3.8518779953	-3.6217124456	-0.9778654589	 0.109476
H	-2.406956649	-4.3694954394	 0.7173667695	 0.227752
H	-3.9613386986	-0.594437099	 1.1388780715	 0.087453
H	-3.1988010651	-1.4542432534	 2.5049597218	 0.121388
39.8977	107.4961	142.8623	180.507	241.2989	299.1639	320.5441	393.6596	416.0265	450.9788	525.7031	620.9777	770.6117	788.0683	824.9916	862.5263	906.1353	942.1644	951.2722	959.5785	976.6186	1004.5163	1047.866	1063.8811	1084.115	1117.4628	1129.0956	1139.7188	1155.9204	1213.7728	1241.3048	1262.6041	1268.9781	1302.5398	1305.4077	1341.524	1344.9027	1379.93	1407.3818	1416.728	1419.6438	1473.9972	1484.2532	1496.7399	1509.2871	1511.5599	1515.0327	2926.4137	2968.0393	3023.8817	3029.4818	3037.0671	3063.3105	3094.0085	3096.522	3097.5457	3101.8979	3125.4176	3179.5954	3484.5134
CCC1CC2(CN2)CO1	CC[C@H]1C[C@]2(CN2)CO1	
InChI=1S/C7H13NO/c1-2-6-3-7(4-8-7)5-9-6/h6,8H,2-5H2,1H3	InChI=1S/C7H13NO/c1-2-6-3-7(4-8-7)5-9-6/h6,8H,2-5H2,1H3/t6-,7-/m0/s1
