22
gdb 119373	3.18655	0.93751	0.83238	1.6368	82.8	-0.2234	0.076	0.2995	1469.0718	0.194038	-404.26561	-404.256151	-404.255207	-404.30036	35.388	
C	-0.1011813585	 1.5534221924	-0.0419662942	-0.444096
C	 0.1073935548	 0.0524875793	 0.0259931865	 0.044552
N	 1.288624006	-0.5685902517	-0.76174116	-0.161737
C	 2.1649407073	-0.1213552023	 0.4205169115	-0.219784
C	 0.909180086	-0.6664699802	 1.1508184126	 0.304085
C	 0.5997405578	-0.7339134489	 2.6286366996	-0.331023
C	 1.6108321631	-1.5544509214	 3.4218337682	-0.070797
O	 1.2131405603	-1.5324378214	 4.7839774815	-0.41842
C	 1.0173462574	-1.8078020578	 0.1059407072	-0.204625
H	-0.3294347876	 1.8478141014	-1.0717673538	 0.132104
H	-0.9574104381	 1.833969626	 0.5809201951	 0.12149
H	 0.7575128554	 2.1399401383	 0.2916546423	 0.119033
H	-0.829761304	-0.4494111858	-0.2452484744	 0.06622
H	 3.0927544979	-0.6951255547	 0.5033698706	 0.095534
H	 2.3776738227	 0.9480112582	 0.4481597159	 0.099491
H	 0.5676461332	 0.279238281	 3.0485236605	 0.108874
H	-0.3970310396	-1.1674071494	 2.7785073292	 0.107417
H	 1.6418162417	-2.5846702337	 3.0317549995	 0.088313
H	 2.6188984486	-1.1276904752	 3.2935804334	 0.088037
H	 1.8459866017	-2.0490270505	 5.2912759559	 0.285316
H	 0.1038205351	-2.3440759924	-0.1690212862	 0.095865
H	 1.873528959	-2.4856239812	 0.1662170592	 0.094151
65.6886	89.6875	113.4026	158.2673	218.748	266.0515	308.8781	346.6699	369.8591	416.6766	579.0554	609.1643	686.9804	752.3177	772.5291	815.7373	831.4264	900.5496	939.6788	950.4241	995.9512	1023.1294	1035.6759	1062.4205	1074.3321	1111.2369	1139.048	1157.0967	1172.4219	1178.9731	1197.4507	1204.5355	1245.7779	1252.744	1262.3413	1312.5338	1315.4972	1363.1307	1405.1667	1432.4736	1461.8829	1483.9991	1489.8846	1494.7161	1521.3957	1527.7944	1558.4591	2963.0845	2988.4166	3023.7968	3026.4636	3039.6367	3042.9356	3060.4702	3067.7846	3099.766	3108.0387	3118.9994	3133.1367	3828.5451
CC1N2CC1(CCO)C2	C[C@H]1N2C[C@]1(CCO)C2	
InChI=1S/C7H13NO/c1-6-7(2-3-9)4-8(6)5-7/h6,9H,2-5H2,1H3	InChI=1S/C7H13NO/c1-6-7(2-3-9)4-8(6)5-7/h6,9H,2-5H2,1H3/t6-/m1/s1
