15
gdb 34903	1.96033	1.93688	1.21349	6.5339	72.65	-0.3096	-0.0044	0.3051	1023.5208	0.11371	-379.664612	-379.656903	-379.655959	-379.697242	28.449	
N	-0.2579624471	-1.2025748579	-0.0004990618	-0.320598
C	-0.1490631702	-0.0521414183	 0.0162909702	 0.303206
C	-0.0207651515	 1.3977234374	 0.0560241848	-0.189759
C	-0.2855630403	 2.097389067	 1.4008164905	-0.04811
C	 0.7391530356	 1.6887987213	 2.4176000609	-0.291485
C	 1.110896265	 2.7167680998	 1.3899995691	-0.048125
C	 1.4343149673	 2.0430949957	 0.0447302045	-0.189781
C	 2.5945372803	 1.1647088759	-0.0048771935	 0.303226
N	 3.5201255232	 0.4731158618	-0.0298629806	-0.320609
H	-0.608775795	 1.8280038158	-0.7571223223	 0.140552
H	-1.2345367222	 2.5439920798	 1.6649513683	 0.116531
H	 0.5723680409	 2.0820741124	 3.4142904237	 0.134685
H	 1.1794917472	 0.6957451969	 2.3956112138	 0.153174
H	 1.4202091256	 3.7214546348	 1.6443678544	 0.116534
H	 1.4995716912	 2.7630154375	-0.773541992	 0.140559
92.5589	100.8103	162.514	213.1154	324.8989	398.3657	456.3977	518.5738	588.1838	612.3231	732.2947	762.5219	798.1122	816.6319	931.3567	976.6238	981.3395	1032.9185	1044.8552	1047.6596	1067.338	1075.9766	1092.1473	1155.7214	1200.3939	1246.4287	1281.3558	1330.2986	1342.2626	1368.4282	1491.9409	2358.4814	2358.776	3089.4288	3101.5708	3126.2858	3203.4432	3209.5665	3221.1907
N#CC1C2CC2C1C#N	N#C[C@H]1[C@H]2C[C@H]2[C@H]1C#N	
InChI=1S/C7H6N2/c8-2-6-4-1-5(4)7(6)3-9/h4-7H,1H2	InChI=1S/C7H6N2/c8-2-6-4-1-5(4)7(6)3-9/h4-7H,1H2/t4-,5+,6-,7+
