14
gdb 131740	2.35666	1.47954	0.91952	1.3654	72.02	-0.2493	-0.0307	0.2186	1178.9022	0.101425	-432.831372	-432.823078	-432.822133	-432.865152	29.675	
O	 0.2638762067	 1.1377716674	 0.8787408213	-0.411009
C	-0.0124770699	 0.2777637275	-0.2031529436	-0.180106
C	-1.4012670945	-0.2881296023	-0.1571680532	 0.191886
N	-2.0734358393	-0.3721704318	 0.9868699148	-0.268135
N	-3.2196060536	-0.945952373	 0.6332979652	-0.095697
N	-3.3655541179	-1.247736933	-0.6420574162	-0.273894
C	-2.2063371798	-0.8390261105	-1.1858296444	 0.148664
C	-1.9061301235	-0.9618777683	-2.5614439575	 0.283054
C	-1.6053142184	-1.0440761055	-3.7234288045	-0.440351
H	-0.1550000255	 0.7603269698	 1.6606375621	 0.299389
H	 0.1163727873	 0.8538059427	-1.1258674998	 0.132835
H	 0.7090420053	-0.5562199183	-0.251947081	 0.112795
H	-3.9508663326	-1.1245643522	 1.3030498046	 0.299003
H	-1.3508954644	-1.1213437825	-4.7516961979	 0.201567
40.1481	115.4226	173.3076	208.2111	260.5947	308.4325	395.4864	482.3854	524.3521	581.3253	596.1163	599.8763	679.6444	707.2856	745.9222	782.0586	1003.9443	1018.6651	1086.0516	1153.5346	1199.5942	1230.9356	1263.1527	1320.576	1368.5716	1435.256	1450.2158	1497.8618	1511.9343	1546.6142	2243.7054	2954.4437	3066.71	3501.7479	3664.9896	3801.1976
OCC1=NNN=C1C#C	OCc1n[nH]nc1C#C	
InChI=1S/C5H5N3O/c1-2-4-5(3-9)7-8-6-4/h1,9H,3H2,(H,6,7,8)	InChI=1S/C5H5N3O/c1-2-4-5(3-9)7-8-6-4/h1,9H,3H2,(H,6,7,8)
