15
gdb 28162	5.25528	1.2961	1.04646	2.9775	74.6	-0.195	0.0216	0.2166	1091.4124	0.115029	-416.84725	-416.840071	-416.839127	-416.878757	27.442	
C	 0.0859315173	 1.4448224957	 0.0401706304	-0.48987
C	-0.0695544819	-0.03015721	-0.0123675377	 0.347678
C	-1.1392876746	-0.8535126979	-0.2084408673	-0.409592
C	-0.6222246557	-2.1963622173	-0.1448170101	 0.237249
C	 0.7146728405	-2.0376115114	 0.0847215012	 0.403494
N	 1.2863647471	-3.2726126442	 0.1595887584	-0.414397
C	 0.2193622741	-4.1465814358	-0.0369421264	-0.014029
N	-0.9318707694	-3.5405561766	-0.2213090953	-0.341931
O	 1.1176055681	-0.7627465331	 0.1758130823	-0.249964
H	 0.7723985929	 1.8095496891	-0.7331001934	 0.136334
H	-0.8856650688	 1.9187767176	-0.1165163244	 0.138594
H	 0.4765040855	 1.7788947702	 1.0087155897	 0.136326
H	-2.1522455533	-0.5214943754	-0.3742536554	 0.114964
H	 2.2483449928	-3.5168941129	 0.3182720122	 0.274734
H	 0.3758426952	-5.214669078	-0.0294441645	 0.130409
136.9204	140.604	249.351	277.7119	346.6116	407.3788	503.7619	561.7044	611.1248	645.2207	740.9408	763.1269	781.9848	812.9258	814.1893	901.5487	970.1	1012.887	1056.1794	1064.2647	1137.0711	1174.0061	1232.9462	1294.2066	1355.3464	1411.6879	1442.6524	1469.1492	1486.7791	1488.8378	1561.8761	1577.2329	1644.811	3024.4251	3072.1664	3127.6402	3255.0057	3256.668	3680.7841
CC1=CC2=C(NC=N2)O1	Cc1cc2c([nH]cn2)o1	
InChI=1S/C6H6N2O/c1-4-2-5-6(9-4)8-3-7-5/h2-3H,1H3,(H,7,8)	InChI=1S/C6H6N2O/c1-4-2-5-6(9-4)8-3-7-5/h2-3H,1H3,(H,7,8)
