15
gdb 12433	3.6575	2.01562	1.3929	4.0171	70.45	-0.2342	-0.0541	0.1802	860.3562	0.121509	-362.703453	-362.69668	-362.695735	-362.734428	25.891	
O	 0.0177097594	-0.0365357973	 0.4015570226	-0.380928
C	-0.0098286502	 1.1576031306	 0.1436861158	 0.371924
N	-1.190742074	 1.8210915375	-0.0631357461	-0.309579
C	-1.3521276993	 3.2683353058	-0.0687191589	-0.235323
C	-0.7364012812	 3.9130108143	-1.2854601444	-0.066037
C	 0.5646081117	 3.7729415796	-1.5691713469	-0.060377
C	 1.507846337	 2.9963890613	-0.7765755262	-0.08151
C	 1.2566477566	 1.9279812669	 0.0042524964	-0.164227
H	-2.0087715859	 1.2400155144	 0.0429214267	 0.24792
H	-2.4226310149	 3.4778177136	-0.0249110834	 0.11898
H	-0.9021943047	 3.7007592103	 0.8385382658	 0.127393
H	-1.3712917599	 4.5170936508	-1.9262290991	 0.105044
H	 0.9790478688	 4.2943271631	-2.4283291824	 0.101169
H	 2.548307897	 3.3045233049	-0.8634507124	 0.106512
H	 2.0853522895	 1.4298634843	 0.4968596424	 0.11904
88.4252	213.0283	272.9269	357.5688	378.664	466.8224	498.4782	545.7282	657.8647	721.9576	740.5983	799.2731	846.3871	892.7134	932.6725	952.483	998.9238	1025.0615	1050.6638	1129.5779	1221.5888	1236.1911	1296.3554	1332.3361	1388.7241	1412.721	1440.9356	1464.6567	1484.1339	1647.4124	1696.9537	1758.2109	2983.9194	3107.3956	3139.606	3158.5552	3183.9183	3192.1946	3620.5539
O=C1NCC=CC=C1	O=C1NCC=CC=C1	
InChI=1S/C6H7NO/c8-6-4-2-1-3-5-7-6/h1-4H,5H2,(H,7,8)	InChI=1S/C6H7NO/c8-6-4-2-1-3-5-7-6/h1-4H,5H2,(H,7,8)
