21
gdb 98439	2.90018	1.15809	0.98614	2.6208	78.91	-0.2387	-0.0097	0.229	1310.6425	0.180051	-424.240223	-424.23025	-424.229306	-424.275632	36.801	
C	-0.0720874067	 1.5528001428	 0.0603460275	-0.383951
C	 0.0523411684	 0.0331409535	-0.000773181	-0.276044
C	 0.8366983303	-0.4551051633	-1.2050633695	 0.358678
O	 1.3654785311	 0.3048430481	-1.9872596889	-0.321388
C	 0.9009345627	-1.9676094443	-1.4350998312	 0.296842
O	 0.6540449322	-2.6041548746	-0.2027297709	-0.481533
C	-0.0007323904	-2.3606571026	-2.6588610357	-0.269066
C	 1.2682959559	-2.3611959216	-3.5504874212	-0.204461
C	 2.1427408723	-2.3999318052	-2.2699233765	-0.260421
H	 0.9131839164	 2.024916343	 0.0876973911	 0.130502
H	-0.5916556862	 1.9416773987	-0.8196722071	 0.124939
H	-0.6275679512	 1.857194627	 0.9519018853	 0.10782
H	 0.5440503002	-0.3723179807	 0.8921598761	 0.140066
H	-0.9284941245	-0.4594863481	-0.0116554006	 0.123874
H	 0.6176499552	-3.5531298248	-0.357835663	 0.279156
H	-0.4069104993	-3.3668370557	-2.5074334988	 0.092458
H	-0.8221612401	-1.6899897613	-2.9226979029	 0.108773
H	 1.3737748761	-3.1895661366	-4.2534446112	 0.096638
H	 1.3882458377	-1.4176535024	-4.08329884	 0.131495
H	 3.0088348828	-1.7382293213	-2.229569017	 0.117993
H	 2.4451898271	-3.4162438107	-1.9975720243	 0.087633
32.4865	88.5271	137.6669	188.1554	205.7743	234.3365	265.4276	304.4546	326.2265	391.1967	441.2541	560.2725	569.3735	649.7803	724.5334	779.5637	790.7624	810.4389	888.2446	939.2161	974.1457	982.201	999.6868	1038.1851	1045.1935	1096.7165	1107.4749	1150.4171	1198.5465	1209.1726	1219.9566	1246.0248	1269.4089	1277.7281	1284.0076	1361.7374	1406.6966	1414.2306	1440.4409	1459.1091	1477.3421	1492.9429	1495.5313	1498.3772	1796.068	3037.8606	3042.139	3049.4875	3053.9565	3062.8813	3080.4348	3102.225	3119.3165	3125.4458	3126.6924	3144.7928	3818.8709
CCC(=O)C1(O)CCC1	CCC(=O)C1(O)CCC1	
InChI=1S/C7H12O2/c1-2-6(8)7(9)4-3-5-7/h9H,2-5H2,1H3	InChI=1S/C7H12O2/c1-2-6(8)7(9)4-3-5-7/h9H,2-5H2,1H3
