13
gdb 21920	3.58408	1.80385	1.21994	4.2334	56.51	-0.2224	0.0018	0.2242	908.309	0.096578	-431.906612	-431.899239	-431.898295	-431.938841	26.161	
O	-0.1084524755	 1.4617294034	 0.3144161753	-0.427831
C	 0.0517866049	 0.0974382209	-0.0578064943	-0.198614
C	-1.2942782504	-0.5377476526	 0.0028862706	 0.267429
C	-1.7464480659	-1.8329271754	 0.1277394416	 0.273605
O	-1.0020423547	-2.9501150238	 0.2601340826	-0.432933
N	-3.0981569655	-1.8504514707	 0.0947148805	-0.281081
N	-3.5333527427	-0.6195402587	-0.040435255	-0.128281
N	-2.4536870995	 0.1629598346	-0.1083679397	-0.209903
H	 0.7147668356	 1.9232870256	 0.1305579258	 0.298656
H	 0.4698235566	 0.0172880513	-1.0743254927	 0.117161
H	 0.7367713506	-0.4383523583	 0.615673015	 0.125222
H	-1.6213812938	-3.6862000373	 0.3438195481	 0.307498
H	-2.5448056496	 1.1653919811	-0.1626962777	 0.289073
50.8732	168.6922	214.0739	268.303	320.9038	349.4851	377.295	533.4304	602.6745	656.9512	706.8865	743.6209	785.8827	1012.4115	1037.5014	1063.07	1118.0152	1158.1391	1207.285	1228.1762	1258.5909	1296.3985	1366.4318	1389.7183	1466.2635	1518.3284	1540.2538	1685.5815	2968.2293	3008.1929	3658.5592	3794.387	3838.1428
OCC1=C(O)N=NN1	OCc1c(O)nn[nH]1	
InChI=1S/C3H5N3O2/c7-1-2-3(8)5-6-4-2/h7H,1H2,(H2,4,5,6,8)	InChI=1S/C3H5N3O2/c7-1-2-3(8)5-6-4-2/h7H,1H2,(H2,4,5,6,8)
