19
gdb 64445	2.24168	1.73769	1.26799	3.2177	70.92	-0.2653	0.0047	0.27	1060.9528	0.159013	-460.205446	-460.196641	-460.195697	-460.238773	32.996	
C	 0.0848532412	 1.5363859961	-0.0512609148	-0.422549
C	 0.0242854991	 0.0041062985	-0.0137113738	 0.099444
C	-1.442745313	-0.4791691085	 0.0544034521	-0.414829
C	 0.7081443564	-0.5936093969	-1.2530942952	-0.12479
O	 0.8885727448	-1.9935867919	-1.0843533115	-0.221868
C	 1.7845813575	-2.2315639319	-0.0583660422	 0.014299
O	 1.3772396878	-1.6850828335	 1.2038118934	-0.240417
C	 0.7056927545	-0.5048341958	 1.2679211042	 0.414284
O	 0.5973075096	 0.0459436628	 2.3288764387	-0.331177
H	 1.1175686706	 1.8965183648	-0.0994383936	 0.118754
H	-0.4501320078	 1.9144618191	-0.9288469251	 0.11254
H	-0.3732237244	 1.954950626	 0.8462056288	 0.14847
H	-2.0052418024	-0.0725366793	-0.7928616491	 0.115953
H	-1.4979604273	-1.5697972772	 0.0109401535	 0.135819
H	-1.9156708335	-0.1398167789	 0.9790678329	 0.139939
H	 0.0900069228	-0.4570333907	-2.1443675656	 0.119209
H	 1.6831297637	-0.1117397907	-1.4317281357	 0.098344
H	 1.8537440812	-3.310487751	 0.0890045875	 0.134526
H	 2.7768308291	-1.8119857709	-0.2914827044	 0.104048
70.8724	138.9967	198.3447	239.1991	251.5255	291.6673	311.7219	341.9006	412.2043	462.7266	479.6246	570.6872	647.9219	754.7071	769.3237	859.9182	934.0164	959.2688	979.9534	1019.2168	1033.2553	1050.0201	1074.9082	1135.5393	1195.5892	1218.8278	1258.9295	1259.4997	1295.0667	1333.0167	1388.1904	1398.8167	1425.2777	1457.468	1480.5129	1489.4205	1498.9747	1501.3161	1512.9749	1523.6951	1839.98	2972.2643	2978.7906	3037.5043	3040.9198	3092.9068	3102.5323	3113.098	3121.7018	3132.4346	3141.2961
CC1(C)COCOC1=O	CC1(C)COCOC1=O	
InChI=1S/C6H10O3/c1-6(2)3-8-4-9-5(6)7/h3-4H2,1-2H3	InChI=1S/C6H10O3/c1-6(2)3-8-4-9-5(6)7/h3-4H2,1-2H3
