18
gdb 47018	3.63948	1.33051	1.01379	5.2683	82.48	-0.2122	-0.0228	0.1894	1151.9508	0.150087	-401.974116	-401.966634	-401.96569	-402.00608	29.109	
O	-0.0039072343	-0.1020656878	 0.2755264067	-0.358975
C	-0.0050184324	 1.1049658816	 0.1071031075	 0.384871
C	-1.3397760524	 1.8601371084	-0.0840014618	-0.316923
C	-1.321519104	 3.3202795154	 0.3945174941	-0.190961
N	-0.1385387599	 3.9428746552	-0.1683742374	-0.075746
C	 0.5003324532	 5.2354042269	 0.1441414106	-0.17319
C	 1.8707775592	 4.5302267901	-0.1205801115	-0.357474
C	 1.0527351565	 3.2526628406	-0.1360435448	 0.41548
C	 1.201574317	 1.9191780786	 0.0152111072	-0.398372
H	-1.5610769811	 1.8405352753	-1.159630344	 0.12867
H	-2.1250302602	 1.2927113829	 0.4196940338	 0.125263
H	-2.2241992687	 3.8520038625	 0.077377826	 0.11417
H	-1.2779632159	 3.3587305127	 1.4970670447	 0.101771
H	 0.210387381	 6.0571065146	-0.516227066	 0.117657
H	 0.3718026439	 5.5410649053	 1.1904108741	 0.113772
H	 2.3334728245	 4.7869814162	-1.0757515466	 0.137073
H	 2.6137559637	 4.6046006545	 0.6745392607	 0.13676
H	 2.1716412999	 1.4425595369	 0.0694362568	 0.096152
108.7535	176.737	203.4735	228.4159	349.4293	440.3939	453.7063	520.0705	546.8515	645.3379	712.5277	766.3838	791.9667	833.0972	849.3476	906.2192	945.2901	985.4611	1057.4259	1062.3257	1102.6571	1118.5972	1143.8738	1188.0743	1189.8941	1209.5033	1233.5621	1265.026	1266.1912	1293.5775	1337.5933	1374.1331	1440.4384	1458.3705	1470.3392	1507.9781	1523.6604	1692.6261	1758.1945	2954.5459	3022.4312	3029.4979	3069.3511	3082.9784	3090.2989	3116.3179	3140.1506	3217.6246
O=C1CCN2CCC2=C1	O=C1CCN2CCC2=C1	
InChI=1S/C7H9NO/c9-7-2-4-8-3-1-6(8)5-7/h5H,1-4H2	InChI=1S/C7H9NO/c9-7-2-4-8-3-1-6(8)5-7/h5H,1-4H2
