23
gdb 71288	2.48631	1.81063	1.36811	0.1398	88.17	-0.2423	0.0871	0.3295	1063.6241	0.208858	-351.15037	-351.142629	-351.141685	-351.181841	32.844	
C	-0.0105040737	 1.470234558	 0.0335807599	-0.466636
C	 0.0123618692	-0.0520590122	-0.0053045445	 0.336405
C	 0.2106381038	-0.6450838496	-1.4501851954	-0.285956
C	-1.1134775931	-1.3973907007	-1.3123171811	-0.071102
C	-1.258785622	-2.184296471	-0.0246366046	-0.020032
C	-0.1875735909	-2.9144019238	 0.7707585283	-0.218847
C	 1.1438430487	-2.1523676237	 0.9050645419	-0.219968
C	 0.9496565665	-0.636733374	 1.0632189453	-0.234857
C	-1.3997834725	-0.6939821856	 0.0182009876	-0.106647
H	 0.976614146	 1.8858551838	-0.200052485	 0.109306
H	-0.7266084176	 1.8740226487	-0.690427483	 0.109876
H	-0.2995528637	 1.8344168087	 1.0269312481	 0.108922
H	 0.134854639	 0.1475965992	-2.2001332301	 0.093583
H	 1.1155624405	-1.2228329919	-1.6591567536	 0.088847
H	-1.8007468308	-1.5771199163	-2.1316499117	 0.076765
H	-2.219830638	-2.6959435908	 0.0009669353	 0.078436
H	-0.6009003278	-3.0889802018	 1.7740421484	 0.094523
H	-0.0042690717	-3.9078382582	 0.3428457071	 0.092281
H	 1.7057439216	-2.5483012163	 1.7581467962	 0.087171
H	 1.7656884533	-2.3431747846	 0.024448133	 0.102076
H	 1.9266835496	-0.1380113393	 1.0187338942	 0.085812
H	 0.5304771589	-0.4108125794	 2.0540697752	 0.08898
H	-2.2979417955	-0.1852689591	 0.3510349086	 0.071062
150.3146	239.4553	256.7721	289.9645	349.2994	358.3825	377.2985	489.817	508.2178	592.6987	655.7796	723.1425	764.1976	820.2723	835.3166	864.9246	898.7984	905.7006	913.6772	969.1295	978.6409	993.0102	1008.0777	1031.6683	1053.1991	1069.0104	1081.9031	1130.2173	1155.5619	1165.0202	1179.5729	1227.7229	1241.6947	1255.9285	1262.4603	1292.7717	1317.0166	1338.3317	1369.4965	1379.4569	1384.3096	1409.0586	1443.7258	1478.9245	1483.2579	1490.7712	1493.2731	1497.8395	1516.822	3002.3575	3005.1727	3017.3321	3032.3335	3042.0303	3045.9385	3050.5737	3075.6044	3082.129	3089.8783	3094.8897	3116.9061	3159.2218	3171.8313
CC12CC3C(CCC1)C23	C[C@@]12C[C@H]3[C@@H](CCC1)[C@@H]23	
InChI=1S/C9H14/c1-9-4-2-3-6-7(5-9)8(6)9/h6-8H,2-5H2,1H3	InChI=1S/C9H14/c1-9-4-2-3-6-7(5-9)8(6)9/h6-8H,2-5H2,1H3/t6-,7+,8-,9+/m1/s1
