16
gdb 127886	3.84486	1.20718	0.94595	4.4331	80.52	-0.2293	-0.0626	0.1667	1229.8658	0.123846	-430.223134	-430.214523	-430.213579	-430.256744	30.842	
C	-0.0417832528	 1.4272894216	 0.143004052	-0.329826
N	-0.0308969416	-0.0219299447	 0.1637482188	-0.267886
C	-1.0732712305	-0.6852179415	-0.1172476056	 0.395617
N	-2.315085739	-0.0524556238	-0.4984630691	-0.196138
N	-3.3920585527	-0.6569364471	-0.3340996095	-0.049218
N	-3.3279585979	-1.9431211615	 0.1850302075	-0.285828
C	-2.1639504964	-2.6755824371	 0.039047675	 0.395306
C	-2.2879745914	-4.1691646162	 0.0693596978	-0.489281
N	-1.0383933967	-2.0857313795	-0.1319092515	-0.302401
H	 0.7935319176	 1.7687218783	-0.4792058979	 0.128641
H	-0.9694949814	 1.8806564747	-0.2198933093	 0.133475
H	 0.1596701672	 1.7939530416	 1.1571205865	 0.127083
H	-4.228515036	-2.397830239	 0.1543101054	 0.274002
H	-2.9274167901	-4.5271378473	-0.7452386435	 0.145786
H	-1.2949647213	-4.6057604416	-0.0315642012	 0.17148
H	-2.733245447	-4.5015387069	 1.0136945447	 0.149188
84.8024	115.2258	124.8808	155.3475	234.6438	292.6205	336.7663	439.4366	496.4698	557.353	588.3119	621.1883	630.6999	723.1316	796.5907	892.674	927.9736	1006.688	1030.7134	1060.2027	1095.2268	1129.5788	1139.728	1228.6682	1297.6483	1404.4701	1407.7596	1432.5239	1475.5461	1480.3672	1489.1545	1494.9211	1619.224	1703.7139	1740.23	3017.6382	3039.1603	3070.4136	3096.9866	3098.1567	3165.7135	3619.7055
CN=C1N=NNC(C)=N1	CN=c1nn[nH]c(C)n1	
InChI=1S/C4H7N5/c1-3-6-4(5-2)8-9-7-3/h1-2H3,(H,5,6,7,8)	InChI=1S/C4H7N5/c1-3-6-4(5-2)8-9-7-3/h1-2H3,(H,5,6,7,8)
