16
gdb 15078	3.11559	1.55515	1.15969	3.3343	60.9	-0.2513	-0.024	0.2272	1018.9517	0.127933	-420.846948	-420.838298	-420.837354	-420.880851	29.797	
O	 0.0803763522	 1.3647570701	-0.0644413978	-0.421686
C	 0.055368503	-0.0517979968	-0.0006897079	-0.101412
C	-1.4118375223	-0.462392314	 0.0916378262	-0.09896
C	-2.1702457846	 0.0171176283	-1.1466159053	 0.180757
O	-3.3588145655	 0.2020425819	-1.1726181211	-0.261761
C	-1.5511456089	-1.9682272735	 0.2486794028	 0.062525
C	-2.7731718206	-2.7038355382	-0.0889655123	-0.187454
O	-1.6326786788	-2.7350972899	-0.9583268475	-0.238113
H	 0.9811460955	 1.6500162399	-0.2435430175	 0.293554
H	 0.5053055829	-0.5061481899	-0.8980029751	 0.107392
H	 0.6074296638	-0.4299867614	 0.8732572671	 0.095278
H	-1.864099781	 0.0258206755	 0.9634437268	 0.118037
H	-1.5414141417	 0.1721290225	-2.0489051914	 0.090696
H	-0.8941899534	-2.4029664319	 1.0049179198	 0.09583
H	-2.9862793231	-3.6396991459	 0.4246842138	 0.118618
H	-3.6345643375	-2.1611968467	-0.4700472207	 0.146699
69.7536	78.6603	118.1202	183.3175	222.4937	249.6049	297.3147	393.5677	405.9071	540.1705	594.5716	791.7856	859.1272	887.0406	942.6792	987.0208	1041.2328	1071.6418	1092.5076	1107.3035	1140.3337	1164.4574	1175.0272	1233.5795	1242.8767	1280.3453	1309.1842	1336.0744	1411.3284	1441.7718	1456.0747	1523.2761	1526.8162	1831.3823	2906.2396	2973.8873	3005.2862	3051.0075	3087.085	3099.1192	3195.2914	3831.9047
OCC(C=O)C1CO1	OC[C@@H](C=O)[C@H]1CO1	
InChI=1S/C5H8O3/c6-1-4(2-7)5-3-8-5/h1,4-5,7H,2-3H2	InChI=1S/C5H8O3/c6-1-4(2-7)5-3-8-5/h1,4-5,7H,2-3H2/t4-,5-/m1/s1
