23
gdb 40270	2.72499	1.3636	1.04708	0.3317	92.41	-0.2235	0.0255	0.249	1245.9483	0.208408	-351.160392	-351.151969	-351.151025	-351.193646	33.943	
C	-0.3817130291	 1.5489708033	 0.0324934703	-0.317081
C	 1.0916039637	 1.2623387168	 0.0954937751	-0.290369
C	 0.0934207204	 0.1092756369	 0.0167951212	 0.348051
C	-0.1484560026	-0.6803382577	 1.2952523578	-0.269405
C	 0.8043563271	-1.8530124229	 1.5627280052	-0.192642
C	 0.581799522	-3.0666343442	 0.6535120167	-0.1829
C	 1.0497416094	-2.8946019433	-0.7977020634	-0.250935
C	 0.3840818409	-1.8280660955	-1.6322197419	-0.069155
C	 0.0096631458	-0.5904211548	-1.2977410471	-0.11881
H	-0.8746026316	 1.9092864663	 0.9292046772	 0.107784
H	-0.782389669	 1.9602996281	-0.8883846584	 0.110264
H	 1.6938189428	 1.4719908411	-0.7813150524	 0.112835
H	 1.6081303651	 1.4152252894	 1.0378247148	 0.110652
H	-0.0872146857	 0.0197791007	 2.1373641358	 0.083959
H	-1.1799965741	-1.0591602973	 1.2874324181	 0.094083
H	 1.8455923873	-1.5119156304	 1.4805828518	 0.090912
H	 0.6671425109	-2.170035345	 2.6037585675	 0.088369
H	 1.1151812155	-3.9275365264	 1.0748261781	 0.088434
H	-0.4842477674	-3.3300165745	 0.6617835042	 0.093704
H	 2.1350995931	-2.7042123857	-0.7933703836	 0.108236
H	 0.9307961285	-3.8553162688	-1.3124503323	 0.096187
H	 0.2479539236	-2.0999315907	-2.677696744	 0.080418
H	-0.3875446665	 0.0268339844	-2.1031206308	 0.077408
39.5421	143.8366	235.9462	285.0565	301.8605	328.125	370.5452	420.9457	469.8558	550.6632	614.9937	706.456	755.0198	780.7888	793.4134	855.2662	869.8881	891.8403	931.6047	943.8256	963.1589	975.7437	990.208	1002.57	1053.9656	1056.6559	1079.6068	1099.6533	1113.863	1170.7831	1192.1927	1219.8009	1254.4535	1268.2311	1291.8475	1327.1171	1348.7956	1380.0959	1383.7121	1387.7072	1404.056	1442.5213	1468.907	1474.1696	1480.0478	1486.4945	1493.0995	1500.8539	1723.5855	2981.7164	3007.0569	3011.6281	3014.0308	3046.74	3048.453	3053.7334	3058.5483	3113.7495	3125.1629	3129.8677	3142.3167	3204.2325	3220.0485
C1CC11CCCCC=C1	C1CC21CCCCC=C2	
InChI=1S/C9H14/c1-2-4-6-9(5-3-1)7-8-9/h3,5H,1-2,4,6-8H2	InChI=1S/C9H14/c1-2-4-6-9(5-3-1)7-8-9/h3,5H,1-2,4,6-8H2
