19
gdb 47930	2.09878	1.68888	1.15417	2.7418	71.61	-0.2351	-0.0299	0.2052	1104.043	0.159767	-460.153608	-460.145267	-460.144323	-460.18676	31.525	
O	 0.057268096	-0.0521327676	 0.3966542888	-0.301092
C	 0.0131875098	 1.1239235598	 0.1229322331	 0.363389
C	-1.323285408	 1.8382417786	-0.0590094957	-0.312819
C	-1.3672474147	 3.0462208292	-0.999867324	-0.081706
O	-1.248595073	 2.7561069941	-2.3769083764	-0.249641
C	-0.1152748052	 2.0210701676	-2.8084036649	-0.089832
C	 1.262941841	 2.5440377145	-2.3588552099	-0.099367
O	 1.8735165954	 1.7960927667	-1.3196223272	-0.241746
C	 1.3260031949	 1.925286007	-0.0194195918	-0.156629
H	-2.0725421421	 1.0892509838	-0.3316735151	 0.13769
H	-1.5958615809	 2.2071905467	 0.9416488288	 0.13301
H	-2.3425398171	 3.5325135363	-0.9022108021	 0.119059
H	-0.6162710263	 3.7882299812	-0.6888859302	 0.090677
H	-0.1850818367	 0.9613743773	-2.5181981141	 0.122434
H	-0.1760848465	 2.0606947048	-3.900181586	 0.116508
H	 1.9604269828	 2.4530322067	-3.1965759586	 0.120693
H	 1.1968123664	 3.6122268414	-2.0993879559	 0.104469
H	 1.1984313922	 2.9836064636	 0.2529960002	 0.092372
H	 2.0513671619	 1.467610298	 0.6572165412	 0.132531
65.5528	135.3531	198.3002	244.6239	254.4439	339.2255	368.5525	427.0503	481.1407	493.1561	545.2382	599.5676	761.9111	789.6918	844.512	921.0433	938.5194	983.4435	1020.6699	1037.0354	1058.3746	1094.5082	1144.5024	1160.1535	1182.7582	1232.7807	1259.8026	1291.7723	1308.5503	1338.9935	1358.1893	1379.5698	1389.8083	1412.754	1425.3206	1436.2282	1479.0717	1479.9474	1496.6749	1511.829	1808.3225	2977.9557	2990.2124	2998.4418	3002.3504	3011.3307	3075.2343	3078.4446	3091.9225	3096.7056	3108.2618
O=C1CCOCCOC1	O=C1CCOCCOC1	
InChI=1S/C6H10O3/c7-6-1-2-8-3-4-9-5-6/h1-5H2	InChI=1S/C6H10O3/c7-6-1-2-8-3-4-9-5-6/h1-5H2
