22
gdb 7547	3.18121	1.18118	1.00911	1.2888	78.89	-0.2484	0.0769	0.3253	1290.3664	0.198112	-350.200521	-350.190642	-350.189698	-350.235011	36.51	
C	 0.0263473417	 1.585887134	-0.1157787068	-0.382719
C	 0.1805422911	 0.0629511436	-0.1007825192	-0.174392
C	 0.5202989777	-0.4917722204	 1.2900911376	-0.227577
C	 0.6919550943	-1.9987652141	 1.3105001103	 0.405794
O	-0.4713075427	-2.7100114889	 0.9497709504	-0.475316
C	 2.0141506046	-2.6324765075	 0.9332028736	-0.355137
C	 1.4997427453	-2.7050737915	 2.36162852	-0.033089
C	 2.2098282069	-2.0046365062	 3.4985813743	-0.414327
H	 0.9529638441	 2.0807251685	 0.1959738769	 0.113845
H	-0.2264841421	 1.952409254	-1.1156203194	 0.111103
H	-0.7659724069	 1.9095665631	 0.5681818821	 0.116679
H	-0.7525920611	-0.3947156174	-0.4540884016	 0.09068
H	 0.9630872479	-0.2365549943	-0.8103880786	 0.095974
H	 1.4364462062	-0.01196987	 1.6518592266	 0.091632
H	-0.2780185673	-0.2193879047	 1.993245851	 0.099925
H	-0.59221607	-2.6147149644	-0.0010086923	 0.280217
H	 1.9867244053	-3.537323399	 0.335872417	 0.106889
H	 2.8576777458	-1.9784084441	 0.7311595727	 0.103176
H	 1.0707654933	-3.6674673929	 2.6271857935	 0.095255
H	 2.6763774072	-1.0683493167	 3.1786693564	 0.11451
H	 1.5216056276	-1.7710395073	 4.3185797917	 0.119437
H	 3.0048573214	-2.6405990939	 3.903175154	 0.11744
79.9028	89.5128	122.8996	190.0836	220.7966	242.6028	249.0781	313.2276	327.7256	385.5099	442.5779	456.0863	518.3925	725.1388	753.7705	808.4583	866.2712	887.2152	900.6459	931.6291	936.8776	1014.7628	1031.3364	1052.7699	1059.4709	1115.7754	1125.9312	1144.8181	1186.6749	1228.1402	1281.5341	1289.3654	1313.4032	1334.4895	1347.6361	1394.4916	1408.9216	1412.2888	1426.7535	1471.7501	1487.1199	1493.6155	1494.4213	1499.0486	1506.6456	1510.8649	3011.981	3021.0617	3029.5018	3030.6875	3043.0435	3072.1055	3088.8214	3096.7521	3101.4044	3102.7819	3120.3047	3148.9152	3211.0976	3802.0804
CCCC1(O)CC1C	CCC[C@@]1(O)C[C@H]1C	
InChI=1S/C7H14O/c1-3-4-7(8)5-6(7)2/h6,8H,3-5H2,1-2H3	InChI=1S/C7H14O/c1-3-4-7(8)5-6(7)2/h6,8H,3-5H2,1-2H3/t6-,7-/m1/s1
