18
gdb 125868	3.6294	1.1019	1.04349	4.9471	77.7	-0.2441	0.0009	0.245	1210.6319	0.149522	-398.121409	-398.113306	-398.112362	-398.15512	30.188	
C	-0.5991645926	 1.3656823314	 0.262049694	-0.411545
C	-0.1586843569	-0.0749548117	 0.1406567605	 0.014231
C	 1.1748313348	-0.4257520321	-0.4590090056	-0.292968
C	 0.9515632079	-0.6487159699	 1.019459236	-0.167717
C	 1.6587604972	 0.1772819228	 2.0148415441	 0.361872
C	 2.7887908964	 0.9663837189	 1.9828176517	-0.159781
N	 3.0013234533	 1.5050432735	 3.2163823325	-0.187236
N	 2.0690654546	 1.0951289885	 4.0255820712	-0.118049
N	 1.2541316421	 0.2961928542	 3.3076685115	-0.244373
H	 0.2435246273	 2.0203266465	 0.5012443051	 0.132461
H	-1.0411748235	 1.7153534565	-0.6768384385	 0.123039
H	-1.3501192374	 1.4893087304	 1.0502443632	 0.117861
H	-0.9632734879	-0.7762111371	-0.064448661	 0.091282
H	 1.2590331277	-1.2988265267	-1.0958141302	 0.118678
H	 1.8207738794	 0.3977537798	-0.7447196139	 0.123801
H	 0.8074614093	-1.6825754803	 1.3236381572	 0.101062
H	 3.4536839941	 1.1635568428	 1.1578474177	 0.120732
H	 0.4545319042	-0.1230617375	 3.7554642045	 0.276648
31.9836	106.4983	168.4915	220.3076	272.0676	347.7349	413.6223	502.2528	580.3226	634.2699	729.4187	737.8934	778.1147	843.0616	852.997	885.0107	933.5519	988.6522	1022.4277	1054.9088	1074.3792	1082.0892	1093.7218	1112.956	1144.5933	1147.336	1198.7907	1203.6744	1234.0343	1323.8031	1348.4618	1393.9847	1421.4293	1423.2369	1427.8772	1488.3267	1494.4553	1504.6332	1612.2713	3033.7298	3093.3011	3112.0764	3128.9771	3137.2805	3145.8315	3222.5651	3272.0586	3653.2205
CC1CC1C1=CN=NN1	C[C@H]1C[C@H]1c1cnn[nH]1	
InChI=1S/C6H9N3/c1-4-2-5(4)6-3-7-9-8-6/h3-5H,2H2,1H3,(H,7,8,9)	InChI=1S/C6H9N3/c1-4-2-5(4)6-3-7-9-8-6/h3-5H,2H2,1H3,(H,7,8,9)/t4-,5+/m0/s1
