16
gdb 36209	3.94329	1.10589	1.0217	2.8595	73.15	-0.2468	-0.0189	0.2279	1167.9801	0.125252	-400.711482	-400.704078	-400.703134	-400.744248	28.031	
N	-0.0329061227	-1.0839270803	 0.4799410991	-0.304652
C	-0.0055874945	 0.0277914609	 0.1667180247	 0.260782
C	 0.0530821905	 1.4426430212	-0.2180431463	-0.478622
C	 1.4404800381	 2.0000759615	-0.1322708217	 0.373504
C	 2.2187108485	 2.5940547984	-1.0385891674	-0.209797
C	 3.4705080055	 2.9137656081	-0.1980053346	 0.029549
C	 3.7072178999	 1.5604777717	 0.5396401177	-0.214386
C	 2.3475545612	 2.0486192032	 1.1210015897	-0.029139
O	 2.8706722692	 3.4139016436	 1.0449911985	-0.282731
H	-0.3400601121	 1.5469535235	-1.2348833264	 0.162972
H	-0.6275118933	 1.9966686351	 0.443234223	 0.167446
H	 2.051828832	 2.8076911167	-2.0842089108	 0.118312
H	 4.2615791763	 3.5386775447	-0.6086452061	 0.088485
H	 3.7314965673	 0.6372391829	-0.0419578483	 0.110291
H	 4.5174073151	 1.6151176853	 1.2696004712	 0.11537
H	 1.952349029	 1.7575825037	 2.0934839877	 0.092615
50.6912	88.259	219.9879	296.0298	384.7747	462.2684	490.0812	545.9308	640.9561	700.2975	785.9182	801.3656	837.6583	850.7347	888.5361	916.617	930.1779	937.2108	952.7379	1022.7486	1056.7572	1092.1806	1154.138	1176.4885	1201.9721	1233.614	1244.5914	1257.5822	1296.3562	1307.6969	1327.8407	1453.5089	1486.2558	1687.5179	2363.066	3019.4217	3071.5829	3078.4382	3136.0965	3143.0122	3146.6114	3241.6948
N#CCC1=CC2CC1O2	N#CCC1=C[C@@H]2C[C@H]1O2	
InChI=1S/C7H7NO/c8-2-1-5-3-6-4-7(5)9-6/h3,6-7H,1,4H2	InChI=1S/C7H7NO/c8-2-1-5-3-6-4-7(5)9-6/h3,6-7H,1,4H2/t6-,7-/m1/s1
