21
gdb 111251	2.58754	1.34725	1.30419	2.7648	76.58	-0.2346	0.0664	0.301	1116.512	0.184924	-424.209215	-424.200923	-424.199979	-424.24233	32.169	
O	 0.6282002634	-0.3024795681	 1.3811929765	-0.422745
C	 0.1439152842	 0.0113992524	 0.0798703589	-0.127596
C	-1.2563886174	-0.5561922931	-0.0178251253	 0.036059
C	-2.039846956	-0.6312246828	-1.3472042906	 0.059814
C	-1.149684894	-0.9988059953	-2.5396888413	-0.228476
C	-0.5584486895	-2.4212026706	-2.3305449072	-0.183014
C	-0.4812349722	-2.8499584889	-0.8385992895	-0.233027
C	-1.524400641	-2.0782909479	-0.027441967	 0.091131
O	-2.6970347915	-1.8416750971	-0.8687801736	-0.306325
H	 1.5220525353	 0.04325379	 1.4612722884	 0.287829
H	 0.1105744582	 1.1014216904	-0.0827227896	 0.087281
H	 0.8013524527	-0.4102322698	-0.6935927003	 0.088276
H	-1.8827777594	-0.0914906681	 0.7484055662	 0.089581
H	-2.7554093621	 0.1647781255	-1.5728193362	 0.071448
H	-1.7416297806	-0.9831054392	-3.4605028097	 0.101293
H	-0.3668473755	-0.2410798831	-2.6639529013	 0.095944
H	-1.2153876561	-3.1276584116	-2.842295865	 0.116236
H	 0.420826642	-2.5076610167	-2.8107161511	 0.090815
H	-0.6685199302	-3.9256093473	-0.7603083872	 0.099713
H	 0.5092527267	-2.6754800414	-0.4035504819	 0.108229
H	-1.786583807	-2.5614142872	 0.9164414567	 0.077534
69.4306	106.9153	185.5351	243.8582	287.0716	298.2561	416.8259	439.4339	506.3354	576.3993	636.3652	745.2856	789.1552	829.9072	854.9398	872.3307	904.8362	934.3415	961.5302	1018.3488	1034.376	1048.8177	1062.8929	1084.9426	1107.2172	1133.5415	1155.1463	1189.3234	1228.2428	1242.4756	1260.8235	1262.2446	1282.1041	1320.4413	1333.862	1343.9875	1349.3649	1376.5914	1380.9589	1397.6278	1467.9328	1483.5756	1489.6652	1507.247	1531.3128	2966.8902	3012.406	3033.7984	3040.3265	3060.2519	3061.5604	3070.1523	3073.1793	3077.8701	3089.2745	3106.6409	3828.2686
OCC1C2CCCC1O2	OC[C@H]1[C@H]2CCC[C@@H]1O2	
InChI=1S/C7H12O2/c8-4-5-6-2-1-3-7(5)9-6/h5-8H,1-4H2	InChI=1S/C7H12O2/c8-4-5-6-2-1-3-7(5)9-6/h5-8H,1-4H2/t5-,6+,7-
