14
gdb 64576	2.78865	1.48501	1.28006	3.3131	63.56	-0.2583	-0.067	0.1913	992.0133	0.099206	-473.798443	-473.790626	-473.789682	-473.830941	28.803	
O	-0.0833330282	 1.4797877258	 0.1009270037	-0.467094
C	-0.068332802	 0.1036298722	 0.0227601341	 0.206986
C	 0.875768874	-0.4890761217	 1.0528449513	 0.112549
O	 1.5482990052	 0.2281151092	 1.7514512366	-0.267888
C	-1.3979490604	-0.6558290589	-0.0450042675	-0.069132
C	-2.1022497905	-0.396585427	-1.3042972775	-0.254969
N	-0.9902504069	-1.403537648	-1.3278882733	-0.173029
C	 0.2077819502	-0.5927310863	-1.3748948405	 0.323438
O	 1.0865407102	-0.5632829444	-2.1709506741	-0.27486
H	 0.5856860064	 1.7172076058	 0.7660901497	 0.301689
H	 0.9163409299	-1.5926395639	 1.1178006573	 0.125548
H	-1.8458101149	-1.2064985256	 0.7733613451	 0.124265
H	-3.0725837162	-0.8594795595	-1.4450794774	 0.151528
H	-1.9593579268	 0.5452250225	-1.8252784275	 0.16097
100.3515	122.9618	191.8552	238.9225	310.5488	311.5277	408.0145	479.3973	547.8801	591.3658	679.8619	724.5721	760.0544	828.8744	859.3481	874.4571	977.6156	1002.9118	1045.7795	1061.7747	1085.0801	1121.0196	1147.6122	1226.8926	1278.6023	1334.4184	1385.3378	1441.272	1505.3086	1805.1985	1924.5109	2964.8758	3132.2682	3194.1465	3226.9937	3654.9899
OC1(C=O)C2CN2C1=O	O[C@@]1(C=O)[C@H]2CN2C1=O	
InChI=1S/C5H5NO3/c7-2-5(9)3-1-6(3)4(5)8/h2-3,9H,1H2	InChI=1S/C5H5NO3/c7-2-5(9)3-1-6(3)4(5)8/h2-3,9H,1H2/t3-,5+,6?/m1/s1
