19
gdb 37228	3.96818	1.38647	1.22708	1.6886	79.	-0.2082	0.0724	0.2806	1065.1599	0.159886	-385.790411	-385.783094	-385.78215	-385.822194	29.607	
C	-0.0722149195	 1.4554377152	-0.1046521415	-0.308644
C	 1.319090594	 0.8746900591	-0.0644072916	-0.062383
C	 0.1124971337	-0.029711001	 0.0819826954	-0.062383
C	 0.4953108179	-0.7892088835	-1.2133247037	-0.153557
C	 1.7390902051	 0.1430679306	-1.36422641	-0.153554
C	 0.7003306233	 0.0490012632	-2.4259982066	 0.446066
C	 0.9814697513	-0.5494025586	-3.806060472	-0.357909
C	 0.0693484348	 0.5851790507	-4.3160849052	-0.076342
O	-0.1383454519	 1.0789596597	-2.9755398059	-0.307606
H	-0.3513242853	 1.9755172164	 0.8079044458	 0.102656
H	-0.492034398	 1.8687656439	-1.0113894746	 0.153623
H	 2.0428296078	 1.1519570187	 0.6904938523	 0.086602
H	-0.2293555017	-0.5511590002	 0.9661656693	 0.086602
H	 0.4461214784	-1.8707416617	-1.2839229153	 0.081966
H	 2.7698386927	-0.1289990915	-1.5658531384	 0.081966
H	 2.0221497944	-0.4975192423	-4.1321890277	 0.114824
H	 0.6022062629	-1.5615920545	-3.9600133746	 0.114825
H	 0.5523219437	 1.3342309128	-4.953614858	 0.106623
H	-0.8706740234	 0.267768323	-4.7812618677	 0.106625
82.9738	170.3597	197.75	300.8234	374.4751	456.2875	526.4677	631.2009	695.7499	720.4413	751.3991	798.8832	824.9347	861.623	894.2379	895.4139	922.4718	970.6844	976.2652	991.5233	1004.3761	1023.4884	1025.8461	1050.0411	1069.8167	1081.8712	1132.0038	1142.177	1165.5576	1178.9659	1214.9163	1231.7394	1251.7938	1264.3639	1282.8985	1341.0675	1358.3753	1432.0953	1487.8162	1489.1931	1532.662	3026.6012	3068.8522	3072.0401	3126.1251	3130.7181	3155.7257	3164.9537	3191.1156	3201.4496	3239.3675
C1C2C1C1C2C11CCO1	C1[C@H]2[C@@H]1[C@@H]1[C@H]2[C@]21CCO2	
InChI=1S/C8H10O/c1-2-9-8(1)6-4-3-5(4)7(6)8/h4-7H,1-3H2	InChI=1S/C8H10O/c1-2-9-8(1)6-4-3-5(4)7(6)8/h4-7H,1-3H2/t4-,5+,6-,7+,8-
