15
gdb 22012	3.92988	1.12594	0.87997	1.9033	78.53	-0.2113	-0.0495	0.1618	1250.8962	0.111612	-453.886281	-453.878103	-453.877159	-453.919059	30.337	
C	 0.0056895732	 1.4845613242	-0.0001551005	-0.46637
C	-0.0767685418	-0.0052712572	 0.0587308657	 0.413314
C	-1.15842523	-0.7575910637	-0.2021392285	-0.299951
C	-1.0628047437	-2.1921795834	-0.0970658108	 0.331001
C	 0.2641241392	-2.6599599135	 0.2990108938	-0.013635
N	 1.2846617011	-1.9211126406	 0.5436223087	-0.074039
O	 1.126352982	-0.5394604856	 0.4239288863	-0.287445
N	-2.0849595527	-2.9445115476	-0.3413616781	-0.241989
O	-1.7722600001	-4.3041073937	-0.1797806822	-0.394887
H	 0.7672936016	 1.7985443808	-0.7216665484	 0.151497
H	-0.9565762404	 1.9081179461	-0.2922718154	 0.140067
H	 0.293470194	 1.8918075475	 0.9747738279	 0.151487
H	-2.0948055595	-0.2975865524	-0.4887082323	 0.118883
H	 0.4490753674	-3.7217984296	 0.4086771357	 0.161062
H	-2.6093663902	-4.7296555812	-0.3902578218	 0.311005
106.3943	146.9507	162.4575	221.3542	298.5408	335.6015	382.7341	427.655	452.4836	530.6834	561.0007	636.0809	720.0761	750.1111	868.0906	873.8926	920.9341	959.7057	991.7291	998.3722	1046.4664	1066.4019	1183.5548	1280.7856	1332.1909	1342.8624	1413.5493	1440.7729	1467.7127	1486.4702	1639.5759	1666.9611	1726.9988	3041.6594	3099.0131	3142.7644	3217.6874	3221.578	3830.1274
CC1=CC(C=NO1)=NO	Cc1cc(=NO)cno1	
InChI=1S/C5H6N2O2/c1-4-2-5(7-8)3-6-9-4/h2-3,8H,1H3	InChI=1S/C5H6N2O2/c1-4-2-5(7-8)3-6-9-4/h2-3,8H,1H3
