21
gdb 111539	2.56151	1.44897	1.11466	1.7337	81.53	-0.2389	0.0643	0.3032	1168.4294	0.182891	-387.036874	-387.02829	-387.027346	-387.070007	33.559	
C	-0.0230437629	 1.4861380836	 0.0934129402	-0.511554
C	-0.0044823248	-0.0083377869	-0.0421603524	 0.333591
C	-0.9237199824	-0.9161221386	 0.8034104498	-0.104613
C	-1.0279970114	-2.2750949748	 0.1179392892	-0.244165
C	 0.4544312534	-2.0555773974	-0.2948996173	-0.100879
C	 0.5817792001	-1.0304072107	 0.9034046806	-0.129596
C	 0.4420246948	-0.8261559294	-1.259828895	-0.04776
C	-0.3719217838	-0.8446119522	-2.5464844933	-0.103716
O	 0.1615170037	-1.7453983088	-3.5104885645	-0.420447
H	 0.9319244882	 1.9243031905	-0.2186595824	 0.118768
H	-0.8127928664	 1.9388104771	-0.5176190393	 0.120783
H	-0.2005470066	 1.785454327	 1.1322583152	 0.118363
H	-1.6002288673	-0.4795706797	 1.5278979253	 0.08089
H	-1.1120372603	-3.078498559	 0.8556888953	 0.099284
H	-1.7764990011	-2.430471771	-0.667936197	 0.085522
H	 1.113396137	-2.9014974935	-0.4829511547	 0.067123
H	 1.2643911083	-0.93854222	 1.7360299745	 0.08713
H	 1.4785687926	-0.5647997449	-1.506196831	 0.072807
H	-1.4312544831	-1.061011015	-2.3421284248	 0.088738
H	-0.3367940217	 0.1445118547	-3.0173879332	 0.106488
H	 0.1286670537	-2.6284536512	-3.1289511853	 0.283244
70.5905	146.1217	202.9303	224.3409	252.0505	283.2108	319.1808	401.3092	497.6341	548.7084	594.5248	707.6116	779.7843	797.7067	832.2053	840.1275	888.8291	916.6568	933.1661	983.3947	997.0066	1020.3437	1037.058	1056.4889	1062.9931	1090.5919	1111.4712	1125.6648	1143.3995	1163.2438	1193.5268	1213.9359	1230.381	1268.3763	1272.0748	1314.9693	1348.2248	1391.1628	1407.946	1416.898	1438.9111	1487.7369	1495.4376	1499.8305	1521.0666	2996.462	3020.4815	3030.8204	3034.8132	3063.3205	3080.3428	3087.3049	3089.7735	3126.3113	3187.9023	3217.6317	3815.6951
CC12C3CC(C13)C2CO	C[C@]12[C@H]3C[C@H]([C@@H]13)[C@H]2CO	
InChI=1S/C8H12O/c1-8-5-2-4(7(5)8)6(8)3-9/h4-7,9H,2-3H2,1H3	InChI=1S/C8H12O/c1-8-5-2-4(7(5)8)6(8)3-9/h4-7,9H,2-3H2,1H3/t4-,5-,6+,7+,8+/m0/s1
