13
gdb 27971	3.73061	1.22088	0.91985	2.8299	70.7	-0.2586	-0.0887	0.1699	1152.9151	0.090529	-452.811017	-452.80391	-452.802966	-452.842863	26.248	
O	 0.4982236243	 1.3294625566	 0.3332028831	-0.409632
C	 0.2309350382	 0.0303258093	 0.1232241167	 0.400045
N	 0.3164409234	-0.4538892966	-1.1025252627	-0.393472
C	 0.0373523784	-1.7606379283	-1.2503501982	 0.194976
C	 0.1341456547	-2.3053052292	-2.6328624514	 0.107278
O	-0.0862655672	-3.4562570816	-2.9211340551	-0.248247
C	-0.3222936176	-2.5608098806	-0.1709789754	-0.049277
N	-0.4068888147	-2.0620333444	 1.0700485971	-0.229416
C	-0.1329774033	-0.7753884415	 1.2210833954	-0.056433
H	 0.7257640946	 1.7132413444	-0.5256731107	 0.30734
H	 0.4316674637	-1.5453607256	-3.3853993398	 0.091677
H	-0.5425961608	-3.6121223649	-0.3161187095	 0.146545
H	-0.193921924	-0.3455642076	 2.2164400006	 0.138616
111.8116	191.3868	194.3258	254.7944	380.7769	464.4612	482.8887	518.587	580.6492	611.3636	658.4052	776.5202	785.4943	919.5318	969.4567	998.7649	1026.5558	1045.4315	1168.3454	1204.3609	1260.0171	1307.66	1362.4107	1392.2092	1478.7861	1493.0832	1591.9045	1625.2827	1809.9949	2923.4625	3180.2716	3205.9429	3762.8191
OC1=NC(C=O)=CN=C1	Oc1nc(C=O)cnc1	
InChI=1S/C5H4N2O2/c8-3-4-1-6-2-5(9)7-4/h1-3H,(H,7,9)	InChI=1S/C5H4N2O2/c8-3-4-1-6-2-5(9)7-4/h1-3H,(H,7,9)
