18
gdb 18556	3.51722	1.96911	1.57502	2.8332	70.74	-0.2349	-0.0193	0.2156	861.6285	0.155498	-347.833604	-347.826716	-347.825771	-347.864938	27.019	
O	 0.1334605272	 0.0446547444	-0.5924980897	-0.302234
C	 0.0422488637	 1.1566664456	-0.1574958743	 0.408471
C	-1.1152903292	 1.9818048051	 0.4266267869	-0.361392
C	-0.1043168073	 3.1415139722	 0.6953206987	-0.013969
C	 0.3081921917	 3.3536341382	 2.1619993162	-0.209103
C	 1.2992872003	 2.2121109121	 2.4690918254	-0.216233
C	 2.0956626807	 2.0430740704	 1.1602174456	-0.213172
C	 1.0572694498	 2.2958158001	 0.0490484846	-0.136246
H	-1.8922573155	 2.2068093341	-0.3109503498	 0.129376
H	-1.5984023522	 1.5365831573	 1.303126705	 0.125105
H	-0.3647634107	 4.0719068026	 0.1899208396	 0.072231
H	 0.8200130301	 4.3185262932	 2.2589978526	 0.099178
H	-0.5476667447	 3.3731157518	 2.8441477242	 0.098276
H	 1.9383768661	 2.4260320701	 3.3298690752	 0.100312
H	 0.7557433199	 1.2873777119	 2.6982463013	 0.109008
H	 2.8855182189	 2.8002268687	 1.0970276501	 0.102188
H	 2.5707367524	 1.0625768249	 1.0656479573	 0.116846
H	 1.5000132988	 2.6545006074	-0.883743529	 0.091357
61.6361	177.2499	238.1621	347.8687	434.8892	509.04	552.8257	578.2743	710.6536	734.444	815.2955	843.1348	863.8921	884.2583	927.6573	944.9409	963.7852	987.5629	1030.9832	1064.9489	1083.1918	1136.1347	1148.5456	1161.293	1184.4745	1221.2909	1256.5196	1263.0574	1276.1776	1316.683	1329.6414	1347.9063	1356.701	1431.5707	1482.0787	1489.8976	1504.1581	1885.1281	3031.9267	3034.7834	3040.5876	3046.3019	3079.4075	3082.0798	3092.2083	3094.5983	3099.8076	3108.2207
O=C1CC2CCCC12	O=C1C[C@H]2CCC[C@@H]12	
InChI=1S/C7H10O/c8-7-4-5-2-1-3-6(5)7/h5-6H,1-4H2	InChI=1S/C7H10O/c8-7-4-5-2-1-3-6(5)7/h5-6H,1-4H2/t5-,6-/m1/s1
