19
gdb 98023	4.32625	0.60394	0.58587	2.2079	85.21	-0.2619	-0.029	0.2328	1999.3075	0.156326	-423.036579	-423.025769	-423.024825	-423.074526	36.648	
C	-0.2248269632	 1.3982668245	-0.1385998822	-0.240065
O	-0.2235117344	-0.0302473684	-0.2573684113	-0.217744
C	 0.8728224329	-0.5480758654	-0.8481491651	 0.251739
O	 1.7977636262	 0.1124187509	-1.2557170968	-0.35985
C	 0.7893184446	-1.9851239272	-0.9250095363	-0.128853
C	 0.7839646862	-3.1869255046	-1.0225044045	 0.303049
C	 0.7943196756	-4.6427909409	-1.1400760077	-0.147072
C	 1.2158561455	-5.0765979496	-2.5587442004	-0.377576
C	 1.7069494959	-5.2660953307	-0.0631293617	-0.378313
H	 0.6243551337	 1.7370171195	 0.4604456246	 0.142306
H	-0.1674851619	 1.8679777769	-1.1238828174	 0.142349
H	-1.1646053812	 1.6511120076	 0.3520319489	 0.134032
H	-0.2295124017	-4.9999538922	-0.963900947	 0.114449
H	 2.2362255146	-4.7468902471	-2.774851762	 0.13296
H	 1.1796947345	-6.1672042419	-2.6410898782	 0.117657
H	 0.5528403129	-4.6499567947	-3.3155706127	 0.129607
H	 1.6722246326	-6.3575225173	-0.1334498751	 0.118731
H	 2.7428880462	-4.9437614701	-0.2029906357	 0.132633
H	 1.3908260811	-4.9731239492	 0.9411489006	 0.129962
15.947	71.3826	76.4837	131.87	157.4291	188.4799	223.147	261.4623	280.7686	309.3836	335.1636	445.2883	527.1093	563.4527	602.6259	776.1578	780.4907	868.7724	933.8399	959.4094	966.4573	1059.1786	1115.4723	1134.4271	1177.4561	1189.2394	1213.8963	1278.0537	1322.3637	1351.0325	1396.1739	1418.8609	1471.5528	1481.5251	1485.6541	1488.246	1496.1298	1498.5578	1510.5535	1788.3523	2349.6946	3013.9334	3040.8999	3043.765	3051.2313	3114.3279	3118.6937	3123.6723	3125.3793	3125.5768	3160.3033
COC(=O)C#CC(C)C	COC(=O)C#CC(C)C	
InChI=1S/C7H10O2/c1-6(2)4-5-7(8)9-3/h6H,1-3H3	InChI=1S/C7H10O2/c1-6(2)4-5-7(8)9-3/h6H,1-3H3
