23
gdb 52761	1.98905	1.08211	0.97542	0.176	96.21	-0.2215	0.0618	0.2833	1467.2609	0.202422	-351.136398	-351.124842	-351.123898	-351.174026	40.879	
C	-0.5593116928	 0.5672857537	 3.0802987891	-0.501699
C	-0.4450002256	-0.6684869441	 2.317884381	 0.064462
C	-0.3509407403	-1.6921096176	 1.6867064093	 0.025009
C	-0.182656192	-2.9026416056	 0.9249341297	 0.132134
C	 1.2351163638	-3.1267929581	 0.4156001866	-0.458043
C	-1.0071397557	-4.1335722382	 1.3145125894	-0.048586
C	-1.9091316965	-4.1505380013	 2.5281967121	-0.414351
C	-1.3434213766	-3.3836964507	 0.0485306502	-0.048634
C	-2.6132293306	-2.5804304359	-0.1225414253	-0.414347
H	 0.4228402928	 1.0278596157	 3.2359411759	 0.146404
H	-1.1886501124	 1.3020064922	 2.5651701948	 0.144527
H	-0.9988723103	 0.3905985411	 4.0685920771	 0.144676
H	 1.9455262067	-3.1867980062	 1.2466679603	 0.121532
H	 1.2985857659	-4.0594117501	-0.1538934164	 0.10927
H	 1.5512640886	-2.307060664	-0.2378806727	 0.12157
H	-0.4752339258	-5.0698265931	 1.1584336811	 0.08047
H	-2.3404675139	-3.1681382427	 2.730024348	 0.128457
H	-2.7299862024	-4.8643249825	 2.3959020318	 0.112254
H	-1.3487272974	-4.4493085202	 3.4206649981	 0.116901
H	-1.0132005503	-3.8700802489	-0.8670204265	 0.080478
H	-2.8581517756	-2.0081524115	 0.7743458397	 0.128435
H	-2.5089621351	-1.8656582528	-0.9459791423	 0.116841
H	-3.4617390247	-3.233980229	-0.3542660008	 0.11224
20.6446	90.2818	92.0801	149.8944	158.5277	198.4727	214.7242	217.3514	259.2434	262.4223	302.1601	365.3876	412.5869	518.3365	540.9873	588.4667	605.8787	751.7024	784.8552	862.4596	959.4227	999.7982	1031.7616	1036.8536	1052.4901	1053.9145	1081.1029	1107.3414	1110.9554	1140.5341	1153.9334	1185.7688	1251.6906	1347.1414	1374.3189	1410.4705	1415.1079	1418.496	1422.9359	1440.1212	1478.1617	1480.3785	1484.572	1486.0401	1493.4841	1499.4717	1500.5379	1512.9867	2357.9454	3022.7252	3029.4554	3032.1851	3035.3947	3080.6563	3083.1737	3088.2306	3089.8253	3098.1322	3102.8885	3112.4358	3123.5713	3129.6775	3140.2608
CC#CC1(C)C(C)C1C	CC#C[C@@]1(C)[C@@H](C)[C@H]1C	
InChI=1S/C9H14/c1-5-6-9(4)7(2)8(9)3/h7-8H,1-4H3	InChI=1S/C9H14/c1-5-6-9(4)7(2)8(9)3/h7-8H,1-4H3/t7-,8+,9-
