21
gdb 74321	3.21603	0.93986	0.76078	0.9939	91.89	-0.2283	0.0299	0.2581	1531.0794	0.181551	-349.946993	-349.937479	-349.936534	-349.981577	35.769	
C	-0.0359198383	 1.5401975771	 0.1079182867	-0.489613
C	 0.0362469546	 0.0480647198	 0.0286875521	 0.326493
C	-0.0094732098	-0.7096653072	-1.0690865173	-0.168501
C	 0.0403422884	-2.1890185585	-0.766491896	-0.011873
C	 0.9978298372	-2.997753665	-1.6736167274	-0.364563
C	 0.5833811319	-3.0239748387	-3.0711966541	 0.30027
C	 0.216196517	-3.0322066109	-4.2161780612	-0.446898
C	 0.4609777691	-2.214564936	 0.7271013394	-0.236071
C	 0.1203042625	-0.8094835939	 1.2764430074	-0.300806
H	 0.8497636871	 1.9542138738	 0.606961832	 0.122836
H	-0.113057115	 1.9954980251	-0.88307524	 0.123349
H	-0.902464502	 1.8636420609	 0.6993999653	 0.123575
H	-0.1104473368	-0.3350894618	-2.0822246944	 0.094751
H	-0.9617594831	-2.6252051708	-0.8907218945	 0.085556
H	 2.0068027376	-2.5716407159	-1.596419969	 0.125878
H	 1.0668617052	-4.0264351403	-1.2959558762	 0.126261
H	-0.0969385885	-3.0466535228	-5.2304503545	 0.192083
H	-0.0168400651	-3.0233172326	 1.286488699	 0.09683
H	 1.5436210304	-2.3758328509	 0.789199688	 0.099815
H	 0.8658730431	-0.4431830813	 1.9927524404	 0.097954
H	-0.8418604257	-0.8001235701	 1.8093471445	 0.102672
65.386	93.4898	135.2317	166.954	193.9737	266.9802	352.4964	354.5713	382.4991	449.0092	516.2969	589.9588	616.1493	630.7952	648.6179	822.0054	861.1181	863.2163	891.0486	922.6346	943.1261	985.9708	1010.1259	1027.9219	1052.0291	1072.5541	1105.5384	1171.4668	1185.5729	1210.5008	1247.436	1277.8702	1282.5474	1325.8787	1341.3362	1352.9158	1372.3198	1414.7596	1469.9468	1479.7522	1482.8052	1488.5856	1499.2958	1722.0717	2235.55	2989.935	3000.3972	3013.9845	3015.2526	3033.0876	3048.4313	3049.2629	3059.3694	3093.3384	3110.2411	3190.1795	3507.7686
CC1=CC(CC#C)CC1	CC1=C[C@@H](CC#C)CC1	
InChI=1S/C9H12/c1-3-4-9-6-5-8(2)7-9/h1,7,9H,4-6H2,2H3	InChI=1S/C9H12/c1-3-4-9-6-5-8(2)7-9/h1,7,9H,4-6H2,2H3/t9-/m0/s1
