18
gdb 43702	4.60937	1.22451	1.1008	2.911	78.18	-0.2555	0.0299	0.2854	1120.0699	0.149155	-401.901619	-401.894564	-401.89362	-401.933091	28.693	
N	 0.0534739489	 1.1819425064	 0.669831221	-0.545467
C	-0.0204526774	 0.0735222987	 0.0883792787	 0.406748
C	-1.141009901	-0.8789920141	-0.265602451	-0.4711
C	-0.0099399124	-1.7238288198	-0.8724733661	 0.534214
O	 0.9672870699	-0.7147934089	-0.4685355651	-0.300721
C	 0.2944744482	-3.2138525545	-0.6254165596	-0.125728
C	-0.7876462239	-3.4965574739	-1.7115902069	-0.229623
C	 0.0652206385	-2.3259764134	-2.2886839231	-0.125725
C	 1.324763877	-3.1045821387	-1.7935086588	-0.233235
H	 1.0199365217	 1.5106420228	 0.7120794019	 0.226348
H	-1.6586146981	-1.3130571277	 0.592005143	 0.139766
H	-1.8738683988	-0.4796342456	-0.9693399055	 0.139766
H	 0.4206038508	-3.7118040768	 0.3359101438	 0.082094
H	-0.6920291869	-4.4503324513	-2.233907688	 0.102917
H	-1.8283166696	-3.2836827738	-1.4545150362	 0.100898
H	-0.0717524186	-1.804955685	-3.2362011822	 0.082094
H	 2.2232556368	-2.5172790653	-1.6038400052	 0.120486
H	 1.547465465	-4.0351360291	-2.3209465805	 0.096266
91.7369	196.0365	240.3978	392.2505	415.6637	432.6722	498.8523	574.9698	597.1829	758.962	788.7894	801.8075	866.8985	877.2386	896.5662	906.4056	947.6094	974.3311	1003.7444	1012.9246	1019.027	1042.4116	1071.0024	1083.0456	1096.7096	1118.3677	1160.971	1187.8583	1191.8653	1195.5332	1239.4369	1243.6039	1254.6445	1301.0571	1336.1859	1461.4421	1497.8909	1533.1341	1827.875	3062.541	3069.065	3081.984	3116.0486	3120.3381	3129.3958	3134.6208	3147.2037	3473.2003
N=C1CC2(O1)C1CC2C1	[NH][C]1C[C@@]2(O1)[C@H]1C[C@@H]2C1	
InChI=1S/C7H9NO/c8-6-3-7(9-6)4-1-5(7)2-4/h4-5,8H,1-3H2	InChI=1S/C7H9NO/c8-6-3-7(9-6)4-1-5(7)2-4/h4-5,8H,1-3H2/t4-,5+,7-
