21
gdb 53974	2.87192	1.01246	0.93183	2.8008	79.46	-0.2464	-0.029	0.2174	1360.1031	0.177684	-424.261199	-424.250196	-424.249252	-424.298149	38.916	
C	 0.1551270513	 1.4931431944	 0.0816517065	-0.48505
C	-0.1147277291	-0.0023558756	 0.0204993369	 0.380138
O	-0.437891748	-0.6097443311	 1.0151169239	-0.307467
C	 0.0172595299	-0.7109388812	-1.3501133816	 0.13361
C	-1.2811448443	-0.4029170135	-2.1368877796	-0.431049
C	 1.2406592803	-0.1934052466	-2.1309036665	-0.433268
C	 0.1580241052	-2.2367780194	-1.0846849936	-0.280858
C	 0.0457101101	-3.062075408	-2.3450191067	 0.134176
O	 0.9837681194	-3.402520501	-3.0233547105	-0.245128
H	 1.2344448943	 1.6736706412	 0.0267688196	 0.150901
H	-0.3013632934	 2.0350079774	-0.7510344127	 0.136946
H	-0.2181505556	 1.8807901832	 1.0300795286	 0.145745
H	-1.4314661843	 0.675023839	-2.2472309389	 0.122726
H	-1.232044808	-0.8258048176	-3.1450339162	 0.13245
H	-2.1595909569	-0.8170801322	-1.6324288158	 0.131551
H	 2.1584030116	-0.2895752752	-1.5415238331	 0.123695
H	 1.3802769822	-0.7771246844	-3.0446103037	 0.145927
H	 1.1247052674	 0.8558666951	-2.4154197592	 0.11562
H	 1.134831033	-2.4319592581	-0.6318655128	 0.122272
H	-0.6167621048	-2.5381237339	-0.3745106518	 0.128126
H	-0.9908836802	-3.3468110126	-2.6373344327	 0.078938
41.3375	48.2358	75.9005	150.2279	199.9669	214.0575	256.3576	272.2612	288.5082	332.1994	339.2292	359.8569	467.9814	511.0824	567.785	610.7847	671.0022	808.9884	902.9437	934.1	949.419	964.2245	995.6747	1000.721	1055.6989	1070.4229	1135.1556	1152.9347	1222.5596	1253.0293	1275.6141	1315.8535	1380.1815	1400.1245	1425.3618	1430.0538	1460.1614	1472.0786	1476.2291	1486.6962	1494.1535	1507.5375	1510.9514	1800.7314	1820.672	2866.6497	3036.9882	3040.5602	3047.0796	3058.4438	3106.6821	3109.0016	3110.4342	3114.4925	3116.4825	3122.9973	3155.329
CC(=O)C(C)(C)CC=O	CC(=O)C(C)(C)CC=O	
InChI=1S/C7H12O2/c1-6(9)7(2,3)4-5-8/h5H,4H2,1-3H3	InChI=1S/C7H12O2/c1-6(9)7(2,3)4-5-8/h5H,4H2,1-3H3
