13
gdb 124055	3.93989	1.63832	1.16558	4.3753	66.02	-0.2324	-0.0468	0.1856	945.7988	0.092456	-452.744414	-452.738132	-452.737188	-452.775716	23.374	
C	 0.0047181101	 1.5233853311	 0.1176664138	-0.18894
O	 1.3015420368	 2.0144004367	-0.3424008049	-0.230491
C	 2.272745741	 1.1850009483	-0.7455832823	 0.151323
N	 2.2740843666	-0.0951520174	-0.8087215272	-0.355393
C	 1.0800173075	-0.631012208	-0.3891280698	 0.432715
C	-0.0228291629	 0.032557804	 0.0550661895	 0.065651
C	-0.932074469	-1.0091899504	 0.3435892052	-0.088983
N	-0.4143745149	-2.1938201534	 0.0924319258	-0.140912
O	 0.8798160998	-1.9512440567	-0.3789247879	-0.210629
H	-0.127559939	 1.9179073291	 1.1322708943	 0.139635
H	-0.7460942775	 1.9989119716	-0.5247705898	 0.139633
H	 3.1491815131	 1.7531311075	-1.0449901678	 0.150806
H	-1.9432670616	-0.9598533225	 0.7235288111	 0.135585
61.8476	229.0808	252.4505	418.5193	485.7636	518.0926	638.7251	642.1429	756.2143	762.1056	855.607	904.2909	912.5351	938.1008	966.598	968.2623	1053.7147	1141.6009	1203.479	1233.2579	1234.4393	1322.5556	1382.7364	1409.2627	1446.6259	1509.1825	1527.8698	1643.5383	1668.2839	3020.0753	3048.1352	3189.7962	3238.5535
C1OC=NC2=C1C=NO2	C1OC=Nc2c1cno2	
InChI=1S/C5H4N2O2/c1-4-2-8-3-6-5(4)9-7-1/h1,3H,2H2	InChI=1S/C5H4N2O2/c1-4-2-8-3-6-5(4)9-7-1/h1,3H,2H2
