16
gdb 55436	2.79943	1.56577	1.02163	2.4483	67.27	-0.2491	0.0217	0.2709	1099.742	0.126563	-471.275988	-471.26782	-471.266875	-471.309223	29.934	
N	-0.0006261595	 1.3129491558	-0.2730832946	-0.565287
C	 0.0582517419	-0.0267775532	-0.107574336	 0.472361
O	 1.0697983062	-0.7031140699	-0.0989906195	-0.405667
N	-1.1973268591	-0.6613050587	 0.0413286701	-0.195768
C	-1.2509090249	-2.0985293086	 0.2794588199	-0.175017
C	-2.7545732024	-2.3545170042	 0.1313297334	-0.111345
O	-3.3693247354	-1.0724783959	 0.3616752632	-0.248276
C	-2.4499977427	-0.088272008	 0.1838581695	 0.519239
N	-2.7076510127	 1.1553955179	 0.1646710248	-0.618683
H	 0.8775533964	 1.7995607148	-0.306557665	 0.262258
H	-0.8870006333	 1.7957496217	-0.1560088238	 0.289904
H	-0.6453215122	-2.6369872652	-0.4497178655	 0.148987
H	-0.8782450569	-2.3452017664	 1.2799876819	 0.131428
H	-3.0180573037	-2.6913273803	-0.8772099613	 0.128087
H	-3.1536208865	-3.0593211649	 0.8620040685	 0.133698
H	-3.7053812154	 1.318669295	 0.2627366344	 0.23408
83.8878	89.698	168.4295	190.2001	260.06	356.449	401.6379	443.6721	588.8806	639.042	660.2638	697.3433	725.3177	763.744	774.564	783.7702	887.7869	974.6207	1009.0199	1080.8535	1135.1438	1141.6506	1160.0972	1221.2278	1235.8791	1258.1256	1302.5721	1389.1681	1390.9279	1446.3353	1521.965	1531.1338	1609.1333	1758.6876	1807.6746	3043.3336	3049.979	3121.9535	3132.8572	3454.9687	3547.4763	3714.9889
NC(=O)N1CCOC1=N	NC(=O)N1CCO[C]1[NH]	
InChI=1S/C4H7N3O2/c5-3(8)7-1-2-9-4(7)6/h6H,1-2H2,(H2,5,8)	InChI=1S/C4H7N3O2/c5-3(8)7-1-2-9-4(7)6/h6H,1-2H2,(H2,5,8)
