13
gdb 129367	4.48796	0.94044	0.83205	3.3465	62.1	-0.2837	-0.0855	0.1983	1296.364	0.088323	-485.991673	-485.983816	-485.982871	-486.026	26.545	
N	-0.4762152273	 1.0925640772	-0.1586621339	-0.426968
C	-0.5236128133	-0.1507711197	-0.3400752362	 0.139307
O	-0.7191236518	-0.9702202103	 0.7263383115	-0.176433
C	-0.8637174976	-2.3556177081	 0.4583400174	-0.200136
C	-2.2961592002	-2.7207528499	 0.2281038478	 0.426856
N	-3.0167766074	-3.4679374225	 1.0128374547	-0.131357
O	-4.227375102	-3.5204025194	 0.4192570729	-0.132891
N	-4.187774945	-2.763289812	-0.7539605352	 0.056496
N	-3.0304647304	-2.2904820719	-0.8635550495	-0.19625
H	-0.3024076807	 1.5710709289	-1.0398455445	 0.238348
H	-0.4118471311	-0.6889731297	-1.2900810805	 0.100836
H	-0.2659494305	-2.652811045	-0.4124747861	 0.139526
H	-0.4972761926	-2.8921033076	 1.3346810516	 0.162666
43.6599	55.6224	109.4844	177.4602	281.2919	364.2647	401.3785	636.64	672.6865	678.3457	698.0997	811.0159	821.2372	943.45	965.405	1014.1256	1038.7952	1062.1512	1098.5902	1144.7842	1233.4964	1298.8463	1346.1033	1392.9221	1423.7614	1483.8133	1489.2334	1595.6708	1753.6002	3032.7465	3041.6877	3133.4578	3525.6977
N=COCC1=NON=N1	[NH][CH]OCc1nonn1	
InChI=1S/C3H4N4O2/c4-2-8-1-3-5-7-9-6-3/h2,4H,1H2	InChI=1S/C3H4N4O2/c4-2-8-1-3-5-7-9-6-3/h2,4H,1H2
