25
gdb 60249	2.86183	0.84232	0.78328	1.7891	89.	-0.239	0.0767	0.3157	1647.2725	0.227333	-389.485796	-389.475013	-389.474069	-389.522519	39.387	
C	-0.1724471446	 1.5564852304	 0.0813325767	-0.383357
C	-0.0237677844	 0.0289478812	 0.0292666323	 0.040123
C	-1.3987884173	-0.646094142	 0.1289803417	-0.390001
C	 0.7170098777	-0.4498161749	-1.2362380454	-0.193498
C	 2.1879939847	-0.0470439307	-1.3009711947	-0.065659
C	 3.1505749463	-0.8524826746	-0.3983955018	-0.077286
O	 3.7810040065	-1.4720721771	-1.5355501709	-0.292413
C	 3.0572524873	-0.6233209513	-2.4593095129	 0.145511
C	 2.4344720132	-1.4049674433	-3.5989987219	-0.402791
H	 0.793694901	 2.0695598697	 0.0811510034	 0.113879
H	-0.7437469319	 1.9205203888	-0.781326232	 0.111344
H	-0.7068872431	 1.8651985435	 0.9857226122	 0.111603
H	 0.5660245447	-0.2841046038	 0.9033334599	 0.074328
H	-2.0278262667	-0.3798468611	-0.7291848615	 0.111746
H	-1.3086437932	-1.737244359	 0.1483082436	 0.110488
H	-1.9286613469	-0.3360761974	 1.0357062971	 0.109392
H	 0.6443618014	-1.5433689143	-1.2879832597	 0.096456
H	 0.1893910779	-0.0653466047	-2.1206486507	 0.090976
H	 2.2895992942	 1.036040452	-1.2008935838	 0.07339
H	 3.8588933378	-0.2507486309	 0.1868540183	 0.093009
H	 2.6865386871	-1.5937988003	 0.2652520486	 0.096062
H	 3.7325441749	 0.1411854081	-2.8730911666	 0.066313
H	 1.7497914835	-2.1752705331	-3.2357495581	 0.121081
H	 1.8879932224	-0.7369017039	-4.273640022	 0.11386
H	 3.2226185573	-1.8978103513	-4.1772605819	 0.125444
36.0908	70.8574	90.3967	132.9449	206.8914	214.6523	233.2174	240.4435	331.4819	363.8926	385.0393	417.0788	447.3131	510.7002	739.4365	815.7863	836.1615	875.9304	886.79	905.9618	925.7082	952.6488	966.8527	999.0943	1026.8277	1036.3489	1092.3572	1106.2905	1147.1126	1162.4206	1166.1079	1188.373	1199.9431	1248.8729	1265.445	1297.3805	1314.0386	1354.5666	1364.6264	1373.7706	1388.5972	1399.9337	1402.7624	1409.6475	1421.2432	1478.2393	1483.6235	1487.9436	1493.5664	1500.1596	1504.0547	1510.4143	1527.2021	2976.4754	2993.7439	3001.5523	3008.1417	3022.5874	3028.6849	3037.7643	3039.4255	3047.4446	3080.433	3087.2796	3093.7115	3098.9673	3104.337	3105.5316	3124.12
CC(C)CC1COC1C	CC(C)C[C@H]1CO[C@H]1C	
InChI=1S/C8H16O/c1-6(2)4-8-5-9-7(8)3/h6-8H,4-5H2,1-3H3	InChI=1S/C8H16O/c1-6(2)4-8-5-9-7(8)3/h6-8H,4-5H2,1-3H3/t7-,8-/m0/s1
