17
gdb 69071	2.6291	1.65449	1.20565	1.8207	79.96	-0.2434	-0.002	0.2415	1054.2041	0.133865	-384.652906	-384.644608	-384.643664	-384.685281	32.407	
C	-0.0865770378	 1.5585030657	-0.0109592044	-0.49112
C	 0.1311469676	 0.0737612333	-0.0322191609	 0.306425
O	-0.6557144352	-0.70367542	 0.9007923149	-0.327158
C	 0.7755966886	-0.727311989	 1.0505348553	 0.169377
C	 1.4329597188	-1.9502661916	 0.4049644591	-0.355152
C	 1.0830690724	-1.7966474597	-1.0590033388	-0.085704
C	 0.3985577605	-0.6778834368	-1.3013601137	-0.120942
C	 1.3096993765	-0.1729143188	 2.2601863559	 0.220904
C	 1.7849571642	 0.2718016937	 3.2714647754	-0.376002
H	 0.7160331089	 2.0726607847	-0.5495290174	 0.127387
H	-1.0356351799	 1.8120819423	-0.4955876039	 0.13045
H	-0.1136195506	 1.9267798854	 1.016564421	 0.142793
H	 2.5163272687	-1.9455413973	 0.5735671525	 0.124901
H	 1.0438633385	-2.8807558812	 0.8344789529	 0.132547
H	 1.350280834	-2.5440048986	-1.7972571154	 0.105644
H	 0.0442392715	-0.3398838998	-2.2677460061	 0.103977
H	 2.1942160631	 0.6668450877	 4.1683349935	 0.191673
130.1905	143.2573	178.2889	234.5701	285.1269	336.0468	424.8831	474.0504	516.3663	540.0372	591.4417	615.0773	651.0958	668.389	713.6995	745.6362	793.7864	892.4334	918.0405	950.7761	951.0365	994.2927	1045.8665	1089.3934	1145.6602	1160.4384	1196.0092	1237.4563	1311.445	1367.1658	1399.5374	1422.7103	1457.429	1482.7057	1491.5096	1668.1899	2237.8982	3038.4228	3039.1049	3074.3682	3101.4199	3135.1071	3192.0451	3216.6767	3500.9746
CC12OC1(CC=C2)C#C	C[C@]12O[C@]1(CC=C2)C#C	
InChI=1S/C8H8O/c1-3-8-6-4-5-7(8,2)9-8/h1,4-5H,6H2,2H3	InChI=1S/C8H8O/c1-3-8-6-4-5-7(8,2)9-8/h1,4-5H,6H2,2H3/t7-,8+/m1/s1
