17
gdb 31350	3.34246	1.2146	0.95044	3.8	79.63	-0.2337	-0.0244	0.2094	1242.435	0.137289	-418.049656	-418.041442	-418.040498	-418.083194	30.278	
C	 0.4934505225	 0.9003244082	 0.6462944783	-0.383796
C	-0.2388153466	 0.3366066384	-0.5836244839	-0.268821
C	-1.5892142749	-0.2207012311	-0.245088967	 0.405836
N	-2.6794501865	 0.2951412315	-0.6538057451	-0.351847
C	-3.9210577624	-0.27726575	-0.2797982819	 0.322063
N	-5.0437101613	 0.1972163674	-0.6628267631	-0.52569
C	-3.8442383572	-1.4544811053	 0.5798836351	-0.156992
C	-2.6499439863	-1.9160073615	 0.9525172888	 0.039904
O	-1.4810091914	-1.3262416721	 0.5581513078	-0.225441
H	 1.4729207668	 1.2892866472	 0.355903353	 0.125985
H	-0.0762918715	 1.7172728185	 1.098814731	 0.133766
H	 0.6436951418	 0.1263342754	 1.4032138343	 0.134128
H	-0.3903587433	 1.1118537875	-1.3363578755	 0.136558
H	 0.3620041903	-0.4632248089	-1.0325529315	 0.126071
H	-4.8691867046	 1.0146555733	-1.2519651645	 0.21715
H	-4.7566258224	-1.9373734922	 0.9028473559	 0.128935
H	-2.464169633	-2.7759634562	 1.5824462383	 0.142193
47.4367	115.1835	147.3224	209.7646	289.4579	331.9859	401.1213	479.5657	525.5136	552.3957	680.3253	745.5585	762.0865	796.2817	846.9904	902.435	921.6596	924.3492	968.5844	984.398	1021.6031	1081.2692	1109.1552	1147.259	1223.4763	1244.3034	1293.0557	1351.0935	1366.4636	1408.7411	1427.6859	1472.8372	1498.259	1508.2636	1647.9095	1709.7239	1734.5591	3045.0065	3048.6887	3115.235	3122.2868	3136.5416	3220.7631	3240.3121	3455.8478
CCC1=NC(=N)C=CO1	CCC1=NC(=CCO1)[NH]	
InChI=1S/C6H8N2O/c1-2-6-8-5(7)3-4-9-6/h3-4,7H,2H2,1H3	InChI=1S/C6H9N2O/c1-2-6-8-5(7)3-4-9-6/h3,7H,2,4H2,1H3
