20
gdb 95500	2.19055	1.49555	0.93602	1.9415	76.85	-0.2449	0.0126	0.2575	1256.9734	0.171219	-440.288771	-440.279753	-440.278809	-440.322787	33.957	
C	 0.2218228797	 1.5961981698	 0.0375091994	-0.385935
C	 0.0020688353	 0.0808949821	-0.0359298259	 0.041618
C	 0.6476766622	-0.4982231847	-1.3035205493	-0.186115
C	 0.265347245	-1.9425381232	-1.5893771276	 0.073052
O	 0.7906350635	-2.2638855517	-2.8727181877	-0.428188
C	 0.8534310506	-2.9129351298	-0.5630130394	-0.087165
O	 0.2977072968	-2.8372578831	 0.7497810798	-0.231577
C	 0.4974899108	-1.7200570961	 1.5101382636	 0.10889
N	 0.4317189036	-0.49354953	 1.2378865717	-0.243652
H	 1.2915353094	 1.8258837456	 0.0836305313	 0.118154
H	-0.202174342	 2.0985535717	-0.8376458775	 0.105209
H	-0.2459833797	 2.0006077544	 0.9381650088	 0.121255
H	-1.0828462743	-0.0992924697	-0.1076438021	 0.089208
H	 0.3388103962	 0.1061457407	-2.1628306265	 0.109415
H	 1.7402908134	-0.4204991183	-1.2346921402	 0.105034
H	-0.8329423503	-2.0376359836	-1.5779418075	 0.073019
H	 0.4743026063	-3.1389387394	-3.1204074209	 0.28536
H	 0.6668889056	-3.9442065034	-0.8799802696	 0.102094
H	 1.9400016185	-2.7620023575	-0.5149715685	 0.114743
H	 0.7002352594	-2.0220506737	 2.5393228482	 0.115581
42.488	144.683	197.0328	232.2726	259.7303	291.6911	325.6157	339.0109	396.1201	408.1803	470.3929	527.596	577.7669	779.5205	803.5117	890.9606	906.489	949.867	953.1507	984.6569	1007.3271	1050.6315	1095.4475	1129.1042	1135.629	1141.4767	1167.2217	1218.8703	1259.9366	1302.6454	1316.6065	1349.0156	1357.8788	1367.9234	1409.5638	1412.9904	1429.5572	1444.7698	1479.2382	1488.5799	1496.3847	1500.4711	1752.7352	2966.8813	2975.0637	3020.2355	3032.3109	3039.1285	3078.979	3083.6873	3108.0525	3119.1592	3125.3323	3812.7085
CC1CC(O)COC=N1	C[C@H]1C[C@@H](O)COC=N1	
InChI=1S/C6H11NO2/c1-5-2-6(8)3-9-4-7-5/h4-6,8H,2-3H2,1H3	InChI=1S/C6H11NO2/c1-5-2-6(8)3-9-4-7-5/h4-6,8H,2-3H2,1H3/t5-,6+/m0/s1
