13
gdb 10241	2.29508	2.03024	1.27576	3.3424	65.77	-0.249	0.0124	0.2614	943.9797	0.092306	-361.418214	-361.409491	-361.408547	-361.451912	31.165	
N	 0.8203187659	 0.146711893	 0.7380451426	-0.515079
C	-0.1766906612	 0.2272756121	-0.1742756386	 0.412708
O	-0.2680590635	 1.0778131112	-1.0289750215	-0.348259
C	-1.2919341553	-0.8666759765	-0.0239310811	-0.440868
C	-0.8046361494	-2.1359906689	 0.5180478286	 0.314605
C	-0.3752952235	-3.1660346724	 0.9640410113	-0.431929
C	-2.3884144104	-0.3177212703	 0.7776000311	 0.351219
C	-3.278745475	 0.1460560052	 1.435511794	-0.4614
H	 1.5718289641	 0.8141953599	 0.6841918007	 0.267881
H	 0.8993303923	-0.643388665	 1.3556984305	 0.272306
H	-1.6459103657	-1.0211265877	-1.0502919743	 0.165512
H	-0.0138419985	-4.0879807559	 1.3487821683	 0.207637
H	-4.0701767198	 0.5554440954	 2.0133760783	 0.205668
34.917	125.979	149.792	165.7707	285.8102	332.6189	376.0182	396.8093	466.5308	560.9121	563.7022	610.2235	634.9353	646.6266	651.9384	655.3656	742.3535	853.0203	956.1797	1043.5865	1105.1163	1228.2213	1294.1477	1340.4415	1613.4353	1826.0798	2235.1048	2245.5606	3042.4542	3499.9887	3504.1876	3597.7003	3731.9965
NC(=O)C(C#C)C#C	NC(=O)C(C#C)C#C	
InChI=1S/C6H5NO/c1-3-5(4-2)6(7)8/h1-2,5H,(H2,7,8)	InChI=1S/C6H5NO/c1-3-5(4-2)6(7)8/h1-2,5H,(H2,7,8)
