18
gdb 112764	2.14474	1.37974	1.0188	3.2759	72.09	-0.2658	0.0128	0.2786	1210.3801	0.146732	-439.080244	-439.070949	-439.070005	-439.115169	33.275	
C	 0.4076333856	 1.3802337319	-0.3677807202	-0.408666
C	 0.1105577478	-0.0474631297	 0.0323657308	 0.15478
O	 0.8385826657	-1.0202156756	-0.7531705957	-0.314321
C	 1.4215591609	-1.6390771006	 0.4165536607	 0.118229
C	 2.9370676808	-1.6479416875	 0.3093722788	-0.080703
O	 3.3239331806	-2.3601250303	-0.8475402571	-0.417604
C	 0.7187491657	-0.6160577753	 1.3585118712	-0.277843
C	 1.563432981	 0.2708037105	 2.1395705323	 0.298785
N	 2.2307625912	 0.9843271372	 2.7583194667	-0.334589
H	 1.4715973272	 1.6099885004	-0.2691060016	 0.141247
H	 0.111800042	 1.5338680772	-1.4098709126	 0.135107
H	-0.1580606621	 2.0785513603	 0.2573518998	 0.133502
H	-0.9669529135	-0.2460533143	-0.0247202198	 0.095736
H	 1.0492379095	-2.6629055175	 0.5401902184	 0.098951
H	 3.3172529213	-0.6155945039	 0.3019583818	 0.105644
H	 3.3770135846	-2.1611574486	 1.1711021186	 0.121324
H	 2.8747677773	-1.9366533258	-1.5893392709	 0.295827
H	-0.0229460656	-1.0696264285	 2.0180489588	 0.134594
39.8171	103.4781	116.9116	150.5223	220.1519	248.2834	334.6488	367.535	416.1629	447.5798	478.9754	522.4001	625.0652	769.1562	810.944	831.816	898.9685	939.3941	995.1992	1040.3292	1081.8966	1098.1956	1114.5457	1127.3366	1157.7051	1192.7905	1224.1034	1273.4303	1302.5435	1343.5234	1347.6519	1382.9314	1405.3162	1416.1363	1436.054	1481.4437	1491.4814	1495.2891	2352.9243	2998.1317	3024.8604	3039.964	3043.9012	3081.7308	3101.2264	3116.6721	3129.447	3789.5048
CC1OC(CO)C1C#N	C[C@H]1O[C@@H](CO)[C@H]1C#N	
InChI=1S/C6H9NO2/c1-4-5(2-7)6(3-8)9-4/h4-6,8H,3H2,1H3	InChI=1S/C6H9NO2/c1-4-5(2-7)6(3-8)9-4/h4-6,8H,3H2,1H3/t4-,5+,6+/m1/s1
