17
gdb 96230	2.48917	1.64861	1.10831	3.9686	71.77	-0.2536	-0.0553	0.1983	1079.9175	0.136318	-458.972711	-458.964781	-458.963837	-459.005526	30.148	
O	 0.2660961114	 0.752658284	 1.0816370485	-0.437712
C	 0.0602281464	-0.149422559	 0.0289984554	 0.034385
C	-1.4377070415	-0.4480753505	-0.1432894557	-0.111653
O	-2.0495092345	 0.3307418292	-1.1597468187	-0.234577
C	-2.0722571362	-0.2978193019	-2.4153181255	-0.145574
C	-0.7365554741	-0.5149774117	-3.0620094979	-0.034728
C	 0.4673280084	-0.2176984789	-2.5638596589	-0.162226
C	 0.7413058289	 0.3854922114	-1.2390708873	 0.346668
O	 1.5877947567	 1.2503046599	-1.1106280553	-0.347349
H	 0.9739147545	 1.3422996494	 0.7724212144	 0.293127
H	 0.5732807478	-1.1095745883	 0.2393225347	 0.08978
H	-1.6005110173	-1.5172783961	-0.3385169945	 0.09245
H	-1.9260657107	-0.1896968798	 0.7998692215	 0.136245
H	-2.6037200456	-1.2665490356	-2.3602300503	 0.11005
H	-2.6753448817	 0.3442756218	-3.0706355706	 0.135068
H	-0.7949542122	-0.9095829133	-4.0756088855	 0.11304
H	 1.3480484597	-0.3168817406	-3.1925025142	 0.123006
65.3606	104.3632	255.4997	277.6285	325.3423	365.8496	407.1764	489.0515	502.7893	540.5083	574.6354	673.2103	697.3556	795.3648	863.4039	890.9899	947.7942	967.0455	995.6256	1043.4826	1073.6492	1110.7565	1174.3075	1188.4844	1222.0633	1274.0473	1281.8672	1336.3091	1352.2339	1395.5332	1407.5065	1410.4612	1437.4117	1465.3137	1489.601	1699.3021	1761.6819	2900.4552	2936.1214	3008.4533	3042.1594	3102.7155	3140.5429	3174.1641	3669.2268
OC1COCC=CC1=O	O[C@H]1COCC=CC1=O	
InChI=1S/C6H8O3/c7-5-2-1-3-9-4-6(5)8/h1-2,6,8H,3-4H2	InChI=1S/C6H8O3/c7-5-2-1-3-9-4-6(5)8/h1-2,6,8H,3-4H2/t6-/m0/s1
