22
gdb 107919	3.45429	1.18732	1.09043	1.4413	86.05	-0.2303	0.0856	0.3159	1251.5136	0.194347	-367.160884	-367.152187	-367.151242	-367.194017	34.051	
C	 0.2780242329	 1.4453270523	 0.1988046287	-0.378505
C	-0.118773097	 0.0037255486	-0.1450424644	-0.294329
C	 0.5599201783	-0.5009217963	-1.38278594	 0.369035
C	 0.3164973323	-0.0898255526	-2.8406232145	-0.302344
C	 1.2384900581	-1.2789461144	-3.2155463117	-0.087909
C	 0.9451690909	-1.8755600991	-1.7859628963	-0.125576
N	 1.9940682141	-0.9614720733	-1.2405814703	-0.189469
C	 2.5901475453	-0.8402049446	-2.6185799988	 0.088678
C	 3.7458311748	-1.8087527244	-2.7883206707	-0.404817
H	 1.3582342851	 1.5152251586	 0.3568341175	 0.13235
H	 0.0094888514	 2.1358154643	-0.6079423286	 0.11327
H	-0.2244991187	 1.7854423853	 1.1092083138	 0.109679
H	 0.1403560769	-0.6589648563	 0.6882234997	 0.10847
H	-1.2061542943	-0.0651617459	-0.2795055978	 0.094679
H	-0.7265963806	-0.2698535167	-3.1160482511	 0.100565
H	 0.6205593847	 0.9085092398	-3.1766153642	 0.090978
H	 1.1570000683	-1.7785599554	-4.1799912746	 0.068596
H	 0.7181266175	-2.8567847163	-1.3891389016	 0.091708
H	 2.9105181943	 0.18184254	-2.8629545777	 0.062584
H	 3.4367407276	-2.8347614043	-2.5630720095	 0.11767
H	 4.1229414358	-1.7816665235	-3.8161403131	 0.110308
H	 4.5670953824	-1.5484868357	-2.1136639448	 0.124382
79.6988	137.2065	189.1324	232.0766	235.9478	263.0278	355.1701	374.4243	478.5378	492.0043	636.3049	723.8009	765.1466	786.5816	803.6452	831.1985	901.1829	906.5782	938.0913	945.9255	972.6894	1003.4451	1016.0412	1052.2196	1068.9636	1079.3476	1083.3155	1130.951	1150.1233	1160.1726	1183.7052	1227.8357	1241.9375	1260.5591	1290.3422	1324.4601	1343.3127	1382.3867	1406.3538	1409.698	1429.2683	1475.8971	1488.2066	1495.4451	1497.1296	1502.7854	1509.2046	3008.836	3023.7084	3032.2646	3033.8755	3036.8075	3066.3866	3094.7906	3103.5429	3103.7949	3109.3097	3116.1098	3122.5557	3194.905
CCC12CC3C1N2C3C	CC[C@]12C[C@@H]3[C@H]1N2[C@H]3C	
InChI=1S/C8H13N/c1-3-8-4-6-5(2)9(8)7(6)8/h5-7H,3-4H2,1-2H3	InChI=1S/C8H13N/c1-3-8-4-6-5(2)9(8)7(6)8/h5-7H,3-4H2,1-2H3/t5-,6-,7+,8-,9?/m0/s1
