17
gdb 45517	4.40388	1.27334	1.03228	3.0452	76.22	-0.214	0.0227	0.2367	1121.1602	0.140122	-418.073026	-418.066035	-418.065091	-418.104314	28.216	
O	 0.0469188248	-0.0728917388	-0.0868711794	-0.392295
C	-0.0195603614	 1.1283937728	-0.0042609516	 0.427862
N	-1.1672858493	 1.9155394055	 0.0490731356	-0.365108
C	-0.8233839108	 3.3240838378	-0.11267173	-0.021658
C	-1.3949349129	 4.4179445636	 0.8027017938	-0.242947
C	-0.1729041297	 5.369614939	 0.9958811609	-0.239424
C	 1.0190520939	 4.4278873351	 0.8970972198	-0.247398
C	 0.6271579666	 3.2978985872	 0.3102348697	 0.422879
N	 1.0797926856	 2.0127070512	 0.0756930925	-0.461666
H	-1.9943962802	 1.5181263408	-0.3680389649	 0.253532
H	-0.9157449934	 3.6252945023	-1.1701643805	 0.091193
H	-2.2733613205	 4.9220186352	 0.3908205625	 0.094854
H	-1.6669952821	 3.9696110692	 1.7632915467	 0.11501
H	-0.1574194371	 6.1491471351	 0.2199727417	 0.104561
H	-0.211890787	 5.8931563787	 1.9569029886	 0.10702
H	 2.0026020268	 4.6539066026	 1.2863578604	 0.090384
H	 1.9657246965	 1.6484689827	 0.3870530043	 0.2632
127.2286	183.4374	279.1854	340.0657	427.9475	493.8493	531.1798	548.6562	585.0888	639.0125	712.1845	760.5327	772.8594	794.8798	855.4072	876.3317	907.9853	964.3052	980.4696	1005.0612	1069.1312	1118.5068	1168.7693	1179.1112	1205.5488	1242.5533	1287.8265	1299.4063	1312.8097	1352.1799	1368.7827	1395.3756	1418.1499	1486.287	1502.4253	1760.5228	1864.8835	2949.9308	2997.636	3054.1053	3065.9806	3108.9618	3218.3294	3639.565	3653.8241
O=C1NC2CCC=C2N1	O=C1N[C@H]2CCC=C2N1	
InChI=1S/C6H8N2O/c9-6-7-4-2-1-3-5(4)8-6/h2,5H,1,3H2,(H2,7,8,9)	InChI=1S/C6H8N2O/c9-6-7-4-2-1-3-5(4)8-6/h2,5H,1,3H2,(H2,7,8,9)/t5-/m0/s1
