18
gdb 58068	1.80947	1.66778	1.10203	3.2937	78.18	-0.2936	-0.0095	0.284	1174.7145	0.143462	-401.922772	-401.912331	-401.911387	-401.957625	38.059	
C	 0.1409304593	 1.5868982675	-0.0325239251	-0.412036
C	 0.0644108477	 0.0571649125	 0.0374764348	 0.029807
C	 0.8136380442	-0.4884917972	 1.2598500978	-0.41965
C	-1.423370693	-0.4199139539	 0.0338636545	 0.028318
O	-2.0269982151	 0.0872164454	 1.2163528373	-0.431755
C	-2.138624843	 0.0337980581	-1.169129807	 0.303368
C	-2.7509606149	 0.4023771718	-2.1344202945	-0.420638
C	-1.4715541497	-1.9090515919	 0.0494161662	 0.273988
N	-1.5208760683	-3.0630407955	 0.0784728677	-0.342968
H	 1.1882813841	 1.9004669156	-0.0637863469	 0.117338
H	-0.3574312127	 1.9759966929	-0.9237920636	 0.127983
H	-0.3253138681	 2.0378682628	 0.8471382651	 0.13701
H	 0.5095192075	-0.3643422353	-0.8712441856	 0.101556
H	 0.3774646361	-0.1046264225	 2.1856446358	 0.138951
H	 0.7912993706	-1.5809942105	 1.2970015792	 0.140124
H	 1.860383764	-0.1739795466	 1.2187362585	 0.116955
H	-2.9727116655	-0.0957855413	 1.1767641954	 0.299141
H	-3.2881477931	 0.7270264779	-2.9920847495	 0.212506
73.1072	132.2584	139.2669	169.2003	207.2635	232.824	241.2747	281.3774	310.068	342.619	362.5178	483.9417	491.4866	519.8605	583.0728	587.7971	653.6025	680.6192	701.6548	880.91	937.5383	966.5674	984.4521	1012.6908	1064.6534	1162.5846	1171.4525	1196.6512	1329.7283	1344.5047	1371.4473	1400.2796	1422.0877	1486.9383	1493.1611	1501.2977	1515.3174	2236.8852	2352.7513	3044.7642	3046.8331	3051.3463	3116.9017	3120.9026	3128.0467	3132.3915	3496.947	3808.6506
CC(C)C(O)(C#C)C#N	CC(C)[C@@](O)(C#C)C#N	
InChI=1S/C7H9NO/c1-4-7(9,5-8)6(2)3/h1,6,9H,2-3H3	InChI=1S/C7H9NO/c1-4-7(9,5-8)6(2)3/h1,6,9H,2-3H3/t7-/m1/s1
