13
gdb 20378	6.52637	1.54263	1.38523	5.1546	59.94	-0.3039	-0.0448	0.2591	860.636	0.096762	-390.892123	-390.885831	-390.884887	-390.923536	22.462	
C	-0.0987477301	 1.4632629558	-0.0971842098	-0.274732
C	 1.2907292513	 0.9051918382	 0.0760584625	-0.274612
C	 0.1056712219	-0.0210936866	 0.0382985438	 0.079735
N	-0.3097343288	-0.6806122429	 1.2459687673	 0.154485
N	-0.2525371599	-0.151968751	 2.4562758914	-0.133999
N	-0.7192159614	-1.0733480603	 3.2496751924	-0.078697
N	-1.0545191199	-2.1484600284	 2.5218144193	-0.083263
N	-0.8008658579	-1.9096397549	 1.2675179762	-0.124869
H	-0.5380983232	 1.9727774596	 0.7520202925	 0.157345
H	-0.4053399437	 1.8314609556	-1.06915838	 0.138378
H	 1.9625212182	 0.8804641936	-0.773871511	 0.138405
H	 1.7657640517	 1.0473074948	 1.0393570466	 0.157182
H	-0.0517079184	-0.6757340336	-0.8074680412	 0.144644
41.2682	169.0794	200.49	420.0093	429.0163	647.0206	735.8558	761.5928	778.2126	825.8677	913.5296	955.181	1001.0511	1054.8407	1075.0365	1092.2447	1104.7761	1120.374	1140.4544	1178.9017	1199.6632	1223.018	1250.024	1335.5383	1414.1923	1441.5169	1457.7623	1498.7052	3149.0772	3150.2385	3222.0987	3237.0633	3249.9778
C1CC1N1N=NN=N1	C1CC1n1nnnn1	
InChI=1S/C3H5N5/c1-2-3(1)8-6-4-5-7-8/h3H,1-2H2	InChI=1S/C3H5N5/c1-2-3(1)8-6-4-5-7-8/h3H,1-2H2
