16
gdb 15898	2.63149	2.07469	1.29374	3.4219	61.29	-0.2522	-0.0003	0.2518	950.6311	0.128965	-420.892297	-420.883982	-420.883038	-420.925411	28.99	
C	-0.1073174678	 1.4494100904	 0.254991184	-0.249899
O	-0.1285233261	 0.1784316341	-0.3798777017	-0.238524
C	-1.3220797235	-0.511420871	-0.1845501982	-0.063507
C	-1.3438133197	-1.953765028	-0.7392720478	 0.096351
C	-0.0540182347	-2.5114830017	-1.2939832131	-0.393676
O	-1.6309941826	-2.4600859415	 0.6190058312	-0.253009
C	-1.5264497716	-1.2143562588	 1.1767908673	 0.427419
O	-1.5771847726	-0.9182090255	 2.3280532702	-0.327177
H	 0.8623361893	 1.8968356935	 0.0292158562	 0.135236
H	-0.9046255377	 2.0993261509	-0.1356761333	 0.112128
H	-0.2256075349	 1.3572983498	 1.3409039627	 0.146392
H	-2.1966484329	 0.0925557725	-0.471309208	 0.099237
H	-2.1990640056	-2.1731479881	-1.3832286737	 0.10124
H	 0.7878001597	-2.268095859	-0.6429606503	 0.141847
H	-0.1276956532	-3.5976748586	-1.3951839406	 0.132839
H	 0.1414552339	-2.082098149	-2.2811807248	 0.133104
86.1782	102.5003	159.5441	189.2944	210.2215	251.9788	337.9274	398.5845	474.9585	545.0847	703.3603	756.0844	846.5302	886.4315	915.4956	1014.1475	1047.4768	1073.7033	1134.1051	1153.137	1183.9201	1184.6567	1241.3748	1245.7578	1317.8457	1378.2496	1385.3853	1415.0007	1480.0302	1484.9878	1487.1365	1490.1342	1512.0529	1927.3155	2988.8926	2995.0594	3051.6507	3069.1507	3083.3453	3122.6225	3134.0125	3143.8462
COC1C(C)OC1=O	CO[C@H]1[C@@H](C)OC1=O	
InChI=1S/C5H8O3/c1-3-4(7-2)5(6)8-3/h3-4H,1-2H3	InChI=1S/C5H8O3/c1-3-4(7-2)5(6)8-3/h3-4H,1-2H3/t3-,4+/m1/s1
