17
gdb 124854	3.59759	1.27287	1.02214	3.7118	74.56	-0.2498	-0.036	0.2139	1154.2111	0.135609	-417.979312	-417.971386	-417.970442	-418.012056	30.078	
C	 0.0658207391	 1.5192089151	-0.1097792375	-0.484618
C	 0.0130499403	 0.0071224065	-0.0196269691	 0.246657
C	 1.3109816283	-0.7733395326	-0.1413848716	-0.296533
C	 0.6295554797	-0.6700177403	 1.1927965765	-0.296539
C	-1.2011041523	-0.6058096266	-0.5922960937	 0.244375
C	-2.2921081662	-0.0573737512	-1.1920451267	-0.08114
O	-3.1347923816	-1.0310200567	-1.5467459426	-0.163552
N	-2.5271452555	-2.2485302557	-1.1427568301	-0.003033
N	-1.4261194078	-1.9708107607	-0.6014145423	-0.20099
H	 0.9906647218	 1.8981563352	 0.3332872527	 0.122669
H	 0.032974171	 1.8591847034	-1.1514358462	 0.122342
H	-0.7722276611	 1.9812658612	 0.4249067629	 0.122343
H	 1.2715158394	-1.7271843753	-0.6542281155	 0.136569
H	 2.2166326989	-0.2001517663	-0.3084630597	 0.115149
H	 1.0633155152	-0.0252792384	 1.9496504281	 0.115152
H	 0.1332676151	-1.5545958149	 1.5743786764	 0.13657
H	-2.5875528143	 0.9521975571	-1.4210962616	 0.164579
61.5902	172.1847	175.0549	237.4038	299.6123	323.4066	439.3675	461.6087	535.3256	646.4254	669.696	736.8332	789.9314	828.3706	837.7759	851.4516	954.6989	959.5378	984.6074	1032.873	1049.2504	1074.1843	1088.5659	1120.6469	1144.4938	1178.9182	1197.3249	1280.4268	1344.242	1350.2689	1415.3155	1460.8458	1465.689	1489.9006	1495.9779	1504.7393	1623.6923	3024.5873	3083.7583	3110.9391	3135.1808	3137.9939	3222.0612	3235.161	3293.5239
CC1(CC1)C1=CON=N1	CC1(CC1)c1conn1	
InChI=1S/C6H8N2O/c1-6(2-3-6)5-4-9-8-7-5/h4H,2-3H2,1H3	InChI=1S/C6H8N2O/c1-6(2-3-6)5-4-9-8-7-5/h4H,2-3H2,1H3
