19
gdb 35963	3.16396	1.20213	0.93571	0.8773	78.31	-0.2472	0.0392	0.2863	1252.126	0.159048	-422.977072	-422.968418	-422.967474	-423.010525	32.802	
C	 0.0811243712	-1.2214931946	-0.0289068152	-0.399069
C	 0.0587335786	-0.0206950385	-0.0143360484	 0.30398
C	-0.0054057589	 1.4402201507	 0.0188999638	-0.080774
C	-0.8011611599	 1.9328450228	 1.2489548484	-0.238501
C	-1.3468342384	 3.3709310394	 1.1124767336	-0.094095
O	-0.6392705402	 4.2086473779	 0.2153780904	-0.242723
C	 0.7591012438	 4.3013532365	 0.4252081113	-0.089569
C	 1.5095073448	 3.2541561817	-0.3946241341	-0.068543
O	 1.3376985907	 1.9258723503	 0.0584702596	-0.255373
H	 0.1112662894	-2.2827723214	-0.0525267595	 0.19494
H	-0.4957773746	 1.7946486225	-0.9014877515	 0.10733
H	-1.6420217614	 1.2577317563	 1.4366988315	 0.117069
H	-0.1256859907	 1.8423627753	 2.1049624111	 0.122049
H	-2.3653018372	 3.3478289208	 0.7127966746	 0.114631
H	-1.3971525528	 3.8344821904	 2.1105037725	 0.095517
H	 1.0651073011	 5.2990032947	 0.0866897987	 0.107484
H	 1.0138848526	 4.2133536508	 1.491498	 0.099323
H	 1.1913274279	 3.3496912871	-1.4452046499	 0.098999
H	 2.587074764	 3.4446723775	-0.3430879467	 0.107326
74.3298	112.4959	155.093	214.8061	298.7443	311.9661	347.0404	408.2207	508.1493	521.9471	555.76	582.2377	622.8345	668.1191	794.8899	850.6674	890.3637	897.5676	946.8626	1023.4827	1030.9028	1046.0338	1106.2594	1122.1583	1148.7129	1168.3242	1249.298	1260.9445	1284.1518	1310.0827	1330.8015	1368.2431	1377.67	1391.7481	1411.3759	1418.7393	1473.4423	1479.9429	1486.8552	1506.3167	2243.7518	2978.9959	2980.8086	2983.4893	3000.1291	3054.8354	3059.4419	3072.0789	3075.8649	3102.5118	3504.3757
C#CC1CCOCCO1	C#C[C@H]1CCOCCO1	
InChI=1S/C7H10O2/c1-2-7-3-4-8-5-6-9-7/h1,7H,3-6H2	InChI=1S/C7H10O2/c1-2-7-3-4-8-5-6-9-7/h1,7H,3-6H2/t7-/m0/s1
