16
gdb 49391	4.02754	1.20667	1.17299	4.4748	70.52	-0.2459	-0.0015	0.2444	1073.8695	0.12447	-437.814722	-437.807608	-437.806664	-437.846589	27.162	
O	 0.1002405481	 0.0361559034	 0.4762315579	-0.290802
C	 0.0462337715	 1.1797039351	 0.0962726652	 0.138889
N	 1.0735811438	 1.8586550032	-0.5364324418	-0.062987
C	 1.7030458409	 3.0682266381	-0.0341538109	-0.07384
C	 2.4603931699	 1.7572360567	-0.141809358	-0.061482
C	 3.3240845722	 2.3608362743	-1.2903881898	 0.102341
O	 2.8675042905	 2.1342138798	-2.6293112871	-0.283022
C	 2.1094505672	 3.3741306041	-2.6304268358	-0.085794
C	 2.5399825795	 3.6895596033	-1.1802613127	-0.117173
H	-0.871295201	 1.7966366987	 0.1460203571	 0.086385
H	 1.3147904613	 3.5638362382	 0.8479937931	 0.116072
H	 2.7428341395	 1.0450752743	 0.6236123151	 0.124761
H	 4.4052834527	 2.2670556919	-1.1649576813	 0.090243
H	 2.5014510508	 4.0714117953	-3.379100225	 0.106023
H	 1.0417378275	 3.202351084	-2.7937818854	 0.116172
H	 3.0208998556	 4.6403557394	-0.9609874605	 0.094215
93.3557	162.7652	209.4173	242.5483	335.4312	447.2124	525.8761	693.4747	714.8748	763.1813	809.5904	830.5745	870.4596	887.5824	935.6971	961.2367	973.0027	996.7081	1030.019	1038.579	1049.9791	1071.1248	1131.4652	1160.443	1170.1028	1206.8045	1258.5417	1267.7768	1291.0459	1312.2887	1353.8162	1416.9515	1421.166	1502.7792	1798.4498	2953.8503	3034.6416	3086.8252	3093.8887	3140.8063	3187.2293	3204.4556
O=CN1C2C1C1OCC21	O=CN1[C@H]2[C@@H]1[C@H]1OC[C@@H]21	
InChI=1S/C6H7NO2/c8-2-7-4-3-1-9-6(3)5(4)7/h2-6H,1H2	InChI=1S/C6H7NO2/c8-2-7-4-3-1-9-6(3)5(4)7/h2-6H,1H2/t3-,4+,5+,6-,7?/m0/s1
