18
gdb 45485	2.91291	1.72697	1.52168	3.242	74.29	-0.2331	-0.0248	0.2083	933.5449	0.150844	-401.960389	-401.95371	-401.952766	-401.991496	27.326	
O	 0.0573934215	 0.0630097131	-0.5941932838	-0.325313
C	 0.0149214117	 1.191628291	-0.1723884046	 0.396662
C	-1.2542088259	 1.9765132007	 0.175952283	-0.322431
C	-0.7864817934	 3.2635607156	 0.8881956261	-0.064222
C	-0.6469455663	 3.0347457432	 2.4075462167	-0.20651
C	 0.6375923039	 2.1861454585	 2.5031759857	-0.176146
N	 1.494721245	 2.6320566756	 1.3728737962	-0.098151
C	 0.6903717512	 3.4364664504	 0.4596900087	-0.060716
C	 1.1985146744	 2.1031904004	 0.0158905908	-0.138086
H	-1.7380305716	 2.2166966278	-0.7788012688	 0.135758
H	-1.9585082893	 1.3651940235	 0.7476949577	 0.123621
H	-1.4115242468	 4.1234792284	 0.6437098284	 0.079679
H	-0.4990672903	 3.991837965	 2.9186041129	 0.107286
H	-1.5207403086	 2.549667975	 2.8519629429	 0.105445
H	 1.1853940946	 2.3634640264	 3.4322854667	 0.115559
H	 0.4355151063	 1.111243626	 2.4447169986	 0.121119
H	 1.0890274768	 4.383462872	 0.1101103469	 0.098048
H	 2.0730897069	 1.9371204875	-0.6052145041	 0.108397
96.0527	175.405	362.3916	377.5416	454.0929	509.4876	597.7124	609.7322	671.8962	747.1773	775.9868	829.3795	843.0269	863.3767	873.6622	924.5923	937.6358	957.7073	995.7618	1020.3873	1060.0069	1080.6497	1101.1226	1160.9679	1186.0359	1191.1587	1218.665	1243.2647	1250.9732	1287.5314	1299.2455	1313.6328	1339.8105	1351.3437	1369.1417	1449.7359	1493.2738	1515.3971	1830.6923	3040.8551	3046.2615	3049.0489	3088.3568	3093.3775	3101.0619	3104.607	3156.8448	3166.8959
O=C1CC2CCN3C2C13	O=C1C[C@H]2CCN3[C@H]2[C@H]13	
InChI=1S/C7H9NO/c9-5-3-4-1-2-8-6(4)7(5)8/h4,6-7H,1-3H2	InChI=1S/C7H9NO/c9-5-3-4-1-2-8-6(4)7(5)8/h4,6-7H,1-3H2/t4-,6-,7+,8?/m1/s1
