19
gdb 108096	2.70231	1.52877	1.32255	2.1501	74.96	-0.2385	0.0594	0.2979	1044.7603	0.159973	-422.96299	-422.954984	-422.95404	-422.995161	31.977	
O	 0.5708161789	-0.1454606518	-0.6437856826	-0.424125
C	-0.3354978686	 0.4341896367	 0.2845099565	-0.190758
C	-1.6827152916	-0.2325550618	 0.2381897337	 0.269894
C	-2.8172988071	-0.2039631233	 1.2644406934	-0.293128
C	-3.3937869113	-1.4458755257	 0.5262206745	-0.130837
C	-3.8064794047	-0.8874398585	-0.8649786447	-0.229805
C	-2.3183295679	-0.662399669	-1.1219727713	-0.181625
C	-1.9288371046	-1.6768079453	-0.0736834674	 0.31808
O	-1.011091894	-2.7038425574	-0.0448822794	-0.466407
H	 0.5951268514	-1.0921870473	-0.456551054	 0.292242
H	 0.0600079002	 0.3872571788	 1.3133638099	 0.087868
H	-0.4056135029	 1.4954512759	 0.0172079545	 0.108502
H	-2.4500256649	-0.4525176759	 2.2647177621	 0.10058
H	-3.4605503362	 0.6821572527	 1.317767624	 0.089022
H	-4.0127642463	-2.1713162877	 1.0494407139	 0.071636
H	-4.2171515151	-1.6622927074	-1.5192718976	 0.093273
H	-4.4752967153	-0.0193735585	-0.8635444259	 0.091254
H	-1.8009829739	-0.4274588973	-2.0422431332	 0.100164
H	-1.2498315462	-3.3552631471	-0.7151547866	 0.294171
112.7302	153.6464	227.4999	249.0912	336.1609	391.5657	400.9862	436.6548	486.9823	528.5732	638.3622	654.997	701.5812	769.3419	840.4236	909.559	925.687	940.1657	974.6991	990.0369	1003.6492	1034.3413	1056.1845	1071.7106	1113.3249	1121.8077	1150.6955	1174.2556	1201.6155	1223.3597	1235.8459	1260.2824	1278.4908	1296.1468	1331.5988	1391.8546	1442.915	1478.3464	1493.1824	1509.7758	1520.8501	2958.8752	3029.0641	3036.4212	3047.4738	3088.6953	3092.2386	3139.9831	3214.4175	3774.3549	3779.4781
OCC12CC3CC1C23O	OC[C@@]12C[C@H]3C[C@@H]1[C@@]23O	
InChI=1S/C7H10O2/c8-3-6-2-4-1-5(6)7(4,6)9/h4-5,8-9H,1-3H2	InChI=1S/C7H10O2/c8-3-6-2-4-1-5(6)7(4,6)9/h4-5,8-9H,1-3H2/t4-,5+,6+,7-/m1/s1
