16
gdb 8017	3.30335	2.10551	1.58534	4.3314	64.25	-0.2667	0.0109	0.2777	838.7803	0.130596	-383.763159	-383.756079	-383.755135	-383.794322	26.987	
C	-0.1741397185	 1.581379015	 0.1091381505	-0.478563
C	 0.0465230749	 0.0959436878	 0.1125517837	 0.450904
C	-1.1305622805	-0.9096141104	 0.0838725293	-0.274424
C	-0.4174552138	-1.7685751819	 1.1727846894	-0.232462
C	 0.765231977	-0.7479214157	 1.2056194445	-0.280885
C	 1.7781337806	-1.0163237287	 0.1025900787	 0.447912
O	 2.8027830536	-1.6042923642	-0.035822114	-0.329981
O	 1.084630513	-0.310351508	-0.854709732	-0.286884
H	 0.766783068	 2.116462087	 0.2667022016	 0.134696
H	-0.5937964902	 1.9025017164	-0.850224411	 0.138756
H	-0.8756458652	 1.865800789	 0.8992466129	 0.125963
H	-2.0754403592	-0.4778056444	 0.4222368589	 0.111377
H	-1.2835239207	-1.3799026932	-0.8889285765	 0.123167
H	-0.9612546294	-1.7984097328	 2.1181455518	 0.11831
H	-0.1454707554	-2.788981195	 0.8974629789	 0.127487
H	 1.1320521657	-0.381969291	 2.1625512833	 0.104628
113.619	190.4223	217.3296	288.0704	317.3818	396.5726	484.0165	614.5872	647.4386	731.8476	755.1673	815.0289	851.6777	904.7289	921.565	952.7505	983.5163	991.003	1055.4969	1108.7161	1131.2407	1190.6954	1207.3359	1227.2171	1236.7187	1262.4648	1291.4264	1335.0119	1417.0567	1468.5948	1482.5536	1489.7404	1493.133	1930.8894	3038.0645	3071.8447	3081.2714	3107.7963	3118.2545	3122.8322	3137.3243	3142.7348
CC12CCC1C(=O)O2	C[C@]12CC[C@H]1C(=O)O2	
InChI=1S/C6H8O2/c1-6-3-2-4(6)5(7)8-6/h4H,2-3H2,1H3	InChI=1S/C6H8O2/c1-6-3-2-4(6)5(7)8-6/h4H,2-3H2,1H3/t4-,6-/m0/s1
