23
gdb 122912	4.69411	0.52743	0.48858	0.8667	89.98	-0.2532	0.0568	0.31	2267.9145	0.202369	-388.252206	-388.24072	-388.239776	-388.290003	40.285	
C	 0.0275470856	 1.4327826452	 0.0370566098	-0.227361
O	-0.01417711	 0.0276924272	-0.0005485258	-0.230986
C	 0.6485955325	-0.5122012477	-1.1228835464	-0.054284
C	 0.5386707091	-2.0306893411	-1.0690062973	-0.209396
C	 1.2176109617	-2.7017589304	-2.2669078596	-0.179679
C	 1.2318604977	-4.2492128908	-2.2001536028	-0.162384
C	-0.1808609396	-4.8672497011	-2.2320948656	-0.386462
C	 2.0514324094	-4.7915347141	-3.2837179437	 0.317222
C	 2.7115993455	-5.2243836507	-4.1907704572	-0.461372
H	 1.0612462669	 1.8117796311	 0.0847733942	 0.102043
H	-0.4586167738	 1.881488221	-0.8443424467	 0.101892
H	-0.5065062318	 1.7536931646	 0.9349246507	 0.12581
H	 0.1991812765	-0.1277018414	-2.0558180235	 0.083547
H	 1.7087720051	-0.2027275891	-1.1289725067	 0.083837
H	 0.9916349327	-2.3795709177	-0.132514942	 0.105257
H	-0.5234171659	-2.2930165404	-1.0218470094	 0.111932
H	 0.725750344	-2.3970636979	-3.1994928328	 0.1054
H	 2.2551722588	-2.3553119779	-2.340170458	 0.107172
H	 1.703657486	-4.5346767827	-1.2486940651	 0.104931
H	-0.1229201843	-5.9584360147	-2.21229001	 0.126371
H	-0.7708948741	-4.5415989789	-1.3714811627	 0.12086
H	-0.7079422885	-4.5735969128	-3.1453412811	 0.124
H	 3.3013824365	-5.6133851899	-4.9832992183	 0.191652
50.9858	54.0072	82.8733	122.8403	133.3543	168.2748	205.9273	234.5909	252.0455	279.6843	355.033	368.213	492.2713	533.5536	559.1513	625.2531	633.0099	757.7491	817.2389	869.0895	926.647	986.4459	1001.4169	1038.2998	1057.6939	1102.5868	1122.7556	1165.1527	1172.2354	1190.3216	1222.1564	1232.4412	1273.5422	1300.1558	1318.7263	1336.8574	1345.5258	1388.2209	1410.2511	1428.7764	1481.2673	1483.3381	1484.9263	1496.6281	1498.3522	1502.8084	1507.3464	1532.4444	2233.5424	2939.4735	2965.4513	2967.097	2999.1476	3007.8749	3024.8147	3036.5104	3044.3277	3060.5452	3088.8472	3111.7223	3117.4161	3124.8446	3505.477
COCCCC(C)C#C	COCCC[C@@H](C)C#C	
InChI=1S/C8H14O/c1-4-8(2)6-5-7-9-3/h1,8H,5-7H2,2-3H3	InChI=1S/C8H14O/c1-4-8(2)6-5-7-9-3/h1,8H,5-7H2,2-3H3/t8-/m0/s1
