18
gdb 78250	2.09477	1.68336	1.42249	2.1941	71.67	-0.2431	-0.0303	0.2128	1020.541	0.146192	-439.031696	-439.022902	-439.021958	-439.065047	32.616	
C	-0.3370229068	 1.4557231863	 0.1124796162	-0.435705
C	 0.0217427951	-0.010414343	-0.0181428257	 0.02903
C	 0.6122945589	-0.7126059437	-1.1819772588	-0.110097
C	 1.7035730629	 0.0769007315	-1.8969016563	 0.090853
O	 1.3758251106	 1.2176080892	-2.6484583333	-0.428019
C	 2.4075121568	 0.1723552899	-0.4878438207	-0.111608
C	 2.8521998675	 1.4882544159	 0.0855457847	 0.164637
O	 2.4383449479	 2.0016092038	 1.0937864356	-0.253396
N	 1.3404079454	-0.6415594553	 0.173447629	-0.148931
H	 0.3412559836	 2.1361108316	-0.4021862396	 0.119068
H	-1.348533193	 1.6103657855	-0.2806650028	 0.117739
H	-0.3304525829	 1.7491622589	 1.1650251923	 0.151974
H	-0.7125428534	-0.6370248753	 0.4875203738	 0.108452
H	 0.2071613396	-1.6481269919	-1.5548355426	 0.101416
H	 2.2947665248	-0.5556481108	-2.5619190072	 0.11001
H	 0.5779075126	 1.6099248739	-2.2832198857	 0.294336
H	 3.3180119849	-0.4419764872	-0.5201444838	 0.11386
H	 3.6643099356	 1.9617927408	-0.5131089853	 0.086381
86.2274	145.0439	162.823	195.5487	217.7188	257.3911	321.6786	330.3751	437.3851	504.6677	598.8365	675.204	720.243	725.6758	785.4758	825.9432	899.7957	938.045	992.5033	1011.6626	1032.6803	1071.7816	1100.224	1127.6654	1137.6783	1157.4965	1210.2037	1250.8234	1276.261	1302.182	1353.3771	1362.5386	1416.0204	1423.8289	1439.2633	1448.8388	1497.2723	1500.6594	1824.4619	2867.7733	3017.5457	3042.1884	3093.7757	3110.8059	3114.855	3150.0873	3161.9391	3846.3593
CC1C2C(O)C(C=O)N12	C[C@H]1[C@H]2[C@@H](O)[C@@H](C=O)N12	
InChI=1S/C6H9NO2/c1-3-5-6(9)4(2-8)7(3)5/h2-6,9H,1H3	InChI=1S/C6H9NO2/c1-3-5-6(9)4(2-8)7(3)5/h2-6,9H,1H3/t3-,4+,5-,6-,7?/m0/s1
