21
gdb 119391	4.01319	1.00014	0.95239	1.5461	82.82	-0.2315	0.0034	0.2349	1354.7025	0.182299	-387.051265	-387.042739	-387.041795	-387.084725	33.276	
C	-0.1531309018	 1.5677222873	 0.0606055194	-0.381911
C	-0.0852767365	 0.0390309867	 0.0666348528	-0.163033
C	 0.8407070559	-0.5109686348	 1.1610009654	-0.326851
C	 0.8660330398	-2.0159569341	 1.2063128686	 0.39873
C	 1.4061344063	-2.8684481808	 2.4043080843	-0.268487
C	 0.3850780184	-3.8316541012	 1.7332415912	 0.014542
O	-0.4421164061	-2.6602684768	 1.443678462	-0.320609
C	 1.0563716092	-4.0884772065	 0.3692403337	-0.084504
C	 1.386116234	-2.8487928928	 0.006780133	-0.11608
H	 0.8345120528	 2.0108400709	-0.1114576003	 0.110513
H	-0.8226484756	 1.9327256136	-0.7243871905	 0.112115
H	-0.5234277101	 1.9508236182	 1.0180759199	 0.115215
H	-1.0857540929	-0.3820663869	 0.2133808306	 0.12327
H	 0.2546387064	-0.3202098487	-0.9127982166	 0.095976
H	 1.8665882584	-0.1492359255	 1.0075737952	 0.097345
H	 0.5175935002	-0.1335256821	 2.1387402412	 0.102648
H	 2.4621027498	-3.1463044103	 2.4204160302	 0.094302
H	 1.0617288497	-2.4916290385	 3.3711766979	 0.102311
H	-0.131571432	-4.6363591024	 2.2541568267	 0.07866
H	 1.2140633093	-5.0392053465	-0.1183328768	 0.108423
H	 1.8948516247	-2.475678699	-0.870299008	 0.107427
78.667	87.2855	124.6861	246.8748	305.225	311.612	356.7846	478.2518	536.7042	611.9904	682.1966	705.9751	735.6175	756.7838	816.3053	841.1415	881.2032	888.3942	897.6555	905.5451	931.8106	975.6594	979.5213	1046.0922	1047.6541	1057.8771	1088.894	1125.9798	1177.9815	1201.7504	1236.4343	1254.7951	1261.4231	1284.664	1315.4315	1332.6571	1348.4705	1401.0437	1412.001	1473.6501	1485.8724	1492.1006	1499.8427	1509.8631	1620.3884	3016.7113	3027.4277	3031.4847	3054.6143	3057.5114	3073.8109	3098.2183	3102.0112	3130.0616	3136.2056	3226.5127	3254.8257
CCCC12CC(O1)C=C2	CCC[C@@]12C[C@@H](O1)C=C2	
InChI=1S/C8H12O/c1-2-4-8-5-3-7(6-8)9-8/h3,5,7H,2,4,6H2,1H3	InChI=1S/C8H12O/c1-2-4-8-5-3-7(6-8)9-8/h3,5,7H,2,4,6H2,1H3/t7-,8+/m0/s1
