19
gdb 52423	5.50675	0.51431	0.49011	5.0603	74.38	-0.275	0.0084	0.2835	2152.8075	0.157256	-460.159896	-460.150124	-460.149179	-460.196872	33.226	
O	 0.3850060104	 0.2010428964	 0.7625595179	-0.273136
C	 0.38757252	 1.3868830126	 0.6262981074	 0.171375
O	 0.8785420727	 1.9952426183	-0.4688768213	-0.174389
C	 0.8707045759	 3.4282099053	-0.5054688017	-0.092812
C	 2.2730869115	 3.9816490709	-0.2845624087	-0.184382
C	 2.3240595143	 5.5086715945	-0.4307454122	-0.230122
C	 3.709556826	 6.0528335149	-0.1791645767	 0.1001
C	 3.9422333488	 7.3319479814	 0.5007819253	-0.180913
O	 4.1334135995	 6.0924984803	 1.1862723779	-0.234446
H	-0.0154025997	 2.1035397486	 1.3699737744	 0.075581
H	 0.4879607869	 3.7057597486	-1.4927498357	 0.124638
H	 0.1714625056	 3.817888672	 0.2467432961	 0.111861
H	 2.6224986863	 3.7013189427	 0.7156495954	 0.127165
H	 2.9529705395	 3.5091240538	-1.0031388721	 0.119267
H	 2.0034335029	 5.8007202531	-1.4399372497	 0.106234
H	 1.6289252911	 5.9779394838	 0.2760247841	 0.10661
H	 4.4805905226	 5.697944445	-0.8664691397	 0.095198
H	 4.8489990455	 7.899554278	 0.2970042869	 0.118445
H	 3.0905637802	 7.9236739898	 0.8346629323	 0.113726
32.9155	55.1109	87.053	106.9677	140.1106	172.7588	275.9373	322.7955	383.1324	434.8437	495.1724	674.303	752.2318	795.6349	856.1599	883.6417	949.6538	1025.0756	1032.1702	1046.2779	1054.4527	1066.7818	1110.072	1137.6129	1160.4496	1167.4597	1192.8958	1260.107	1271.5437	1296.9628	1320.3545	1335.5025	1370.8385	1411.6012	1435.6295	1449.7729	1473.0245	1494.6353	1512.4692	1530.7697	1868.6159	2936.3297	3016.0895	3019.2875	3041.1575	3057.5417	3073.2826	3082.3513	3090.3215	3098.5802	3169.0759
O=COCCCC1CO1	O=COCCC[C@H]1CO1	
InChI=1S/C6H10O3/c7-5-8-3-1-2-6-4-9-6/h5-6H,1-4H2	InChI=1S/C6H10O3/c7-5-8-3-1-2-6-4-9-6/h5-6H,1-4H2/t6-/m0/s1
