23
gdb 94860	2.66883	1.66217	1.29999	0.3128	89.56	-0.2573	0.0856	0.3428	1092.6611	0.208953	-351.09998	-351.09232	-351.091376	-351.131555	32.348	
C	-0.1624684601	 1.6130408137	-0.1369166348	-0.406619
C	-0.0176249189	 0.0926357914	-0.0083893743	-0.011921
C	 0.7037719289	-0.5878881918	-1.2387966739	-0.216664
C	 1.6136755756	-1.7428360164	-0.701469088	-0.355456
C	 1.974218053	-1.1755879078	 0.6509970846	 0.356297
C	 2.3878895406	-1.5112099136	 2.1155653572	-0.314258
C	 1.9065663383	-0.0091616865	 2.1224143933	-0.085867
C	 2.7467864722	 0.1746356332	 0.838935787	-0.250753
C	 0.7143342497	-0.4988111837	 1.2271712967	 0.013878
H	 0.8014356701	 2.1233238848	-0.2216961655	 0.118701
H	-0.7474506701	 1.8707528045	-1.0272150029	 0.110282
H	-0.6819773237	 2.0306724272	 0.7318748943	 0.1139
H	-1.036704534	-0.3083515143	 0.0363723186	 0.071157
H	-0.0169893706	-0.9472856163	-1.9794363784	 0.093051
H	 1.3300929652	 0.1523821825	-1.7489522086	 0.099675
H	 1.0424799602	-2.6726973271	-0.5935746554	 0.097775
H	 2.4585287032	-1.9422413287	-1.3677420945	 0.095377
H	 1.7617606921	-2.2305366687	 2.6511623805	 0.089193
H	 3.4507460697	-1.6742111219	 2.3156818795	 0.087131
H	 1.8740203622	 0.6483694467	 2.9934175926	 0.065328
H	 3.8324482906	 0.0905787979	 0.9473798837	 0.082453
H	 2.4894750639	 1.0060242205	 0.1846034133	 0.091935
H	 0.0495578118	-1.1821089054	 1.7673213351	 0.055407
146.0635	208.6523	213.1693	278.1289	331.3117	397.8082	459.1617	527.3152	549.3969	639.9835	666.0681	768.7972	791.7391	821.8548	861.4783	876.9391	892.4208	935.5343	941.0513	964.2645	978.4964	990.0327	1020.6798	1035.5338	1055.1561	1085.9984	1116.8241	1129.8056	1135.8664	1150.4469	1178.6103	1194.7823	1211.605	1221.6336	1229.9215	1253.5128	1282.8049	1310.5432	1328.3279	1340.321	1369.973	1399.5135	1419.7233	1485.7236	1492.4486	1497.0395	1499.3382	1505.7518	1545.6083	3014.4336	3030.1765	3034.0173	3038.9701	3041.5107	3045.2826	3056.5099	3079.9982	3089.6354	3091.1368	3092.1109	3107.1565	3112.0092	3149.5
CC1CCC23CC(C2)C13	C[C@H]1CC[C@@]23C[C@@H](C2)[C@@H]13	
InChI=1S/C9H14/c1-6-2-3-9-4-7(5-9)8(6)9/h6-8H,2-5H2,1H3	InChI=1S/C9H14/c1-6-2-3-9-4-7(5-9)8(6)9/h6-8H,2-5H2,1H3/t6-,7-,8+,9+/m0/s1
