17
gdb 125589	4.28231	1.11034	0.95181	1.8581	75.65	-0.2417	0.0199	0.2616	1247.1203	0.137853	-414.194414	-414.186223	-414.185279	-414.228889	29.628	
C	 0.0729754922	 1.4869937748	-0.1111202505	-0.481216
C	 0.0204738546	-0.0012533237	-0.0307413971	 0.343368
N	-0.3263219899	-0.756035571	-1.0637919198	-0.26497
N	-0.2359792663	-2.0086914041	-0.5450300851	-0.254533
C	 0.1505849119	-1.9575335168	 0.7428476789	 0.429515
N	 0.3237633408	-0.699612502	 1.1067910734	-0.359037
N	 0.3103125442	-3.1351454471	 1.4819903212	-0.219205
C	 1.3767636384	-3.1040060389	 2.5070007563	-0.218331
C	-0.0424124041	-3.039660247	 2.9161026446	-0.218506
H	 1.0795899553	 1.8527444491	 0.1150223238	 0.136517
H	-0.20805501	 1.8172736764	-1.1125140798	 0.139605
H	-0.6076888715	 1.9393926767	 0.6170534133	 0.13648
H	-0.4426214323	-2.8223479381	-1.100299243	 0.278956
H	 1.9336036398	-4.0312450095	 2.597860378	 0.125896
H	 1.9543269668	-2.18777195	 2.5751597529	 0.149991
H	-0.4164942035	-2.0801620483	 3.2584103398	 0.149482
H	-0.5414676165	-3.9188215207	 3.311206603	 0.125989
16.0822	109.5517	152.6256	170.1991	283.4589	343.021	441.3601	458.3529	570.1262	605.5626	714.4201	729.1905	769.9936	828.373	837.2372	923.7088	1007.1735	1022.9465	1047.6164	1070.0597	1076.9033	1114.6112	1142.6468	1153.8438	1188.0945	1190.1126	1243.9711	1315.6539	1379.3492	1410.0084	1469.9714	1477.9617	1478.5254	1481.1245	1504.991	1549.5929	1577.6369	3045.4165	3100.886	3123.2773	3125.8555	3143.8719	3215.1001	3229.18	3670.8251
CC1=NNC(=N1)N1CC1	Cc1n[nH]c(n1)N1CC1	
InChI=1S/C5H8N4/c1-4-6-5(8-7-4)9-2-3-9/h2-3H2,1H3,(H,6,7,8)	InChI=1S/C5H8N4/c1-4-6-5(8-7-4)9-2-3-9/h2-3H2,1H3,(H,6,7,8)
