17
gdb 67685	2.23188	2.20229	1.66894	2.7716	71.91	-0.2324	-0.0276	0.2048	888.4302	0.138596	-417.936872	-417.930024	-417.92908	-417.967616	28.285	
O	-0.202645799	 1.451557055	-0.1046519483	-0.468035
C	-0.0341945326	 0.0858495782	 0.0473646725	 0.333087
C	-1.0871114418	-0.9354565716	-0.0908575128	-0.1264
C	-0.7713008338	-1.7276991216	-1.4135809726	-0.181791
N	 0.4904662752	-1.1194608088	-2.0054499845	-0.330538
C	 1.0151868341	-0.7484715974	-0.7215863058	 0.073283
N	 1.7028484234	-1.5762145491	-0.0407007837	-0.164022
C	 1.1599056068	-1.5557466554	 1.3368006395	-0.188214
C	-0.1748983115	-0.8171766518	 1.2142737517	-0.146763
H	 0.5208645061	 1.9000907995	 0.3481573417	 0.289024
H	-2.1259551844	-0.6972801235	 0.1149089305	 0.101939
H	-0.575510082	-2.7880508448	-1.2423685516	 0.134391
H	-1.5978242206	-1.6229038003	-2.1221189133	 0.114846
H	 0.2019705784	-0.2770730115	-2.5018965377	 0.231637
H	 1.0623620399	-2.6027840336	 1.6455805359	 0.123504
H	 1.8267057399	-1.0691956443	 2.063006901	 0.110027
H	-0.723811898	-0.5235063191	 2.1037917274	 0.094025
218.4072	237.0043	276.7659	318.1877	341.5271	471.6691	503.6367	590.372	606.2541	663.4539	718.261	759.8611	835.8602	858.9277	884.4499	897.4288	957.0153	967.5091	1002.2609	1005.9735	1041.6631	1068.5587	1094.5711	1095.1734	1179.224	1206.849	1214.6847	1226.8341	1290.13	1306.0709	1317.6512	1334.9318	1394.5271	1462.8197	1478.8721	1488.8586	1679.6106	3009.8306	3059.0376	3062.7622	3122.144	3160.6706	3170.5654	3466.5483	3789.2293
OC12C3CNC1=NCC23	O[C@@]12[C@H]3CN[C]1[N]C[C@@H]23	
InChI=1S/C6H8N2O/c9-6-3-1-7-5(6)8-2-4(3)6/h3-4,9H,1-2H2,(H,7,8)	InChI=1S/C6H8N2O/c9-6-3-1-7-5(6)8-2-4(3)6/h3-4,9H,1-2H2,(H,7,8)/t3-,4+,6+
