21
gdb 56250	3.65623	0.82447	0.7116	2.0372	81.39	-0.2317	0.035	0.2667	1629.2159	0.181417	-420.384482	-420.374501	-420.373557	-420.420768	35.506	
C	-1.4013310223	-0.376403959	 0.4592698887	-0.4609
C	 0.0472399492	-0.273775154	 0.0529139146	 0.402223
N	 1.0219679423	 0.2159027854	 0.7035346918	-0.521181
O	 0.2206165242	-0.7992736936	-1.1767367252	-0.240535
C	 1.5578468138	-0.7997393211	-1.6967828352	-0.045015
C	 1.5262551813	-1.4358269606	-3.0746836441	-0.16249
N	 1.2802921235	-2.8701175572	-3.0014985603	-0.060457
C	-0.1150829179	-3.2949050294	-3.0444189553	-0.206838
C	 0.7772030243	-3.5011526135	-4.2173778499	-0.224235
H	-1.5652973588	 0.0697238139	 1.4413637673	 0.125995
H	-2.0363842556	 0.1286878012	-0.2748426074	 0.143656
H	-1.7105331482	-1.4258260519	 0.4868564647	 0.146266
H	 0.708050867	 0.5652512592	 1.6059187504	 0.218207
H	 1.9267707524	 0.2300167268	-1.747401212	 0.113735
H	 2.2113707321	-1.3592500073	-1.0212424272	 0.128475
H	 0.7827237272	-0.9101296645	-3.701079531	 0.085503
H	 2.509025063	-1.2844365133	-3.5374626739	 0.107428
H	-0.3739694603	-4.1259492858	-2.3945539873	 0.113582
H	-0.8773457266	-2.5233583289	-3.1232011781	 0.114975
H	 0.6074711443	-2.8692344058	-5.0882304459	 0.106251
H	 1.1830709449	-4.4834291607	-4.4419807348	 0.115353
45.9127	66.1834	80.25	110.912	167.4029	197.7664	268.2839	305.8633	383.6179	426.1248	522.0401	574.8311	617.0168	735.6304	819.5472	847.9098	858.3917	893.3203	934.6526	973.48	1007.1159	1039.7606	1065.1638	1067.9585	1089.5488	1104.9217	1116.2685	1118.9772	1131.7933	1173.4797	1193.8723	1264.6256	1296.6525	1329.4187	1357.0769	1391.9986	1403.1895	1431.8577	1472.4645	1478.7446	1482.4942	1493.8192	1500.66	1523.7812	1726.6081	2940.7978	3046.6611	3048.3046	3059.5061	3093.0461	3102.3049	3107.6184	3111.4717	3143.3075	3177.4952	3194.9232	3516.0587
CC(=N)OCCN1CC1	C[C]([NH])OCCN1CC1	
InChI=1S/C6H12N2O/c1-6(7)9-5-4-8-2-3-8/h7H,2-5H2,1H3	InChI=1S/C6H12N2O/c1-6(7)9-5-4-8-2-3-8/h7H,2-5H2,1H3
