21
gdb 119585	2.91874	1.01332	0.87286	1.4078	79.01	-0.2477	0.0722	0.32	1396.0961	0.181707	-424.189336	-424.179766	-424.178822	-424.224046	35.716	
O	-0.0554259533	 1.45091189	-0.0761168985	-0.423066
C	-0.0020289846	 0.0362879331	-0.1988009996	-0.067019
C	-1.3765979623	-0.5171085224	 0.1725627383	-0.318806
C	-1.4139498152	-2.0192372535	 0.1317916775	 0.391265
C	-1.6067375042	-2.8044809977	-1.1418614808	-0.321431
C	-2.5842065936	-3.0039573292	-0.0197518024	-0.127444
C	-1.9707337646	-3.9509002134	 1.0158523726	-0.269308
C	-0.7988325435	-2.9234403203	 1.1970532462	 0.048944
O	 0.5245466536	-3.3265964323	 0.905812458	-0.436488
H	 0.8114611744	 1.8027450715	-0.2975066568	 0.283782
H	 0.2500167392	-0.2690295706	-1.226501112	 0.088636
H	 0.7623445478	-0.3980442284	 0.4636788144	 0.099087
H	-1.6350197166	-0.1540183442	 1.175594276	 0.10016
H	-2.1215396337	-0.0985937382	-0.5147314215	 0.101777
H	-1.9675592421	-2.2157974748	-1.9798510452	 0.107789
H	-0.9150720388	-3.597016402	-1.4141038411	 0.115386
H	-3.6383683772	-2.7759347484	-0.1213289321	 0.086203
H	-2.5653691695	-4.0776145518	 1.9235708384	 0.09768
H	-1.6760148609	-4.9356285468	 0.6379898237	 0.094405
H	-0.8522587938	-2.4473778272	 2.1865061145	 0.066136
H	 0.8316215991	-3.8953557235	 1.6192019505	 0.282312
71.385	93.8609	103.5226	173.8162	260.1531	276.9469	299.1832	315.2876	338.382	394.5277	452.6399	554.7325	670.1161	745.0159	796.3774	829.6153	852.948	903.0636	940.2845	974.9676	995.1315	1008.091	1036.9542	1052.6871	1074.2868	1082.6775	1092.5677	1134.2018	1169.1102	1199.1919	1204.2031	1238.4663	1250.5513	1265.9323	1274.984	1308.5948	1337.6572	1341.8762	1394.598	1434.2383	1461.1755	1478.153	1487.4587	1505.5927	1527.6064	2975.4294	2994.1729	3004.0814	3023.5795	3043.8831	3066.9439	3105.0471	3115.148	3183.1876	3201.4924	3813.0371	3831.5307
OCCC12CC1CC2O	OCC[C@]12C[C@H]1C[C@H]2O	
InChI=1S/C7H12O2/c8-2-1-7-4-5(7)3-6(7)9/h5-6,8-9H,1-4H2	InChI=1S/C7H12O2/c8-2-1-7-4-5(7)3-6(7)9/h5-6,8-9H,1-4H2/t5-,6-,7+/m1/s1
