18
gdb 12027	3.68386	1.71468	1.50954	0.5972	77.32	-0.248	0.0561	0.3042	916.4991	0.152718	-310.60685	-310.599017	-310.598073	-310.638366	30.913	
C	-0.0818749067	 1.5720011389	 0.0445974021	-0.446131
C	 0.0280712002	 0.0418643773	 0.0301019258	 0.120803
C	 1.1328301946	-0.5982511862	-0.9105784492	-0.28336
C	 1.762146602	-1.2831739081	 0.3063369803	-0.020858
C	 2.1876460554	-0.2567383502	 1.3149503222	-0.300947
C	 0.7354333859	-0.6375257437	 1.2336003545	-0.060482
C	-1.2791225349	-0.5555676467	-0.2093826757	 0.296223
C	-2.3641810121	-1.0395467955	-0.3976905262	-0.468778
H	 0.8912324696	 2.0348600942	 0.229768857	 0.113091
H	-0.457079477	 1.9384199089	-0.9159200815	 0.124458
H	-0.7740792023	 1.9017722475	 0.8251534661	 0.125259
H	 0.6971989309	-1.2878755223	-1.6337137364	 0.11886
H	 1.7697781389	 0.1198486993	-1.4381354386	 0.095222
H	 2.1431948795	-2.2964299731	 0.3207986431	 0.08639
H	 2.7044165094	-0.6439324689	 2.1874911024	 0.112888
H	 2.5382060153	 0.7214897092	 0.9956061062	 0.105645
H	 0.2041525491	-1.0662552402	 2.074259655	 0.091741
H	-3.3206016178	-1.4680155005	-0.5675379971	 0.189975
135.7629	162.2315	213.5576	235.7088	286.9869	388.5555	447.6464	490.4662	538.3932	614.4936	619.651	625.2876	740.1732	791.4438	845.7266	851.6199	903.6492	946.2244	962.9108	991.3991	1000.6403	1047.3497	1070.016	1084.341	1134.804	1150.2794	1155.2881	1217.8963	1241.8019	1257.3359	1300.8524	1357.725	1408.5329	1477.8425	1487.0314	1489.2297	1502.2315	2229.841	3038.5875	3045.1714	3110.0556	3110.9264	3116.966	3129.9679	3183.9193	3189.3524	3202.8336	3502.5337
CC1(CC2CC12)C#C	C[C@]1(C[C@H]2C[C@@H]12)C#C	
InChI=1S/C8H10/c1-3-8(2)5-6-4-7(6)8/h1,6-7H,4-5H2,2H3	InChI=1S/C8H10/c1-3-8(2)5-6-4-7(6)8/h1,6-7H,4-5H2,2H3/t6-,7-,8-/m1/s1
