19
gdb 121163	2.66889	1.16829	0.89753	2.4258	72.23	-0.256	0.0604	0.3163	1329.0916	0.157205	-460.099362	-460.090173	-460.089229	-460.134088	32.705	
C	 0.7540797907	 1.1811943069	 0.0902654513	-0.225791
O	 0.7917199247	-0.2003085766	-0.1852270952	-0.233945
C	-0.0521293586	-0.5738665843	-1.251165379	-0.081819
C	 0.0488976252	-2.0809270531	-1.4112582655	 0.034643
O	-0.7527111763	-2.5477243591	-2.5239150357	-0.302231
C	 0.3795899374	-3.1810739411	-3.1673247918	-0.153764
C	 1.3010718733	-2.6513596901	-2.0743539748	 0.364018
C	 2.6830452219	-2.1803434821	-2.0817803831	-0.257772
O	 2.2953076719	-3.4008478636	-1.4223408443	-0.257935
H	 1.0809145098	 1.7792626759	-0.7747862894	 0.106263
H	-0.2579653482	 1.5103649862	 0.3720958934	 0.109669
H	 1.4326401308	 1.3662843799	 0.9261668901	 0.131058
H	-1.09993536	-0.2958679102	-1.0491974502	 0.100452
H	 0.2457603454	-0.0774019833	-2.189654434	 0.088009
H	-0.2129377212	-2.582142009	-0.4705377727	 0.099337
H	 0.2903683322	-4.274223007	-3.186076784	 0.117867
H	 0.5393053402	-2.8069779131	-4.1853593274	 0.110863
H	 3.2961165218	-2.3095402425	-2.9726755824	 0.1163
H	 2.965862589	-1.3663283039	-1.4181346954	 0.134779
74.478	80.6933	100.0924	176.5356	214.6024	240.0599	306.3554	330.4421	374.5697	426.281	542.6375	586.4348	810.5498	868.0737	886.651	927.5456	976.1927	1009.3506	1014.783	1028.4058	1099.9284	1129.1525	1131.7025	1151.7089	1164.1277	1167.1576	1186.8742	1196.4764	1222.9404	1237.8098	1268.022	1324.7163	1360.0059	1418.8423	1456.0803	1481.8249	1485.8643	1503.0283	1512.8305	1523.4971	1541.0247	2959.417	2976.6878	2992.6343	3019.5016	3021.2161	3035.656	3068.1179	3089.6901	3118.1252	3185.7273
COCC1OCC11CO1	COC[C@H]1OC[C@]21CO2	
InChI=1S/C6H10O3/c1-7-2-5-6(3-8-5)4-9-6/h5H,2-4H2,1H3	InChI=1S/C6H10O3/c1-7-2-5-6(3-8-5)4-9-6/h5H,2-4H2,1H3/t5-,6-/m1/s1
