16
gdb 16396	3.66288	2.24439	1.77113	3.6154	69.91	-0.2356	-0.049	0.1866	771.9165	0.133552	-346.621279	-346.61528	-346.614336	-346.651148	24.501	
O	 0.0014206934	-0.0284629472	-0.0480912493	-0.346764
C	-0.012416337	 1.1833129674	 0.0006187255	 0.40528
C	-1.2574189691	 1.9932230178	 0.0547356469	-0.174443
C	-1.123166526	 3.3263057383	 0.1069929125	-0.046347
C	 0.2669073987	 3.9179661935	 0.1084018391	-0.062822
C	 1.0991695423	 3.2074247839	-1.0059597441	-0.227693
C	 1.2572197131	 2.0350439161	 0.0150208102	-0.12224
C	 1.1340897928	 3.119734657	 1.1331438311	-0.227658
H	-2.2095204921	 1.4748666214	 0.0493753247	 0.108857
H	-1.9831885945	 3.9882229792	 0.1483333942	 0.10989
H	 0.2630362391	 5.0075517034	 0.1531345939	 0.06992
H	 0.6014617708	 3.0044672538	-1.9567589266	 0.109089
H	 2.0555547896	 3.7064483199	-1.184309066	 0.106663
H	 2.1389089808	 1.3955104564	-0.0255727646	 0.082466
H	 2.0964250187	 3.6038001829	 1.3204877242	 0.106688
H	 0.6673571492	 2.8389762663	 2.0798535384	 0.109115
147.1121	326.5068	402.761	408.4415	452.5372	475.8959	644.4801	724.9065	743.265	813.3275	828.48	856.2672	905.4612	923.8152	935.6425	995.2595	999.7457	1015.7696	1081.0152	1086.1174	1107.5103	1145.4899	1161.8025	1225.3744	1250.4824	1253.7447	1268.6667	1319.7142	1344.5602	1385.7943	1481.7223	1510.4412	1656.9782	1791.8178	3056.6195	3060.9035	3100.9155	3115.7129	3118.943	3121.292	3171.8341	3205.4442
O=C1C=CC2CC1C2	O=C1C=C[C@@H]2C[C@H]1C2	
InChI=1S/C7H8O/c8-7-2-1-5-3-6(7)4-5/h1-2,5-6H,3-4H2	InChI=1S/C7H8O/c8-7-2-1-5-3-6(7)4-5/h1-2,5-6H,3-4H2/t5-,6+
