16
gdb 15065	3.22561	1.52669	1.16656	1.9796	64.29	-0.2617	0.0152	0.2769	1020.3437	0.13076	-379.897425	-379.889092	-379.888148	-379.930672	29.47	
O	 0.1983817765	 1.3278078918	-0.0941213098	-0.415699
C	 0.0483811122	-0.0700292747	-0.0395841504	-0.062353
C	-1.4357676542	-0.5080988499	 0.095091598	-0.179494
C	-2.1833476449	-0.0135571554	-1.0631070416	 0.253398
N	-2.72660688	 0.3765317684	-2.0067221545	-0.334064
C	-1.5599459668	-2.0206020307	 0.2577775377	 0.010009
C	-2.7836774827	-2.7651006298	-0.121023134	-0.254634
N	-1.5379942218	-2.9304156658	-0.8935306835	-0.315151
H	-0.1478366631	 1.638827049	-0.9381507593	 0.299698
H	 0.4963707911	-0.575082514	-0.906951424	 0.116092
H	 0.5806635216	-0.4067149416	 0.854931374	 0.126175
H	-1.8403638407	-0.0141837322	 0.9878215321	 0.142129
H	-0.9807172561	-2.3832830807	 1.1050047383	 0.107098
H	-3.0850764737	-3.6335617829	 0.456851644	 0.127085
H	-3.6002521287	-2.2087785067	-0.5728902068	 0.135905
H	-1.6095993086	-2.4024358047	-1.7617900802	 0.243805
73.0462	108.1284	138.865	178.6377	212.5265	346.6939	365.4182	394.6474	429.6983	581.1217	637.3883	783.7383	829.0985	858.7479	939.9554	978.0158	994.6172	1041.6415	1075.3902	1100.1869	1128.8006	1150.1526	1188.5004	1206.0637	1261.3627	1275.9383	1311.036	1348.6493	1390.6468	1404.1388	1424.4274	1502.8504	1513.1452	2348.6546	3009.0561	3039.8293	3092.5274	3115.9609	3125.1264	3203.8706	3485.661	3803.1509
OCC(C#N)C1CN1	OC[C@@H](C#N)[C@H]1CN1	
InChI=1S/C5H8N2O/c6-1-4(3-8)5-2-7-5/h4-5,7-8H,2-3H2	InChI=1S/C5H8N2O/c6-1-4(3-8)5-2-7-5/h4-5,7-8H,2-3H2/t4-,5-/m1/s1
