16
gdb 13470	3.31528	1.90161	1.2365	3.4306	69.11	-0.2491	-0.0143	0.2348	951.6048	0.130379	-379.958123	-379.95004	-379.949096	-379.991095	28.607	
C	-0.0481824712	 1.4949383482	-0.2363927591	-0.472405
C	 0.0321522622	-0.0023181237	-0.058912238	 0.369476
O	 1.0624321106	-0.6440259819	-0.0495848628	-0.342407
N	-1.1787590375	-0.6571460814	 0.1021728391	-0.092187
C	-1.4101347521	-2.095531508	 0.2929986103	-0.163296
C	-2.9329355043	-1.7757650625	 0.3554503296	-0.359207
C	-2.5350849174	-0.3081728026	 0.1499106101	 0.384443
N	-3.0683961647	 0.832179072	 0.0462198728	-0.540352
H	 0.9635515865	 1.8835392363	-0.3510259672	 0.137492
H	-0.6576713146	 1.7467123006	-1.1086870338	 0.156222
H	-0.5428992663	 1.9580994573	 0.6217901724	 0.156235
H	-1.0840621505	-2.7011748656	-0.5554749511	 0.132604
H	-0.9663281566	-2.4856931695	 1.2116072728	 0.132596
H	-3.5338114345	-2.1966945182	-0.4527699342	 0.136465
H	-3.4162101633	-1.9813597126	 1.3123371575	 0.136462
H	-4.0820613464	 0.7640036614	 0.1219774115	 0.227859
79.5132	104.624	122.0066	188.2157	196.5489	372.4991	381.3629	519.8868	586.1672	601.1359	663.6761	770.9077	793.5581	832.7775	926.8622	968.9472	984.8384	1056.7799	1062.7698	1118.8312	1157.4419	1176.8212	1192.1209	1223.9187	1256.6178	1340.2954	1394.4833	1419.7219	1450.5252	1466.4972	1471.8084	1520.6597	1778.065	1783.7364	3058.0159	3070.9838	3085.1845	3119.2099	3122.9426	3141.434	3165.8836	3501.5802
CC(=O)N1CCC1=N	CC(=O)N1CC[C]1[NH]	
InChI=1S/C5H8N2O/c1-4(8)7-3-2-5(7)6/h6H,2-3H2,1H3	InChI=1S/C5H8N2O/c1-4(8)7-3-2-5(7)6/h6H,2-3H2,1H3
