16
gdb 128307	4.98502	1.074	0.88955	2.6805	80.04	-0.1916	-0.0659	0.1257	1266.5119	0.126412	-430.250958	-430.242655	-430.241711	-430.284041	30.638	
C	-0.2416853712	 1.4315412505	-0.091901875	-0.312112
N	 0.0629810703	 0.0189245246	-0.0071637649	-0.343791
C	 0.7365482729	-0.6166164669	-1.017886307	 0.47002
N	 1.312507239	 0.0743971902	-1.9574817516	-0.28635
N	 2.0187546228	-0.65077028	-2.8667015426	-0.257433
C	 2.1553357645	-2.0191850259	-2.9001382693	 0.363281
N	 2.8534658709	-2.5930197063	-3.8153406917	-0.567305
C	 1.4135835756	-2.6473073656	-1.7990407921	-0.047226
N	 0.7475799323	-2.0054693005	-0.9076789234	-0.282013
H	 0.6852010069	 2.0069090633	-0.1669440807	 0.147592
H	-0.8577280226	 1.6823118072	-0.9672807537	 0.12417
H	-0.7687294731	 1.7327079716	 0.8155350333	 0.124098
H	-0.5853646008	-0.5791931996	 0.4787640517	 0.252689
H	 2.4709386895	-0.1083384714	-3.5870388427	 0.272905
H	 2.8414379663	-3.6028789455	-3.6849880178	 0.211666
H	 1.4335679566	-3.7363671957	-1.7445183322	 0.129809
69.1965	142.5094	153.7272	192.3931	324.1001	359.2988	372.8788	438.0568	478.2564	521.2743	574.2711	645.6833	651.6097	738.5971	789.3969	819.8856	828.4134	980.116	998.4847	1094.9619	1115.2081	1154.0758	1170.6009	1254.5026	1298.4143	1383.0368	1419.0164	1440.8159	1458.7875	1476.1184	1511.881	1544.5385	1596.7098	1656.7434	1710.6675	3003.9081	3085.4404	3128.9997	3133.3874	3498.8773	3627.7313	3645.7727
CNC1=NNC(=N)C=N1	CNC1=NN[C@H]([NH])C=N1	
InChI=1S/C4H7N5/c1-6-4-7-2-3(5)8-9-4/h2H,1H3,(H2,5,8)(H,6,7,9)	InChI=1S/C4H8N5/c1-6-4-7-2-3(5)8-9-4/h2-3,5,8H,1H3,(H,6,9)/t3-/m0/s1
