22
gdb 5953	3.91095	1.10256	1.08774	2.6724	78.63	-0.2459	-0.0236	0.2223	1224.6232	0.197096	-350.225762	-350.215558	-350.214614	-350.261076	36.918	
C	-0.1435204516	 1.5315452385	 0.1837840004	-0.40516
C	-0.0046117752	 0.0231722978	-0.052206774	-0.177937
C	 0.7925356357	-0.4142983196	-1.3085299579	 0.259938
C	 0.0652056902	 0.033180124	-2.5916881576	-0.419515
C	 2.2167589117	 0.1701479642	-1.2841812049	-0.412436
C	 0.8774065606	-1.9732866238	-1.2551686783	-0.283536
C	 1.5057217182	-2.5945318985	-2.4814496117	 0.142879
O	 2.6662815784	-2.9119200989	-2.5668353438	-0.245075
H	 0.8274761909	 2.0148564037	 0.3260246642	 0.121772
H	-0.6505633717	 2.0351663941	-0.6449009691	 0.118482
H	-0.7351378531	 1.7161674065	 1.0859199292	 0.116278
H	 0.4732149402	-0.4269238502	 0.8278874311	 0.094314
H	-1.0074186619	-0.4206013361	-0.1111660998	 0.090625
H	-0.0605045341	 1.1193360373	-2.6141966215	 0.119948
H	 0.6273643031	-0.2405816348	-3.4903243472	 0.118716
H	-0.9301090535	-0.4196742433	-2.666258619	 0.10929
H	 2.7164581674	-0.0505766312	-0.3346130365	 0.112985
H	 2.8330743935	-0.2494158789	-2.0840792099	 0.131926
H	 2.1997017972	 1.2564561605	-1.4112219721	 0.113534
H	 1.4705076485	-2.2709004402	-0.3844572232	 0.116705
H	-0.136979893	-2.3781448411	-1.1450883983	 0.099999
H	 0.8174740784	-2.7437274701	-3.3447287303	 0.076266
37.7213	83.4693	96.6021	203.9373	214.2832	255.2396	279.1415	304.6742	322.6882	347.5625	381.5042	409.4482	500.5702	527.3021	704.3899	787.3552	837.9598	909.7933	924.0385	945.9221	983.4252	1004.6785	1031.7342	1035.8827	1087.0422	1103.1357	1187.8537	1205.7108	1238.4391	1266.4279	1316.6649	1346.1725	1372.2953	1405.8133	1413.0439	1429.0971	1433.9712	1468.4759	1481.9178	1484.0659	1490.3812	1507.1341	1509.037	1513.1747	1514.8641	1823.0525	2864.9689	3010.4481	3022.998	3030.5182	3037.6428	3043.2188	3044.6881	3090.0951	3095.7278	3102.5044	3103.4201	3108.8939	3115.0334	3118.0821
CCC(C)(C)CC=O	CCC(C)(C)CC=O	
InChI=1S/C7H14O/c1-4-7(2,3)5-6-8/h6H,4-5H2,1-3H3	InChI=1S/C7H14O/c1-4-7(2,3)5-6-8/h6H,4-5H2,1-3H3
