17
gdb 47291	3.10156	1.32739	0.99326	2.7773	70.93	-0.2487	0.0025	0.2512	1154.1257	0.13802	-455.180544	-455.172396	-455.171452	-455.21391	30.264	
N	-0.0328835159	 1.3674171997	-0.1395071759	-0.469585
C	-0.013365199	 0.1134336533	 0.0253291344	 0.355669
C	-1.3030279342	-0.6717327975	 0.0787877297	-0.241079
C	-1.4165770019	-1.7127682554	 1.2018555039	-0.199999
N	-0.5716958765	-2.8792710389	 1.0062536539	-0.291258
C	 0.7899013417	-2.8874071293	 0.9478985462	 0.375815
O	 1.4395012411	-3.9092172916	 0.8386496732	-0.35563
C	 1.4677910239	-1.5164394983	 1.0647816629	-0.194959
O	 1.1693332935	-0.5854021709	 0.0191466644	-0.252598
H	 0.9248556082	 1.7216779684	-0.1991195276	 0.224448
H	-2.1097095623	 0.0582739111	 0.1685364803	 0.138006
H	-1.4228422782	-1.1915575458	-0.8799733447	 0.133695
H	-1.2181710948	-1.2436662161	 2.1752133122	 0.125431
H	-2.448078101	-2.0702569629	 1.2368391804	 0.127225
H	-1.0015778534	-3.7892004839	 0.9343611511	 0.254298
H	 1.2511536126	-1.0666114891	 2.0440651432	 0.119912
H	 2.538908646	-1.7009802727	 0.9944746022	 0.150609
54.9155	95.2014	165.2899	265.0936	309.9108	351.6676	432.5443	473.4773	484.668	535.4465	586.5989	664.2894	717.7482	768.3218	850.9603	923.1058	939.4493	951.6286	1006.6431	1045.1936	1072.3747	1127.6188	1140.9465	1232.5714	1267.9868	1279.3466	1312.0704	1368.5642	1377.3104	1391.8899	1412.9812	1454.6962	1471.4544	1485.1448	1506.8833	1743.8385	1798.0237	3008.3236	3014.6003	3041.5429	3102.9915	3122.7984	3148.1028	3457.9851	3621.5191
N=C1CCNC(=O)CO1	[NH][C]1CCNC(=O)CO1	
InChI=1S/C5H8N2O2/c6-4-1-2-7-5(8)3-9-4/h6H,1-3H2,(H,7,8)	InChI=1S/C5H8N2O2/c6-4-1-2-7-5(8)3-9-4/h6H,1-3H2,(H,7,8)
