19
gdb 58900	3.16811	1.30678	1.09514	1.7865	70.53	-0.2296	0.0679	0.2976	1148.9093	0.157963	-460.135299	-460.126462	-460.125517	-460.168751	33.344	
C	-0.0143490721	 1.5473788419	 0.1930190656	-0.415167
C	 0.0409537728	 0.0298548843	 0.0362574121	 0.033794
O	 0.7403065465	-0.5958196073	 1.1064778306	-0.42786
C	-1.3380879245	-0.5809129667	-0.1132331775	 0.409054
C	-2.2091876018	-1.0240013033	 1.0526823001	-0.408289
C	-1.689337473	-2.0200982094	 0.026925746	 0.033785
O	-2.5136257192	-2.3553165317	-1.0627027227	-0.256576
C	-2.9450503625	-1.1327425442	-1.6277758839	 0.006885
O	-2.0080376622	-0.1293035909	-1.2714727236	-0.308487
H	 0.9961074397	 1.9587565402	 0.267923329	 0.121613
H	-0.5219159142	 2.0023223028	-0.6612427048	 0.142714
H	-0.5729965436	 1.8204822437	 1.0972488473	 0.10945
H	 0.6060285301	-0.2188253441	-0.8704099032	 0.099637
H	 0.5014331484	-0.1381825811	 1.9194495396	 0.283867
H	-1.7354597535	-1.0727816125	 2.0269875033	 0.111524
H	-3.2608096241	-0.7606227275	 1.0682411721	 0.122033
H	-0.9959319197	-2.8057253864	 0.2946214074	 0.125385
H	-2.9810659334	-1.2271001374	-2.718104875	 0.121759
H	-3.9433904135	-0.8660964102	-1.2441920823	 0.094879
69.9017	145.8965	176.7688	224.3374	249.8277	262.5176	303.0022	346.2255	438.9131	470.8852	490.3274	658.4176	736.2915	751.7006	834.7602	859.2119	910.5484	949.2014	968.9055	998.9354	1013.5341	1051.7533	1063.7209	1067.4765	1096.2253	1133.1544	1154.3609	1159.812	1216.4592	1221.3703	1278.6731	1305.2845	1368.3081	1392.6224	1398.2272	1409.0783	1434.6993	1471.4589	1489.4553	1496.8925	1550.9274	2963.1717	3026.7114	3039.8581	3069.1922	3102.2431	3130.4595	3137.4335	3211.3117	3228.3571	3808.7499
CC(O)C12CC1OCO2	C[C@@H](O)[C@]12C[C@H]1OCO2	
InChI=1S/C6H10O3/c1-4(7)6-2-5(6)8-3-9-6/h4-5,7H,2-3H2,1H3	InChI=1S/C6H10O3/c1-4(7)6-2-5(6)8-3-9-6/h4-5,7H,2-3H2,1H3/t4-,5-,6-/m1/s1
