22
gdb 63906	2.90726	1.34944	1.22108	1.4919	87.2	-0.2331	0.0161	0.2492	1155.6934	0.195503	-367.205216	-367.196645	-367.195701	-367.237749	34.697	
C	 0.128912947	 1.51462014	-0.0118645088	-0.423902
C	-0.0698705356	-0.011171944	 0.0019800983	 0.230912
C	-1.5822379131	-0.3257570459	 0.0604926267	-0.405052
C	 0.5569768704	-0.6145049134	-1.2821365631	-0.227108
C	 0.7474161578	-2.1252355263	-1.2135108506	-0.055296
N	 2.1251511677	-2.5871633345	-0.9283390625	-0.340248
C	 1.0654550216	-2.7294151772	 0.1035218686	-0.069013
C	 1.1263394412	-1.8237794037	 1.2784014198	-0.071465
C	 0.6034505988	-0.5987817252	 1.2314717835	-0.061582
H	 1.1923460423	 1.7749432	-0.0029668324	 0.117507
H	-0.319317903	 1.9574595422	-0.9083127454	 0.108802
H	-0.3402557663	 1.9819079932	 0.8612622841	 0.107708
H	-2.1101364401	 0.1496413966	-0.7745984245	 0.106089
H	-1.7609698171	-1.4040466447	 0.0118317779	 0.115911
H	-2.0259063822	 0.0428782074	 0.991543846	 0.110105
H	-0.0635927413	-0.3487373333	-2.1459404271	 0.087249
H	 1.5404427187	-0.1608396575	-1.4398710118	 0.110937
H	 0.1621550553	-2.7229535916	-1.9076251981	 0.08102
H	 2.27822876	-3.4913361569	-1.3707751917	 0.224825
H	 0.71271795	-3.7396866143	 0.3034746699	 0.084112
H	 1.5962248145	-2.1936391835	 2.1861854762	 0.086752
H	 0.6314423933	 0.0357249828	 2.1154770751	 0.08174
95.2631	180.1315	244.9141	267.9277	292.1743	303.7144	358.121	374.1032	438.4021	479.2457	530.8748	581.535	691.0863	749.378	810.6761	818.8055	853.9843	899.5939	918.5359	931.5148	944.8508	961.9618	992.6859	1001.5288	1015.6441	1040.1692	1101.4299	1153.3662	1163.7794	1187.4164	1203.1286	1222.3122	1267.0243	1276.9797	1300.572	1337.304	1388.3387	1395.8079	1410.6371	1429.7225	1453.4261	1472.8994	1485.5842	1490.8078	1500.8709	1509.227	1709.7746	3021.3095	3024.5963	3033.3664	3080.6361	3088.3913	3093.2058	3099.4291	3106.2536	3115.1424	3134.921	3136.0574	3164.1339	3481.0494
CC1(C)CC2NC2C=C1	CC1(C)C[C@H]2N[C@H]2C=C1	
InChI=1S/C8H13N/c1-8(2)4-3-6-7(5-8)9-6/h3-4,6-7,9H,5H2,1-2H3	InChI=1S/C8H13N/c1-8(2)4-3-6-7(5-8)9-6/h3-4,6-7,9H,5H2,1-2H3/t6-,7+/m0/s1
