18
gdb 49177	3.77489	1.16884	0.98239	4.5113	81.52	-0.2447	-0.0535	0.1912	1197.7052	0.149739	-401.957107	-401.949515	-401.948571	-401.989255	29.594	
O	-0.1431766692	-0.0023879801	 0.0523970229	-0.279372
C	-0.0216545721	 1.201288911	 0.112045464	 0.091201
C	 1.2590538195	 1.9206820734	 0.0302661839	 0.199831
C	 1.2515213988	 3.2646510996	 0.0631776595	-0.089583
C	 2.4969081945	 4.0488602321	-0.0439458006	-0.088093
N	 3.6125908364	 3.6547136465	 0.869514702	-0.328793
C	 3.7161065079	 3.3479738055	-0.5571031693	-0.021336
C	 3.5857586812	 1.8917867203	-0.9537040661	-0.224587
C	 2.5405766018	 1.1397435098	-0.1056950389	-0.31692
H	-0.9099885727	 1.8629746461	 0.2307274439	 0.063887
H	 0.3080446668	 3.8002253626	 0.1453820919	 0.100162
H	 2.3886223897	 5.1084103832	-0.2544607673	 0.090128
H	 4.1611916314	 4.4813125533	 1.093700071	 0.235992
H	 4.4008067067	 3.9433337882	-1.158169775	 0.088948
H	 3.3003658063	 1.8563043035	-2.0127911794	 0.107004
H	 4.5566870008	 1.3913508905	-0.8696475291	 0.108405
H	 2.9526902601	 0.9577038741	 0.8924217152	 0.137876
H	 2.3201355522	 0.1598362005	-0.5370980887	 0.125252
93.6319	174.9864	215.4799	244.1442	345.3785	365.1267	468.9342	471.1634	599.2923	631.1074	709.8722	757.611	789.6951	830.0743	859.2212	915.1892	923.3206	975.4085	986.4527	1027.5699	1034.0455	1061.076	1119.2679	1147.182	1176.5544	1194.2766	1220.1607	1241.8597	1281.0822	1326.5872	1356.9607	1397.6783	1405.4553	1431.3376	1448.8214	1476.3131	1487.8213	1693.1514	1785.4067	2868.9124	3029.1834	3052.6376	3072.4337	3102.6861	3125.4552	3146.4942	3161.0879	3500.2165
O=CC1=CC2NC2CC1	O=CC1=C[C@H]2N[C@H]2CC1	
InChI=1S/C7H9NO/c9-4-5-1-2-6-7(3-5)8-6/h3-4,6-8H,1-2H2	InChI=1S/C7H9NO/c9-4-5-1-2-6-7(3-5)8-6/h3-4,6-8H,1-2H2/t6-,7+/m0/s1
