21
gdb 89147	2.20558	1.67536	1.4203	2.5409	77.72	-0.2419	0.0592	0.3011	1055.7099	0.182532	-424.199982	-424.191363	-424.190419	-424.232406	34.845	
C	 0.2866796468	 1.6099170914	-0.2001404312	-0.506098
C	 0.0007366697	 0.1550828312	 0.102979805	 0.365679
C	-1.4180604091	-0.2540901887	 0.5570052859	-0.314519
C	-0.8033956968	-1.2550610959	 1.5818792199	 0.126756
O	-0.9797809785	-2.619989258	 1.2893228464	-0.439185
C	 0.6249353128	-0.6433177591	 1.3093024158	-0.097899
C	 1.4909746238	-1.4701311197	 0.3440439644	-0.2633
C	 0.6857286961	-0.8833905718	-0.8536650776	 0.028371
O	-0.2575774622	-1.7792773848	-1.4394397779	-0.427137
H	 1.358307343	 1.7932568174	-0.3416220508	 0.111317
H	-0.2267747752	 1.9285557429	-1.1160179347	 0.119534
H	-0.055754377	 2.2571005208	 0.6147485687	 0.114867
H	-1.9304419714	 0.579210873	 1.0483634305	 0.092857
H	-2.0864969766	-0.6849818023	-0.1917332368	 0.10907
H	-1.1415632858	-1.1189354575	 2.6120462892	 0.08071
H	-0.911757347	-2.7065650245	 0.327382667	 0.281939
H	 1.1052407927	-0.1571464717	 2.1601861272	 0.056315
H	 2.5377207897	-1.154022875	 0.3344011407	 0.098237
H	 1.4459435078	-2.5564109253	 0.4612815655	 0.102255
H	 1.2939157357	-0.4198162902	-1.6403973968	 0.06952
H	 0.2321421716	-2.4146866224	-1.9723329104	 0.290709
136.1288	184.8039	217.561	252.981	272.197	287.7806	350.5668	412.5403	442.6846	494.7147	504.9056	594.3888	621.2829	652.8027	764.5055	810.7791	824.9284	881.3355	899.7675	937.7802	973.956	992.681	1040.9376	1055.4195	1059.5413	1111.5455	1133.074	1158.0239	1176.8453	1180.5119	1223.2103	1243.2202	1247.5066	1277.7893	1291.9853	1300.8177	1331.2275	1344.5564	1406.6928	1410.5924	1465.4324	1473.5073	1473.7783	1491.8676	1493.2672	3013.3797	3018.6609	3048.7593	3054.2038	3073.0839	3077.8259	3088.6901	3093.3458	3108.9547	3113.091	3717.4136	3812.3883
CC12CC(O)C1CC2O	C[C@]12C[C@@H](O)[C@H]1C[C@H]2O	
InChI=1S/C7H12O2/c1-7-3-5(8)4(7)2-6(7)9/h4-6,8-9H,2-3H2,1H3	InChI=1S/C7H12O2/c1-7-3-5(8)4(7)2-6(7)9/h4-6,8-9H,2-3H2,1H3/t4-,5-,6-,7+/m1/s1
