17
gdb 88215	3.77403	0.74515	0.67077	3.7702	83.42	-0.2524	-0.0514	0.201	1677.0058	0.132508	-421.79905	-421.789054	-421.78811	-421.835704	34.563	
C	-0.2016832479	 1.3955944373	 0.0247783437	-0.478855
C	 0.1663130009	-0.0742998336	 0.0180316292	 0.247423
O	 0.4488590624	-0.6901812522	 1.0256879973	-0.283118
C	 0.1607817739	-0.715717959	-1.2797744497	 0.08585
C	 0.1714661819	-1.2519803645	-2.3663880577	 0.006895
C	 0.1672642709	-1.9814896368	-3.5876994603	-0.248149
C	 1.3174945765	-2.972567675	-3.8536667266	-0.31961
C	-0.027805599	-3.5013898661	-3.4855620158	 0.161705
O	-0.2759506994	-4.1079357521	-2.2673831562	-0.419316
H	 0.4892009078	 1.9604797257	-0.610248038	 0.146501
H	-1.2053708026	 1.5345609971	-0.3912389022	 0.146914
H	-0.1652090419	 1.774833145	 1.0470099341	 0.144229
H	-0.2608968546	-1.4800657463	-4.4494506917	 0.122938
H	 1.6590581572	-3.0551760318	-4.8794583177	 0.128502
H	 2.0958667171	-3.0172702714	-3.1007612655	 0.139988
H	-0.6280262874	-3.9494917264	-4.2712481814	 0.11908
H	-0.1044579259	-3.4728977499	-1.5591357217	 0.299024
32.8382	58.4349	88.6971	113.1759	148.7815	205.6444	249.2708	360.353	397.1879	415.8498	503.1657	575.9093	606.427	635.1082	685.2432	757.8785	796.5489	882.2471	955.017	980.6953	1023.1088	1042.1228	1049.7454	1111.4256	1124.3294	1133.1757	1223.3483	1259.4124	1346.232	1370.4246	1383.7935	1430.4545	1461.0678	1468.7441	1475.7797	1758.9236	2300.453	3039.7346	3104.1237	3140.5292	3151.9571	3158.0273	3167.5257	3236.9919	3754.5542
CC(=O)C#CC1CC1O	CC(=O)C#C[C@H]1C[C@H]1O	
InChI=1S/C7H8O2/c1-5(8)2-3-6-4-7(6)9/h6-7,9H,4H2,1H3	InChI=1S/C7H8O2/c1-5(8)2-3-6-4-7(6)9/h6-7,9H,4H2,1H3/t6-,7+/m0/s1
