18
gdb 86118	2.81742	1.39675	1.06808	2.0703	73.41	-0.2317	-0.0305	0.2012	1157.5115	0.146176	-439.127037	-439.117907	-439.116963	-439.161946	32.773	
C	 0.8003538871	 1.3322024114	-0.1933049678	-0.40518
C	-0.0283346361	 0.0619521279	 0.0275066517	 0.01279
O	 0.0961465787	-0.8140088949	-1.1048235016	-0.26936
C	 1.1112608951	-1.7265377851	-1.1073102874	 0.39537
C	 1.3699834025	-2.2212635811	-2.4995523223	-0.453506
N	 1.7640246858	-2.1556879166	-0.1097534479	-0.305816
C	 1.3991949142	-1.7195364595	 1.2249882209	-0.271801
C	 0.373486387	-0.6048320113	 1.3376100494	 0.346667
O	-0.0702071564	-0.2193255219	 2.392292894	-0.310188
H	 1.8687480192	 1.0991917829	-0.2429398983	 0.133872
H	 0.5045185813	 1.8066347308	-1.1323392721	 0.13523
H	 0.6325995001	 2.0313278156	 0.6298344571	 0.14609
H	-1.0897098771	 0.3158032976	 0.0888120054	 0.122157
H	 1.68818336	-1.3962737479	-3.1448493424	 0.137663
H	 2.1380904524	-2.99285071	-2.4784175457	 0.147241
H	 0.4485150228	-2.6280285181	-2.9283608843	 0.142636
H	 1.0216959145	-2.5774440754	 1.7971550772	 0.149924
H	 2.300733819	-1.3970302043	 1.7642538641	 0.146209
31.5044	65.2683	142.189	219.8182	230.9198	236.4713	321.1297	375.1277	442.3458	473.3164	543.0597	571.2	620.5209	712.1328	748.8777	874.2314	907.3286	921.6528	982.3579	1047.486	1064.8935	1095.3922	1117.2319	1147.0516	1225.0994	1239.1822	1252.2975	1316.9202	1340.7717	1364.8738	1396.4048	1408.0403	1436.989	1474.8721	1476.6758	1487.5326	1495.4015	1761.1487	1825.3383	3018.1758	3043.1404	3044.5432	3048.8198	3084.0272	3105.8122	3122.1767	3134.9574	3169.3012
CC1OC(C)=NCC1=O	C[C@H]1OC(=NCC1=O)C	
InChI=1S/C6H9NO2/c1-4-6(8)3-7-5(2)9-4/h4H,3H2,1-2H3	InChI=1S/C6H9NO2/c1-4-6(8)3-7-5(2)9-4/h4H,3H2,1-2H3/t4-/m1/s1
