20
gdb 108681	1.7449	1.63028	0.90945	4.5654	88.9	-0.2476	-0.0321	0.2155	1322.3857	0.171915	-366.063643	-366.05441	-366.053466	-366.098232	33.61	
C	-0.2484412217	 1.5963392488	-0.1830507349	-0.377663
C	 0.1192786295	 0.116604833	 0.0373238202	-0.313313
C	 0.7663163962	-0.514663274	-1.1566334221	 0.249743
C	 2.0343209235	-0.957981317	-1.2521030387	 0.109058
C	 2.3389192672	-1.585596991	-2.6012477405	-0.310136
C	 1.1319191648	-1.1358994169	-3.4592686325	-0.216521
C	 0.0187441142	-0.78762959	-2.4441824545	-0.297254
C	 2.993449828	-0.9106753393	-0.2051642701	 0.193499
N	 3.7929343748	-0.880557742	 0.6341040672	-0.355381
H	 0.6439793437	 2.1916639148	-0.3972580399	 0.130498
H	-0.9462669284	 1.7206399956	-1.0166741692	 0.1208
H	-0.7227309568	 2.0063159208	 0.7130424939	 0.124117
H	 0.7839256462	 0.0310077656	 0.9025828772	 0.131573
H	-0.7943456497	-0.4433223332	 0.2803110117	 0.112466
H	 3.2983660605	-1.2570879597	-3.0117026094	 0.122166
H	 2.3958610372	-2.6779121077	-2.5066451619	 0.121231
H	 1.4026924759	-0.2374285889	-4.0221179217	 0.114332
H	 0.8245736124	-1.8933062418	-4.1837471766	 0.107104
H	-0.6747493495	-1.6272012431	-2.2877416468	 0.118224
H	-0.5976487279	 0.0587034262	-2.7647209616	 0.115456
55.4182	120.8095	128.3784	142.9778	194.4479	217.9342	302.3717	350.1393	483.6579	515.4619	558.1861	607.3103	644.6743	701.2513	790.2673	848.4874	893.7469	924.4757	946.2177	982.1698	1019.603	1036.8053	1076.1254	1108.9168	1155.4064	1178.667	1214.8687	1231.9636	1260.0551	1300.9167	1325.0181	1330.7515	1355.51	1362.7811	1409.0245	1476.9722	1482.5184	1488.746	1498.1003	1504.8018	1508.2461	1684.4371	2328.3415	3003.3657	3017.0975	3024.6593	3042.1212	3054.7239	3068.8888	3079.2461	3081.0374	3110.6551	3115.3874	3117.9887
CCC1=C(CCC1)C#N	CCC1=C(CCC1)C#N	
InChI=1S/C8H11N/c1-2-7-4-3-5-8(7)6-9/h2-5H2,1H3	InChI=1S/C8H11N/c1-2-7-4-3-5-8(7)6-9/h2-5H2,1H3
