16
gdb 126322	4.72301	1.02661	0.9075	3.6527	74.71	-0.2351	-0.0713	0.1638	1280.2009	0.125199	-434.09576	-434.087749	-434.086805	-434.129217	29.409	
C	-0.3446653372	 1.5025181095	 0.1562036301	-0.373483
C	 0.1382191942	 0.0549452324	-0.035115191	-0.268268
C	 0.8107765328	-0.4916400478	 1.1961555485	 0.325608
C	 0.1776902623	-1.3499489945	 2.1012125711	-0.058701
N	 0.7945491442	-1.7879630228	 3.1881414827	-0.323232
C	 2.0459927397	-1.3412970376	 3.3336061777	 0.490819
O	 2.7272919659	-1.7398080461	 4.4127063089	-0.382495
N	 2.7095072796	-0.5300601492	 2.5059901891	-0.234339
N	 2.071017723	-0.1079055565	 1.4268357732	-0.22691
H	 0.496376759	 2.1512606347	 0.4160809469	 0.143094
H	-0.8028747719	 1.88208006	-0.7616371236	 0.119685
H	-1.0858365236	 1.5708321899	 0.9592740967	 0.11736
H	-0.7059996457	-0.5897909233	-0.3039307324	 0.104724
H	 0.8533536522	 0.0173202835	-0.8627306271	 0.129487
H	-0.8429664046	-1.6902978187	 1.9378046945	 0.126957
H	 2.1366253501	-2.3171779436	 4.9153917747	 0.309694
40.8537	90.1794	204.1304	217.5842	326.6516	399.4009	431.351	465.9684	525.0461	541.5164	611.975	671.4309	765.9294	790.3131	845.4704	895.4926	977.7378	981.6732	1058.9167	1074.9118	1084.2044	1141.1795	1204.5398	1271.2882	1285.1394	1357.311	1366.2973	1407.7168	1420.6868	1479.703	1491.9553	1496.8663	1509.0829	1564.4346	1622.7735	3039.07	3043.7133	3085.774	3111.7359	3123.8817	3150.2229	3781.7539
CCC1=CN=C(O)N=N1	CCc1cnc(O)nn1	
InChI=1S/C5H7N3O/c1-2-4-3-6-5(9)8-7-4/h3H,2H2,1H3,(H,6,8,9)	InChI=1S/C5H7N3O/c1-2-4-3-6-5(9)8-7-4/h3H,2H2,1H3,(H,6,8,9)
