18
gdb 61463	2.84527	1.08226	0.90848	1.8618	68.59	-0.2659	0.0552	0.3211	1313.2969	0.145707	-476.245464	-476.235693	-476.234749	-476.281311	34.485	
C	-0.1089188023	 1.4506959606	 0.2544874336	-0.40788
C	 0.0187136507	-0.0559033069	 0.0423939626	 0.093478
O	 0.7758563037	-0.6364146275	 1.1191058335	-0.271104
C	 2.123917315	-0.6710912785	 0.9505500829	 0.503409
N	 2.7127900556	-1.1572065564	 2.079787266	-0.56453
O	 2.7112318419	-0.3048639305	-0.041105063	-0.401664
C	-1.3325970839	-0.7352187585	-0.003953849	 0.081979
C	-1.6196953179	-2.0316465128	 0.6155288462	-0.174386
O	-2.0731304619	-0.8115216469	 1.2122467368	-0.236779
H	 0.8801483705	 1.9139961405	 0.2532995114	 0.139561
H	-0.6987157152	 1.898798567	-0.5514648294	 0.118269
H	-0.6071059795	 1.6544632384	 1.2059853225	 0.139192
H	 0.549036394	-0.2558625822	-0.8941007191	 0.115794
H	 2.146709837	-1.5892796056	 2.7889753102	 0.267091
H	 3.6856280388	-1.3998451325	 2.0180958128	 0.270322
H	-1.9256135489	-0.4363315584	-0.8707514851	 0.096103
H	-2.3999196156	-2.6660522999	 0.1971902945	 0.113164
H	-0.8316513922	-2.54509444	 1.1595584626	 0.117982
34.2955	74.0627	89.2647	165.2984	224.9768	234.2975	244.8486	276.6638	376.9727	461.6515	491.0603	529.5125	614.0592	658.3043	778.8588	782.7213	864.0263	875.5012	948.7977	990.5425	1030.8966	1061.0486	1090.1412	1110.7487	1136.5104	1149.7311	1171.4888	1178.9039	1294.5968	1335.7467	1358.002	1399.4129	1404.6796	1438.743	1490.185	1498.2098	1523.3439	1608.5227	1830.4809	3046.5248	3069.3337	3089.6379	3097.2513	3120.1897	3138.7248	3190.0168	3622.7111	3756.4828
CC(OC(N)=O)C1CO1	C[C@@H](OC(=O)N)[C@H]1CO1	
InChI=1S/C5H9NO3/c1-3(4-2-8-4)9-5(6)7/h3-4H,2H2,1H3,(H2,6,7)	InChI=1S/C5H9NO3/c1-3(4-2-8-4)9-5(6)7/h3-4H,2H2,1H3,(H2,6,7)/t3-,4-/m1/s1
