20
gdb 30723	2.96757	1.186	0.91185	1.5709	83.95	-0.1845	0.0352	0.2198	1343.7396	0.170517	-403.187309	-403.177467	-403.176523	-403.222276	35.9	
C	 0.0547725682	 1.5866001162	 0.2524777009	-0.365796
C	-0.018446049	 0.0809890594	-0.0626455875	-0.299673
C	-1.405501802	-0.4478512743	-0.1714745823	 0.326164
C	-2.1863368453	-0.8502119209	-1.2173117757	-0.000887
N	-1.8948386096	-0.8313950419	-2.5942158963	-0.611048
C	-3.4644655977	-1.2318629766	-0.6666638967	 0.242951
C	-4.6463223642	-1.7341143232	-1.4329534345	-0.51182
C	-3.3528720045	-1.0238705164	 0.6710179029	-0.130845
O	-2.1265280271	-0.5455457527	 0.9958964329	-0.196645
H	 1.0941374791	 1.9181091285	 0.3442556807	 0.107348
H	-0.4263691812	 2.1745062526	-0.5350551923	 0.120615
H	-0.4574255241	 1.8050980493	 1.1937601564	 0.13007
H	 0.5057777032	-0.1243040071	-1.0042614491	 0.094591
H	 0.522894981	-0.47583154	 0.7135853427	 0.11424
H	-0.9080285546	-0.7016783576	-2.7803738536	 0.237644
H	-2.2027864075	-1.6758536353	-3.0624376128	 0.2409
H	-4.4385072213	-2.6917064061	-1.9284075563	 0.118113
H	-5.5066328963	-1.888649581	-0.7760156265	 0.125193
H	-4.9425302334	-1.0273307514	-2.2168437741	 0.13521
H	-4.0383786635	-1.1661789414	 1.4911458812	 0.123676
46.9215	102.5005	144.3546	194.4241	200.5104	222.4788	242.5682	290.6202	334.5229	391.0377	488.6067	559.4187	630.0005	685.7866	721.7695	733.2229	736.0705	781.1463	792.7356	933.8111	978.1067	1011.7103	1046.4179	1065.3375	1083.16	1182.0541	1190.8688	1217.9537	1266.5724	1287.699	1325.8323	1358.3533	1404.0568	1419.4055	1453.0078	1471.8455	1482.0115	1495.0881	1501.6819	1507.7903	1607.8572	1646.2644	1699.5913	3015.3194	3016.0907	3037.106	3052.6837	3065.1492	3107.8226	3109.6907	3118.4899	3265.1082	3517.9332	3607.8985
CCC1=C(N)C(C)=CO1	CCc1c(N)c(C)co1	
InChI=1S/C7H11NO/c1-3-6-7(8)5(2)4-9-6/h4H,3,8H2,1-2H3	InChI=1S/C7H11NO/c1-3-6-7(8)5(2)4-9-6/h4H,3,8H2,1-2H3
