13
gdb 6429	4.2778	1.41007	1.289	1.7849	59.29	-0.2667	-0.0445	0.2222	925.912	0.093144	-398.61072	-398.603111	-398.602167	-398.643227	27.655	
O	 0.0395197158	 1.4779200686	-0.165590643	-0.450582
C	 0.0098952433	 0.0779925532	-0.0054773646	 0.250577
C	 0.2056100725	-0.3999442114	 1.4797575251	-0.390632
C	-1.3146168526	-0.635372132	 1.5425947826	 0.408379
O	-2.0724750603	-0.8963289738	 2.4253749748	-0.270632
C	-1.480730564	-0.3853568856	 0.0347260256	-0.365589
C	 0.8663597713	-0.5935218607	-0.9895525207	 0.227631
N	 1.5648369638	-1.109949813	-1.7522581425	-0.32983
H	 0.9512094512	 1.7813346424	-0.0819028255	 0.297517
H	 0.7773149167	-1.3263218827	 1.5868630666	 0.15556
H	 0.6080606269	 0.3593976679	 2.1542936887	 0.146484
H	-2.1893870513	 0.3913201195	-0.2595082429	 0.162656
H	-1.6835207033	-1.3011299923	-0.5264263542	 0.15846
36.6213	170.8809	183.0474	326.2774	367.1823	383.3851	407.6187	451.4623	508.1907	591.3908	617.6387	655.3036	725.9749	895.8783	898.1893	952.5691	1018.5243	1087.9378	1111.408	1121.8378	1199.523	1236.098	1265.644	1357.3164	1407.4616	1424.6548	1914.2283	2351.8913	3067.1222	3078.2028	3131.4397	3142.3218	3798.3288
OC1(CC(=O)C1)C#N	OC1(CC(=O)C1)C#N	
InChI=1S/C5H5NO2/c6-3-5(8)1-4(7)2-5/h8H,1-2H2	InChI=1S/C5H5NO2/c6-3-5(8)1-4(7)2-5/h8H,1-2H2
