16
gdb 48782	2.99723	1.51744	1.26523	3.368	69.94	-0.26	-0.036	0.224	1003.3774	0.12472	-437.85113	-437.844012	-437.843068	-437.882719	27.747	
O	-0.1702692927	 0.0157001842	 0.141050625	-0.265296
C	-0.0127674602	 1.197502909	-0.0456384058	 0.074223
C	 1.2930520309	 1.8820221471	-0.0586403204	 0.220955
N	 1.3706585633	 3.3172334438	 0.3089758269	-0.336328
C	 1.5635113683	 2.9635478392	-1.0852948707	-0.090012
C	 3.0152014939	 2.8290654601	-1.5503425026	-0.250356
C	 3.6080793417	 1.6750796565	-0.7437540751	 0.034179
O	 3.6549022992	 1.8848885593	 0.668114048	-0.235098
C	 2.5782033301	 1.1094069816	 0.1458152973	-0.030488
H	-0.8778615286	 1.8798900205	-0.2312141024	 0.063812
H	 0.4277303745	 3.6812378274	 0.4488148602	 0.237968
H	 0.8024337813	 3.2481934727	-1.8074062127	 0.103751
H	 3.0358268539	 2.57946134	-2.6165421357	 0.114636
H	 3.575351431	 3.7580301401	-1.4076919518	 0.134809
H	 4.4307420538	 1.0946271444	-1.155252881	 0.103349
H	 2.5202936695	 0.0701725241	 0.4502941407	 0.119897
110.7851	185.1529	246.8543	273.0919	352.7714	439.0653	469.0566	575.6088	645.3959	702.2113	769.1513	807.1112	829.856	869.5265	898.7821	922.7587	963.5658	990.5707	1021.4578	1051.3813	1077.4993	1106.3623	1116.2881	1161.5407	1209.535	1236.3848	1268.3086	1285.8062	1315.1975	1370.3272	1413.4236	1430.0121	1438.276	1464.177	1809.1377	2835.0924	3053.8983	3101.0064	3139.5877	3143.6561	3184.9601	3461.179
O=CC12NC1CC1OC21	O=C[C@]12N[C@H]1C[C@H]1O[C@@H]21	
InChI=1S/C6H7NO2/c8-2-6-4(7-6)1-3-5(6)9-3/h2-5,7H,1H2	InChI=1S/C6H7NO2/c8-2-6-4(7-6)1-3-5(6)9-3/h2-5,7H,1H2/t3-,4+,5-,6+/m1/s1
