15
gdb 24401	3.75455	1.65295	1.16523	2.9186	74.84	-0.1764	-0.0052	0.1712	984.7385	0.116162	-416.840103	-416.833459	-416.832515	-416.87109	26.177	
C	 0.1157563081	 1.4622747477	 0.3067778481	-0.229321
N	 1.0997680995	 2.1613581105	-0.5477719379	-0.411514
C	 2.1521990173	 1.3854931854	-0.9400226418	 0.372568
C	 2.1519545066	 0.0249422199	-1.0403901905	 0.179395
C	 0.950907095	-0.6909629888	-0.6794032952	-0.148261
C	-0.0396891697	 0.0034452536	-0.0956632563	-0.096598
N	 3.3636301564	-0.3695846461	-1.5999732581	-0.314123
C	 4.0061920004	 0.7295901762	-1.7925982289	 0.022129
O	 3.3160060965	 1.8731681235	-1.4105666957	-0.200469
H	 0.4050186453	 1.5236460253	 1.3744962352	 0.104414
H	-0.8404315847	 1.9874654776	 0.212016394	 0.119787
H	 1.3123785222	 3.1119237658	-0.2828953461	 0.251933
H	 0.8493346592	-1.743865496	-0.9174747368	 0.10613
H	-0.9736623818	-0.472164291	 0.1805637332	 0.097821
H	 4.9928974396	 0.8903483664	-2.1924890331	 0.146109
126.4251	185.9877	306.2693	386.609	423.2848	491.4823	554.2611	605.8286	644.5987	683.3094	730.6249	761.0957	784.3873	855.4911	902.1621	933.7173	976.1813	1028.0309	1041.4664	1055.0284	1173.7514	1184.9576	1252.9334	1278.7602	1302.7894	1320.468	1373.4766	1457.0861	1508.1041	1543.4907	1548.2482	1640.9276	1685.2494	2891.4056	3053.9733	3187.3119	3206.53	3295.736	3607.7643
C1NC2=C(C=C1)N=CO2	C1Nc2c(C=C1)nco2	
InChI=1S/C6H6N2O/c1-2-5-6(7-3-1)9-4-8-5/h1-2,4,7H,3H2	InChI=1S/C6H6N2O/c1-2-5-6(7-3-1)9-4-8-5/h1-2,4,7H,3H2
