19
gdb 88066	2.37006	1.26944	1.02388	2.652	76.81	-0.2439	-0.0244	0.2195	1226.6022	0.15737	-423.000927	-422.991797	-422.990853	-423.035763	33.515	
O	-0.1244114137	 1.388179429	-0.1071965096	-0.418254
C	-0.0701107317	 0.0029759149	 0.0629317349	 0.033942
C	-0.6128005062	-0.6269719907	 1.3233763789	-0.389893
C	-1.3887063169	-0.7111215988	 0.0358583662	 0.321167
C	-2.7229294808	-0.0434096306	-0.3063969975	-0.291565
C	-2.9521748013	-1.1531823722	-1.3718255203	-0.242533
C	-1.743480909	-1.9648944382	-0.7989978113	-0.147461
C	-0.7138789719	-2.4165769215	-1.7982525868	 0.154008
O	-0.1731991556	-3.4935487084	-1.8029845089	-0.256623
H	 0.5299446716	 1.7878760447	 0.4752110399	 0.291378
H	 0.785324427	-0.4842344062	-0.4066215427	 0.094253
H	-0.1268673319	-1.5206194367	 1.703216275	 0.120843
H	-1.0057549064	 0.0425433254	 2.0828267423	 0.11663
H	-3.445091286	-0.0811214986	 0.5143385805	 0.104432
H	-2.6565610572	 0.9832274871	-0.6708956271	 0.123822
H	-3.9133969166	-1.6690540595	-1.3559824576	 0.111719
H	-2.7616323208	-0.8027972122	-2.3906017119	 0.110976
H	-2.0375483855	-2.8154274853	-0.178820925	 0.089864
H	-0.4659111872	-1.6476283421	-2.5685482391	 0.073295
46.6928	54.8518	133.6534	204.1418	231.4748	280.7283	317.7297	422.7028	436.5965	452.009	485.0458	579.7674	731.259	812.0596	820.2033	864.5981	892.8685	905.445	953.3738	1001.9007	1019.2095	1033.2749	1059.9342	1100.8754	1124.4318	1152.7537	1174.2909	1200.8037	1227.6353	1244.4499	1263.3063	1264.9513	1292.3618	1309.4892	1336.9263	1420.2826	1428.7923	1474.744	1485.6074	1496.7336	1824.1083	2847.556	3058.8563	3060.4733	3080.7928	3090.8923	3113.953	3118.6006	3128.0461	3208.6878	3807.6727
OC1CC11CCC1C=O	O[C@H]1C[C@]21CC[C@H]2C=O	
InChI=1S/C7H10O2/c8-4-5-1-2-7(5)3-6(7)9/h4-6,9H,1-3H2	InChI=1S/C7H10O2/c8-4-5-1-2-7(5)3-6(7)9/h4-6,9H,1-3H2/t5-,6-,7+/m0/s1
