19
gdb 92781	2.88782	1.32371	0.96303	2.9775	80.07	-0.2199	-0.0651	0.1548	1231.4015	0.158948	-419.23149	-419.222283	-419.221339	-419.265678	33.155	
C	 0.014693922	 1.6311055406	-0.0408830827	-0.406257
C	 0.1258803046	 0.1164519844	 0.0989474553	 0.040538
C	 0.6846668645	-0.6101370327	-1.1540361947	-0.190589
N	 1.6094420392	-1.6381936254	-0.6597939307	-0.294156
C	 1.7734043846	-1.3895506008	 0.5941464762	 0.273641
C	 2.7399417674	-2.2517063495	 1.3340258748	 0.119723
O	 3.0701290905	-2.1277858076	 2.4888341469	-0.269142
N	 1.097466066	-0.310887861	 1.1235927846	-0.122661
C	 0.7641493044	-0.149891205	 2.5273624987	-0.361095
H	 0.9890562933	 2.0672088432	-0.2818554245	 0.125938
H	-0.686191434	 1.8840390342	-0.8430454755	 0.123689
H	-0.3545649853	 2.0981849863	 0.8772358299	 0.121787
H	-0.8645036776	-0.2909088351	 0.3667371264	 0.073877
H	-0.0949520059	-1.0572541321	-1.7772223926	 0.118827
H	 1.2459586076	 0.0868321668	-1.7930625673	 0.115563
H	 3.1456986534	-3.0453169341	 0.6778853729	 0.115731
H	 1.5588473746	-0.5716125468	 3.1392416365	 0.176689
H	 0.6624207859	 0.913419742	 2.7651238969	 0.127167
H	-0.1866447553	-0.6466998173	 2.7800180088	 0.110729
66.7647	108.046	150.4182	194.9379	214.644	242.2114	287.1392	303.7223	378.7177	448.7025	483.1777	613.5828	638.2527	716.3139	776.1441	897.029	921.7429	941.9978	1018.2083	1031.8017	1076.7299	1115.6035	1129.5205	1159.4223	1192.3021	1231.6951	1257.3492	1302.6597	1346.7513	1379.5264	1394.3669	1408.7458	1438.7378	1465.1007	1487.9846	1488.8413	1498.03	1504.0018	1525.8729	1648.3297	1806.0112	2945.251	2962.2818	2976.6532	3005.2269	3036.8548	3075.7956	3080.5442	3106.5537	3114.0419	3175.6014
CC1CN=C(C=O)N1C	C[C@H]1C[N][C](C=O)N1C	
InChI=1S/C6H10N2O/c1-5-3-7-6(4-9)8(5)2/h4-5H,3H2,1-2H3	InChI=1S/C6H10N2O/c1-5-3-7-6(4-9)8(5)2/h4-5H,3H2,1-2H3/t5-/m0/s1
