16
gdb 46621	3.1754	1.67909	1.12396	0.8573	73.04	-0.2293	0.0044	0.2336	1029.5516	0.127798	-434.101941	-434.094674	-434.09373	-434.13426	26.907	
N	-0.0865395167	 1.3181903241	-0.0050279893	-0.586518
C	-0.0486438388	 0.0578271549	 0.0354891668	 0.469179
O	 1.0765499186	-0.7375629942	-0.0253315921	-0.26868
C	 0.7195272554	-2.1348656961	-0.0180100984	-0.194894
C	-0.7832260276	-2.1100259687	 0.0017896429	 0.378636
N	-1.7147454153	-2.96248353	-0.1247013983	-0.3556
C	-2.9715019455	-2.1741227762	-0.0345760621	-0.179528
C	-2.570314989	-0.6519642704	-0.00495242	-0.196175
N	-1.1299280535	-0.7847077342	 0.1573917004	-0.119124
H	 0.851286473	 1.7015198979	-0.1009594732	 0.231259
H	 1.1199878153	-2.6210492545	-0.9119081172	 0.15352
H	 1.1440688051	-2.6143203548	 0.8698704405	 0.15057
H	-3.6190339574	-2.4106748521	-0.8831943421	 0.1243
H	-3.5109705977	-2.4603058612	 0.8748225482	 0.123705
H	-2.8072333192	-0.1254680861	-0.9354787485	 0.133468
H	-3.0181383667	-0.1023356384	 0.8256029125	 0.135882
74.7512	125.334	173.8608	233.0794	303.2701	547.7528	587.6643	620.4045	657.1805	709.6553	756.7308	794.3318	802.3155	841.8703	914.7043	969.3439	990.5685	1026.7875	1054.2243	1104.2403	1107.4059	1192.2105	1197.5475	1207.6726	1241.5857	1279.9303	1322.6564	1352.1036	1391.1111	1449.2888	1498.1735	1500.1566	1530.1059	1756.0587	1804.4458	3046.5838	3050.5573	3055.0249	3087.1738	3101.2873	3109.0907	3528.7159
N=C1OCC2=NCCN12	[NH][C]1OCC2=NCCN12	
InChI=1S/C5H7N3O/c6-5-8-2-1-7-4(8)3-9-5/h6H,1-3H2	InChI=1S/C5H7N3O/c6-5-8-2-1-7-4(8)3-9-5/h6H,1-3H2
