17
gdb 105663	1.96517	1.50088	1.18504	4.4171	68.93	-0.2621	0.0091	0.2712	1118.8038	0.135766	-455.117071	-455.107883	-455.106939	-455.151713	33.179	
O	 0.0600786972	 1.3141026034	-0.3724568313	-0.414866
C	 0.0258444086	 0.0086803878	 0.156645825	-0.097169
C	-1.4052345678	-0.5505849052	 0.1083336938	 0.079406
N	-2.0063962008	-0.4055277834	-1.2502256517	-0.358911
C	-2.5262172457	-1.7977005842	-1.2266429838	-0.214043
C	-1.6087053206	-2.1233014932	-0.0223758938	 0.096471
O	-0.4649483071	-2.8810990014	-0.2876829921	-0.416451
C	-2.2413185702	 0.0130086781	 1.1692167043	 0.258813
N	-2.9319519025	 0.43819702	 1.9941806484	-0.338158
H	-0.2705087985	 1.2422418822	-1.2770644045	 0.289002
H	 0.6833303811	-0.6761628265	-0.3952901375	 0.084112
H	 0.386371848	 0.0630178477	 1.1870702876	 0.133166
H	-2.7143919015	 0.3168679861	-1.3235707167	 0.243242
H	-3.5916106893	-1.8835660993	-0.9849880261	 0.125876
H	-2.3242583927	-2.3657859746	-2.1413506032	 0.112487
H	-2.0900241464	-2.5804412518	 0.8413875038	 0.122222
H	-0.1236545319	-2.6414579958	-1.156340702	 0.294801
48.7443	72.9226	146.9614	181.9517	194.7712	300.2627	347.3176	381.6785	422.8525	458.5868	494.7532	543.1979	593.5382	692.8079	743.1162	841.4812	909.2907	921.4144	998.5227	1036.7952	1052.7236	1072.0732	1106.6025	1127.7862	1152.6313	1191.0661	1232.9017	1254.6102	1305.6804	1321.0991	1378.8285	1383.9093	1423.3773	1440.6509	1497.1908	1511.2311	2340.7414	3014.9237	3029.9472	3077.0289	3103.1433	3127.221	3539.8963	3772.2005	3806.0104
OCC1(NCC1O)C#N	OC[C@]1(NC[C@H]1O)C#N	
InChI=1S/C5H8N2O2/c6-2-5(3-8)4(9)1-7-5/h4,7-9H,1,3H2	InChI=1S/C5H8N2O2/c6-2-5(3-8)4(9)1-7-5/h4,7-9H,1,3H2/t4-,5-/m1/s1
