22
gdb 120328	3.28523	0.95085	0.922	2.3205	82.33	-0.2215	0.0734	0.2949	1419.352	0.19523	-404.313807	-404.304745	-404.303801	-404.348736	33.544	
C	-0.7897397026	 1.4142215789	-1.1706707551	-0.229
O	-0.6610229347	 0.018827689	-1.0531510908	-0.233692
C	 0.6132368879	-0.4476286663	-1.4480691456	-0.098329
C	 0.5971349833	-1.9583909697	-1.2758206232	-0.008214
C	 1.0879786845	-2.9439459063	-2.2768669268	-0.040065
C	 1.9942992624	-2.4723071901	-3.4053288607	-0.224975
C	 3.1250963606	-1.6832634461	-2.7015054232	-0.236871
C	 3.0916854076	-2.1995339241	-1.2407577359	-0.152372
N	 1.7729400792	-2.7986557382	-0.9743692762	-0.122513
H	-0.0598774972	 1.9478863264	-0.5406680407	 0.103506
H	-0.6542524925	 1.7532065385	-2.2104665876	 0.102502
H	-1.798054419	 1.6781157213	-0.8426545462	 0.128471
H	 0.8139226699	-0.1460416659	-2.4886799623	 0.092024
H	 1.3950746075	 0.0153608107	-0.8204020162	 0.092891
H	-0.2636187476	-2.2491433992	-0.6776744695	 0.105821
H	 0.5324775387	-3.8658142298	-2.4309457667	 0.085219
H	 2.3950219241	-3.3477657873	-3.9268894675	 0.107257
H	 1.4667724043	-1.8708256714	-4.1530872369	 0.106025
H	 4.0978322935	-1.8510291804	-3.1709784772	 0.100706
H	 2.938491428	-0.6073956584	-2.7426079197	 0.107036
H	 3.8296085869	-2.9959625333	-1.0964817576	 0.108746
H	 3.3161812951	-1.4182940184	-0.5073305343	 0.105828
30.582	88.5477	141.786	196.0839	207.0563	238.4508	285.2802	402.5088	435.9401	523.5993	675.1373	690.1674	724.6869	806.9509	855.2752	893.0041	896.057	927.6824	966.4762	992.1061	1004.8123	1040.0673	1099.2023	1121.1805	1129.771	1139.7015	1162.1136	1185.8776	1196.3192	1214.218	1230.1314	1255.6343	1268.6286	1295.9629	1316.7135	1324.608	1342.4307	1351.2303	1402.9994	1444.1075	1479.5018	1484.8613	1488.9842	1497.0715	1502.813	1515.2718	1529.533	2942.0818	2966.9497	2978.153	3008.7511	3041.6393	3044.1418	3066.0903	3076.6415	3078.9665	3110.0078	3114.5247	3128.6232	3138.4566
COCC1C2CCCN12	COC[C@H]1[C@H]2CCCN12	
InChI=1S/C7H13NO/c1-9-5-7-6-3-2-4-8(6)7/h6-7H,2-5H2,1H3	InChI=1S/C7H13NO/c1-9-5-7-6-3-2-4-8(6)7/h6-7H,2-5H2,1H3/t6-,7+,8?/m1/s1
