16
gdb 20193	3.45167	2.67742	2.03075	2.5501	63.02	-0.2286	0.08	0.3086	710.1904	0.132922	-383.689427	-383.683592	-383.682648	-383.719096	23.72	
C	 0.0089697816	 1.5400923827	 0.0029822912	-0.090977
O	 1.2575525911	 2.2054873222	-0.0752860308	-0.240694
C	 2.2155208383	 1.6245393783	-0.9351363803	-0.089945
C	 2.3964725331	 0.1394125625	-0.6443551733	 0.088711
O	 2.4287882454	-0.0999276404	 0.7947354993	-0.290403
C	 1.1846931586	-0.7909809908	 0.7058071631	 0.096474
C	 0.0918635372	 0.024711516	 0.054471276	-0.080354
C	 1.1133358837	-0.6935401853	-0.7956759327	-0.174998
H	-0.4752119856	 1.9387043822	 0.9009080755	 0.113919
H	-0.6215707219	 1.8114097033	-0.8628436424	 0.086468
H	 1.9485151186	 1.7475605702	-2.0001227966	 0.086551
H	 3.1427010592	 2.1755069859	-0.7499021994	 0.115961
H	 3.2839375295	-0.2737172474	-1.1329303111	 0.084736
H	 1.0141275522	-1.6107981824	 1.3939904265	 0.106003
H	-0.8796377569	-0.4643528087	 0.0853654203	 0.093433
H	 0.900748616	-1.4240101182	-1.5642601953	 0.095114
201.7996	245.1361	354.2792	414.3765	472.2462	666.0027	715.8881	740.673	789.5851	816.6461	852.6506	877.9601	905.103	977.222	1008.869	1027.9892	1032.4763	1050.6907	1069.3315	1087.2656	1112.438	1125.0454	1180.839	1237.6934	1258.7227	1282.6281	1306.3629	1327.4754	1346.1059	1385.6269	1416.0791	1447.6441	1485.6966	1502.4887	2940.9334	2952.6897	3063.4957	3064.3305	3082.1399	3138.45	3180.1533	3202.6201
C1OCC2OC3C1C23	C1OC[C@H]2O[C@H]3[C@@H]1[C@@H]23	
InChI=1S/C6H8O2/c1-3-5-4(2-7-1)8-6(3)5/h3-6H,1-2H2	InChI=1S/C6H8O2/c1-3-5-4(2-7-1)8-6(3)5/h3-6H,1-2H2/t3-,4+,5-,6-/m0/s1
