21
gdb 78748	2.82037	1.55381	1.2079	1.215	81.38	-0.2435	0.0774	0.321	1103.8494	0.183779	-387.073554	-387.065558	-387.064614	-387.105387	32.853	
C	-0.0346297606	 1.4953089075	-0.0145931108	-0.405573
C	-0.0046450884	-0.0289664196	-0.0263409542	 0.009717
C	 0.7336128559	-0.6141133637	-1.2322634257	-0.126876
C	 1.9672929296	-0.909903904	-0.3827896008	-0.120561
C	 1.1149860969	-0.6444800134	 0.8882000281	-0.053823
C	 0.7093102579	-2.0337068602	 1.4068943142	-0.216589
C	 0.4846172349	-2.8645285829	 0.1142654282	-0.298762
C	 1.1889151939	-2.0454310683	-0.9703106937	 0.413041
O	 1.770455325	-2.7140241583	-2.0493380243	-0.483987
H	 0.9667651215	 1.9076579215	-0.1812555489	 0.116228
H	-0.6912962581	 1.8867298785	-0.7996717722	 0.109777
H	-0.4002539496	 1.8724178218	 0.947057163	 0.109409
H	-1.0150454845	-0.4188029246	 0.159577438	 0.055252
H	 0.6996774882	-0.2426102822	-2.251883842	 0.073693
H	 3.0157239301	-0.7189046343	-0.566753508	 0.088137
H	 1.5131782819	 0.0288539978	 1.6486676064	 0.063745
H	 1.5249608006	-2.4654920392	 1.9970700081	 0.097999
H	-0.177065278	-1.9937750104	 2.0482630417	 0.092978
H	 0.9449966652	-3.85487626	 0.1736582175	 0.103809
H	-0.5797009119	-3.0115553137	-0.1032609107	 0.091532
H	 1.0687762597	-2.9543188426	-2.663935564	 0.280857
162.1573	221.6595	233.704	253.4019	291.4748	334.0929	383.5274	394.4521	467.5382	572.0509	640.5799	733.6434	754.3437	824.3659	853.7443	861.9388	877.2997	915.7277	927.0493	952.6467	982.8013	1002.171	1035.4561	1042.1274	1066.9384	1096.2796	1118.4172	1149.3915	1157.7072	1203.6819	1212.2865	1249.1885	1256.4753	1270.7182	1283.0156	1305.4487	1316.1328	1344.9718	1378.5125	1407.6096	1433.9166	1486.8722	1494.887	1499.7059	1508.0201	3000.2264	3023.1783	3033.4645	3040.6191	3076.7379	3089.5126	3093.1299	3094.545	3099.1059	3156.1065	3207.2588	3797.5042
CC1C2C3C1CCC23O	C[C@H]1[C@H]2[C@H]3[C@@H]1CC[C@@]23O	
InChI=1S/C8H12O/c1-4-5-2-3-8(9)6(4)7(5)8/h4-7,9H,2-3H2,1H3	InChI=1S/C8H12O/c1-4-5-2-3-8(9)6(4)7(5)8/h4-7,9H,2-3H2,1H3/t4-,5-,6+,7-,8-/m1/s1
