21
gdb 118591	1.69818	1.20293	0.71653	2.9963	85.02	-0.2496	-0.0197	0.2299	1604.4619	0.180648	-420.443836	-420.433114	-420.43217	-420.480469	37.428	
C	 0.0466876099	 1.6275645638	 0.0341718917	-0.388042
C	 0.081204756	 0.0973835116	-0.0068868691	-0.162003
C	-1.3238954034	-0.5050957137	 0.0376268183	-0.25191
C	-1.340497851	-2.0140923559	-0.0006456531	 0.384913
N	-2.6045564035	-2.6482725744	 0.0370290824	-0.355786
C	-3.8727975915	-2.1133089397	 0.1044657233	 0.161561
O	-4.1703983559	-0.9448448411	 0.1468005587	-0.293579
N	-0.2556843391	-2.6762568652	-0.0640538413	-0.263279
C	-0.2806360615	-4.1267653773	-0.1005486115	-0.347875
H	 1.0578177306	 2.0448712405	 0.0015902768	 0.110196
H	-0.5102774313	 2.0383838699	-0.8155395469	 0.113246
H	-0.4345991949	 1.9927596909	 0.9484961901	 0.113241
H	 0.5946103018	-0.2464263558	-0.9105023964	 0.107554
H	 0.6690882432	-0.291474373	 0.830659823	 0.107557
H	-1.8607641861	-0.1731173878	 0.9342310002	 0.130571
H	-1.934625534	-0.1284584755	-0.7914948957	 0.130624
H	-2.5785631814	-3.6567116606	 0.0102337206	 0.250697
H	-4.6287936951	-2.9242477051	 0.1159134274	 0.087471
H	 0.744003022	-4.5017208182	-0.1547768701	 0.134091
H	-0.7400748803	-4.5664415528	 0.7992601612	 0.115401
H	-0.8173677245	-4.5205579606	-0.9785692096	 0.115354
50.3024	88.5203	98.8781	127.9539	158.0558	207.7432	242.0341	249.2036	260.1587	279.6539	345.8259	414.6726	590.6374	598.7443	640.0129	749.2913	789.593	828.7999	877.7143	930.0089	1030.1944	1034.2002	1056.2105	1095.8922	1106.7769	1132.2369	1141.7031	1192.8306	1234.0178	1257.5772	1321.1592	1332.1528	1407.395	1413.8958	1435.2493	1445.3686	1452.9395	1475.3745	1487.2317	1499.3203	1509.0123	1513.9883	1525.457	1737.659	1825.9281	2930.6134	2963.8759	3012.5071	3027.9959	3042.4043	3055.4349	3063.8504	3079.9373	3102.3544	3103.5151	3103.9564	3617.0966
CCCC(NC=O)=NC	CCCC(=NC)NC=O	
InChI=1S/C6H12N2O/c1-3-4-6(7-2)8-5-9/h5H,3-4H2,1-2H3,(H,7,8,9)	InChI=1S/C6H12N2O/c1-3-4-6(7-2)8-5-9/h5H,3-4H2,1-2H3,(H,7,8,9)
