20
gdb 28198	4.43599	1.15835	0.94309	1.7588	88.7	-0.1798	0.05	0.2297	1282.1255	0.173875	-366.069187	-366.060938	-366.059994	-366.101925	31.776	
C	 0.0096389288	 1.4872675799	 0.0882996009	-0.502489
C	 0.010997515	 0.0000290811	-0.0454467033	 0.329083
C	-0.0382268466	-0.8041474551	-1.1685481411	-0.428342
C	-0.0456348244	-2.1538916885	-0.7165578802	 0.319707
C	 0.0024585617	-2.132429526	 0.6503986061	 0.287806
C	 0.0832502452	-3.4775902079	 1.2957417174	-0.351421
C	-0.2695298529	-4.3946590432	 0.077597612	-0.187612
C	-0.013725632	-3.5677966755	-1.2264509867	-0.345662
N	 0.0464134232	-0.8274309672	 1.0658491344	-0.429251
H	 0.8932766749	 1.8587744303	 0.6234222475	 0.121274
H	 0.0093483027	 1.9470144326	-0.9027671899	 0.135949
H	-0.8738239121	 1.8596046811	 0.6236451321	 0.122057
H	-0.0726671995	-0.4398653631	-2.1849690998	 0.083709
H	 1.0894621468	-3.6924442251	 1.6846046327	 0.102021
H	-0.6122044084	-3.628535881	 2.1302985418	 0.097543
H	 0.2912406594	-5.3330268305	 0.0943585462	 0.093269
H	-1.3313156255	-4.6536221727	 0.1310683081	 0.106313
H	-0.7673419176	-3.7884439644	-1.9909020774	 0.097611
H	 0.9594438736	-3.8188326069	-1.6711291726	 0.0988
H	 0.0631637576	-0.503886538	 2.017525732	 0.249635
106.0307	116.0011	170.7089	238.3257	261.1477	274.8145	445.1269	460.2108	511.1042	637.4373	655.0903	662.8476	714.1075	780.139	791.195	849.1318	900.864	909.9553	986.3775	999.1084	1012.5264	1055.6592	1065.0699	1104.483	1151.0244	1160.8461	1205.4379	1218.3276	1248.9845	1289.9001	1302.6732	1334.0686	1378.616	1413.6327	1435.5517	1479.3539	1484.2849	1496.9489	1497.7439	1505.3393	1516.2551	1544.2359	1634.6996	2991.862	3003.4709	3008.7	3033.8089	3045.1288	3049.649	3059.5862	3099.5861	3119.2786	3234.0547	3671.8895
CC1=CC2=C(CCC2)N1	Cc1cc2c(CCC2)[nH]1	
InChI=1S/C8H11N/c1-6-5-7-3-2-4-8(7)9-6/h5,9H,2-4H2,1H3	InChI=1S/C8H11N/c1-6-5-7-3-2-4-8(7)9-6/h5,9H,2-4H2,1H3
