14
gdb 127910	3.96392	1.20946	0.93202	0.5093	72.29	-0.256	-0.0816	0.1744	1179.8121	0.101796	-466.191579	-466.183543	-466.182599	-466.224908	28.591	
C	 0.0111151888	 1.4473514285	 0.0821307737	-0.330557
N	 0.1524283799	 0.0045917635	 0.0566152139	-0.307505
C	 0.6004861967	-0.5863822501	-0.9679501954	 0.495309
N	 0.7184570865	-1.9844240994	-0.9434503248	-0.428272
C	 1.185041816	-2.7443759579	-1.9786400499	 0.521099
O	 1.2976228915	-3.9452613871	-1.9900763468	-0.372296
N	 1.5321161612	-1.9382025251	-3.0694168099	-0.297925
N	 1.4384722359	-0.5876866935	-3.1463725937	-0.017151
N	 1.0024517443	 0.0653628618	-2.1673573758	-0.241702
H	 0.5974966438	 1.8417098421	 0.9199816995	 0.131607
H	 0.3200863778	 1.9482380149	-0.8397766423	 0.142487
H	-1.0364223454	 1.6928103603	 0.2913781447	 0.131602
H	 0.4356345381	-2.4607077537	-0.0979406479	 0.280904
H	 1.890867835	-2.3868977342	-3.8983855753	 0.292399
61.2108	113.4049	126.7297	230.3447	248.1196	399.0244	406.2176	492.2241	552.4226	581.6202	628.6094	658.7329	742.7134	750.2644	775.5898	938.7276	1007.6752	1043.9306	1090.9494	1133.7378	1160.202	1250.9777	1361.5844	1385.1438	1436.7544	1441.3157	1493.1581	1494.5502	1599.7269	1750.3026	1857.5059	3023.7536	3076.9147	3109.0074	3612.9519	3647.394
CN=C1NC(=O)NN=N1	C[N]c1[nH]c(=O)[nH]nn1	
InChI=1S/C3H5N5O/c1-4-2-5-3(9)7-8-6-2/h1H3,(H2,4,5,6,7,9)	InChI=1S/C3H8N5O/c1-4-2-5-3(9)7-8-6-2/h2,6,8H,1H3,(H2,5,7,9)
