15
gdb 48186	4.80816	0.66846	0.59117	1.3004	69.45	-0.2694	-0.089	0.1804	1750.5492	0.108664	-457.756439	-457.746721	-457.745776	-457.793006	32.486	
O	-0.9109408831	 1.6633738549	 0.1751480314	-0.210111
C	 0.1017726381	 1.1416595459	-0.1955591019	 0.091959
C	 1.447994624	 1.8601282016	-0.3469671407	 0.336789
O	 2.4308274337	 1.2737783883	-0.7259587292	-0.33534
O	 1.3769239102	 3.1485584688	-0.0183851519	-0.214919
C	 2.6047427959	 3.8957449217	-0.1342724044	-0.065634
C	 2.2868695367	 5.3302576075	 0.2882100073	-0.355551
C	 3.4678066267	 6.179572347	 0.208333162	 0.279987
C	 4.4589935385	 6.8539174351	 0.1319986502	-0.43318
H	 0.1842659449	 0.0721744166	-0.4740302031	 0.118405
H	 3.3657069499	 3.4446818219	 0.5081849503	 0.142503
H	 2.9619727299	 3.8483887091	-1.1664576786	 0.14252
H	 1.4895650431	 5.7235992935	-0.3531808045	 0.149503
H	 1.8905261324	 5.3225127212	 1.3102880695	 0.14951
H	 5.326999629	 7.4625635168	 0.0694927335	 0.203559
39.131	50.8978	83.9619	110.3074	161.1101	191.5236	280.0028	345.3868	350.8955	499.0469	517.3512	602.4239	632.1697	660.6189	725.5921	784.8717	892.2947	986.7055	1029.9666	1030.7263	1077.8615	1080.5888	1229.058	1297.5691	1299.1427	1313.9861	1377.8573	1411.4659	1476.6856	1509.4756	1809.3595	1843.1863	2245.3706	2949.398	3037.2336	3067.178	3071.2951	3120.1407	3506.067
O=CC(=O)OCCC#C	O=CC(=O)OCCC#C	
InChI=1S/C6H6O3/c1-2-3-4-9-6(8)5-7/h1,5H,3-4H2	InChI=1S/C6H6O3/c1-2-3-4-9-6(8)5-7/h1,5H,3-4H2
