16
gdb 24781	2.54704	2.07096	1.15906	1.3399	80.09	-0.2112	-0.0284	0.1829	1007.31	0.128301	-396.961373	-396.954523	-396.953579	-396.992625	26.807	
N	-0.1764379019	 1.3754531843	 0.0105329879	-0.567928
C	-0.0077716234	 0.1055873569	 0.0030655672	 0.330954
C	 1.1944415792	-0.7268795378	-0.0073180652	-0.18726
C	 1.1346232758	-2.0870953496	-0.0142059921	-0.018341
N	-0.0286330007	-2.84796582	-0.0124394676	-0.389089
C	-1.0751084296	-2.0958908662	-0.0032049586	 0.4473
C	-2.5883305413	-2.2181410767	 0.0035872583	-0.376122
C	-2.5808230311	-0.6449849186	 0.0118862614	-0.169262
N	-1.1158123922	-0.7410447649	 0.0042331673	-0.070808
H	 0.7268583657	 1.8470385428	 0.0084551099	 0.21195
H	 2.1550820194	-0.2243003401	-0.0094751683	 0.10092
H	 2.0538895942	-2.6659024098	-0.0218509851	 0.112249
H	-3.0175844467	-2.6781991327	-0.8880378322	 0.145609
H	-3.0088438438	-2.6876489396	 0.8944506179	 0.145607
H	-2.9869341087	-0.1589763807	-0.8776712616	 0.142112
H	-2.9782330548	-0.1684313671	 0.9104427409	 0.142108
142.9127	174.4532	219.9998	295.5566	437.3842	504.2119	550.7582	590.7437	658.872	717.9494	744.9319	788.0276	808.4847	849.2633	869.6903	913.2246	996.9709	1009.0522	1060.4203	1079.385	1143.2862	1148.3514	1175.0453	1191.4257	1230.0824	1245.3258	1281.6819	1374.8767	1425.0941	1439.794	1469.8836	1516.1205	1565.5394	1670.5513	1722.9857	3076.4056	3090.3213	3128.6551	3146.8406	3169.6946	3199.3283	3494.0016
N=C1C=CN=C2CCN12	[NH]C1=CCN=C2CCN12	
InChI=1S/C6H7N3/c7-5-1-3-8-6-2-4-9(5)6/h1,3,7H,2,4H2	InChI=1S/C6H8N3/c7-5-1-3-8-6-2-4-9(5)6/h1,7H,2-4H2
