20
gdb 79471	2.72226	1.80627	1.47104	1.2633	77.77	-0.2115	0.075	0.2864	982.1936	0.171592	-403.0874	-403.079787	-403.078843	-403.118824	31.278	
C	 0.0609164975	 1.4660068934	-0.1857534386	-0.333338
N	 0.0401541325	 0.0150031198	-0.0329949748	-0.127672
C	-1.2212186624	-0.4617712842	 0.5726129949	-0.038628
C	-0.9968346819	-1.9688626493	 1.0064653082	 0.044848
C	 0.5400013603	-2.0168849943	 0.9582124265	-0.232644
C	 0.6800962996	-0.5059710683	 1.2425045522	 0.289893
C	 1.9971918114	 0.0574627625	 1.7020520897	-0.522058
C	-0.7289967023	-0.3225052392	 2.0219736755	 0.047626
O	-1.2239245841	-1.6077559322	 2.4041405182	-0.29837
H	 1.0739740082	 1.792915427	-0.4381802694	 0.122034
H	-0.5936602195	 1.7429863182	-1.0187329035	 0.120667
H	-0.2691538968	 2.0345640646	 0.7020801246	 0.094417
H	-2.1806443359	-0.1371092602	 0.1722438982	 0.079067
H	-1.5993971617	-2.8073383393	 0.6625513867	 0.083572
H	 0.9257515709	-2.6701543119	 1.743576862	 0.101506
H	 0.9647993499	-2.2707723446	-0.0139125489	 0.106101
H	 2.7798074961	-0.1134576615	 0.9542552722	 0.128381
H	 1.9399653571	 1.1338789642	 1.8919268722	 0.120079
H	 2.3082574921	-0.4300747778	 2.6314798779	 0.128123
H	-0.8925837009	 0.4777092031	 2.7421698364	 0.086395
196.3907	205.2725	239.6644	261.0901	275.439	343.5451	455.2015	509.5033	532.6124	627.8238	685.6678	725.3896	763.1287	819.2465	845.5021	869.251	907.921	939.9384	947.154	967.3848	995.0574	1038.2188	1055.021	1112.3055	1125.7783	1153.8834	1166.313	1169.2108	1186.8089	1205.7671	1218.5609	1241.1876	1281.2144	1294.1334	1323.6179	1356.2528	1413.6126	1453.0245	1465.1431	1487.2154	1490.8454	1500.0466	1503.9488	2944.0379	3031.3553	3062.663	3077.6287	3097.1088	3102.107	3106.3183	3123.883	3133.5662	3141.7201	3145.5126
CN1C2C3CC1(C)C2O3	CN1[C@H]2[C@H]3C[C@]1(C)[C@@H]2O3	
InChI=1S/C7H11NO/c1-7-3-4-5(8(7)2)6(7)9-4/h4-6H,3H2,1-2H3	InChI=1S/C7H11NO/c1-7-3-4-5(8(7)2)6(7)9-4/h4-6H,3H2,1-2H3/t4-,5+,6-,7-/m1/s1
