17
gdb 53134	3.74886	1.08813	0.96119	1.7173	81.44	-0.217	0.0409	0.2579	1272.1506	0.134116	-384.574516	-384.566127	-384.565183	-384.608901	30.881	
C	 0.1154501726	 1.5993708966	-0.0898116752	-0.501477
C	 0.0042450281	 0.1499352495	-0.0219821979	 0.098971
C	-0.1292476367	-1.0438880298	 0.0655715911	 0.079974
C	-0.1581799215	-2.4816714623	 0.0713087147	-0.20213
C	-0.4374321641	-3.4270660056	 1.2275988718	-0.125427
C	-1.6523305097	-3.0038611846	 2.1102748173	 0.016554
O	-2.1986253799	-1.7758857372	 1.6223015366	-0.222108
C	-2.5325864867	-2.9907604064	 0.9462586396	 0.016554
C	-1.3569657389	-3.4133919083	 0.0116447815	-0.125428
H	 1.0846636934	 1.9448903	 0.2878982789	 0.142253
H	 0.0176498732	 1.9608598805	-1.1199515664	 0.142259
H	-0.6646683567	 2.0856924709	 0.5069499569	 0.14837
H	 0.6422290789	-2.9021737092	-0.538718422	 0.116262
H	 0.2727795162	-4.1880709391	 1.524547094	 0.0973
H	-1.8212217815	-3.258353074	 3.1492429675	 0.110387
H	-3.5809615371	-3.2321582711	 0.822236413	 0.110387
H	-1.4574350496	-4.1623462698	-0.7633908214	 0.097301
25.9316	94.1448	99.2234	241.2028	250.6757	363.4814	393.3281	442.5141	595.1182	614.1932	716.2313	726.0998	772.6939	832.3136	842.0957	875.7856	890.3558	930.894	960.0797	1006.8323	1023.1956	1039.4221	1051.9213	1053.7435	1073.0875	1073.9074	1219.708	1229.7106	1242.8387	1273.1376	1302.5553	1378.2232	1413.179	1431.6806	1478.2061	1479.1949	2368.9828	3021.5252	3079.5516	3081.7605	3100.1518	3184.0353	3193.8921	3196.4772	3206.7071
CC#CC1C2C3OC3C12	CC#C[C@H]1[C@H]2[C@H]3O[C@H]3[C@@H]12	
InChI=1S/C8H8O/c1-2-3-4-5-6(4)8-7(5)9-8/h4-8H,1H3	InChI=1S/C8H8O/c1-2-3-4-5-6(4)8-7(5)9-8/h4-8H,1H3/t4-,5+,6-,7+,8-
