17
gdb 15592	2.68299	2.0428	1.44605	3.623	67.06	-0.2754	0.0237	0.2991	905.2598	0.14385	-363.893031	-363.885248	-363.884304	-363.925898	28.646	
O	 0.4561321121	 0.9561947951	-0.7316272564	-0.432246
C	 0.0739491774	-0.1375163453	 0.0576773947	 0.144463
C	 0.3899822796	-0.0470642247	 1.5567296126	-0.240116
C	-0.3869047478	-1.2260118946	 2.16533595	-0.207081
C	-1.6588072683	-1.4003183165	 1.278467978	-0.228607
C	-1.4572933269	-0.4704790373	 0.0439763746	-0.176672
C	-2.2145114608	 0.774781516	 0.1554199986	 0.261618
N	-2.763268864	 1.7887302225	 0.2530628322	-0.335187
H	-0.0156815479	 1.738413491	-0.4184580288	 0.293619
H	 0.5925934456	-1.0018537356	-0.3730162794	 0.099587
H	 1.4636460144	-0.0812563829	 1.75452803	 0.111205
H	 0.0113992313	 0.908907005	 1.9413556608	 0.112481
H	 0.2209402355	-2.1353189762	 2.1263751594	 0.110376
H	-0.6408625339	-1.060494533	 3.2143946649	 0.113392
H	-1.7712227612	-2.4346504023	 0.9461354413	 0.116313
H	-2.5715794324	-1.1383810158	 1.816184995	 0.13041
H	-1.7451048627	-0.9526346055	-0.8938541874	 0.126444
34.1144	142.2024	163.7669	218.9813	342.0654	386.265	433.4092	487.7323	555.1726	638.9367	689.29	769.6185	795.1492	874.7572	890.2425	940.2954	993.0468	1020.8987	1049.9497	1097.116	1127.9507	1162.0985	1204.445	1208.5369	1253.2048	1283.6147	1305.4837	1327.7492	1339.8376	1359.226	1365.0247	1440.84	1488.5159	1491.3013	1511.5093	2344.2021	3029.1795	3050.3615	3055.7545	3074.3827	3084.4092	3101.	3109.8193	3125.9685	3775.3278
OC1CCCC1C#N	O[C@H]1CCC[C@H]1C#N	
InChI=1S/C6H9NO/c7-4-5-2-1-3-6(5)8/h5-6,8H,1-3H2	InChI=1S/C6H9NO/c7-4-5-2-1-3-6(5)8/h5-6,8H,1-3H2/t5-,6-/m0/s1
