16
gdb 29610	3.22184	1.15358	0.88227	4.017	74.8	-0.1878	0.0262	0.214	1267.6347	0.125181	-434.082477	-434.073651	-434.072707	-434.117085	32.039	
N	 0.3191429281	 1.3739288551	 0.2533499	-0.61824
C	 0.1042468789	-0.0019197915	 0.0740758343	 0.166654
C	-1.048768709	-0.7359557832	 0.2586975021	-0.153076
N	-0.7452720254	-2.0648057422	 0.0359675494	-0.239418
C	 0.5742177744	-2.2041301125	-0.2896583701	-0.175776
C	 1.1192404395	-0.9388257666	-0.2697761704	 0.251766
O	 2.4085471224	-0.5671769686	-0.5903310823	-0.229659
C	 3.3974268803	-0.9649909121	 0.2516896026	 0.107
N	 4.5982379645	-0.7174479971	-0.0383521884	-0.438157
H	 1.1486332764	 1.6792054007	-0.2413187177	 0.253053
H	-0.4683529506	 1.9387244548	-0.0372952373	 0.242062
H	-2.0431059516	-0.4273752416	 0.5352577795	 0.113729
H	-1.4035855886	-2.8194374195	 0.0971785469	 0.265524
H	 1.0135756046	-3.1574234579	-0.5302612199	 0.128443
H	 3.0102343196	-1.4866764906	 1.1353420537	 0.095305
H	 5.2094149566	-1.069068327	 0.6957118677	 0.23079
24.8753	113.7511	141.8186	199.9558	250.4852	275.7823	342.5302	430.9546	461.6911	507.2574	616.6455	621.6307	682.4819	702.5279	736.278	794.1451	819.9468	830.65	907.6517	1037.5061	1049.906	1075.7089	1096.4511	1154.2629	1234.6695	1277.1963	1280.578	1364.503	1401.1785	1442.392	1482.5327	1581.8128	1635.7484	1655.8432	1742.5571	3050.5913	3269.8476	3275.7328	3519.8739	3532.1334	3621.9798	3704.0924
NC1=CNC=C1OC=N	Nc1c[nH]cc1O[CH][NH]	
InChI=1S/C5H7N3O/c6-3-9-5-2-8-1-4(5)7/h1-3,6,8H,7H2	InChI=1S/C5H7N3O/c6-3-9-5-2-8-1-4(5)7/h1-3,6,8H,7H2
