19
gdb 102804	2.02112	1.23568	0.84593	3.5584	69.53	-0.2726	0.0129	0.2855	1367.9957	0.156011	-497.315604	-497.305126	-497.304182	-497.351649	36.847	
C	 0.1414113302	 1.5191947846	-0.0494589532	-0.413739
C	 0.0208533789	-0.0013327242	 0.0485963921	 0.12896
O	 0.5371759352	-0.4800537311	 1.2899383797	-0.438422
C	-1.4278707462	-0.5006945584	 0.0059400987	 0.073263
C	-2.2281217435	-0.0481469309	-1.2121063947	-0.083622
O	-1.5976766304	-0.4025978489	-2.4271065422	-0.419357
O	-1.4171513332	-1.9393687234	-0.0598056453	-0.213353
C	-1.3848992084	-2.6400764659	 1.0958364281	 0.173241
O	-1.2802031324	-3.8292934178	 1.112542473	-0.282339
H	 1.1821886754	 1.8168994308	 0.1124627593	 0.114838
H	-0.1570787202	 1.879118924	-1.0377351859	 0.138524
H	-0.469275466	 2.0127345327	 0.7136488076	 0.123654
H	 0.5499163297	-0.4670838848	-0.7925029425	 0.092518
H	 1.4975253224	-0.4770204546	 1.2433733145	 0.291727
H	-1.9379019201	-0.1776908077	 0.924574414	 0.095322
H	-3.2382214984	-0.4770479424	-1.1381963044	 0.105275
H	-2.3281250617	 1.0405309102	-1.212225165	 0.120083
H	-1.5118697993	-1.3632182141	-2.4258137627	 0.299007
H	-1.486788872	-2.0004444381	 1.9880722889	 0.09442
61.7605	81.1378	90.6398	150.7867	193.4275	224.3279	233.7717	287.3313	312.8135	356.6873	371.686	429.1005	438.8	485.4765	624.7934	705.5016	857.361	926.0043	932.2316	965.8531	1032.0216	1065.3764	1089.8548	1101.9531	1126.8336	1137.2008	1176.9777	1226.409	1249.6889	1324.9845	1344.2415	1371.1374	1391.8614	1404.5175	1425.0589	1428.649	1438.3941	1490.322	1495.2936	1508.411	1861.885	3000.2831	3005.4121	3018.366	3033.5284	3038.5908	3097.8536	3106.9208	3124.6621	3798.7266	3836.0528
CC(O)C(CO)OC=O	C[C@@H](O)[C@@H](CO)OC=O	
InChI=1S/C5H10O4/c1-4(8)5(2-6)9-3-7/h3-6,8H,2H2,1H3	InChI=1S/C5H10O4/c1-4(8)5(2-6)9-3-7/h3-6,8H,2H2,1H3/t4-,5-/m1/s1
