18
gdb 17470	4.12996	1.91123	1.63271	1.0957	69.97	-0.241	0.0786	0.3196	838.3757	0.155311	-347.779702	-347.772927	-347.771983	-347.810045	28.17	
O	 0.0115250769	 1.3786753433	-0.0394240413	-0.465289
C	 0.0314020838	-0.0192286606	 0.0109273015	 0.400286
C	-0.4306755763	-0.7884436576	-1.1968660258	-0.360944
C	-1.2673202873	-0.782462058	 0.0748819016	-0.082911
C	-1.125936883	-1.9018429215	 1.0857807336	-0.032174
C	-0.1521790352	-3.026570499	 0.830484093	-0.297458
C	 0.2824438774	-1.8420370868	 1.6552124963	-0.027721
C	 1.0155867947	-0.6711799127	 0.9970310272	-0.311845
H	 0.6844905447	 1.6634290661	-0.6669580739	 0.280024
H	-0.8206478143	-0.1879275769	-2.0127424837	 0.108476
H	 0.0879222813	-1.6863841375	-1.5142156038	 0.109444
H	-2.2096297886	-0.2488807033	 0.0381287014	 0.092008
H	-1.9817933696	-2.1012988776	 1.7200242863	 0.082101
H	-0.3240922808	-3.9552611554	 1.3649056641	 0.107036
H	 0.2552598764	-3.1732569786	-0.1637389973	 0.108458
H	 0.4624342865	-2.0093767768	 2.7114138987	 0.083665
H	 1.9583916788	-0.9696749089	 0.5226067196	 0.094702
H	 1.2562622949	 0.0829041019	 1.7529533025	 0.112143
188.9277	239.461	276.6887	364.0768	394.209	415.4085	504.5635	588.5543	661.1304	704.133	779.4107	802.6413	846.3998	866.8669	899.9659	921.3024	952.0229	978.7815	998.5987	1036.3225	1050.112	1059.1061	1071.9294	1088.9855	1106.1372	1122.325	1179.4956	1216.3406	1246.2382	1265.4602	1294.473	1331.8596	1353.6541	1379.0706	1399.7594	1478.4285	1486.9523	1506.3844	3031.704	3082.4474	3125.6928	3133.6042	3163.4063	3172.4022	3186.9842	3208.4729	3215.6421	3797.0578
OC12CC1C1CC1C2	O[C@]12C[C@H]1[C@H]1C[C@H]1C2	
InChI=1S/C7H10O/c8-7-2-4-1-5(4)6(7)3-7/h4-6,8H,1-3H2	InChI=1S/C7H10O/c8-7-2-4-1-5(4)6(7)3-7/h4-6,8H,1-3H2/t4-,5-,6-,7+/m0/s1
