17
gdb 22619	2.62217	1.53441	1.22076	0.467	77.04	-0.2275	-0.0022	0.2253	1063.0573	0.135492	-417.90703	-417.89891	-417.897966	-417.939401	31.558	
C	-0.0511872639	 1.5368647639	-0.0066700334	-0.518243
C	-0.0604229354	 0.0340393348	 0.0374160737	 0.19524
N	 0.348780239	-0.767811321	-1.2103198363	-0.335902
C	-0.3470967632	-1.9126902952	-0.4717490052	-0.162207
C	 0.5767034598	-2.0162321527	 0.7441653341	-0.058411
C	 0.7696935964	-0.7371795674	 1.0779003072	-0.090667
C	-1.3259746921	-0.8411905981	 0.0326050331	 0.449686
N	-2.5562691015	-0.5909796744	 0.1395654402	-0.322638
O	-3.3418996052	-1.7368162798	-0.1479282351	-0.401718
H	 0.9559879966	 1.9051498999	-0.2240748384	 0.133614
H	-0.7341280208	 1.9128737533	-0.7736698359	 0.129553
H	-0.3695445264	 1.9493860276	 0.9553932658	 0.135552
H	-0.2762799815	-0.4748380044	-1.9699894044	 0.216112
H	-0.6405557403	-2.798202028	-1.0279100156	 0.094424
H	 0.9361682605	-2.9264531318	 1.1999714152	 0.116761
H	 1.3347113191	-0.2955367806	 1.8857529554	 0.113562
H	-4.2341980912	-1.4008382461	-0.0129794404	 0.305282
120.6068	155.2455	182.4982	264.8139	267.1863	326.3875	391.3353	442.2974	523.6533	591.506	623.6178	678.0224	718.9041	758.5145	783.19	842.605	883.71	905.3875	912.3995	920.6651	948.6302	1038.785	1089.3578	1096.8862	1113.4897	1164.3866	1184.1581	1244.7292	1274.4647	1314.8853	1365.0466	1403.0405	1417.4502	1486.151	1490.2223	1618.1088	1790.7969	3042.7705	3115.4618	3116.8603	3172.0739	3230.8407	3258.2309	3383.2242	3821.4309
CC12NC(C=C1)C2=NO	C[C@@]12N[C@@H](C=C1)C2=NO	
InChI=1S/C6H8N2O/c1-6-3-2-4(7-6)5(6)8-9/h2-4,7,9H,1H3	InChI=1S/C6H8N2O/c1-6-3-2-4(7-6)5(6)8-9/h2-4,7,9H,1H3/t4-,6+/m0/s1
