15
gdb 128215	3.32562	1.42905	1.00579	5.9856	75.69	-0.2187	-0.0574	0.1614	1115.5727	0.112724	-453.949428	-453.941095	-453.940151	-453.983353	29.704	
C	 0.0359818823	 1.4897956374	-0.1065948598	-0.304849
N	 0.0985250839	 0.0415014365	 0.0599011793	-0.37884
C	 0.633019575	-0.6788815394	 1.0746073149	 0.233347
C	 0.6271940606	-2.0489263317	 1.1134879427	-0.239147
C	 1.2124502162	-2.7125433749	 2.2196733126	 0.054069
N	 1.7759309077	-2.1536125783	 3.2412189928	-0.107644
O	 1.7845143399	-0.7492917524	 3.2059442942	-0.251787
C	 1.2627453681	 0.027701998	 2.2131715122	 0.426113
O	 1.3459252074	 1.2275063877	 2.323352452	-0.347979
H	 1.0303112569	 1.9388788085	-0.1402154571	 0.156234
H	-0.4732062544	 1.6814980692	-1.0537482554	 0.119756
H	-0.5218297761	 1.9685204771	 0.700326581	 0.156245
H	-0.3122208297	-0.5051393069	-0.6788707986	 0.25247
H	 0.1830436271	-2.6319680563	 0.3134027943	 0.099061
H	 1.2169732051	-3.7978661146	 2.2674348948	 0.132954
38.2729	88.7173	138.4007	217.8643	248.0758	388.6749	403.7704	460.4457	479.0895	558.2251	589.8831	604.0302	704.9629	792.5165	838.5235	890.382	952.0025	972.5347	1042.8595	1090.3777	1148.7633	1151.2092	1187.7618	1323.1118	1349.6409	1422.1939	1478.3016	1485.8585	1500.5762	1530.4537	1613.2519	1668.0569	1799.8509	3057.0903	3130.6267	3135.3334	3172.6296	3186.5427	3639.2338
CNC1=CC=NOC1=O	CNc1ccnoc1=O	
InChI=1S/C5H6N2O2/c1-6-4-2-3-7-9-5(4)8/h2-3,6H,1H3	InChI=1S/C5H6N2O2/c1-6-4-2-3-7-9-5(4)8/h2-3,6H,1H3
