15
gdb 28654	5.76688	1.01394	0.86277	2.4767	89.93	-0.2073	-0.0202	0.1871	1269.1726	0.114224	-379.71023	-379.702469	-379.701525	-379.742196	30.351	
N	-0.0389854705	 1.3849443209	-0.1230316127	-0.565384
C	 0.0226383753	 0.0120828445	-0.0561348272	 0.391732
N	-1.1529860577	-0.6318274149	-0.0410970876	-0.329557
C	-1.1394100444	-1.9608959264	-0.02900111	-0.070185
C	 0.023941032	-2.7431911428	-0.0225805793	 0.087545
C	 1.2475224062	-2.0480071591	-0.0325004837	-0.155538
C	 1.2551058745	-0.6696198186	-0.0510794269	-0.176385
C	-0.039386212	-4.1618209623	-0.0037392177	 0.219635
C	-0.0956226298	-5.3654980066	 0.0122062944	-0.423977
H	 0.7546127097	 1.9085276011	 0.208360235	 0.253943
H	-0.9404525788	 1.7740921123	 0.1076073839	 0.259091
H	-2.1097036896	-2.4510315787	-0.0186715162	 0.11517
H	 2.1786614019	-2.6037737072	-0.0260787233	 0.11225
H	 2.1880489757	-0.1165024034	-0.0663631213	 0.092586
H	-0.1465881325	-6.4256116488	 0.0260619226	 0.189073
101.0549	144.937	241.1516	374.9933	405.1229	415.4091	438.7895	464.0527	501.4918	534.1374	542.9122	581.1699	648.9019	661.0724	734.0001	788.5548	847.5542	871.2495	970.196	980.7588	1030.1283	1068.1077	1164.7993	1239.7143	1303.536	1342.6067	1358.0394	1426.2225	1526.4658	1587.2544	1629.1747	1654.8764	2222.9215	3161.5409	3178.6364	3199.6916	3505.5001	3586.3322	3705.6225
NC1=NC=C(C=C1)C#C	Nc1ncc(cc1)C#C	
InChI=1S/C7H6N2/c1-2-6-3-4-7(8)9-5-6/h1,3-5H,(H2,8,9)	InChI=1S/C7H6N2/c1-2-6-3-4-7(8)9-5-6/h1,3-5H,(H2,8,9)
