18
gdb 97213	2.37242	1.3961	1.03477	2.5149	80.72	-0.244	0.0191	0.2631	1212.7561	0.146901	-401.930151	-401.92098	-401.920036	-401.964939	32.913	
C	 0.2350470516	 1.4646482731	-0.0620566896	-0.334355
N	 0.3403813392	 0.0144609151	-0.1026973934	-0.31868
C	 0.5304569912	-0.6245633933	 0.9614668993	 0.43909
O	 0.6807636737	-0.0806448687	 2.2098112606	-0.249507
C	 0.9415631549	-1.1073727109	 3.1800679555	-0.079764
C	 1.4489235097	-2.3064092636	 2.3732583274	-0.243009
C	 0.6547415676	-2.1486417986	 1.0557088698	-0.272303
C	-0.6601232882	-2.7800842031	 1.1212035783	 0.349732
C	-1.7382721803	-3.3043459334	 1.204953957	-0.485253
H	 0.8081284392	 1.8843255248	-0.8951443764	 0.122086
H	-0.8112687857	 1.7547701997	-0.2172403268	 0.128446
H	 0.5820128469	 1.9149912987	 0.8747785816	 0.121847
H	 1.6686899163	-0.7166565402	 3.895330641	 0.121134
H	 0.010339032	-1.3413984539	 3.7092415813	 0.124449
H	 2.5186805332	-2.2021197491	 2.1695367793	 0.118401
H	 1.2741587702	-3.2607863907	 2.8705093079	 0.124683
H	 1.2000968869	-2.5187854526	 0.1848450359	 0.131429
H	-2.6948613684	-3.7624205235	 1.2574367312	 0.201574
47.761	78.1235	113.1689	160.4024	224.1513	239.3411	277.2467	416.4423	433.5959	536.1031	632.0118	638.7582	666.0377	682.2783	713.1821	834.5115	863.353	915.291	967.866	1016.467	1026.5939	1065.3929	1103.9179	1130.856	1153.7271	1191.4517	1195.2896	1231.3918	1265.3438	1316.2123	1340.7714	1396.9213	1437.2187	1486.9491	1491.9941	1498.7157	1520.0161	1805.5197	2236.8977	3016.952	3039.6841	3065.0692	3076.584	3090.956	3092.3049	3107.5764	3137.574	3504.0636
CN=C1OCCC1C#C	CN=C1OCC[C@H]1C#C	
InChI=1S/C7H9NO/c1-3-6-4-5-9-7(6)8-2/h1,6H,4-5H2,2H3	InChI=1S/C7H9NO/c1-3-6-4-5-9-7(6)8-2/h1,6H,4-5H2,2H3/t6-/m1/s1
