14
gdb 43422	3.14233	1.49902	1.01488	3.632	77.92	-0.2512	-0.1113	0.1399	1078.8145	0.103903	-432.919637	-432.912435	-432.91149	-432.951533	27.432	
N	-0.0374584815	 1.3389280391	-0.1769292429	-0.517527
C	 0.03642859	 0.079806299	 0.0520322973	 0.400487
N	-1.0978960752	-0.5856429312	 0.4707608772	-0.390622
C	-1.2062793747	-1.9314236268	 0.7628017263	 0.297518
N	-2.3160015094	-2.4254251679	 1.1418379027	-0.49804
C	 0.0592774206	-2.7630002915	 0.6057424605	 0.312718
O	 0.0341200007	-3.9523801258	 0.8461470182	-0.321283
C	 1.2703862741	-2.0592755805	 0.1604333414	-0.156353
C	 1.2479457585	-0.7429627214	-0.0929478469	-0.141559
H	 0.865294869	 1.7020423463	-0.4770706691	 0.228854
H	-1.9357133816	-0.0275612003	 0.5732933069	 0.271666
H	-2.1777413642	-3.4255472104	 1.3040354442	 0.245811
H	 2.1679171577	-2.6585981224	 0.0509939144	 0.137491
H	 2.1388590461	-0.2174037261	-0.4220727303	 0.130839
92.3369	131.3401	275.0672	345.1278	394.8179	443.0948	450.1689	522.6956	605.1244	639.2606	666.5927	692.3195	781.1923	803.8137	842.2093	875.5553	926.3224	938.4015	1020.4223	1104.8531	1157.946	1179.6364	1233.9947	1388.9996	1399.9559	1440.9712	1469.1994	1651.7614	1696.5862	1709.5483	1777.8029	3182.1052	3202.7349	3464.7494	3507.624	3593.863
N=C1NC(=N)C(=O)C=C1	[NH]C1=C[CH]C(=O)[C](N1)[NH]	
InChI=1S/C5H5N3O/c6-4-2-1-3(9)5(7)8-4/h1-2H,(H3,6,7,8)	InChI=1S/C5H5N3O/c6-4-2-1-3(9)5(7)8-4/h1-2H,(H3,6,7,8)
