16
gdb 123780	4.471	1.21054	1.02927	1.7766	79.27	-0.2316	-0.0674	0.1643	1145.9895	0.126407	-396.929923	-396.922743	-396.921799	-396.962095	27.114	
C	-0.1417809534	 1.4236094327	-0.1294204208	-0.256638
C	 1.2588189287	 0.9666140392	 0.1087852873	-0.256648
C	 0.137579313	-0.060080535	 0.0566357572	-0.073867
C	-0.2946523143	-0.741221768	 1.2919991544	 0.406359
N	-0.6944989282	-2.0220559566	 1.1835665769	-0.281721
C	-1.0737839239	-2.5904430958	 2.317843315	-0.008833
C	-1.0478084037	-1.8832983274	 3.5183085832	 0.00846
N	-0.6416797746	-0.6159763193	 3.5622908598	-0.164365
N	-0.260044336	-0.0364412472	 2.4350345618	-0.251198
H	-0.65093926	 1.9199411809	 0.6881752158	 0.140728
H	-0.4279709921	 1.7466536015	-1.123849716	 0.118423
H	 1.960353429	 0.9673258081	-0.7176527398	 0.118423
H	 1.686877869	 1.1571333644	 1.0857797277	 0.140702
H	 0.0792365968	-0.6950487511	-0.8184716998	 0.103797
H	-1.4044356374	-3.6261909854	 2.2751325353	 0.127855
H	-1.3528346431	-2.3252520808	 4.460872972	 0.128525
66.2285	135.0138	191.6308	291.6013	386.2119	407.8758	569.5531	592.4236	655.3351	781.2379	814.1061	823.7504	835.7881	878.942	926.0241	936.1619	1009.8815	1032.5765	1061.8129	1071.2908	1089.3833	1093.2346	1131.1811	1135.4392	1197.7417	1207.773	1218.7601	1272.3217	1387.9262	1407.7527	1455.985	1474.9519	1490.3593	1565.2606	1593.6079	3141.2973	3143.2884	3151.3781	3193.9039	3194.1568	3229.6508	3243.4705
C1CC1C1=NC=CN=N1	C1CC1c1nccnn1	
InChI=1S/C6H7N3/c1-2-5(1)6-7-3-4-8-9-6/h3-5H,1-2H2	InChI=1S/C6H7N3/c1-2-5(1)6-7-3-4-8-9-6/h3-5H,1-2H2
