23
gdb 81540	3.78383	1.2003	1.05283	0.104	90.39	-0.2758	0.0947	0.3705	1253.7965	0.206955	-351.095856	-351.087533	-351.086589	-351.128524	33.64	
C	-0.2337282427	 1.5665498545	 0.2075271059	-0.44584
C	 0.0398682183	 0.0797673482	 0.0309220187	 0.064821
C	 1.2696226799	-0.4471830453	-0.7817757884	-0.134459
C	 2.1771287831	-0.062185832	 0.4238110845	-0.24411
C	 0.9152875772	-0.7295653015	 1.0452229248	-0.125126
C	 1.0498582018	-1.8111238247	-0.0704270166	 0.450168
C	-0.0674444022	-2.8384705608	-0.3895450294	-0.318538
C	 0.9008905324	-3.9731928508	 0.0447577087	-0.219084
C	 2.0823865201	-2.9652047407	 0.0058820934	-0.320417
H	 0.6540514528	 2.1485877766	 0.466569681	 0.116495
H	-0.6475512768	 1.9896622622	-0.7148737681	 0.114448
H	-0.9751634956	 1.7266292925	 0.9986192329	 0.114112
H	-0.8951096632	-0.4271665015	-0.2296709124	 0.063367
H	 1.4765548147	-0.2909754572	-1.8436498685	 0.056741
H	 3.1167292873	-0.6101804344	 0.5206748916	 0.092823
H	 2.3338376753	 0.9991352782	 0.6186671711	 0.088886
H	 0.7104530298	-0.9015709272	 2.1049580893	 0.059942
H	-1.0058742357	-2.753167702	 0.164840585	 0.097075
H	-0.3045485822	-2.8772945849	-1.4579280711	 0.098055
H	 0.6934722634	-4.3280324019	 1.0577208277	 0.100775
H	 0.9710377829	-4.8407999673	-0.6149792062	 0.094983
H	 2.6763257028	-3.0531979483	-0.9098845698	 0.097911
H	 2.7666992467	-2.9744645218	 0.8584570659	 0.096971
81.212	177.7823	189.2431	201.8933	258.8734	363.8631	377.2169	428.8224	540.1165	616.3337	697.693	744.6569	774.8158	789.9728	816.1336	853.4096	869.5548	899.727	947.7023	960.3542	1012.3019	1016.4976	1023.4532	1041.2593	1046.7962	1053.6098	1099.1567	1131.5598	1145.2465	1147.2786	1164.3245	1179.2264	1204.5987	1211.0065	1230.0849	1250.3497	1254.5199	1265.8003	1276.8042	1279.4538	1323.3562	1407.2538	1423.7795	1471.9801	1480.7018	1496.1576	1497.2896	1504.2978	1532.9669	3030.1814	3040.3307	3044.1104	3048.638	3061.1428	3068.2529	3073.3214	3085.0918	3085.3675	3088.6712	3093.5737	3113.7765	3116.6126	3133.1485
CC1C2CC1C21CCC1	C[C@H]1[C@H]2C[C@@H]1C12CCC1	
InChI=1S/C9H14/c1-6-7-5-8(6)9(7)3-2-4-9/h6-8H,2-5H2,1H3	InChI=1S/C9H14/c1-6-7-5-8(6)9(7)3-2-4-9/h6-8H,2-5H2,1H3/t6-,7+,8-
