15
gdb 23094	2.25355	1.5105	0.97746	4.307	73.92	-0.2625	-0.0164	0.2461	1158.0621	0.112594	-416.788435	-416.780342	-416.779398	-416.8217	29.779	
O	-0.1486998731	 1.3278150287	 0.0237482916	-0.383291
N	-0.0078769483	-0.0623438622	-0.0099839049	-0.196313
C	-1.1383337666	-0.6383771622	-0.0156258087	 0.38777
C	-2.5203750283	-0.0232099242	 0.0230805441	-0.350298
C	-3.4160443376	-1.2344082336	 0.051295886	-0.075033
C	-2.7442771731	-2.3827409229	 0.0191994867	-0.064009
C	-1.2388155206	-2.1682288208	-0.0305897932	-0.277202
C	-0.6193718421	-2.7826660434	-1.210392186	 0.288101
N	-0.1500651988	-3.2859549346	-2.13854335	-0.326322
H	 0.7665109552	 1.6294754616	 0.011680735	 0.314718
H	-2.6363907882	 0.625383983	 0.9010920918	 0.143334
H	-2.6935269467	 0.6233304303	-0.8473603671	 0.148067
H	-4.4958019662	-1.1545186234	 0.0965211665	 0.115223
H	-3.1698661277	-3.3777260304	 0.0213644367	 0.124594
H	-0.742931418	-2.591470556	 0.8534170715	 0.150663
55.17	119.3435	169.2691	231.9481	304.7701	387.7049	404.0424	450.7661	490.4102	540.1638	590.182	698.7747	729.3268	805.304	829.4649	946.5634	962.0984	970.9801	989.3477	1013.8984	1032.3233	1134.2788	1157.8807	1202.0571	1231.7	1292.8556	1301.8908	1363.4564	1407.6753	1459.2473	1687.9976	1763.2276	2360.1288	3020.0282	3026.2779	3047.5299	3201.6948	3230.232	3812.8607
ON=C1CC=CC1C#N	ON=C1CC=C[C@H]1C#N	
InChI=1S/C6H6N2O/c7-4-5-2-1-3-6(5)8-9/h1-2,5,9H,3H2	InChI=1S/C6H6N2O/c7-4-5-2-1-3-6(5)8-9/h1-2,5,9H,3H2/t5-/m0/s1
