16
gdb 38806	3.30535	1.96207	1.68546	1.175	66.04	-0.2421	0.0056	0.2478	823.248	0.128604	-437.872165	-437.866431	-437.865487	-437.902005	24.305	
C	 0.0161522612	 1.5875790144	 0.1022515528	-0.249269
C	 1.5390679132	 1.797886808	 0.0056006866	 0.058223
O	 2.018688122	 0.8255040161	 0.9864425575	-0.293435
C	 1.573068917	-0.1601390964	 0.0247644582	 0.025918
C	 1.978278424	 0.7995981184	-1.115114427	 0.016517
N	 1.2914138814	 0.7266013682	-2.3843655577	-0.284353
C	 0.186186981	 0.103460621	-2.3750057991	 0.120558
O	-0.4773970496	-0.4015700274	-1.3083520034	-0.236551
C	 0.0362899	 0.0383244696	-0.0335554346	 0.089775
H	-0.3619823685	 1.9212787049	 1.0700754387	 0.118495
H	-0.5595624189	 2.0638665854	-0.6941761287	 0.122458
H	 1.9537106084	 2.7977916793	 0.1250513039	 0.088902
H	 1.9707956555	-1.1633501707	 0.1642140057	 0.090846
H	 3.0584659558	 0.8307833647	-1.2578696529	 0.100436
H	-0.3639018526	-0.0891119801	-3.2936571322	 0.13096
H	-0.5373262599	-0.5011487855	 0.717291652	 0.10052
248.1036	314.7704	376.3217	498.2789	505.5292	568.6282	583.5707	753.3045	797.5379	827.6311	847.34	867.5165	917.1958	938.5446	960.4768	972.6284	992.1225	1004.23	1022.3448	1049.7643	1088.1185	1146.0045	1168.6906	1175.8618	1198.1872	1216.7591	1262.9994	1294.5959	1309.2326	1326.0883	1342.7505	1372.054	1404.3859	1478.3393	1698.831	3080.5753	3117.3075	3131.4231	3136.2336	3139.4343	3148.8789	3168.2447
C1C2OC3C2N=COC13	C1[C@H]2O[C@@H]3[C@H]2N=CO[C@H]13	
InChI=1S/C6H7NO2/c1-3-5-6(9-3)4(1)8-2-7-5/h2-6H,1H2	InChI=1S/C6H7NO2/c1-3-5-6(9-3)4(1)8-2-7-5/h2-6H,1H2/t3-,4-,5+,6+/m1/s1
