20
gdb 117254	4.58375	0.76171	0.75261	4.5578	77.25	-0.244	0.0194	0.2634	1604.6571	0.170694	-440.296187	-440.286326	-440.285381	-440.335063	34.089	
C	-0.8464929096	 0.9653783967	-0.3027610729	-0.371638
C	 0.5970993602	 0.5542053233	-0.0028872385	-0.146572
N	 1.2249481614	-0.1690631872	-1.099181928	-0.32822
C	 1.3436988751	-1.527554119	-1.1119159775	 0.412796
O	 0.9805278488	-2.2371373615	-0.1876605051	-0.383262
C	 1.9752354853	-2.1164558474	-2.359625773	-0.158488
C	 3.0787115415	-3.1770619972	-2.119118482	-0.068363
O	 2.3726505284	-4.1648230031	-2.8931280548	-0.271349
C	 1.2197679684	-3.3096437247	-2.9982064014	-0.067795
H	-0.9026981813	 1.6140689332	-1.1836763237	 0.110405
H	-1.4656110551	 0.0829612791	-0.4868634867	 0.136989
H	-1.270808692	 1.5126379337	 0.5449563422	 0.121432
H	 1.2053644114	 1.4358600328	 0.2295520257	 0.10606
H	 0.6297513989	-0.1144410004	 0.8597787883	 0.150952
H	 1.4954921116	 0.3457644572	-1.9211311409	 0.243338
H	 2.2643244202	-1.3528648315	-3.0854756586	 0.068567
H	 4.0665220541	-2.952862855	-2.5367613357	 0.100612
H	 3.1706750242	-3.4686946762	-1.0668600578	 0.122988
H	 0.385319862	-3.6683848994	-2.3847977499	 0.121418
H	 0.8947866463	-3.1787216432	-4.0364514796	 0.100131
3.6465	31.8901	89.7606	95.5986	199.4821	241.0425	264.3988	326.2786	349.8262	459.6797	472.4724	640.2022	750.7888	756.5943	812.7312	883.6981	890.2289	900.2262	966.4162	1014.9362	1045.7531	1047.545	1084.9513	1106.0885	1133.4766	1171.551	1171.6142	1188.8491	1221.4441	1242.8274	1314.2531	1323.983	1369.8599	1385.0253	1401.3249	1411.9623	1476.3645	1493.3635	1499.4827	1501.2894	1524.8428	1543.6229	1769.3867	3020.6138	3030.2959	3035.9513	3041.0561	3066.0961	3077.1123	3087.7215	3099.1566	3118.1247	3128.9684	3642.0119
CCNC(=O)C1COC1	CCNC(=O)C1COC1	
InChI=1S/C6H11NO2/c1-2-7-6(8)5-3-9-4-5/h5H,2-4H2,1H3,(H,7,8)	InChI=1S/C6H11NO2/c1-2-7-6(8)5-3-9-4-5/h5H,2-4H2,1H3,(H,7,8)
