13
gdb 27616	3.52152	1.3056	0.95247	1.2313	77.46	-0.2556	-0.0538	0.2018	1133.9259	0.090521	-415.639896	-415.632746	-415.631802	-415.671558	27.291	
O	 0.1101621484	 1.3165994458	 0.0630376958	-0.409176
C	 0.0704969117	-0.0224558802	 0.0520850109	 0.422854
N	 0.076039583	-0.6306700998	-1.1266758175	-0.374539
C	 0.035671448	-1.9736003296	-1.1083110725	 0.178517
N	-0.0092444611	-2.7487116057	-0.0200554503	-0.295023
C	-0.0134338725	-2.1001151111	 1.1512817611	 0.004652
C	 0.0253733433	-0.7222250331	 1.2622497352	-0.198615
C	 0.0416008256	-2.6328823216	-2.3810997923	 0.259099
C	 0.0466085515	-3.184850015	-3.4490217365	-0.341538
H	 0.1371054483	 1.5966706723	-0.8638850807	 0.30541
H	-0.0498503028	-2.7230708241	 2.041643393	 0.123338
H	 0.0216324442	-0.2070370713	 2.2133214779	 0.124609
H	 0.0508933625	-3.6757894668	-4.390974874	 0.200411
130.611	150.4863	212.9086	349.3122	400.273	474.694	515.8108	557.63	574.3017	578.0036	650.5761	652.0018	723.6494	760.5468	823.177	861.1152	988.2183	1000.1172	1008.9198	1103.1425	1203.8106	1282.7279	1307.4843	1381.6543	1432.1031	1481.2176	1610.8343	1633.4748	2241.269	3164.2069	3226.2644	3501.5667	3751.837
OC1=NC(=NC=C1)C#C	Oc1nc(ncc1)C#C	
InChI=1S/C6H4N2O/c1-2-5-7-4-3-6(9)8-5/h1,3-4H,(H,7,8,9)	InChI=1S/C6H4N2O/c1-2-5-7-4-3-6(9)8-5/h1,3-4H,(H,7,8,9)
