25
gdb 121122	4.23982	0.73549	0.68251	0.8478	90.11	-0.2499	0.0805	0.3304	1783.0966	0.229118	-389.504767	-389.494468	-389.493524	-389.541089	37.825	
C	 0.1823977001	 1.3950086313	-0.0036068785	-0.225944
O	 0.045603568	-0.0040685242	 0.0114498072	-0.231553
C	 0.6861720286	-0.6099116528	 1.1141245944	-0.064501
C	 0.5053714146	-2.1198495982	 1.0278355934	 0.015537
C	 1.2195767597	-2.7513375905	-0.206368614	-0.221214
C	 2.347958253	-3.6246547858	 0.3711804664	-0.20138
C	 1.789052133	-4.1091249893	 1.7200609433	 0.055519
C	 2.8185674874	-4.727083531	 2.6632827888	-0.405797
C	 1.1032292337	-2.8412317087	 2.2643753922	-0.235356
H	 1.2388473987	 1.7038879163	-0.0602458237	 0.100717
H	-0.3411041236	 1.7679769443	-0.8876165679	 0.124669
H	-0.2594477663	 1.860149923	 0.8925048848	 0.100922
H	 1.7625599649	-0.3571577878	 1.1165323315	 0.077682
H	 0.2645484085	-0.2254378146	 2.0597741443	 0.080951
H	-0.5712189807	-2.3079648804	 0.9645145617	 0.075877
H	 0.5148873793	-3.3749190794	-0.7660308549	 0.095575
H	 1.5767056976	-1.9864666088	-0.9008361368	 0.102288
H	 2.6404748477	-4.4439903832	-0.2929828096	 0.088634
H	 3.2481398299	-3.0211612939	 0.5522143335	 0.088711
H	 1.0096034455	-4.8569917558	 1.5123852645	 0.068173
H	 3.6190779307	-4.0124698356	 2.889749041	 0.109567
H	 2.3633334486	-5.0273949618	 3.6133527879	 0.109776
H	 3.2819486288	-5.6163458012	 2.2224943731	 0.110342
H	 1.8636364155	-2.2034783696	 2.7380667993	 0.08793
H	 0.3533050968	-3.0578642121	 3.0311807482	 0.092876
26.0194	87.0762	108.7954	141.8984	199.3307	234.5137	237.0083	281.3021	323.2278	389.6786	427.9135	454.5822	548.777	634.1222	789.5686	834.2963	864.4525	905.8818	919.0122	941.789	985.6768	992.2196	999.1624	1045.8126	1073.2016	1081.4044	1132.4676	1157.1586	1169.0805	1180.9271	1202.5051	1225.4179	1232.5878	1248.0592	1269.2556	1284.0162	1308.4892	1330.2866	1340.9967	1352.347	1364.2599	1389.9882	1409.4627	1420.1323	1480.3262	1485.6256	1486.2257	1493.5595	1497.0867	1500.2706	1501.2689	1509.4564	1526.033	2931.0184	2960.8024	2966.2552	2991.3176	3004.9137	3006.5173	3017.293	3023.8248	3042.2226	3055.6656	3076.3203	3080.0727	3089.1205	3093.1385	3098.8506	3109.9759
COCC1CCC(C)C1	COC[C@H]1CC[C@@H](C)C1	
InChI=1S/C8H16O/c1-7-3-4-8(5-7)6-9-2/h7-8H,3-6H2,1-2H3	InChI=1S/C8H16O/c1-7-3-4-8(5-7)6-9-2/h7-8H,3-6H2,1-2H3/t7-,8+/m1/s1
