22
gdb 88465	2.77403	1.18808	1.13868	0.7732	82.09	-0.2415	0.0696	0.3111	1237.4678	0.193369	-404.310467	-404.300824	-404.29988	-404.345085	36.528	
C	 1.4115248061	 0.8326078978	-0.6732005964	-0.401075
C	 0.2071166126	 0.1423954268	-0.0801733441	 0.013914
N	 0.4073283023	-1.1513394331	 0.6025914913	-0.349765
C	-0.0650601687	 0.0077445767	 1.3747589652	-0.060807
C	 0.8129725477	 0.5392707481	 2.4840671619	 0.415252
O	 0.5555564725	 1.9391633724	 2.5249232563	-0.487778
C	 0.6477098668	-0.160191246	 3.8715182189	-0.270116
C	 2.1907119433	-0.1408681002	 4.0478483128	-0.245295
C	 2.328632904	 0.1718023667	 2.5322829442	-0.262896
H	 2.3057900983	 0.6696417069	-0.0709201136	 0.13246
H	 1.6114902984	 0.45507815	-1.6820384523	 0.111276
H	 1.2351913074	 1.9109218346	-0.741068922	 0.124406
H	-0.6878640618	 0.2219426316	-0.6974807767	 0.078926
H	-0.3590588523	-1.7881675885	 0.4054406258	 0.228939
H	-1.1189055138	 0.0260174244	 1.6545090986	 0.079154
H	 1.0143632192	 2.3080529022	 3.2869685592	 0.277109
H	 0.0366566564	 0.3797406856	 4.6006590312	 0.093415
H	 0.2566337446	-1.1762243379	 3.7675370876	 0.105946
H	 2.5345120177	 0.6786067105	 4.6864657316	 0.092742
H	 2.6565496783	-1.0615506814	 4.4047037687	 0.102283
H	 2.5383306914	-0.7200931435	 1.9395098766	 0.12945
H	 3.0119164993	 0.9738836664	 2.2404792155	 0.092459
52.9815	97.9676	130.2231	176.9466	228.6525	253.5886	273.1006	358.4356	388.9323	414.9561	485.6098	525.3935	656.0633	715.2412	772.1144	792.6173	845.7075	869.6272	917.6275	941.6667	945.1143	965.8379	1002.4672	1004.2062	1030.0986	1059.2398	1076.9539	1106.6436	1156.5326	1176.2082	1190.6018	1217.5706	1247.8133	1251.6688	1262.4675	1270.268	1272.617	1282.5089	1378.3298	1409.7148	1438.4676	1464.5396	1472.6191	1481.237	1492.4033	1501.8119	1505.0185	3039.8675	3049.7888	3053.6653	3064.1423	3092.7865	3098.8091	3099.0714	3104.6721	3113.7284	3133.9191	3150.2048	3509.5373	3808.4379
CC1NC1C1(O)CCC1	C[C@H]1N[C@H]1C1(O)CCC1	
InChI=1S/C7H13NO/c1-5-6(8-5)7(9)3-2-4-7/h5-6,8-9H,2-4H2,1H3	InChI=1S/C7H13NO/c1-5-6(8-5)7(9)3-2-4-7/h5-6,8-9H,2-4H2,1H3/t5-,6-/m1/s1
