16
gdb 131826	5.42318	0.78392	0.72904	1.7887	67.94	-0.2283	-0.0039	0.2244	1498.0129	0.124889	-471.192319	-471.18372	-471.182776	-471.226673	30.75	
O	 0.1297539904	 1.3551616624	 0.2483073655	-0.404105
C	 0.0167158022	-0.0504148876	 0.3384652883	-0.070382
C	-1.3462039099	-0.5304051549	-0.1870240671	-0.180842
N	-1.5041124816	-1.968362445	-0.0726207566	 0.088112
C	-1.8928836209	-2.7004355024	 1.0089876954	-0.199843
C	-1.7764025407	-3.9989478797	 0.5675146113	 0.369514
O	-2.0474897682	-5.1313982762	 1.2418731033	-0.426063
N	-1.3351151972	-4.0016889549	-0.7102226248	-0.283019
N	-1.1657508981	-2.7593415872	-1.0976993332	-0.157393
H	 0.2651210359	 1.5887123657	-0.675588628	 0.292137
H	 0.8176395611	-0.5742865597	-0.2012274783	 0.119829
H	 0.1128561383	-0.3026525482	 1.3993810314	 0.123972
H	-2.1515511075	-0.0355700601	 0.3619809064	 0.135504
H	-1.4495654193	-0.2881058296	-1.2478383417	 0.136651
H	-2.2110237371	-2.2629459828	 1.9382888658	 0.147726
H	-1.8643503374	-5.8624765697	 0.6379105723	 0.308201
48.0716	87.2425	88.5627	272.7317	293.4933	314.9958	344.7503	388.5856	414.9063	458.7195	661.6897	694.3639	709.1779	753.9795	787.1012	816.6032	1028.0273	1049.6269	1051.3847	1058.4533	1091.1555	1142.9094	1169.3948	1214.7541	1278.7925	1296.2552	1338.743	1373.6577	1402.2191	1414.535	1417.9653	1478.1757	1509.3077	1510.4334	1654.0455	3015.857	3069.997	3083.0845	3127.8215	3296.6694	3792.4778	3819.4357
OCCN1C=C(O)N=N1	OCCn1cc(O)nn1	
InChI=1S/C4H7N3O2/c8-2-1-7-3-4(9)5-6-7/h3,8-9H,1-2H2	InChI=1S/C4H7N3O2/c8-2-1-7-3-4(9)5-6-7/h3,8-9H,1-2H2
