20
gdb 110679	2.87989	1.4347	1.33953	2.9256	76.81	-0.2322	0.0737	0.306	1056.9118	0.173833	-403.103547	-403.095975	-403.095031	-403.135613	30.381	
O	 0.0550562056	 1.4946528781	 0.6121386857	-0.426146
C	 0.1563987792	 0.2185517932	 0.0006830858	-0.087837
C	-1.1781813674	-0.5048215313	 0.1047828072	 0.06159
C	-1.425345802	-1.9968890527	-0.2353106782	-0.100326
C	-0.2030435655	-2.8761183015	 0.0713289882	-0.214222
C	 0.0623835093	-2.6400222078	 1.5840858133	-0.246029
C	-1.2141629756	-1.9743779658	 2.08237918	-0.006297
C	-2.2759754104	-2.0122392515	 1.0630777226	-0.054156
N	-1.7131544279	-0.6817162754	 1.5094614548	-0.19066
H	-0.4172192745	 1.3603617787	 1.4433433473	 0.294356
H	 0.4099178154	 0.3894203501	-1.0524963364	 0.105014
H	 0.9759298008	-0.3649932548	 0.4425938229	 0.085139
H	-1.9241385583	 0.1186537113	-0.4002912215	 0.092362
H	-1.9080364377	-2.2050178971	-1.1901374919	 0.070901
H	-0.4451718708	-3.9276378952	-0.1164756634	 0.102105
H	 0.6577980221	-2.6241419792	-0.5556116705	 0.103948
H	 0.2133107193	-3.5824223854	 2.1208566392	 0.105422
H	 0.9500535264	-2.0294440453	 1.7721902396	 0.113696
H	-1.4681953272	-2.0441714559	 3.1350208464	 0.096157
H	-3.3162648808	-2.2854718924	 1.194817449	 0.094984
84.4161	163.0297	229.7663	251.036	346.2679	402.614	475.2924	544.429	599.26	666.1315	752.4182	777.243	824.3057	843.3241	848.1111	892.9345	905.3578	928.3589	985.4374	1042.1357	1042.7852	1053.2604	1058.8829	1061.857	1084.1843	1147.9233	1159.078	1195.5922	1220.8536	1227.7175	1251.8595	1270.0949	1280.3778	1303.4807	1319.2211	1345.6976	1349.2159	1393.9819	1410.219	1442.98	1485.1899	1504.0352	1517.9249	3006.9857	3041.0023	3041.9894	3053.0167	3060.3433	3077.8219	3095.6619	3111.9178	3166.0957	3183.2209	3777.4252
OCC1C2CCC3C2N13	OC[C@H]1[C@H]2CC[C@@H]3[C@H]2N13	
InChI=1S/C7H11NO/c9-3-6-4-1-2-5-7(4)8(5)6/h4-7,9H,1-3H2	InChI=1S/C7H11NO/c9-3-6-4-1-2-5-7(4)8(5)6/h4-7,9H,1-3H2/t4-,5-,6+,7+,8?/m1/s1
