17
gdb 41017	3.12431	2.01376	1.49077	3.2812	72.02	-0.2235	0.0558	0.2793	881.4032	0.139032	-417.869754	-417.863641	-417.862696	-417.899895	26.191	
C	-0.0061302898	 1.4776359723	 0.2628558128	-0.153282
O	 1.4206879744	 1.5269675674	-0.1087985065	-0.357266
C	 1.20031563	 0.3433465749	-0.8683187342	 0.544443
C	-0.0046395498	-0.04681408	-0.0760296975	-0.04845
N	-0.7432222449	-0.853401077	-1.0542656185	-0.35309
C	 0.3351010934	-1.0554567632	-2.034375888	-0.012267
C	 0.8528546898	 0.3378698423	-2.4068490369	-0.097654
N	 2.2505038053	-0.1364541668	-2.7119674168	-0.329977
C	 1.8830833572	-0.8936787565	-1.4740785313	-0.193481
H	-0.1519212262	 1.7706329533	 1.3048140586	 0.113238
H	-0.6097928979	 2.0970509985	-0.4093653184	 0.115122
H	 0.2497686978	-0.6071154611	 0.8305584694	 0.08918
H	-1.0911563331	-1.7176416106	-0.6548401664	 0.223434
H	 0.1560123291	-1.8010032371	-2.8098906998	 0.086173
H	 0.3441252173	 1.1033622898	-2.9922857496	 0.086324
H	 2.2252601629	-0.7613548281	-3.5243617478	 0.205541
H	 2.5406255444	-1.6283399484	-1.006997339	 0.08201
205.0167	321.0042	351.9618	402.915	482.8016	561.2174	604.0968	666.8539	706.8002	757.3594	784.6877	850.5745	878.5131	902.7467	910.8095	939.7882	970.7967	991.0061	1035.5919	1056.9334	1086.7671	1107.3258	1113.808	1127.4239	1140.5907	1144.8336	1169.347	1210.7171	1226.913	1261.0905	1288.4895	1301.5345	1329.6115	1341.828	1390.2658	1431.0418	1504.5315	3038.3443	3042.9784	3106.5549	3117.7564	3120.2235	3129.514	3377.2101	3537.6556
C1OC23C1NC1C2NC31	C1O[C@@]23[C@@H]1N[C@H]1[C@@H]2N[C@@H]31	
InChI=1S/C6H8N2O/c1-2-6(9-1)4-3(7-2)5(6)8-4/h2-5,7-8H,1H2	InChI=1S/C6H8N2O/c1-2-6(9-1)4-3(7-2)5(6)8-4/h2-5,7-8H,1H2/t2-,3-,4-,5+,6-/m1/s1
