15
gdb 11869	5.12685	1.60813	1.35629	4.5764	70.16	-0.2322	-0.0272	0.2051	895.4435	0.119792	-362.695793	-362.688831	-362.687887	-362.727337	26.548	
O	-0.0355775483	-0.0466451263	 0.0031499637	-0.388486
C	 0.0050710077	 1.1661262943	 0.0094199731	 0.382351
N	-1.0835472401	 2.0208384995	 0.0289762194	-0.404137
C	-0.7013838058	 3.3959595707	 0.0313989849	 0.368684
C	-1.49524411	 4.4589693803	-0.7049495029	-0.313832
C	-1.4748729783	 4.4506473733	 0.8006643762	-0.313824
C	 0.7773730155	 3.3453434323	 0.0111311361	-0.119341
C	 1.1907635834	 2.0732401723	-0.001524788	-0.216325
H	-2.0302024728	 1.6820980531	 0.0396410295	 0.251586
H	-0.9443854125	 5.2304269244	-1.231555299	 0.12886
H	-2.3997079903	 4.1319840967	-1.2061900046	 0.127502
H	-2.3654900279	 4.118000872	 1.322547433	 0.127506
H	-0.9098484708	 5.216320541	 1.3206618598	 0.128858
H	 1.3840169108	 4.2418248773	 0.0079344835	 0.118779
H	 2.2029450294	 1.696699229	-0.0172902948	 0.121819
46.8853	189.6714	266.7673	326.1508	378.5014	483.6785	518.7908	544.3364	691.9415	720.0635	767.1664	819.0669	875.7075	884.4226	923.8892	926.8841	955.1756	960.1669	1003.8663	1058.5685	1071.0839	1093.2162	1192.0054	1217.8132	1262.384	1338.7906	1355.3358	1439.8051	1462.4523	1495.1817	1634.1305	1818.5243	3133.8834	3136.7255	3214.5547	3216.0198	3231.3075	3254.3402	3673.5308
O=C1NC2(CC2)C=C1	O=C1NC2(CC2)C=C1	
InChI=1S/C6H7NO/c8-5-1-2-6(7-5)3-4-6/h1-2H,3-4H2,(H,7,8)	InChI=1S/C6H7NO/c8-5-1-2-6(7-5)3-4-6/h1-2H,3-4H2,(H,7,8)
