23
gdb 93780	3.09096	1.13044	0.87667	0.7215	97.96	-0.2026	-0.0162	0.1864	1412.8154	0.206858	-351.183904	-351.174595	-351.173651	-351.218454	35.977	
C	 0.1726336888	 1.6214879041	 0.0075426962	-0.396855
C	-0.0199963014	 0.0922900105	-0.0142726647	-0.026905
C	 0.5295057778	-0.4901484293	-1.3236701582	-0.195914
C	 0.293052452	-1.9936443818	-1.5404439857	-0.30792
C	 1.2150811303	-2.9202889862	-0.780764522	 0.28165
C	 1.676647194	-4.1345368578	-1.5414839413	-0.473328
C	 1.6078450066	-2.7145597224	 0.4878478049	-0.144099
C	 1.2426409346	-1.6503227495	 1.4177560841	-0.080062
C	 0.5561632088	-0.5106851068	 1.2409640026	-0.065446
H	 1.236751289	 1.8811354555	-0.0182876018	 0.11882
H	-0.3117684273	 2.0908369235	-0.8546916884	 0.109039
H	-0.2555178715	 2.0607946626	 0.9142738686	 0.111285
H	-1.1075281524	-0.0877837928	 0.0020881641	 0.08225
H	 0.0609259613	 0.054913352	-2.1518322638	 0.089678
H	 1.6049170038	-0.2832736282	-1.3871344621	 0.101321
H	-0.7508738752	-2.240265062	-1.2953981793	 0.110824
H	 0.3954279654	-2.2098281628	-2.6106482981	 0.095052
H	 2.2508189181	-3.8487732516	-2.4333740345	 0.121929
H	 2.3012242135	-4.790055833	-0.9291136743	 0.118535
H	 0.8210199859	-4.7201241928	-1.9047134563	 0.12238
H	 2.266011311	-3.4660525288	 0.9204444697	 0.071051
H	 1.5777662754	-1.8415464733	 2.4360519807	 0.07839
H	 0.3926794416	 0.094571311	 2.1320016495	 0.078328
22.7115	160.2059	198.7413	222.6444	243.7921	292.021	307.1457	330.9729	361.3043	441.3143	475.0009	563.5289	604.042	690.6703	747.726	795.7959	846.6032	890.9879	907.1928	942.0303	949.8038	990.0692	1010.8072	1043.5291	1043.7666	1067.8816	1087.3044	1107.7337	1156.4645	1182.6109	1217.0356	1273.3534	1296.6195	1318.7474	1354.1063	1365.6405	1386.3766	1404.723	1411.1841	1415.7532	1451.9331	1471.0319	1480.0984	1486.1344	1491.1255	1498.025	1502.059	1688.7751	1715.6031	2962.7318	2999.2903	3006.5991	3021.492	3029.8877	3047.2767	3049.0501	3063.5649	3099.243	3102.2651	3110.3875	3116.0641	3131.5538	3147.976
CC1CCC(C)=CC=C1	C[C@H]1CCC(=CC=C1)C	
InChI=1S/C9H14/c1-8-4-3-5-9(2)7-6-8/h3-5,8H,6-7H2,1-2H3	InChI=1S/C9H14/c1-8-4-3-5-9(2)7-6-8/h3-5,8H,6-7H2,1-2H3/t8-/m1/s1
