15
gdb 130121	3.2938	1.47336	1.01904	5.1929	77.72	-0.1636	-0.0263	0.1374	1094.1222	0.115868	-446.319693	-446.311856	-446.310912	-446.351655	30.779	
N	 0.0603271636	 1.2735338244	-0.0600712797	-0.527026
C	-0.0329211488	-0.0487595066	-0.0204619718	 0.410049
N	-1.2069813205	-0.6539943335	 0.0247554433	-0.403495
C	-1.1587256863	-1.9936834877	 0.0707466105	 0.466837
N	-2.3518542066	-2.6814275634	 0.1866842566	-0.575252
N	-0.0112535124	-2.6519658729	 0.068872699	-0.244131
H	-0.0031981773	-3.6585366878	 0.1454231853	 0.269999
N	 1.2523063056	-2.1130160351	 0.0020432161	-0.384773
C	 1.277034439	-0.7628496501	-0.0432883391	 0.3309
N	 2.3222293082	 0.0107273714	-0.1075487133	-0.62332
H	 1.0146532182	 1.6214013144	-0.1024771585	 0.287942
H	-0.7560448727	 1.8601210843	-0.049208655	 0.264202
H	-3.1421589766	-2.0948396752	-0.0398994834	 0.26968
H	-2.3967429029	-3.5885759379	-0.2544015324	 0.257197
H	 3.1742902695	-0.5475469942	-0.1207018477	 0.20119
104.9214	204.6677	266.6367	325.1413	342.8873	369.4189	373.3154	496.4249	508.9733	526.299	581.4466	602.8186	644.0866	701.5507	721.5844	724.8556	789.5376	819.7496	831.8766	994.4748	1036.3357	1118.3276	1188.6825	1226.6521	1319.0611	1425.8371	1452.2526	1520.8573	1550.0757	1615.9122	1629.4008	1646.0598	1667.7468	3483.8534	3495.1486	3567.0482	3605.5766	3673.7025	3706.9938
NC1=NC(N)=[NH+][N-]C1=N	NC1=N[C@H](N)NN=C1[NH]	
InChI=1S/C3H6N6/c4-1-2(5)8-9-3(6)7-1/h(H6-,4,5,6,7,8,9)	InChI=1S/C3H7N6/c4-1-2(5)8-9-3(6)7-1/h3,5,9H,6H2,(H2,4,7)/t3-/m0/s1
