16
gdb 127086	2.66179	1.55231	0.99842	4.0996	71.5	-0.196	-0.0158	0.1802	1137.6194	0.122502	-471.16713	-471.157938	-471.156993	-471.201379	32.279	
C	-0.1024751352	 1.5875406645	 0.2254679245	-0.340945
N	-0.1013643863	 0.1324773536	 0.2051878069	-0.175673
C	 0.9410901324	-0.5201997807	 0.9857004206	-0.35612
C	-1.2826149301	-0.5179838507	 0.0143091797	 0.450945
C	-1.6569043986	-1.8487288577	 0.0342657548	 0.199729
O	-0.8920647503	-2.9412366381	 0.2974840861	-0.445725
N	-2.9636921585	-1.910920676	-0.2883003058	-0.188295
N	-3.4517531689	-0.7606016188	-0.508376037	-0.064302
O	-2.3687886821	 0.1844869246	-0.3118964093	-0.236997
H	 0.9146543851	 1.9386026711	 0.031392244	 0.13049
H	-0.763042688	 1.9709608143	-0.5523570613	 0.160168
H	-0.4320850846	 1.993467517	 1.1937885143	 0.126536
H	 0.8345826857	-0.3192995242	 2.0625995775	 0.122389
H	 0.909277172	-1.5976889157	 0.8286245435	 0.176064
H	 1.9160021312	-0.1451734853	 0.660577577	 0.131881
H	-1.4781963337	-3.7069636677	 0.2853766946	 0.309854
55.8758	124.2681	166.0946	189.3815	206.0766	218.3991	282.7665	340.8672	365.9	381.1509	521.4672	610.6297	658.8648	660.3333	712.1293	747.121	964.2641	999.8204	1090.7635	1128.5062	1148.6821	1174.4109	1214.669	1253.5696	1312.6744	1376.0328	1431.1122	1454.1164	1457.9912	1484.8858	1492.5841	1502.1723	1506.6169	1546.3014	1706.046	2990.4467	2995.7817	3082.5471	3088.6072	3150.6204	3163.9098	3813.9082
CN(C)C1=C(O)N=NO1	CN(C)c1c(O)nno1	
InChI=1S/C4H7N3O2/c1-7(2)4-3(8)5-6-9-4/h8H,1-2H3	InChI=1S/C4H7N3O2/c1-7(2)4-3(8)5-6-9-4/h8H,1-2H3
