23
gdb 59558	3.17204	1.20179	1.04161	1.5468	84.76	-0.242	0.0854	0.3273	1271.0992	0.206814	-388.278992	-388.270295	-388.269351	-388.312225	34.46	
C	-0.0510191415	 1.5129494007	 0.0314210558	-0.393102
C	 0.046741167	-0.0184221988	-0.0342770884	 0.023815
C	 0.7772500925	-0.4408839963	-1.3179108839	-0.3996
C	 0.720691431	-0.5867457996	 1.2254385388	 0.05202
C	-0.0671079678	-0.33834535	 2.560539001	-0.252661
C	-0.2449741749	-1.8117778801	 2.9746668984	 0.08176
C	 1.1573957129	-2.4239642164	 2.7727715911	-0.235585
C	 0.7280147108	-2.1354942972	 1.3188071182	 0.055912
O	-0.6511135549	-2.4331134737	 1.7122901061	-0.299349
H	 0.9476694914	 1.9663116027	 0.0583262891	 0.107725
H	-0.5693442943	 1.9097001123	-0.847744709	 0.109505
H	-0.5930435016	 1.8537364251	 0.9185448397	 0.112771
H	-0.9702655057	-0.4312627691	-0.0649394631	 0.08585
H	 1.8169825733	-0.0908793224	-1.3115502004	 0.10786
H	 0.7907596029	-1.5265623043	-1.4498336692	 0.11401
H	 0.2912750535	-0.0101870333	-2.1995468532	 0.110604
H	 1.7446582992	-0.1967840877	 1.2877458543	 0.061995
H	 0.4859494079	 0.2516484668	 3.2962483089	 0.095568
H	-1.0352978821	 0.1380517012	 2.3891571136	 0.107526
H	-0.893622324	-2.0516517324	 3.8173088006	 0.076421
H	 2.0308621476	-1.9124383861	 3.1864782709	 0.091023
H	 1.1747501081	-3.4924992304	 2.9891821659	 0.108718
H	 1.0809903889	-2.7184640611	 0.4691379848	 0.077214
72.5657	134.8713	189.4995	223.7371	243.4992	321.4632	374.1912	397.5945	448.009	457.8028	583.074	715.5694	795.9997	836.7148	845.9632	868.646	876.2636	896.9717	930.8978	942.7284	961.8593	967.3733	979.7504	1012.8433	1038.9668	1061.896	1089.6176	1124.5214	1136.5446	1184.8378	1202.5333	1212.4358	1227.5498	1246.2428	1266.498	1289.7906	1292.1862	1322.8403	1337.9947	1361.4173	1390.5463	1400.5374	1421.7343	1480.7652	1486.844	1493.1599	1495.7774	1506.1918	1510.9812	3016.8544	3023.0926	3025.0536	3034.4335	3060.9453	3064.8963	3086.2351	3093.183	3103.2998	3106.2272	3112.8296	3120.4637	3130.2303	3142.7891
CC(C)C1CC2CC1O2	CC(C)[C@H]1C[C@@H]2C[C@H]1O2	
InChI=1S/C8H14O/c1-5(2)7-3-6-4-8(7)9-6/h5-8H,3-4H2,1-2H3	InChI=1S/C8H14O/c1-5(2)7-3-6-4-8(7)9-6/h5-8H,3-4H2,1-2H3/t6-,7-,8-/m1/s1
