21
gdb 37406	3.40183	1.75494	1.65987	0.1973	83.95	-0.2505	0.088	0.3385	925.0487	0.187954	-349.925833	-349.919798	-349.918854	-349.955728	27.666	
C	-0.0084961896	 1.5405912836	 0.1314717819	-0.307153
C	 1.3108091888	 0.8230314429	 0.0481815437	-0.048621
C	 0.0146067652	 0.0294186017	 0.0352879904	-0.038753
C	 0.0049928507	-0.6762261446	-1.3422659156	-0.034818
C	-0.1906292545	 0.3532497037	-2.4892612983	-0.224383
C	 1.3005895941	 0.7135557236	-2.6975840207	-0.047534
C	 1.8335613154	-0.6981702684	-3.0813605322	-0.238129
C	 1.5249125678	-1.0029065256	-1.5984758126	-0.016243
C	 1.9658027478	 0.4566686183	-1.2780524793	-0.005358
H	-0.2670649085	 1.9474993447	 1.1048747848	 0.103581
H	-0.3470215631	 2.1583057998	-0.6897652784	 0.112597
H	 1.959990639	 0.8419600581	 0.9180905671	 0.077833
H	-0.313436225	-0.5371605633	 0.9003335177	 0.07801
H	-0.6792103397	-1.5252686634	-1.3784512517	 0.054866
H	-0.5968868131	-0.1136424683	-3.3921369563	 0.087987
H	-0.8512807092	 1.1794023946	-2.2321646444	 0.094999
H	 1.5345669888	 1.5980521454	-3.2912728023	 0.056953
H	 1.3018871929	-1.2411752401	-3.8683396945	 0.0847
H	 2.908556268	-0.715915455	-3.2792280934	 0.09175
H	 1.9420988103	-1.8596634467	-1.0663836848	 0.054929
H	 3.0424656239	 0.6319032192	-1.3098808011	 0.062787
212.8499	348.6945	425.0141	492.2215	525.5418	582.864	651.2173	725.7433	743.3502	785.1443	817.3668	832.9321	852.7346	867.7559	894.5448	918.6721	935.3084	941.1333	968.3209	972.695	1016.7166	1029.1388	1047.0383	1069.8871	1075.8273	1083.8571	1096.9992	1105.8639	1108.2708	1156.9834	1184.5666	1192.9026	1201.5279	1224.2817	1248.8255	1263.4959	1290.5146	1303.8212	1314.2666	1336.943	1346.6069	1383.2253	1479.3176	1506.1681	1539.3805	3048.0067	3053.8441	3091.709	3094.8375	3101.7398	3104.9877	3110.7954	3128.3543	3136.2686	3149.0023	3162.2138	3220.0699
C1C2C1C1CC3CC1C23	C1[C@H]2[C@@H]1[C@H]1C[C@@H]3C[C@H]1[C@H]23	
InChI=1S/C9H12/c1-4-2-7-5(1)6-3-8(6)9(4)7/h4-9H,1-3H2	InChI=1S/C9H12/c1-4-2-7-5(1)6-3-8(6)9(4)7/h4-9H,1-3H2/t4-,5-,6+,7-,8+,9-/m1/s1
