20
gdb 38177	3.0298	1.58376	1.23616	1.2139	86.76	-0.2114	0.0056	0.217	1055.4483	0.17316	-365.941571	-365.933968	-365.933024	-365.973104	31.387	
C	-0.0180348281	 1.4547059941	 0.0116169671	-0.241579
C	 1.5795484822	 1.6720554849	 0.0017621106	-0.24158
C	 2.2078717824	 0.2985550745	 0.0628372049	-0.060988
C	 2.4391244639	-0.4755003391	-1.0041679545	-0.066505
C	 2.0334843982	-1.9020732769	-1.0382501881	-0.057304
N	 1.3275644385	-2.45040684	 0.12594187	-0.333367
C	 0.4867670471	-2.1125028252	-1.0287078996	-0.057304
C	-0.2847856543	-0.8460854224	-0.9873625386	-0.066504
C	-0.2558147193	-0.0366267434	 0.0780372366	-0.060989
H	-0.4560365995	 1.9902077142	 0.8592273174	 0.101119
H	-0.4382591106	 1.8793921627	-0.90552757	 0.1033
H	 1.8599073876	 2.1920576953	-0.9197026993	 0.1033
H	 1.86881004	 2.3064983332	 0.8448878712	 0.101119
H	 2.1293710627	-0.2073162211	 1.021052197	 0.108077
H	 2.5192766723	-0.0181738267	-1.9920597291	 0.076427
H	 2.5792703591	-2.5963338214	-1.6738006259	 0.086668
H	 1.4645421617	-3.4549333777	 0.1766660115	 0.234936
H	 0.1386259756	-2.9283811027	-1.6587433815	 0.086668
H	-0.4961552143	-0.4284194052	-1.9734559804	 0.076427
H	-0.0334271651	-0.5015612673	 1.0343969406	 0.108077
136.0373	222.7745	225.4206	308.3636	330.7755	372.2859	441.0508	487.5274	544.9503	640.7631	646.0714	745.076	787.6528	828.4705	832.6478	856.8324	861.3095	871.7867	948.1428	966.2092	999.3509	1025.5517	1047.6889	1067.2653	1082.5285	1118.6453	1137.2887	1175.5374	1190.7275	1195.0705	1228.2242	1249.1854	1307.6967	1329.6793	1334.4561	1342.9648	1360.7113	1393.4269	1425.4916	1475.3219	1494.5264	1690.3271	1692.9383	3037.7551	3049.3355	3079.3859	3101.8375	3102.6984	3107.2281	3122.6666	3132.6897	3155.9222	3173.3038	3527.0299
C1CC=CC2NC2C=C1	C1C[CH][CH][C@H]2N[C@H]2[CH][CH]1	
InChI=1S/C8H11N/c1-2-4-6-8-7(9-8)5-3-1/h3-9H,1-2H2/b5-3-,6-4-	InChI=1S/C8H11N/c1-2-4-6-8-7(9-8)5-3-1/h3-9H,1-2H2/t7-,8+
