17
gdb 41173	3.26808	1.97519	1.64277	1.6878	71.24	-0.2452	-0.0028	0.2424	856.6082	0.138082	-421.791725	-421.785554	-421.78461	-421.821799	26.66	
C	-0.0609183449	 1.5114729991	-0.103330658	-0.265252
C	 1.4931135421	 1.5501442659	 0.1324548145	-0.346598
C	 1.3722133718	 0.159374653	 0.7553873044	 0.36562
O	 0.8398692759	 0.2629967339	 2.10070625	-0.266488
C	 0.1902754003	-0.9795927889	 2.0592420012	 0.113846
O	-0.7572903549	-0.8043306916	 0.9472860875	-0.292422
C	 0.0042249191	-0.0461425946	 0.0291484384	 0.119771
C	 1.3142025509	-1.9122697578	 1.601940522	-0.096176
C	 2.0934060968	-1.1635206441	 0.8076839899	-0.201154
H	-0.6113576043	 1.9650268613	 0.7198657264	 0.130184
H	-0.4255375617	 1.9001467468	-1.0558442275	 0.100182
H	 2.0508201125	 1.5291994315	-0.8071476375	 0.113368
H	 1.897022674	 2.3328009707	 0.7762214552	 0.120013
H	-0.3682080267	-1.2037107643	 2.9649402925	 0.095067
H	 0.0561244885	-0.5506305247	-0.9392126116	 0.080203
H	 1.3648858296	-2.9745015428	 1.7948216258	 0.113848
H	 2.9210462907	-1.4733268134	 0.1849327667	 0.115988
220.725	298.8732	368.519	400.7333	493.8621	540.5956	660.0734	691.9275	698.5198	733.611	785.6294	793.5137	821.8149	839.5057	886.9856	888.5728	904.0164	913.5879	944.1344	1015.5472	1048.2249	1068.3787	1104.1466	1122.873	1144.6875	1199.9502	1222.9542	1229.2139	1247.9903	1270.9694	1296.2222	1325.524	1358.2478	1366.6682	1467.7183	1481.8087	1602.3273	3071.6359	3075.0379	3086.7024	3131.1827	3158.4073	3161.0844	3221.943	3246.2441
C1CC23OC(OC12)C=C3	C1C[C@@]23O[C@@H](O[C@@H]12)C=C3	
InChI=1S/C7H8O2/c1-3-7-4-2-6(9-7)8-5(1)7/h2,4-6H,1,3H2	InChI=1S/C7H8O2/c1-3-7-4-2-6(9-7)8-5(1)7/h2,4-6H,1,3H2/t5-,6+,7-/m0/s1
