21
gdb 84001	2.13106	1.69119	1.3733	2.3248	77.57	-0.2309	0.0705	0.3015	1079.1083	0.183335	-424.216867	-424.208204	-424.20726	-424.249823	33.942	
C	-0.3131738733	 1.2793179992	-0.1157423097	-0.46545
C	 0.1545011491	-0.152287586	-0.0595719075	 0.352198
O	-0.6260644772	-1.0647030203	-0.7944537038	-0.310684
C	-1.663009935	-1.7416384552	-0.0683771618	-0.070851
C	-1.2488810557	-2.1652877153	 1.3574609214	-0.223665
C	 0.2815490363	-2.1590562663	 1.5124828577	-0.231899
C	 0.8030349298	-0.7749381268	 1.1678565637	-0.135175
C	 1.6085451914	-0.5477021814	-0.1031477392	 0.060059
O	 1.985096027	-1.6195598634	-0.9046781256	-0.430283
H	 0.3971503165	 1.934757513	 0.3974098746	 0.118604
H	-0.4039230491	 1.6171883748	-1.1533599582	 0.126834
H	-1.2889380129	 1.4016231677	 0.3692710785	 0.115389
H	-2.5626072463	-1.1116902768	-0.0420221968	 0.099218
H	-1.8941024923	-2.6167585797	-0.6830350029	 0.110366
H	-1.6746693389	-1.4729883616	 2.0925278004	 0.102775
H	-1.6688542337	-3.1525217591	 1.5760500125	 0.100461
H	 0.5566865552	-2.4291063926	 2.5355476727	 0.100577
H	 0.7417377618	-2.9029185506	 0.8531361255	 0.112963
H	 1.010402168	-0.1085095999	 2.0003773863	 0.081459
H	 2.3543986006	 0.2423713289	-0.0878430208	 0.094208
H	 1.1792106287	-1.8865194386	-1.3705125871	 0.292895
90.712	141.5309	207.5672	219.3459	244.0393	282.993	370.4415	432.9079	467.2622	488.0946	542.9555	631.2019	660.6416	717.327	790.0488	820.2326	862.9646	888.6909	923.1968	961.1992	994.2034	1019.0888	1059.4847	1083.3926	1093.2381	1138.0362	1141.7037	1161.4841	1192.0793	1243.1909	1250.3297	1271.0473	1292.1066	1328.6809	1360.1371	1369.8222	1382.4196	1410.6468	1415.3375	1459.2637	1481.3639	1491.7108	1497.0134	1500.4319	1517.134	3006.1621	3026.109	3038.0647	3046.9161	3066.4313	3087.2769	3089.4499	3093.8718	3108.4578	3139.5814	3150.1295	3725.7679
CC12OCCCC1C2O	C[C@]12OCCC[C@H]1[C@H]2O	
InChI=1S/C7H12O2/c1-7-5(6(7)8)3-2-4-9-7/h5-6,8H,2-4H2,1H3	InChI=1S/C7H12O2/c1-7-5(6(7)8)3-2-4-9-7/h5-6,8H,2-4H2,1H3/t5-,6+,7-/m0/s1
