19
gdb 108147	3.51285	1.27277	1.19331	1.8923	74.4	-0.2295	0.074	0.3035	1103.8253	0.160745	-422.988248	-422.980576	-422.979632	-423.020504	30.223	
O	 0.1427835771	 1.3629185453	-0.1376146932	-0.41357
C	 0.0211362647	-0.0258820511	 0.1427416031	-0.179606
C	-1.4041608901	-0.488233821	 0.1242608829	 0.278517
C	-2.4954802158	-0.0763109227	 1.1159566697	-0.279058
C	-3.2567451097	-1.3986552817	 0.7765554508	-0.075113
C	-4.2293667084	-1.1538508705	-0.3752407686	-0.078487
O	-3.4056721194	-0.6265642617	-1.427680227	-0.268355
C	-2.0819250994	-1.0161900268	-1.1372800296	 0.058191
C	-1.982013633	-1.9120670429	 0.0448875166	-0.189155
H	-0.3184553163	 1.5285211801	-0.9669423162	 0.284111
H	 0.6195470346	-0.634479102	-0.5565566182	 0.082051
H	 0.4572104576	-0.1604915178	 1.1397107105	 0.107733
H	-2.1146386481	-0.0782045562	 2.1408461448	 0.102618
H	-3.024794999	 0.863609328	 0.92859882	 0.100941
H	-3.6594359216	-1.9756081902	 1.6077003074	 0.077209
H	-4.7171037552	-2.0840443711	-0.7044716198	 0.092563
H	-5.0002043718	-0.4124772376	-0.1409452878	 0.108807
H	-1.4734673126	-1.1744263926	-2.0210040757	 0.099715
H	-1.5128855035	-2.8860453275	 0.0941243603	 0.090887
87.4907	128.4191	242.1863	265.053	335.5566	383.7122	399.4646	469.0944	622.6631	711.1554	733.4901	767.6303	841.0536	861.6686	892.0324	904.8294	933.6569	955.205	969.6924	1019.2501	1026.5717	1051.4639	1056.2565	1076.6176	1106.8782	1150.4709	1163.7739	1188.1482	1219.3386	1238.9385	1240.5707	1279.95	1290.6047	1320.6966	1363.6282	1375.1628	1417.0334	1432.8388	1493.2604	1503.2294	1512.8442	2958.4196	2988.4204	3044.4088	3053.6199	3075.0807	3099.652	3127.4252	3176.8291	3197.0177	3806.2616
OCC12CC3COC1C23	OC[C@@]12C[C@H]3CO[C@@H]1[C@@H]23	
InChI=1S/C7H10O2/c8-3-7-1-4-2-9-6(7)5(4)7/h4-6,8H,1-3H2	InChI=1S/C7H10O2/c8-3-7-1-4-2-9-6(7)5(4)7/h4-6,8H,1-3H2/t4-,5-,6+,7+/m0/s1
