21
gdb 112843	2.74075	1.3089	1.03134	1.8714	78.69	-0.2517	0.0911	0.3428	1252.5778	0.181798	-424.223828	-424.214836	-424.213892	-424.257597	33.936	
C	-0.2334340776	 1.4844277925	 0.0785366194	-0.383016
C	-0.0892027777	-0.0392757865	 0.0544696847	-0.185526
C	 0.783152307	-0.575152577	 1.1856977206	 0.112796
O	 0.2033003049	-0.2037124092	 2.4388147772	-0.2893
C	 0.4359271576	-1.2058378553	 3.4313530287	 0.115003
C	-0.7599042249	-1.2452491474	 4.3708842152	-0.401875
C	 0.6860606823	-2.478100204	 2.6410072304	 0.009137
O	-0.3203116233	-2.7245927924	 1.6508059602	-0.252815
C	 0.9006990004	-2.0868469447	 1.250782244	 0.00328
H	 0.7393490251	 1.9772345795	-0.0317930843	 0.108703
H	-0.876597239	 1.8304570938	-0.7360983368	 0.109755
H	-0.670275826	 1.8133322507	 1.0246837155	 0.136862
H	-1.0703843987	-0.5187071098	 0.135970861	 0.117242
H	 0.3508399897	-0.3612798525	-0.8981515401	 0.090631
H	 1.8037143296	-0.1587520784	 1.1008463985	 0.064419
H	 1.3556897814	-0.9744641341	 3.9969717028	 0.068558
H	-1.6519536764	-1.5534690146	 3.8201469497	 0.138109
H	-0.5839336968	-1.9499863337	 5.1898546865	 0.111557
H	-0.9355049655	-0.2553626538	 4.7999961221	 0.126708
H	 1.1326580166	-3.3522982268	 3.1072176975	 0.10003
H	 1.5253774213	-2.633881596	 0.5497315174	 0.099741
86.568	108.7297	149.5402	197.8546	230.7592	240.6354	301.3036	377.455	427.8496	493.8013	542.1891	664.018	745.7782	804.2799	832.6918	843.1783	885.0498	897.2072	924.7508	979.252	996.3796	1026.3857	1056.6729	1067.2757	1095.7588	1129.9529	1136.5072	1152.3851	1168.816	1255.87	1289.1414	1303.2117	1323.9137	1329.7451	1364.3966	1375.1024	1399.9723	1407.226	1410.1007	1445.975	1478.8556	1485.765	1497.6781	1498.985	1508.7902	2936.5142	2950.1356	3028.6513	3035.5271	3045.1274	3078.4519	3102.0392	3117.2037	3125.8612	3133.6245	3148.0375	3160.9713
CCC1OC(C)C2OC12	CC[C@H]1O[C@@H](C)[C@H]2O[C@@H]12	
InChI=1S/C7H12O2/c1-3-5-7-6(9-7)4(2)8-5/h4-7H,3H2,1-2H3	InChI=1S/C7H12O2/c1-3-5-7-6(9-7)4(2)8-5/h4-7H,3H2,1-2H3/t4-,5+,6+,7-/m0/s1
