18
gdb 67968	2.3054	1.80949	1.29897	4.0504	71.6	-0.2457	0.029	0.2747	1022.0074	0.148593	-439.117551	-439.109607	-439.108663	-439.149818	30.711	
C	-0.0536152504	 1.5231010598	-0.0113959393	-0.466279
C	 0.0178616876	 0.0066334479	 0.0161866789	 0.328858
C	-1.3372046998	-0.7168312603	-0.0748463896	-0.119862
O	-1.158696212	-1.9777360221	 0.5492949838	-0.248887
C	-0.3207548808	-1.7558873507	 1.6801236302	-0.099378
C	 0.718213143	-0.7365432453	 1.2109616634	-0.266871
C	 1.6812099104	-1.305570924	 0.139562777	 0.447558
O	 2.5875078149	-2.0934405267	 0.1316921565	-0.368573
N	 1.0623395954	-0.5774316167	-0.8490561985	-0.360493
H	 0.94059909	 1.9591650933	 0.1163728023	 0.131055
H	-0.4565922769	 1.8804522431	-0.9662085444	 0.122919
H	-0.7053455798	 1.8980879114	 0.7838048154	 0.125568
H	-2.1049186355	-0.1231670399	 0.4496115509	 0.090188
H	-1.673410039	-0.8904761993	-1.101182693	 0.109897
H	-0.9019007853	-1.3549320515	 2.526462373	 0.093743
H	 0.112968839	-2.7153845817	 1.971241892	 0.13531
H	 1.1715933697	-0.1358072953	 1.9990733659	 0.100272
H	 1.0966067993	-0.6916280321	-1.8531366243	 0.244974
100.4996	185.478	208.2225	254.8309	286.4264	335.2437	385.9695	417.1078	510.6051	598.4754	613.8624	676.6703	769.8039	782.9763	871.8972	903.8881	934.0425	953.2573	996.8528	1018.2812	1053.6018	1089.5518	1137.5305	1148.5736	1186.5912	1201.4991	1230.3933	1269.5031	1288.6898	1294.4053	1358.9489	1360.5762	1406.0893	1413.5435	1488.3197	1492.6572	1498.4108	1509.6163	1896.7209	2965.0213	2974.5919	3033.1068	3086.5497	3097.2664	3106.3139	3120.344	3125.1137	3586.8119
CC12COCC1C(=O)N2	C[C@]12COC[C@H]1C(=O)N2	
InChI=1S/C6H9NO2/c1-6-3-9-2-4(6)5(8)7-6/h4H,2-3H2,1H3,(H,7,8)	InChI=1S/C6H9NO2/c1-6-3-9-2-4(6)5(8)7-6/h4H,2-3H2,1H3,(H,7,8)/t4-,6-/m0/s1
