19
gdb 6185	3.4936	1.64124	1.49658	3.3426	72.62	-0.2506	0.0342	0.2848	952.7664	0.165521	-365.105112	-365.096993	-365.096048	-365.137251	31.253	
C	 0.1079999021	 1.4165542623	 0.1967825459	-0.415103
C	-0.0658324164	-0.0832868527	-0.0596171753	 0.372698
C	-1.5382711381	-0.4755402714	-0.1039909171	-0.425921
C	 0.7391284848	-0.5697371821	-1.2866829208	-0.257191
C	 2.1068528401	-0.9210106233	-0.6900860435	-0.305848
C	 1.7725362896	-1.2844107667	 0.7409843498	 0.407487
N	 2.5150234196	-1.9347579624	 1.5294421483	-0.545464
O	 0.535608585	-0.8031111215	 1.0563541794	-0.268916
H	 1.1654089813	 1.6974869918	 0.2096149468	 0.120889
H	-0.3913562571	 2.000243793	-0.5830614147	 0.117961
H	-0.326419147	 1.6875748417	 1.1629548692	 0.128797
H	-2.0328618473	 0.0022826575	-0.9556549489	 0.118769
H	-1.6428875054	-1.5592296676	-0.2050907535	 0.124103
H	-2.0520492409	-0.163107294	 0.8097450238	 0.1262
H	 0.266196207	-1.4626882186	-1.7073208608	 0.109701
H	 0.7840179074	 0.1873215586	-2.0727028059	 0.107596
H	 2.6237196874	-1.740211063	-1.1904890221	 0.135527
H	 2.7847709619	-0.060456049	-0.6904007214	 0.131286
H	 2.064500646	-2.0329783427	 2.4412529205	 0.217427
88.9629	148.7269	213.3519	249.2954	305.0983	335.8909	356.0029	455.8203	483.2234	515.9781	592.5351	647.6345	762.0843	814.5391	891.5223	904.4425	917.4754	928.9497	959.7445	991.3476	1013.1822	1045.3255	1100.0182	1126.1295	1161.7828	1221.6545	1250.2358	1269.6619	1312.1547	1335.5899	1354.9324	1402.5773	1419.3696	1471.6101	1477.47	1486.6226	1496.2695	1500.1025	1508.2133	1773.8681	3037.8221	3042.1691	3054.4121	3057.6804	3108.7547	3110.7048	3113.8977	3120.3314	3121.5002	3131.4512	3467.2541
CC1(C)CCC(=N)O1	CC1(C)CC[C]([NH])O1	
InChI=1S/C6H11NO/c1-6(2)4-3-5(7)8-6/h7H,3-4H2,1-2H3	InChI=1S/C6H11NO/c1-6(2)4-3-5(7)8-6/h7H,3-4H2,1-2H3
