19
gdb 16185	4.20707	1.5417	1.34617	2.3194	70.22	-0.2434	0.0704	0.3138	970.9224	0.167919	-365.052487	-365.044938	-365.043994	-365.084426	29.238	
O	 0.0995799453	 1.2761546526	-0.494916665	-0.423075
C	 0.0345930435	 0.047161988	 0.2133890283	-0.135642
C	-1.3717689538	-0.496413684	 0.2363988053	 0.319736
C	-2.43208881	 0.1688554492	 1.1057812432	-0.268919
C	-3.6243036902	-0.8170726004	 1.1083689132	-0.243637
C	-2.9963236472	-2.2136767032	 0.8742229758	-0.228302
C	-1.7246394366	-1.9352902602	 0.0874792679	-0.060226
N	-1.8159443126	-1.0281904062	-1.0710419874	-0.385171
H	-0.2405733634	 1.0857198191	-1.3773294893	 0.287825
H	 0.7089110168	-0.7021273255	-0.2270622928	 0.089043
H	 0.3834127644	 0.2610047905	 1.2296607366	 0.101981
H	-2.0267027095	 0.291026927	 2.1179484094	 0.103439
H	-2.7036542206	 1.1676819271	 0.7499162472	 0.109906
H	-4.2006444449	-0.7714859287	 2.0354134748	 0.106049
H	-4.3251229273	-0.5738014889	 0.3029973205	 0.10468
H	-2.7251389288	-2.685185942	 1.8267495501	 0.106628
H	-3.6771968675	-2.9007733687	 0.3599481501	 0.103494
H	-0.9746111551	-2.7163170511	-0.0021527512	 0.08724
H	-2.7838743526	-0.7820012748	-1.2633871065	 0.224949
66.6219	151.0659	227.1964	283.8955	314.4324	407.0037	446.2328	459.0196	634.267	656.4864	713.4323	810.0514	871.6559	874.67	891.5098	926.774	943.9145	996.5512	1019.7584	1037.0989	1048.7246	1076.6966	1116.0108	1148.6818	1180.9549	1199.6599	1226.946	1261.9917	1292.3568	1306.2347	1319.6126	1338.6583	1349.1595	1387.7593	1421.9254	1446.2585	1487.2707	1495.1388	1496.0022	1511.7485	2993.6486	3031.1012	3032.9968	3047.8834	3070.3237	3072.3495	3081.4213	3102.5477	3147.679	3494.5208	3789.9131
OCC12CCCC1N2	OC[C@]12CCC[C@H]1N2	
InChI=1S/C6H11NO/c8-4-6-3-1-2-5(6)7-6/h5,7-8H,1-4H2	InChI=1S/C6H11NO/c8-4-6-3-1-2-5(6)7-6/h5,7-8H,1-4H2/t5-,6-/m1/s1
