19
gdb 113984	2.94274	0.8517	0.71252	4.3952	77.61	-0.2332	0.0247	0.2579	1577.9069	0.158289	-419.17277	-419.16308	-419.162135	-419.208295	34.34	
C	-0.4163415492	 0.9227408067	 0.0727567679	-0.24762
O	 0.4202864578	-0.2230542923	 0.1647623935	-0.24374
C	 0.9019838137	-0.6333570199	-1.0767986345	 0.10705
C	 1.4441536994	-2.0289845994	-1.1514437198	-0.350471
C	 0.120405113	-1.6774009446	-1.8332123033	-0.006396
N	-1.1368191188	-2.0974933712	-1.2790399178	-0.30778
C	-1.390524777	-3.5257563357	-1.4407504766	-0.254499
C	-2.6741455883	-3.9021786486	-0.8419503913	 0.255535
N	-3.6754805472	-4.2050402093	-0.3525852841	-0.299367
H	 0.1309692179	 1.778843394	-0.347188317	 0.114533
H	-1.2997773331	 0.7286581436	-0.5490697548	 0.129991
H	-0.7326442704	 1.1671136878	 1.0888975539	 0.134204
H	 1.3967972356	 0.1526056123	-1.6479512969	 0.092605
H	 2.3285744409	-2.2128213577	-1.7514138216	 0.119106
H	 1.382561557	-2.6077069662	-0.2352482455	 0.126098
H	 0.1193118717	-1.6171167566	-2.9188972719	 0.100508
H	-1.166717497	-1.8443376384	-0.2961076302	 0.241404
H	-1.4297120735	-3.7592051896	-2.5119411695	 0.154542
H	-0.6061916625	-4.172786715	-1.0099354905	 0.134298
59.6876	78.6616	99.5344	146.3748	186.549	233.1637	245.3199	315.5838	387.8935	407.578	500.6785	530.7937	644.2232	757.9161	779.461	829.2954	880.2855	948.2151	992.1975	1003.4635	1035.3592	1056.3109	1083.6267	1125.1736	1130.1077	1156.8975	1184.297	1188.654	1229.9571	1253.2991	1270.592	1337.8896	1380.7804	1406.0108	1462.6308	1487.8545	1489.382	1490.8463	1508.4658	1511.4155	2368.5027	2953.2755	2996.439	3049.5949	3057.4605	3097.281	3128.2942	3131.5003	3135.4188	3222.6839	3523.9597
COC1CC1NCC#N	CO[C@H]1C[C@H]1NCC#N	
InChI=1S/C6H10N2O/c1-9-6-4-5(6)8-3-2-7/h5-6,8H,3-4H2,1H3	InChI=1S/C6H10N2O/c1-9-6-4-5(6)8-3-2-7/h5-6,8H,3-4H2,1H3/t5-,6+/m1/s1
