18
gdb 108631	2.13709	1.38856	0.87942	3.85	76.51	-0.2095	-0.0038	0.2057	1298.7152	0.147047	-439.136462	-439.127264	-439.12632	-439.170585	33.758	
C	 0.1495303849	 1.5545404132	 0.0709830654	-0.498019
C	 0.0202948405	 0.0672219652	 0.0259688335	 0.158807
C	-1.0926747436	-0.6841703636	-0.0284382107	 0.238136
C	-2.5418059155	-0.315601507	-0.0644938488	-0.180272
O	-3.2574784424	-1.0624267981	-1.0453831738	-0.41396
N	-0.775103499	-2.0586674683	-0.0211202706	-0.357172
C	 0.5883965844	-2.2739202768	-0.0095635491	 0.409053
O	 1.1480211345	-3.3443050088	-0.0629133205	-0.369814
C	 1.2072486538	-0.8678057852	 0.0772792285	-0.440506
H	 0.8077135711	 1.9203524407	-0.7275814349	 0.126747
H	-0.8154586359	 2.0573662373	-0.0355908015	 0.123289
H	 0.592416574	 1.8926383055	 1.0172223984	 0.129962
H	-3.0220252843	-0.5718895438	 0.8876891661	 0.129829
H	-2.6546466885	 0.7664751508	-0.2076016769	 0.108474
H	-2.8866397475	-0.8427980497	-1.9070859238	 0.28917
H	-1.4503878414	-2.7828573021	-0.2064828333	 0.263428
H	 1.9181322631	-0.724886262	-0.7453289765	 0.140296
H	 1.7866624918	-0.7789929172	 1.0049304585	 0.142551
81.6895	108.7653	153.3401	173.4811	236.403	262.0853	286.3222	358.1221	408.3685	481.4448	539.5943	568.3836	574.1336	597.5512	679.5138	815.2405	868.9106	924.4635	956.1137	971.2528	1044.8317	1057.9063	1105.9173	1152.9706	1194.5729	1203.1547	1212.7152	1295.5392	1307.4887	1374.5773	1408.0148	1421.3359	1425.8777	1438.7696	1476.4429	1489.8847	1497.36	1733.3807	1838.2774	3012.083	3021.6681	3036.5867	3053.323	3060.9517	3068.5517	3108.0263	3654.5716	3806.173
CC1=C(CO)NC(=O)C1	CC1=C(CO)NC(=O)C1	
InChI=1S/C6H9NO2/c1-4-2-6(9)7-5(4)3-8/h8H,2-3H2,1H3,(H,7,9)	InChI=1S/C6H9NO2/c1-4-2-6(9)7-5(4)3-8/h8H,2-3H2,1H3,(H,7,9)
