17
gdb 76957	2.60165	1.36139	1.18562	4.3924	70.89	-0.2479	-0.0402	0.2076	1112.2922	0.132604	-458.972996	-458.963631	-458.962687	-459.007915	33.2	
C	 0.1747526434	 1.255521832	-0.7734131829	-0.481515
C	 0.1194597651	-0.0310899817	 0.0229675371	 0.40211
O	 1.1120512848	-0.5373220524	 0.5036808515	-0.309415
C	-1.2228313876	-0.6680856559	 0.1500142728	-0.196358
C	-1.4752123539	-2.0109933108	-0.5768093584	 0.117383
O	-0.4930335706	-2.5814796825	-1.3586855288	-0.41457
C	-1.352363535	-1.9842320788	 0.9107691156	-0.200367
C	-0.1558696007	-2.6240466107	 1.5593187333	 0.170095
O	 0.4779341466	-3.5235488851	 1.0530596216	-0.276938
H	 1.1955563827	 1.6379445392	-0.7902093376	 0.146802
H	-0.1676128967	 1.0694968331	-1.7976758179	 0.15445
H	-0.4965966174	 2.0057954659	-0.3410395571	 0.137339
H	-2.0726298924	 0.0066708908	 0.173033984	 0.103308
H	-2.4710291863	-2.1054853155	-1.0049152339	 0.109987
H	 0.04579595	-3.1455209178	-0.7789979384	 0.314235
H	-2.2500526229	-2.0831099912	 1.5174044883	 0.118583
H	 0.063724951	-2.2874307984	 2.5909832409	 0.104871
42.9558	110.543	121.1671	138.9019	148.7052	236.6609	304.6122	392.1728	420.8329	439.9763	562.6755	626.8272	643.3632	719.7275	770.7485	804.7045	840.0269	920.1057	940.0478	973.9303	1030.5691	1059.0913	1078.4189	1110.4732	1125.8226	1189.8759	1239.2941	1360.7863	1372.4977	1376.7624	1400.1299	1422.6017	1461.8666	1463.7952	1474.8574	1777.4776	1793.9507	2944.5407	3037.4906	3099.0449	3125.1212	3136.1305	3156.2787	3163.2706	3647.8013
CC(=O)C1C(O)C1C=O	CC(=O)[C@H]1[C@@H](O)[C@H]1C=O	
InChI=1S/C6H8O3/c1-3(8)5-4(2-7)6(5)9/h2,4-6,9H,1H3	InChI=1S/C6H8O3/c1-3(8)5-4(2-7)6(5)9/h2,4-6,9H,1H3/t4-,5+,6-/m0/s1
