17
gdb 28153	4.96867	1.20625	0.98239	0.7522	82.24	-0.1903	-0.0014	0.1889	1181.5273	0.13741	-384.727828	-384.720427	-384.719482	-384.759498	28.933	
C	-0.0208230736	 1.4509033735	 0.0753828434	-0.484036
C	-0.0004972644	-0.0407014428	-0.0207170711	 0.295283
C	-0.0359596201	-0.7971928871	-1.1407708791	-0.318365
C	 0.003361298	-2.2148012822	-0.7711161364	 0.27557
C	 0.0627287055	-2.278144437	 0.5868140834	 0.303868
C	 0.0678695343	-0.9325981739	 1.2268714386	-0.463987
O	 0.1030123245	-3.5474179407	 1.0389030414	-0.198126
C	 0.0673824755	-4.3306312272	-0.0903728432	-0.015806
C	 0.0061777723	-3.5738060174	-1.2248876482	-0.371114
H	 0.8761004977	 1.8398865346	 0.5750529243	 0.123551
H	-0.073564396	 1.9060186513	-0.9176869827	 0.125351
H	-0.8809213044	 1.8107906444	 0.6551325312	 0.123495
H	-0.0857853118	-0.4083449545	-2.150367753	 0.094677
H	 0.9711603355	-0.729455104	 1.8169370988	 0.133899
H	-0.7879008348	-0.7586626466	 1.892290124	 0.133902
H	 0.0925668948	-5.3926270775	 0.0881778567	 0.131234
H	-0.0308538631	-3.9557325731	-2.2333078181	 0.110604
133.8466	161.7428	216.4837	266.0457	308.9267	449.8456	461.2613	516.5418	606.2936	692.4378	718.1929	726.5609	781.8137	816.1628	844.8946	855.8125	926.1732	928.6099	1007.3564	1045.8539	1055.5146	1101.3132	1131.2701	1138.9395	1179.8819	1213.5231	1279.8001	1307.6152	1381.1381	1414.3401	1441.0321	1477.0688	1480.3752	1493.9657	1509.8393	1591.2197	1653.9649	3010.5256	3028.0035	3051.7683	3058.1275	3106.2945	3207.8514	3251.9098	3286.0466
CC1=CC2=C(C1)OC=C2	CC1=Cc2c(C1)occ2	
InChI=1S/C8H8O/c1-6-4-7-2-3-9-8(7)5-6/h2-4H,5H2,1H3	InChI=1S/C8H8O/c1-6-4-7-2-3-9-8(7)5-6/h2-4H,5H2,1H3
