16
gdb 125126	3.23466	1.13358	0.86371	2.9807	74.9	-0.23	0.0074	0.2374	1290.9303	0.125055	-434.081788	-434.073145	-434.072201	-434.116185	30.382	
C	 0.0763002043	 1.49135853	-0.0876604067	-0.511975
C	 0.037181242	 0.0016179847	-0.0994063486	 0.27234
C	-0.1917325656	-0.89024346	-1.1306576996	 0.177347
O	-0.4871100449	-0.5186789672	-2.418583569	-0.21974
C	 0.2057280169	-1.1253785322	-3.4180316613	 0.106028
N	-0.1166596315	-0.9045459377	-4.6148854763	-0.433432
C	-0.1271816916	-2.1802068633	-0.5609484662	-0.093386
N	 0.1341951519	-2.1076801576	 0.7408079332	-0.219572
N	 0.2217710424	-0.7874743276	 0.9919808987	-0.249695
H	 1.0299209464	 1.8713608539	 0.2954345269	 0.137186
H	-0.0524156985	 1.8611216296	-1.1069252359	 0.161857
H	-0.7244712386	 1.9173870003	 0.5274422881	 0.142008
H	 1.0145866821	-1.7658761685	-3.0464692771	 0.10143
H	 0.5034369539	-1.4140086482	-5.24091809	 0.234532
H	-0.2654865106	-3.1384134322	-1.0387847675	 0.120322
H	 0.4054154314	-0.4863041241	 1.9343726913	 0.27475
52.8967	88.0652	111.3647	153.0663	240.0014	247.6523	386.2436	460.8166	490.9207	506.3396	674.6155	683.3126	703.4593	812.9222	829.4883	867.8119	945.8483	1002.9358	1049.4652	1050.4717	1064.5311	1134.3103	1184.805	1251.7359	1277.8513	1319.4465	1390.7182	1407.3423	1418.7362	1448.1501	1485.3731	1489.0454	1530.593	1642.879	1747.7502	3031.9295	3052.2118	3083.4781	3134.5313	3250.5928	3521.858	3667.4439
CC1=C(OC=N)C=NN1	Cc1c(O[CH][NH])cn[nH]1	
InChI=1S/C5H7N3O/c1-4-5(9-3-6)2-7-8-4/h2-3,6H,1H3,(H,7,8)	InChI=1S/C5H7N3O/c1-4-5(9-3-6)2-7-8-4/h2-3,6H,1H3,(H,7,8)
