14
gdb 48125	2.63926	1.31702	1.06013	2.0001	64.29	-0.2638	-0.1065	0.1572	1117.2508	0.099248	-473.828231	-473.819906	-473.818962	-473.862481	28.686	
N	-0.2724988473	 1.0843564149	-0.5983126707	-0.52655
C	-0.1325808713	-0.0862476924	-0.1819018881	 0.436146
O	 0.9783879493	-0.821909184	 0.1451696884	-0.245235
C	 0.1595977962	-1.9725253938	 0.5400129186	-0.105298
C	-1.1190621746	-1.2017830158	 0.1764915685	-0.249753
C	-2.0404764975	-0.8252524216	 1.3137306054	 0.290502
O	-1.7671658877	-0.9412801269	 2.4840671718	-0.273545
C	-3.4118390071	-0.2601091461	 0.9205037311	 0.100521
O	-3.8472619609	-0.3242236983	-0.1974370997	-0.209458
H	 0.6251731542	 1.5559678399	-0.7185802499	 0.238716
H	 0.3877257831	-2.8432246381	-0.0766463326	 0.130879
H	 0.2778408087	-2.1880344454	 1.6026689981	 0.148399
H	-1.6931873448	-1.5532976342	-0.6812654555	 0.146479
H	-3.9691119204	 0.1673015617	 1.7786860348	 0.118196
43.2444	109.6417	125.9201	130.0568	201.4643	293.3256	433.7597	482.7236	543.3294	619.2925	634.7624	736.0594	785.8397	860.648	918.5811	958.5621	999.5596	1021.0382	1034.9618	1082.1537	1155.0523	1168.1336	1188.9594	1222.3164	1346.8145	1359.6136	1365.2035	1507.18	1797.4162	1823.7582	1830.9671	2942.4078	3082.3323	3122.8382	3151.676	3485.3456
N=C1OCC1C(=O)C=O	[NH][C]1OC[C@H]1C(=O)C=O	
InChI=1S/C5H5NO3/c6-5-3(2-9-5)4(8)1-7/h1,3,6H,2H2	InChI=1S/C5H5NO3/c6-5-3(2-9-5)4(8)1-7/h1,3,6H,2H2/t3-/m0/s1
