16
gdb 33593	3.8392	1.51522	1.3716	4.6253	77.19	-0.2635	0.0179	0.2814	947.27	0.12666	-363.556784	-363.550486	-363.549542	-363.587394	25.952	
N	 0.0820567047	-1.0543382024	-0.0607138132	-0.357334
C	 0.0197937828	 0.1020796525	-0.0323988175	 0.138661
C	-0.0616475677	 1.5177352497	 0.029167776	 0.281035
C	 0.1333537074	 2.4392644714	-1.19870091	-0.111197
C	 1.06042228	 2.5515982196	-0.021171283	-0.157722
C	 0.0372921713	 3.5523258979	 0.5931283631	-0.05662
C	-0.7559267154	 3.63063251	-0.7691808482	-0.060804
C	-2.0134743026	 3.0522790538	-0.0762930355	-0.249286
C	-0.9990785337	 2.4036616131	 0.8933180362	-0.124027
H	 0.3201267532	 2.0293954321	-2.1819447504	 0.113138
H	 2.127481568	 2.4040271609	 0.0715706785	 0.11316
H	 0.2366083747	 4.3927048548	 1.250787236	 0.084937
H	-0.7777272211	 4.5104902423	-1.4096091362	 0.080903
H	-2.5921382069	 3.8371494063	 0.4208880509	 0.107919
H	-2.68033788	 2.4023702488	-0.6496679683	 0.109277
H	-1.2547188147	 2.0519791792	 1.8905048016	 0.087959
140.2566	164.3484	392.7779	469.9731	514.1258	541.8505	598.1625	729.2695	740.3393	777.3134	813.9075	839.0732	854.8959	885.405	899.4651	932.4643	950.3672	975.6373	988.3355	1002.0432	1046.7558	1068.9498	1094.1414	1135.6751	1161.1078	1170.2236	1194.1333	1207.5167	1246.2896	1262.6407	1268.2449	1285.114	1383.2494	1488.0362	2340.9329	3051.5559	3109.5438	3133.588	3143.1484	3167.7911	3208.6579	3220.1178
N#CC12C3C1C1C3CC21	N#C[C@]12[C@@H]3[C@H]1[C@H]1[C@@H]3C[C@@H]21	
InChI=1S/C8H7N/c9-2-8-4-1-3-5(4)7(8)6(3)8/h3-7H,1H2	InChI=1S/C8H7N/c9-2-8-4-1-3-5(4)7(8)6(3)8/h3-7H,1H2/t3-,4+,5-,6-,7+,8-/m0/s1
