16
gdb 62520	1.69843	1.57433	1.03504	4.2298	71.72	-0.2631	-0.0437	0.2194	1184.2736	0.121147	-437.892959	-437.883582	-437.882638	-437.927226	33.613	
C	-0.0916477649	 1.5871101562	 0.0485781691	-0.468677
C	 0.008898082	 0.0819127484	-0.0327899951	 0.38516
O	-1.1150043333	-0.6057455479	 0.4225835677	-0.445901
C	 0.6585526413	-0.6259567222	-1.1967780494	-0.166774
C	 1.2584172733	 0.1117216506	-2.3443456724	 0.154944
O	 1.0951609246	-0.2221619499	-3.4902005651	-0.253085
C	 1.3386510927	-0.6293621728	 0.1909475422	-0.278456
C	 2.5453722243	 0.1125648019	 0.4170959237	 0.298178
N	 3.5048163181	 0.7285135284	 0.616970655	-0.338846
H	 0.8199509244	 2.0845068861	-0.2872043568	 0.15174
H	-0.9321907787	 1.9379733422	-0.5563260947	 0.147509
H	-0.2636723215	 1.8914805328	 1.0875757251	 0.128931
H	-1.3095708023	-0.3069872213	 1.3190640875	 0.292927
H	 0.1895434234	-1.5632369068	-1.4738550777	 0.139795
H	 1.878923671	 0.9940467741	-2.0817714425	 0.102171
H	 1.2781682155	-1.5763486499	 0.7156677636	 0.150383
76.7524	119.9142	141.0247	185.2315	201.5085	256.8911	306.2149	353.2314	387.8777	399.4919	435.8632	497.3725	562.295	600.937	704.181	827.0191	881.1003	934.4187	998.6057	1014.3612	1062.6818	1086.1594	1092.8995	1138.5834	1198.388	1267.0037	1316.7282	1325.4188	1419.504	1421.3126	1449.5928	1484.8011	1502.0012	1820.5939	2346.69	2912.5656	3038.9223	3107.3074	3141.6349	3178.9792	3193.1533	3788.1696
CC1(O)C(C=O)C1C#N	C[C@@]1(O)[C@@H](C=O)[C@H]1C#N	
InChI=1S/C6H7NO2/c1-6(9)4(2-7)5(6)3-8/h3-5,9H,1H3	InChI=1S/C6H7NO2/c1-6(9)4(2-7)5(6)3-8/h3-5,9H,1H3/t4-,5+,6+/m1/s1
