20
gdb 88639	4.16329	0.90284	0.79982	3.6458	81.07	-0.2351	-0.0156	0.2196	1447.1374	0.169054	-403.126163	-403.117109	-403.116165	-403.160668	33.878	
C	-0.0557533208	 1.4592786873	-0.4745546391	-0.416485
C	-0.0467510559	 0.0166169119	-0.0172521599	 0.030352
C	 1.1974616201	-0.8039515965	-0.0538335386	-0.256953
N	 0.5899894683	-0.4385695911	 1.2252757154	-0.08654
C	 1.2985323241	 0.4989780207	 2.0701682516	 0.049887
C	 0.4264238304	 1.1555207151	 3.1838519231	-0.356166
C	 1.4890645074	 0.7109812288	 4.2001295493	 0.396061
O	 1.7279303241	 1.0064265917	 5.3345412132	-0.289792
C	 2.1876578861	-0.1770534471	 3.1597037137	-0.354201
H	 0.9209604652	 1.938654553	-0.3759888317	 0.12289
H	-0.3395415201	 1.50781865	-1.5310744105	 0.126436
H	-0.7852502405	 2.0504545765	 0.0899217795	 0.126786
H	-0.9870378035	-0.5015492828	-0.2014082339	 0.093357
H	 1.1721322079	-1.8594496697	-0.3116617258	 0.115692
H	 2.1137088426	-0.2897329772	-0.3441236885	 0.106835
H	 1.8727641488	 1.2549095957	 1.5166791687	 0.066083
H	 0.2150428284	 2.2257305686	 3.1254360659	 0.123878
H	-0.5115768627	 0.6076065195	 3.3244121016	 0.138447
H	 1.9178085383	-1.2305552279	 3.2897500806	 0.139446
H	 3.2737401821	-0.0875614965	 3.0837816155	 0.123987
56.8936	59.8347	138.9467	205.8246	216.7565	328.9776	358.8016	390.2863	430.7811	467.6946	537.2664	640.0429	666.8964	725.6727	788.0309	853.1567	907.1135	922.3193	932.1773	986.2537	1005.2277	1044.8745	1061.4412	1076.7393	1113.2193	1117.3564	1148.5716	1161.8923	1183.6276	1190.9917	1212.2708	1238.2861	1271.1353	1336.3649	1371.5838	1403.6	1418.4874	1421.3677	1441.3884	1493.8064	1498.2938	1510.1197	1895.2478	2996.0279	3037.4752	3054.6405	3059.2715	3085.6382	3095.4409	3104.6862	3120.0249	3121.3042	3128.0076	3174.1329
CC1CN1C1CC(=O)C1	C[C@H]1CN1C1CC(=O)C1	
InChI=1S/C7H11NO/c1-5-4-8(5)6-2-7(9)3-6/h5-6H,2-4H2,1H3	InChI=1S/C7H11NO/c1-5-4-8(5)6-2-7(9)3-6/h5-6H,2-4H2,1H3/t5-,8?/m0/s1
