18
gdb 96995	2.8983	1.36611	1.13559	2.3825	75.49	-0.2478	0.0133	0.2611	1148.7591	0.146067	-439.056505	-439.047628	-439.046683	-439.090365	32.012	
C	 0.1566286904	 1.4496719734	-0.1011375734	-0.341723
N	 0.3981366464	 0.0136314538	-0.1175214078	-0.3389
C	 0.5853010717	-0.5940120688	 0.9553046024	 0.452625
O	 0.6474151658	-0.1272168662	 2.274157583	-0.292284
C	 0.940571921	-1.4564650615	 2.7821260623	 0.015198
C	-0.3253780346	-2.2609651793	 3.0772683235	-0.10497
O	-0.4082284977	-2.7090477041	 1.7020073755	-0.31832
C	 0.8360541645	-2.043032774	 1.3492063352	 0.270315
C	 1.7855650929	-2.9003290136	 0.5664007965	-0.48447
H	 0.8817935715	 1.9393870647	-0.7596741681	 0.129385
H	-0.8372793313	 1.6472089686	-0.5174273772	 0.132935
H	 0.2179550276	 1.9030870312	 0.8947789511	 0.127973
H	 1.8005438137	-1.4656166091	 3.4489619226	 0.105392
H	-0.1804069031	-3.1067913406	 3.7601419075	 0.111888
H	-1.1924460968	-1.6696691658	 3.388412266	 0.121335
H	 1.3510553584	-3.1172521609	-0.4143532404	 0.15423
H	 2.7355136186	-2.3819806773	 0.4081608198	 0.132315
H	 1.970047001	-3.8462047903	 1.0823426116	 0.127078
78.3089	102.7035	164.1415	170.9667	197.4521	238.1468	303.3116	345.0347	406.8727	514.6092	642.291	713.1187	729.5607	824.7672	845.2353	872.6499	912.564	996.568	1007.5279	1032.6281	1063.3481	1088.5	1122.7962	1138.5279	1154.5585	1163.3083	1176.2802	1215.1531	1309.4038	1329.5963	1360.6847	1412.1017	1437.9736	1477.6235	1484.0747	1492.6229	1496.1964	1501.6219	1850.1844	3019.6574	3027.1691	3045.414	3086.9513	3087.8063	3091.6793	3119.2721	3126.6602	3138.3275
CN=C1OC2COC12C	CN=C1O[C@H]2CO[C@@]12C	
InChI=1S/C6H9NO2/c1-6-4(3-8-6)9-5(6)7-2/h4H,3H2,1-2H3	InChI=1S/C6H9NO2/c1-6-4(3-8-6)9-5(6)7-2/h4H,3H2,1-2H3/t4-,6+/m0/s1
