19
gdb 89161	2.19714	1.69482	1.34081	2.0956	70.51	-0.2477	0.055	0.3026	1042.4867	0.158157	-460.128899	-460.12034	-460.119396	-460.161882	33.526	
C	 0.6314009428	 1.3848183835	-0.3081405879	-0.425329
C	 0.1997155972	-0.0177174178	 0.0573054413	 0.124833
O	 0.863787149	-1.0550829993	-0.735154058	-0.327572
C	 1.2217928382	-1.8065931795	 0.4426802636	-0.012335
C	 2.6634662267	-1.4124761118	 0.8912094105	 0.138421
O	 3.4702192055	-0.9250449991	-0.1428599692	-0.436685
C	 2.0553410628	-0.3632069291	 1.8889272219	-0.355551
C	 0.6338675852	-0.6923177877	 1.3776145053	 0.342124
O	-0.4215435426	-0.803952688	 2.2774462707	-0.47731
H	 1.7165659855	 1.5018683833	-0.2436349844	 0.129661
H	 0.3227826803	 1.6182955274	-1.3319647008	 0.131289
H	 0.1575096364	 2.1103654251	 0.361409365	 0.129907
H	-0.8868812125	-0.1274732745	-0.0498753748	 0.0975
H	 0.9235584151	-2.855531868	 0.3901754597	 0.079222
H	 3.20193182	-2.2152667917	 1.4037519774	 0.083323
H	 2.8549449935	-0.7069713076	-0.8606499242	 0.290338
H	 2.1843304274	-0.6707245148	 2.9332557798	 0.09265
H	 2.4100698289	 0.6645878417	 1.786944001	 0.112602
H	-0.082177479	-1.1353685021	 3.115028223	 0.282912
57.7416	200.1926	216.8349	258.7119	283.5507	303.7297	353.3582	386.9354	444.3525	516.5139	543.3683	554.9636	636.8315	680.1138	793.857	836.4914	852.8871	887.481	936.1347	976.7224	1010.0997	1030.1482	1088.055	1094.7945	1117.1692	1139.6302	1160.8004	1175.6848	1203.8734	1247.6668	1259.5819	1291.5941	1323.5818	1351.8035	1374.8063	1401.4801	1415.1678	1442.91	1471.2986	1484.8356	1504.6723	3029.1225	3036.8679	3040.1226	3060.8213	3094.9837	3109.1064	3111.4904	3122.7547	3690.0993	3817.0283
CC1OC2C(O)CC12O	C[C@H]1O[C@H]2[C@@H](O)C[C@@]12O	
InChI=1S/C6H10O3/c1-3-6(8)2-4(7)5(6)9-3/h3-5,7-8H,2H2,1H3	InChI=1S/C6H10O3/c1-3-6(8)2-4(7)5(6)9-3/h3-5,7-8H,2H2,1H3/t3-,4+,5+,6-/m1/s1
