19
gdb 95136	2.25832	1.71172	1.42329	2.6686	74.85	-0.2345	-0.0231	0.2114	1023.7229	0.160239	-423.027567	-423.019724	-423.01878	-423.059682	30.844	
C	-0.635983446	 1.3557000993	 0.0664521941	-0.416629
C	 0.0870495813	 0.0094510879	-0.0187303635	-0.004532
C	 1.129278037	 0.0262519911	-1.1601078473	-0.080127
O	 2.1325490779	-0.980591095	-1.0381892047	-0.275273
C	 2.5669741356	-1.1523100787	 0.3017123224	 0.016779
C	 1.423205515	-1.7850026764	 1.1497272215	-0.267167
C	 0.825312602	-0.3502161395	 1.2999053453	-0.137441
C	 2.2864401103	 0.1210853265	 1.1613431708	 0.387408
O	 2.9626717585	 0.9653075072	 1.6693232934	-0.314811
H	 0.0592551258	 2.1585844594	 0.3350083616	 0.134834
H	-1.0985095672	 1.6174277774	-0.8913165697	 0.1198
H	-1.4260285172	 1.3279500159	 0.8229308237	 0.12114
H	-0.6477097017	-0.7822528791	-0.2100791255	 0.086435
H	 0.6589109732	-0.1249658429	-2.1351257941	 0.113304
H	 1.6145361375	 1.0157038571	-1.1707147589	 0.108209
H	 3.561191182	-1.5995266462	 0.2867684782	 0.097411
H	 0.8109787527	-2.5162604687	 0.6185620181	 0.112181
H	 1.7815680924	-2.1958229684	 2.096754796	 0.114428
H	 0.2608527407	-0.0788239169	 2.1935418488	 0.084052
110.5002	155.887	237.7918	255.7778	308.0699	387.2781	405.0591	453.5741	489.8911	516.4885	623.2028	766.479	812.7265	831.3565	882.6094	912.5056	932.9012	956.2126	1002.7862	1012.5421	1039.306	1062.1749	1098.5867	1121.6579	1132.8617	1160.0177	1177.0446	1213.1839	1238.7153	1261.1511	1296.8843	1333.2638	1347.4818	1351.6885	1406.61	1417.9213	1477.4268	1496.3106	1499.7576	1506.0485	1889.0345	2974.951	3028.1922	3032.2305	3066.4763	3093.0181	3100.1186	3101.798	3108.3227	3118.1079	3132.9757
CC1COC2CC1C2=O	C[C@H]1CO[C@@H]2C[C@H]1C2=O	
InChI=1S/C7H10O2/c1-4-3-9-6-2-5(4)7(6)8/h4-6H,2-3H2,1H3	InChI=1S/C7H10O2/c1-4-3-9-6-2-5(4)7(6)8/h4-6H,2-3H2,1H3/t4-,5+,6+/m0/s1
