18
gdb 94751	3.83186	1.16355	1.04025	5.216	76.79	-0.2533	0.0163	0.2696	1184.2479	0.14835	-401.952878	-401.944735	-401.943791	-401.985437	31.206	
C	-0.0050606547	 1.5613601482	-0.0526086579	-0.404422
C	 0.0357226116	 0.0357144133	 0.0481477605	-0.00665
C	 0.7896507952	-0.6338052241	-1.1253033789	-0.11538
O	 1.3563729412	-1.852026543	-0.6343776781	-0.294906
C	 1.5247290466	-1.7238046416	 0.7524803586	 0.312825
C	 2.2710794622	-0.5104656011	 1.2763777067	-0.351083
C	 0.7589763925	-0.5249875691	 1.2665594443	-0.121298
C	 1.5877955474	-2.9807666892	 1.4468753822	 0.238408
N	 1.6453942097	-3.9749357197	 2.0343419497	-0.343229
H	 1.0050002617	 1.9840361221	-0.0354742997	 0.121596
H	-0.4882787849	 1.8805766858	-0.982027	 0.123856
H	-0.5657537345	 1.9971905599	 0.7794576402	 0.125873
H	-0.9905026578	-0.3494682044	 0.076974677	 0.094141
H	 0.142431491	-0.8869157034	-1.9685823349	 0.124531
H	 1.5858959984	 0.0271917194	-1.4962745966	 0.103323
H	 2.7605579681	-0.6102365836	 2.2380341325	 0.142221
H	 2.8139648382	 0.0853145908	 0.5507650237	 0.132981
H	 0.2350193981	-0.5701076804	 2.2135339508	 0.117213
107.6482	150.3042	173.9532	232.7201	265.1749	327.937	400.1515	454.3576	529.5607	556.2961	601.604	628.0828	718.0831	804.2638	869.7194	909.4432	935.2347	960.4552	979.9758	992.8217	1035.82	1058.0336	1083.0258	1101.1047	1140.8183	1173.7341	1222.9951	1236.8614	1273.7897	1336.2638	1346.9032	1383.3167	1400.0983	1416.8966	1474.807	1496.3341	1500.82	1530.2993	2359.5333	3002.78	3034.6801	3036.6437	3096.8345	3103.4104	3110.8406	3141.4804	3189.8514	3232.4835
CC1COC2(CC12)C#N	C[C@H]1CO[C@]2(C[C@@H]12)C#N	
InChI=1S/C7H9NO/c1-5-3-9-7(4-8)2-6(5)7/h5-6H,2-3H2,1H3	InChI=1S/C7H9NO/c1-5-3-9-7(4-8)2-6(5)7/h5-6H,2-3H2,1H3/t5-,6-,7+/m0/s1
