17
gdb 124911	3.89372	1.49585	1.25928	3.1255	78.82	-0.2313	0.0032	0.2344	1015.8316	0.138017	-380.827025	-380.819925	-380.818981	-380.858319	28.079	
C	 0.0313904322	 1.5904733399	 0.1194646602	-0.493438
C	 0.0877452334	 0.0981051084	-0.0166003154	 0.186783
C	-0.8830305986	-0.8738262307	 0.6518701367	-0.314667
C	 0.5889772623	-0.9651632682	 0.9687401221	-0.051781
N	 1.3085858826	-1.5765004773	-0.1561561127	 0.060984
N	 1.5982059516	-2.8053763849	-0.6395903629	-0.280191
C	 1.4098544419	-2.6383388706	-1.9524124784	 0.008873
C	 0.8668596281	-1.3632192131	-2.3003547975	-0.346316
C	 0.811004559	-0.7150012864	-1.0857975545	 0.241048
H	 1.0250202598	 2.0358722843	 0.0100083798	 0.133334
H	-0.6197643657	 2.0289044511	-0.6448987465	 0.132109
H	-0.3671661607	 1.8786118865	 1.0970745962	 0.123755
H	-1.5061450069	-0.4505118333	 1.4368971119	 0.121187
H	-1.3537142967	-1.6625068631	 0.0738075274	 0.138699
H	 1.0358337885	-0.8630958298	 1.9486258232	 0.122054
H	 1.6881160766	-3.4333428406	-2.6313426979	 0.111324
H	 0.5935638624	-1.0152642123	-3.2827162217	 0.106244
145.6698	194.4734	199.6179	261.1985	358.781	482.1031	501.896	597.4091	652.5883	718.6207	730.4785	798.6827	831.889	839.8328	891.0352	930.9973	959.929	982.7863	985.3541	1007.0753	1048.1	1077.5397	1105.1865	1114.2575	1192.267	1220.2282	1226.3816	1297.2233	1308.5419	1362.7864	1409.665	1418.5732	1429.6181	1481.7523	1484.8924	1498.7714	1567.0181	3033.0988	3095.6941	3108.8672	3113.9196	3204.5497	3211.2637	3228.9231	3272.9793
CC12CC1N1N=CC=C21	C[C@]12C[C@H]1n1nccc21	
InChI=1S/C7H8N2/c1-7-4-6(7)9-5(7)2-3-8-9/h2-3,6H,4H2,1H3	InChI=1S/C7H8N2/c1-7-4-6(7)9-5(7)2-3-8-9/h2-3,6H,4H2,1H3/t6-,7-/m1/s1
