25
gdb 104615	2.26554	1.07774	0.96339	1.0099	89.05	-0.2451	0.0785	0.3236	1445.6209	0.226289	-389.472313	-389.461317	-389.460373	-389.508237	40.934	
C	-0.4501866034	 0.0745963939	 0.2637420906	-0.246945
O	-0.5601705771	-0.6286286586	-0.9577876906	-0.29197
C	 0.5805295114	-0.6718809989	-1.782214241	 0.416966
C	 0.615118753	 0.3812912492	-2.8798736354	-0.229341
C	 0.6720752458	 1.8641398078	-2.4625947866	 0.036002
C	 1.9526637406	 2.219489377	-1.6949162744	-0.384639
C	 0.5241203112	 2.7577596913	-3.7027068438	-0.392479
C	 1.8557922273	-1.2446252124	-1.2084879522	-0.32108
C	 1.0053196313	-2.067860359	-2.1509363188	-0.306104
H	 0.3365369048	-0.3367963599	 0.9110200487	 0.1031
H	-0.2534691244	 1.1449555853	 0.1246844472	 0.109939
H	-1.4114269027	-0.0392187071	 0.7719810147	 0.123556
H	 1.4743291006	 0.1660952176	-3.5297967607	 0.085313
H	-0.2812921529	 0.2311522926	-3.4960567538	 0.099974
H	-0.1897385972	 2.0633260544	-1.8130297204	 0.0817
H	 1.9575922026	 3.2774920407	-1.4116068741	 0.107873
H	 2.0639727397	 1.6277335684	-0.7824999957	 0.11783
H	 2.8394066682	 2.0413984146	-2.3159259602	 0.107042
H	-0.4084040553	 2.5487710896	-4.2373048451	 0.110966
H	 0.5246866612	 3.8180801745	-3.4290690362	 0.107717
H	 1.3526878806	 2.5959585708	-4.4030929224	 0.109679
H	 2.8016763685	-0.8528232907	-1.566313431	 0.113863
H	 1.8634157252	-1.5371464558	-0.1647345601	 0.115635
H	 0.4253980738	-2.8732033995	-1.715973001	 0.118129
H	 1.3657955972	-2.2524159558	-3.1572229078	 0.107274
66.6794	80.917	121.3599	150.0912	187.8842	223.5609	247.7989	280.2073	291.1575	302.1671	355.1552	390.7387	421.9233	475.0303	537.3845	728.8926	775.1684	814.6846	856.5393	896.3502	925.6274	934.0946	957.5658	965.8577	972.462	991.1767	1049.0378	1076.4125	1101.5914	1134.806	1143.6879	1179.6283	1189.946	1192.6736	1222.7313	1247.1289	1288.4806	1324.958	1334.8434	1374.3589	1392.6986	1398.8921	1421.3116	1455.3705	1467.8747	1482.1902	1485.9544	1491.3313	1493.1666	1496.3525	1505.0458	1509.4827	1513.6464	3001.7894	3007.6532	3021.2617	3022.1239	3028.8721	3050.0568	3057.3184	3084.3344	3092.1913	3099.033	3109.5235	3112.0482	3134.1437	3137.783	3215.8237	3231.3681
COC1(CC(C)C)CC1	COC1(CC(C)C)CC1	
InChI=1S/C8H16O/c1-7(2)6-8(9-3)4-5-8/h7H,4-6H2,1-3H3	InChI=1S/C8H16O/c1-7(2)6-8(9-3)4-5-8/h7H,4-6H2,1-3H3
