21
gdb 110146	2.09961	1.19161	0.89944	2.4826	75.49	-0.2548	0.0486	0.3034	1367.1118	0.180774	-461.317682	-461.307159	-461.306215	-461.353688	37.396	
C	-0.2860433083	 0.9930860381	 0.1152648228	-0.238948
O	 0.511380743	-0.1568414198	-0.0854212293	-0.242919
C	 0.8928079212	-0.7981839948	 1.0987177978	 0.084447
C	 0.0464294997	-1.93062999	 1.6574352938	-0.108845
C	-1.3164350388	-2.2627384063	 1.0897359925	-0.082198
O	-2.3636784819	-1.6841804584	 1.8608862241	-0.423946
C	 1.3538232557	-2.2131380771	 0.926336055	-0.112044
C	 1.41114028	-2.7921562191	-0.4779608653	-0.077741
O	 2.4145542774	-2.1620319525	-1.2577024948	-0.42734
H	 0.2187949058	 1.7246317848	 0.762370246	 0.116782
H	-0.4592203902	 1.4427135787	-0.8647928475	 0.137573
H	-1.2579193072	 0.7417758148	 0.564423703	 0.102207
H	 1.4193261354	-0.1470860437	 1.7973906776	 0.089337
H	 0.0834118742	-2.0548978421	 2.737144778	 0.095185
H	-1.3831839407	-1.9541694668	 0.0383742959	 0.102135
H	-1.494262476	-3.3425669072	 1.1290154461	 0.115537
H	-2.1806006469	-0.7427381249	 1.9421522777	 0.279604
H	 2.1909696763	-2.5080292851	 1.5524464758	 0.096875
H	 1.680706884	-3.8520903175	-0.4301150182	 0.109027
H	 0.4330881864	-2.7280118871	-0.9702316102	 0.094786
H	 2.149908521	-1.236880634	-1.3247932108	 0.290486
77.743	78.624	112.3353	119.9171	160.5503	192.559	237.5651	267.3066	281.4934	336.3324	374.7278	477.602	550.4489	594.0864	621.5356	774.4947	816.9941	883.9756	940.1666	970.7361	1030.3421	1048.9342	1064.0801	1073.1361	1105.1772	1137.8564	1140.0786	1161.5853	1180.3022	1209.6647	1230.4661	1246.2503	1257.9501	1332.8844	1352.8886	1382.9761	1400.9954	1422.9113	1435.9195	1447.0997	1483.7371	1486.6044	1500.9717	1503.4509	1510.7389	2987.8619	3012.2604	3030.0004	3039.3967	3071.7095	3077.5395	3093.4339	3124.54	3136.3508	3152.3336	3794.2286	3814.7875
COC1C(CO)C1CO	CO[C@H]1[C@@H](CO)[C@H]1CO	
InChI=1S/C6H12O3/c1-9-6-4(2-7)5(6)3-8/h4-8H,2-3H2,1H3	InChI=1S/C6H12O3/c1-9-6-4(2-7)5(6)3-8/h4-8H,2-3H2,1H3/t4-,5+,6-
