21
gdb 120939	3.33469	0.91619	0.83255	2.0096	79.62	-0.2463	0.0776	0.3238	1474.358	0.180942	-424.178226	-424.168633	-424.167688	-424.213045	35.414	
C	 0.0003841949	 1.397972754	-0.060013897	-0.224027
O	 0.1223166425	-0.0027153434	-0.0633328339	-0.231108
C	 0.56222636	-0.521629308	 1.1746729741	-0.079961
C	 0.6728438157	-2.0286774783	 1.051274265	-0.057416
C	 1.8015085219	-2.6541032692	 0.1617613188	-0.241613
C	 2.2527632132	-3.5053586032	 1.3557883004	-0.103101
C	 2.6751731052	-2.5975171486	 2.4890233435	-0.347217
C	 1.2097151479	-2.8375526592	 2.2412638065	 0.374286
O	 0.3933310851	-3.4413506167	 3.184034942	-0.462758
H	 0.9618363462	 1.8933798525	 0.1519926137	 0.100751
H	-0.340281407	 1.7012395929	-1.0532207365	 0.125949
H	-0.7320848076	 1.7442041064	 0.6872187602	 0.101001
H	 1.5344068288	-0.0764242495	 1.4485958169	 0.079157
H	-0.1503364469	-0.2565372552	 1.9770319874	 0.077918
H	-0.2993562111	-2.4306711731	 0.752082045	 0.090276
H	 1.4065990455	-3.2312020285	-0.6758274847	 0.108182
H	 2.5464536437	-1.9480001256	-0.2192853079	 0.09696
H	 2.5519040684	-4.5453065506	 1.3226042608	 0.093162
H	 3.0538322306	-3.1181085187	 3.3633282475	 0.111604
H	 3.1563257189	-1.6424888965	 2.2884164904	 0.103109
H	 0.3517479342	-2.8738410316	 3.9609803681	 0.284847
65.2429	91.221	120.8692	168.4322	229.618	240.0604	276.0466	334.9292	350.7062	424.4485	485.3266	515.7694	624.1249	721.4942	840.7528	844.8536	885.9996	898.2607	961.6517	975.6614	1012.9107	1020.3739	1040.6249	1081.9096	1112.49	1129.5968	1160.9089	1165.5344	1182.8943	1201.7912	1221.5581	1235.3707	1243.0787	1266.7426	1298.2537	1317.8308	1360.7979	1392.5038	1429.2176	1480.6218	1480.9126	1485.4041	1500.1513	1506.0369	1525.5083	2934.9393	2963.8329	2967.3353	3006.4414	3051.8167	3073.0967	3100.4814	3110.7704	3117.3183	3190.4765	3199.7123	3799.8132
COCC1CC2CC12O	COC[C@H]1C[C@H]2C[C@@]12O	
InChI=1S/C7H12O2/c1-9-4-6-2-5-3-7(5,6)8/h5-6,8H,2-4H2,1H3	InChI=1S/C7H12O2/c1-9-4-6-2-5-3-7(5,6)8/h5-6,8H,2-4H2,1H3/t5-,6+,7-/m0/s1
