12
gdb 124356	2.93267	1.62838	1.05382	3.78	58.01	-0.2982	-0.0812	0.217	1025.7674	0.075479	-505.941913	-505.934165	-505.933221	-505.974964	26.851	
C	-0.0277940115	 1.5274335543	-0.073681886	-0.492921
C	-0.0226923916	 0.0298356443	 0.0884430904	 0.427506
O	-0.0382902796	-0.5723623484	 1.1216171344	-0.256822
N	 0.0031960443	-0.6990776256	-1.1499958092	-0.185302
N	 0.0215318343	-0.0715730493	-2.3581428721	-0.04733
N	 0.0421783947	-0.9185554165	-3.2723759407	 0.041501
O	 0.0387601785	-2.2059834368	-2.7157418554	-0.234303
C	 0.0137809799	-2.0939582167	-1.34009468	 0.573417
O	 0.0045136559	-2.9961354458	-0.5696038814	-0.328396
H	 0.8595993708	 1.8618143154	-0.6180055764	 0.169492
H	-0.8985078721	 1.8524241143	-0.6497085413	 0.169507
H	-0.0481006036	 1.9693323708	 0.9215346675	 0.16365
66.1352	127.8114	146.9834	192.0676	256.2909	343.6604	459.1672	527.9894	577.433	643.2295	666.9025	760.0213	769.5855	797.104	957.7232	1010.8105	1052.878	1059.056	1151.9074	1231.5732	1309.7392	1398.1087	1459.2436	1471.6114	1537.3612	1848.5382	1944.2905	3061.1616	3127.8698	3175.2385
CC(=O)N1N=NOC1=O	CC(=O)n1nnoc1=O	
InChI=1S/C3H3N3O3/c1-2(7)6-3(8)9-5-4-6/h1H3	InChI=1S/C3H3N3O3/c1-2(7)6-3(8)9-5-4-6/h1H3
