15
gdb 123647	4.12208	1.67021	1.29723	4.4671	69.77	-0.2481	0.0051	0.2532	923.8882	0.117983	-412.986705	-412.9807	-412.979756	-413.017103	23.917	
C	-0.0623714107	 1.4495971534	 0.0220487933	-0.176458
C	 1.4178794982	 1.8507704249	-0.0337003205	-0.040013
N	 2.1855372026	 1.4298264912	 1.147851195	-0.3219
C	 2.2644096384	 0.6158823801	-0.0952563855	-0.223118
C	 1.296482603	-0.5012887898	-0.0650003086	 0.463225
N	 1.2681813828	-1.8201195394	-0.0637475619	-0.376255
C	-0.07390887	-2.0648818558	 0.0354079231	 0.01751
N	-0.8601110852	-0.9922037733	 0.0972720305	-0.273138
N	 0.0486159162	-0.0021033423	 0.0167253172	 0.05149
H	-0.5540914059	 1.8033095831	 0.9320194029	 0.148364
H	-0.6195694801	 1.8027261191	-0.851421578	 0.133619
H	 1.6915112252	 2.7577785988	-0.5596584822	 0.109965
H	 3.0248491393	 2.0013497516	 1.2236774118	 0.241682
H	 3.1900830041	 0.5538313467	-0.652409451	 0.120492
H	-0.4851498079	-3.0630472784	 0.0611209239	 0.124534
153.8973	209.9532	354.9652	445.1673	455.2296	617.7819	680.1101	729.7525	770.4332	806.4724	827.0049	856.0512	886.3695	896.627	943.8276	992.1532	1017.9487	1078.1217	1120.1182	1140.879	1173.6525	1194.1829	1211.6334	1235.1388	1284.8796	1305.013	1335.3495	1344.6099	1396.0559	1438.1056	1477.6799	1514.0307	1589.0768	3056.2564	3107.3063	3184.5995	3206.1723	3259.4691	3492.3794
C1C2NC2C2=NC=NN12	C1[C@H]2N[C@H]2c2ncnn12	
InChI=1S/C5H6N4/c1-3-4(8-3)5-6-2-7-9(1)5/h2-4,8H,1H2	InChI=1S/C5H6N4/c1-3-4(8-3)5-6-2-7-9(1)5/h2-4,8H,1H2/t3-,4-/m1/s1
