21
gdb 101903	3.68473	0.61663	0.56361	5.0809	77.83	-0.2653	0.0134	0.2787	1974.7111	0.17917	-461.379105	-461.36811	-461.367166	-461.417208	37.257	
C	 0.1123617135	 1.3383207638	 0.1233625051	-0.237449
O	-0.2087359954	 0.004429765	-0.1999145163	-0.248632
C	 0.6249476812	-0.5943671925	-1.1873499377	 0.134502
C	 2.0137170483	-0.9386665543	-0.6440164011	-0.40453
C	-0.115856185	-1.839012066	-1.6775036212	-0.199255
C	-1.4894652452	-1.5088378674	-2.2506193953	-0.09408
O	-2.0988141173	-2.6897655464	-2.7923043477	-0.175527
C	-3.1481046677	-3.2165320961	-2.1372695961	 0.167906
O	-3.7019297679	-4.2128110143	-2.494031805	-0.277506
H	 1.0804140794	 1.4295507256	 0.6356792099	 0.111563
H	 0.1344684949	 1.9788003756	-0.7723523512	 0.10505
H	-0.6686534077	 1.7018862134	 0.7957589505	 0.130192
H	 0.7357294252	 0.1107133975	-2.0309879418	 0.065663
H	 2.5501502878	-0.0454398326	-0.3130722013	 0.119577
H	 1.9293901063	-1.6239170813	 0.2052221642	 0.127484
H	 2.6185894048	-1.4189194105	-1.4193378876	 0.121054
H	 0.4834756533	-2.3408476378	-2.4441695635	 0.115851
H	-0.2300213437	-2.5405000274	-0.8424497064	 0.113316
H	-2.1298544668	-1.0666240005	-1.4809108648	 0.129405
H	-1.408682599	-0.7960874668	-3.0777629155	 0.118389
H	-3.4372222492	-2.6240049068	-1.2463602172	 0.077026
37.5789	41.2759	78.0208	105.7278	142.5571	180.0228	201.2789	248.1452	279.5091	322.1743	352.6008	410.3935	473.2633	530.1976	679.7103	778.0568	834.9438	930.3646	967.4032	1016.3646	1046.8859	1054.883	1109.5724	1117.5444	1133.1523	1165.8008	1177.5241	1186.215	1233.6694	1285.1798	1299.6634	1328.6495	1377.6313	1388.1446	1404.9301	1410.0965	1433.2963	1476.2001	1479.2193	1484.4825	1492.9529	1506.02	1510.2953	1513.5486	1865.3142	2939.9594	2940.3891	2979.52	3032.0303	3038.5168	3043.5496	3048.9421	3082.1478	3104.4987	3112.577	3115.0957	3118.8846
COC(C)CCOC=O	CO[C@@H](C)CCOC=O	
InChI=1S/C6H12O3/c1-6(8-2)3-4-9-5-7/h5-6H,3-4H2,1-2H3	InChI=1S/C6H12O3/c1-6(8-2)3-4-9-5-7/h5-6H,3-4H2,1-2H3/t6-/m0/s1
