16
gdb 97178	3.49012	1.17423	0.94638	3.5381	68.64	-0.2656	-0.01	0.2556	1216.566	0.124192	-475.064536	-475.056178	-475.055234	-475.098529	29.681	
C	-0.5881279594	 1.3751205356	-0.4321356165	-0.333986
N	-0.2129207454	-0.005733673	-0.1744314552	-0.292749
C	 0.8114781402	-0.4971415185	-0.7103291334	 0.420011
C	 1.2462284184	-1.9230704027	-0.4629488421	-0.461742
C	 1.7628692275	-2.5945856177	-1.7252352363	 0.430341
O	 1.5583841886	-3.7258555628	-2.0481834417	-0.308071
O	 2.5128826298	-1.7715457289	-2.5188233674	-0.21355
C	 2.7830630454	-0.4824665323	-1.9950731864	 0.006429
O	 1.6136262153	 0.1910490041	-1.5960376153	-0.23944
H	 0.1971863492	 1.9785656095	-0.899642681	 0.12391
H	-1.4704757197	 1.3897916939	-1.0826038347	 0.136057
H	-0.8827425938	 1.8392069329	 0.5141776445	 0.130444
H	 2.0656726639	-1.9301652893	 0.2710096771	 0.157267
H	 0.4244927884	-2.4997129847	-0.0448705957	 0.172673
H	 3.4896559646	-0.5606232542	-1.1573513688	 0.120538
H	 3.2223839972	 0.0966031381	-2.8063232472	 0.151869
52.8678	79.1667	122.5555	219.8663	256.4863	303.5641	408.9467	441.9953	483.2192	584.0563	613.1205	624.7801	768.5846	829.5993	841.3377	960.3242	1014.0827	1052.3634	1087.783	1123.6318	1130.6526	1151.8662	1189.1016	1199.5041	1285.1407	1291.4394	1300.5099	1438.4066	1448.4839	1449.413	1490.4601	1498.9203	1528.4953	1800.7496	1886.7365	3011.232	3018.2624	3023.4323	3085.0878	3099.8629	3147.5803	3170.1385
CN=C1CC(=O)OCO1	CN=C1CC(=O)OCO1	
InChI=1S/C5H7NO3/c1-6-4-2-5(7)9-3-8-4/h2-3H2,1H3	InChI=1S/C5H7NO3/c1-6-4-2-5(7)9-3-8-4/h2-3H2,1H3
