17
gdb 54667	3.45591	1.27974	0.99194	4.0866	77.12	-0.1974	-0.0048	0.1926	1163.6422	0.137788	-418.035725	-418.027693	-418.026749	-418.068259	31.279	
N	-0.0286676659	 1.3643041152	-0.0590550977	-0.547117
C	 0.0535891484	-0.0164580524	-0.0323596711	 0.28855
O	 1.1298699186	-0.5928839578	-0.094744382	-0.383766
C	-1.2350712919	-0.7150274681	 0.0241645546	 0.182052
C	-1.3375486802	-2.0658159972	 0.0917454741	-0.084301
N	-2.6412178039	-2.4976036726	 0.1388454246	-0.290518
C	-3.524232051	-1.3603368584	 0.040374551	 0.006753
C	-3.5093713853	-0.3909988262	 1.1885109127	-0.300536
C	-2.6084828829	-0.1284076145	-0.0115791598	-0.2037
H	 0.8511284359	 1.8422531581	 0.0629151778	 0.251164
H	-0.8373305137	 1.8151467554	 0.3374267293	 0.251185
H	-0.5182950057	-2.7689372456	 0.1472851129	 0.148009
H	-2.9073445176	-3.3865707734	-0.2509831241	 0.25204
H	-4.4145139428	-1.4842505818	-0.564691575	 0.102116
H	-4.3856036719	 0.2394417558	 1.2935079595	 0.113123
H	-3.0483028576	-0.7015359376	 2.1198747192	 0.120659
H	-2.8209518626	 0.7260999412	-0.646928056	 0.094287
84.5805	139.8762	185.679	306.4276	353.0888	381.9799	407.4108	429.3132	491.2715	536.6378	609.9299	652.9071	731.7365	758.9718	775.1365	812.0307	886.8077	931.5798	932.8871	1006.8762	1056.3118	1060.1635	1080.1708	1088.3612	1095.1062	1126.4728	1172.7771	1206.4913	1269.6287	1354.4581	1367.8151	1399.3778	1451.0179	1478.733	1613.3818	1633.7232	1759.5373	3130.0367	3146.7753	3178.0271	3223.1066	3245.0821	3580.316	3643.9844	3705.8871
NC(=O)C1=CNC2CC12	NC(=O)C1=CN[C@H]2C[C@@H]12	
InChI=1S/C6H8N2O/c7-6(9)4-2-8-5-1-3(4)5/h2-3,5,8H,1H2,(H2,7,9)	InChI=1S/C6H8N2O/c7-6(9)4-2-8-5-1-3(4)5/h2-3,5,8H,1H2,(H2,7,9)/t3-,5-/m0/s1
