19
gdb 108078	2.60988	1.46626	1.20984	2.2466	75.24	-0.2312	0.0683	0.2995	1109.552	0.15851	-422.959157	-422.95061	-422.949666	-422.992505	32.418	
C	-0.1279802867	 1.5251573307	-0.0721139919	-0.532186
C	-0.056391694	 0.0343481801	-0.0151034689	 0.212369
C	-0.0601568964	-1.0694176946	-1.0791003556	-0.197523
C	 1.2231835324	-1.6849832636	-0.5262244891	-0.237492
C	 0.8130202748	-1.0066517938	 0.8042955458	 0.02352
O	-0.3853653274	-1.7296603821	 1.2051622004	-0.343909
C	-1.0452862956	-1.0779352935	 0.1103886888	 0.4122
C	-2.5300303366	-1.1902008994	 0.0307743757	-0.193812
O	-2.9541796287	-2.512921203	-0.2623633314	-0.412076
H	 0.8125676738	 1.9584008739	-0.4313953299	 0.125564
H	-0.9192753603	 1.8475705036	-0.7573171854	 0.127804
H	-0.342170468	 1.9564885469	 0.912136025	 0.128923
H	-0.4027987214	-1.0068646813	-2.104654356	 0.092834
H	 1.3298909472	-2.7739863809	-0.5015450539	 0.100089
H	 2.1125646908	-1.2213181351	-0.961536582	 0.102507
H	 1.5027522729	-0.8211548156	 1.6256962717	 0.085658
H	-2.9732217384	-0.8306060109	 0.9725531597	 0.098624
H	-2.9040827122	-0.5530582366	-0.7775366171	 0.112998
H	-2.5344035961	-3.0890936148	 0.3859696139	 0.293909
64.5489	114.1564	197.5231	206.1864	248.5281	285.998	352.9839	397.9959	481.2529	571.6545	599.7036	700.5953	753.7787	807.0982	829.9669	892.6333	910.148	929.7418	943.9682	968.2399	999.9214	1047.2511	1063.5677	1094.4151	1102.8564	1127.7369	1151.8289	1165.3445	1223.8266	1231.8324	1269.0215	1289.3569	1326.2699	1375.2424	1412.9121	1419.6775	1481.4597	1486.6891	1490.2706	1492.6588	1507.8397	2985.1594	3023.2245	3047.8676	3075.9368	3083.665	3094.1442	3108.4372	3139.0801	3195.5255	3808.2707
CC12C3CC1OC23CO	C[C@@]12[C@H]3C[C@@H]1O[C@@]23CO	
InChI=1S/C7H10O2/c1-6-4-2-5(6)9-7(4,6)3-8/h4-5,8H,2-3H2,1H3	InChI=1S/C7H10O2/c1-6-4-2-5(6)9-7(4,6)3-8/h4-5,8H,2-3H2,1H3/t4-,5+,6-,7-/m1/s1
