12
gdb 132030	2.46888	1.87178	1.06599	3.4012	60.88	-0.2257	-0.0497	0.176	989.2564	0.077891	-513.948257	-513.941044	-513.9401	-513.980002	26.927	
N	 0.0162705093	 1.4262634672	 0.1619644011	-0.592714
C	-0.0354102732	 0.0502526373	 0.058755863	-0.046224
C	-1.1533865884	-0.6970512413	 0.0288616422	 0.325157
F	-2.3807330234	-0.2162448489	 0.0282592207	-0.044637
O	-1.1572466552	-2.0449013927	-0.0096515027	-0.1774
C	 0.0558831432	-2.6491632469	-0.0169395132	 0.121997
N	 1.1905145425	-2.076607277	-0.0093144275	-0.30497
C	 1.2517422717	-0.6694543727	 0.0085975904	 0.38384
O	 2.303412402	-0.0625711305	-0.0244971067	-0.357392
H	 0.9329688381	 1.7721539821	-0.0940728119	 0.272393
H	-0.7509164327	 1.9390395672	-0.2454101074	 0.25773
H	-0.0619070439	-3.7271852339	-0.033647258	 0.162219
111.1312	197.9187	265.7163	300.582	359.4395	368.4962	506.3996	520.8115	528.7413	574.6913	594.4677	640.783	719.5432	797.5284	885.3245	941.258	977.9233	1081.1534	1209.4552	1256.2438	1305.5243	1414.8838	1421.006	1610.9422	1651.0968	1749.2498	1781.9556	3208.3253	3544.3604	3665.0453
NC1=C(F)OC=NC1=O	Nc1c(F)ocnc1=O	
InChI=1S/C4H3FN2O2/c5-3-2(6)4(8)7-1-9-3/h1H,6H2	InChI=1S/C4H3FN2O2/c5-3-2(6)4(8)7-1-9-3/h1H,6H2
