16
gdb 26929	2.49009	1.63185	0.99186	3.6341	75.28	-0.203	-0.0286	0.1743	1136.0659	0.124766	-437.957865	-437.949732	-437.948788	-437.990355	30.543	
C	-0.0508485055	 1.5179684189	-0.0034740481	-0.508931
C	-0.0133808178	 0.0213373171	-0.0072417538	 0.162236
C	-0.039196213	-0.7911868472	-1.1006863796	-0.167465
N	 0.0123529657	-2.1303578241	-0.6780077283	-0.346667
C	 0.0700394348	-2.1611590477	 0.6670890911	 0.414794
O	 0.1277505401	-3.2808137968	 1.3657840892	-0.41071
C	 0.0573901849	-0.8452681389	 1.1501500255	-0.03043
C	 0.1115318631	-0.6313642338	 2.5568698254	 0.063907
O	 0.1694785288	-1.5656826764	 3.3707650684	-0.38088
H	 0.8407287701	 1.9446497298	 0.4707174502	 0.130943
H	-0.1040603863	 1.9096690487	-1.0229269688	 0.125112
H	-0.919241885	 1.9003990099	 0.54558033	 0.13094
H	-0.0895488499	-0.5567134128	-2.1512583392	 0.128254
H	 0.0077575569	-2.9434491775	-1.2701307098	 0.272965
H	 0.1595001855	-2.9571602254	 2.3088098581	 0.328984
H	 0.1010186775	 0.4104529961	 2.9277174696	 0.086949
137.9346	169.8171	201.2754	202.7542	274.6232	298.418	336.089	471.4809	504.7988	523.1167	598.7555	619.1519	692.6332	745.4582	764.8106	827.916	856.9057	1002.4812	1029.4428	1065.4001	1072.8861	1087.5056	1215.6025	1299.841	1315.8956	1371.5731	1388.5228	1419.0264	1467.5366	1481.6743	1496.9341	1579.454	1606.5732	1619.9887	1707.292	2953.9187	3026.1792	3074.2823	3110.5422	3202.7726	3269.8165	3674.7996
CC1=CNC(O)=C1C=O	Cc1c[nH]c(O)c1C=O	
InChI=1S/C6H7NO2/c1-4-2-7-6(9)5(4)3-8/h2-3,7,9H,1H3	InChI=1S/C6H7NO2/c1-4-2-7-6(9)5(4)3-8/h2-3,7,9H,1H3
