16
gdb 47166	2.36306	1.97736	1.16369	2.2386	69.31	-0.2536	-0.0357	0.218	1011.2604	0.125677	-437.896834	-437.889582	-437.888638	-437.928966	27.58	
O	 0.0126740538	-0.0663744298	-0.321532565	-0.30292
C	-0.0519798616	 1.0998764148	-0.0272864504	 0.379021
C	-1.3532945748	 1.8077445373	 0.3812355514	-0.316103
C	-1.1971551305	 3.2846948807	 0.8270085135	-0.184217
N	-0.0422389112	 3.4937951484	 1.7287625589	-0.302444
C	 0.9651803589	 2.9154272047	 1.2569772776	 0.452862
O	 2.2027783925	 2.6816534142	 1.7875507006	-0.269749
C	 2.4790919533	 1.6724538668	 0.7452848171	-0.117524
C	 1.1490100947	 2.0309584776	 0.0547760405	-0.278983
H	-2.0671116804	 1.7216508059	-0.4454582075	 0.137414
H	-1.7676525199	 1.2139973515	 1.2044737109	 0.151967
H	-1.1096962387	 3.9396985476	-0.0513445576	 0.111159
H	-2.1020204604	 3.5950559498	 1.3542382307	 0.122775
H	 3.3960404569	 1.9092940488	 0.2045481562	 0.133404
H	 2.5263691997	 0.6726504874	 1.1813617685	 0.14621
H	 1.2537303179	 2.5782856543	-0.8880619353	 0.137129
63.5385	165.4236	227.4643	286.1342	355.9959	468.7204	499.4928	518.0172	587.9789	663.8543	713.2998	736.3484	856.1809	918.2567	935.4119	965.2415	983.2675	1014.6408	1062.6769	1088.3639	1134.3336	1145.4836	1157.3509	1194.1768	1207.6812	1253.6997	1296.3631	1321.6215	1355.0475	1365.2926	1435.4657	1505.3232	1511.2418	1813.5291	1828.422	3008.1242	3045.8605	3064.1742	3081.0786	3086.506	3097.4829	3147.4703
O=C1CCN=C2OCC12	O=C1CC[N][C]2OC[C@@H]12	
InChI=1S/C6H7NO2/c8-5-1-2-7-6-4(5)3-9-6/h4H,1-3H2	InChI=1S/C6H7NO2/c8-5-1-2-7-6-4(5)3-9-6/h4H,1-3H2/t4-/m0/s1
