18
gdb 84625	2.30497	1.84509	1.49532	3.2709	76.22	-0.2297	-0.0174	0.2123	973.8489	0.149332	-401.944751	-401.937229	-401.936285	-401.976463	29.893	
C	-0.1120239672	 1.5580092555	 0.0317549761	-0.398163
C	 0.0161489678	 0.0254238914	 0.008350835	-0.051021
C	 0.7760113031	-0.4593242746	-1.214662805	-0.070947
C	 1.8988764511	-1.1709907175	-1.0798394794	-0.079785
C	 2.3245535248	-1.5509743169	 0.3327565262	-0.169939
N	 1.1342986252	-1.9462119261	 1.1510772586	-0.318672
C	 0.7516229462	-0.5030061214	 1.2703765751	-0.130813
C	 2.2624442646	-0.2252264188	 1.1231205398	 0.472404
O	 3.0303329992	 0.6091147178	 1.4895550273	-0.319394
H	 0.8721727983	 2.0339670804	 0.0701962106	 0.142842
H	-0.6308664487	 1.9195454595	-0.8615011228	 0.117233
H	-0.6825983527	 1.8852612865	 0.9070998226	 0.120484
H	-1.0019870189	-0.394340975	-0.0039867179	 0.083009
H	 0.3883459192	-0.1887850127	-2.1933167879	 0.100336
H	 2.5024538698	-1.4799299739	-1.926965259	 0.104153
H	 3.1956723899	-2.2040261148	 0.3929435372	 0.091329
H	 0.4623407165	-2.4834537198	 0.6048858425	 0.215344
H	 0.2485758615	-0.2200414697	 2.199213921	 0.091601
128.4458	150.6715	233.2706	278.749	357.1442	400.8108	457.1734	495.8182	568.0244	589.6604	689.8765	741.1158	794.7074	803.6493	878.8429	902.1237	954.2534	968.4688	979.386	1003.4683	1028.2983	1045.9522	1091.6314	1111.5413	1126.6289	1133.3567	1183.9071	1249.2885	1256.8619	1299.3149	1316.86	1337.4471	1366.1184	1383.8498	1412.7197	1496.0951	1499.3091	1678.7527	1918.7871	2975.1025	3035.9839	3075.6713	3104.1612	3111.3779	3117.2623	3159.5251	3188.6563	3468.9883
CC1C=CC2NC1C2=O	C[C@H]1C=C[C@@H]2N[C@H]1C2=O	
InChI=1S/C7H9NO/c1-4-2-3-5-7(9)6(4)8-5/h2-6,8H,1H3	InChI=1S/C7H9NO/c1-4-2-3-5-7(9)6(4)8-5/h2-6,8H,1H3/t4-,5-,6+/m0/s1
