17
gdb 39706	4.39631	1.55048	1.51764	2.7603	74.69	-0.2224	0.0686	0.291	909.3901	0.138477	-380.737003	-380.730865	-380.729921	-380.767277	25.972	
C	-0.0624973912	 1.5490012576	-0.0161920576	-0.328873
N	 1.1997214451	 0.7716619152	 0.0525353008	-0.37502
C	-0.0786292218	 0.0772587812	 0.0122472767	 0.421635
C	-0.485474485	-0.9747826897	 1.0355268441	-0.100787
C	-1.9691931038	-1.2962444736	 0.8130453013	-0.096827
C	-1.997083064	-1.2859132341	-0.7385056132	-0.098356
C	-1.6255555056	-2.5202961001	 0.0232244786	-0.027212
N	-0.1632294734	-2.0853942055	-0.0006140586	-0.184026
C	-0.5207975795	-0.9642357001	-1.0083219252	-0.12459
H	-0.290735276	 2.1222224446	 0.8784379913	 0.121029
H	-0.3222982811	 2.0450307135	-0.9486734697	 0.111901
H	 1.6497913085	 0.7476219641	-0.8597795526	 0.233324
H	-0.0358902508	-1.0356672323	 2.0252329156	 0.087271
H	-2.8415982558	-1.0713477089	 1.4119094876	 0.093191
H	-2.8885930235	-1.0510577465	-1.3045557259	 0.092968
H	-1.9860929153	-3.5403505049	 0.0223323189	 0.098778
H	-0.1169882968	-1.0189338906	-2.0203110723	 0.075593
149.8366	253.242	299.4555	475.213	557.0146	580.6271	750.3239	785.3251	805.0553	808.7029	812.0386	873.3743	887.361	906.4177	910.7012	916.9581	935.1168	964.9656	978.2002	983.043	1020.8772	1031.2807	1061.903	1064.1707	1096.8243	1124.2808	1143.9019	1175.9879	1204.5228	1219.6711	1252.3752	1258.2136	1269.3823	1285.78	1355.0379	1445.0833	1520.8121	3102.0226	3104.3865	3133.8076	3185.477	3193.1205	3197.8902	3212.8676	3491.7609
C1NC11C2C3C4C3N2C14	C1N[C@]21[C@H]1[C@H]3[C@@H]4[C@H]3N1[C@H]24	
InChI=1S/C7H8N2/c1-7(8-1)5-2-3-4(2)9(5)6(3)7/h2-6,8H,1H2	InChI=1S/C7H8N2/c1-7(8-1)5-2-3-4(2)9(5)6(3)7/h2-6,8H,1H2/t2-,3+,4-,5+,6-,7+
