20
gdb 101494	2.47094	0.94602	0.79919	4.8409	85.28	-0.2599	-0.0384	0.2215	1519.3366	0.169078	-399.351969	-399.341366	-399.340421	-399.387901	38.154	
C	-0.8608813933	 1.7307739111	 0.2731366971	-0.389237
C	-0.4454475076	 0.2645066935	 0.1452147556	-0.162499
C	 0.5228793313	 0.0060574453	-1.0182758966	 0.033401
C	 0.9894288776	-1.4588602159	-1.0504874176	-0.394067
N	-0.1517106467	 0.33507202	-2.2693793062	-0.254269
C	 0.525562697	 0.6988309192	-3.2843346521	 0.255704
N	 1.8967791935	 0.804552042	-3.4348729097	-0.552605
C	-0.2060020384	 1.00800987	-4.5031398791	 0.270914
N	-0.7597459916	 1.2739206436	-5.482077248	-0.319253
H	 0.0057534862	 2.3746630167	 0.4651822762	 0.103641
H	-1.3407289897	 2.0768330307	-0.6467406806	 0.135397
H	-1.5658866215	 1.8705605797	 1.0979822391	 0.113141
H	 0.0299209384	-0.0744659559	 1.0738825326	 0.088301
H	-1.3320947325	-0.36186198	-0.0089305888	 0.108252
H	 1.4078247143	 0.6516482944	-0.8583539873	 0.050006
H	 0.1317021356	-2.1218338937	-1.1968352646	 0.134712
H	 1.6960967083	-1.6360643863	-1.8665582624	 0.119404
H	 1.4773356467	-1.7252036873	-0.1078477762	 0.116862
H	 2.4503361577	 0.834293853	-2.5931067192	 0.268975
H	 2.2341499246	 1.3872863598	-4.1850350422	 0.273219
54.1286	79.1471	129.1804	135.7198	207.4433	228.1389	235.0359	273.1911	315.167	379.3737	425.926	429.7717	455.3245	491.4628	549.7745	608.2271	722.6735	778.3208	830.2372	846.7347	923.9132	982.1678	1009.3595	1031.3313	1112.0844	1129.0435	1156.5995	1196.3003	1294.8172	1309.7734	1330.6288	1366.6177	1397.3566	1405.3128	1410.1287	1475.6243	1490.5241	1497.6796	1501.5522	1509.2991	1634.4579	1717.8176	2358.5912	2904.9268	3028.0356	3030.7652	3039.4731	3067.9371	3098.1283	3111.5534	3117.7569	3118.5568	3584.7639	3698.8353
CCC(C)N=C(N)C#N	CC[C@@H](C)N=C(N)C#N	
InChI=1S/C6H11N3/c1-3-5(2)9-6(8)4-7/h5H,3H2,1-2H3,(H2,8,9)	InChI=1S/C6H11N3/c1-3-5(2)9-6(8)4-7/h5H,3H2,1-2H3,(H2,8,9)/t5-/m1/s1
