13
gdb 130483	3.98647	1.73463	1.20869	4.5972	76.91	-0.2321	-0.0866	0.1455	923.6409	0.092302	-415.605443	-415.599603	-415.598658	-415.635548	23.467	
O	-0.0338745963	 1.2409405035	 0.0094805782	-0.211258
C	 1.0841915113	 1.9893927096	 0.0024610663	 0.098942
C	 2.346086926	 1.4914715573	-0.0129231983	-0.30586
C	 2.4606286919	 0.0867238478	-0.0218730414	 0.32173
C	 3.4295957833	-0.8803579037	-0.0369611728	-0.336264
C	 2.7071326364	-2.1285783564	-0.0365918885	-0.000422
N	 1.3902163603	-2.0212810289	-0.0228687034	-0.312214
C	 1.1815084685	-0.6599693279	-0.0132497988	 0.369
N	-0.007672099	-0.1372109099	 0.0015525861	-0.145553
H	 0.8247309606	 3.0401804897	 0.0108889194	 0.155628
H	 3.1928492402	 2.1666329546	-0.0176460306	 0.130459
H	 4.5019373025	-0.7563169482	-0.0470237714	 0.113183
H	 3.1701204944	-3.1104474775	-0.0466909748	 0.122629
214.1669	245.3707	402.247	440.3119	540.8323	564.9479	605.9119	623.571	760.6248	786.2244	791.276	838.2603	882.1055	892.8966	937.9146	952.2725	971.9145	1024.0794	1043.6715	1220.1151	1245.2428	1248.6602	1330.3092	1346.5831	1403.2283	1462.3178	1583.3581	1620.018	1658.3974	3191.2301	3206.976	3232.3466	3248.3222
O1C=CC2=CC=NC2=N1	o1ccc2ccnc2n1	
InChI=1S/C6H4N2O/c1-3-7-6-5(1)2-4-9-8-6/h1-4H	InChI=1S/C6H4N2O/c1-3-7-6-5(1)2-4-9-8-6/h1-4H
