17
gdb 48613	3.43849	1.47182	1.22564	2.6423	72.49	-0.2486	-0.0423	0.2063	1018.2526	0.136242	-421.81801	-421.810661	-421.809717	-421.849845	28.833	
O	-0.6445539772	 0.7766095222	-0.7271767704	-0.252827
C	 0.2484565082	 0.8252329683	 0.0792738332	 0.090341
C	 1.3848535236	 1.8144164197	 0.0297218295	 0.296062
C	 1.3841470359	 2.9140190909	 1.1336999445	-0.27769
C	 2.9043253546	 2.6348194164	 1.082531333	 0.038481
O	 2.6064635609	 1.2774570102	 0.6123417019	-0.325954
C	 3.5214169741	 3.4106553806	-0.0625152718	-0.059219
C	 2.9214426729	 3.2811240151	-1.245802583	-0.068795
C	 1.6986817366	 2.3948032915	-1.3567004246	-0.294604
H	 0.2959846379	 0.1460747309	 0.9595024946	 0.090393
H	 1.0216106173	 3.9096100103	 0.8762178884	 0.115516
H	 0.9252911668	 2.5498532656	 2.0555750654	 0.11306
H	 3.4875765876	 2.6332316088	 2.0046066841	 0.082142
H	 4.3954694041	 4.0316250337	 0.0986181512	 0.097221
H	 3.28222511	 3.7802414016	-2.1400271555	 0.101517
H	 1.8746859042	 1.5765377068	-2.066104286	 0.126404
H	 0.8328765124	 2.9476049275	-1.7392640544	 0.127951
81.2081	187.3273	224.5345	320.5092	353.2703	422.9475	454.4659	502.3628	580.8018	690.1063	719.0839	735.8565	850.7681	864.8111	909.1923	938.6113	942.619	960.8608	970.8405	984.4215	1014.5597	1073.842	1082.7339	1163.871	1176.2827	1218.8358	1229.5627	1249.0213	1268.0176	1335.8944	1360.2145	1384.4582	1403.1062	1461.3554	1482.3686	1693.8281	1827.3491	2892.9976	3034.048	3068.3487	3071.8744	3103.372	3143.3531	3170.7016	3198.7676
O=CC12CC(O1)C=CC2	O=C[C@@]12C[C@@H](O1)C=CC2	
InChI=1S/C7H8O2/c8-5-7-3-1-2-6(4-7)9-7/h1-2,5-6H,3-4H2	InChI=1S/C7H8O2/c8-5-7-3-1-2-6(4-7)9-7/h1-2,5-6H,3-4H2/t6-,7+/m0/s1
