23
gdb 72405	2.82044	1.41845	1.3179	1.3327	83.9	-0.2508	0.0727	0.3235	1116.3795	0.207744	-388.324175	-388.31574	-388.314795	-388.356248	35.067	
C	-0.0018283037	 1.4811674004	 0.0216913465	-0.478735
C	-0.0068561633	-0.0386304749	 0.0026327957	 0.329797
C	 0.6354320536	-0.6627311297	-1.2680241193	-0.236533
C	 0.0891800197	-2.1214362869	-1.2808816848	-0.270909
C	-0.7956949202	-2.1715665332	-0.0116263078	 0.422379
O	-1.7804934508	-3.1800182952	-0.0086832979	-0.502783
C	 0.1289673315	-2.1529517383	 1.229809964	-0.270924
C	 0.675156122	-0.6941837622	 1.2362214323	-0.236526
C	-1.3791395149	-0.7490753805	 0.0154801039	-0.275032
H	 1.0224347424	 1.8726715131	 0.010920356	 0.110201
H	-0.5212820421	 1.8927788926	-0.8508317094	 0.109901
H	-0.4941204394	 1.8704498538	 0.9198354499	 0.109906
H	 0.3161946962	-0.1166403257	-2.1617028995	 0.093292
H	 1.728382027	-0.6138689106	-1.2353680284	 0.090835
H	-0.5319165711	-2.3148288585	-2.1603924276	 0.100038
H	 0.881153378	-2.8779675889	-1.261129495	 0.083242
H	-1.3336335877	-4.0328453093	-0.0262640731	 0.272385
H	-0.4640372904	-2.3685579287	 2.1234335171	 0.100035
H	 0.9195955683	-2.9084584639	 1.1660194246	 0.083244
H	 1.7665385143	-0.6441063865	 1.1701085502	 0.090838
H	 0.3846915056	-0.1708003992	 2.1530032914	 0.093293
H	-1.9653420407	-0.5509719844	 0.9184237715	 0.091027
H	-1.9936190944	-0.5286195231	-0.8631550502	 0.09103
158.3517	224.0263	239.8966	247.2118	294.1929	294.9365	394.2184	408.5473	440.8266	476.5569	534.2	563.6966	609.7377	765.7504	792.7894	807.2258	856.5038	903.3406	908.2031	955.7169	965.0904	967.2406	987.9784	991.0899	1030.1418	1073.6022	1074.6313	1140.1555	1160.0277	1179.7249	1216.5337	1235.8661	1240.0047	1259.2691	1264.1996	1284.3176	1286.0048	1314.9338	1323.2246	1367.9485	1396.7816	1413.7105	1481.3411	1491.3699	1494.6203	1495.902	1497.8118	1501.5713	1528.9796	3019.9581	3034.1302	3037.7561	3043.4535	3043.6616	3052.5125	3071.9175	3075.7331	3083.4362	3089.8009	3091.2351	3098.3196	3099.4365	3807.5327
CC12CCC(O)(CC1)C2	C[C@@]12CC[C@@](O)(CC1)C2	
InChI=1S/C8H14O/c1-7-2-4-8(9,6-7)5-3-7/h9H,2-6H2,1H3	InChI=1S/C8H14O/c1-7-2-4-8(9,6-7)5-3-7/h9H,2-6H2,1H3/t7-,8-
