19
gdb 110399	4.61737	0.96457	0.91615	2.1103	75.66	-0.2517	0.0664	0.318	1305.3833	0.159087	-422.934594	-422.926402	-422.925458	-422.967474	31.717	
O	 0.2341422199	 0.5897969994	 1.0724942111	-0.423052
C	-0.0725095627	 0.3474580035	-0.2954965106	-0.112646
C	-1.449638745	-0.2803624547	-0.3486321188	 0.006221
C	-1.9087409802	-0.9981943461	-1.6363790377	-0.072577
C	-1.0925910038	-2.3008921305	-1.3134551995	-0.104814
C	-2.3401969687	-3.1817612011	-1.5243179476	 0.146592
O	-2.4394751556	-4.4326537459	-0.8939892188	-0.449211
C	-2.8982407396	-1.9191175599	-0.8408658151	-0.101311
C	-1.6236752999	-1.7553881738	 0.0688441164	-0.065561
H	 1.0968294779	 1.0120967624	 1.1175273547	 0.286519
H	-0.0722957895	 1.2852302796	-0.875490596	 0.083243
H	 0.6707955515	-0.3216660375	-0.7569090106	 0.08319
H	-2.1872086517	 0.4034289733	 0.0885890683	 0.071301
H	-2.0861920886	-0.5869416599	-2.6316581347	 0.070607
H	-0.055325393	-2.5052147048	-1.5809451841	 0.073212
H	-2.6457117832	-3.3420860067	-2.5631906826	 0.081573
H	-2.1811925655	-4.3281860302	 0.0283631094	 0.281767
H	-3.9223317768	-1.6657505637	-0.5614489706	 0.071508
H	-1.4594804055	-2.1937884534	 1.054242387	 0.07344
75.6368	153.7658	189.7034	235.1945	261.0714	297.2192	374.8024	426.5504	535.1468	583.7181	735.7764	757.3023	839.1328	840.3331	856.0895	888.7502	915.189	938.8606	978.8241	1000.6942	1036.7384	1064.0854	1083.7312	1091.4599	1116.6233	1132.8724	1143.6475	1146.5921	1164.4741	1176.4381	1209.7387	1232.3062	1259.3633	1262.2856	1285.2055	1302.3213	1312.0586	1394.7327	1446.0508	1466.4812	1519.0925	2962.048	2991.2647	3040.5825	3065.7572	3092.8793	3097.6513	3103.0072	3114.9661	3803.8192	3828.9786
OCC1C2C3C(O)C2C13	OC[C@H]1[C@H]2[C@@H]3[C@@H](O)[C@H]2[C@H]13	
InChI=1S/C7H10O2/c8-1-2-3-5-4(2)6(3)7(5)9/h2-9H,1H2	InChI=1S/C7H10O2/c8-1-2-3-5-4(2)6(3)7(5)9/h2-9H,1H2/t2-,3-,4+,5-,6+,7-/m1/s1
