18
gdb 99066	3.68281	0.83819	0.75336	2.1748	76.72	-0.2541	0.0343	0.2884	1551.0314	0.144457	-439.09552	-439.084896	-439.083952	-439.132553	36.529	
C	 0.0174634608	 1.3868895223	-0.1485598051	-0.330139
N	 0.1226519709	-0.0445187678	 0.0350272976	-0.357439
C	 0.680088721	-0.5985458558	 1.141137463	 0.533172
O	 1.1329131938	 0.0060589824	 2.0900885519	-0.416461
O	 0.6522250307	-1.9565924804	 1.0283232388	-0.286882
C	 1.2235634967	-2.6820243438	 2.1416355483	-0.046569
C	 0.1427224825	-2.9688945264	 3.1870246376	-0.399912
C	 1.8245438158	-3.8997756501	 1.6069974124	 0.326386
C	 2.3181973364	-4.9186213925	 1.2061320791	-0.447434
H	 0.5910635094	 1.7237500561	-1.0196291696	 0.127515
H	-1.0256627701	 1.6978057265	-0.275065289	 0.126714
H	 0.422532931	 1.8631754422	 0.7448237062	 0.170809
H	-0.191476699	-0.6738862478	-0.684346048	 0.255767
H	 1.9950496085	-2.0464015696	 2.5868930773	 0.141998
H	 0.5666162588	-3.5447864595	 4.0139859097	 0.130511
H	-0.2430114594	-2.0239047456	 3.5762044377	 0.14078
H	-0.6737494462	-3.5433337374	 2.7424739339	 0.130486
H	 2.7630652284	-5.8131774828	 0.8458880383	 0.200698
40.4945	52.8927	77.7367	123.4098	143.1177	180.8797	233.8359	269.1405	335.548	380.734	431.1292	476.0004	545.4476	569.5505	621.3765	675.0535	722.5219	776.2191	845.0746	911.2978	973.4666	1050.5512	1106.4396	1138.1337	1158.784	1163.1895	1177.3409	1252.2129	1346.0473	1366.3771	1400.9907	1446.9114	1486.6972	1494.3285	1498.0406	1500.1258	1568.9306	1810.7108	2244.9878	3026.1865	3051.7569	3070.938	3076.318	3131.3113	3140.3407	3154.6935	3504.0066	3658.1295
CNC(=O)OC(C)C#C	CNC(=O)O[C@@H](C)C#C	
InChI=1S/C6H9NO2/c1-4-5(2)9-6(8)7-3/h1,5H,2-3H3,(H,7,8)	InChI=1S/C6H9NO2/c1-4-5(2)9-6(8)7-3/h1,5H,2-3H3,(H,7,8)/t5-/m0/s1
