21
gdb 60649	3.28369	1.0241	0.89649	3.6071	80.57	-0.2262	0.0614	0.2876	1377.0883	0.183493	-420.433292	-420.423736	-420.422792	-420.468034	35.555	
C	-0.3313260188	-0.4943702717	-1.4223380803	-0.358592
N	 0.2995540807	-0.0404467236	-0.1967446425	-0.113895
C	 0.4028598658	-0.9350777299	 0.9383786232	 0.075695
C	-0.8448500439	-1.7004461179	 1.4606750454	-0.248768
C	 0.1049463883	-2.8774189438	 1.8177545277	-0.206666
C	 1.1463881551	-2.2952325233	 0.8220350368	-0.248007
C	 0.7889051282	 1.2443356548	-0.0638484377	 0.443531
N	 0.5940528898	 2.0703741134	-1.1685353228	-0.574663
O	 1.3950260938	 1.636806366	 0.9200365354	-0.408679
H	-1.3703397963	-0.1462817319	-1.5256937233	 0.117116
H	 0.2364417211	-0.1623962316	-2.2963966582	 0.142565
H	-0.3519349791	-1.5852795036	-1.4397500522	 0.135842
H	 0.8455826837	-0.3420484785	 1.7375564729	 0.130934
H	-1.4264689862	-1.2346224866	 2.2598928265	 0.101467
H	-1.5252528707	-1.9771966262	 0.6489179294	 0.095283
H	 0.4541534448	-2.8173219624	 2.8518436016	 0.109387
H	-0.2577440929	-3.8898925685	 1.6311215296	 0.097928
H	 1.0382415693	-2.7445053413	-0.170381273	 0.097039
H	 2.2030987982	-2.31284164	 1.0977997257	 0.105818
H	-0.2475937092	 1.9600972085	-1.7125446323	 0.248509
H	 0.8122656483	 3.0297868681	-0.945241322	 0.258157
64.9181	85.7818	126.1962	157.1611	183.0855	255.8561	329.8014	383.8408	392.7269	437.8489	520.9242	571.8029	614.016	631.1896	743.4249	777.4918	788.5958	871.8625	907.1648	923.3476	952.5006	985.9925	1034.3466	1076.1398	1106.4257	1120.3752	1147.1035	1195.828	1208.9054	1246.8424	1250.3173	1261.0388	1269.9298	1304.492	1310.7622	1383.8814	1436.6094	1476.5624	1477.3075	1489.2236	1499.109	1510.7426	1528.0473	1625.1292	1778.2484	2986.1654	3050.703	3054.4569	3067.3909	3077.8536	3100.0755	3107.8696	3121.6609	3128.4696	3137.774	3578.7192	3690.1365
CN(C1CCC1)C(N)=O	CN(C1CCC1)C(=O)N	
InChI=1S/C6H12N2O/c1-8(6(7)9)5-3-2-4-5/h5H,2-4H2,1H3,(H2,7,9)	InChI=1S/C6H12N2O/c1-8(6(7)9)5-3-2-4-5/h5H,2-4H2,1H3,(H2,7,9)
