13
gdb 9156	8.14576	0.79859	0.73065	3.6912	81.	-0.255	-0.0564	0.1986	1462.496	0.093273	-361.435061	-361.426175	-361.425231	-361.469333	30.049	
C	 0.0467453261	 1.4530125695	 0.098516571	-0.341362
N	 0.1557317677	 0.0114713649	-0.0097834395	-0.309662
C	 0.4015816574	-0.6173214583	-1.194721766	 0.197673
O	 0.5517867764	-0.0478243179	-2.2612459881	-0.349525
C	 0.4718641529	-2.067334007	-1.0772861339	 0.300156
C	 0.5434511325	-3.276478597	-1.0538121672	-0.134786
C	 0.6216650177	-4.6324500277	-1.0156256683	 0.280132
C	 0.6907763106	-5.8373911734	-0.979450644	-0.543834
H	 0.8100408406	 1.8582550154	 0.7717004273	 0.132462
H	 0.1939587557	 1.8679406125	-0.8988789596	 0.176523
H	-0.941370466	 1.7486544051	 0.4676076201	 0.132458
H	 0.0482130044	-0.5589682576	 0.8131089428	 0.258182
H	 0.7520670941	-6.8973426785	-0.9504742847	 0.201584
68.7662	72.5085	80.9071	163.2964	217.5912	307.5399	310.4633	424.1155	480.9015	499.7719	556.7719	563.4974	601.8622	619.0893	760.5984	812.3998	989.3918	1143.401	1150.9329	1173.9453	1260.6955	1440.3347	1489.4323	1498.0836	1557.739	1753.8845	2177.8689	2346.6401	3030.65	3084.2293	3157.9182	3501.881	3644.8074
CNC(=O)C#CC#C	CNC(=O)C#CC#C	
InChI=1S/C6H5NO/c1-3-4-5-6(8)7-2/h1H,2H3,(H,7,8)	InChI=1S/C6H5NO/c1-3-4-5-6(8)7-2/h1H,2H3,(H,7,8)
