12
gdb 130726	3.82916	1.23847	0.9358	1.529	74.69	-0.2647	-0.095	0.1698	1131.5342	0.077801	-431.635958	-431.628773	-431.627829	-431.667814	26.755	
O	-0.0636116049	-0.0952762986	 0.0044330098	-0.374055
C	 0.0233231437	 1.114481252	 0.007957923	 0.484387
N	-1.1317523718	 1.9249044003	 0.028783966	-0.266154
N	-1.2153670246	 3.2602661946	 0.0367511946	-0.04372
N	-0.1486235015	 3.9509510064	 0.0253320248	-0.255774
C	 1.0862206806	 3.2943078522	 0.0051013177	 0.22655
C	 1.2111278783	 1.9360864168	-0.00351837	-0.33614
C	 2.2187055038	 4.1559086134	-0.0057872806	 0.271981
C	 3.1829676615	 4.8744957309	-0.0150949648	-0.357717
H	-2.029294334	 1.4553089708	 0.0392795818	 0.287582
H	 2.1767928328	 1.4478527596	-0.018902317	 0.147722
H	 4.0311871861	 5.5146174515	-0.0231990055	 0.215338
124.9327	146.865	166.3035	326.6801	420.7152	470.1281	470.5923	552.407	560.1115	656.0217	669.5124	694.7094	752.7272	758.4975	783.0694	919.9507	935.7215	1008.2223	1093.4003	1199.3588	1222.2231	1330.0089	1387.8407	1533.3458	1605.891	1812.2057	2238.4387	3226.7053	3498.3565	3585.9278
O=C1NN=NC(=C1)C#C	O=C1N[N]N=C([CH]1)C#C	
InChI=1S/C5H3N3O/c1-2-4-3-5(9)7-8-6-4/h1,3H,(H,6,7,9)	InChI=1S/C5H3N3O/c1-2-4-3-5(9)7-8-6-4/h1,3H,(H,6,7,9)
