16
gdb 77128	2.85399	1.29742	1.10376	3.7878	65.73	-0.2555	-0.0321	0.2234	1121.7267	0.121836	-475.054132	-475.044724	-475.04378	-475.089789	32.742	
C	 0.0294773459	 1.481677684	 0.0426352242	-0.489015
C	-0.1095530495	-0.0231114507	 0.0458688532	 0.377593
O	-0.328014977	-0.6706129977	 1.0440401733	-0.301804
C	-0.0162522846	-0.698292656	-1.3172461572	-0.13524
N	-0.0713700645	-2.1572084362	-1.2952825296	-0.307294
C	-1.3762583911	-2.2615439673	-1.7264322516	 0.370903
O	-2.1695909381	-3.1602260286	-1.7571599357	-0.342189
C	-1.4200355872	-0.7425602407	-2.0660304756	-0.007525
O	-2.4858638829	 0.0077675113	-1.5721587987	-0.413168
H	 0.9639491289	 1.7896363615	-0.4383961925	 0.138599
H	-0.7951214411	 1.905939254	-0.5421969556	 0.165446
H	-0.0082401744	 1.8627698244	 1.0635810614	 0.147187
H	 0.8064617118	-0.2834339669	-1.90891938	 0.09809
H	 0.4230797831	-2.7803377038	-0.6717211026	 0.262551
H	-1.3196431669	-0.5230460254	-3.1314208278	 0.127222
H	-2.8635331722	-0.4498287718	-0.8117690053	 0.308644
22.6317	69.9236	130.6982	144.486	186.756	259.9143	292.6874	351.7624	388.5725	488.1825	501.8068	599.4584	615.6238	723.8214	763.5	805.3589	896.5486	919.9156	956.8048	1033.4717	1060.9853	1125.6673	1157.2581	1197.1574	1199.8884	1248.6317	1308.6386	1348.1004	1371.2783	1386.6383	1425.4925	1465.2467	1475.7786	1810.6805	1901.1122	3037.2386	3055.2801	3094.9678	3102.7393	3155.3664	3602.3984	3797.3364
CC(=O)C1NC(=O)C1O	CC(=O)[C@H]1NC(=O)[C@H]1O	
InChI=1S/C5H7NO3/c1-2(7)3-4(8)5(9)6-3/h3-4,8H,1H3,(H,6,9)	InChI=1S/C5H7NO3/c1-2(7)3-4(8)5(9)6-3/h3-4,8H,1H3,(H,6,9)/t3-,4+/m1/s1
