21
gdb 40967	3.26131	1.281	1.14263	2.4703	77.66	-0.2435	0.0696	0.3131	1156.6651	0.184442	-424.217126	-424.209123	-424.208179	-424.249783	31.407	
C	 0.0344883927	 1.5150003041	-0.0962429895	-0.13083
O	 1.3078632737	 1.5780607835	 0.5789308146	-0.274942
C	 1.4823013816	 0.1507630224	 0.4821881588	-0.122016
C	 0.0221736328	-0.0218350934	-0.0307412422	 0.364404
C	-0.9593655374	-0.6362959376	 0.9672192354	-0.249554
C	-0.8209358729	-2.1647363611	 1.0009139551	-0.215564
C	-0.923555787	-2.7255341558	-0.4231747347	-0.19426
C	 0.0676592365	-2.0032761412	-1.3353815123	-0.081368
O	-0.1206178621	-0.592864141	-1.3149277134	-0.296293
H	-0.7530801482	 2.0416417239	 0.4552573964	 0.098453
H	 0.086049766	 1.8912909665	-1.1252718137	 0.106688
H	 2.2394030002	-0.1240831902	-0.2640282994	 0.098596
H	 1.7383452843	-0.2969767099	 1.4496619634	 0.097157
H	-0.7971086059	-0.1987813812	 1.9582745592	 0.104666
H	-1.9761603349	-0.3650258121	 0.6544040979	 0.101385
H	 0.1533466625	-2.4365839458	 1.4301792856	 0.098609
H	-1.5825258301	-2.604669169	 1.6527381992	 0.099011
H	-0.7230515682	-3.8026950837	-0.4406891108	 0.095588
H	-1.9388120144	-2.5743548486	-0.8101630049	 0.104713
H	 1.1000907015	-2.2492072526	-1.0329213019	 0.087372
H	-0.0516721007	-2.3045886072	-2.3797172627	 0.108184
79.8596	125.1401	191.6439	288.009	301.2439	371.6743	410.4696	459.2243	475.9496	552.0231	667.0343	815.9928	834.8919	855.799	873.8794	905.0065	938.2749	966.7037	972.5255	1000.0745	1017.0865	1033.476	1060.5456	1103.6416	1144.8518	1155.7376	1166.2662	1180.6879	1216.8072	1236.1557	1262.833	1291.1295	1303.6434	1314.8038	1367.0865	1371.6544	1377.6649	1385.6368	1413.296	1473.0551	1481.9352	1491.7288	1498.3442	1505.1719	1524.3736	2960.7017	3005.4649	3014.5451	3019.8852	3024.6153	3029.8934	3059.2267	3069.4957	3071.3231	3074.557	3079.2513	3088.6257
C1OCC11CCCCO1	C1OCC21CCCCO2	
InChI=1S/C7H12O2/c1-2-4-9-7(3-1)5-8-6-7/h1-6H2	InChI=1S/C7H12O2/c1-2-4-9-7(3-1)5-8-6-7/h1-6H2
