20
gdb 116724	4.0729	0.74195	0.66906	4.4662	81.77	-0.2379	0.0112	0.2492	1715.5193	0.168635	-440.258282	-440.248136	-440.247192	-440.295225	34.723	
C	 0.0581258059	 1.5563174318	-0.0758318612	-0.250795
O	-0.15104463	 0.148154191	-0.0811244102	-0.191805
C	 0.4642175998	-0.5285765329	-1.0659419149	 0.126074
N	 0.344793481	-1.7790883343	-1.1598667506	-0.207689
C	 1.0352836969	-2.4355446101	-2.2350834646	-0.036427
C	 1.8660417446	-3.6719918038	-1.822010569	-0.079526
O	 1.0780894349	-4.5496181941	-2.6456175264	-0.292786
C	 0.2069121407	-3.4690602866	-3.0617179245	 0.143683
C	-1.2402294641	-3.7050144448	-2.6818358363	-0.39125
H	 1.1205154567	 1.8034347837	 0.0370584845	 0.129731
H	-0.3275996951	 2.022326798	-0.9904747188	 0.129681
H	-0.4918752362	 1.944210602	 0.7819946394	 0.149913
H	 1.0604514597	 0.0966418877	-1.7502322149	 0.075531
H	 1.5906890224	-1.7337013516	-2.8755661411	 0.058897
H	 2.9215172484	-3.6575096825	-2.1214830854	 0.094051
H	 1.7903930597	-3.9180805609	-0.7564693216	 0.108232
H	 0.2951408356	-3.3088345834	-4.1455499609	 0.068016
H	-1.3487302181	-3.816159601	-1.6013335001	 0.138326
H	-1.8635221078	-2.8644705991	-3.0058054618	 0.109657
H	-1.6044198151	-4.6125287492	-3.1736811916	 0.118484
41.1307	47.619	65.6935	141.1981	154.0981	208.7933	225.0501	256.9244	362.46	398.4994	426.0212	495.3544	626.5418	758.9291	850.2589	881.889	912.8963	986.7537	1012.934	1025.3198	1055.3204	1068.8098	1097.8648	1147.5003	1156.1171	1172.2	1177.1884	1202.4461	1247.5282	1281.8445	1288.5318	1351.7862	1373.5259	1380.0773	1405.5926	1432.6679	1482.2848	1486.0076	1488.4277	1495.3022	1500.4256	1518.5997	1765.466	2970.7493	2984.8977	2999.9199	3015.7945	3018.3159	3040.1645	3065.0962	3081.0409	3105.6316	3138.4668	3148.3153
COC=NC1COC1C	COC=N[C@H]1CO[C@H]1C	
InChI=1S/C6H11NO2/c1-5-6(3-9-5)7-4-8-2/h4-6H,3H2,1-2H3	InChI=1S/C6H11NO2/c1-5-6(3-9-5)7-4-8-2/h4-6H,3H2,1-2H3/t5-,6-/m0/s1
