18
gdb 17402	4.21752	1.64077	1.54942	1.4951	72.17	-0.2236	0.0803	0.3039	912.3458	0.152994	-347.74419	-347.736761	-347.735817	-347.775597	29.009	
C	-0.0817896755	 1.4976026174	 0.0877070242	-0.403119
C	-0.0037493559	-0.0127630601	 0.0384759861	-0.078362
C	 1.3476282517	-0.7021972122	-0.1478609394	-0.37826
C	 0.6308316634	-0.7695675813	 1.1594135637	 0.472645
O	 1.1627621852	-0.108057095	 2.3259145213	-0.317162
C	 0.839995424	-1.2614744528	 3.1140558148	 0.102902
C	-0.6348606625	-1.509962245	 3.1338159306	-0.3004
C	 0.1965514577	-1.977579083	 1.9507372155	-0.218546
H	 0.7489701502	 1.9105665393	 0.6661872165	 0.1335
H	-0.0484566818	 1.9294110131	-0.9184063153	 0.113532
H	-1.0101680572	 1.8284523763	 0.5654973265	 0.116983
H	-0.8498344455	-0.5042745007	-0.4369297744	 0.085871
H	 1.403385578	-1.5966786805	-0.760444706	 0.11092
H	 2.2268593486	-0.0667587726	-0.1871086533	 0.121262
H	 1.5533989254	-1.5713406195	 3.8678896355	 0.105704
H	-0.9652781706	-2.3047092124	 3.795989332	 0.112968
H	-1.3218134309	-0.6749575871	 3.0305897324	 0.117725
H	 0.2604807756	-3.0076598439	 1.6278453992	 0.101838
124.0468	173.1327	174.2525	225.6054	377.6886	395.7451	481.9081	498.6545	589.933	754.5919	789.5578	802.9258	863.1707	886.961	907.1228	934.1327	961.0376	971.9144	992.8597	1036.1719	1045.0736	1051.4861	1069.1697	1087.148	1106.9336	1131.3641	1173.2364	1186.8094	1196.6295	1274.6228	1317.2916	1350.1019	1412.2817	1429.0388	1468.5426	1490.2285	1492.4699	1511.1255	3032.5114	3091.7329	3112.0043	3116.9799	3122.0326	3132.8993	3186.3028	3203.0518	3211.514	3212.8139
CC1CC11OC2CC12	C[C@H]1C[C@]21O[C@H]1C[C@@H]21	
InChI=1S/C7H10O/c1-4-3-7(4)5-2-6(5)8-7/h4-6H,2-3H2,1H3	InChI=1S/C7H10O/c1-4-3-7(4)5-2-6(5)8-7/h4-6H,2-3H2,1H3/t4-,5+,6-,7+/m0/s1
