23
gdb 92537	2.16964	1.70199	1.37348	1.7834	83.66	-0.2418	0.0722	0.314	1098.0641	0.20745	-388.293864	-388.285263	-388.284319	-388.326505	34.248	
C	 0.1450486901	 1.5850016307	-0.3161909501	-0.404566
C	 0.0001207163	 0.0860860054	-0.0094201947	 0.001975
C	 0.45878767	-0.802408971	-1.1923835724	-0.242499
C	 1.9392546101	-1.0796777245	-0.9456136996	 0.133093
O	 2.7997064137	 0.0497392245	-1.249249628	-0.295444
C	 3.208972181	 0.1657120501	 0.1303331449	-0.085966
C	 2.1976087176	-0.9100286522	 0.5750621662	-0.077691
C	 0.8521488107	-0.457308727	 1.1823154929	 0.022897
C	 0.9595527706	 0.4459539989	 2.4116603604	-0.418872
H	 1.1543867387	 1.8409203352	-0.6458165048	 0.140501
H	-0.5373388359	 1.8614201663	-1.1273782451	 0.108775
H	-0.1115135745	 2.2041986342	 0.5489955582	 0.106514
H	-1.0579488444	-0.0996686602	 0.2090245339	 0.065169
H	-0.0790168695	-1.7588200713	-1.1831187214	 0.091791
H	 0.2908973618	-0.3402778588	-2.1701538188	 0.10526
H	 2.3042633851	-1.9891030268	-1.4363963939	 0.066101
H	 4.2605225445	-0.1209967075	 0.26209977	 0.09719
H	 3.0706430508	 1.181373487	 0.5186429443	 0.098439
H	 2.6340658917	-1.7501349992	 1.118111284	 0.068927
H	 0.353494268	-1.3826451895	 1.5039117161	 0.071853
H	 1.4791284728	 1.3833044163	 2.1917887101	 0.121418
H	-0.0319956504	 0.702240379	 2.799789452	 0.11471
H	 1.5086730515	-0.0554034398	 3.2160908157	 0.110426
120.3673	162.6252	223.3577	232.3117	249.324	269.5809	339.7215	374.8673	390.79	502.8288	592.5135	712.4066	723.0995	788.3213	834.3991	854.8977	888.8194	914.3529	946.7021	975.8936	1000.0103	1022.2227	1037.1334	1038.303	1048.1835	1091.2331	1118.7593	1150.9375	1158.4333	1173.1789	1211.9407	1238.8226	1255.9882	1280.949	1306.0657	1334.4871	1343.5269	1360.52	1369.3298	1378.2427	1383.8302	1409.632	1415.0712	1469.2299	1491.4242	1498.6453	1504.9081	1508.8004	1526.7326	2994.6508	3009.9602	3021.6083	3031.3506	3032.5735	3039.0142	3045.4746	3055.8745	3087.2761	3091.1464	3093.2425	3095.4093	3105.7653	3132.8295
CC1CC2OCC2C1C	C[C@H]1C[C@H]2OC[C@H]2[C@H]1C	
InChI=1S/C8H14O/c1-5-3-8-7(4-9-8)6(5)2/h5-8H,3-4H2,1-2H3	InChI=1S/C8H14O/c1-5-3-8-7(4-9-8)6(5)2/h5-8H,3-4H2,1-2H3/t5-,6-,7-,8+/m0/s1
