14
gdb 20611	3.42703	1.95148	1.25308	1.7231	73.81	-0.2273	-0.0168	0.2105	916.6501	0.107719	-341.583209	-341.575593	-341.574649	-341.615769	27.474	
C	-0.0040223733	 1.5533861663	 0.0872260047	-0.523404
C	 0.0154805787	 0.0588380506	 0.0302107559	 0.085962
C	 0.0004934993	-0.7410671316	-1.109658822	 0.190154
N	 0.0288769748	-2.0344014167	-0.6642819179	-0.28702
N	 0.0609303427	-2.1314999614	 0.6691143562	-0.208584
C	 0.0529185245	-0.8686014693	 1.093109651	-0.073985
C	-0.0357098807	-0.4093195077	-2.4785761529	 0.280735
C	-0.0667804058	-0.1285379044	-3.6498773883	-0.456888
H	 0.8856899177	 1.9488429432	 0.5896349886	 0.133948
H	-0.0366318495	 1.9788750135	-0.9189349223	 0.136526
H	-0.8766248815	 1.9239645275	 0.6363794539	 0.133904
H	 0.0274844796	-2.8678203007	-1.2282250328	 0.277688
H	 0.0743589097	-0.6620497835	 2.1536291368	 0.112753
H	-0.0943899861	 0.1222932443	-4.6813416809	 0.19821
38.6026	136.6426	165.6809	265.6163	309.2662	455.0226	506.0639	518.9835	550.693	600.1044	682.4889	691.3732	695.2473	715.7826	880.2262	955.7077	1004.3723	1065.0179	1152.7061	1182.018	1246.6431	1276.4847	1381.162	1417.9535	1430.363	1486.5479	1489.7698	1502.4508	1603.3585	2229.7184	3032.5854	3083.4756	3118.2366	3241.2451	3501.2826	3670.3729
CC1=C(NN=C1)C#C	Cc1c([nH]nc1)C#C	
InChI=1S/C6H6N2/c1-3-6-5(2)4-7-8-6/h1,4H,2H3,(H,7,8)	InChI=1S/C6H6N2/c1-3-6-5(2)4-7-8-6/h1,4H,2H3,(H,7,8)
