15
gdb 34915	3.06198	1.63186	1.32024	3.3383	69.23	-0.2551	0.0488	0.3039	958.9768	0.111931	-420.54293	-420.53581	-420.534866	-420.57453	27.887	
C	 0.0477969453	-1.2154668614	 0.0400262048	-0.447777
C	 0.0271540612	-0.0146141006	 0.040858081	 0.341868
C	-0.0043182771	 1.4410437178	 0.0308255373	-0.251288
C	-0.7077286837	 2.0746970193	 1.2470390725	 0.023477
O	-0.0780106959	 1.8629295538	 2.5024098417	-0.219381
C	 0.1653754386	 3.1031564256	 1.8366024371	 0.00405
C	 1.4681105544	 3.1259265869	 1.0532578083	 0.004051
O	 2.2019328428	 1.9027799185	 1.1314622307	-0.219381
C	 1.3829947678	 2.1112406719	-0.0101291788	 0.023476
H	 0.0738104562	-2.2769277818	 0.0521635391	 0.199205
H	-0.5475017171	 1.7826692117	-0.8625815325	 0.112063
H	-1.7945648523	 2.1086197206	 1.2637973302	 0.109665
H	-0.1974857444	 3.9989381723	 2.3317073933	 0.105154
H	 2.0523466677	 4.0382621788	 0.9788668229	 0.105154
H	 1.9061728464	 2.1733051464	-0.9614845976	 0.109664
104.7149	129.4566	283.2223	310.8295	368.0261	507.518	529.7704	581.0304	628.8584	640.1201	709.1916	758.2404	810.7188	859.7447	868.3623	888.9293	891.3626	967.8715	975.6835	1045.6247	1053.0731	1083.1082	1093.6275	1112.6206	1243.2177	1250.7338	1268.6063	1306.0657	1308.668	1341.9598	1416.2634	1432.7129	2243.3724	3006.9407	3138.7832	3141.0446	3157.0059	3170.2981	3504.8664
C#CC1C2OC2C2OC12	C#C[C@H]1[C@H]2O[C@H]2[C@H]2O[C@@H]12	
InChI=1S/C7H6O2/c1-2-3-4-6(8-4)7-5(3)9-7/h1,3-7H	InChI=1S/C7H6O2/c1-2-3-4-6(8-4)7-5(3)9-7/h1,3-7H/t3-,4+,5-,6+,7-
