19
gdb 62681	2.44634	1.73799	1.30055	1.0753	74.87	-0.226	0.0575	0.2834	1038.9767	0.15611	-422.93548	-422.926588	-422.925644	-422.968246	34.709	
C	-0.0999299321	 1.6028746783	-0.0145937234	-0.471967
C	 0.0859121876	 0.0910005683	 0.0247382975	 0.231327
C	-1.0826842823	-0.6168841789	-0.6629782056	-0.438459
C	 1.3856010177	-0.6909195252	-0.1908948347	-0.205459
C	 2.6500894057	-0.1678087323	 0.5548011845	 0.012856
O	 2.3683245965	 1.0429073231	 1.276195415	-0.241546
C	 1.9638648215	-0.2078354122	 1.8404522708	-0.051697
C	 0.6586466907	-0.7502950772	 1.147675503	 0.285597
O	 0.0299597632	-1.8572050811	 1.6952181124	-0.449188
H	-0.1322358419	 1.9399071259	-1.0577728782	 0.110202
H	-1.0653849478	 1.8651749261	 0.4358320784	 0.102486
H	 0.6864529328	 2.1430828032	 0.5001471195	 0.153974
H	-1.1641782426	-0.2785002676	-1.7013531838	 0.116955
H	-0.9744431318	-1.7028806506	-0.6562930344	 0.129218
H	-2.0264398394	-0.3715761894	-0.1620895392	 0.108929
H	 1.449702778	-1.4636161677	-0.9469868237	 0.095898
H	 3.6819594535	-0.3570574356	 0.2848377562	 0.111147
H	 2.3002636401	-0.4626698566	 2.8391224925	 0.110546
H	-0.6865525795	-1.5483430204	 2.2619176832	 0.289179
124.0407	167.4281	196.2131	235.4922	269.7948	284.7452	315.2902	358.1412	381.4912	402.7742	507.4228	601.2233	627.7666	696.6585	742.2027	816.4591	839.8847	905.0813	922.5862	943.2267	958.2052	969.7074	986.1228	1022.7521	1042.1002	1099.7041	1144.5826	1162.6189	1194.3835	1229.6	1256.5711	1267.345	1320.3996	1369.133	1398.4793	1414.0709	1446.6614	1482.6023	1489.5345	1509.2582	1517.507	3023.2435	3031.8242	3072.3568	3088.8411	3132.8597	3178.0036	3189.6648	3198.3158	3210.0092	3780.0945
CC1(C)C2C3OC3C12O	CC1(C)[C@H]2[C@H]3O[C@H]3[C@@]12O	
InChI=1S/C7H10O2/c1-6(2)4-3-5(9-3)7(4,6)8/h3-5,8H,1-2H3	InChI=1S/C7H10O2/c1-6(2)4-3-5(9-3)7(4,6)8/h3-5,8H,1-2H3/t3-,4-,5-,7-/m1/s1
