20
gdb 108652	1.94073	1.69208	0.97768	3.3813	85.69	-0.2347	-0.0179	0.2169	1255.2402	0.170844	-403.194651	-403.185282	-403.184338	-403.228975	34.34	
C	-0.2243666383	 1.6071954359	-0.0621326313	-0.376453
C	 0.0150682173	 0.0886117038	 0.0195047464	-0.295824
C	 0.75517254	-0.4468481051	-1.1672061787	 0.15243
C	 2.0226729918	-0.8704219414	-1.2876678537	 0.170698
C	 3.1099219341	-0.9537232532	-0.268988677	-0.500946
C	 2.2511734553	-1.2996689842	-2.7123210053	-0.17351
O	 1.0087962259	-1.0814412943	-3.3805193177	-0.248773
C	 0.1006629868	-0.5794231509	-2.4822662113	 0.357648
N	-1.1028430908	-0.2887665993	-2.7550913782	-0.554226
H	 0.723241836	 2.1545971595	-0.0952274531	 0.108721
H	-0.7963328328	 1.8509656094	-0.9602256466	 0.150809
H	-0.7867879206	 1.9540021999	 0.810109122	 0.111116
H	 0.5575542893	-0.1550483921	 0.939177956	 0.095131
H	-0.9557567041	-0.4166675378	 0.0729592136	 0.128307
H	 3.4865000437	-1.9801335099	-0.1759876636	 0.135419
H	 3.9668771914	-0.3308579613	-0.5552380862	 0.136569
H	 2.7705150848	-0.6263122202	 0.7159148101	 0.138812
H	 3.0368282881	-0.714478228	-3.2107361407	 0.121953
H	 2.5241713787	-2.3611060731	-2.796106309	 0.121958
H	-1.3074458868	-0.4820524076	-3.7361363956	 0.220163
68.1536	120.044	137.6669	180.8798	210.6214	221.7071	281.9886	300.731	372.6777	503.8842	515.0107	569.887	652.4496	743.5156	762.4679	791.0392	864.1436	922.273	952.4942	967.7272	989.1226	1032.5827	1074.7376	1085.7075	1091.1768	1147.8244	1190.2283	1200.9355	1237.7676	1297.5556	1347.0946	1377.7221	1391.9561	1404.0395	1421.0088	1473.6966	1479.9951	1488.3613	1496.7237	1503.7716	1512.0532	1728.9859	1750.688	3001.9263	3022.3269	3029.8484	3038.9392	3040.1087	3066.9922	3078.0774	3107.0507	3125.8506	3134.201	3483.5695
CCC1=C(C)COC1=N	CCC1=C(OC[C]1C)[NH]	
InChI=1S/C7H11NO/c1-3-6-5(2)4-9-7(6)8/h8H,3-4H2,1-2H3	InChI=1S/C7H11NO/c1-3-6-5(2)4-9-7(6)8/h8H,3-4H2,1-2H3
