21
gdb 65475	2.96389	1.1239	1.06795	2.1199	78.19	-0.2585	0.0831	0.3417	1267.0975	0.179777	-424.193924	-424.184295	-424.183351	-424.228494	36.216	
C	 0.6009627478	 1.3670867152	-0.2280578119	-0.466241
C	-0.0109877961	-0.0076320125	-0.0570337961	 0.412523
C	-1.4738085417	-0.1781065605	-0.4415522857	-0.344082
C	-2.5216591918	 0.4833402942	 0.4494004664	 0.40445
C	-3.9390395962	 0.3509796775	-0.0675374666	-0.451427
C	-2.2994389185	 0.6700492117	 1.8909597866	-0.227847
O	-2.2094585637	 1.7795042561	 0.9821623951	-0.268437
C	 0.8664905098	-1.1892865908	-0.117350769	-0.230052
O	 0.3831770235	-0.7084283401	 1.1381898657	-0.275791
H	 1.6420868736	 1.359852596	 0.104108115	 0.118482
H	 0.5746246809	 1.6657105009	-1.2821527833	 0.114599
H	 0.0421492945	 2.1081603793	 0.3458800081	 0.158035
H	-1.6059200305	 0.1989550612	-1.465073151	 0.106207
H	-1.7093871939	-1.2482503964	-0.4757923159	 0.107881
H	-4.2313942976	-0.7018848783	-0.144696247	 0.12055
H	-4.6385750042	 0.8593644313	 0.6001537284	 0.127354
H	-4.0308093986	 0.7982929911	-1.0634987449	 0.122839
H	-3.1581075208	 0.6975293069	 2.5611084497	 0.106024
H	-1.3619821309	 0.3563915791	 2.3406043349	 0.146916
H	 0.4670941427	-2.1521871002	-0.4348892734	 0.107511
H	 1.9344357115	-1.0558030916	-0.2871969351	 0.110504
40.4067	117.4353	181.5278	198.1626	205.5992	290.2149	315.8461	338.6266	378.8448	398.398	402.7688	422.3903	538.8624	721.1334	739.0256	822.1583	848.257	889.0451	908.3015	926.723	941.3772	970.9943	1020.0164	1039.7031	1095.3964	1109.6353	1135.5084	1141.8852	1168.2415	1171.6019	1229.8626	1240.1649	1295.5771	1355.9028	1400.5667	1405.5431	1417.8105	1425.0486	1462.7767	1481.5911	1485.582	1497.5169	1509.8503	1528.8734	1538.5259	3016.8737	3034.1141	3041.4534	3062.3941	3075.3281	3092.244	3096.3093	3111.21	3124.8859	3146.4341	3160.3717	3197.9608
CC1(CC2(C)CO2)CO1	C[C@@]1(C[C@@]2(C)CO2)CO1	
InChI=1S/C7H12O2/c1-6(4-8-6)3-7(2)5-9-7/h3-5H2,1-2H3	InChI=1S/C7H12O2/c1-6(4-8-6)3-7(2)5-9-7/h3-5H2,1-2H3/t6-,7+
