18
gdb 89399	3.02176	1.41899	1.0983	4.1875	73.09	-0.2392	0.0096	0.2488	1134.2592	0.147169	-439.113944	-439.105289	-439.104344	-439.147063	31.946	
C	-0.0288493014	 1.4132272984	-0.1413210247	-0.342231
N	 0.0025635048	-0.0217422305	 0.0078069806	-0.098195
C	-1.2046015895	-0.8210107595	 0.1308805823	-0.230322
C	-0.6989815901	-2.2618544894	 0.1207937863	 0.415129
C	-1.5080715371	-3.3609791315	 0.7472496575	-0.490302
O	-0.0202852887	-2.5616775937	-1.1033049381	-0.287454
C	 0.7673599782	-2.2008693428	 0.0496388434	-0.188878
C	 1.1717921098	-0.7415031259	 0.0199268244	 0.453283
O	 2.2970538709	-0.2878608481	 0.0126764534	-0.398235
H	 1.0043228952	 1.7602271027	-0.1973306982	 0.167543
H	-0.560562708	 1.7080844723	-1.054826412	 0.126122
H	-0.5221842631	 1.8908058373	 0.714572224	 0.122307
H	-1.7374620805	-0.5940739188	 1.0656048923	 0.109581
H	-1.8944595116	-0.6394995129	-0.7042459504	 0.121066
H	-2.4844229147	-3.449724999	 0.2582113188	 0.13408
H	-0.9888526317	-4.3165202752	 0.6452019905	 0.141267
H	-1.6791137494	-3.163452872	 1.8102176123	 0.130049
H	 1.453287737	-2.9508468314	 0.4281519975	 0.115189
117.5984	147.6976	160.8912	189.5008	221.7002	264.207	317.1984	379.4359	415.43	482.9789	549.0314	669.7429	704.3244	791.8708	804.1029	853.9271	910.6864	982.7097	1003.4718	1031.0937	1077.1145	1110.2729	1151.3044	1159.1868	1221.9939	1228.9932	1262.452	1304.5007	1315.9694	1406.776	1431.2953	1446.3635	1458.7396	1486.0548	1492.6898	1494.336	1502.5292	1532.439	1813.4569	2997.8882	3013.222	3034.9935	3038.5242	3060.837	3101.6159	3130.8482	3143.2146	3184.6573
CN1CC2(C)OC2C1=O	CN1C[C@@]2(C)O[C@H]2C1=O	
InChI=1S/C6H9NO2/c1-6-3-7(2)5(8)4(6)9-6/h4H,3H2,1-2H3	InChI=1S/C6H9NO2/c1-6-3-7(2)5(8)4(6)9-6/h4H,3H2,1-2H3/t4-,6+/m0/s1
