19
gdb 95231	3.27628	1.37318	1.07833	1.6518	76.19	-0.2483	-0.01	0.2383	1138.5765	0.15982	-422.998788	-422.990813	-422.989869	-423.031002	31.332	
C	 0.1238761465	 1.6102976048	-0.0812242689	-0.404946
C	-0.0572191284	 0.1047780508	 0.056377385	 0.108093
O	 0.3177684011	-0.4550973304	-1.2120935048	-0.276003
C	 0.5951420418	-1.8448567493	-1.2492556013	-0.086833
C	-0.3900275095	-2.7108586123	-0.4783025818	 0.006053
O	 0.2067220117	-3.7645395999	 0.2881003	-0.253386
C	-0.3753918846	-2.6581071414	 0.9934808754	 0.016986
C	 0.5541459888	-1.711453334	 1.6751410332	-0.111703
C	 0.7151445536	-0.4627563084	 1.2377982911	-0.06313
H	 1.1812024171	 1.8554553283	-0.2225146664	 0.124146
H	-0.4329769701	 1.9793017095	-0.9458412588	 0.126283
H	-0.2384020078	 2.1235664362	 0.8148777479	 0.115732
H	-1.1249769764	-0.1069428015	 0.2182929794	 0.080307
H	 0.5916923006	-2.10966095	-2.3112716826	 0.109992
H	 1.5928129096	-2.0648052654	-0.8494188728	 0.109441
H	-1.3163860903	-2.9869540336	-0.9808521386	 0.096503
H	-1.2823250136	-2.9293878376	 1.5369596611	 0.100855
H	 1.104671863	-2.082348731	 2.5363245373	 0.104854
H	 1.419304347	 0.2012689349	 1.7338982655	 0.096757
103.226	208.8644	230.3645	250.7862	303.9976	331.4403	357.4938	423.4217	447.7089	581.8977	619.266	737.5186	748.2574	828.2656	840.2134	849.0264	900.1164	977.9613	999.5593	1017.872	1037.5539	1046.0514	1103.5256	1124.6376	1137.6274	1154.4525	1161.6175	1223.5693	1278.3366	1281.2769	1341.7113	1363.5562	1365.3199	1405.2823	1409.1159	1418.8421	1459.8138	1484.2508	1497.311	1504.6208	1705.3598	2977.1241	3028.1265	3041.8477	3081.1023	3087.9369	3114.2911	3119.4808	3127.2776	3145.8829	3168.8059
CC1OCC2OC2C=C1	C[C@H]1OC[C@H]2O[C@H]2C=C1	
InChI=1S/C7H10O2/c1-5-2-3-6-7(9-6)4-8-5/h2-3,5-7H,4H2,1H3	InChI=1S/C7H10O2/c1-5-2-3-6-7(9-6)4-8-5/h2-3,5-7H,4H2,1H3/t5-,6+,7-/m1/s1
