15
gdb 45245	3.64347	1.71838	1.54174	4.6056	63.39	-0.2678	-0.0019	0.2659	862.4153	0.115807	-457.783884	-457.778121	-457.777177	-457.813972	23.968	
O	-0.0537131807	-0.0230153952	-0.1859894264	-0.341129
C	-0.0026498787	 1.1575298695	-0.0182405661	 0.454623
O	-1.1207739006	 1.9517734864	 0.115625113	-0.220778
C	-0.6413392701	 3.2488197925	 0.4825372497	 0.192142
O	-0.0647323372	 3.1418542635	 1.7793771307	-0.263865
C	 1.3075334128	 2.9049196741	 1.4167378898	 0.084074
C	 1.6318236895	 4.157863576	 0.5745421115	-0.248969
C	 0.6222434253	 3.4886233092	-0.3862883616	-0.098375
C	 1.1780377617	 2.0975064389	 0.0592840826	-0.218842
H	-1.4752775731	 3.9456760272	 0.4677043842	 0.111497
H	 1.8754522805	 2.5531399149	 2.2742490779	 0.106021
H	 1.3838150283	 5.1231402158	 1.0202746228	 0.115155
H	 2.6438851732	 4.1594738105	 0.1645001462	 0.117113
H	 0.4735192373	 3.7626461198	-1.4285288307	 0.099283
H	 2.105669252	 1.7340689769	-0.3727098936	 0.11205
159.4528	329.0068	408.3506	484.3292	543.2596	582.8333	655.8086	717.493	807.0816	835.6518	864.8238	874.5788	899.2137	916.1512	936.8578	947.8445	952.433	1012.8936	1047.1054	1054.346	1097.3565	1121.4252	1164.0681	1181.8092	1225.7409	1243.028	1249.899	1258.3257	1303.2603	1344.5153	1362.3778	1490.3841	1901.5505	3072.738	3137.843	3146.7783	3161.1118	3166.6022	3174.8771
O=C1OC2OC3CC2C13	O=C1O[C@H]2O[C@@H]3C[C@H]2[C@H]13	
InChI=1S/C6H6O3/c7-5-4-2-1-3(4)8-6(2)9-5/h2-4,6H,1H2	InChI=1S/C6H6O3/c7-5-4-2-1-3(4)8-6(2)9-5/h2-4,6H,1H2/t2-,3+,4-,6+/m0/s1
