19
gdb 93360	3.20567	1.37283	1.07737	3.8895	75.8	-0.2326	0.0232	0.2558	1140.2814	0.162141	-419.23288	-419.224807	-419.223862	-419.265331	31.48	
C	 0.129543858	 1.5854456463	 0.0207607851	-0.401725
C	 0.009482954	 0.057428649	 0.0114505242	 0.010973
C	 0.6202323034	-0.5304576585	-1.2725852269	-0.165242
N	 0.6541066574	-1.9860003997	-1.2338223171	-0.338039
C	 0.9873216121	-2.7407505417	-0.1455029335	 0.446163
O	 1.0888187353	-3.9541549986	-0.1847024785	-0.3881
C	 1.1607380038	-1.9670394732	 1.1326186234	-0.15881
N	 2.1086207345	-0.8230977129	 1.1010224723	-0.338262
C	 0.6704349109	-0.565900003	 1.2269933435	-0.029285
H	 1.1815129262	 1.8889579381	 0.027251751	 0.131452
H	-0.3472859323	 2.0279544282	-0.8599541363	 0.11561
H	-0.3499113529	 2.011573254	 0.9077117019	 0.115234
H	-1.0524787902	-0.2218687714	 0.0412111849	 0.086241
H	 0.0160038188	-0.2276483049	-2.1330778764	 0.106834
H	 1.6271446112	-0.1170071739	-1.4089729607	 0.12707
H	 0.605673415	-2.5005975344	-2.1002009924	 0.246044
H	 1.1512982871	-2.6023096752	 2.0117026337	 0.106406
H	 2.570083698	-0.7501773658	 2.003454761	 0.239765
H	 0.2904499698	-0.2380637624	 2.1928645009	 0.087672
88.3869	184.6599	223.2195	240.1353	272.1125	327.5812	409.4693	437.8459	502.4531	549.7645	583.3458	691.7082	754.7533	778.3971	833.3397	883.6156	906.923	923.676	945.3097	964.6739	1049.0302	1088.381	1103.2756	1130.5973	1145.6196	1167.1061	1200.9091	1251.2052	1281.6595	1314.1353	1327.966	1377.2619	1381.882	1404.1346	1412.7887	1449.3109	1475.2901	1495.255	1502.4358	1516.7794	1791.6023	3015.8597	3027.9803	3034.1252	3079.2943	3102.2987	3107.7385	3124.793	3177.3377	3512.9153	3621.3261
CC1CNC(=O)C2NC12	C[C@H]1CNC(=O)[C@H]2N[C@@H]12	
InChI=1S/C6H10N2O/c1-3-2-7-6(9)5-4(3)8-5/h3-5,8H,2H2,1H3,(H,7,9)	InChI=1S/C6H10N2O/c1-3-2-7-6(9)5-4(3)8-5/h3-5,8H,2H2,1H3,(H,7,9)/t3-,4-,5-/m0/s1
