18
gdb 67388	2.80291	1.59117	1.45355	2.8694	75.88	-0.2181	-0.0132	0.2049	988.2647	0.148667	-401.933662	-401.926241	-401.925297	-401.965326	29.526	
C	-0.0333791257	 1.5004028182	 0.0072603172	-0.504902
C	 0.0018955337	 0.0069175422	-0.0298801962	 0.343989
C	 0.5350352088	-1.0126262275	-0.98813094	-0.129849
C	 1.2384308534	-1.7004719532	 0.1637133129	-0.191394
N	 0.4848788842	-0.8215829568	 1.1380476369	-0.163688
C	-0.6974381857	-1.5506241612	 1.6221815438	-0.298836
C	-1.5647222357	-1.8135826999	 0.3725411881	 0.401083
O	-2.5356902051	-2.5235786492	 0.2955795681	-0.32976
C	-0.9829665449	-0.9330754534	-0.6907365495	-0.214085
H	 0.9502700849	 1.9081861164	 0.2599920705	 0.134132
H	-0.3352562529	 1.9017017821	-0.9649062617	 0.126814
H	-0.7490025702	 1.8579682684	 0.7559777633	 0.130311
H	 0.8857021553	-0.8821313494	-2.0055444798	 0.100214
H	 1.0878004651	-2.7771778162	 0.3016770766	 0.109355
H	 2.308175396	-1.4770433419	 0.2070309376	 0.116771
H	-0.426521866	-2.4730076798	 2.1417103318	 0.13132
H	-1.2635035964	-0.9237934772	 2.32253492	 0.129889
H	-1.6077543187	-0.6107638017	-1.5145071896	 0.108635
113.5459	190.1868	199.9571	275.5103	378.3921	415.7203	463.891	548.668	571.7468	638.675	691.5288	727.7211	800.1455	831.9972	863.4072	905.9664	926.2119	969.3085	1000.6475	1013.7471	1038.8147	1072.16	1088.2498	1121.1398	1148.1842	1185.1137	1198.0126	1209.5022	1231.9006	1281.9892	1307.3887	1312.8125	1405.8692	1454.4868	1459.2324	1477.7308	1495.7586	1512.8293	1835.9625	3032.8825	3033.6556	3037.2614	3090.1915	3097.4419	3110.211	3112.6498	3177.5007	3201.5764
CC12C3CN1CC(=O)C23	C[C@@]12[C@H]3CN1CC(=O)[C@@H]23	
InChI=1S/C7H9NO/c1-7-4-2-8(7)3-5(9)6(4)7/h4,6H,2-3H2,1H3	InChI=1S/C7H9NO/c1-7-4-2-8(7)3-5(9)6(4)7/h4,6H,2-3H2,1H3/t4-,6-,7-/m0/s1
