14
gdb 33365	5.71286	0.69552	0.66827	3.8811	76.1	-0.2848	-0.0568	0.228	1589.7018	0.101656	-436.659398	-436.65133	-436.650386	-436.693621	27.861	
N	 0.0073112516	-3.7435870001	-0.1452568456	-0.330164
C	 0.0042496448	-2.5828183765	-0.1032206173	 0.215118
C	-0.0028497921	-1.2184029042	-0.0511990504	-0.024131
C	-0.0112241386	-0.0114361874	-0.0017922516	 0.18389
C	-0.0298138451	 1.4463676948	 0.0540202843	-0.106135
C	-0.6038385946	 1.9986872094	 1.4009959832	-0.127545
O	 0.2783097082	 3.0576836665	 1.7120177282	-0.220112
C	 1.526291405	 2.6235552224	 1.2418104926	 0.018459
O	 1.2847707766	 1.9992384151	-0.008766416	-0.241062
H	-0.5964468789	 1.8289099152	-0.8031945691	 0.135113
H	-1.6150155322	 2.3949591898	 1.3017582706	 0.13938
H	-0.5870278863	 1.2182429998	 2.1736622871	 0.120595
H	 2.1769169611	 3.4873456204	 1.0886033018	 0.135828
H	 1.9869865105	 1.9071216948	 1.9439898922	 0.100766
38.4927	81.6858	118.528	225.1843	262.7909	292.3388	427.6663	502.8514	574.1893	588.7242	664.8773	738.2108	772.6823	910.6247	953.9091	985.7059	1044.0168	1090.6277	1108.0836	1171.1984	1181.3215	1214.3654	1265.2121	1295.7357	1347.4419	1369.4903	1425.4844	1510.9994	1539.3082	2265.1633	2401.0481	2956.2351	3017.6769	3039.3354	3111.6099	3129.0184
N#CC#CC1COCO1	N#CC#C[C@H]1COCO1	
InChI=1S/C6H5NO2/c7-3-1-2-6-4-8-5-9-6/h6H,4-5H2	InChI=1S/C6H5NO2/c7-3-1-2-6-4-8-5-9-6/h6H,4-5H2/t6-/m0/s1
