23
gdb 109604	2.32086	1.06026	0.95003	1.0527	93.89	-0.2316	0.0585	0.2901	1433.3126	0.202485	-351.121845	-351.110766	-351.109822	-351.157663	40.868	
C	-0.5125389909	 0.5365788025	-2.6561495637	-0.375948
C	-0.231514517	-0.462986771	-1.5261448839	-0.206362
C	-1.496738916	-0.8633204642	-0.7928312473	-0.040336
C	-2.3693676345	-2.0289781807	-1.1920372381	-0.045896
C	-2.0740099893	-2.9431696675	-2.3618766747	-0.419327
C	-1.5793829499	-2.0911668403	 0.1217130022	 0.082971
C	-0.3922073237	-3.0330654955	 0.2834664774	-0.459153
C	-2.3461825287	-1.9308112738	 1.3308476134	 0.27865
C	-2.977322706	-1.8057594805	 2.3484018726	-0.460695
H	 0.4126177751	 0.8333682487	-3.1599596475	 0.111309
H	-1.1830213556	 0.1066629891	-3.407392977	 0.119366
H	-0.9885399968	 1.4443816768	-2.2698685906	 0.11714
H	 0.2784126431	-1.3382872409	-1.9393636206	 0.09568
H	 0.4699135027	-0.0148113286	-0.8105677014	 0.102613
H	-2.0442654794	-0.0057099327	-0.408902237	 0.090139
H	-3.4329701143	-1.8643438069	-1.0439612235	 0.093503
H	-1.0057056015	-3.0913140829	-2.5333161369	 0.117993
H	-2.5224533018	-3.9305208697	-2.2070567207	 0.123056
H	-2.4980179375	-2.5301497463	-3.2840221035	 0.120997
H	 0.1780510024	-3.149799289	-0.6393040891	 0.11398
H	 0.2888658157	-2.6582050036	 1.0538130137	 0.127217
H	-0.7332083026	-4.0247975748	 0.5964721278	 0.126255
H	-3.5369356535	-1.6928573181	 3.2432406784	 0.186847
67.4512	120.3466	127.1806	146.1604	157.8905	189.9322	212.6529	249.1787	285.1924	304.06	394.8075	412.1627	514.6347	537.043	563.2272	584.5099	636.6558	673.0621	765.7497	781.1336	837.2783	930.4321	959.0418	976.339	1029.8597	1044.0802	1062.8488	1097.2013	1113.659	1134.3946	1158.6409	1189.3957	1256.3604	1293.2272	1301.3251	1337.1103	1390.042	1410.3801	1411.6824	1421.6515	1446.9127	1477.24	1490.2659	1492.6329	1499.718	1500.2476	1504.8104	1514.9052	2227.5434	3025.6722	3033.1668	3034.7932	3044.0825	3071.9888	3088.9523	3102.8327	3103.266	3106.3552	3117.2122	3131.3393	3135.2503	3149.0477	3504.599
CCC1C(C)C1(C)C#C	CC[C@H]1[C@@H](C)[C@]1(C)C#C	
InChI=1S/C9H14/c1-5-8-7(3)9(8,4)6-2/h2,7-8H,5H2,1,3-4H3	InChI=1S/C9H14/c1-5-8-7(3)9(8,4)6-2/h2,7-8H,5H2,1,3-4H3/t7-,8+,9+/m1/s1
