21
gdb 122094	2.41579	0.79794	0.62273	5.4232	80.96	-0.2401	0.0315	0.2716	1792.7048	0.180527	-420.389952	-420.378815	-420.377871	-420.427447	37.893	
C	 0.0813668783	 1.2551841618	-0.6584421694	-0.328039
N	-0.1414085128	 0.2063265913	 0.3256494921	-0.271432
C	-1.3792397354	-0.5570486242	 0.209053367	-0.145556
C	-1.2953091051	-1.8931346066	-0.5660050107	-0.203885
C	-0.9264547612	-1.7342258303	-2.0366161952	-0.063763
O	-0.9866915455	-3.0095712681	-2.6301651201	-0.229435
C	-0.6413597139	-2.9983583895	-3.9954438272	-0.231769
C	-1.9106396446	-0.8326406409	 1.5627842336	 0.299886
N	-2.3223421776	-1.0680555384	 2.616321103	-0.324641
H	 1.0280716443	 1.7533748419	-0.4315218819	 0.132141
H	 0.118093799	 0.9211522188	-1.7085509194	 0.102093
H	-0.710093622	 2.0076751043	-0.5741354932	 0.1338
H	 0.6569037656	-0.4095083064	 0.415620631	 0.228288
H	-2.1147988196	 0.089878113	-0.2865512087	 0.127287
H	-0.5645804235	-2.5472685563	-0.0766411888	 0.122419
H	-2.2619265327	-2.4042222891	-0.503316092	 0.132826
H	-1.6247418452	-1.0394158834	-2.5371625719	 0.086509
H	 0.0849296426	-1.3087798436	-2.1464064977	 0.089297
H	-0.7168932476	-4.0255540361	-4.3593342856	 0.132722
H	-1.3208761661	-2.3614508036	-4.5835415039	 0.106294
H	 0.3879193631	-2.6391785348	-4.1536343308	 0.104958
57.7614	64.4176	97.2145	107.641	133.8126	157.3991	202.3837	225.3627	240.1553	300.4168	365.3627	404.2775	442.7623	557.0078	577.4996	666.7459	793.9644	903.9177	954.2532	994.71	1044.8276	1067.7672	1090.9249	1150.8994	1162.4124	1168.4127	1179.057	1205.8512	1225.1032	1249.0261	1283.4328	1311.4166	1349.3073	1365.0583	1430.2094	1461.2585	1478.5428	1482.0379	1486.1866	1494.6887	1496.4006	1504.9544	1520.5858	1533.7965	2358.1609	2941.6953	2967.2826	2971.3276	2979.6797	3015.6753	3031.9444	3046.6968	3063.2769	3091.6471	3109.6716	3119.2291	3556.5966
CNC(CCOC)C#N	CN[C@@H](CCOC)C#N	
InChI=1S/C6H12N2O/c1-8-6(5-7)3-4-9-2/h6,8H,3-4H2,1-2H3	InChI=1S/C6H12N2O/c1-8-6(5-7)3-4-9-2/h6,8H,3-4H2,1-2H3/t6-/m0/s1
