22
gdb 64127	2.68949	1.25183	1.10512	3.9527	84.93	-0.307	0.033	0.34	1224.2988	0.194998	-367.256985	-367.247717	-367.246773	-367.291078	35.715	
C	-0.1246634242	 1.5596607409	 0.0260338795	-0.432612
C	 0.005799319	 0.0282531121	-0.0023829267	 0.351744
C	-1.3926732862	-0.6091563219	-0.032588101	-0.444034
C	 0.8513960851	-0.4371097109	-1.2322550408	-0.249315
C	 2.2374961789	-0.8102726886	-0.6868228617	-0.22056
C	 1.9226105045	-1.4161256083	 0.702211852	-0.153665
C	 0.8199637018	-0.4659227057	 1.2398488711	-0.263867
C	 1.4474287882	-2.7972144253	 0.5859938196	 0.280918
N	 1.0664690878	-3.8849721434	 0.4897276942	-0.339397
H	 0.8570257872	 2.0448474346	-0.0181629106	 0.107873
H	-0.7150006982	 1.9196282819	-0.8235301617	 0.1146
H	-0.6209511134	 1.8970594628	 0.9429447551	 0.113763
H	-1.9257976068	-0.3365733871	-0.9502583187	 0.112344
H	-1.3301462419	-1.7012844494	 0.0074784152	 0.134904
H	-1.9987091028	-0.2738356796	 0.8165150734	 0.110417
H	 0.3919141329	-1.3216801265	-1.6857531216	 0.11611
H	 0.9036244208	 0.3302119968	-2.009672517	 0.098298
H	 2.795254843	-1.4900385503	-1.3348238756	 0.118261
H	 2.8521290544	 0.0835119365	-0.5320824436	 0.106545
H	 2.8000473027	-1.4267886822	 1.3561448223	 0.118221
H	 1.3176461282	 0.378509742	 1.7272306279	 0.102584
H	 0.1881337488	-0.9460105984	 1.9905492089	 0.116869
40.8019	115.5088	176.3991	258.1456	267.8146	288.8185	334.3744	343.9187	388.7306	418.1226	452.62	529.5516	608.9428	681.5726	751.382	803.3777	852.1961	882.9053	918.6152	946.2944	954.3444	972.0241	983.8532	1017.4198	1036.2053	1082.8276	1123.7344	1151.2054	1203.6335	1219.6252	1236.9177	1272.3018	1283.6981	1326.4147	1337.3315	1356.8658	1372.4936	1401.5312	1425.5746	1485.0082	1485.449	1487.071	1497.0282	1503.654	1507.0758	1509.8874	2349.3373	3020.3199	3025.7882	3045.2757	3049.2223	3050.8262	3069.4654	3086.8842	3090.2897	3094.0043	3096.1869	3103.8979	3107.7348	3111.5473
CC1(C)CCC(C1)C#N	CC1(C)CC[C@@H](C1)C#N	
InChI=1S/C8H13N/c1-8(2)4-3-7(5-8)6-9/h7H,3-5H2,1-2H3	InChI=1S/C8H13N/c1-8(2)4-3-7(5-8)6-9/h7H,3-5H2,1-2H3/t7-/m0/s1
