17
gdb 62131	2.82913	0.95124	0.77677	2.0611	65.8	-0.2784	-0.0003	0.2781	1424.0708	0.133816	-496.084437	-496.075103	-496.074159	-496.120065	32.384	
O	 1.7382649863	 1.5852291456	 0.2744504902	-0.430479
C	 0.6222189264	 0.7872270254	-0.0989248345	 0.099364
C	 1.0805279187	-0.2383411017	-1.1427144472	-0.143761
O	-0.033106183	-0.8867668046	-1.7679463098	-0.176844
C	-0.315536978	-0.5774988091	-3.0502640004	 0.173675
O	-1.2461700559	-1.0413594389	-3.6344675003	-0.269238
C	-0.0027300008	 0.1957971747	 1.1483579994	 0.048802
C	-0.4916408801	-1.1801712042	 1.27723596	-0.178247
O	 0.7937402177	-0.8091310771	 1.7946516592	-0.250234
H	 2.262885937	 1.0629538584	 0.8940042803	 0.298977
H	-0.0966035518	 1.4688950069	-0.5693432852	 0.101324
H	 1.6935170422	 0.2824929921	-1.8858997518	 0.127113
H	 1.6858955909	-1.0163236458	-0.6691319232	 0.136702
H	 0.4100001682	 0.1372910872	-3.4856329718	 0.083173
H	-0.3969867704	 0.9490808706	 1.8311465065	 0.109053
H	-1.2439757836	-1.3993471427	 2.0327554159	 0.124002
H	-0.4813033738	-1.8452117068	 0.4190809429	 0.146618
48.2558	64.9298	84.2937	148.8267	218.625	234.4546	302.6168	359.8451	405.1084	413.6009	504.7872	609.0781	692.0186	769.2508	849.9788	925.9802	997.6915	1006.6302	1045.6791	1054.8576	1074.6366	1101.0113	1142.0075	1159.7153	1172.4312	1178.3003	1259.0083	1286.9155	1306.8289	1362.5861	1392.5585	1421.637	1425.2012	1445.4732	1503.8226	1533.6999	1869.9439	2949.4391	3047.281	3050.9465	3103.5097	3109.9713	3113.9447	3204.4039	3786.6399
OC(COC=O)C1CO1	O[C@@H](COC=O)[C@H]1CO1	
InChI=1S/C5H8O4/c6-3-8-1-4(7)5-2-9-5/h3-5,7H,1-2H2	InChI=1S/C5H8O4/c6-3-8-1-4(7)5-2-9-5/h3-5,7H,1-2H2/t4-,5+/m0/s1
