19
gdb 108714	3.20798	1.0344	0.82018	5.2032	80.14	-0.229	-0.0356	0.1934	1400.7619	0.158338	-423.066406	-423.057069	-423.056125	-423.101092	33.825	
C	-0.1652524564	 1.5343818815	 0.0155952356	-0.39621
C	 0.0815476481	 0.0253065937	-0.0324360965	-0.093123
C	 0.9369771717	-0.4808095238	-1.2134807871	-0.3352
C	 2.0097960771	-1.3351155963	-0.5715175416	 0.303055
C	 3.001085683	-2.0657943222	-1.4128925472	-0.166746
O	 3.9046581613	-2.7775476028	-0.594541899	-0.408127
C	 1.9460965316	-1.3234276476	 0.7679243725	-0.282286
C	 0.8303774317	-0.4729788643	 1.2227485615	 0.392555
O	 0.5325955911	-0.1925531454	 2.3624393978	-0.349726
H	 0.7792829987	 2.0877803023	-0.0318110945	 0.116179
H	-0.7931269813	 1.8646285767	-0.8175959476	 0.110648
H	-0.6603637651	 1.7969050328	 0.9541636193	 0.141495
H	-0.8879557301	-0.4885473617	-0.0325588136	 0.104114
H	 0.3572131196	-1.0528702429	-1.9482979511	 0.112635
H	 1.3928704302	 0.3502863078	-1.7687449686	 0.116373
H	 2.4508806952	-2.7366297456	-2.0973114991	 0.106536
H	 3.520037653	-1.3344291821	-2.0585190462	 0.106822
H	 4.5300759611	-3.2372913045	-1.1616088255	 0.294382
H	 2.6155189694	-1.8393047356	 1.4416118709	 0.126622
50.8984	100.0301	146.3697	175.485	225.5505	228.3284	251.3077	349.2942	423.3824	436.5527	499.8083	609.5319	622.0871	713.625	780.4225	868.6893	893.4451	921.1218	933.4817	1015.8208	1039.7323	1074.0752	1105.6456	1127.9731	1146.7032	1177.5981	1205.2323	1220.795	1256.5936	1266.825	1295.8497	1331.5197	1343.0031	1403.9178	1463.6197	1478.971	1495.827	1496.2137	1500.4748	1683.307	1806.5388	2941.1482	2954.4834	3018.2373	3028.5444	3034.4374	3052.2375	3100.6155	3122.6913	3244.3949	3839.9372
CC1CC(CO)=CC1=O	C[C@H]1CC(=CC1=O)CO	
InChI=1S/C7H10O2/c1-5-2-6(4-8)3-7(5)9/h3,5,8H,2,4H2,1H3	InChI=1S/C7H10O2/c1-5-2-6(4-8)3-7(5)9/h3,5,8H,2,4H2,1H3/t5-/m0/s1
