21
gdb 110335	2.84058	1.14787	0.99363	3.1797	83.57	-0.2338	-0.0078	0.2259	1318.6568	0.181469	-387.091157	-387.081785	-387.08084	-387.125588	34.951	
C	 0.2461376658	 1.3901682003	-0.2106773344	-0.375266
C	-0.203219789	-0.0349190072	 0.1317961773	-0.21451
C	 0.6069148229	-0.6321967901	 1.2691297531	-0.005377
C	 0.7806201779	-2.0765819648	 1.5794130941	-0.08819
C	 2.0078534057	-1.2263364782	 1.1182666081	-0.199801
C	 2.0924323983	-2.0997830898	-0.0949503266	 0.413692
O	 2.9292766269	-2.2595603022	-0.9406438287	-0.331786
C	 0.8486110942	-2.9435609068	 0.3070766916	-0.125257
C	 1.2189950656	-4.4100172942	 0.5265912108	-0.407905
H	 1.2926223267	 1.404575821	-0.5315911723	 0.129353
H	-0.3602633677	 1.8110852268	-1.0180642147	 0.115408
H	 0.1542281827	 2.0536546372	 0.6563946366	 0.113395
H	-1.2618432194	-0.0282421156	 0.4226070657	 0.100829
H	-0.1348570601	-0.6606540345	-0.7631277257	 0.111226
H	 0.5646006267	-0.0199576555	 2.1702448204	 0.095167
H	 0.6305555508	-2.4814331272	 2.5729970028	 0.098947
H	 2.8488174557	-0.8337461401	 1.6773502001	 0.10488
H	-0.0183177825	-2.8705731593	-0.3572805762	 0.090029
H	 2.0700462892	-4.5054576562	 1.2092707496	 0.121357
H	 0.3781450506	-4.9672401902	 0.9516377751	 0.117061
H	 1.4974377093	-4.8753358736	-0.4228104268	 0.136748
58.2039	97.6955	148.1509	204.583	213.2728	230.7371	252.4521	314.461	416.5723	466.578	558.7145	631.9038	696.4284	745.0503	792.8999	812.3453	854.0947	882.2801	907.7216	931.9219	980.0892	1016.7691	1042.6909	1058.831	1069.8673	1097.9809	1113.6516	1125.8921	1142.1602	1210.5751	1234.3957	1280.9843	1295.0924	1309.8862	1346.1552	1354.082	1406.3024	1410.6551	1445.672	1485.7422	1493.6807	1497.0397	1498.9578	1507.7191	1869.0513	3024.8385	3034.0244	3035.5468	3052.3197	3074.6532	3102.0125	3103.3212	3110.7638	3112.4839	3118.5562	3184.133	3193.165
CCC1C2C1C(=O)C2C	CC[C@H]1[C@@H]2[C@H]1C(=O)[C@H]2C	
InChI=1S/C8H12O/c1-3-5-6-4(2)8(9)7(5)6/h4-7H,3H2,1-2H3	InChI=1S/C8H12O/c1-3-5-6-4(2)8(9)7(5)6/h4-7H,3H2,1-2H3/t4-,5-,6+,7-/m0/s1
