19
gdb 62773	3.92837	1.02536	0.97341	4.4418	80.82	-0.2468	0.0248	0.2717	1279.7409	0.158773	-382.044184	-382.035382	-382.034438	-382.077337	33.413	
C	-0.0926574208	 1.5476269505	-0.0706349351	-0.47376
C	 0.027421363	 0.0368598341	-0.0639739366	 0.322462
C	-1.1023978594	-0.6500633873	 0.6831402853	-0.444917
C	 0.6155325797	-0.7579119531	-1.1676640103	-0.071325
C	 1.761012067	-0.0262311845	-1.8886671638	-0.197428
C	 2.4219076017	 0.0856827919	-0.47673486	-0.180233
N	 1.30980081	-0.6722003265	 0.1855960375	-0.164443
C	 2.5018233156	-0.8386877601	-2.8387686792	 0.267463
N	 3.0903680506	-1.4850831928	-3.5954145123	-0.321308
H	 0.6529590137	 2.0552322303	-0.6844619581	 0.122595
H	-1.0786335575	 1.8354117462	-0.4492778171	 0.130965
H	-0.005795151	 1.9355672172	 0.9503544838	 0.13193
H	-2.0657319009	-0.4473773164	 0.203609823	 0.118375
H	-0.9449511131	-1.7305392522	 0.7151464311	 0.134284
H	-1.1504592632	-0.286648837	 1.714839444	 0.125902
H	 0.1749098661	-1.6805485559	-1.5323388327	 0.112491
H	 1.4814029862	 0.9116832715	-2.3782535018	 0.126754
H	 3.3470017117	-0.485947261	-0.4008517244	 0.142328
H	 2.5890206109	 1.096633895	-0.0964113131	 0.117866
106.9528	134.8842	169.4698	218.5146	250.5978	278.587	328.7277	363.5865	418.8995	486.7413	522.7149	561.4714	653.9309	735.2333	804.3183	852.6392	882.0541	949.3192	961.7503	981.8014	1033.0097	1038.5465	1065.7773	1069.0649	1093.5859	1144.2917	1163.8392	1209.7008	1226.286	1297.8702	1298.4849	1338.5732	1406.6702	1412.7616	1423.7321	1477.2412	1486.7755	1496.9267	1510.1705	1511.0921	2356.9809	3036.6433	3042.2164	3057.9725	3071.2875	3098.3174	3104.4797	3127.6971	3131.2799	3137.1302	3162.5502
CC1(C)C2C(CN12)C#N	CC1(C)[C@H]2[C@@H](CN12)C#N	
InChI=1S/C7H10N2/c1-7(2)6-5(3-8)4-9(6)7/h5-6H,4H2,1-2H3	InChI=1S/C7H10N2/c1-7(2)6-5(3-8)4-9(6)7/h5-6H,4H2,1-2H3/t5-,6-,9?/m1/s1
