23
gdb 38298	2.59613	1.84449	1.6159	0.0362	87.37	-0.2758	0.0755	0.3513	984.8988	0.21144	-351.131805	-351.125102	-351.124158	-351.162263	30.093	
C	-0.0028432465	 1.4623791596	-0.3013158872	-0.224629
C	 1.5253019139	 1.3254297399	-0.0462511298	 0.011303
C	 1.1418256881	 0.1781034417	 0.9313118798	-0.22463
C	-0.1272669946	-0.0513325058	 0.0539438112	-0.012895
C	 0.0855973851	-1.0221503063	-1.1552374249	-0.012895
C	 0.3861231182	-0.3116548051	-2.510927618	-0.224629
C	 1.8882372226	-0.3298671695	-2.1079889408	 0.011303
C	 1.5308089669	-1.5959374273	-1.278321746	-0.224629
C	 2.3529479292	 0.8847218465	-1.2740319983	-0.223508
H	-0.4606402113	 2.0693251569	 0.4856877917	 0.088522
H	-0.3581267357	 1.8328347567	-1.2629338896	 0.090053
H	 2.0205540634	 2.1943920016	 0.3992135469	 0.055099
H	 1.8434292844	-0.6372329417	 1.1078091241	 0.090052
H	 0.8544518383	 0.5938479709	 1.9018322696	 0.088523
H	-1.0326001236	-0.3412449068	 0.5926116687	 0.057151
H	-0.7219645174	-1.7579532917	-1.1719270973	 0.057152
H	 0.2130142906	-1.003124465	-3.3411319514	 0.088522
H	-0.0955845931	 0.635363981	-2.7544156247	 0.090053
H	 2.6053595075	-0.4728282346	-2.9229164556	 0.055099
H	 2.1060103671	-1.8347158025	-0.3837265871	 0.090052
H	 1.5281238688	-2.4786190577	-1.9250072951	 0.088523
H	 2.4285599205	 1.7460422053	-1.9522419957	 0.093204
H	 3.3770101374	 0.6819022138	-0.9309299906	 0.093204
208.3528	298.4719	325.5536	419.4912	432.1964	444.577	485.3256	571.8592	730.3483	753.9642	794.0907	823.4567	846.1422	847.9017	850.7399	868.1005	902.5438	918.5075	931.548	972.937	985.7325	1019.9241	1044.0995	1058.8318	1076.0182	1110.127	1112.1263	1121.9798	1139.6863	1154.6987	1176.8584	1192.0158	1233.4196	1256.1007	1257.2313	1265.9179	1276.9654	1277.2902	1319.2524	1327.6777	1344.4872	1359.527	1389.0839	1392.6878	1467.24	1476.1287	1501.6803	1515.057	1542.7881	3001.4832	3036.7325	3041.4078	3045.2065	3052.0464	3053.5385	3057.9854	3064.1466	3067.8729	3084.6885	3109.7321	3112.2774	3131.7273	3131.9863
C1C2CC1C1CC(C1)C2	C1[C@H]2C[C@@H]1[C@H]1C[C@H](C1)C2	
InChI=1S/C9H14/c1-6-2-8(3-6)9-4-7(1)5-9/h6-9H,1-5H2	InChI=1S/C9H14/c1-6-2-8(3-6)9-4-7(1)5-9/h6-9H,1-5H2/t6-,7-,8+,9+
