23
gdb 41968	2.30332	1.94697	1.53271	0.104	86.64	-0.2513	0.0751	0.3264	1013.2785	0.211475	-351.174422	-351.167284	-351.16634	-351.205532	30.648	
C	-0.0873093943	 1.4458220583	-0.2318024782	-0.237755
C	 1.3161361729	 1.9909627059	 0.1440981651	-0.203266
C	 1.9828247796	 0.9253105926	 1.0602907094	-0.005565
C	 1.8087727888	 1.2243536347	 2.5611468558	-0.200677
C	 0.3313353648	 1.2862234907	 2.9655528121	-0.202807
C	-0.4154056637	-0.0213487622	 2.6347723087	-0.218606
C	-0.0084990323	-0.6951291196	 1.3315745125	-0.01477
C	 0.0122940412	-0.0690557094	-0.0483469117	-0.045393
C	 1.3119482643	-0.3985936468	 0.6586169046	-0.079475
H	-0.8773463427	 1.8849387186	 0.3867760202	 0.099571
H	-0.3407664676	 1.689053013	-1.2681128777	 0.092795
H	 1.911175994	 2.0896676205	-0.7700519476	 0.094587
H	 1.2823949949	 2.9834591252	 0.6067879912	 0.088779
H	 3.0548626491	 0.8713438367	 0.8460532602	 0.062643
H	 2.3166336487	 0.4424852995	 3.1420774409	 0.087205
H	 2.3029305425	 2.1713111481	 2.8098080437	 0.085724
H	 0.242429871	 1.4857407736	 4.0391710499	 0.087751
H	-0.144275299	 2.1359254935	 2.4645002252	 0.100242
H	-0.2130115664	-0.7416571528	 3.43869359	 0.095759
H	-1.4993311742	 0.1497189224	 2.6531490463	 0.092641
H	-0.2971310571	-1.7438807255	 1.3060336615	 0.074956
H	-0.3387395221	-0.6965252976	-0.8609675557	 0.073962
H	 1.9423832777	-1.2208549793	 0.3379081835	 0.0717
142.5713	204.8978	258.2931	350.8223	399.0461	459.8792	489.8154	633.9385	674.5319	685.0612	740.0456	760.3127	789.5208	839.3621	860.6113	882.0239	903.1725	940.9725	945.1818	967.193	1001.8315	1032.0981	1046.0893	1065.9615	1089.0071	1091.6497	1110.3859	1137.4047	1158.1444	1194.5251	1206.85	1229.9204	1234.8237	1281.7475	1304.8924	1313.1873	1330.8319	1342.9046	1345.5974	1367.1465	1373.2707	1380.2555	1394.0812	1440.2434	1483.0062	1487.6253	1493.7536	1499.2607	1519.6908	3009.3163	3011.016	3033.0375	3033.9344	3041.6564	3043.611	3050.4508	3055.7034	3067.6376	3076.1351	3087.6127	3118.0703	3151.6341	3163.5761
C1CC2CCCC3C1C23	C1C[C@H]2CCC[C@H]3[C@@H]1[C@@H]23	
InChI=1S/C9H14/c1-2-6-4-5-8-7(3-1)9(6)8/h6-9H,1-5H2	InChI=1S/C9H14/c1-2-6-4-5-8-7(3-1)9(6)8/h6-9H,1-5H2/t6-,7+,8-,9+/m1/s1
