13
gdb 25296	3.31089	1.33496	0.95137	2.593	69.67	-0.2573	-0.1034	0.1539	1119.699	0.090448	-452.805146	-452.797699	-452.796754	-452.83779	26.31	
O	-0.8567953887	 1.2011616274	 0.1226165439	-0.230921
C	 0.2712947561	 0.9085553019	-0.1729209475	 0.095996
C	 1.4376853084	 1.8935372781	-0.2849525605	 0.180709
O	 2.5330953218	 1.4469511437	-0.5960862287	-0.342223
C	 1.2064996771	 3.2955090296	-0.0228385946	 0.234071
C	 0.1161440079	 4.0768137895	 0.3374900007	-0.146708
N	 0.4778565361	 5.3832066171	 0.4532208729	-0.253745
C	 1.7727371592	 5.4134208303	 0.169306362	 0.047988
N	 2.2570969984	 4.1902977411	-0.1225751327	-0.294301
H	 0.5952120581	-0.1285438284	-0.4010237362	 0.114365
H	-0.8926144554	 3.7401208345	 0.511696193	 0.155785
H	 2.3899450986	 6.299665821	 0.164915544	 0.151354
H	 3.1962518125	 3.9201739743	-0.3716043263	 0.28763
84.0522	146.4381	158.4954	175.1114	258.3304	445.0015	543.422	570.9696	624.282	668.5557	688.5451	704.7025	863.1946	918.163	929.7777	995.9536	1027.7248	1085.4324	1135.137	1178.052	1263.6728	1316.1675	1369.6949	1386.8722	1436.7006	1478.1497	1579.967	1725.883	1826.9906	2929.9794	3256.126	3283.6852	3646.955
O=CC(=O)C1=CN=CN1	O=CC(=O)c1cnc[nH]1	
InChI=1S/C5H4N2O2/c8-2-5(9)4-1-6-3-7-4/h1-3H,(H,6,7)	InChI=1S/C5H4N2O2/c8-2-5(9)4-1-6-3-7-4/h1-3H,(H,6,7)
