25
gdb 102545	2.05881	1.31365	0.96174	1.6565	88.1	-0.2555	0.0769	0.3324	1386.911	0.226986	-389.481017	-389.470186	-389.469242	-389.516591	40.621	
C	 0.295760609	 0.4864789378	 0.6922505754	-0.395483
C	 0.7324913086	-0.819405306	 0.020370641	-0.171578
C	 0.8560218098	-0.7363663237	-1.5188799626	-0.038744
C	 1.8614234783	 0.3430581592	-1.982519062	-0.212969
C	 3.2784374434	 0.2554911429	-1.3964235487	-0.383675
C	 1.082979226	-2.1395336596	-2.1000616953	 0.413047
C	-0.1285735693	-3.055096297	-2.0839280817	-0.460349
C	 2.1260974552	-2.4381922206	-3.0962573493	-0.236226
O	 2.3112689821	-2.7947626999	-1.7234217067	-0.274708
H	 1.0366575163	 1.282558928	 0.5720955066	 0.120481
H	-0.6511468075	 0.849877196	 0.2761602688	 0.110536
H	 0.1484212523	 0.3373998525	 1.7665670742	 0.112445
H	 1.6885373447	-1.1554974474	 0.435841747	 0.116714
H	 0.0065752185	-1.5982238157	 0.2778015661	 0.093751
H	-0.1254241806	-0.422118044	-1.9046991599	 0.067131
H	 1.9111843403	 0.3236802825	-3.0772356331	 0.091586
H	 1.4391232756	 1.3233743885	-1.7335240637	 0.095216
H	 3.9297262188	 1.0012252824	-1.8636122525	 0.105222
H	 3.2788872874	 0.4546167477	-0.3202058457	 0.116291
H	 3.7210940001	-0.7324507713	-1.5396091536	 0.141339
H	-0.918378512	-2.6587092021	-2.7314113577	 0.119195
H	 0.1459350695	-4.050855836	-2.4403503869	 0.124969
H	-0.5433469497	-3.1624429798	-1.0776957222	 0.127617
H	 1.9814868235	-3.2766213291	-3.7778671632	 0.105186
H	 2.7891663198	-1.6620373152	-3.4690170042	 0.113006
56.2902	101.7915	156.008	177.5599	197.9429	198.7316	230.1289	276.5969	306.158	325.9545	349.1338	379.5715	461.1793	483.9543	589.8722	690.6384	769.9962	795.1333	828.0986	851.0599	909.5243	921.4507	938.5136	1015.7173	1020.0625	1028.358	1056.6018	1084.4849	1114.8649	1137.4982	1148.8331	1169.7773	1176.4975	1230.647	1272.3654	1301.9802	1330.2929	1350.6877	1385.6146	1391.6539	1392.8286	1412.5579	1415.5053	1421.256	1484.0286	1485.2761	1491.9233	1498.6592	1501.4718	1503.9445	1509.6309	1520.182	1536.5521	2989.9143	3030.9029	3035.6536	3038.4226	3042.0251	3045.5824	3058.5059	3074.6419	3085.2751	3097.2286	3101.0527	3106.155	3109.6272	3124.7952	3134.5356	3176.1321
CCC(CC)C1(C)CO1	CCC(CC)[C@@]1(C)CO1	
InChI=1S/C8H16O/c1-4-7(5-2)8(3)6-9-8/h7H,4-6H2,1-3H3	InChI=1S/C8H16O/c1-4-7(5-2)8(3)6-9-8/h7H,4-6H2,1-3H3/t8-/m1/s1
