16
gdb 12682	3.34529	1.8789	1.36456	0.6887	60.07	-0.2451	-0.0365	0.2086	890.2612	0.130313	-420.899661	-420.891892	-420.890948	-420.932127	29.04	
O	 0.1931801904	 1.3425355242	 0.2603742003	-0.441554
C	 0.0594442706	-0.0372256382	 0.0329288235	 0.141733
C	-1.3992305598	-0.5411237294	-0.0965197818	-0.250425
C	-1.2545273336	-1.9307323273	-0.7378096346	-0.328703
C	-0.0534380776	-1.7839295876	-1.6667578303	 0.382039
O	 0.216859653	-2.4603722748	-2.6267797999	-0.320375
C	 0.7372454045	-0.521184882	-1.2607925755	-0.005245
O	 0.4996869416	 0.4752410676	-2.2538011169	-0.4504
H	 0.1193575003	 1.7678945287	-0.6034472212	 0.295479
H	 0.5352221613	-0.5439225578	 0.8820206275	 0.090489
H	-1.9169269784	-0.5498574371	 0.8644058518	 0.110512
H	-1.9443080931	 0.1311024528	-0.7677859222	 0.115347
H	-0.9974807358	-2.6884035513	 0.0160755876	 0.134971
H	-2.1304121283	-2.2990356074	-1.2760478322	 0.134549
H	 1.8099654853	-0.7234538829	-1.15261634	 0.089378
H	 0.7209504097	 0.0915808923	-3.1102785461	 0.302206
40.0357	177.2133	233.6181	265.0363	330.1771	351.3801	411.4914	474.2487	493.4382	534.1098	622.8128	681.0813	802.2964	838.0815	856.4346	960.9144	990.5879	1029.139	1085.3153	1127.3392	1132.2717	1158.9398	1205.6761	1227.9319	1271.3703	1300.2476	1306.7207	1333.9677	1364.2714	1399.5068	1445.999	1452.8781	1495.5028	1842.1449	3023.0103	3025.1676	3039.7741	3058.3286	3111.9266	3119.3406	3778.2087	3803.046
OC1CCC(=O)C1O	O[C@H]1CCC(=O)[C@H]1O	
InChI=1S/C5H8O3/c6-3-1-2-4(7)5(3)8/h3,5-6,8H,1-2H2	InChI=1S/C5H8O3/c6-3-1-2-4(7)5(3)8/h3,5-6,8H,1-2H2/t3-,5-/m0/s1
