19
gdb 114224	4.74831	0.94361	0.8597	2.7346	79.49	-0.2489	0.0025	0.2514	1377.7112	0.158452	-423.002996	-422.994388	-422.993444	-423.036829	32.102	
C	 0.1922018026	 1.2757611717	 0.1778101567	-0.238002
O	 0.0038991164	-0.0828263497	-0.1425317404	-0.241792
C	-1.3431585831	-0.5201541594	-0.0478869735	 0.090343
C	-1.4820525972	-1.885885503	-0.7553815054	-0.351615
C	-2.3366165822	-2.7370204753	 0.1830516078	 0.428106
C	-3.4057104146	-3.6490734227	-0.2562653316	-0.249539
O	-2.1494723711	-4.1588864087	 0.1918905346	-0.280034
C	-2.3593569226	-2.0127843573	 1.4803095029	-0.141153
C	-1.8128311114	-0.8030567288	 1.3675443663	-0.106178
H	 1.2463872143	 1.5048244922	 0.003691246	 0.129701
H	-0.4234178559	 1.932273633	-0.457763582	 0.103736
H	-0.0426120881	 1.4995294905	 1.2292761833	 0.105415
H	-1.9920107485	 0.2398466468	-0.516821587	 0.06995
H	-1.8914365279	-1.8059111334	-1.7642657323	 0.105903
H	-0.4843006402	-2.3280581862	-0.8260305763	 0.140624
H	-4.2546939908	-3.8511941471	 0.3970297314	 0.110387
H	-3.6064586996	-3.7607643616	-1.3217613195	 0.112954
H	-2.7866512937	-2.4518611281	 2.3745097001	 0.10778
H	-1.7258655261	-0.0750167929	 2.1655472488	 0.103412
48.0964	96.8809	169.6781	222.2035	251.1252	322.2157	335.7696	411.2463	417.8641	542.7076	588.2411	704.2523	789.9897	818.0118	831.3811	877.7273	913.753	949.642	976.1434	991.9132	1039.8293	1067.9886	1113.0575	1129.0392	1147.9459	1165.0951	1181.9619	1188.3328	1229.0787	1252.4042	1271.906	1320.1213	1341.5192	1380.0367	1428.9819	1476.324	1479.4605	1491.2344	1509.2501	1526.7686	1675.9183	2945.594	2972.9245	3019.6059	3070.6235	3070.875	3113.4511	3120.9021	3156.6209	3191.2599	3215.2868
COC1CC2(CO2)C=C1	CO[C@H]1C[C@]2(CO2)C=C1	
InChI=1S/C7H10O2/c1-8-6-2-3-7(4-6)5-9-7/h2-3,6H,4-5H2,1H3	InChI=1S/C7H10O2/c1-8-6-2-3-7(4-6)5-9-7/h2-3,6H,4-5H2,1H3/t6-,7+/m1/s1
