21
gdb 84789	2.60672	1.52133	1.22988	1.6192	82.73	-0.2496	0.0115	0.261	1108.777	0.183827	-387.088204	-387.079921	-387.078977	-387.120976	32.969	
O	 0.0822510694	 1.5016088968	 0.6474170215	-0.429276
C	-0.0632789323	 0.2152232025	 0.038940409	 0.03603
C	 0.7960162006	-0.8166176323	 0.7301247605	-0.110764
C	 0.0631222257	-1.6595410422	 1.4580701072	-0.061414
C	-1.4156495627	-1.390550205	 1.3198714325	-0.359317
C	-1.4962717958	-0.3996174712	 0.1393180833	 0.329602
C	-2.6482837894	 0.6374718736	 0.0550245496	-0.274842
C	-2.7786824144	 0.3378054086	-1.462354347	-0.209757
C	-1.9691228993	-0.966494237	-1.2376213478	-0.261329
H	 0.0581193113	 1.3703589802	 1.601941994	 0.274505
H	 0.2177786425	 0.386295366	-1.0055968659	 0.080725
H	 1.8789147098	-0.7877868276	 0.6847264153	 0.096066
H	 0.4593469675	-2.4447790174	 2.0938162043	 0.096809
H	-1.9955141507	-2.3010175951	 1.1269188356	 0.104219
H	-1.8256710189	-0.9649131532	 2.2479441269	 0.1032
H	-3.5290723543	 0.3086260841	 0.6154458473	 0.090092
H	-2.3936017234	 1.656668369	 0.351889151	 0.108005
H	-3.7858971957	 0.2358824472	-1.8724927018	 0.093134
H	-2.232137796	 1.0641965972	-2.0697812798	 0.106912
H	-1.193835489	-1.2216013657	-1.9664687767	 0.095053
H	-2.6224207047	-1.8353363486	-1.111508139	 0.092347
74.0972	121.3268	224.7222	252.5171	310.3106	336.001	360.0699	449.9836	493.3666	545.734	678.2663	740.6788	777.0402	778.4084	807.2166	854.862	892.4075	916.1234	941.4946	964.0121	972.3749	980.9418	1005.1203	1036.6568	1066.9855	1088.1733	1124.2516	1145.0674	1181.7313	1202.8678	1219.8707	1251.1996	1256.8803	1266.5606	1274.2282	1288.3557	1300.0748	1342.7171	1367.7558	1428.3975	1473.8212	1480.8552	1485.1509	1505.7646	1678.0277	2997.2056	3041.2116	3046.5552	3051.1581	3052.654	3061.4012	3088.5598	3108.3086	3121.0932	3177.2295	3205.1189	3797.7545
OC1C=CCC11CCC1	O[C@H]1C=CCC21CCC2	
InChI=1S/C8H12O/c9-7-3-1-4-8(7)5-2-6-8/h1,3,7,9H,2,4-6H2	InChI=1S/C8H12O/c9-7-3-1-4-8(7)5-2-6-8/h1,3,7,9H,2,4-6H2/t7-/m0/s1
