21
gdb 53620	4.33209	0.70581	0.63186	1.5995	87.32	-0.2393	0.0563	0.2956	1804.9363	0.182083	-387.075503	-387.065326	-387.064382	-387.113923	34.831	
C	 0.0016277595	 1.519969317	-0.0205858062	-0.497505
C	 0.0113223401	 0.0638128832	-0.0423892461	 0.094159
C	 0.0311717862	-1.1401766847	-0.0608822847	 0.038715
C	 0.0251385859	-2.6002695254	-0.0835707784	-0.382449
C	-1.3791574446	-3.2070021195	 0.069132607	 0.019669
C	-1.4101764024	-4.7443604738	 0.0655970807	-0.254827
C	-2.7388084461	-5.0526859626	 0.773684343	-0.068726
O	-3.0567162352	-3.9136548357	 1.5767699595	-0.262472
C	-2.0630968444	-2.9104005121	 1.4093064103	-0.062236
H	 1.0101627865	 1.9262403253	-0.1563388707	 0.14731
H	-0.6282011401	 1.9272398036	-0.8193226566	 0.146596
H	-0.383050184	 1.9029721678	 0.9311462613	 0.147088
H	 0.4702754268	-2.9549462943	-1.0224376691	 0.125831
H	 0.6683061541	-2.9862477199	 0.7200015932	 0.123179
H	-2.0166017759	-2.829540101	-0.7392270495	 0.08776
H	-1.3554207601	-5.1778111046	-0.9362880198	 0.10415
H	-0.564215463	-5.133455978	 0.6449589586	 0.102611
H	-3.5520980874	-5.2121726513	 0.0523196546	 0.09712
H	-2.6769241003	-5.944746966	 1.4092843184	 0.098414
H	-1.3266007943	-2.951044769	 2.2303645109	 0.08289
H	-2.5490286013	-1.9313022289	 1.4417512436	 0.112724
14.4779	38.5586	52.1775	75.8913	159.3351	210.2815	245.8297	314.0842	386.5512	400.618	451.6725	611.497	682.6708	768.5932	842.1657	855.3741	917.8724	923.4983	968.8132	986.8139	1053.4841	1053.9945	1069.847	1092.4705	1120.8292	1142.5244	1167.7842	1196.0355	1216.924	1229.4548	1274.509	1287.387	1331.0167	1343.7754	1368.0614	1381.006	1412.7321	1415.7512	1471.8632	1479.0244	1479.6661	1492.7501	1522.6109	1536.4168	2372.7168	2955.6943	3004.602	3005.2424	3026.1957	3027.7302	3033.0538	3044.2194	3050.0411	3085.1702	3086.1878	3086.4628	3101.2226
CC#CCC1CCOC1	CC#CC[C@H]1CCOC1	
InChI=1S/C8H12O/c1-2-3-4-8-5-6-9-7-8/h8H,4-7H2,1H3	InChI=1S/C8H12O/c1-2-3-4-8-5-6-9-7-8/h8H,4-7H2,1H3/t8-/m0/s1
