18
gdb 74736	2.33745	1.87805	1.38212	3.285	76.39	-0.2253	-0.0181	0.2072	995.8725	0.14972	-401.967605	-401.960163	-401.959219	-401.999395	29.588	
C	 0.0173659775	 1.4945318868	 0.081859984	-0.507412
C	-0.0712834285	 0.0089112324	-0.0128582786	 0.323743
C	-0.0522797187	-0.8046393175	-1.0763174248	-0.197456
C	 0.017466423	-2.2426709836	-0.5449213631	-0.065655
C	 1.452355239	-2.445402668	 0.0093854382	-0.305282
C	 1.4239080688	-1.4481415147	 1.1853173061	 0.455938
O	 2.3271837745	-1.1169658937	 1.9031340074	-0.330443
C	-0.0372541259	-0.9301103189	 1.208251344	-0.215726
N	-0.7169468441	-2.1598815554	 0.746938253	-0.294404
H	 0.9271763989	 1.7941381599	 0.6167437464	 0.147775
H	 0.0336934736	 1.9629372691	-0.905861364	 0.128578
H	-0.8270194479	 1.90912948	 0.6463907222	 0.129783
H	 0.0222152487	-0.5195814472	-2.118488551	 0.101141
H	-0.3454420877	-3.0333476901	-1.2010423402	 0.075321
H	 1.598304887	-3.4565520776	 0.4001297034	 0.133639
H	 2.2515081773	-2.2194971951	-0.6981168004	 0.123909
H	-0.3666677667	-0.535040586	 2.1676978262	 0.081409
H	-1.6937750088	-1.9387137006	 0.5566834213	 0.215141
108.74	164.1183	185.9722	300.7821	404.3037	437.3172	464.6348	551.4209	576.1212	626.4319	643.6541	777.3179	817.7796	827.7497	855.6674	887.2543	916.1982	938.3882	970.9647	1014.8034	1033.1793	1056.4227	1063.1554	1117.7194	1135.9268	1168.1776	1184.1599	1212.7731	1255.5014	1281.4186	1307.8439	1326.4576	1393.4059	1411.9304	1454.2864	1478.3853	1486.2488	1686.0914	1862.7845	3020.9509	3070.0692	3070.484	3112.491	3118.3206	3130.0531	3138.1501	3209.2675	3464.3007
CC1=CC2CC(=O)C1N2	CC1=C[C@H]2CC(=O)[C@@H]1N2	
InChI=1S/C7H9NO/c1-4-2-5-3-6(9)7(4)8-5/h2,5,7-8H,3H2,1H3	InChI=1S/C7H9NO/c1-4-2-5-3-6(9)7(4)8-5/h2,5,7-8H,3H2,1H3/t5-,7+/m0/s1
