13
gdb 130036	2.08214	1.94835	1.01381	3.3506	75.18	-0.2336	-0.0791	0.1545	1065.9613	0.089806	-448.942827	-448.935028	-448.934084	-448.975349	28.494	
N	 0.2155811439	 1.2330238024	 0.1683684675	-0.581008
C	 0.0827496851	-0.1278654657	 0.0432281442	 0.313592
N	-1.0444675738	-0.744366747	 0.0207351485	-0.298184
C	-0.8079243994	-2.1770583356	-0.0248321553	-0.272462
C	 0.720046002	-2.4113239363	-0.0579717365	 0.315095
C	 1.2415270469	-1.0279599792	-0.0037378639	 0.174394
N	 2.4970963778	-0.707745779	 0.035465267	 0.083627
N	 3.6069870461	-0.4785249364	 0.0687443627	-0.218755
O	 1.3186689979	-3.454778097	-0.1079580713	-0.327474
H	 1.0152356402	 1.6592168126	-0.275039371	 0.258499
H	-0.6487078686	 1.7346161998	 0.0171345698	 0.26665
H	-1.2309297459	-2.6872204146	 0.8499561912	 0.143621
H	-1.2678896222	-2.632477174	-0.9104334328	 0.142404
101.1022	127.0823	181.4637	260.3141	309.0006	368.9841	445.9897	523.4578	525.0188	555.779	593.1384	602.2042	662.3657	712.4011	730.7281	971.32	981.6017	1044.6204	1105.4621	1182.32	1186.9134	1271.9674	1365.1612	1454.2655	1464.0275	1625.4405	1698.0248	1823.2606	2210.6838	3031.3441	3063.4438	3565.9065	3675.4029
NC1=NCC2=C1N=NO2	NC1=NCC(=O)[C]1[N][N]	
InChI=1S/C4H4N4O/c5-4-3-2(1-6-4)9-8-7-3/h1H2,(H2,5,6)	InChI=1S/C4H4N4O/c5-4-3(8-6)2(9)1-7-4/h1H2,(H2,5,7)
