22
gdb 103765	3.02409	1.10899	0.97261	1.7253	82.82	-0.2357	0.064	0.2997	1320.2888	0.193142	-404.311389	-404.301513	-404.300569	-404.346609	36.788	
C	-0.0925379573	 1.584885293	 0.1669671551	-0.458546
C	-0.0997564744	 0.0705845936	 0.1028750859	 0.225503
C	-1.3905125314	-0.5443889016	-0.406116529	-0.140462
O	-1.578744755	-0.3708520902	-1.8053698968	-0.415955
N	 1.1701576246	-0.5316493633	-0.3589673986	-0.416841
C	 0.756771836	-0.7264129905	 1.0272842615	 0.329776
C	 1.5599200625	-0.2373367187	 2.2410734234	-0.286384
C	 0.9548098178	-1.4140529575	 3.0614103151	-0.210975
C	 0.4221425462	-2.0474551091	 1.7423044704	-0.311028
H	 0.8837541557	 1.9555901781	 0.4844961887	 0.135486
H	-0.2947643504	 2.0219393927	-0.8188413234	 0.107257
H	-0.8529085735	 1.9565794074	 0.8636371744	 0.112324
H	-1.380209611	-1.6273280799	-0.2534741757	 0.103778
H	-2.244414655	-0.1403587925	 0.1620283204	 0.086372
H	-1.6310885963	 0.5729419999	-1.9856874073	 0.28565
H	 0.9768303472	-1.362739391	-0.9160162154	 0.228087
H	 2.6368757208	-0.3358595017	 2.0778671507	 0.110208
H	 1.3532581974	 0.7734053727	 2.6016986295	 0.09908
H	 1.6567408074	-2.0172423806	 3.639939868	 0.102235
H	 0.1470418253	-1.0922137409	 3.7228429972	 0.104308
H	-0.6179810426	-2.3835050631	 1.7395349062	 0.103976
H	 1.0504634658	-2.8721675267	 1.3896294496	 0.10615
40.4423	80.1476	148.7415	174.9422	184.0439	240.9347	276.1367	315.8418	368.3505	424.6863	455.0044	502.8912	605.5559	720.1192	723.9324	783.1445	828.4097	878.229	934.3104	938.5611	946.7881	975.0456	989.2212	1029.8699	1061.4747	1076.8782	1101.7056	1119.2201	1150.1181	1193.5801	1213.1131	1223.1525	1248.4686	1254.065	1277.7757	1281.5112	1319.9596	1375.9262	1411.5379	1421.5214	1453.9115	1471.4142	1480.567	1489.6432	1496.5802	1500.3991	1507.6555	2971.274	3022.3034	3044.6279	3057.3285	3070.3778	3078.6643	3085.4445	3094.5926	3104.5655	3126.9468	3130.5641	3475.7086	3821.7696
CC1(CO)NC11CCC1	C[C@@]1(CO)NC21CCC2	
InChI=1S/C7H13NO/c1-6(5-9)7(8-6)3-2-4-7/h8-9H,2-5H2,1H3	InChI=1S/C7H13NO/c1-6(5-9)7(8-6)3-2-4-7/h8-9H,2-5H2,1H3/t6-/m0/s1
