17
gdb 22390	2.75184	1.53509	1.15689	1.3568	71.91	-0.2371	0.0055	0.2426	1059.1525	0.136691	-455.061988	-455.054242	-455.053298	-455.093953	30.735	
O	-0.0587537727	 1.2386886891	-0.0177202092	-0.393814
N	 0.0040375292	-0.1660759101	 0.0109261828	-0.305718
C	-1.1447267725	-0.6942417792	 0.0268875769	 0.399738
C	-2.5793132161	-0.1993920822	 0.0230115538	-0.26994
N	-3.3136610318	-1.5073495825	 0.0529876155	-0.132399
C	-2.5175527214	-2.2958343588	-0.9686711084	-0.237488
C	-1.3401292593	-2.186033701	 0.0583180204	 0.32909
O	-0.2219750105	-2.9874067417	 0.0700007378	-0.485953
C	-2.5085384613	-2.2535323704	 1.0990714311	-0.23744
H	 0.8715783743	 1.4887194645	-0.0269378669	 0.308299
H	-2.8267494303	 0.4064306348	 0.8988976661	 0.135171
H	-2.8344860688	 0.3701319412	-0.8747359977	 0.135172
H	-2.9126082518	-3.3094077234	-1.0582114562	 0.120649
H	-2.4196646005	-1.8268813975	-1.9512791414	 0.109857
H	 0.54956111	-2.403755396	 0.0538708004	 0.294259
H	-2.4021842588	-1.7448141952	 2.0607951454	 0.109864
H	-2.9026276777	-3.2625224115	 1.2334225195	 0.120653
118.6434	167.1696	278.7471	299.6033	321.2807	377.005	413.0468	466.7517	475.4335	591.793	596.3944	611.8562	692.2179	817.0403	849.1864	856.9772	916.2905	962.99	988.6287	1006.06	1019.1294	1023.3315	1089.1817	1118.2607	1165.5695	1205.2147	1205.5381	1222.2825	1241.6608	1295.9052	1352.7946	1403.7114	1421.8778	1477.8753	1494.5538	1532.3456	1796.0005	3060.6717	3063.1389	3069.0187	3111.9393	3132.0328	3135.1766	3739.995	3815.9864
ON=C1CN2CC1(O)C2	ON=C1CN2C[C@]1(O)C2	
InChI=1S/C5H8N2O2/c8-5-2-7(3-5)1-4(5)6-9/h8-9H,1-3H2	InChI=1S/C5H8N2O2/c8-5-2-7(3-5)1-4(5)6-9/h8-9H,1-3H2
