23
gdb 96249	2.29555	1.49105	1.04217	0.8926	87.8	-0.2319	0.0203	0.2522	1247.2876	0.207258	-388.300088	-388.291199	-388.290255	-388.333134	35.246	
C	 0.1176410117	 1.5518541931	 0.1213168661	-0.392993
C	 0.0250062391	 0.032874991	-0.0101143014	 0.1491
C	 0.6586081216	-0.4668059791	-1.3183445906	-0.1905
C	 0.8507164936	-1.9978490594	-1.3686878942	-0.254392
C	-0.4122503432	-2.7645111029	-1.0825584196	-0.041689
C	-0.8132990951	-3.1473234706	 0.1317518734	-0.054814
C	-0.0610236485	-2.9041478596	 1.4194108845	-0.254139
C	-0.0780609503	-1.442687024	 1.9144022616	-0.067202
O	 0.6799655316	-0.553933861	 1.1180299171	-0.264332
H	 1.1655213898	 1.8613433019	 0.1882604326	 0.122229
H	-0.3348362785	 2.0496210599	-0.7428171616	 0.108236
H	-0.3957818546	 1.8933507121	 1.0248009589	 0.112831
H	-1.0314470193	-0.2646755355	 0.0010059555	 0.073281
H	 0.0268549078	-0.1323513409	-2.1515087892	 0.092586
H	 1.6367346133	 0.0115561815	-1.4529382134	 0.09658
H	 1.2416361788	-2.2702019721	-2.3555824455	 0.092177
H	 1.6192286749	-2.2597531848	-0.6349527563	 0.112933
H	-1.0579881297	-2.9750869581	-1.9334678922	 0.079586
H	-1.768257087	-3.6605693277	 0.223296183	 0.081971
H	-0.4857181697	-3.5267289587	 2.2157812816	 0.093618
H	 0.9897479977	-3.2021745622	 1.3180042435	 0.116495
H	-1.1168352349	-1.0902070833	 2.0065535143	 0.089024
H	 0.3716950409	-1.4070581596	 2.9137777321	 0.099415
109.9201	153.5362	204.0129	236.8353	255.5339	276.3921	317.0738	359.4398	439.1836	468.4438	517.9921	570.7762	602.3709	735.8325	781.2102	824.2511	843.9045	884.5885	929.5066	948.3776	980.0438	1002.3845	1009.6914	1049.1687	1063.8211	1099.3517	1125.6535	1143.906	1152.9946	1196.0365	1252.6	1258.6097	1282.4709	1305.5371	1329.2798	1342.7295	1350.7581	1378.4785	1399.1734	1407.641	1415.2939	1431.6053	1471.1309	1478.0332	1487.147	1492.9913	1495.4386	1501.1349	1715.9072	2984.6157	3017.4539	3018.7342	3025.5124	3035.5063	3038.432	3056.3863	3060.8165	3067.8229	3084.7792	3108.1453	3113.1691	3130.5174	3155.6842
CC1CCC=CCCO1	C[C@H]1CCC=CCCO1	
InChI=1S/C8H14O/c1-8-6-4-2-3-5-7-9-8/h2-3,8H,4-7H2,1H3/b3-2-	InChI=1S/C8H14O/c1-8-6-4-2-3-5-7-9-8/h2-3,8H,4-7H2,1H3/b3-2-/t8-/m0/s1
