20
gdb 5834	2.98128	1.5376	1.3406	2.2296	71.34	-0.2704	-0.0383	0.2321	1028.8909	0.17337	-386.159671	-386.150013	-386.149069	-386.193412	35.788	
C	-0.0286711543	 1.5323499209	 0.0520490161	-0.407776
C	-0.0124684478	-0.0069834232	 0.0575775627	 0.237028
C	 0.6956971194	-0.512754217	 1.3259228863	-0.41519
C	-1.4598577985	-0.5275408262	 0.0029538719	-0.424837
C	 0.7814882371	-0.4695748036	-1.2072654379	 0.050965
O	 2.0710873009	 0.0823293756	-1.2299306035	-0.441667
C	 0.8799131391	-1.9772563181	-1.3369522297	 0.130011
O	 1.9493759345	-2.5366621667	-1.4113810043	-0.269604
H	 0.9875083077	 1.9317611396	 0.0408486622	 0.140269
H	-0.5556772673	 1.9187409552	-0.8276553084	 0.106846
H	-0.5422138915	 1.9092712664	 0.9429722425	 0.107511
H	 0.2033263779	-0.1223352201	 2.2222269441	 0.112196
H	 0.6820062311	-1.6067625504	 1.3907784692	 0.110804
H	 1.7382864302	-0.1852036464	 1.3373444823	 0.132108
H	-1.9497101759	-0.2558189968	-0.9391968666	 0.113212
H	-1.5227055393	-1.6142492613	 0.1178881834	 0.112005
H	-2.0446730274	-0.0841780267	 0.8153593737	 0.120872
H	 0.2069510116	-0.1289203303	-2.0901149948	 0.087519
H	 2.6752440206	-0.6723965655	-1.3179791549	 0.294154
H	-0.0686768079	-2.5449213851	-1.3829332944	 0.103572
74.8203	106.3945	200.5295	232.2145	245.0822	262.9841	281.2633	323.6313	345.1417	350.1164	388.0294	445.4311	473.6359	539.7866	707.956	785.3444	840.0369	929.8413	939.0413	946.3403	960.9936	984.8166	1042.7211	1066.8428	1154.8685	1210.0035	1247.8695	1254.2812	1290.2935	1337.8673	1392.2887	1394.8357	1403.7216	1429.4646	1439.406	1477.0774	1485.5639	1490.9508	1501.5172	1508.5925	1520.1889	1802.4831	2922.783	2958.9516	3026.6001	3028.7584	3035.0045	3090.364	3094.1359	3096.041	3101.0161	3121.2949	3131.4217	3680.0661
CC(C)(C)C(O)C=O	CC(C)(C)[C@@H](O)C=O	
InChI=1S/C6H12O2/c1-6(2,3)5(8)4-7/h4-5,8H,1-3H3	InChI=1S/C6H12O2/c1-6(2,3)5(8)4-7/h4-5,8H,1-3H3/t5-/m0/s1
