22
gdb 121275	3.77922	0.91598	0.81528	0.9259	81.67	-0.2278	0.0833	0.311	1465.9565	0.195772	-404.329231	-404.320307	-404.319363	-404.363218	34.067	
O	-0.04483611	 1.4663798507	 0.1254377417	-0.425139
C	 0.0431184145	 0.0542635987	-0.0165572928	-0.075401
C	-1.3729791969	-0.5046865642	 0.0448098828	-0.181794
C	-1.4272755127	-2.0272607028	-0.0419291133	 0.052084
C	-2.8478496855	-2.6298241712	 0.0911654877	-0.258587
C	-2.7572685529	-3.9587879126	-0.6868302472	-0.231309
C	-1.6650182699	-3.7001331681	-1.7155925626	-0.004343
C	-1.7250305876	-2.4252547281	-2.4747090819	-0.254737
N	-0.8412082386	-2.5483348706	-1.3023954697	-0.097887
H	 0.838716278	 1.8313307143	 0.0236441169	 0.283816
H	 0.5111670022	-0.2285513412	-0.9695833174	 0.105327
H	 0.6509795503	-0.3890675987	 0.7897339646	 0.080266
H	-1.8367321112	-0.1796933527	 0.9839167109	 0.103936
H	-1.9636209751	-0.0613355244	-0.7661960601	 0.1011
H	-0.7970257007	-2.4461985733	 0.7547488972	 0.076411
H	-3.1358494466	-2.7705849402	 1.135820148	 0.102183
H	-3.5934079331	-1.9634772988	-0.3546315032	 0.104531
H	-2.4453549538	-4.7758569148	-0.0264896041	 0.10525
H	-3.709336836	-4.253042576	-1.1394101311	 0.104524
H	-1.1332358382	-4.5513966099	-2.1318845268	 0.085965
H	-1.2011650056	-2.3321874304	-3.4214690513	 0.113116
H	-2.6261384008	-1.8211629259	-2.4041521984	 0.110687
77.449	93.5648	127.0041	207.1134	263.9235	271.6908	343.5951	349.7508	413.9506	543.2854	636.2114	653.7593	723.2241	798.3326	841.5207	854.9376	883.4597	945.5931	952.4066	964.1536	1012.8338	1024.9581	1051.9623	1074.3142	1091.0845	1104.9644	1117.6481	1146.6465	1170.0231	1186.1061	1213.8562	1225.1783	1247.8023	1272.1816	1298.4647	1311.9848	1327.885	1333.5592	1356.141	1389.825	1394.8346	1459.6003	1485.4966	1490.432	1494.8515	1523.3929	1528.6862	2963.6103	3004.7984	3020.8192	3032.5643	3041.4915	3054.2591	3074.9692	3082.5474	3103.3695	3110.1515	3142.8913	3190.4825	3832.2063
OCCC1CCC2CN12	OCC[C@H]1CC[C@H]2CN12	
InChI=1S/C7H13NO/c9-4-3-6-1-2-7-5-8(6)7/h6-7,9H,1-5H2	InChI=1S/C7H13NO/c9-4-3-6-1-2-7-5-8(6)7/h6-7,9H,1-5H2/t6-,7+,8?/m1/s1
