19
gdb 39997	3.18616	1.49046	1.25063	1.7475	79.47	-0.2424	0.0203	0.2627	1047.8867	0.160679	-385.869711	-385.862424	-385.86148	-385.901541	29.401	
C	-0.5696079469	 1.3069664362	 0.2613644685	-0.264239
O	 0.7985544682	 1.0438465793	-0.0786686718	-0.271813
C	-0.0810212056	-0.0586659347	 0.0597775055	 0.466658
C	 0.1238554094	-1.1763610937	 1.0866110446	-0.334565
C	-0.440516426	-2.1774348855	 0.0268127079	-0.064264
C	-1.9126403389	-2.4751347362	 0.1209032166	-0.074417
C	-2.6291866715	-1.8393383388	-0.8068424331	-0.058512
C	-1.7801668704	-0.9950765427	-1.7324228963	-0.275265
C	-0.3890452825	-1.054266873	-1.0719098994	-0.117368
H	-0.7389760174	 1.6734785414	 1.2736468559	 0.112208
H	-1.1538205955	 1.803077323	-0.512803669	 0.113316
H	 1.1848223563	-1.3352469214	 1.3003359936	 0.112827
H	-0.4217778073	-1.0935277234	 2.0303330813	 0.102812
H	 0.167413861	-3.0740106958	-0.1241590758	 0.076055
H	-2.32190932	-3.1407135965	 0.8741121588	 0.090926
H	-3.70590358	-1.914002917	-0.9186343935	 0.091667
H	-1.7716457668	-1.4080207328	-2.7501957752	 0.106908
H	-2.1554522144	 0.0317195364	-1.8250604711	 0.104605
H	 0.4378085082	-1.1214090847	-1.7815683474	 0.082461
67.5564	210.9964	250.0783	304.6762	346.5933	432.1977	467.6148	549.6027	686.9933	745.6448	765.5079	802.8204	827.0157	855.5413	881.4552	893.7508	932.4852	946.725	974.3002	999.6158	1017.8179	1032.5233	1069.6772	1114.5325	1128.8219	1132.6885	1152.3476	1158.6371	1193.0606	1196.549	1235.6895	1264.0493	1294.1163	1305.0665	1329.3409	1378.0517	1424.2548	1474.9813	1483.6461	1533.1652	1678.2478	3014.6169	3045.5964	3052.995	3062.7831	3075.9131	3095.9432	3108.8875	3160.453	3174.3733	3199.8868
C1OC11CC2C=CCC12	C1O[C@]21C[C@H]1C=CC[C@@H]21	
InChI=1S/C8H10O/c1-2-6-4-8(5-9-8)7(6)3-1/h1-2,6-7H,3-5H2	InChI=1S/C8H10O/c1-2-6-4-8(5-9-8)7(6)3-1/h1-2,6-7H,3-5H2/t6-,7-,8+/m1/s1
