19
gdb 81078	2.78814	1.43114	1.16595	2.4541	76.	-0.24	0.0644	0.3044	1105.1908	0.160519	-419.100042	-419.091921	-419.090976	-419.133435	31.345	
O	 0.7659034242	 1.0300277679	-0.3209657712	-0.435553
C	 0.3094489594	-0.2556515347	 0.0075140705	 0.094083
C	-0.2380075277	-0.5886792619	 1.430139201	-0.085045
C	-1.4212861401	 0.3701316997	 1.1571223745	-0.257986
C	-1.2210612041	-0.4947614481	-0.1258353703	 0.329405
N	-1.0808124779	-1.688510808	 0.8166788966	-0.352224
C	-2.0343028476	-0.5382716602	-1.370715122	-0.14953
C	-3.4346295255	-0.0469396415	-1.370068664	-0.237484
N	-2.3813033035	 0.722035017	-2.0516617354	-0.317676
H	 1.6932950886	 1.1009795228	-0.0737566522	 0.288872
H	 0.9342987671	-1.0452025174	-0.4364745191	 0.062504
H	 0.3064926935	-0.7391540663	 2.3630553382	 0.080026
H	-2.3284598219	 0.1563945951	 1.7228646073	 0.106315
H	-1.1844379886	 1.4302823557	 1.0838511569	 0.112107
H	-0.4656377922	-2.389069642	 0.3843228279	 0.20167
H	-1.7647820788	-1.3408171517	-2.0559624408	 0.086081
H	-4.1660717168	-0.5037339675	-2.0303855095	 0.119421
H	-3.8373391104	 0.3274505356	-0.4331171728	 0.115404
H	-2.0911937377	 1.5065391155	-1.4717624156	 0.23961
32.6194	141.3745	190.9047	248.4548	300.67	323.4668	392.5577	474.56	573.0212	605.8741	636.2065	782.2699	823.7779	858.8502	883.1214	902.4497	924.0283	942.6683	965.8434	978.7872	1019.7273	1049.1144	1094.7152	1102.9756	1125.1955	1140.9159	1147.7475	1161.7514	1182.6633	1207.3717	1217.8536	1237.8664	1262.8377	1277.7232	1298.8443	1312.6382	1329.9967	1409.9942	1438.1807	1493.7759	1509.6374	2994.0049	3089.471	3109.9651	3112.1733	3115.9254	3171.769	3199.499	3349.5609	3495.5102	3818.605
OC1C2CC1(N2)C1CN1	O[C@H]1[C@H]2C[C@@]1(N2)[C@H]1CN1	
InChI=1S/C6H10N2O/c9-5-3-1-6(5,8-3)4-2-7-4/h3-5,7-9H,1-2H2	InChI=1S/C6H10N2O/c9-5-3-1-6(5,8-3)4-2-7-4/h3-5,7-9H,1-2H2/t3-,4-,5+,6-/m1/s1
