18
gdb 40395	3.98846	1.2592	1.14774	1.413	75.04	-0.2127	0.0679	0.2806	1103.4133	0.147795	-401.830044	-401.822582	-401.821638	-401.862291	29.555	
C	-0.4474094413	 1.1176627183	-0.5705589975	-0.176938
O	 0.6397135237	 1.5072756926	 0.2629818975	-0.225247
C	 0.3094112361	 0.1118238804	 0.1892839862	-0.0865
C	-0.2252008947	-0.5164012631	 1.4159418258	 0.356128
N	-1.2934879983	-1.554490382	 1.3650928233	-0.378029
C	-1.4773705124	-0.3195091086	 2.1719885664	-0.126791
C	-0.7184609037	-0.4807621331	 3.5208705366	-0.052087
C	 0.0174857183	-1.7915401416	 3.6171231638	-0.294679
C	 0.5740833969	-0.6970646693	 2.7470598667	-0.108975
H	-1.4333521852	 1.4241961128	-0.2237472227	 0.113163
H	-0.2805745286	 1.2160309908	-1.6423910775	 0.117732
H	 1.0531804672	-0.4770615711	-0.3513992924	 0.099806
H	-1.79863034	-1.4105084789	 0.4900650763	 0.226081
H	-2.311483593	 0.3465163839	 1.9911932728	 0.095817
H	-0.8871070643	 0.1693676087	 4.3686894908	 0.092493
H	 0.5524529885	-1.9338061331	 4.5511768194	 0.107936
H	-0.3964600882	-2.6899752902	 3.1781373601	 0.141513
H	 1.534881059	-0.2275944565	 2.9105208646	 0.098579
66.9045	139.5644	173.9373	307.0637	408.5003	446.4445	489.2684	578.9634	613.2234	720.0259	759.4999	818.1649	843.2259	850.3763	883.986	897.8967	921.2752	929.0064	964.1076	989.6326	1023.3767	1035.7635	1047.2885	1058.4895	1098.9033	1103.8896	1140.6827	1160.6395	1167.6276	1183.2289	1212.0342	1273.8081	1286.0074	1306.4952	1332.7428	1408.999	1461.2269	1474.259	1523.5818	3081.7598	3089.0734	3139.1206	3168.2441	3191.2661	3199.8909	3208.0429	3234.0335	3463.0584
C1OC1C12NC1C1CC21	C1O[C@H]1[C@]12N[C@H]1[C@H]1C[C@@H]21	
InChI=1S/C7H9NO/c1-3-4(1)7(5-2-9-5)6(3)8-7/h3-6,8H,1-2H2	InChI=1S/C7H9NO/c1-3-4(1)7(5-2-9-5)6(3)8-7/h3-6,8H,1-2H2/t3-,4+,5+,6-,7-/m0/s1
