19
gdb 104051	3.4402	1.26481	1.14941	1.9303	70.67	-0.2475	0.0556	0.3032	1121.2828	0.158397	-460.117453	-460.108946	-460.108002	-460.150437	32.428	
C	 0.157226213	 1.4871553693	 0.0613604192	-0.439005
C	-0.0356765637	-0.0119994185	 0.1088775103	 0.350582
C	-1.4827545165	-0.4519359685	-0.1288197695	-0.086751
O	-1.8608659218	-0.2099778978	-1.4672749006	-0.421077
O	 0.7893941668	-0.7101558977	-0.9029200979	-0.357898
C	 1.3695930176	-1.5705518104	 0.0941030846	 0.065002
C	 2.6607769562	-1.0009703854	 0.6974434398	-0.097336
O	 1.9040689666	-0.250312911	 1.6855147091	-0.290989
C	 0.6618634006	-0.8139914248	 1.2325698042	 0.003152
H	 1.207381372	 1.7457929101	 0.2043493955	 0.132027
H	-0.1897326322	 1.8710135737	-0.9015232845	 0.136174
H	-0.4285017089	 1.9674949242	 0.8524185654	 0.119748
H	-1.5890725331	-1.5188867426	 0.131078664	 0.079571
H	-2.1652648666	 0.1159092746	 0.5127311453	 0.109325
H	-1.1571290258	-0.5973758926	-2.0047315904	 0.291878
H	 1.3026338633	-2.6310193618	-0.1520504289	 0.092913
H	 3.3120538057	-1.7397819223	 1.1808450945	 0.107779
H	 3.2442419169	-0.359516781	 0.0293490705	 0.118071
H	 0.0562123898	-1.2252133877	 2.0429642494	 0.086833
99.5571	137.0539	169.6135	205.8317	256.2076	321.78	353.0296	382.7045	437.8407	501.6736	576.5706	670.7056	788.9048	816.8491	857.0431	887.7165	927.217	952.0949	965.4271	983.2938	1004.8967	1058.1199	1067.1803	1084.5519	1135.2184	1160.4886	1184.6456	1199.6134	1210.9726	1237.8728	1289.977	1302.578	1331.9704	1356.4972	1384.3056	1408.881	1433.741	1483.1516	1486.2951	1502.2113	1504.9131	2958.5573	3022.1463	3046.8315	3071.3567	3085.6982	3088.3616	3106.2188	3117.5603	3146.9848	3765.2506
CC1(CO)OC2COC12	C[C@@]1(CO)O[C@H]2CO[C@@H]12	
InChI=1S/C6H10O3/c1-6(3-7)5-4(9-6)2-8-5/h4-5,7H,2-3H2,1H3	InChI=1S/C6H10O3/c1-6(3-7)5-4(9-6)2-8-5/h4-5,7H,2-3H2,1H3/t4-,5+,6-/m0/s1
