25
gdb 110059	2.03227	1.46326	1.09111	1.0718	88.2	-0.2433	0.0698	0.3131	1287.7576	0.229055	-389.502512	-389.492255	-389.491311	-389.537705	38.542	
C	 1.303928526	 1.1697324005	-0.3690791408	-0.239868
O	 0.2542255157	 0.4455853459	 0.2279756268	-0.240407
C	 0.6854519794	-0.6078763192	 1.0666116453	 0.13459
C	-0.4663082439	-1.0667128647	 2.0209067867	 0.002219
C	-1.8600075366	-0.5760610405	 1.6168607439	-0.386554
C	-0.3513814881	-2.6148830202	 2.069832652	-0.21674
C	 1.0071205038	-2.9535684563	 1.4251306064	-0.216232
C	 1.1847403359	-1.8829804553	 0.3322200286	-0.023431
C	 0.3925368052	-2.1985962205	-0.9431723978	-0.388594
H	 1.8980642227	 0.5567856338	-1.0630453251	 0.105641
H	 0.8528451986	 1.9923243506	-0.9302042181	 0.123738
H	 1.9871472429	 1.5880808762	 0.3872090992	 0.102707
H	 1.518578297	-0.2371262838	 1.6869553475	 0.056204
H	-0.2520504265	-0.6603645191	 3.0155632721	 0.068897
H	-2.1481118558	-0.9473716837	 0.6285259776	 0.117193
H	-2.6040267988	-0.929363569	 2.339008136	 0.10161
H	-1.9017769802	 0.514837246	 1.5824730674	 0.121066
H	-0.4416182292	-3.0080513394	 3.0863382366	 0.09131
H	-1.1646159007	-3.0641321406	 1.4887229345	 0.09746
H	 1.8092132965	-2.8611471385	 2.1677901476	 0.0914
H	 1.0514529192	-3.9734594713	 1.0305748509	 0.091694
H	 2.2421059254	-1.7790825532	 0.0628203644	 0.059939
H	-0.6675766788	-2.3728289959	-0.7366252551	 0.119905
H	 0.4490887768	-1.3769890569	-1.6614675249	 0.120246
H	 0.7900450635	-3.0994008148	-1.4224956217	 0.106006
42.9163	110.4611	181.5538	189.3255	191.8951	205.0476	243.3269	267.1382	314.3324	367.7764	402.1377	471.2191	511.4663	595.7873	708.299	768.3337	807.3462	857.268	882.0966	941.7327	962.3829	977.4682	1015.4135	1031.9786	1064.056	1070.2425	1096.3308	1135.0243	1156.5338	1183.4377	1187.0342	1204.9081	1225.4385	1234.3306	1276.2845	1318.6897	1325.8657	1342.1395	1353.89	1371.8103	1381.6066	1393.9254	1410.735	1420.1856	1478.6772	1484.8568	1486.5874	1490.0855	1496.7961	1499.2564	1502.9672	1508.5329	1513.8557	2946.1503	2973.2009	3018.7191	3024.2788	3031.1763	3036.2146	3038.5038	3040.2115	3044.1526	3078.4919	3089.5995	3100.9244	3107.1961	3108.0497	3120.1785	3125.4965
COC1C(C)CCC1C	CO[C@H]1[C@@H](C)CC[C@H]1C	
InChI=1S/C8H16O/c1-6-4-5-7(2)8(6)9-3/h6-8H,4-5H2,1-3H3	InChI=1S/C8H16O/c1-6-4-5-7(2)8(6)9-3/h6-8H,4-5H2,1-3H3/t6-,7+,8-
