14
gdb 129996	5.21091	1.28693	1.0387	14.0597	73.41	-0.1901	-0.0579	0.1322	1057.5401	0.103025	-429.007171	-428.999884	-428.99894	-429.038798	27.55	
N	-0.0002482268	 1.3015149442	 0.0073401068	-0.569806
C	 0.0029413577	-0.0371559152	 0.0000123368	 0.478876
N	-1.0752545785	-0.7974790039	 0.0022923826	-0.370752
H	-2.0256171275	-0.4528417896	 0.009822402	 0.285284
C	-0.6989846741	-2.1717693604	-0.0073260998	 0.315834
C	 0.6691205854	-2.2712476975	-0.0159859391	 0.271965
C	 1.2697082064	-0.8954808865	-0.0120422256	-0.476205
N	 0.9650135672	-3.5772506223	-0.0245671599	-0.326448
N	-0.2250120431	-4.2172641958	-0.0222286403	-0.169654
N	-1.2803551353	-3.3625367061	-0.010085661	-0.34321
H	 0.8718649575	 1.8011720719	 0.0050411804	 0.296849
H	-0.8489642828	 1.8423677794	 0.0153687871	 0.285325
H	 1.8677157514	-0.6378830165	-0.8964354217	 0.16097
H	 1.8780024125	-0.6474694216	 0.8680644519	 0.160972
131.0422	152.0982	209.9394	305.5084	312.0644	423.426	501.144	511.0293	546.2053	677.7367	698.937	709.1579	744.3707	815.2867	853.3799	929.8076	982.4344	1004.6821	1061.3838	1131.2812	1140.0528	1159.9803	1217.274	1282.105	1425.8563	1436.9426	1453.1902	1476.4445	1571.8183	1633.7985	1696.9334	3022.0684	3053.0564	3601.5199	3615.1759	3735.5476
NC1=[NH+]C2=C(C1)N=N[N-]2	N[C]1Nc2c(C1)nnn2	
InChI=1S/C4H4N5/c5-3-1-2-4(6-3)8-9-7-2/h1H2,(H2-,5,6,7,8,9)/q-1/p+1	InChI=1S/C4H6N5/c5-3-1-2-4(6-3)8-9-7-2/h1H2,(H4,5,6,7,8,9)
