15
gdb 132595	3.15773	1.29686	0.92008	2.4614	72.98	-0.1933	0.006	0.1993	1159.8006	0.113089	-461.977432	-461.969651	-461.968707	-462.009276	30.81	
N	-0.0357240671	 1.421667568	-0.1390004953	-0.594301
C	-0.0333186394	 0.0323611685	-0.0661931383	 0.278129
C	-1.210468885	-0.7150900233	-0.0013914151	-0.354928
C	-1.1507553745	-2.1023938735	 0.0119364277	 0.313257
F	-2.3015846702	-2.7892610453	 0.0753844076	-0.090898
C	 0.048742863	-2.7892774496	-0.0362801264	-0.27682
C	 1.2281855212	-2.0424031312	-0.097912538	-0.222422
C	 1.1951955085	-0.6571174907	-0.1118016669	 0.321352
O	 2.3201635732	 0.1314865004	-0.1619603917	-0.466924
H	 0.8418294309	 1.8449184856	 0.1254182504	 0.260848
H	-0.8301963738	 1.8715455709	 0.2903645118	 0.247654
H	-2.1762496613	-0.2234247046	 0.0339996316	 0.096327
H	 0.0602445664	-3.8713612475	-0.024192788	 0.104087
H	 2.1874799074	-2.5523025939	-0.1317904977	 0.087569
H	 3.0999249408	-0.4313394638	-0.1527230717	 0.29707
154.9263	223.6902	276.3367	308.8863	334.3838	347.5734	392.6145	451.5789	456.6023	507.9236	577.6405	604.9979	633.7374	725.2697	744.6394	790.0465	800.7792	855.5507	878.2346	988.5651	1089.071	1134.9105	1174.7781	1204.0099	1274.5302	1319.0083	1341.3806	1393.1551	1490.2986	1556.1207	1637.0967	1651.142	1669.2704	3158.6739	3192.8451	3217.5074	3569.0264	3674.1396	3839.264
NC1=CC(F)=CC=C1O	Nc1cc(F)ccc1O	
InChI=1S/C6H6FNO/c7-4-1-2-6(9)5(8)3-4/h1-3,9H,8H2	InChI=1S/C6H6FNO/c7-4-1-2-6(9)5(8)3-4/h1-3,9H,8H2
