14
gdb 13055	4.74095	1.16943	0.984	2.4636	60.01	-0.2549	-0.0465	0.2084	1108.3018	0.104354	-419.673494	-419.665559	-419.664615	-419.707354	26.743	
O	-0.3757654667	 0.0560857945	-0.2964668623	-0.229562
C	-0.019479617	 1.1735216492	-0.0269525408	 0.151955
C	 1.3816440402	 1.7028043699	-0.2749530112	-0.291027
C	 1.362241189	 2.9405462554	-1.1726910761	-0.004348
O	 0.7051171501	 4.0838673232	-0.5718636953	-0.29133
C	 1.8675651813	 4.9346841421	-0.6596698097	-0.188885
C	 2.6607792413	 3.7649924645	-1.2573671217	 0.340841
O	 3.7822380334	 3.5641342971	-1.6024313073	-0.262338
H	-0.7145283106	 1.910763264	 0.4287967098	 0.101125
H	 1.8259601937	 1.9749270314	 0.691393615	 0.126394
H	 1.9852042614	 0.9165708968	-0.7368827685	 0.141495
H	 0.9328590931	 2.7031892563	-2.1562131188	 0.123388
H	 1.7243098874	 5.7873418085	-1.335294673	 0.141057
H	 2.2118109935	 5.2972627271	 0.3165249498	 0.141235
51.5822	63.3529	117.7915	140.5609	251.9701	376.0428	446.5802	511.7572	550.4609	697.7357	781.0249	845.1538	883.4987	954.544	1006.7503	1041.97	1072.2515	1092.8433	1107.0164	1139.8394	1211.1066	1235.7921	1280.8688	1315.5606	1351.6549	1422.8437	1449.4762	1481.5094	1832.8963	1928.8029	2909.1031	3013.12	3024.5224	3032.5523	3071.6372	3112.1398
O=CCC1OCC1=O	O=CC[C@H]1OCC1=O	
InChI=1S/C5H6O3/c6-2-1-5-4(7)3-8-5/h2,5H,1,3H2	InChI=1S/C5H6O3/c6-2-1-5-4(7)3-8-5/h2,5H,1,3H2/t5-/m1/s1
