20
gdb 10770	2.55779	1.98773	1.34163	2.7454	74.93	-0.2319	-0.0113	0.2205	1004.5983	0.175141	-349.026836	-349.017643	-349.016698	-349.060385	33.564	
C	-0.2516342878	 1.5658487151	-0.0255378218	-0.394384
C	 0.0137911008	 0.0642973864	 0.0114788928	-0.043046
C	 1.2084540082	-0.4180772981	-0.8965518995	-0.086994
C	 1.7009155622	 0.3729936857	-2.0993579981	-0.41521
C	 2.0536298394	-0.4312717331	 0.3850385965	 0.373422
O	 3.2248159141	-0.2936291847	 0.6029287868	-0.31108
C	 0.8057227517	-0.4356402508	 1.2792858705	-0.086995
C	 0.8327961754	 0.3351331223	 2.5908619031	-0.41521
H	 0.6584188155	 2.1505902856	 0.1476415322	 0.123856
H	-0.6559962532	 1.8674594921	-0.9969508796	 0.118917
H	-0.9777778049	 1.8534314902	 0.7413600484	 0.118916
H	-0.9179423373	-0.4785816878	-0.1653599538	 0.07054
H	 1.0251102482	-1.4613428726	-1.1857507536	 0.099237
H	 1.896544073	 1.4181082907	-1.8444925135	 0.124266
H	 2.6377977474	-0.054138666	-2.4693023546	 0.133525
H	 0.9734118056	 0.3519797796	-2.9171251543	 0.116605
H	 0.5340360005	-1.4827585512	 1.4673901818	 0.099238
H	 1.103618601	 1.3835394645	 2.4392367319	 0.124266
H	-0.1391172989	 0.3034212369	 3.0936785858	 0.116605
H	 1.576481209	-0.1004009549	 3.2648737688	 0.133526
66.4713	164.4373	168.3682	177.4303	217.6139	225.8636	235.4413	272.4642	438.8711	466.4932	526.8997	539.805	724.6071	757.4785	771.7783	806.2274	938.4184	966.443	978.2488	1012.2136	1034.7198	1062.8564	1102.4027	1147.2379	1171.4535	1176.0593	1182.445	1251.5627	1267.9498	1327.8296	1361.1174	1369.3693	1405.2279	1408.1359	1418.5391	1487.0543	1487.4143	1494.3495	1494.7254	1505.8403	1505.9078	1876.9456	3021.4812	3026.6664	3031.9344	3040.1585	3041.358	3069.6876	3099.9998	3102.6986	3107.6805	3108.0799	3116.1735	3117.1861
CC1C(C)C(=O)C1C	C[C@H]1[C@@H](C)C(=O)[C@H]1C	
InChI=1S/C7H12O/c1-4-5(2)7(8)6(4)3/h4-6H,1-3H3	InChI=1S/C7H12O/c1-4-5(2)7(8)6(4)3/h4-6H,1-3H3/t4-,5+,6-
