16
gdb 14683	11.57745	0.62942	0.62215	5.4204	71.36	-0.2672	0.0024	0.2696	1727.1422	0.128863	-379.929291	-379.920038	-379.919094	-379.96478	30.276	
C	 0.0264176541	 1.3725596431	 0.1047056185	-0.251952
O	 0.059874623	-0.0476336851	-0.0062420772	-0.188544
C	-1.1313566299	-0.6641665862	 0.029698143	 0.132658
N	-1.2087366028	-1.917922274	-0.070011885	-0.214458
C	-2.5274548187	-2.5086389591	-0.0187510844	-0.154857
C	-2.7498379354	-3.3587229085	-1.2887790237	-0.319
C	-4.0386326281	-4.0444009451	-1.2778013177	 0.250977
N	-5.0650390042	-4.5746717323	-1.2501821775	-0.305585
H	 1.064202504	 1.7051887394	 0.0760795454	 0.152506
H	-0.5199762138	 1.8261894013	-0.7305482339	 0.131831
H	-0.4268384379	 1.6890752747	 1.0513846411	 0.132672
H	-1.9951217023	 0.0083749301	 0.155445074	 0.080993
H	-2.5896613791	-3.1690958512	 0.853867344	 0.131551
H	-3.3386182676	-1.7677716373	 0.0725412768	 0.103212
H	-2.692347436	-2.7196201753	-2.1764542563	 0.15144
H	-1.9439793753	-4.0946237544	-1.3736065672	 0.166557
46.667	56.4732	75.0377	139.4378	158.2479	214.1441	268.702	372.2338	401.0636	447.721	513.3351	626.7826	787.2515	950.4021	990.7776	1026.566	1040.8921	1062.2812	1105.3922	1176.3471	1181.8498	1217.9338	1284.6061	1296.5472	1310.3734	1384.4636	1417.09	1468.6027	1486.0547	1495.5757	1499.3581	1502.0928	1771.5696	2362.7709	2970.0194	2988.6895	3020.6224	3050.9565	3059.2931	3085.1604	3099.9779	3151.1053
COC=NCCC#N	COC=NCCC#N	
InChI=1S/C5H8N2O/c1-8-5-7-4-2-3-6/h5H,2,4H2,1H3	InChI=1S/C5H8N2O/c1-8-5-7-4-2-3-6/h5H,2,4H2,1H3
