21
gdb 87184	3.54804	0.92398	0.89196	3.3941	79.98	-0.2386	0.0584	0.297	1427.4793	0.18139	-420.443357	-420.433076	-420.432131	-420.478419	38.405	
C	-0.1198798496	 1.5326745859	-0.0140818002	-0.413912
C	 0.0486559686	 0.029923452	 0.0258976016	-0.051121
C	 1.3822621045	-0.62994953	-0.2333125677	-0.291006
C	 0.773289425	-0.6947090246	 1.1447989217	 0.347627
C	 1.4223176841	 0.0469622894	 2.2979286848	-0.456311
N	 0.1800950206	-1.9629516465	 1.5009890041	-0.385969
C	 0.9710643724	-3.0380348571	 1.8616643794	 0.442422
N	 0.2458118991	-4.1098313192	 2.3800942468	-0.567192
O	 2.1823650793	-3.0548340245	 1.7579796937	-0.389188
H	 0.7762096677	 2.0552468516	 0.3312886234	 0.11925
H	-0.3161203842	 1.8673369018	-1.0386074488	 0.120237
H	-0.9590220988	 1.8635485322	 0.6086252028	 0.113492
H	-0.8065386559	-0.5196678934	-0.3603148184	 0.078706
H	 1.4123478619	-1.5426141055	-0.8149636806	 0.118575
H	 2.2496911613	 0.0107115972	-0.3545409222	 0.110923
H	 1.8797164039	 0.9849041038	 1.97406067	 0.113088
H	 0.6900072747	 0.2821794135	 3.0796972042	 0.102623
H	 2.2056393727	-0.5791200991	 2.7333600251	 0.15043
H	-0.7334447466	-1.9163980857	 1.9291751494	 0.234392
H	-0.6833540071	-4.2578783402	 2.0140039376	 0.244777
H	 0.7997603563	-4.9521612215	 2.4255156334	 0.258157
67.8824	92.1991	126.0886	164.2094	209.7104	238.7048	267.6333	322.1167	382.6712	406.4267	427.0744	435.6212	474.9843	524.468	581.5064	638.6581	748.0628	781.6571	805.4607	872.4087	908.8638	953.5414	976.6645	1017.6728	1051.1346	1059.1804	1100.821	1122.872	1128.0681	1145.2913	1191.0917	1277.7748	1314.4531	1324.8926	1400.0821	1413.1359	1423.9337	1479.6901	1487.6736	1492.9908	1499.025	1508.8763	1520.3617	1625.0247	1803.9177	3028.2132	3032.0682	3086.7112	3100.0858	3107.2338	3126.7052	3135.7035	3139.59	3230.4596	3567.7001	3590.622	3681.2488
CC1CC1(C)NC(N)=O	C[C@H]1C[C@]1(C)NC(=O)N	
InChI=1S/C6H12N2O/c1-4-3-6(4,2)8-5(7)9/h4H,3H2,1-2H3,(H3,7,8,9)	InChI=1S/C6H12N2O/c1-4-3-6(4,2)8-5(7)9/h4H,3H2,1-2H3,(H3,7,8,9)/t4-,6-/m0/s1
