23
gdb 116299	2.18508	1.29636	0.88301	2.2271	82.79	-0.2425	0.0807	0.3232	1409.3643	0.205236	-425.427704	-425.417685	-425.416741	-425.463457	36.285	
C	-0.1739719053	 1.6044991754	 0.0901184678	-0.388357
C	-0.0511163301	 0.082907349	-0.0285037375	-0.18435
C	 0.614535579	-0.5453363844	 1.1864478974	 0.109545
O	-0.1791769674	-0.3124105315	 2.3460454548	-0.254042
C	 0.3264346005	-1.1766880667	 3.3464955476	-0.07736
C	 0.6506080249	-2.5015434975	 2.6262409504	-0.258729
C	 0.8284596859	-2.0781124295	 1.1408575606	 0.107039
O	-0.1324213184	-2.6673308051	 0.2849262373	-0.237988
C	 0.1293873508	-4.0158613054	-0.0204469741	-0.234719
H	 0.8105196624	 2.0781843693	 0.1795529043	 0.106222
H	-0.6681900025	 2.0276085425	-0.7897694331	 0.106677
H	-0.7563201307	 1.876884641	 0.9741697615	 0.134296
H	-1.0355808546	-0.3750430675	-0.1548864957	 0.118567
H	 0.5337393482	-0.1850419763	-0.9162776194	 0.093345
H	 1.6088906931	-0.0846682033	 1.3407778631	 0.054101
H	 1.236477453	-0.7494590253	 3.800591027	 0.084983
H	-0.4316483302	-1.2741247556	 4.1275302519	 0.107739
H	 1.5310118972	-2.9966658945	 3.0425964712	 0.09935
H	-0.1934716413	-3.1929739218	 2.689529112	 0.118639
H	 1.8354709227	-2.3142322741	 0.7654313983	 0.059963
H	-0.642544421	-4.3456416638	-0.7201997428	 0.127949
H	 1.116539566	-4.139761655	-0.4943045985	 0.102698
H	 0.094873738	-4.6629304099	 0.869298956	 0.104433
39.2252	91.5821	117.6366	150.0938	194.3147	206.7516	234.5487	268.6217	338.2226	393.5969	470.28	509.3045	640.1676	738.2134	789.1005	822.7613	869.4139	902.3558	952.1268	958.3456	990.6365	1011.3086	1053.4151	1093.9375	1112.7866	1134.6391	1159.2062	1182.308	1186.0576	1217.7064	1229.1186	1242.9826	1282.1691	1298.4499	1313.9896	1327.1258	1358.7614	1395.3371	1400.8701	1407.5371	1416.1345	1473.9562	1476.0373	1481.0499	1489.6848	1497.4705	1509.1556	1510.6306	1517.3105	2916.1584	2960.3119	2969.1034	2987.3737	3016.4607	3033.0507	3044.7003	3065.4871	3088.3746	3092.6212	3106.9491	3111.7659	3116.8074	3122.4817
CCC1OCCC1OC	CC[C@H]1OCC[C@H]1OC	
InChI=1S/C7H14O2/c1-3-6-7(8-2)4-5-9-6/h6-7H,3-5H2,1-2H3	InChI=1S/C7H14O2/c1-3-6-7(8-2)4-5-9-6/h6-7H,3-5H2,1-2H3/t6-,7-/m1/s1
