14
gdb 19226	3.59596	1.97963	1.41947	5.4011	65.73	-0.244	-0.0184	0.2255	854.3125	0.107646	-378.707803	-378.700873	-378.699929	-378.739276	25.332	
N	 0.0298674844	 1.2425574702	 0.1937734762	-0.415325
C	-0.0519149175	-0.0140994544	 0.0407593585	 0.061661
N	-1.24707203	-0.6648302298	-0.2185639022	-0.104848
C	-1.5216330019	-2.1030201215	-0.145581444	-0.013759
C	-2.1293658412	-2.4495229008	 1.1752847691	-0.288805
C	-2.9894752805	-1.8024075877	 0.0878376073	-0.21798
C	-2.6222602018	-0.3286933454	-0.0248695997	 0.442502
O	-3.2003119416	 0.7119952561	 0.0029593714	-0.316388
H	 0.9984908114	 1.5114053646	 0.3572123448	 0.229405
H	 0.785177328	-0.725162982	 0.067169339	 0.094679
H	-1.0817019183	-2.7920354162	-0.8536064516	 0.128133
H	-2.3474174562	-3.4990446047	 1.3513588472	 0.133038
H	-1.853572037	-1.8836684659	 2.0597424369	 0.139044
H	-3.8645854477	-2.2788120924	-0.3280778529	 0.128642
89.5136	165.4868	172.3542	216.845	448.6602	458.3872	524.3979	686.6337	733.0392	773.1363	816.5314	828.1541	866.2629	925.6532	954.0364	1002.5878	1044.7296	1059.8765	1073.5736	1087.8922	1109.2474	1180.0228	1226.8457	1273.3158	1304.5185	1381.5473	1421.7384	1480.1451	1718.7252	1913.8066	3024.1754	3122.2604	3209.4671	3215.239	3238.3883	3503.9558
N=CN1C2CC2C1=O	[NH][CH]N1[C@H]2C[C@H]2C1=O	
InChI=1S/C5H6N2O/c6-2-7-4-1-3(4)5(7)8/h2-4,6H,1H2	InChI=1S/C5H6N2O/c6-2-7-4-1-3(4)5(7)8/h2-4,6H,1H2/t3-,4+/m1/s1
