20
gdb 82103	2.87015	1.33362	1.07178	1.8416	79.05	-0.2298	0.064	0.2938	1183.594	0.171389	-403.078123	-403.069643	-403.068699	-403.111544	32.608	
O	-0.0114998993	 1.4171200586	-0.0058686308	-0.425726
C	-0.0567799835	 0.0064823688	 0.0377895569	 0.072153
C	 0.2967445175	-0.6835353494	 1.3555039484	-0.070259
C	-0.6112016226	-0.2351464578	 2.4284510053	-0.243269
N	-1.0992627656	-1.2730989602	 1.5050554147	-0.138849
C	-1.4910802398	-0.5724400955	 0.2165635886	 0.001064
C	-2.6709369317	 0.3522366828	 0.2558089883	 0.040018
C	-3.5817289062	 0.4468118163	-0.946343942	-0.273859
C	-4.0597650272	-0.2388897951	 0.3057855551	-0.271462
H	 0.9105463243	 1.6929326471	 0.0267970309	 0.282956
H	 0.4651266718	-0.4321729011	-0.8221808945	 0.071462
H	 1.1852391982	-1.2788279268	 1.5411823396	 0.087707
H	-0.4303635295	-0.6210621347	 3.4268384317	 0.118228
H	-1.0254345753	 0.7676529507	 2.3954458739	 0.124328
H	-1.6757119281	-1.3630466252	-0.5170996216	 0.077991
H	-2.5205286211	 1.2793849339	 0.7963118654	 0.095162
H	-3.9925911341	 1.4185115048	-1.1956731063	 0.112891
H	-3.3512139947	-0.1706217585	-1.8085545891	 0.10952
H	-4.1463267175	-1.3200903177	 0.2951474963	 0.119238
H	-4.8038152457	 0.2592958591	 0.9170472793	 0.110704
59.0166	132.7001	146.039	222.4552	248.042	291.0989	339.4008	480.0538	509.6231	593.0848	750.641	760.0776	773.3969	783.3487	830.7845	851.22	917.1077	919.7594	959.7074	984.768	1003.7811	1035.7313	1056.4648	1062.2521	1079.2706	1103.818	1123.6065	1134.3507	1146.7142	1163.6971	1197.4515	1217.6018	1228.7756	1243.3606	1282.934	1318.6202	1321.4133	1366.7343	1412.2874	1440.3519	1473.4714	1500.6957	1507.0122	3015.8093	3058.2133	3123.6548	3131.4685	3137.5485	3159.5046	3175.825	3210.1006	3210.4245	3225.9696	3809.9204
OC1C2CN2C1C1CC1	O[C@H]1[C@H]2CN2[C@H]1C1CC1	
InChI=1S/C7H11NO/c9-7-5-3-8(5)6(7)4-1-2-4/h4-7,9H,1-3H2	InChI=1S/C7H11NO/c9-7-5-3-8(5)6(7)4-1-2-4/h4-7,9H,1-3H2/t5-,6+,7+,8?/m1/s1
