18
gdb 55190	2.68787	1.59181	1.4413	11.0637	70.82	-0.1804	-0.0031	0.1773	979.1526	0.149928	-439.035457	-439.027946	-439.027002	-439.0678	29.103	
O	-0.3506176863	 0.350035466	 1.3274664089	-0.468169
C	-0.0314773695	 1.224427224	 0.4919443556	 0.365453
O	 1.0631468247	 1.6376915061	 0.0925309119	-0.464995
C	-1.2572711086	 2.0468192685	-0.1012865225	-0.162553
C	-2.6138610604	 1.6288744898	 0.4965333465	-0.183748
N	-2.581117284	 2.8447942973	 1.4112833918	-0.126074
H	-3.4493472531	 3.356638006	 1.5476548227	 0.277964
C	-1.6533324204	 2.8038689583	 2.6375475965	-0.191291
C	-0.5973972018	 3.6599671501	 1.8929473972	-0.232771
C	-1.3995416284	 3.4328038869	 0.5982718952	 0.024307
H	-1.1938320531	 2.0979283641	-1.1861458129	 0.102259
H	-3.4930457126	 1.7064497711	-0.1473987018	 0.121031
H	-2.5675807267	 0.690501579	 1.0502923056	 0.175956
H	-2.1433060923	 3.2411094259	 3.5072025831	 0.133154
H	-1.3399019331	 1.7725426799	 2.8025958514	 0.213835
H	-0.5885812407	 4.7038230076	 2.2134319413	 0.108365
H	 0.4136356759	 3.257634276	 1.861513325	 0.195174
H	-1.6477327997	 4.2924503034	-0.0249907153	 0.112102
62.3899	156.5018	188.4877	253.8507	371.1268	385.2365	464.5676	592.3579	684.2634	717.5626	751.4084	766.1549	801.0241	810.944	854.1672	921.4188	949.2952	953.6965	969.6903	1019.3654	1049.2037	1065.1383	1104.2764	1119.759	1193.4984	1215.6568	1234.8995	1253.2067	1260.9484	1286.3024	1293.2822	1305.6013	1339.6974	1349.236	1370.9115	1458.4052	1476.9677	1501.5289	1773.702	3068.2401	3082.4465	3088.2448	3111.5212	3138.7052	3155.7518	3160.5841	3174.4064	3505.256
[O-]C(=O)C1C[NH+]2CCC12	[O]C(=O)[C@H]1C[N@H]2CC[C@@H]12	
InChI=1S/C6H9NO2/c8-6(9)4-3-7-2-1-5(4)7/h4-5H,1-3H2,(H,8,9)	InChI=1S/C6H9NO2/c8-6(9)4-3-7-2-1-5(4)7/h4-5,7H,1-3H2/t4-,5-/m0/s1
