20
gdb 88770	3.83737	1.0317	0.91162	3.0441	78.85	-0.2264	0.0763	0.3026	1314.8541	0.17152	-403.073755	-403.065392	-403.064447	-403.107394	32.319	
O	-0.0543142799	 1.5073561257	 0.3011980492	-0.416913
C	 0.0299757736	 0.1152607565	 0.1857408795	 0.097335
C	-0.5413268249	-0.7567403671	 1.2742690397	-0.340818
C	-1.2571085038	-0.6215640933	-0.0602654793	-0.041984
C	-2.5612081223	 0.1281123158	-0.1456932265	 0.014407
C	-3.1311945741	 0.5690117758	-1.526003868	-0.192889
N	-4.4690732928	-0.0705709893	-1.250028036	-0.127838
C	-4.1839943599	-1.5090559527	-1.114182204	-0.238463
C	-3.8766026388	-0.6338088541	 0.0339598445	-0.049952
H	 0.559467027	 1.78615889	 0.9884205135	 0.289158
H	 0.9184397185	-0.2420739842	-0.3349512297	 0.085996
H	-0.0472211064	-1.6909498176	 1.5180378985	 0.111207
H	-0.9877553542	-0.2434584862	 2.1202318494	 0.113615
H	-1.1774115639	-1.4775016375	-0.7250541863	 0.083175
H	-2.523257108	 0.990062062	 0.5223868565	 0.089879
H	-3.2367937175	 1.649195746	-1.6378140845	 0.114323
H	-2.6334538269	 0.1655789783	-2.4151505763	 0.097425
H	-5.0821119948	-2.1162155538	-1.0509071672	 0.117561
H	-3.3859099007	-1.9482513072	-1.7101597044	 0.106014
H	-4.4540932204	-0.6741216572	 0.9529075914	 0.088763
39.7355	124.2142	162.3596	208.7397	300.4771	351.4528	400.718	441.2856	494.3333	570.2156	719.1716	755.9886	779.865	787.9149	839.8863	859.8188	931.8326	954.2291	985.239	988.2272	1016.1742	1030.8731	1050.647	1065.3496	1075.4696	1106.4997	1118.3184	1133.242	1173.591	1186.3766	1208.2988	1224.846	1242.1842	1255.4231	1291.027	1295.7163	1321.3335	1373.9558	1413.75	1436.9058	1488.5397	1492.5473	1509.0832	3039.3253	3093.5237	3096.6011	3098.2147	3117.9785	3127.6973	3142.6755	3150.6493	3191.0447	3216.5145	3808.3468
OC1CC1C1CN2CC12	O[C@H]1C[C@H]1[C@H]1CN2C[C@@H]12	
InChI=1S/C7H11NO/c9-7-1-4(7)5-2-8-3-6(5)8/h4-7,9H,1-3H2	InChI=1S/C7H11NO/c9-7-1-4(7)5-2-8-3-6(5)8/h4-7,9H,1-3H2/t4-,5+,6-,7-,8?/m0/s1
