15
gdb 18906	3.51071	2.78991	2.24065	0.459	62.38	-0.244	0.0638	0.3078	677.3155	0.11977	-362.569546	-362.563734	-362.56279	-362.599119	23.592	
C	-0.1214138697	 1.5417386746	 0.0144607428	-0.53371
C	-0.0236832645	 0.0532880837	 0.007418159	 0.352719
C	 0.7608977433	-0.8757089846	-0.9687359068	 0.008454
O	 1.7575224737	-1.1850810482	 0.0303620704	-0.29146
C	 0.7275601502	-0.8872056595	 0.9986704112	 0.008457
C	-0.4615196647	-1.8414741742	 0.7326582128	-0.059817
C	-0.4363323039	-1.8327758236	-0.754330806	-0.059817
N	-1.2849525364	-0.8355185802	-0.0191398501	-0.210122
H	 0.8776446048	 1.9895859779	 0.0337121434	 0.134536
H	-0.6461526148	 1.8994155643	-0.8775857686	 0.134239
H	-0.6756448642	 1.8891251023	 0.8926300489	 0.134232
H	 1.1569936152	-0.6492726846	-1.956538305	 0.088913
H	 1.0899193074	-0.6724012154	 2.001902099	 0.088913
H	-0.9065485838	-2.6115367924	 1.3489836571	 0.102232
H	-0.8600825427	-2.5954885101	-1.3943381781	 0.102232
211.3286	243.6494	258.8725	529.9107	572.6471	638.539	753.7278	775.065	804.3654	819.2153	855.2336	862.0402	862.679	886.0199	941.3101	947.7787	960.5526	1030.8012	1074.8901	1116.4981	1133.7224	1143.5692	1151.6472	1193.3059	1215.0162	1280.7041	1283.5915	1330.8755	1372.9888	1415.8699	1477.5476	1487.8461	3032.2741	3102.5767	3107.5882	3144.3004	3147.0339	3198.0213	3209.5657
CC12C3OC1C1C3N21	C[C@@]12[C@H]3O[C@@H]1[C@@H]1[C@H]3N21	
InChI=1S/C6H7NO/c1-6-4-2-3(7(2)6)5(6)8-4/h2-5H,1H3	InChI=1S/C6H7NO/c1-6-4-2-3(7(2)6)5(6)8-4/h2-5H,1H3/t2-,3+,4+,5-,6-,7?
