21
gdb 63205	2.68331	1.58868	1.32942	1.5237	83.35	-0.2415	0.0185	0.26	1073.3147	0.182957	-387.089638	-387.081226	-387.080282	-387.122126	33.243	
C	 0.1120041639	 1.540309738	 0.0141236879	-0.419478
C	 0.007133144	 0.0073400743	-0.0158175132	 0.221706
C	-1.4724324106	-0.425167552	-0.0366044638	-0.424291
C	 0.7482808531	-0.600698394	-1.1968033675	-0.082632
C	 1.5930102198	-1.5745321661	-0.8593493599	-0.105199
C	 1.6490475738	-1.788490068	 0.6277046124	-0.127679
C	 2.7809842588	-1.0308740561	 1.3611393896	-0.076914
O	 1.8996737848	 0.0721091316	 1.6549192037	-0.292852
C	 0.7417029123	-0.654858953	 1.1796143651	 0.094743
H	 1.1543493464	 1.8561344133	 0.0810211823	 0.133457
H	-0.331371677	 1.9714452342	-0.8900256324	 0.104375
H	-0.422901407	 1.9526635736	 0.8764960804	 0.112081
H	-1.965449474	-0.0852768334	-0.953630391	 0.112642
H	-1.5688424703	-1.5151817658	 0.006929243	 0.113751
H	-2.0157782696	 0.0015492144	 0.8141473931	 0.113073
H	 0.5636633505	-0.2622386928	-2.2122229635	 0.090174
H	 2.1997964746	-2.1454989261	-1.5544423982	 0.093319
H	 1.4782468321	-2.8197291219	 0.9457052246	 0.079396
H	 3.1350309893	-1.5201067511	 2.2786128644	 0.094473
H	 3.6425182199	-0.7239538328	 0.7570630852	 0.102122
H	 0.0666096452	-0.8950969064	 2.0098026276	 0.063733
103.7177	189.3211	209.6357	226.0118	257.4376	314.5701	339.0559	356.3917	452.7889	557.985	579.814	704.5365	783.7017	825.1417	837.929	862.9625	893.2697	932.7142	947.1575	957.4758	978.2349	993.4593	1019.467	1039.3302	1060.612	1081.0505	1120.1684	1164.9367	1181.9621	1208.1436	1224.8626	1259.865	1261.6984	1312.6882	1325.0446	1356.5432	1384.2078	1393.0786	1419.1251	1483.2444	1485.0548	1500.5222	1507.5746	1520.3721	1677.5229	3004.6512	3022.5401	3029.9329	3034.909	3059.5608	3081.0311	3091.5066	3095.8856	3098.0343	3137.1062	3168.1314	3194.9891
CC1(C)C=CC2COC12	CC1(C)C=C[C@H]2CO[C@@H]12	
InChI=1S/C8H12O/c1-8(2)4-3-6-5-9-7(6)8/h3-4,6-7H,5H2,1-2H3	InChI=1S/C8H12O/c1-8(2)4-3-6-5-9-7(6)8/h3-4,6-7H,5H2,1-2H3/t6-,7+/m0/s1
