18
gdb 33170	3.23959	1.06093	0.85408	2.0224	74.38	-0.183	0.057	0.24	1335.9848	0.147714	-439.106001	-439.096784	-439.09584	-439.140769	33.606	
O	 0.1003260023	 1.4201721747	-0.1114679919	-0.409348
C	 0.0820771418	 0.0045560957	-0.0724304279	-0.067249
C	-1.3532169738	-0.5378130811	 0.0061150013	-0.194673
N	-1.4057520939	-1.9864388392	-0.0014608767	-0.029675
C	-1.5876892262	-2.7993433199	-1.1110316939	-0.118436
C	-1.5163756006	-4.1040579493	-0.7015593355	-0.147937
C	-1.2737564193	-4.1089496202	 0.7071960783	-0.303554
C	-1.2102889102	-2.7904052877	 1.08791945	 0.359655
O	-0.9973450554	-2.1753863002	 2.2847778567	-0.448143
H	-0.1525476533	 1.7447022148	 0.758637138	 0.286983
H	 0.5511120114	-0.3377032937	-1.0002565928	 0.121554
H	 0.6709944433	-0.3943212976	 0.7654022594	 0.108941
H	-1.8330543499	-0.1737438234	 0.9208825344	 0.118422
H	-1.9302001083	-0.1641478492	-0.8439082358	 0.124328
H	-1.7615775783	-2.3598428366	-2.0796381695	 0.1133
H	-1.6307016617	-4.9717828998	-1.3326990931	 0.092907
H	-1.1634757715	-4.9668400217	 1.3524719511	 0.085074
H	-0.9438668462	-2.8540683154	 2.9638553281	 0.307851
45.7912	89.6188	94.8939	213.8962	262.3437	290.8399	301.6413	327.1377	375.0506	475.3664	613.3201	633.5491	678.6681	692.5017	716.1437	784.1193	786.1801	810.0558	908.3762	1023.5851	1034.0845	1061.3095	1079.3444	1099.3098	1141.547	1166.1937	1247.3194	1287.648	1314.0994	1335.8197	1347.5303	1397.8463	1412.3567	1419.8574	1479.3294	1509.7801	1528.9542	1555.7128	1608.0409	3011.8	3050.001	3082.6801	3111.7976	3239.5081	3252.0991	3272.2848	3818.5077	3851.0093
OCCN1C=CC=C1O	OCCn1cccc1O	
InChI=1S/C6H9NO2/c8-5-4-7-3-1-2-6(7)9/h1-3,8-9H,4-5H2	InChI=1S/C6H9NO2/c8-5-4-7-3-1-2-6(7)9/h1-3,8-9H,4-5H2
