23
gdb 63652	3.28634	0.93826	0.88597	2.8571	86.69	-0.2303	0.0795	0.3098	1461.0381	0.204927	-384.417364	-384.407404	-384.40646	-384.452813	37.282	
C	 0.247040141	 1.319039368	-0.6471466248	-0.455999
C	-0.0467403466	 0.068379482	 0.1605531993	 0.341886
C	-1.5081341299	-0.3363038091	 0.1738427994	-0.437939
C	 1.0048781355	-0.9841123413	 0.2675505289	-0.294192
N	 0.6503054276	-0.1700778178	 1.4324312446	-0.129911
C	 1.6234233635	 0.7924060194	 1.9414348148	-0.16895
C	 2.0655829523	 0.4265968323	 3.3509324824	 0.01412
C	 1.0941567923	-0.0761900215	 4.3477370209	-0.227719
N	 2.1233335743	-0.9757012577	 3.7851900977	-0.321901
H	 1.3122065656	 1.5589753998	-0.6742484304	 0.120614
H	-0.0920101579	 1.18633816	-1.6799036629	 0.122714
H	-0.2875095199	 2.1839812848	-0.2368996487	 0.121395
H	-1.8607256116	-0.561308052	-0.839041305	 0.11395
H	-1.6575715691	-1.2191965557	 0.7996341402	 0.123628
H	-2.1316684046	 0.4715915545	 0.5738481817	 0.116263
H	 0.7352569571	-2.036751338	 0.3176054763	 0.110746
H	 1.965186669	-0.7866955779	-0.2080975077	 0.107976
H	 2.5134388983	 0.8670247107	 1.2962120715	 0.09278
H	 1.1662008324	 1.790187988	 1.9672601147	 0.107656
H	 2.9016470388	 1.0268175358	 3.7064476523	 0.083658
H	 1.2163560233	 0.1638185492	 5.4001918217	 0.108173
H	 0.0705179743	-0.2137902929	 4.0124156744	 0.116019
H	 1.6694717844	-1.5413260904	 3.0698010488	 0.235034
31.9144	90.7831	132.8227	189.7852	207.2489	227.4956	260.5476	347.2036	359.6013	386.2234	453.1388	467.3927	565.4816	701.4697	769.3621	804.4918	854.2166	889.1574	913.8299	923.297	955.313	960.2705	995.9253	1016.8018	1022.3725	1067.2774	1104.7289	1117.513	1126.2776	1142.2345	1157.8191	1186.2204	1213.2831	1271.4481	1285.8544	1298.6839	1309.4467	1381.3877	1386.6889	1410.5388	1417.6388	1423.5551	1476.7954	1484.9177	1487.1568	1497.1693	1501.5563	1505.092	1517.5448	2964.7334	3027.6226	3032.4567	3036.4552	3082.0365	3087.658	3092.2758	3111.6365	3119.2328	3122.0802	3123.6836	3166.5979	3203.1046	3485.9628
CC1(C)CN1CC1CN1	CC1(C)CN1C[C@H]1CN1	
InChI=1S/C7H14N2/c1-7(2)5-9(7)4-6-3-8-6/h6,8H,3-5H2,1-2H3	InChI=1S/C7H14N2/c1-7(2)5-9(7)4-6-3-8-6/h6,8H,3-5H2,1-2H3/t6-,9?/m1/s1
