18
gdb 32885	4.27027	0.99422	0.85836	11.4378	79.	-0.1505	0.0037	0.1542	1335.4045	0.14635	-439.011991	-439.003532	-439.002588	-439.045607	32.352	
N	 0.3636278472	 2.1048612148	 1.3807968295	-0.526771
H	 1.275011152	 1.8068581189	 1.7187051586	 0.268429
H	-0.578581944	 2.5340261658	 2.5286140475	 0.378172
H	 0.5161475242	 2.7363229758	 0.6009497978	 0.266774
C	-0.4734961935	 0.9447055643	 0.9835672766	-0.186684
C	-0.8100105227	 0.0806173265	 2.2132377386	-0.318254
C	-1.1801805431	 0.8836573537	 3.4297822083	 0.386957
C	-1.26096482	 0.6695026276	 4.7387617441	-0.384857
C	-1.5037485683	 1.9653962137	 5.4816911972	 0.391294
O	-1.7056109596	 2.0417298516	 6.6951599177	-0.451423
C	-1.3841740441	 2.9783373179	 4.497943559	-0.358358
O	-1.3650537193	 2.2787786495	 3.1779610357	-0.239244
H	-1.3918897565	 1.357715028	 0.5561185741	 0.145507
H	 0.0020232836	 0.326290848	 0.2143027839	 0.126315
H	-1.6203159554	-0.6023084382	 1.9304614241	 0.144508
H	 0.0485299964	-0.5556428472	 2.4602984617	 0.136421
H	-1.1906416126	-0.2921414167	 5.2271706975	 0.113296
H	-1.9794832544	 3.8761043859	 4.4148871982	 0.107916
35.2235	150.3961	194.4739	220.4569	290.3785	356.1529	400.2607	445.5065	474.8437	521.5516	542.257	613.4635	670.2363	717.4107	831.6216	848.8552	877.4654	891.9415	898.8421	914.8198	954.1959	1029.1068	1053.4545	1116.2083	1138.979	1164.9305	1232.3042	1264.0817	1282.9946	1310.5067	1324.3738	1359.981	1411.9983	1466.6908	1484.9242	1516.3487	1646.3232	1700.1032	1732.1326	2363.6072	3029.0242	3044.2091	3056.3411	3097.6742	3240.2312	3241.9658	3499.5304	3581.9812
[NH3+]CCC1=CC([O-])=CO1	NCCC(=CC(=O)[CH])O	
InChI=1S/C6H9NO2/c7-2-1-6-3-5(8)4-9-6/h3-4,8H,1-2,7H2	InChI=1S/C6H9NO2/c1-5(8)4-6(9)2-3-7/h1,4,9H,2-3,7H2
