16
gdb 130721	3.22498	1.35827	1.03515	2.8012	70.54	-0.2194	0.012	0.2315	1126.8306	0.126289	-434.088365	-434.080624	-434.07968	-434.12172	28.689	
O	 0.0689310185	-0.0281103803	-0.2350392752	-0.432903
C	 0.0112565147	 1.173303913	-0.0721824443	 0.475761
N	-1.0729081979	 2.0202927593	-0.0394258575	-0.315455
N	-0.7501613347	 3.3399801143	 0.1698563483	-0.224192
C	 0.543525174	 3.3266743794	 0.2697353051	 0.040692
N	 1.075409897	 2.069682537	 0.1363850552	-0.124542
C	 2.4377140501	 1.6276440863	 0.1820649201	 0.071726
C	 3.5507321998	 2.4668749959	-0.3803452718	-0.287449
C	 3.433073339	 2.2587609126	 1.1150008878	-0.28746
H	-2.0322321102	 1.7449138498	-0.1532334227	 0.281946
H	 1.1362632829	 4.2114793191	 0.4396300762	 0.150856
H	 2.4651634895	 0.5547857759	 0.0349050492	 0.140917
H	 4.343864091	 1.963264761	-0.921054251	 0.131341
H	 3.2954966679	 3.4451648122	-0.7737865454	 0.123709
H	 3.0997000489	 3.0987650333	 1.7152052266	 0.123709
H	 4.1444027196	 1.6104486312	 1.6137506193	 0.131341
31.3617	129.6525	170.391	226.7199	316.7282	407.0763	455.8665	557.845	613.1736	657.4922	747.2233	762.6917	796.6368	816.7113	832.8566	904.54	933.6647	950.1832	1057.4686	1064.9447	1075.5285	1112.1918	1142.9575	1164.8149	1196.5283	1222.7748	1234.5306	1292.2966	1376.4983	1429.377	1443.1149	1465.2124	1507.2321	1617.4719	1837.5599	3135.7317	3138.886	3196.7829	3216.409	3231.0507	3265.9806	3698.3766
O=C1NN=CN1C1CC1	O=c1[nH]ncn1C1CC1	
InChI=1S/C5H7N3O/c9-5-7-6-3-8(5)4-1-2-4/h3-4H,1-2H2,(H,7,9)	InChI=1S/C5H7N3O/c9-5-7-6-3-8(5)4-1-2-4/h3-4H,1-2H2,(H,7,9)
