12
gdb 129096	2.80605	1.56195	1.00342	4.3444	67.32	-0.2666	-0.1049	0.1617	1058.9105	0.076254	-468.726049	-468.718605	-468.71766	-468.758931	26.36	
N	-0.1645465647	 1.2756010481	-0.1111356216	-0.504131
C	-0.043399029	 0.0052133867	-0.00357883	 0.177361
C	 1.2042104183	-0.7521133959	 0.0578933356	 0.028039
N	 1.2893689696	-2.0257364623	 0.1667699405	-0.056084
O	 0.1007345804	-2.7462680719	 0.231577691	-0.212157
N	-1.1295902427	-2.1550218657	 0.1833380042	-0.082262
C	-1.2144773217	-0.8717749895	 0.0736986774	 0.236014
C	-2.6119887684	-0.2959267114	 0.0267428165	 0.117028
O	-3.6077277407	-0.9666864233	 0.0859435857	-0.227052
H	 0.7504678472	 1.7310233453	-0.1519038159	 0.232201
H	 2.1599589781	-0.2327844954	 0.0108911323	 0.153282
H	-2.6284142863	 0.8035150655	-0.0674634957	 0.137762
62.073	81.6722	206.5527	263.5152	348.6991	429.3117	459.7081	496.7181	546.7897	654.8381	748.044	767.8086	785.8319	876.3794	902.9828	959.1726	998.4825	1038.9644	1123.6359	1201.3629	1320.2018	1402.827	1433.1167	1595.802	1643.2194	1705.6471	1822.7053	2997.6399	3155.2894	3442.548
N=C1C=NON=C1C=O	[NH][C]1C=NON=C1C=O	
InChI=1S/C4H3N3O2/c5-3-1-6-9-7-4(3)2-8/h1-2,5H	InChI=1S/C4H3N3O2/c5-3-1-6-9-7-4(3)2-8/h1-2,5H
