17
gdb 71462	4.3365	1.20075	1.0963	4.1961	79.05	-0.2407	0.0207	0.2614	1119.0933	0.136919	-380.829982	-380.822373	-380.821429	-380.861814	29.899	
C	-0.0492480583	 1.5502723112	 0.0452667435	-0.497524
C	-0.0812568031	 0.0514229	-0.0202972386	 0.309549
C	 0.4177008312	-0.73854477	-1.2715220301	-0.329694
C	-0.4868251652	-1.8705450056	-0.7882744773	 0.202233
C	-0.888803539	-3.0465965321	-1.4738914744	 0.162112
N	-1.2086976356	-4.011885393	-2.0295602049	-0.355665
C	-0.442390171	-1.7850712944	 0.7879943363	-0.052117
N	 0.4504445031	-0.7062057554	 1.1621004831	-0.334851
C	-1.3498614807	-0.9001721132	 0.019928452	-0.177166
H	 0.9860141106	 1.9107255447	 0.0374479558	 0.127229
H	-0.5651028566	 1.9899021307	-0.8138358521	 0.126198
H	-0.5242326399	 1.9069848745	 0.9630065667	 0.137864
H	 0.0409393862	-0.3048545372	-2.2008244427	 0.122526
H	 1.4951024396	-0.923219943	-1.3526099195	 0.101631
H	-0.6549423549	-2.6508456894	 1.4012356347	 0.122756
H	 1.444782077	-0.930048725	 1.0906079912	 0.21464
H	-2.4175662133	-0.739507233	 0.0307873764	 0.120279
132.3525	147.347	206.4922	279.7777	308.2994	432.4199	474.3671	517.5865	537.7098	571.8325	627.8322	718.9106	778.2502	818.8662	858.3535	881.2582	899.0801	968.8233	981.8642	1010.0347	1036.5003	1085.407	1099.1359	1116.3965	1147.7668	1167.312	1194.1577	1238.3236	1281.4247	1340.8382	1351.5092	1381.4576	1418.7905	1482.7593	1490.5013	1497.6955	2336.8773	3034.3579	3038.6359	3100.7954	3113.0302	3122.0649	3210.0231	3236.0224	3427.1558
CC12CC3(C#N)C(N1)C23	C[C@@]12C[C@@]3(C#N)[C@@H](N1)[C@@H]23	
InChI=1S/C7H8N2/c1-6-2-7(3-8)4(6)5(7)9-6/h4-5,9H,2H2,1H3	InChI=1S/C7H8N2/c1-6-2-7(3-8)4(6)5(7)9-6/h4-5,9H,2H2,1H3/t4-,5-,6-,7-/m0/s1
