17
gdb 81899	2.32983	1.82918	1.15537	4.8855	72.7	-0.2298	-0.0799	0.1499	1055.7786	0.135716	-421.856804	-421.848759	-421.847815	-421.88947	30.473	
C	 0.0891400401	 1.6519889899	 0.0101584305	-0.396523
C	 0.0780156071	 0.1236854886	-0.021638319	-0.114635
C	 0.7581558512	-0.5427888079	-1.2168897559	-0.057503
C	 2.2466253503	-0.4831089775	-1.2610676636	-0.293577
C	 1.5643055266	-1.7536203912	-0.7461177097	-0.160612
C	 1.4469240373	-1.8358252265	 0.7309262603	 0.336746
O	 1.7615461995	-2.7349146171	 1.4659906291	-0.302126
C	 0.7395178391	-0.5210068216	 1.1989409234	 0.274648
O	 0.7192807551	-0.1198938608	 2.3304350478	-0.286603
H	 1.1079579109	 2.0401625658	-0.083466684	 0.124342
H	-0.5078426319	 2.0668683846	-0.8069128868	 0.118731
H	-0.3199342169	 2.0071610148	 0.9594944879	 0.143438
H	-0.966033747	-0.2256159201	 0.0102819987	 0.118733
H	 0.2124046187	-0.605885833	-2.151187085	 0.104132
H	 2.7413353031	-0.5813116551	-2.2202823406	 0.136494
H	 2.7770760536	 0.1457824444	-0.5520997322	 0.135719
H	 1.659028703	-2.6653070474	-1.3212579309	 0.118596
72.24	182.5976	197.4028	229.2675	237.503	318.1743	431.9179	457.3882	525.6657	554.483	644.1548	685.2427	801.0905	808.6156	836.1163	901.237	927.294	951.4676	981.283	1027.6765	1058.7958	1085.9392	1102.0557	1114.5606	1146.6913	1190.7998	1204.9728	1272.0324	1315.6532	1337.2831	1379.2342	1408.9371	1490.4095	1496.4228	1497.3043	1835.1566	1855.2535	2993.0856	3044.1824	3113.5851	3126.3136	3131.0044	3176.3979	3203.5044	3221.8635
CC1C2CC2C(=O)C1=O	C[C@H]1[C@H]2C[C@H]2C(=O)C1=O	
InChI=1S/C7H8O2/c1-3-4-2-5(4)7(9)6(3)8/h3-5H,2H2,1H3	InChI=1S/C7H8O2/c1-3-4-2-5(4)7(9)6(3)8/h3-5H,2H2,1H3/t3-,4+,5+/m0/s1
