16
gdb 45428	2.63542	1.79782	1.76751	3.8513	65.22	-0.2657	0.0168	0.2825	874.758	0.127375	-475.030701	-475.024036	-475.023091	-475.061786	26.294	
N	-0.0693740902	 1.2787185123	 0.0106880634	-0.552262
C	-0.016176049	 0.0204465463	 0.0036714533	 0.440401
O	 1.141363433	-0.7186441134	-0.0071700469	-0.264943
C	 0.8401283352	-2.1300415698	-0.0129661697	 0.018462
C	 0.0169715778	-2.4375365562	 1.2362210446	-0.071721
O	-1.20362118	-1.6904830219	 1.1675548947	-0.262753
C	-1.2333470353	-0.8858748657	 0.0061758303	 0.094035
O	-1.2177272252	-1.6781211254	-1.163936822	-0.262757
C	 0.0020259192	-2.424102697	-1.2554286824	-0.07173
H	 0.8706225181	 1.6818607017	 0.0072144321	 0.224578
H	 1.794249622	-2.6584389525	-0.0215414849	 0.10662
H	-0.2197924717	-3.5073169433	 1.2879288242	 0.117124
H	 0.5688773373	-2.1523235193	 2.1397592986	 0.120725
H	-2.160182067	-0.3180572852	 0.0147954956	 0.126369
H	 0.5430226828	-2.1289444694	-2.1623689067	 0.120722
H	-0.235272177	-3.4932983012	-1.315950114	 0.117131
109.3214	196.6429	314.9216	379.018	401.0825	428.286	547.2369	572.4981	675.6942	750.2394	837.7407	852.6021	888.1151	908.2495	913.3164	950.6036	979.4405	988.2505	1065.6525	1086.0658	1104.5556	1112.8748	1163.7565	1222.139	1244.0241	1288.3247	1320.3314	1330.3556	1344.9167	1392.8602	1395.224	1408.8609	1505.4455	1518.2573	1788.6809	3021.6399	3025.4902	3064.4442	3068.6938	3116.5856	3169.5824	3458.9436
N=C1OC2COC1OC2	[NH][C]1O[C@H]2CO[C@@H]1OC2	
InChI=1S/C5H7NO3/c6-4-5-7-1-3(9-4)2-8-5/h3,5-6H,1-2H2	InChI=1S/C5H7NO3/c6-4-5-7-1-3(9-4)2-8-5/h3,5-6H,1-2H2/t3-,5+
