18
gdb 75058	2.37909	1.6579	1.23008	2.835	74.16	-0.2173	-0.0097	0.2075	1068.4382	0.146169	-439.13653	-439.127235	-439.126291	-439.170007	34.815	
C	-0.0999131712	 1.5048210806	 0.0491336304	-0.501396
C	-0.0176030497	 0.0166387093	 0.0024730721	 0.266174
C	 0.0137903152	-0.7813415635	-1.0687363901	-0.139908
N	 0.086003975	-2.1506325853	-0.7150395066	-0.34762
C	 0.0036993146	-2.2922776073	 0.6463401025	 0.396355
O	-0.1277529694	-3.3135876158	 1.2854787831	-0.391428
C	 0.0659631484	-0.8612026039	 1.2387157269	 0.170879
C	 1.3728144276	-0.6815448409	 2.0245425765	-0.433541
O	-1.0615695926	-0.6634919047	 2.0809921622	-0.469049
H	 0.7781443813	 1.9479090517	 0.5357300644	 0.127177
H	-0.1762088067	 1.9301717983	-0.9557060632	 0.120431
H	-0.9760651227	 1.8243234722	 0.6251524873	 0.146423
H	 0.0064154346	-0.5114971074	-2.115837703	 0.127877
H	-0.0674107094	-2.9171109265	-1.3505241057	 0.261085
H	 2.2488491672	-0.7810295506	 1.3759174034	 0.122027
H	 1.387837866	 0.3060127893	 2.4932540423	 0.125843
H	 1.4334797409	-1.4446664796	 2.8070055588	 0.129604
H	-1.1658315692	-1.4835998858	 2.5830263685	 0.289067
84.8089	170.505	183.4495	220.9105	234.2218	250.4756	282.6384	324.025	370.9839	380.8094	488.1179	547.0069	576.8369	600.0117	693.9442	750.4052	775.8197	845.1501	849.5494	960.4271	1002.3738	1060.7931	1073.6263	1101.4568	1115.2241	1162.0148	1235.8964	1256.2923	1360.0334	1387.11	1393.1222	1407.4927	1417.1144	1473.8476	1486.6492	1489.4775	1496.3531	1720.7261	1830.8317	3020.843	3035.9642	3071.6603	3107.5217	3111.1659	3122.189	3230.6763	3646.208	3753.8413
CC1=CNC(=O)C1(C)O	CC1=CNC(=O)[C@]1(C)O	
InChI=1S/C6H9NO2/c1-4-3-7-5(8)6(4,2)9/h3,9H,1-2H3,(H,7,8)	InChI=1S/C6H9NO2/c1-4-3-7-5(8)6(4,2)9/h3,9H,1-2H3,(H,7,8)/t6-/m1/s1
