17
gdb 121333	3.3289	1.00753	0.80719	2.119	65.79	-0.2657	-0.0015	0.2642	1392.7424	0.135011	-496.118957	-496.110118	-496.109174	-496.153581	30.512	
C	 0.036747976	 1.3710993418	 0.0974808142	-0.231146
O	 0.0523410575	-0.0360434104	 0.0178345117	-0.235603
C	 0.5551168903	-0.5054286477	-1.2077932759	-0.069035
C	 0.5075306207	-2.0201670644	-1.1969888027	-0.059976
O	-0.8126485571	-2.5112080077	-1.382882961	-0.246304
C	-0.6886061214	-3.7166408572	-2.0872661289	 0.025269
O	 0.4999291683	-3.6235361428	-2.8779482437	-0.220157
C	 1.2834006636	-2.6442340277	-2.3581271714	 0.42231
O	 2.3668268262	-2.36072953	-2.7738667087	-0.330851
H	 1.0469455433	 1.7965629472	-0.0083134481	 0.109241
H	-0.607082375	 1.8157536579	-0.6771148846	 0.109855
H	-0.3585558706	 1.6355852159	 1.0806621605	 0.132623
H	-0.0388535386	-0.1286911238	-2.0561398271	 0.102559
H	 1.6023022962	-0.1986927993	-1.3610303955	 0.117365
H	 0.9345239531	-2.3807259593	-0.2469244839	 0.12149
H	-0.5867040101	-4.5815051608	-1.413821305	 0.113707
H	-1.5484655625	-3.8428197616	-2.7491759	 0.138653
66.5829	100.0612	102.4702	155.595	202.3776	229.8676	294.8876	338.8493	447.4722	540.3262	628.3597	714.8307	752.8321	886.6381	912.1759	1006.1664	1010.4351	1076.8118	1093.8657	1136.0046	1143.2941	1168.4468	1186.1321	1218.8327	1227.2373	1233.6444	1263.7185	1296.9056	1352.1538	1427.5111	1441.4325	1478.2591	1485.7299	1497.9024	1521.1676	1543.6519	1895.9611	2967.6803	2978.3704	2984.9168	2990.6357	3012.792	3021.9906	3106.3197	3121.4798
COCC1OCOC1=O	COC[C@H]1OCOC1=O	
InChI=1S/C5H8O4/c1-7-2-4-5(6)9-3-8-4/h4H,2-3H2,1H3	InChI=1S/C5H8O4/c1-7-2-4-5(6)9-3-8-4/h4H,2-3H2,1H3/t4-/m1/s1
