22
gdb 100733	2.22021	1.16706	0.98055	4.8714	78.56	-0.2385	0.0178	0.2563	1350.2208	0.19238	-441.516372	-441.505756	-441.504811	-441.552278	38.316	
C	-0.7759985948	 1.5866544602	 0.4534637657	-0.396009
C	-0.580961734	 0.0711727176	 0.4903239342	-0.130003
N	-1.3629635709	-0.637466997	-0.5367958667	-0.100323
H	-3.1487991529	-0.4744785046	 0.1463782388	 0.294683
C	-0.8405895334	-0.4380358291	-1.8858751926	-0.336751
C	-1.6071143691	-2.0575492902	-0.2156849385	-0.121545
C	-0.4036825705	-2.9078934673	 0.2057251545	-0.395737
C	-2.7560983627	-2.1518002602	 0.8137907693	 0.425693
O	-2.9335142786	-3.0972974379	 1.5334742975	-0.3387
O	-3.573150599	-1.0880326176	 0.7871376432	-0.372008
H	-0.2275024604	 2.0491499315	 1.2794655701	 0.125109
H	-0.4054215016	 2.0324553172	-0.4737661285	 0.123737
H	-1.8337189875	 1.8468304499	 0.5589227481	 0.127214
H	 0.4922948867	-0.1675241088	 0.4052331365	 0.097914
H	-0.9073905372	-0.2991430694	 1.4675589669	 0.124691
H	 0.1827275956	-0.8289727857	-2.0146819422	 0.109253
H	-1.4922519145	-0.9355029831	-2.6094785652	 0.127884
H	-0.8259612616	 0.626535771	-2.1302361839	 0.130098
H	-2.0284508219	-2.4996362897	-1.129003264	 0.114069
H	 0.3610027523	-2.9215664869	-0.5761885041	 0.113457
H	 0.0490724268	-2.542106948	 1.130634683	 0.12761
H	-0.7375397707	-3.9305942819	 0.3882529379	 0.149663
55.7946	79.0961	109.3257	179.87	202.8241	209.2202	224.3343	263.5073	281.5711	339.0644	384.8944	417.8543	495.484	547.2182	598.358	718.466	783.6038	809.0398	838.7699	868.2143	923.1833	1018.5457	1049.0194	1077.1036	1103.0514	1118.818	1123.4317	1164.148	1202.9627	1212.3204	1259.9664	1320.3481	1341.6857	1376.2634	1396.5391	1402.8967	1417.2609	1421.4908	1465.333	1486.0475	1486.2742	1492.6079	1498.7172	1504.3579	1509.7583	1513.3063	1869.2647	2964.7155	2968.7783	3018.3064	3043.807	3053.7752	3068.1416	3081.552	3114.399	3116.5859	3123.7438	3125.2058	3144.1018	3460.8987
CC[NH+](C)C(C)C([O-])=O	CCN(C)[C@@H](C)C(=O)O	
InChI=1S/C6H13NO2/c1-4-7(3)5(2)6(8)9/h5H,4H2,1-3H3,(H,8,9)	InChI=1S/C6H13NO2/c1-4-7(3)5(2)6(8)9/h5H,4H2,1-3H3,(H,8,9)/t5-/m0/s1
