16
gdb 71081	2.61042	1.58555	1.33424	3.5407	69.64	-0.2229	0.0034	0.2263	1002.9686	0.123218	-437.824387	-437.816404	-437.81546	-437.856589	30.736	
C	-0.0821352475	 1.4127795742	-0.0352972849	-0.512643
C	-0.0256369065	-0.0808656658	-0.03422973	 0.289059
N	 1.0108921639	-0.8549944747	-0.7651568093	-0.348191
C	 0.1519667876	-2.0652537996	-0.5217860241	-0.259305
C	 0.3259834381	-2.2412445514	 1.005842393	 0.493891
O	 0.6295294748	-3.1645172692	 1.7067631065	-0.342886
C	-0.3265248981	-0.9181072493	 1.2321010124	-0.32854
C	-1.080926429	-1.1228969883	-0.1374424937	 0.310777
O	-2.4143932489	-1.0776710528	-0.4129348458	-0.443836
H	 0.8240081517	 1.8323025805	 0.4121500763	 0.143338
H	-0.171170673	 1.7955855263	-1.0577770454	 0.129313
H	-0.9472113712	 1.7681445453	 0.5312866379	 0.137122
H	 0.9280953693	-0.6068289668	-1.7521916192	 0.219407
H	 0.1956140899	-2.8960664959	-1.2201358365	 0.098271
H	-0.7006350274	-0.4611961761	 2.138629751	 0.111915
H	-2.8766032835	-1.7310568365	 0.1265445817	 0.302309
122.8391	178.0591	183.2638	253.9067	270.0391	339.3274	397.2375	463.4421	518.1747	557.0984	638.0415	662.7947	688.2848	766.3096	832.153	857.0182	905.9506	926.4173	954.248	1004.8199	1019.92	1090.0974	1116.4803	1128.339	1151.8675	1185.7442	1258.6717	1285.7883	1306.9881	1360.8395	1415.6674	1479.7012	1488.8808	1528.3593	1885.5533	3037.458	3102.9525	3120.9678	3172.3518	3215.5796	3441.6542	3773.0504
CC12NC3C(=O)C1C23O	C[C@@]12N[C@H]3C(=O)[C@@H]1[C@@]23O	
InChI=1S/C6H7NO2/c1-5-3-2(8)4(7-5)6(3,5)9/h3-4,7,9H,1H3	InChI=1S/C6H7NO2/c1-5-3-2(8)4(7-5)6(3,5)9/h3-4,7,9H,1H3/t3-,4-,5+,6-/m0/s1
