18
gdb 131852	5.49169	0.75375	0.68406	3.0597	75.65	-0.1843	0.0328	0.2171	1597.5978	0.149729	-435.263747	-435.254904	-435.25396	-435.298335	32.162	
O	-0.0135805284	 1.4021457763	-0.2379033816	-0.421796
C	-0.0225202629	 0.0168777773	 0.0927486415	-0.096835
C	-1.4694458882	-0.445895073	 0.0641211403	-0.12068
N	-2.0164402646	-0.2469056471	-1.2679957049	-0.41382
C	-3.3674907929	-0.5444372431	-1.4654779101	 0.258123
C	-4.1810601703	-0.1302803257	-2.5074426993	-0.150659
N	-5.3909173608	-0.7212865766	-2.3002190747	-0.173383
N	-5.4291991314	-1.4868817008	-1.2047879615	-0.230894
C	-4.2035762779	-1.3847997929	-0.6875696148	-0.072143
H	 0.8963689084	 1.6749832029	-0.3837631535	 0.292465
H	 0.5595290386	-0.5656213604	-0.635917446	 0.100101
H	 0.3987905657	-0.1581869991	 1.0937921762	 0.092449
H	-1.5003101745	-1.5123315292	 0.3176912726	 0.109845
H	-2.0374658961	 0.0928065403	 0.8421633197	 0.100084
H	-1.7567869779	 0.6688317135	-1.6113679775	 0.237552
H	-3.9935365959	 0.5141996723	-3.3509371638	 0.119375
H	-6.2176609919	-0.6339867502	-2.8649531856	 0.270868
H	-3.9623729592	-1.9154679747	 0.2206875829	 0.099349
49.8516	63.9378	131.9205	178.3285	263.0346	294.6947	330.5949	429.9277	465.1544	484.8715	641.8312	657.4757	690.6216	733.9885	773.2653	845.5729	896.2062	928.3909	949.7172	1016.1082	1069.6865	1090.3761	1099.8198	1148.6739	1172.1268	1211.0524	1260.2706	1275.8874	1299.9086	1328.013	1372.8566	1397.9482	1413.4561	1458.8573	1494.5496	1506.0006	1512.1731	1520.271	1636.5268	2955.8679	2987.007	3027.6303	3051.7989	3252.6251	3262.6285	3568.7813	3682.8859	3840.1309
OCCNC1=CNN=C1	OCCNc1c[nH]nc1	
InChI=1S/C5H9N3O/c9-2-1-6-5-3-7-8-4-5/h3-4,6,9H,1-2H2,(H,7,8)	InChI=1S/C5H9N3O/c9-2-1-6-5-3-7-8-4-5/h3-4,6,9H,1-2H2,(H,7,8)
