20
gdb 38225	3.03684	2.0425	1.68967	1.8917	83.44	-0.2189	0.0282	0.2471	886.0395	0.173845	-365.876057	-365.869727	-365.868782	-365.906075	28.496	
C	 0.0150917607	 1.7634855288	-0.0186786981	-0.209482
C	 1.4847748178	 1.4767557009	 0.1127586771	 0.018653
C	 1.0410867	 0.2755483371	 1.0721969416	-0.343386
C	-0.0710050081	 0.1822987559	-0.0585414253	 0.265539
C	-1.3924946375	-0.2156517675	-0.7148246746	-0.331532
C	-1.0799445612	 0.4686604119	-2.1247925107	-0.243898
C	 0.4795742724	 0.4545796605	-2.2673282327	-0.050765
C	 0.9466100647	-0.3009821433	-1.139539094	 0.006504
N	 1.7829484858	 0.8620176515	-1.2536475738	-0.183965
H	-0.4617108608	 2.1102149908	 0.9024867426	 0.089042
H	-0.2936688089	 2.382617665	-0.8573274573	 0.104133
H	 2.2320088815	 2.2139510328	 0.4059219897	 0.0727
H	 1.7090470769	-0.5815797843	 1.1849124046	 0.104239
H	 0.7203965873	 0.6427849782	 2.0488755258	 0.10362
H	-1.5325297911	-1.2945317833	-0.8392875468	 0.102055
H	-2.2878479755	 0.1963669129	-0.241920215	 0.101016
H	-1.4450729394	-0.1593575226	-2.9473432225	 0.108816
H	-1.5706334062	 1.4385278884	-2.2316621214	 0.115121
H	 0.9171218092	 0.3748676612	-3.2547837146	 0.102244
H	 1.3370166024	-1.3184715049	-1.0815577346	 0.069345
259.7098	301.6217	377.314	419.4383	457.2061	531.9275	586.8945	654.6384	667.9546	734.3186	784.2386	804.8933	820.0707	840.1713	847.736	865.2965	901.5247	948.6769	959.7832	983.0154	993.3048	1019.3801	1045.518	1067.297	1093.695	1115.8508	1146.3967	1164.2507	1187.9585	1198.8148	1210.4585	1220.0461	1233.8139	1255.137	1265.1917	1270.3363	1290.6211	1296.0293	1404.5226	1481.6743	1487.8694	1498.7848	1526.6377	3033.9794	3048.2694	3061.9678	3067.0426	3077.5978	3089.2235	3105.9901	3120.9321	3133.6489	3154.3097	3196.2089
C1C2CC11CCC3C1N23	C1[C@H]2C[C@]31CC[C@@H]1[C@H]3N21	
InChI=1S/C8H11N/c1-2-8-3-5(4-8)9-6(1)7(8)9/h5-7H,1-4H2	InChI=1S/C8H11N/c1-2-8-3-5(4-8)9-6(1)7(8)9/h5-7H,1-4H2/t5-,6-,7-,8+,9?/m1/s1
