15
gdb 31207	2.43931	1.52615	0.94442	2.1039	78.65	-0.1953	0.0148	0.21	1186.316	0.111148	-420.612632	-420.604076	-420.603132	-420.646429	31.036	
C	 0.0351412865	 1.4432017672	-0.0805880317	-0.252035
O	 0.0169164213	 0.0157417548	-0.0291926035	-0.261857
C	 0.589546777	-0.640882953	-1.0316695629	 0.362745
C	 0.712639021	-1.9946383024	-1.2324183044	-0.006559
C	 1.4246233624	-2.1104227299	-2.487024438	-0.277439
C	 1.6654994271	-0.8574770213	-2.9272364716	-0.030035
O	 1.1522196234	 0.0623108346	-2.0328731574	-0.192613
C	 0.2452692259	-3.028002154	-0.3954332313	 0.239935
C	-0.1453496966	-3.9273139466	 0.3048473499	-0.449473
H	 1.0613263226	 1.8234414005	-0.0883019924	 0.139294
H	-0.4911982565	 1.8116080073	-0.9665740591	 0.139264
H	-0.4780595114	 1.7738188711	 0.8221240214	 0.14515
H	 1.7049715886	-3.0324472681	-2.9703990926	 0.12221
H	 2.1515477575	-0.437320498	-3.7899447736	 0.139859
H	-0.493445549	-4.7114974821	 0.9293007971	 0.181552
47.2515	121.5262	163.5166	172.1604	247.7936	290.4827	420.2362	456.7754	514.9283	538.9565	613.0024	616.4679	657.5059	661.4089	725.1844	728.118	832.4261	901.7064	1029.2454	1052.2208	1128.3377	1171.476	1176.7404	1204.7331	1273.1589	1298.9271	1425.9421	1486.4486	1492.777	1500.5168	1577.4412	1653.5697	2232.1391	3037.3743	3106.8456	3157.569	3265.357	3302.3261	3505.5858
COC1=C(C=CO1)C#C	COc1c(cco1)C#C	
InChI=1S/C7H6O2/c1-3-6-4-5-9-7(6)8-2/h1,4-5H,2H3	InChI=1S/C7H6O2/c1-3-6-4-5-9-7(6)8-2/h1,4-5H,2H3
