16
gdb 55587	3.6712	0.90046	0.7516	5.6691	69.37	-0.2487	-0.0474	0.2013	1459.5754	0.121494	-475.096088	-475.086533	-475.085589	-475.13189	32.513	
C	 0.1272739045	 1.1967085564	 0.1998496743	-0.472335
C	-0.5133847679	-0.1308350578	 0.525159415	 0.386135
O	-0.1887137058	-0.7779050434	 1.5011166092	-0.310973
C	-1.6093326113	-0.6056365576	-0.4259536854	-0.424384
C	-1.6203824418	-2.0950181006	-0.8209327769	 0.413047
O	-1.8990479363	-2.4347391734	-1.9410342214	-0.299711
N	-1.3286840496	-2.9558875968	 0.2318544277	-0.347079
C	-1.3384769721	-4.3481259662	 0.2111475682	 0.16344
O	-1.6726902316	-5.0511283911	-0.7017316681	-0.253857
H	 0.8243666729	 1.4826227338	 0.9877385324	 0.152621
H	 0.6577565956	 1.1212912481	-0.756821695	 0.159643
H	-0.6390912047	 1.9695965427	 0.0732519074	 0.151278
H	-2.5629608959	-0.4039440394	 0.0830767627	 0.169158
H	-1.6158477495	-0.0337466355	-1.3544252767	 0.146914
H	-0.9917414772	-2.5000947031	 1.0769738362	 0.276843
H	-0.9938577591	-4.740882066	 1.1891371804	 0.089261
39.3435	73.7648	96.6922	154.458	170.591	217.6707	244.6926	307.5222	379.5495	473.9874	524.236	575.2631	638.2574	779.9318	794.3165	832.7538	888.5761	952.2622	983.8072	1031.5497	1044.744	1123.6968	1175.3441	1197.4691	1209.4939	1331.4219	1386.6967	1443.0462	1446.7992	1459.8418	1472.8972	1549.9731	1787.518	1809.8133	1871.123	2930.1138	3027.5841	3036.733	3096.8452	3132.8291	3158.7995	3477.8945
CC(=O)CC(=O)NC=O	CC(=O)CC(=O)NC=O	
InChI=1S/C5H7NO3/c1-4(8)2-5(9)6-3-7/h3H,2H2,1H3,(H,6,7,9)	InChI=1S/C5H7NO3/c1-4(8)2-5(9)6-3-7/h3H,2H2,1H3,(H,6,7,9)
