18
gdb 54417	2.50666	1.48141	1.18001	1.6142	74.95	-0.2116	-0.0166	0.1951	1104.6346	0.145557	-439.053768	-439.044586	-439.043642	-439.087985	33.855	
C	 0.0111698538	 1.3961769594	 0.2875946591	-0.507137
C	-0.0097310753	-0.0578331929	-0.1483238767	 0.304578
O	 0.9993653512	-0.6410098869	-0.5058919805	-0.34493
C	-1.2980439179	-0.7597454804	-0.0755420244	 0.16013
C	-1.5405645259	-2.0721183271	-0.807416071	-0.376631
C	-1.5883471743	-2.1113494946	 0.6714832323	 0.361914
O	-0.8242816141	-2.8963949106	 1.4932529909	-0.442798
C	-2.8399874171	-1.4348780893	 1.2138883939	-0.218503
N	-2.6140745109	-0.2267029164	 0.3412939541	-0.381403
H	 1.0158767089	 1.7985689694	 0.1554021475	 0.144747
H	-0.7058474112	 1.9867696257	-0.2940479602	 0.144295
H	-0.2755939476	 1.4854212509	 1.3426482989	 0.135913
H	-2.4437543314	-2.1583927522	-1.4076164832	 0.122425
H	-0.6314808987	-2.4701763638	-1.2489880851	 0.139862
H	-0.1665481075	-3.3600821386	 0.9636925209	 0.302119
H	-3.7953355007	-1.9408078018	 1.0381961302	 0.112737
H	-2.7321005975	-1.2173996571	 2.2805253325	 0.120253
H	-2.5062758138	 0.5999972064	 0.9203953507	 0.222429
62.7919	80.6172	151.6856	174.4714	212.3405	269.2543	365.8886	389.0813	416.0932	454.9026	508.9726	613.0635	626.3952	687.2137	743.3758	789.9101	812.63	929.5903	955.384	960.551	997.6124	1036.0716	1041.5214	1082.2517	1105.3102	1136.8668	1145.9232	1213.7784	1291.8881	1308.7514	1370.2468	1378.2777	1402.489	1437.5153	1466.3466	1474.4448	1476.7147	1508.3244	1755.3913	3029.1801	3041.7997	3089.1274	3097.2324	3102.0557	3153.1289	3206.9565	3520.7821	3817.9292
CC(=O)C12CC1(O)CN2	CC(=O)[C@@]12C[C@]1(O)CN2	
InChI=1S/C6H9NO2/c1-4(8)6-2-5(6,9)3-7-6/h7,9H,2-3H2,1H3	InChI=1S/C6H9NO2/c1-4(8)6-2-5(6,9)3-7-6/h7,9H,2-3H2,1H3/t5-,6-/m0/s1
