14
gdb 126084	4.61312	1.39375	1.13376	1.9957	63.81	-0.2219	-0.0078	0.2142	1017.9736	0.102445	-469.981578	-469.974395	-469.97345	-470.013788	26.674	
C	-0.4102437367	 1.4953799939	-0.0043263596	-0.39307
C	 0.1651929794	 0.1030901676	 0.0111891674	 0.193871
O	 1.0353870982	-0.0983868195	-1.1472446377	-0.282695
C	 2.2031542452	-0.5175358454	-0.6111721536	 0.361186
N	 3.3614861944	-0.9405320069	-1.0398621214	-0.32655
N	 3.9686059231	-1.2634971763	 0.1462067275	-0.144142
N	 3.2755951769	-0.9497391442	 1.2867980091	-0.326549
C	 2.1518174825	-0.5232532702	 0.7772233185	 0.361193
O	 0.9475054731	-0.1082224495	 1.2290243172	-0.282694
H	 0.394494889	 2.2338028343	 0.0285109334	 0.144469
H	-0.995681546	 1.6409401311	-0.9155813084	 0.144098
H	-1.0614665374	 1.6335695978	 0.8623477177	 0.144099
H	-0.6046882585	-0.6768507856	-0.0205163948	 0.119572
H	 4.9752730066	-1.2628957572	 0.1833699248	 0.287212
41.0543	228.225	261.2525	283.9668	349.1278	352.3219	462.971	536.9106	626.6093	669.045	750.8235	763.0739	767.1366	844.0235	887.7942	952.5375	1064.559	1106.7551	1110.7175	1144.5493	1150.6757	1214.4874	1351.8306	1382.9904	1417.3092	1425.4023	1481.8812	1482.5699	1530.6123	1620.7404	1662.0348	3043.9181	3055.8432	3138.8556	3142.4781	3662.9622
CC1OC2=NNN=C2O1	C[C@H]1Oc2n[nH]nc2O1	
InChI=1S/C4H5N3O2/c1-2-8-3-4(9-2)6-7-5-3/h2H,1H3,(H,5,6,7)	InChI=1S/C4H5N3O2/c1-2-8-3-4(9-2)6-7-5-3/h2H,1H3,(H,5,6,7)
