13
gdb 42174	2.18364	1.71145	1.04777	2.8243	71.32	-0.2883	-0.092	0.1963	1076.4647	0.087556	-415.563443	-415.555005	-415.554061	-415.597	29.991	
O	 0.1231957368	 0.66936049	 1.4215408914	-0.311097
C	 0.0121333016	 1.414035488	 0.469069939	 0.222231
C	 1.119453391	 1.7841008111	-0.3727835467	 0.270794
C	 2.0394171111	 2.0960033329	-1.0825891297	-0.401726
C	-1.3479932905	 1.9827804806	 0.1172010278	 0.067303
C	-2.4576769432	 0.9531111579	 0.0701485596	-0.236911
N	-2.3735787936	 1.8863391787	 1.1723043897	-0.314027
C	-1.4050520999	 3.1385320128	-0.7441979974	 0.232944
N	-1.4418979861	 4.0517222773	-1.4511280541	-0.332699
H	 2.8515637358	 2.3759872543	-1.7098916416	 0.231247
H	-3.2707418501	 1.1215781801	-0.6286661518	 0.157002
H	-2.1526826185	-0.0782586796	 0.2224455949	 0.150969
H	-1.9192849143	 1.4293564861	 1.9656469189	 0.263972
54.4597	111.3877	180.0614	211.9917	244.1422	286.7997	313.433	451.5408	500.4481	554.7967	587.9918	663.7904	674.0565	725.8211	760.4081	858.5178	871.984	954.3462	1008.3718	1075.3575	1122.5247	1159.2287	1261.8845	1323.3163	1361.0253	1493.672	1747.784	2221.0192	2364.6399	3120.915	3222.4079	3455.2706	3489.2598
O=C(C#C)C1(CN1)C#N	O=C(C#C)[C@]1(CN1)C#N	
InChI=1S/C6H4N2O/c1-2-5(9)6(3-7)4-8-6/h1,8H,4H2	InChI=1S/C6H4N2O/c1-2-5(9)6(3-7)4-8-6/h1,8H,4H2/t6-/m1/s1
