17
gdb 6950	2.63754	2.38332	1.71897	4.5382	70.76	-0.2154	-0.0252	0.1902	835.4901	0.14214	-363.908781	-363.900903	-363.899959	-363.940393	30.105	
C	-0.0499449013	 1.576151483	 0.0405333398	-0.406378
C	 0.0102455869	 0.0479865481	-0.0220368045	 0.151906
C	-1.388556637	-0.576518045	-0.0944868518	-0.417284
N	 0.8673630747	-0.4221791516	-1.1219384369	-0.30615
C	 1.8215766852	-1.2615269486	-0.62320089	 0.008803
C	 1.8490899792	-1.3198288924	 0.73512554	-0.278838
C	 0.7532473526	-0.5080743399	 1.233892973	 0.386025
O	 0.406353005	-0.254272733	 2.3711449339	-0.380715
H	 0.9549982728	 2.0049962967	 0.0045920457	 0.125329
H	-0.6316772259	 1.985756933	-0.7918636744	 0.105281
H	-0.5187676679	 1.8728378704	 0.9826742924	 0.143586
H	-1.9501945739	-0.1918207371	-0.9532702144	 0.108344
H	-1.328877946	-1.6663855905	-0.1726355267	 0.123463
H	-1.9371133972	-0.3302096925	 0.8187488057	 0.148113
H	 0.4759249672	-0.5828820349	-2.0370044368	 0.247233
H	 2.4772915177	-1.7776015829	-1.3152740223	 0.131322
H	 2.559640488	-1.8566292528	 1.3434388373	 0.109961
111.4372	212.162	225.522	254.4654	292.8611	311.7607	337.1171	446.7434	515.4331	540.1202	609.004	706.8935	737.1108	790.3434	811.5627	901.7311	950.9438	964.0803	973.1787	1025.6962	1093.5732	1125.8932	1163.8566	1189.2313	1228.4215	1258.9274	1372.3163	1390.9415	1409.6672	1455.8136	1479.3668	1484.8228	1499.1029	1507.5319	1606.5262	1787.5434	3029.8448	3038.5632	3101.2897	3111.054	3122.0094	3129.0626	3204.5836	3262.4614	3621.8092
CC1(C)NC=CC1=O	CC1(C)NC=CC1=O	
InChI=1S/C6H9NO/c1-6(2)5(8)3-4-7-6/h3-4,7H,1-2H3	InChI=1S/C6H9NO/c1-6(2)5(8)3-4-7-6/h3-4,7H,1-2H3
