15
gdb 129697	3.19119	1.31442	0.99188	3.7789	69.21	-0.2131	-0.0052	0.2078	1140.3862	0.114333	-450.094205	-450.086343	-450.085399	-450.127189	28.68	
N	 0.2610050574	 1.4794770841	 0.172325549	-0.599039
C	 0.0528468618	 0.106335495	 0.0500666828	 0.210081
C	-1.1203612576	-0.6041233824	-0.1274059036	 0.314028
N	-0.6830225053	-1.8873399043	-0.2633509095	-0.232072
N	 0.6448114649	-1.9779321272	-0.1777544872	-0.120344
N	 1.0987900345	-0.7650499148	 0.0097227226	-0.249892
C	-2.5433245949	-0.2438678018	-0.2096557541	-0.058133
C	-3.3858296045	-0.6007172487	-1.3681009649	-0.172917
O	-3.4576594248	-1.3476568354	-0.1502420196	-0.242777
H	 1.2191559055	 1.6646009237	 0.4436332337	 0.257795
H	-0.3734294998	 1.9339984364	 0.8166484222	 0.246425
H	-1.2552798004	-2.7144505544	-0.336026245	 0.286487
H	-2.8431373753	 0.6250426323	 0.3760785169	 0.106363
H	-4.2649979852	-0.0012924202	-1.5985271562	 0.128326
H	-2.9328624262	-1.1193353822	-2.210832877	 0.12567
65.3734	142.9311	152.152	212.6331	300.2544	307.9644	443.6526	511.0293	594.6049	632.55	701.5397	730.2002	755.0092	796.9814	848.3031	903.6809	996.5933	1020.7976	1090.4929	1099.2898	1118.2026	1149.2596	1166.2663	1225.9199	1241.6182	1274.0278	1358.3755	1377.5372	1432.4128	1519.4453	1529.1666	1638.4925	1656.2946	3089.4501	3110.0572	3184.0018	3533.0378	3625.3521	3651.3405
NC1=C(NN=N1)C1CO1	Nc1c([nH]nn1)[C@H]1CO1	
InChI=1S/C4H6N4O/c5-4-3(2-1-9-2)6-8-7-4/h2H,1H2,(H3,5,6,7,8)	InChI=1S/C4H6N4O/c5-4-3(2-1-9-2)6-8-7-4/h2H,1H2,(H3,5,6,7,8)/t2-/m1/s1
