16
gdb 36010	3.09702	1.07342	0.86617	3.9572	74.43	-0.2766	0.0236	0.3002	1306.5586	0.12212	-400.699084	-400.689937	-400.688993	-400.733798	32.387	
C	-0.2541650266	-1.1057752547	-0.1389292315	-0.415976
C	-0.1242496204	 0.087411428	-0.0942922664	 0.289566
C	 0.0650006599	 1.5283401918	-0.0290814317	-0.35633
C	 1.5632694312	 1.949677972	 0.0197978066	-0.187729
C	 2.2657547195	 1.54181113	-1.1992678725	 0.308025
N	 2.833557011	 1.2336701632	-2.1569040669	-0.330525
C	 1.6677188257	 3.4513137808	 0.2672080786	 0.070296
C	 2.6147482283	 4.3375286648	-0.4169938706	-0.187311
O	 1.2293738616	 4.299746106	-0.7847274626	-0.226992
H	-0.3786116739	-2.1592352785	-0.1909107378	 0.205311
H	-0.4023506132	 2.0209149961	-0.8882988434	 0.16806
H	-0.4223800595	 1.9295065843	 0.8679304836	 0.139972
H	 2.0380320625	 1.4322874021	 0.8626141958	 0.142568
H	 1.3121524122	 3.7389248242	 1.2584325243	 0.107135
H	 2.9380479799	 5.2507981536	 0.0790516095	 0.124496
H	 3.2992498816	 3.9273528762	-1.1553053953	 0.149433
59.501	72.5968	118.4872	162.7735	203.3723	237.7622	341.6525	376.7949	428.0263	466.7862	587.6206	633.4986	654.1409	662.3016	788.9977	833.734	893.4755	948.6428	969.2569	994.9094	1040.2488	1098.3119	1111.1544	1169.9534	1173.6983	1207.182	1275.9525	1295.868	1341.9115	1359.3109	1427.8615	1473.5161	1527.6443	2246.0208	2363.7354	3035.1873	3043.9936	3082.9561	3093.7523	3101.1836	3195.2776	3505.6459
C#CCC(C#N)C1CO1	C#CC[C@@H](C#N)[C@H]1CO1	
InChI=1S/C7H7NO/c1-2-3-6(4-8)7-5-9-7/h1,6-7H,3,5H2	InChI=1S/C7H7NO/c1-2-3-6(4-8)7-5-9-7/h1,6-7H,3,5H2/t6-,7+/m0/s1
