15
gdb 57823	4.10874	0.72405	0.63705	3.6691	88.19	-0.2707	-0.0917	0.179	1670.4681	0.10856	-420.585985	-420.576249	-420.575304	-420.621321	34.438	
C	-0.0753290532	 1.5521019671	-0.212781551	-0.402715
C	 0.0857010646	 0.0519438633	 0.0709100963	 0.048597
O	 0.7389654472	-0.1578241495	 1.2911620308	-0.435622
C	-1.2645097874	-0.6675302469	 0.0904655756	 0.106526
O	-1.6245255202	-1.2665106948	 1.0877120018	-0.312686
C	-2.06306877	-0.6180115848	-1.1063659974	 0.399289
C	-2.72636582	-0.5788058466	-2.1217252846	-0.15709
C	-3.4708760355	-0.538249811	-3.2553573668	 0.295185
C	-4.1325776785	-0.5010436855	-4.2649229299	-0.542299
H	 0.9107202958	 2.0219749818	-0.1930085024	 0.139069
H	-0.5284565074	 1.7261673937	-1.1925839531	 0.126432
H	-0.6951032394	 2.0201372486	 0.5574757197	 0.130649
H	 0.6644929803	-0.3990613619	-0.7543903792	 0.099796
H	 0.1409287843	-0.712150069	 1.8182479172	 0.294797
H	-4.7168235005	-0.4703240344	-5.151936117	 0.210071
51.2138	65.7142	112.4712	198.2366	223.0219	256.9823	312.394	340.9596	378.5029	413.6155	457.178	492.1587	553.8671	565.6806	602.6153	642.7038	689.6731	772.3002	910.1328	953.0999	1047.695	1096.1619	1171.3164	1223.0872	1279.2202	1351.4563	1398.2605	1429.0575	1488.6705	1497.4735	1733.3065	2174.1834	2331.786	2953.6422	3046.9795	3126.0145	3132.309	3498.417	3680.9057
CC(O)C(=O)C#CC#C	C[C@@H](O)C(=O)C#CC#C	
InChI=1S/C7H6O2/c1-3-4-5-7(9)6(2)8/h1,6,8H,2H3	InChI=1S/C7H6O2/c1-3-4-5-7(9)6(2)8/h1,6,8H,2H3/t6-/m1/s1
