20
gdb 110392	5.60123	0.95144	0.93896	2.1807	79.98	-0.2095	0.0753	0.2848	1327.7266	0.170275	-403.043059	-403.034727	-403.033783	-403.07594	32.426	
C	-0.1055310788	 1.6717415655	 0.0955513432	-0.376847
C	-0.1220050206	 0.1462139098	 0.0209017882	-0.121254
N	 0.665569327	-0.4363938052	 1.1067192221	-0.118705
C	 2.1447323086	-0.5281224363	 0.8873089848	-0.028647
C	 2.2548288095	-1.7561698867	 1.8402994811	-0.074931
C	 3.0799357451	-2.5488831191	 0.8267517099	 0.097093
O	 2.9221783804	-3.9455404981	 0.9400590346	-0.440507
C	 2.0950844143	-1.7760003899	-0.0728411973	-0.124234
C	 0.9454722515	-1.8996968521	 1.0031612921	-0.006276
H	 0.9066212664	 2.0648500594	-0.0497998782	 0.112381
H	-0.7447766522	 2.1071750999	-0.6786536631	 0.109596
H	-0.4594431844	 2.0096685607	 1.0736049363	 0.125616
H	-1.1509516419	-0.2170716268	 0.1382815257	 0.097062
H	 0.2168962828	-0.1814045243	-0.9784257158	 0.074886
H	 2.805292468	 0.3383393145	 0.838318399	 0.080459
H	 2.3211620955	-1.7217026022	 2.9264265399	 0.08442
H	 4.1385984393	-2.2656502823	 0.737938546	 0.063603
H	 3.3481516251	-4.3602398417	 0.1835098892	 0.28301
H	 2.0099358056	-1.7886559732	-1.1593824241	 0.075763
H	 0.1733057487	-2.6638553121	 1.0849305262	 0.087512
79.1589	139.3343	190.1902	216.1325	263.0142	292.3268	361.2268	427.5888	524.8876	593.7997	735.0396	770.1926	800.2497	825.5692	833.1396	844.607	892.2743	919.8311	934.2199	977.2932	978.244	1022.0024	1086.4511	1092.9273	1104.8637	1130.2889	1132.4021	1154.772	1162.0812	1168.1221	1186.9321	1197.9253	1208.7639	1292.9503	1305.272	1307.3948	1327.2715	1387.1193	1409.0316	1436.6946	1490.2505	1492.2716	1510.9475	2941.1887	2999.0009	3034.5729	3038.3186	3100.7373	3104.9248	3114.4855	3118.2367	3124.7164	3140.0458	3820.6042
CCN1C2C3C(O)C2C13	CCN1[C@H]2[C@@H]3[C@@H](O)[C@H]2[C@H]13	
InChI=1S/C7H11NO/c1-2-8-5-3-6(8)4(5)7(3)9/h3-7,9H,2H2,1H3	InChI=1S/C7H11NO/c1-2-8-5-3-6(8)4(5)7(3)9/h3-7,9H,2H2,1H3/t3-,4+,5-,6+,7-
