15
gdb 16122	4.61605	1.64697	1.43491	4.4185	65.52	-0.2867	0.0049	0.2916	874.4891	0.120361	-362.674718	-362.668002	-362.667058	-362.705538	25.57	
N	-0.0403906465	-1.0899974103	 0.4844109992	-0.332061
C	 0.0041693892	 0.0347182957	 0.221507249	 0.221488
C	 0.0328089268	 1.4288180374	-0.1489561262	 0.295467
C	-0.8310440247	 1.9399481053	-1.2919394892	-0.290609
C	-0.2880945939	 3.3676410932	-1.5439260788	-0.226555
C	 1.1987746541	 3.3340163261	-1.1131173781	-0.244052
C	 1.2441088429	 2.2701253069	-0.0367273467	 0.002642
O	 0.187629291	 2.3687184131	 0.9254559975	-0.281506
H	-0.6835948775	 1.2874083904	-2.1598017971	 0.125671
H	-1.8954005206	 1.9267235243	-1.0435427862	 0.129255
H	-0.4133534212	 3.6768261606	-2.5834288567	 0.111679
H	-0.8323948365	 4.0783450169	-0.9195860995	 0.130351
H	 1.8540116621	 3.0241030961	-1.9359482664	 0.116877
H	 1.5558482971	 4.3039740906	-0.755195909	 0.122912
H	 2.1829475277	 1.8780018336	 0.3444934182	 0.118441
144.5073	159.7719	221.1324	329.1407	402.9296	496.6045	549.5124	586.1255	657.5443	687.6162	812.2646	868.8504	892.4569	899.0182	944.3138	962.0157	1024.0121	1039.0177	1121.3874	1163.031	1193.7326	1213.9876	1255.2387	1287.7022	1324.2579	1330.6971	1348.2418	1427.3361	1477.5084	1484.3374	1500.126	2360.0518	3043.9633	3052.3899	3081.0647	3094.4008	3103.4809	3130.2799	3162.2607
N#CC12CCCC1O2	N#C[C@]12CCC[C@H]1O2	
InChI=1S/C6H7NO/c7-4-6-3-1-2-5(6)8-6/h5H,1-3H2	InChI=1S/C6H7NO/c7-4-6-3-1-2-5(6)8-6/h5H,1-3H2/t5-,6-/m1/s1
