19
gdb 92234	2.77818	1.79188	1.40344	2.8526	72.94	-0.2484	0.0758	0.3242	967.495	0.161635	-423.008646	-423.001543	-423.000599	-423.039945	29.37	
O	 0.046443448	 1.4487808785	 0.0988395419	-0.439498
C	-0.0025278483	 0.0542031308	-0.0268523048	 0.163267
C	 0.4484990851	-0.8273324059	 1.1742874155	-0.278615
C	-0.8274082769	-1.7040754297	 1.0088648634	-0.018215
C	-1.8149009597	-1.7977583581	 2.1937659001	-0.264163
C	-2.7176910471	-0.5877078004	 2.0502570091	 0.054345
O	-2.0186238288	 0.6658882491	 1.9777349534	-0.278283
C	-2.4890706006	 0.0643559598	 0.7490232772	 0.025365
C	-1.399759528	-0.6583717907	-0.0119200583	-0.103733
H	-0.4079948392	 1.6677015381	 0.9213074209	 0.296709
H	 0.5488871604	-0.1865611032	-0.9400746917	 0.086146
H	 1.4090001934	-1.3373779285	 1.0652433013	 0.094623
H	 0.4523393488	-0.2627472795	 2.1097125904	 0.106146
H	-0.6122586907	-2.6841898962	 0.5806067151	 0.073561
H	-2.4306995681	-2.7031314792	 2.1296272724	 0.104235
H	-1.3048484605	-1.8193434615	 3.1630702474	 0.113915
H	-3.6709237772	-0.540646558	 2.571966469	 0.096905
H	-3.2552408385	 0.6366329197	 0.2334086127	 0.100969
H	-1.7718986121	-1.0198538451	-0.9740189351	 0.066321
113.5971	193.5402	282.4019	371.4121	379.7901	422.5725	511.684	573.7859	630.7354	676.479	733.6383	794.3195	815.31	831.2635	862.4889	880.4875	931.4548	948.1507	958.6933	1010.2827	1038.3906	1061.3737	1073.6464	1095.1722	1131.9158	1140.7723	1171.7027	1210.0346	1236.3851	1248.2693	1263.4233	1266.1095	1302.5551	1311.7066	1328.6051	1342.7399	1363.9196	1422.856	1452.0524	1474.1733	1477.5402	3034.1854	3059.6423	3065.1633	3075.8403	3078.2988	3093.3392	3120.2627	3140.21	3157.5511	3789.4999
OC1CC2CC3OC3C12	O[C@H]1C[C@H]2C[C@H]3O[C@H]3[C@@H]12	
InChI=1S/C7H10O2/c8-4-1-3-2-5-7(9-5)6(3)4/h3-8H,1-2H2	InChI=1S/C7H10O2/c8-4-1-3-2-5-7(9-5)6(3)4/h3-8H,1-2H2/t3-,4-,5+,6+,7+/m0/s1
