21
gdb 82176	2.64832	1.60487	1.29912	1.3468	81.2	-0.2336	0.0863	0.3199	1081.7744	0.183938	-383.235372	-383.227104	-383.22616	-383.26759	33.15	
C	-0.0569714886	 1.5789172598	 0.0065544275	-0.40342
C	 0.0199667939	 0.0543342821	-0.0283911261	 0.014919
C	 0.7253653112	-0.5175772375	-1.2601926575	-0.084777
N	 0.6080764984	-1.9722545706	-1.4703536467	-0.390507
C	 1.8181329195	-1.4332863065	-0.8237486593	 0.340913
C	 3.1237424229	-1.6537368291	-1.5448938842	-0.466822
C	 1.78546652	-1.4167863836	 0.6822032286	-0.10941
C	 2.1110908636	-0.1198746928	 1.3228410574	-0.251992
N	 0.7058535952	-0.5274790719	 1.1622172853	-0.103472
H	 0.9256192134	 2.0452037868	-0.1131747113	 0.117213
H	-0.6992938881	 1.9429538489	-0.8012815926	 0.120401
H	-0.4801527076	 1.9144353592	 0.9575263504	 0.129086
H	-1.0083003626	-0.3317516173	 0.0063274933	 0.085444
H	 0.7832341679	 0.0776805391	-2.1674666914	 0.08671
H	-0.0249991879	-2.3730975292	-0.7791303784	 0.228322
H	 2.9708224454	-1.6168759528	-2.6260174982	 0.130905
H	 3.8651660782	-0.8979613722	-1.2649264371	 0.115712
H	 3.5396873091	-2.6379435127	-1.3007440117	 0.121053
H	 1.9241505898	-2.3526385085	 1.2203009373	 0.090803
H	 2.4540081487	-0.0870779904	 2.3527232089	 0.116985
H	 2.5118033178	 0.6651663994	 0.6863752459	 0.111933
130.1162	195.9403	214.3015	223.6664	273.9659	328.9162	343.1228	429.1196	472.9486	512.9776	596.4713	687.3288	730.9417	765.265	831.186	846.7559	863.8958	914.5245	955.9548	1004.667	1031.3446	1033.648	1071.2598	1084.1665	1095.0973	1112.5244	1120.9423	1125.0802	1148.4033	1163.5608	1204.2552	1261.7291	1284.1334	1313.4754	1335.4832	1364.8428	1382.165	1407.5826	1408.8328	1431.9227	1486.0159	1490.9523	1496.0609	1499.0633	1504.6502	3000.3091	3032.7308	3042.5505	3092.6848	3107.2585	3112.2593	3119.4517	3124.481	3124.662	3146.0825	3193.6535	3464.2078
CC1C2NC2(C)C2CN12	C[C@H]1[C@@H]2N[C@]2(C)[C@H]2CN12	
InChI=1S/C7H12N2/c1-4-6-7(2,8-6)5-3-9(4)5/h4-6,8H,3H2,1-2H3	InChI=1S/C7H12N2/c1-4-6-7(2,8-6)5-3-9(4)5/h4-6,8H,3H2,1-2H3/t4-,5+,6-,7+,9?/m0/s1
