18
gdb 36241	4.35098	1.0916	1.02876	2.2422	80.64	-0.2399	0.057	0.2969	1197.9083	0.147786	-364.705417	-364.69773	-364.696786	-364.738007	30.242	
C	 0.0109926799	-1.209695996	 0.0624930485	-0.43944
C	-0.0324215943	-0.0093177647	 0.0292440539	 0.302479
C	-0.0638055803	 1.4470077889	-0.0265824263	-0.384269
C	 1.3367717485	 2.0722032192	-0.0019417392	 0.08582
C	 1.5391949582	 3.5981268834	-0.1052546798	-0.116597
C	 0.7287380029	 4.1651382841	 1.0913100362	-0.250576
C	 1.6977171029	 3.3772764083	 1.9711972862	-0.034056
C	 2.7268348973	 3.3501671083	 0.9069137352	-0.048896
N	 2.0753567948	 2.0736292781	 1.306519771	-0.146628
H	 0.0455828827	-2.2699300839	 0.1028110024	 0.193902
H	-0.5687162471	 1.7694696842	-0.9480119331	 0.129443
H	-0.6631816509	 1.8305268248	 0.8057416927	 0.134506
H	 1.9776472915	 1.5497223249	-0.7183123774	 0.093863
H	 1.5670181845	 4.1177952952	-1.0614280513	 0.073903
H	 0.9035359497	 5.2378769117	 1.207614961	 0.108707
H	-0.3461692192	 3.9659135089	 1.1430947155	 0.097532
H	 1.8219104907	 3.4060301444	 3.045312336	 0.100327
H	 3.795691738	 3.5148305601	 0.8873304484	 0.099981
53.1663	123.782	211.0172	279.0155	338.0806	436.9425	490.0414	573.052	617.5746	635.9699	704.0509	717.9735	785.0558	829.4568	847.673	880.955	916.3024	956.0743	966.7939	984.2608	991.0913	1013.3106	1048.4993	1062.9626	1107.6579	1121.554	1141.5011	1167.4637	1206.7244	1229.0221	1236.9713	1270.4388	1288.5369	1314.8983	1346.1418	1403.1927	1460.0814	1506.7446	2241.1475	3016.0049	3048.4482	3062.4582	3078.045	3104.4606	3130.3843	3201.5076	3215.9205	3508.2464
C#CCC1C2CC3C2N13	C#CC[C@H]1[C@H]2C[C@@H]3[C@H]2N13	
InChI=1S/C8H9N/c1-2-3-6-5-4-7-8(5)9(6)7/h1,5-8H,3-4H2	InChI=1S/C8H9N/c1-2-3-6-5-4-7-8(5)9(6)7/h1,5-8H,3-4H2/t5-,6+,7-,8+,9?/m1/s1
