19
gdb 83887	2.08327	1.89143	1.33388	3.3093	69.85	-0.2371	0.0515	0.2886	1018.5654	0.161121	-460.137848	-460.129801	-460.128857	-460.170054	31.891	
O	-0.0296315638	 1.3392817251	-0.2765054368	-0.417749
C	-0.0127547801	-0.0498983483	-0.0806573654	 0.06436
C	-0.4378820834	-0.6462329535	 1.2460276461	-0.118254
C	-0.8839541936	 0.2457514862	 2.3983473579	-0.094487
O	-2.2806186732	 0.4788005007	 2.4228141567	-0.237852
C	-2.7262984467	 1.0769995238	 1.2198090869	-0.113752
C	-2.626048473	 0.112462289	 0.019028202	 0.102967
O	-2.80960788	 0.8145175929	-1.2016572178	-0.44215
C	-1.3482437188	-0.7171788066	 0.0268151994	-0.090254
H	 0.7437420051	 1.7269556278	 0.146912399	 0.295679
H	 0.7685041187	-0.5679734258	-0.6351384595	 0.092362
H	 0.0655634773	-1.5632900351	 1.5352055822	 0.092618
H	-0.6448203041	-0.2366990998	 3.3491303854	 0.110602
H	-0.3511922283	 1.2118636147	 2.369875178	 0.074602
H	-3.7706598192	 1.3592788422	 1.3748227515	 0.109704
H	-2.1514099288	 1.9892436246	 1.0021722617	 0.089879
H	-3.4681454135	-0.5846746403	 0.0801285097	 0.092072
H	-2.0302054956	 1.3732971183	-1.3118891625	 0.293562
H	-1.4378381391	-1.676891186	-0.4719510946	 0.096092
119.3577	174.4859	205.9534	274.7643	323.8626	343.7753	423.1415	438.5722	463.9462	481.3649	561.994	685.9247	705.1355	745.3755	794.4706	857.0242	946.7849	983.0136	996.7211	1018.9944	1040.8399	1078.0415	1087.9638	1115.1729	1130.6338	1158.0929	1170.2167	1244.9338	1250.1164	1280.9643	1291.4047	1330.0453	1350.8305	1361.108	1375.96	1393.4497	1418.9215	1443.4267	1461.4364	1489.0809	1501.3151	2952.9252	2999.0958	3053.8941	3091.8484	3099.7334	3107.8864	3149.9627	3161.5743	3785.0123	3803.482
OC1C2COCC(O)C12	O[C@H]1[C@H]2COC[C@@H](O)[C@@H]12	
InChI=1S/C6H10O3/c7-4-2-9-1-3-5(4)6(3)8/h3-8H,1-2H2	InChI=1S/C6H10O3/c7-4-2-9-1-3-5(4)6(3)8/h3-8H,1-2H2/t3-,4+,5-,6-/m0/s1
