22
gdb 6153	4.22967	1.08883	1.06604	1.2613	78.67	-0.2608	0.078	0.3387	1241.5266	0.198934	-350.199808	-350.190434	-350.18949	-350.233505	35.365	
C	 0.0620216492	 1.5391684672	 0.0890654482	-0.448158
C	 0.0021918544	 0.016488592	 0.0246579827	 0.355345
C	-1.4242787936	-0.4606637386	-0.2598765299	-0.433552
C	 1.0464368522	-0.6742130034	-0.9137431113	-0.291013
C	 1.3593620452	-1.6945426344	 0.213324908	 0.062423
C	 2.8106490369	-2.046973923	 0.4606292642	-0.098216
O	 2.871784088	-2.881334942	 1.6093070218	-0.423209
C	 0.6493312152	-0.7526644074	 1.2219835535	-0.259968
H	 1.079696791	 1.8894974715	 0.292189628	 0.104247
H	-0.2642743518	 1.9898913929	-0.8561420134	 0.108664
H	-0.588624885	 1.9273147831	 0.8819954495	 0.110164
H	-1.7883409302	-0.0641050028	-1.2149374836	 0.108072
H	-1.4829608533	-1.5531360618	-0.3094256593	 0.11176
H	-2.1123514987	-0.1271169186	 0.5255806862	 0.109848
H	 0.6772713434	-1.0685377185	-1.8648998808	 0.091071
H	 1.9014133854	-0.0204686038	-1.1196524248	 0.087837
H	 0.7958515715	-2.6231393338	 0.0797722875	 0.077576
H	 3.2268338929	-2.5550182504	-0.4259013981	 0.081505
H	 3.3934652085	-1.1219889609	 0.6095287642	 0.07575
H	 3.7949210091	-3.0839349974	 1.7863363142	 0.285236
H	 1.368163503	-0.1319651995	 1.7671132624	 0.089269
H	-0.0301096133	-1.2096615803	 1.9458882507	 0.09535
69.4246	105.2815	189.2566	220.5365	262.8481	268.9367	303.9048	308.1407	361.3306	383.6645	430.5125	459.6401	602.7858	740.8093	835.2307	876.4097	880.2145	930.8138	939.8587	961.5026	988.8004	1007.0362	1040.5192	1076.7311	1091.7716	1102.5218	1179.6628	1210.1945	1220.9763	1237.4936	1247.7713	1278.3207	1290.638	1301.0487	1315.4323	1370.2483	1402.6894	1420.4576	1461.0938	1473.2377	1483.9594	1485.1766	1498.3984	1503.2143	1506.8917	1521.308	2949.2697	2975.5625	3015.0749	3021.3304	3036.2777	3046.6024	3058.6406	3078.7356	3086.0498	3087.6116	3092.5682	3094.4341	3103.9457	3829.1186
CC1(C)CC(CO)C1	CC1(C)CC(CO)C1	
InChI=1S/C7H14O/c1-7(2)3-6(4-7)5-8/h6,8H,3-5H2,1-2H3	InChI=1S/C7H14O/c1-7(2)3-6(4-7)5-8/h6,8H,3-5H2,1-2H3
