17
gdb 38555	2.76345	2.26208	1.63662	1.9043	75.12	-0.2126	-0.0002	0.2124	850.6756	0.138273	-384.630804	-384.624676	-384.623732	-384.660831	26.479	
C	-0.0288019418	 1.5582281265	 0.0975461159	-0.283556
C	 1.4501948838	 1.9429431808	 0.0334098761	 0.030939
O	 2.2738199953	 1.9227342359	-1.1609633527	-0.312803
C	 2.22961307	 0.7590591359	-0.3567246733	 0.342061
C	 3.0706152607	 0.1884760434	 0.7564233563	-0.215269
C	 2.2731959077	-0.7181985867	 1.3400535428	-0.083351
C	 1.0359286832	-0.9947613037	 0.5131137431	-0.094507
C	 0.0021699834	 0.0411557765	-0.1035792937	-0.05096
C	 1.2642932271	-0.3339062792	-0.8082446673	-0.137764
H	-0.4280884229	 1.8797663152	 1.0663294973	 0.109702
H	-0.6525339286	 2.024495729	-0.6762524769	 0.113951
H	 1.8411079253	 2.6192316638	 0.7890110679	 0.097634
H	 3.9938355267	 0.6044710216	 1.1361472858	 0.112573
H	 2.4758109125	-1.232250854	 2.2712514935	 0.102699
H	 0.6186686523	-1.9954352965	 0.5605585938	 0.090926
H	-0.9294028981	-0.4458137113	-0.3802413005	 0.08711
H	 1.3582696734	-0.8200152274	-1.7732111682	 0.090616
215.5867	299.7454	361.7483	433.7889	510.7906	555.3082	632.349	670.7307	712.5809	722.9832	782.2564	803.5813	826.3107	836.7161	912.9436	919.9051	945.0779	966.6582	996.4104	1015.4751	1018.9638	1059.369	1075.8542	1106.0567	1120.7988	1146.4281	1182.623	1211.5545	1292.4721	1297.4023	1310.1026	1343.2759	1346.6086	1388.45	1434.411	1481.9666	1614.8427	3020.7187	3063.8617	3141.3804	3146.4235	3158.7341	3170.1486	3205.9036	3235.3453
C1C2OC22C=CC3C1C23	C1[C@@H]2O[C@]32C=C[C@H]2[C@@H]1[C@@H]32	
InChI=1S/C8H8O/c1-2-8-6(9-8)3-5-4(1)7(5)8/h1-2,4-7H,3H2	InChI=1S/C8H8O/c1-2-8-6(9-8)3-5-4(1)7(5)8/h1-2,4-7H,3H2/t4-,5+,6-,7-,8-/m0/s1
