18
gdb 114506	2.70478	1.34423	1.04971	2.375	71.83	-0.2443	0.0252	0.2695	1153.8851	0.148301	-439.083047	-439.074695	-439.073751	-439.11643	31.303	
O	-0.0814914738	 1.453480033	-0.1477351559	-0.425727
C	 0.0370348063	 0.0654901005	 0.1354377496	-0.101614
C	-1.3489379631	-0.5349222551	-0.0035739055	 0.032977
C	-1.9894324973	-0.6124429629	-1.4239959449	-0.251446
C	-2.195629757	-2.1441143429	-1.2460067754	 0.019232
N	-1.0782935104	-2.9811703941	-1.689903173	-0.319898
C	-0.3658868312	-2.8886379581	-0.507412515	 0.423592
O	 0.7318167	-3.2637571866	-0.1913462622	-0.369246
C	-1.5040777185	-2.0821184429	 0.1568766137	-0.229062
H	 0.7969476419	 1.8427885852	-0.1101513843	 0.288749
H	 0.7370615951	-0.4253717101	-0.5569835675	 0.09944
H	 0.4158738133	-0.1091308494	 1.1551048674	 0.096437
H	-2.017306267	-0.0160211096	 0.6886861839	 0.091981
H	-2.9180946912	-0.0460896796	-1.5170067726	 0.111036
H	-1.331695634	-0.3395781555	-2.2527882461	 0.10481
H	-3.1844999373	-2.5690989019	-1.4190597699	 0.088132
H	-0.7258816586	-3.1471065625	-2.6237796564	 0.244467
H	-1.9299301474	-2.4749690676	 1.0780045041	 0.09614
86.5632	99.7498	117.3572	230.544	271.9419	372.9925	377.8386	427.1864	472.8995	525.0045	645.7039	747.5495	771.3479	813.0069	866.4154	877.5454	912.9475	945.1854	996.1967	1024.1917	1067.7209	1084.592	1101.9406	1135.1574	1154.0919	1170.8388	1178.6162	1228.7998	1247.8954	1263.3957	1280.6738	1301.691	1329.6847	1364.2709	1365.8415	1462.834	1475.513	1515.589	1880.5057	2975.1473	3009.0248	3068.7355	3072.3275	3106.7784	3125.6723	3139.7549	3576.27	3830.9056
OCC1CC2NC(=O)C12	OC[C@H]1C[C@H]2NC(=O)[C@@H]12	
InChI=1S/C6H9NO2/c8-2-3-1-4-5(3)6(9)7-4/h3-5,8H,1-2H2,(H,7,9)	InChI=1S/C6H9NO2/c8-2-3-1-4-5(3)6(9)7-4/h3-5,8H,1-2H2,(H,7,9)/t3-,4-,5+/m1/s1
