21
gdb 36767	5.69119	0.58398	0.55296	2.2525	85.71	-0.2449	0.0574	0.3022	1996.6251	0.180932	-387.042	-387.032062	-387.031117	-387.078297	35.504	
C	-0.0024186256	-1.2065197979	 0.181808434	-0.436835
C	-0.0159330258	-0.0056731796	 0.1291298567	 0.293035
C	-0.0004582303	 1.4505302001	 0.0616768505	-0.357268
C	 1.4200011428	 2.0345903903	-0.0728006145	-0.172918
C	 1.4179048622	 3.5641725416	-0.1535013143	-0.2047
C	 2.8198957608	 4.1434321924	-0.2222330552	 0.157985
C	 2.9955605109	 5.6664853623	-0.0261642627	-0.300812
C	 3.8992992809	 5.2648987316	 1.1559718695	-0.056756
O	 3.5920337651	 3.8673124918	 0.9748710802	-0.292689
H	-0.0004197994	-2.2669426282	 0.2308515651	 0.192028
H	-0.6151225317	 1.7822609193	-0.7860785517	 0.125643
H	-0.4794682909	 1.8619931639	 0.9601064393	 0.12923
H	 2.0249152258	 1.720239324	 0.7833699202	 0.133133
H	 1.896327065	 1.6130498714	-0.9658771439	 0.106759
H	 0.8591366015	 3.898706856	-1.0392440165	 0.094383
H	 0.9075165782	 3.9836085023	 0.723733746	 0.09582
H	 3.3429235308	 3.7536602361	-1.1086260559	 0.071024
H	 3.4769737565	 6.2067951257	-0.8423526785	 0.109765
H	 2.0774192874	 6.1858548334	 0.2574577795	 0.10844
H	 4.968249749	 5.4689124516	 1.0125831485	 0.100676
H	 3.6018510768	 5.6255068319	 2.1475284137	 0.104058
47.6199	65.2806	86.3275	104.0645	140.0367	197.974	289.4177	350.0045	371.2358	463.0965	534.0759	614.0655	633.2061	732.6802	747.4267	805.9	843.0753	882.8301	938.9635	960.2944	978.498	1003.2021	1027.4282	1047.5921	1083.1222	1108.0588	1135.6409	1165.6256	1194.2284	1218.1337	1248.5174	1261.5348	1286.821	1304.3216	1324.3954	1336.9957	1367.0252	1385.7972	1409.054	1471.3105	1474.3681	1490.9374	1503.306	1532.0788	2238.8908	2984.5741	3006.5594	3012.3938	3013.8222	3036.5733	3043.7384	3050.4485	3054.8516	3075.6786	3096.8243	3132.0359	3507.8174
C#CCCCC1CCO1	C#CCCC[C@H]1CCO1	
InChI=1S/C8H12O/c1-2-3-4-5-8-6-7-9-8/h1,8H,3-7H2	InChI=1S/C8H12O/c1-2-3-4-5-8-6-7-9-8/h1,8H,3-7H2/t8-/m0/s1
