15
gdb 76293	2.43004	1.67409	1.1332	0.8855	62.75	-0.256	-0.0286	0.2274	1040.1522	0.113343	-491.117131	-491.108864	-491.10792	-491.150083	30.518	
N	 0.1681206714	 1.3418400384	 0.5003294168	-0.523624
C	-0.0253947481	-0.0130240559	 0.0389901455	-0.068678
C	-1.4897385385	-0.4207101752	-0.1357614414	-0.023135
O	-2.1895840566	 0.6677313961	-0.7187780024	-0.428011
C	-1.4012961508	-1.5386628709	-1.184149421	 0.412434
O	-2.2183816803	-2.3582968561	-1.4692151559	-0.318587
O	-0.210433946	-1.4129864826	-1.8694962561	-0.217607
C	 0.5631754557	-0.3948288691	-1.3162870455	 0.404024
N	 1.5862147192	 0.094661039	-1.8494281758	-0.522898
H	 1.1444465333	 1.5925655981	 0.3716615355	 0.250581
H	-0.3740212205	 1.966702514	-0.0889040702	 0.249835
H	 0.4186053194	-0.7072954345	 0.7675507843	 0.124957
H	-1.9681197568	-0.7731342562	 0.7827308142	 0.11182
H	-3.094479303	 0.3859485183	-0.8931028179	 0.307233
H	 1.7889683717	-0.3330443634	-2.7538020402	 0.241655
76.2582	139.3575	240.2782	247.0389	261.8291	274.1979	333.9717	375.7663	465.9757	551.8267	605.5228	646.5336	732.0047	790.0083	813.7924	897.2856	916.5881	923.5289	969.4179	1050.627	1058.5547	1144.4635	1178.5962	1203.9265	1241.2899	1299.6388	1321.092	1331.4571	1392.5837	1435.5449	1657.8297	1798.9566	1913.5639	3007.6429	3072.0034	3488.0969	3502.1624	3578.81	3813.9027
NC1C(O)C(=O)OC1=N	N[C@H]1[C@@H](O)C(=O)O[C]1[NH]	
InChI=1S/C4H6N2O3/c5-1-2(7)4(8)9-3(1)6/h1-2,6-7H,5H2	InChI=1S/C4H6N2O3/c5-1-2(7)4(8)9-3(1)6/h1-2,6-7H,5H2/t1-,2+/m0/s1
