14
gdb 44726	2.42571	1.74192	1.22202	5.1569	65.75	-0.2672	-0.0525	0.2146	988.2353	0.100177	-436.668482	-436.661021	-436.660077	-436.701137	27.357	
O	 0.0736312953	 0.062945428	-0.5834290689	-0.274534
C	 0.047828147	 1.1659058554	-0.1321975636	 0.419505
C	-1.0323133698	 2.0265676351	 0.5605900389	-0.364624
C	-0.0094490968	 3.1843155347	 0.6098819465	 0.112565
O	 0.7682180141	 3.1828930887	 1.830466357	-0.287894
C	 1.8575239908	 2.4785009824	 1.2019500409	-0.021787
C	 2.2646315673	 1.2684342074	 1.9189713533	 0.297287
N	 2.5964110227	 0.3187844446	 2.4870146843	-0.310313
C	 1.0676334879	 2.3282368316	-0.1292146343	-0.239217
H	-1.8853484836	 2.2096014515	-0.1020605713	 0.144505
H	-1.3959079339	 1.6728658549	 1.5279163619	 0.157157
H	-0.3225364437	 4.1852082919	 0.3142904055	 0.106043
H	 2.7317280949	 3.1315141067	 1.092383672	 0.141193
H	 1.5882646479	 2.570947607	-1.0533797423	 0.120115
65.1441	90.2768	195.7817	273.8618	365.9048	427.1505	470.9943	541.8206	563.9208	638.6353	696.8579	798.8494	844.7521	907.3331	939.1563	964.6923	1013.1527	1018.8616	1035.3432	1074.3524	1112.5405	1154.17	1193.7556	1207.9239	1248.5381	1285.4212	1315.5727	1360.7747	1414.6061	1904.9645	2360.1515	3036.2278	3058.0652	3121.126	3127.2694	3144.5813
O=C1CC2OC(C#N)C12	O=C1C[C@H]2O[C@@H](C#N)[C@@H]12	
InChI=1S/C6H5NO2/c7-2-5-6-3(8)1-4(6)9-5/h4-6H,1H2	InChI=1S/C6H5NO2/c7-2-5-6-3(8)1-4(6)9-5/h4-6H,1H2/t4-,5+,6+/m1/s1
