17
gdb 97866	4.18912	0.72104	0.70232	2.4292	72.67	-0.2567	0.0165	0.2733	1636.073	0.135379	-458.913183	-458.903826	-458.902882	-458.950586	31.484	
O	 0.1489067908	 1.2424093219	 0.1854338759	-0.399543
C	-0.0178586334	-0.1425189728	-0.0773757754	-0.194026
C	-1.4129203933	-0.5807272347	-0.0250183746	 0.068949
C	-2.5748485399	-0.8991218216	-0.0035147238	 0.083685
C	-3.9974895253	-1.2899107122	 0.0417814269	-0.03413
O	-4.6783832314	-0.9532641748	-1.1456841388	-0.224108
C	-4.4183002375	-2.0266289664	-2.0452219971	-0.111996
C	-4.1974992025	-3.245645611	-1.1153000564	-0.096536
O	-4.1483306125	-2.6860404223	 0.1976315139	-0.23484
H	-0.4439664745	 1.7222744288	-0.4024763353	 0.290232
H	 0.4128795169	-0.4233879603	-1.0519567916	 0.119721
H	 0.5668586676	-0.6649514351	 0.6878662254	 0.145667
H	-4.5067957127	-0.7946809612	 0.8741464197	 0.122975
H	-5.282675892	-2.1289299619	-2.7044716309	 0.122833
H	-3.5264244095	-1.8202795356	-2.6503570517	 0.110055
H	-5.0246898098	-3.9605376361	-1.1436638203	 0.119516
H	-3.2645698811	-3.7710069949	-1.350057066	 0.111546
17.984	28.8781	85.6925	95.7334	174.3898	228.596	303.6555	351.1937	462.6399	534.466	594.0566	724.2778	765.5357	835.8385	874.5564	936.4897	955.1818	979.5456	991.4333	1048.3678	1056.2919	1109.358	1140.1792	1162.5435	1215.8788	1230.8722	1241.2658	1307.8006	1357.8282	1363.7716	1374.2888	1383.2218	1418.9405	1490.7683	1513.6124	1529.3138	2354.8056	2976.0566	3022.4686	3037.3056	3064.8251	3072.6391	3084.1877	3112.1882	3815.7138
OCC#CC1OCCO1	OCC#CC1OCCO1	
InChI=1S/C6H8O3/c7-3-1-2-6-8-4-5-9-6/h6-7H,3-5H2	InChI=1S/C6H8O3/c7-3-1-2-6-8-4-5-9-6/h6-7H,3-5H2
