22
gdb 98192	2.91097	0.99706	0.92716	2.5938	79.79	-0.2319	0.0365	0.2684	1425.3375	0.191488	-441.529736	-441.51847	-441.517526	-441.566166	40.452	
C	 0.068632782	 1.5315475316	 0.1645494187	-0.400559
C	 0.0419295896	 0.0124343528	-0.0225735141	-0.204866
C	 0.681654976	-0.491923527	-1.3298836362	 0.250794
C	 0.0457790249	 0.1102935327	-2.5874220609	-0.398721
O	 2.0747820007	-0.143209583	-1.386210386	-0.472415
C	 0.4863991209	-2.0283384433	-1.4068511356	 0.363274
O	-0.6022068387	-2.5401965056	-1.1969158194	-0.402783
N	 1.6044413026	-2.7176378579	-1.7469064968	-0.311641
C	 1.6089957284	-4.1505399771	-1.9522677463	-0.332515
H	 1.0789450548	 1.9311670648	 0.0316322474	 0.117045
H	-0.5870660741	 2.040321421	-0.547603832	 0.12406
H	-0.2710050129	 1.797493656	 1.1698936878	 0.114806
H	 0.5711553556	-0.4697295773	 0.8131556406	 0.086988
H	-0.9795161785	-0.3739942999	 0.0166744235	 0.134632
H	 0.1372278491	 1.1984071168	-2.5839022726	 0.123329
H	 0.5527376383	-0.2696130311	-3.4791509606	 0.121067
H	-1.0086739341	-0.1687121027	-2.6413913077	 0.139931
H	 2.4394006495	-0.2525790079	-0.5007152385	 0.280461
H	 2.4231960555	-2.1634354384	-1.9440784219	 0.251739
H	 1.827256668	-4.406546917	-2.9956171246	 0.125254
H	 2.3499611997	-4.6416993984	-1.311873414	 0.122444
H	 0.6143622325	-4.5198205591	-1.6977949308	 0.167677
52.8863	93.1092	102.4419	129.1435	179.5341	209.3156	240.8777	251.7776	282.9073	336.3721	345.2061	359.4663	366.0204	436.5026	510.0915	648.8222	654.7381	768.6266	786.7238	794.0169	882.1661	934.9347	998.0981	1006.3717	1059.012	1077.9409	1129.3242	1154.5419	1168.6183	1183.535	1209.9015	1257.0556	1286.1123	1364.7179	1367.8047	1402.0097	1410.9995	1439.4057	1482.6295	1486.4248	1492.4602	1496.6881	1500.6895	1505.0725	1512.847	1562.0825	1768.672	2998.9522	3025.2791	3041.6259	3052.9718	3076.4412	3097.0748	3110.4618	3117.1183	3124.7907	3144.3203	3147.72	3628.5108	3799.6527
CCC(C)(O)C(=O)NC	CC[C@@](C)(O)C(=O)NC	
InChI=1S/C6H13NO2/c1-4-6(2,9)5(8)7-3/h9H,4H2,1-3H3,(H,7,8)	InChI=1S/C6H13NO2/c1-4-6(2,9)5(8)7-3/h9H,4H2,1-3H3,(H,7,8)/t6-/m1/s1
