13
gdb 129977	4.17519	1.00258	0.87087	4.5025	64.47	-0.2599	-0.0149	0.2449	1254.9554	0.090358	-448.950051	-448.942193	-448.941248	-448.983267	28.142	
N	-0.0639811235	 1.322693468	-0.0017252807	-0.593715
C	-0.0631439436	-0.0280913449	 0.0316147351	 0.508889
N	-1.0694972247	-0.8351477382	-0.1850169001	-0.371832
C	-0.4840099212	-2.0518983742	 0.0396906866	 0.37954
C	-1.2282904069	-3.3517813485	-0.0606367509	-0.437858
C	-1.7532371493	-3.5984802596	-1.4049760241	 0.274481
N	-2.1682792129	-3.80766191	-2.4618815662	-0.301829
N	 0.7782975859	-2.0330655228	 0.370527278	-0.184192
O	 1.075375087	-0.6454208878	 0.3685663403	-0.20527
H	 0.8259396209	 1.7874044672	-0.0787937083	 0.28302
H	-0.8416901436	 1.751106857	-0.4766464546	 0.288432
H	-0.5578925809	-4.1676890835	 0.2232416891	 0.182758
H	-2.0674779671	-3.3441534229	 0.6440667657	 0.177575
50.2281	94.702	220.0344	277.3025	362.1672	380.275	384.1152	427.586	452.4508	476.3493	650.1464	736.4923	768.8962	829.8411	902.6645	942.4484	951.8034	1015.6944	1047.2456	1121.3108	1220.1325	1326.8707	1377.4254	1446.3908	1448.0201	1582.3702	1608.2106	1691.0366	2372.6076	3054.8194	3110.7725	3607.2257	3724.9092
NC1=NC(CC#N)=NO1	Nc1nc(CC#N)no1	
InChI=1S/C4H4N4O/c5-2-1-3-7-4(6)9-8-3/h1H2,(H2,6,7,8)	InChI=1S/C4H4N4O/c5-2-1-3-7-4(6)9-8-3/h1H2,(H2,6,7,8)
