22
gdb 78235	2.24394	1.54746	1.28839	1.9922	81.36	-0.217	0.0659	0.283	1128.1403	0.19477	-404.328071	-404.318922	-404.317978	-404.361326	35.63	
C	-0.1537977132	 1.5660120829	-0.0278079928	-0.422309
C	-0.0088305605	 0.0600261236	-0.1143274345	 0.019725
C	 0.6524214126	-0.7012042852	-1.2098157329	-0.057211
C	 1.6482539003	 0.0017758438	-2.1235197874	 0.111
O	 0.9745798258	 0.9439026417	-2.9508073482	-0.433246
C	 2.6998209852	 0.6202284678	-1.1669459672	-0.301288
C	 2.5276039252	-0.1516021281	 0.1619060719	 0.077144
C	 2.8189953207	 0.6450844433	 1.4301164481	-0.40037
N	 1.1809547744	-0.7726769033	 0.1662190406	-0.133011
H	 0.6032048749	 2.1229957597	-0.574981568	 0.131784
H	-1.122812583	 1.841747895	-0.4581008526	 0.124047
H	-0.155211016	 1.8966297029	 1.0163760799	 0.116992
H	-0.8871065388	-0.4364638839	 0.2989224614	 0.090188
H	 0.1770772294	-1.59583963	-1.6047909053	 0.081772
H	 2.1254240454	-0.7639881316	-2.7535710367	 0.070365
H	 1.6078612482	 1.2814443854	-3.5920468712	 0.28301
H	 3.7175993252	 0.527152596	-1.5584415172	 0.094614
H	 2.4987551098	 1.6880337425	-1.0463286706	 0.108522
H	 3.2125218111	-1.0098373704	 0.1457434042	 0.08127
H	 2.2075282725	 1.5496172408	 1.4903837277	 0.119243
H	 2.6168223689	 0.0357442241	 2.3157413042	 0.125542
H	 3.870723382	 0.9483865229	 1.4572554865	 0.112216
113.2708	147.5829	177.4249	209.1893	230.0466	285.9986	296.3467	333.4146	389.263	434.8926	521.1314	572.3479	643.9307	687.959	717.6448	750.7051	843.2763	885.1765	915.3915	947.3067	990.8886	1002.0313	1046.9056	1073.2785	1083.1569	1117.9393	1137.0879	1149.4216	1165.0465	1176.0707	1211.793	1240.0333	1271.2141	1314.8339	1346.271	1359.7994	1377.32	1385.2037	1406.1859	1420.1366	1430.3171	1443.3632	1484.4351	1488.9999	1498.2519	1502.1486	1514.6464	2979.3426	3005.847	3039.7594	3041.6826	3053.8103	3090.0095	3094.0195	3098.1184	3108.9942	3122.4652	3130.7717	3173.5939	3816.782
CC1C2C(O)CC(C)N12	C[C@H]1[C@H]2[C@@H](O)C[C@@H](C)N12	
InChI=1S/C7H13NO/c1-4-3-6(9)7-5(2)8(4)7/h4-7,9H,3H2,1-2H3	InChI=1S/C7H13NO/c1-4-3-6(9)7-5(2)8(4)7/h4-7,9H,3H2,1-2H3/t4-,5+,6+,7+,8?/m1/s1
