25
gdb 104716	2.3253	1.0837	0.87991	1.5839	88.25	-0.2534	0.0717	0.3251	1469.9552	0.227413	-389.48908	-389.478453	-389.477509	-389.524393	40.43	
C	-0.2911946861	 1.7537760764	 0.3296298332	-0.39048
C	-0.0011556757	 0.3050197982	-0.0795312454	-0.24239
C	 0.7077170659	-0.5384182092	 0.9887768459	 0.365155
C	 2.0784036677	 0.0286497029	 1.4047402978	-0.230656
C	 3.0890508418	 0.197796054	 0.2649494797	-0.394202
C	-0.1587596978	-0.8880673949	 2.2452347246	-0.315753
C	 0.3107723893	-2.36142021	 2.127117675	 0.17643
O	-0.5970921756	-3.406370966	 2.3756250448	-0.436618
C	 0.7739210122	-2.071043071	 0.6762405303	-0.322886
H	 0.6274994518	 2.3310420601	 0.4734930659	 0.119124
H	-0.8810699164	 2.2639826929	-0.4381884134	 0.111954
H	-0.8584426472	 1.7960042219	 1.266042674	 0.118028
H	-0.9494780581	-0.1898406077	-0.3265467516	 0.081856
H	 0.5870942817	 0.2955847661	-1.0061887162	 0.096381
H	 1.9276878603	 0.9948949198	 1.9022847102	 0.096389
H	 2.5124589478	-0.6290840783	 2.1683599506	 0.095377
H	 4.0611374901	 0.5149627242	 0.6550871241	 0.11269
H	 3.2424559663	-0.7397435263	-0.2802981118	 0.117357
H	 2.7657024702	 0.9517981486	-0.4591821863	 0.118908
H	 0.0515445746	-0.3587494526	 3.1789078231	 0.095127
H	-1.2308434472	-0.802694677	 2.0312609058	 0.082934
H	 1.1608558692	-2.5626787108	 2.7842546195	 0.091284
H	-1.3656287274	-3.2698932822	 1.8115349619	 0.273376
H	 0.0037940351	-2.3652075139	-0.0463774465	 0.083478
H	 1.7286549472	-2.493870285	 0.3519885751	 0.09714
81.5437	88.7258	125.8296	181.2974	196.3795	220.8078	275.0223	300.1924	327.0588	349.1654	369.8721	394.0192	458.2612	508.2198	594.7924	714.6106	770.252	796.8653	830.8719	856.0317	921.8308	932.6369	965.2447	996.738	1010.3933	1044.1235	1050.004	1056.1045	1092.15	1101.1012	1122.6086	1165.1771	1205.4121	1217.6405	1264.937	1270.1213	1281.7568	1320.6127	1324.3628	1341.9766	1363.8225	1385.3967	1406.3375	1410.5945	1439.912	1464.8321	1481.1178	1487.2451	1494.2675	1499.6883	1501.2323	1502.9991	1515.2363	3015.0926	3019.6641	3030.0413	3032.7968	3034.507	3038.2994	3046.4846	3049.0146	3071.7141	3092.2231	3098.1331	3099.215	3101.1536	3103.6023	3107.7631	3805.5182
CCC1(CC)CC(O)C1	CCC1(CC)CC(O)C1	
InChI=1S/C8H16O/c1-3-8(4-2)5-7(9)6-8/h7,9H,3-6H2,1-2H3	InChI=1S/C8H16O/c1-3-8(4-2)5-7(9)6-8/h7,9H,3-6H2,1-2H3
