19
gdb 44965	2.50067	1.76258	1.57084	4.2994	73.27	-0.2583	0.0158	0.2741	957.9358	0.163631	-423.097208	-423.090326	-423.089382	-423.128276	28.281	
O	-0.0076809062	 0.013643511	-0.3663065521	-0.350193
C	 0.0266792667	 1.1821897167	-0.1149096132	 0.437489
O	-1.1043411732	 1.9192310486	 0.1125855541	-0.238508
C	-0.7297248653	 3.2867655144	 0.429316156	 0.102066
C	 0.6032411041	 3.4594435482	-0.3111611026	-0.235811
C	 1.2347472971	 2.1086991911	 0.046926949	-0.1498
C	 1.6588589014	 2.1227055798	 1.5366361708	-0.215062
C	 0.4490729924	 2.3526262387	 2.4689107635	-0.209746
C	-0.5278798565	 3.4269250713	 1.9440848423	-0.209249
H	-1.5345255975	 3.9259804182	 0.0620047524	 0.09066
H	 0.4407022912	 3.5578393675	-1.388542421	 0.112423
H	 1.1765869476	 4.3214183551	 0.03873881	 0.105084
H	 2.0529591924	 1.7889169691	-0.5984787923	 0.095744
H	 2.1491520822	 1.1795138006	 1.7965153537	 0.118589
H	 2.4024390889	 2.9183946346	 1.6657936213	 0.101778
H	-0.0988829086	 1.409468204	 2.5684117152	 0.131077
H	 0.7919620254	 2.6135105037	 3.4746810145	 0.10044
H	-0.1475437023	 4.4367507088	 2.1416214085	 0.10153
H	-1.4883185599	 3.3405337686	 2.4617156699	 0.111489
137.4043	227.1538	256.9329	354.5145	410.5857	456.0119	496.9266	561.1602	677.4152	730.7521	758.3241	808.3516	821.4297	852.5352	888.6495	895.5086	918.111	986.5473	1011.0881	1038.2236	1057.4159	1060.9678	1098.8586	1122.9402	1149.0914	1188.1675	1212.3385	1258.0194	1291.8002	1301.2082	1328.1257	1346.2151	1358.9116	1375.773	1384.4761	1394.7593	1481.0889	1486.1034	1497.2256	1507.1699	1886.2196	3032.8589	3033.9985	3046.852	3057.7626	3078.8528	3082.8133	3093.6899	3099.144	3110.0072	3115.1088
O=C1OC2CC1CCC2	O=C1O[C@@H]2C[C@H]1CCC2	
InChI=1S/C7H10O2/c8-7-5-2-1-3-6(4-5)9-7/h5-6H,1-4H2	InChI=1S/C7H10O2/c8-7-5-2-1-3-6(4-5)9-7/h5-6H,1-4H2/t5-,6+/m1/s1
