19
gdb 85698	2.56785	1.4055	1.06385	4.5475	80.9	-0.2189	0.028	0.247	1177.1957	0.158844	-382.042252	-382.033434	-382.03249	-382.075851	33.016	
C	-0.0730628041	 1.6294693993	 0.091632058	-0.336353
N	 0.0008184245	 0.1860660966	 0.0871699509	-0.099921
C	-1.2273699849	-0.5824904352	 0.3515414241	-0.176015
C	-0.3956828808	-1.5933021624	 1.2033008889	-0.274786
C	-0.0857445108	-2.8575711261	 0.5538090372	 0.294284
N	 0.1671842023	-3.8673184684	 0.0506451335	-0.332786
C	 0.7189754669	-0.5280832337	 1.1414998286	 0.382198
C	 2.1918559252	-0.7028380398	 1.265428181	-0.318809
C	 1.4221238378	 0.0604370229	 2.3335121393	-0.34316
H	 0.9267518574	 2.0561926881	-0.038770165	 0.12744
H	-0.6841543568	 1.9617169706	-0.753646029	 0.129558
H	-0.5102925223	 2.0459810168	 1.0176813855	 0.097615
H	-1.9608400931	-0.0507567502	 0.9763408174	 0.099064
H	-1.7233870802	-0.9764371786	-0.5392606954	 0.126522
H	-0.7940962068	-1.7876621065	 2.2006421314	 0.129098
H	 2.5715011311	-1.6914870469	 1.5013677538	 0.132277
H	 2.820080755	-0.1302449905	 0.5907543461	 0.123946
H	 1.550679487	 1.1369749178	 2.3708396752	 0.121378
H	 1.2811735025	-0.4041049339	 3.3045441985	 0.118451
63.142	124.0422	185.4479	215.773	227.6618	263.0883	310.4096	365.5106	446.5599	505.1022	562.3774	616.8943	708.6349	765.3934	815.2561	870.6513	904.1501	953.7968	965.3433	992.4404	1020.8224	1051.0945	1072.0996	1087.9788	1131.9609	1171.249	1172.7677	1184.6757	1190.5824	1239.0377	1263.2446	1324.7705	1343.2565	1377.6873	1452.2507	1455.9551	1486.2631	1493.9065	1502.0457	1522.0164	2356.3881	2937.3261	2987.5842	3063.0092	3087.4456	3099.1991	3102.7724	3126.1918	3130.7855	3206.8675	3221.5248
CN1CC(C#N)C11CC1	CN1C[C@@H](C#N)C21CC2	
InChI=1S/C7H10N2/c1-9-5-6(4-8)7(9)2-3-7/h6H,2-3,5H2,1H3	InChI=1S/C7H10N2/c1-9-5-6(4-8)7(9)2-3-7/h6H,2-3,5H2,1H3/t6-/m1/s1
