20
gdb 85454	2.69325	1.4417	1.06219	2.8066	79.42	-0.2111	-0.0156	0.1955	1169.102	0.170261	-403.149186	-403.140628	-403.139683	-403.182292	33.31	
C	 0.020056709	 1.4328267572	-0.1626025765	-0.335275
N	-0.0210253274	 0.0077290116	 0.0796340946	-0.121359
C	-1.3648281906	-0.551703662	 0.1400133607	-0.271122
C	-1.1698207629	-1.9326879233	 0.7653003057	 0.394863
O	-1.9981515191	-2.8006840433	 0.8374970238	-0.308173
C	 0.264839359	-1.9821056813	 1.2906997925	-0.392891
C	 0.7105632562	-0.532103664	 1.2183875178	 0.377673
C	 2.1043074305	-0.1182329202	 1.5564950578	-0.337472
C	 0.9670172161	 0.24259782	 2.4996365071	-0.323714
H	 1.0539705896	 1.7810102208	-0.2323433394	 0.125424
H	-0.4638271705	 1.6475476346	-1.1208586129	 0.125883
H	-0.4974482788	 2.0279630739	 0.6124826241	 0.099256
H	-2.0537865055	 0.0212236069	 0.7934082217	 0.106342
H	-1.8312173087	-0.6187067296	-0.8484439066	 0.129291
H	 0.3094179373	-2.4276567806	 2.286199092	 0.130611
H	 0.8514537168	-2.6118700546	 0.6093129268	 0.137418
H	 2.8003582653	-0.8947648338	 1.8566146724	 0.117431
H	 2.5658818454	 0.6876553412	 0.9967573245	 0.117303
H	 0.6790935603	 1.2868917001	 2.5441818053	 0.11582
H	 0.8925601079	-0.2790857436	 3.4481039986	 0.112692
76.0743	109.8315	230.7624	245.9599	280.5371	308.7612	335.1159	465.0457	488.8006	511.4534	518.4242	555.4428	696.2122	771.1568	778.4539	825.9408	874.5138	904.3596	919.7651	977.7208	1020.4232	1044.388	1045.6452	1077.2303	1113.4818	1140.5186	1175.2474	1185.1611	1195.6436	1221.9809	1241.9606	1253.1386	1278.5766	1359.015	1375.5209	1443.1584	1453.9159	1458.9116	1481.8973	1491.7536	1502.5071	1512.1165	1861.3645	2903.3382	2934.3338	3034.6715	3065.7491	3066.9524	3110.957	3117.3231	3130.1481	3133.5716	3208.3519	3222.4951
CN1CC(=O)CC11CC1	CN1CC(=O)CC21CC2	
InChI=1S/C7H11NO/c1-8-5-6(9)4-7(8)2-3-7/h2-5H2,1H3	InChI=1S/C7H11NO/c1-8-5-6(9)4-7(8)2-3-7/h2-5H2,1H3
