15
gdb 124211	5.03382	1.02998	0.85962	4.8846	71.42	-0.2425	-0.0183	0.2242	1285.4212	0.113614	-450.135998	-450.127819	-450.126875	-450.169917	28.913	
C	-0.010751514	 1.4737988343	-0.1024998841	-0.488871
C	-0.0147000339	-0.0097827256	 0.1983869662	 0.354758
N	-0.0487410355	-0.5706287928	 1.3362167622	-0.465937
N	 0.0254015892	-0.7764831229	-0.9712430497	-0.425234
C	 0.036148982	-2.1315319691	-1.1307237444	 0.571225
N	 0.0767788454	-2.7191825987	-2.301582601	-0.377549
C	 0.0697645612	-4.0345273088	-1.9290690211	 0.051465
N	 0.0287934075	-4.2693607282	-0.6474221634	-0.126187
O	 0.0055177702	-2.9617223564	-0.0937234951	-0.178735
H	 0.8910748955	 1.7589039059	-0.6558037724	 0.148151
H	-0.8768362147	 1.7519880874	-0.7134164689	 0.14812
H	-0.0431999376	 2.0469003691	 0.8245755729	 0.143721
H	-0.0749478895	 0.1284899169	 2.0754008313	 0.225156
H	 0.052113661	-0.2900507624	-1.8534713698	 0.275315
H	 0.0962048832	-4.8491178088	-2.6389081026	 0.144603
47.228	80.2328	129.2871	159.6732	309.2084	345.2376	373.9842	525.2797	565.3407	582.23	640.4804	770.3831	787.1336	856.2907	879.0832	935.3258	950.2632	980.6537	999.6977	1048.0052	1066.1381	1120.1812	1208.2698	1280.9634	1308.5343	1395.8551	1412.9777	1476.5568	1478.5676	1506.7869	1565.6978	1649.587	1742.123	3036.4162	3096.0238	3147.5497	3255.7786	3511.2141	3646.7354
CC(=N)NC1=NC=NO1	CC(=N)Nc1ncno1	
InChI=1S/C4H6N4O/c1-3(5)8-4-6-2-7-9-4/h2H,1H3,(H2,5,6,7,8)	InChI=1S/C4H6N4O/c1-3(5)8-4-6-2-7-9-4/h2H,1H3,(H2,5,6,7,8)
