18
gdb 71934	2.82941	1.98941	1.48478	2.5252	75.2	-0.2077	0.0018	0.2094	913.4579	0.149826	-401.905104	-401.898322	-401.897378	-401.935746	28.608	
O	 0.1398135922	 1.4355849845	-0.0725342595	-0.487393
C	 0.0566691861	 0.0335769946	-0.0176183285	 0.38976
C	 0.229472747	-0.6241625148	-1.4200077558	-0.210689
N	-1.0444461907	-1.4048112181	-1.2793105861	-0.134089
C	-0.8941473766	-2.6870532265	-0.5189132324	-0.174106
C	-1.0900589904	-1.9692373921	 0.8655038464	-0.095297
C	 0.1970436771	-1.6851544741	 1.5972481598	-0.078239
C	 0.8303294503	-0.618563143	 1.1032126475	-0.18409
C	-1.3297759754	-0.6886283326	 0.0201627357	-0.071615
H	 0.0169595901	 1.7772120866	 0.8201310627	 0.274794
H	 0.133996721	 0.1132007253	-2.2227727	 0.116408
H	 1.1314622992	-1.222512831	-1.5799780448	 0.100177
H	-1.7072874804	-3.3743153451	-0.7726068549	 0.10696
H	 0.0616742919	-3.2013271183	-0.6622209154	 0.100594
H	-1.8958789622	-2.3637664705	 1.4881812984	 0.071671
H	 0.5839435214	-2.3360976987	 2.3740846525	 0.101199
H	 1.8081265831	-0.257340837	 1.4043174568	 0.100613
H	-2.2450960336	-0.0996367592	 0.1112170174	 0.07334
195.8144	255.0017	308.2297	349.099	377.0769	426.7137	525.1313	572.4044	659.8251	698.013	780.7635	794.3541	811.0522	836.0828	875.7442	922.5203	955.6681	961.6359	971.1449	979.0508	1008.9385	1021.4105	1065.1497	1089.6128	1158.8993	1169.5936	1191.8876	1203.9764	1214.5411	1232.8994	1255.036	1282.1789	1305.0792	1317.9135	1357.7935	1379.3409	1484.2358	1497.6458	1662.0227	3034.521	3042.8765	3076.0173	3086.8779	3092.3534	3099.815	3178.6123	3203.1132	3798.1798
OC12CN3CC(C=C1)C23	O[C@@]12CN3C[C@@H](C=C1)[C@@H]23	
InChI=1S/C7H9NO/c9-7-2-1-5-3-8(4-7)6(5)7/h1-2,5-6,9H,3-4H2	InChI=1S/C7H9NO/c9-7-2-1-5-3-8(4-7)6(5)7/h1-2,5-6,9H,3-4H2/t5-,6+,7-/m1/s1
