24
gdb 118164	2.08468	0.7845	0.60094	2.7684	91.79	-0.2469	0.0237	0.2706	1963.4177	0.214108	-405.555827	-405.544064	-405.54312	-405.594243	40.649	
C	-0.0409783861	 1.6609752431	 0.0398343806	-0.378716
C	 0.0111493758	 0.132506758	-0.0338844699	-0.173734
C	-1.3770211569	-0.5134747077	-0.0192209701	-0.1459
C	-1.3564558673	-2.0504084963	-0.0689194676	 0.036473
C	-2.771409355	-2.6278809385	 0.0625559812	-0.382526
N	-0.7851331749	-2.4918609362	-1.3344161013	-0.209418
C	 0.2122835872	-3.2561194304	-1.2970129254	 0.126911
O	 0.7707087425	-3.7190403814	-2.4343514385	-0.194411
C	 1.9191635844	-4.5393484536	-2.2640812211	-0.24924
H	 0.9631473152	 2.0968080475	 0.027035449	 0.107709
H	-0.5948608179	 2.0782035355	-0.8084818534	 0.115395
H	-0.5389144712	 1.9990917413	 0.9557657742	 0.109844
H	 0.5387387398	-0.1746508204	-0.943949837	 0.108805
H	 0.5999127583	-0.2548364133	 0.8095274538	 0.082876
H	-1.9149875188	-0.2059315161	 0.8873993787	 0.084351
H	-1.9616642493	-0.1492441188	-0.8736728434	 0.101528
H	-0.7529762267	-2.413185044	 0.7851679799	 0.050221
H	-2.7474104052	-3.7216382297	 0.049437225	 0.108688
H	-3.2366757465	-2.3037905296	 0.9991448449	 0.106797
H	-3.3964207201	-2.2948463065	-0.7716772048	 0.125752
H	 0.7002195879	-3.6091107553	-0.3738458317	 0.070454
H	 2.2193337467	-4.8594934151	-3.2625291118	 0.145897
H	 2.7454442441	-3.9846955634	-1.8025041727	 0.126543
H	 1.6961924342	-5.4252537591	-1.6565392086	 0.1257
39.7252	63.8428	75.5426	110.3589	143.7503	163.718	179.1686	233.6699	238.8283	248.8594	313.7805	348.5258	390.4532	494.7079	522.9091	581.0166	748.2154	858.1105	874.7838	907.8802	967.1431	987.1189	1010.7705	1044.5562	1058.8256	1068.009	1130.339	1153.9965	1176.7487	1184.7052	1185.9305	1263.4997	1277.5985	1297.1932	1328.5948	1354.7401	1368.883	1393.1495	1404.9384	1411.9962	1418.6806	1473.4337	1484.1131	1487.9803	1493.2219	1494.8979	1498.6044	1500.1032	1501.3342	1510.2592	1769.9787	2909.8798	2980.5869	3009.2902	3013.3182	3015.6311	3027.3876	3035.4425	3050.873	3067.7546	3074.0249	3095.5039	3098.5082	3107.9326	3113.4283	3143.635
CCCC(C)N=COC	CCC[C@@H](C)N=COC	
InChI=1S/C7H15NO/c1-4-5-7(2)8-6-9-3/h6-7H,4-5H2,1-3H3	InChI=1S/C7H15NO/c1-4-5-7(2)8-6-9-3/h6-7H,4-5H2,1-3H3/t7-/m1/s1
