19
gdb 84170	2.94198	1.34422	0.93882	3.3003	81.66	-0.1977	0.0174	0.2151	1252.9557	0.160142	-419.268841	-419.259418	-419.258474	-419.30404	33.528	
C	-0.0324691274	 1.5080774029	 0.0375044645	-0.352002
N	 0.0081126633	 0.0562473087	 0.0098178478	-0.154958
C	-1.1805723801	-0.6726213051	 0.0262144372	-0.040454
C	-1.2516491342	-2.0054830865	 0.0037021439	 0.208199
C	-2.5466624244	-2.7589141631	 0.0224225996	-0.472687
C	 0.0141053402	-2.8153281918	-0.0425468346	-0.230324
N	 1.184957879	-1.9530511974	-0.0573555602	-0.378271
C	 1.2419989736	-0.5846673978	-0.0332113923	 0.485018
O	 2.3024292694	 0.0190191574	-0.0488040429	-0.424017
H	 0.995725118	 1.865152335	 0.018639964	 0.173984
H	-0.5693218466	 1.9032281234	-0.8329654133	 0.122771
H	-0.5252948287	 1.870439748	 0.9473812487	 0.122769
H	-2.0753590297	-0.0599855351	 0.0597598817	 0.103966
H	-3.4031039081	-2.0802363995	 0.0565423551	 0.122933
H	-2.6562458399	-3.3946967217	-0.8668693715	 0.122528
H	-2.6118950638	-3.4271503443	 0.8920636214	 0.12252
H	 0.0547594499	-3.4979992197	 0.824024551	 0.107991
H	 0.0102251021	-3.4673075444	-0.9333236129	 0.108019
H	 2.0982843075	-2.375836379	-0.087876397	 0.252016
35.5363	84.8287	103.702	145.4325	204.8806	276.0686	302.1663	367.7793	442.5258	448.3129	503.7371	515.1045	599.1279	685.0951	755.2873	818.0271	878.3079	905.1744	1017.8979	1020.5876	1064.9695	1090.5211	1105.5279	1159.951	1170.6787	1240.6126	1282.8741	1291.9239	1342.4326	1398.0297	1422.9399	1431.7425	1454.8222	1475.5695	1495.6073	1500.8602	1501.4897	1520.0233	1538.5047	1767.5092	1787.5081	2941.8331	2944.1652	3004.8714	3019.4753	3044.0565	3069.1851	3109.6112	3171.5021	3185.1605	3650.6307
CN1C=C(C)CNC1=O	CN1C=C(C)CNC1=O	
InChI=1S/C6H10N2O/c1-5-3-7-6(9)8(2)4-5/h4H,3H2,1-2H3,(H,7,9)	InChI=1S/C6H10N2O/c1-5-3-7-6(9)8(2)4-5/h4H,3H2,1-2H3,(H,7,9)
