20
gdb 99977	2.6499	1.1313	0.97362	2.0788	74.91	-0.2511	0.0151	0.2661	1272.4856	0.170231	-436.461795	-436.451346	-436.450402	-436.496657	38.861	
C	-0.060362835	 1.5823497318	 0.095903793	-0.419878
C	-0.0588551042	 0.0538301416	-0.0013421972	 0.192406
N	 0.5536057207	-0.4882774273	 1.2208569784	-0.53924
C	-1.508047317	-0.4890778221	-0.0123977837	-0.061968
O	-2.1741520785	-0.1833357203	 1.1870103241	-0.423369
C	 0.6851830381	-0.4482435618	-1.2932921278	-0.165125
N	 0.1742992281	-0.033335418	-2.5979725364	-0.508784
C	 2.1101474655	-0.0851287709	-1.1990475712	 0.300428
N	 3.2166564555	 0.2270267674	-1.0810975868	-0.327823
H	 0.956590015	 1.9757926984	 0.1918900733	 0.133832
H	-0.5184063868	 2.0326592817	-0.7895113123	 0.112973
H	-0.6440705704	 1.8912222788	 0.9646404966	 0.144255
H	 0.7558557805	-1.4800535108	 1.1191834792	 0.234293
H	 1.4342244206	-0.0260036092	 1.424503953	 0.251155
H	-2.0838442292	-0.0410601089	-0.8286154619	 0.099804
H	-1.4752581958	-1.5810689906	-0.1888252486	 0.073459
H	-1.5126690514	-0.3370383626	 1.879414751	 0.288659
H	 0.6418240225	-1.5466276952	-1.2719067141	 0.123106
H	-0.7711573002	-0.3741516544	-2.7306444062	 0.246221
H	 0.1549748821	 0.9779484524	-2.6758194724	 0.245595
69.982	132.6925	140.0288	196.3429	229.1577	235.5873	268.9081	295.7362	310.7142	350.1936	359.3967	414.3091	452.7574	462.9761	581.8275	600.1165	664.4937	746.6263	833.7992	850.5056	886.5118	930.3891	969.7885	1010.3622	1057.7633	1097.5488	1120.9592	1152.5661	1191.7756	1208.7808	1266.6468	1270.9714	1358.2487	1380.4626	1404.3378	1416.7601	1452.3596	1492.0746	1501.5587	1512.0321	1653.924	1655.7951	2356.0159	2921.9854	3011.7898	3045.9194	3070.9282	3112.1467	3141.4426	3484.7892	3513.4925	3572.0133	3603.1471	3701.5427
CC(N)(CO)C(N)C#N	C[C@@](N)(CO)[C@@H](N)C#N	
InChI=1S/C5H11N3O/c1-5(8,3-9)4(7)2-6/h4,9H,3,7-8H2,1H3	InChI=1S/C5H11N3O/c1-5(8,3-9)4(7)2-6/h4,9H,3,7-8H2,1H3/t4-,5+/m0/s1
