15
gdb 66667	4.71511	1.19989	1.16197	3.8625	75.06	-0.2383	0.0013	0.2396	1069.7078	0.112245	-379.568784	-379.561499	-379.560554	-379.60042	28.002	
C	-0.0208687316	 1.5037234381	 0.0303365141	-0.523579
C	-0.0583722865	 0.0192027738	-0.0685375529	 0.360448
C	 0.5514437381	-0.9842176749	-1.0901411969	-0.222991
C	 0.8498195471	-1.8861156401	 0.0635670687	-0.060029
N	 0.2853258585	-0.9026851835	 1.0790218906	-0.208075
C	-1.0473451717	-0.9980251717	 0.3799663963	-0.190979
C	-0.4951150921	-2.0342244207	-0.6326380417	 0.292082
C	-1.0602635181	-3.1064002111	-1.3579701678	 0.124865
N	-1.5333097899	-3.9852569775	-1.9468491103	-0.355522
H	 1.0097323071	 1.873047064	 0.001949017	 0.136499
H	-0.5767075599	 1.9677094312	-0.7912980039	 0.133867
H	-0.4701878794	 1.8227902417	 0.9755383461	 0.144096
H	 0.9981252217	-0.8931826403	-2.0699499709	 0.12489
H	 1.6248979627	-2.6166551304	 0.2548038989	 0.128096
H	-1.992703396	-0.9249698686	 0.9030143027	 0.11633
125.312	151.2871	205.7735	272.4228	295.445	496.2172	518.3534	529.4876	623.4108	661.2489	740.628	756.0493	829.1547	859.0259	880.7726	916.0736	925.1393	984.7573	990.9877	1015.7409	1033.216	1081.6786	1105.9694	1138.9477	1187.1592	1254.9235	1269.2273	1392.599	1399.1291	1446.3802	1477.3	1489.8682	2337.4594	3033.9109	3100.5708	3115.176	3196.5171	3204.6176	3227.9241
CC12C3C4N1C2C34C#N	C[C@@]12[C@H]3[C@H]4N1[C@@H]2[C@@]34C#N	
InChI=1S/C7H6N2/c1-6-3-4-7(3,2-8)5(6)9(4)6/h3-5H,1H3	InChI=1S/C7H6N2/c1-6-3-4-7(3,2-8)5(6)9(4)6/h3-5H,1H3/t3-,4-,5+,6+,7+,9?/m1/s1
