18
gdb 22418	3.5913	1.12407	0.99158	1.5372	76.59	-0.2374	-0.0052	0.2323	1224.7141	0.145597	-438.977557	-438.968798	-438.967854	-439.011763	32.598	
C	-0.2245340035	 1.415299596	-0.0797076555	-0.496467
C	-0.1011290349	-0.0800166684	 0.0024659131	 0.202009
N	-0.0561784531	-0.7710206669	 1.0779171904	-0.168855
O	-0.0982198884	 0.0384598761	 2.2168556296	-0.39156
C	-0.0091032775	-0.858892156	-1.254103131	 0.404666
C	 1.0725584845	-0.7948907363	-2.3779255896	-0.258633
C	-0.1269548867	-1.6356544771	-2.8658836886	 0.041744
C	-0.164755619	-2.3748376672	-1.5072949314	-0.254146
O	-1.0402566219	-0.6086969401	-2.3080514462	-0.349081
H	 0.7387966855	 1.8952378667	 0.1287084896	 0.143107
H	-0.5563926382	 1.7111580224	-1.0761603897	 0.145569
H	-0.9321512588	 1.777186228	 0.6695623717	 0.151719
H	-0.0943387187	-0.6104387198	 2.9287595147	 0.309341
H	 1.1855532586	 0.1763816701	-2.8608030086	 0.107953
H	 2.0239563045	-1.3001422647	-2.1939535946	 0.100332
H	-0.3492626672	-2.0074897105	-3.8651407809	 0.098493
H	 0.6731905892	-3.0241554239	-1.2458948521	 0.100756
H	-1.1334161442	-2.7875156486	-1.2265298407	 0.113054
50.6529	69.0088	149.8295	154.326	284.2346	367.0633	402.0847	418.279	440.7105	524.6526	567.028	609.1194	726.1154	732.7229	805.1483	883.5306	916.3621	937.9422	950.8471	985.1878	992.8425	1029.0886	1051.005	1089.8897	1103.7476	1121.8528	1147.4947	1162.2105	1217.2773	1235.3884	1241.5012	1354.9928	1396.3355	1421.5357	1467.9021	1480.66	1484.2531	1517.6964	1720.0321	3042.358	3063.8018	3077.5739	3109.5839	3130.3497	3148.3185	3149.9367	3160.0882	3817.266
CC(=NO)C12CC(C1)O2	CC(=NO)[C@@]12C[C@@H](C1)O2	
InChI=1S/C6H9NO2/c1-4(7-8)6-2-5(3-6)9-6/h5,8H,2-3H2,1H3	InChI=1S/C6H9NO2/c1-4(7-8)6-2-5(3-6)9-6/h5,8H,2-3H2,1H3/t5-,6+
