19
gdb 82122	3.38222	1.21082	1.03629	1.3586	80.36	-0.2477	0.0499	0.2976	1188.3195	0.158575	-385.823852	-385.815222	-385.814278	-385.857042	33.609	
O	 0.0340691541	 1.3975479983	 0.0458786409	-0.434975
C	 0.0298316396	-0.0086418364	-0.0513522517	 0.09948
C	-1.3577673838	-0.6284286548	 0.0719222837	-0.047758
C	-2.2414551337	-0.1419966952	-1.039085502	-0.282819
C	-1.2376838753	-1.2195210259	-1.3413507509	-0.082671
C	 0.175125376	-0.6455162207	-1.4878665582	-0.028175
C	 0.481669348	 0.2980916703	-2.661867541	-0.366403
C	 1.7701660578	 0.9648025712	-2.4946820425	 0.288241
C	 2.8313891957	 1.4989981894	-2.3018763391	-0.456349
H	 0.9046755047	 1.7052392546	-0.2351277058	 0.287702
H	 0.7458835302	-0.4568353277	 0.6494113615	 0.06855
H	-1.7572304777	-1.084567496	 0.9688163846	 0.085799
H	-3.2708690913	-0.4812313757	-0.9864702322	 0.111251
H	-2.1256672083	 0.8682717534	-1.4175750606	 0.123418
H	-1.5436187027	-2.201656961	-1.6811951155	 0.085639
H	 0.9295167965	-1.436763998	-1.4634775089	 0.080456
H	 0.477493577	-0.2696495482	-3.600816379	 0.12989
H	-0.3037015352	 1.0556094131	-2.7515069727	 0.139932
H	 3.7721916486	 1.9731287695	-2.1681920307	 0.198794
77.7365	108.4744	166.4798	232.35	273.2697	346.4189	382.1337	438.7598	460.0634	547.1654	608.2848	622.5554	642.0421	681.7275	782.5478	803.0044	825.7086	909.5818	943.6579	948.1249	981.1823	999.9137	1030.2923	1058.158	1067.4515	1084.1952	1109.8362	1130.0221	1165.7037	1212.9036	1235.2143	1257.1619	1284.8043	1308.3515	1339.576	1369.2004	1378.5677	1423.9991	1464.7313	1493.713	2227.2574	3012.3194	3031.4164	3063.9289	3082.1528	3128.9424	3178.3685	3191.5647	3212.3457	3503.7671	3779.3296
OC1C2CC2C1CC#C	O[C@H]1[C@H]2C[C@H]2[C@H]1CC#C	
InChI=1S/C8H10O/c1-2-3-5-6-4-7(6)8(5)9/h1,5-9H,3-4H2	InChI=1S/C8H10O/c1-2-3-5-6-4-7(6)8(5)9/h1,5-9H,3-4H2/t5-,6+,7+,8-/m1/s1
