19
gdb 8404	3.758	1.61554	1.41679	1.6741	70.95	-0.224	0.0601	0.2841	952.7591	0.165609	-364.979701	-364.97177	-364.970825	-365.012081	30.31	
C	 0.0233381677	 1.5491023806	 0.0483704742	-0.410035
C	-0.0242806639	 0.0205596459	 0.0310917103	-0.020615
O	 0.7198893911	-0.5437593151	 1.1102844835	-0.427113
C	-1.4400673552	-0.5189314916	 0.0265888102	 0.325728
C	-2.5911232721	-0.3023191261	-0.98595264	-0.218728
N	-3.2497767382	-1.2400072232	 0.0419623972	-0.144746
C	-1.9059234379	-1.9925155226	 0.0056413932	-0.208177
C	-2.5615610004	-0.3470401443	 1.0891909613	-0.22117
H	 1.0604780541	 1.8934002382	 0.0683016595	 0.127152
H	-0.4677508628	 1.9712990222	-0.8343604713	 0.120814
H	-0.4867939374	 1.944692446	 0.9353265968	 0.10931
H	 0.484975393	-0.3442188091	-0.8702948817	 0.089749
H	 0.3218942533	-0.2319424853	 1.9308683037	 0.278064
H	-3.0601040529	 0.684567511	-1.037008093	 0.099289
H	-2.4921720029	-0.7475050661	-1.980248539	 0.100498
H	-1.7542869361	-2.567275999	-0.9125481285	 0.098634
H	-1.7213486647	-2.6028162269	 0.892954001	 0.103698
H	-2.4368216523	-0.8380048642	 2.0590787373	 0.098112
H	-3.0308507522	 0.6350787595	 1.1973067753	 0.099536
57.0207	162.7436	190.8925	247.524	265.8705	331.9552	426.9547	482.0471	578.0367	593.7277	646.7491	790.5416	799.0422	861.8735	912.6792	934.2817	957.7713	973.3168	996.9706	1024.2296	1037.7322	1079.1413	1100.0493	1146.4686	1165.3259	1167.0898	1175.4622	1196.3153	1200.0931	1268.1565	1295.7028	1320.7292	1369.4695	1400.882	1416.8667	1491.3385	1494.9702	1507.7217	1512.7673	1563.4212	3025.5638	3031.8737	3039.7667	3044.2459	3055.4887	3095.8913	3106.1242	3111.5693	3120.8504	3121.7604	3796.905
CC(O)C12CN(C1)C2	C[C@@H](O)[C@@]12CN(C1)C2	
InChI=1S/C6H11NO/c1-5(8)6-2-7(3-6)4-6/h5,8H,2-4H2,1H3	InChI=1S/C6H11NO/c1-5(8)6-2-7(3-6)4-6/h5,8H,2-4H2,1H3/t5-/m1/s1
