16
gdb 87325	2.05338	1.34574	0.958	3.9516	70.19	-0.2687	-0.0427	0.226	1219.2586	0.121715	-437.89076	-437.881438	-437.880494	-437.925764	32.783	
O	-0.1675553275	 1.2581414179	 0.0683321438	-0.4161
C	-0.1550227774	-0.1274828717	 0.1998697831	 0.07276
C	-0.8976948331	-0.7881095618	 1.3052259301	-0.348525
C	-1.4763998852	-0.8463817441	-0.1077863044	 0.210377
C	-2.6874026558	 0.0048082017	-0.4606737506	-0.451366
C	-3.9070256793	-0.4188818665	 0.2286194928	 0.267791
N	-4.8616956474	-0.7615326491	 0.7821330057	-0.305118
C	-1.3270085855	-2.1458683518	-0.8194887019	 0.097116
O	-0.4387004723	-2.933160248	-0.5979056771	-0.264275
H	 0.2557056079	 1.6411612181	 0.8438558127	 0.302406
H	 0.7298614001	-0.6293816848	-0.1869404093	 0.127475
H	-0.5105319609	-1.7226986852	 1.695072883	 0.152157
H	-1.4285720731	-0.1561104819	 2.0095921825	 0.135875
H	-2.4780288882	 1.0494440103	-0.2137901118	 0.17556
H	-2.8684766314	-0.0287914126	-1.5419475988	 0.15628
H	-2.0922984109	-2.3457679806	-1.6016722998	 0.087587
35.2488	106.4373	132.1115	192.7428	209.0938	235.0812	269.6702	339.121	384.7487	431.4165	459.0112	559.9829	663.4976	739.46	800.7398	878.7046	910.9231	941.9006	966.6721	1014.4036	1060.3499	1080.6581	1116.9952	1170.3087	1208.7542	1268.7956	1301.8929	1324.2119	1343.3875	1402.4706	1431.9148	1456.3343	1469.6017	1807.8642	2362.59	2890.5003	3043.8913	3099.66	3131.4643	3136.1504	3235.4054	3812.602
OC1CC1(CC#N)C=O	O[C@H]1C[C@]1(CC#N)C=O	
InChI=1S/C6H7NO2/c7-2-1-6(4-8)3-5(6)9/h4-5,9H,1,3H2	InChI=1S/C6H7NO2/c7-2-1-6(4-8)3-5(6)9/h4-5,9H,1,3H2/t5-,6+/m0/s1
