12
gdb 20679	3.29098	1.026	0.80772	3.7579	57.93	-0.2506	-0.0521	0.1985	1312.8685	0.076914	-414.720727	-414.709837	-414.708893	-414.763346	30.588	
C	-0.048109599	 1.9482511265	-0.1360221616	-0.474746
C	 0.1317581557	 0.4526260528	 0.045534231	-0.190675
C	 0.2712612098	-0.451824119	-1.1000539942	 0.121818
O	 0.4153977646	-1.654429031	-1.0598345738	-0.292341
N	-0.4026285872	-4.6317674293	 0.5450461739	-0.004463
N	-0.7193859839	-3.6923207262	 1.0183245768	-0.000787
C	 0.1714217264	-0.0947669305	 1.2547391575	 0.51344
O	 0.2092782529	-0.5755740169	 2.3040392529	-0.188306
H	 0.7950851026	 2.3770053651	-0.6875172322	 0.14709
H	-0.9656640395	 2.1673395212	-0.6920294438	 0.147286
H	-0.1118170188	 2.4645498423	 0.8240655251	 0.142694
H	 0.2334221964	 0.094583895	-2.0691073016	 0.07899
7.3003	13.225	39.2516	46.8657	50.0462	79.5673	144.4623	186.6814	250.3599	263.9374	506.0317	599.9486	697.0205	813.1852	1000.8231	1002.4343	1071.4749	1212.7787	1376.8514	1414.5131	1436.582	1483.3692	1503.4935	1763.921	2227.2286	2432.3046	2879.9761	3035.4331	3094.4974	3127.8815	7.3001	13.2294	39.2525	46.8662	50.0446	79.5681	144.4627	186.6814	250.3601	263.9375	506.0318	599.9486	697.0206	813.1855	1000.8241	1002.4346	1071.4756	1212.7787	1376.8518	1414.5135	1436.5832	1483.3697	1503.4941	1763.9221	2227.229	2432.3046	2879.9766	3035.4331	3094.4973	3127.8815
CC1=CON=NC1=O	C[C](C=O)[C][O].N#N	
InChI=1S/C4H4N2O2/c1-3-2-8-6-5-4(3)7/h2H,1H3	InChI=1S/C4H4O2.N2/c1-4(2-5)3-6;1-2/h2H,1H3;
