17
gdb 56622	1.97326	1.36376	1.01517	2.5251	78.33	-0.2501	-0.0251	0.225	1231.2676	0.135873	-414.205416	-414.195878	-414.194934	-414.240486	33.469	
C	-0.3564609994	 1.5121223727	-0.2125587789	-0.392003
C	-0.2584610908	-0.0025097657	 0.0409765687	-0.120586
C	 0.6340717354	-0.2986597587	 1.1707443253	 0.277973
N	 1.3460389118	-0.5020322483	 2.0577921722	-0.321166
N	-1.5714234388	-0.629760041	 0.2303513506	-0.064304
C	-2.1829550472	-1.2110035524	-0.8738090367	 0.098134
N	-1.6213492995	-1.2036068897	-2.015588788	-0.477925
C	-2.2282947109	-0.5572190038	 1.4558985307	 0.09698
N	-3.4199845471	-0.9669060782	 1.6155843707	-0.473557
H	 0.6373692247	 1.9315637963	-0.3884867556	 0.144269
H	-0.9733866084	 1.680041705	-1.097632912	 0.153626
H	-0.8045450361	 2.0263208976	 0.6416583799	 0.135424
H	 0.1574380293	-0.4777122997	-0.8528636939	 0.180975
H	-3.1507191522	-1.6404404733	-0.6152352606	 0.157474
H	-2.1977002324	-1.6902485017	-2.6981460313	 0.237165
H	-1.5933137817	-0.1276665221	 2.2359655893	 0.130049
H	-3.7068657468	-0.8539423369	 2.5846406995	 0.237471
39.8697	96.7164	156.3652	186.9068	216.1311	220.513	241.0707	273.6389	339.002	421.4634	480.7748	572.9826	638.7498	685.9809	788.6771	803.2269	825.6488	892.1274	1007.1268	1054.251	1077.6398	1087.1914	1122.2711	1139.0756	1178.2297	1282.9288	1337.6775	1349.1708	1391.4366	1407.6709	1432.3662	1442.3884	1491.4744	1493.108	1703.0139	1727.2766	2359.6194	3053.0904	3074.4741	3086.0726	3132.298	3143.3705	3144.4413	3519.3325	3524.3065
CC(C#N)N(C=N)C=N	C[C@@H](C#N)N(C=N)C=N	
InChI=1S/C5H8N4/c1-5(2-6)9(3-7)4-8/h3-5,7-8H,1H3	InChI=1S/C5H8N4/c1-5(2-6)9(3-7)4-8/h3-5,7-8H,1H3/t5-/m0/s1
