25
gdb 59630	3.16052	0.96304	0.77609	0.3092	96.56	-0.224	0.0336	0.2575	1589.2967	0.228488	-352.389272	-352.37902	-352.378076	-352.424275	38.968	
C	-0.002223404	 1.5744025638	 0.0213567804	-0.388243
C	 0.0447695926	 0.0397416859	 0.0640581649	 0.035591
C	 0.8108281375	-0.4263290595	 1.3105133249	-0.394397
C	-1.3750052014	-0.5661196105	-0.0034039739	 0.011676
C	-2.174597929	-0.1667067545	-1.2764046421	-0.231441
C	-3.0355000819	-1.3977712533	-1.6395521637	-0.309028
C	-2.3282735908	-2.5397375366	-0.9396965767	 0.3239
C	-2.6774484876	-3.9678392992	-1.2173330834	-0.489106
C	-1.4395620611	-2.0787297315	-0.0570050296	-0.182858
H	 1.0070851335	 1.9980070826	 0.0547028718	 0.106271
H	-0.4889159329	 1.9455461713	-0.885200895	 0.113358
H	-0.5552393838	 1.9699520543	 0.8823552425	 0.108603
H	 0.5914809289	-0.3112204492	-0.8236341529	 0.066794
H	 0.2826486993	-0.1331229282	 2.2261815808	 0.109568
H	 0.9413515862	-1.5118239002	 1.3337213768	 0.112824
H	 1.8075998659	 0.026022618	 1.3471774563	 0.106978
H	-1.9109165941	-0.2168850722	 0.8963676887	 0.065368
H	-2.7667948103	 0.7417914755	-1.1412020378	 0.09424
H	-1.4657487327	 0.0280572629	-2.0898855211	 0.099188
H	-4.0657748233	-1.3035907912	-1.2650571596	 0.099747
H	-3.1212468197	-1.5505530571	-2.7225485405	 0.095328
H	-2.5140336374	-4.2176396747	-2.2737193128	 0.121977
H	-2.0845529451	-4.6565751203	-0.6091050145	 0.119985
H	-3.7388111045	-4.1636388744	-1.0153185478	 0.122275
H	-0.8501821343	-2.714002962	 0.5957949943	 0.081403
68.8305	91.9481	157.9968	182.9558	208.9887	224.9287	244.6863	306.5156	334.3228	365.3892	423.0394	440.6358	478.3595	589.5638	645.5897	828.9991	836.4065	860.9225	884.3634	898.825	928.0469	962.1408	973.2372	986.8518	997.6075	1034.4896	1047.9211	1072.9475	1135.5137	1140.6272	1177.9719	1191.8468	1200.731	1248.0721	1283.2571	1286.297	1307.3274	1330.3061	1351.4226	1361.573	1378.8922	1400.326	1414.2144	1421.5695	1479.599	1482.2603	1488.0203	1489.4205	1492.6931	1499.3849	1505.2738	1513.0641	1722.0578	2945.4016	2996.2062	2996.9956	3013.685	3023.52	3028.4446	3030.4649	3046.1802	3057.6431	3085.4827	3091.935	3094.8229	3105.2684	3106.9363	3107.4055	3185.8384
CC(C)C1CCC(C)=C1	CC(C)[C@H]1CCC(=C1)C	
InChI=1S/C9H16/c1-7(2)9-5-4-8(3)6-9/h6-7,9H,4-5H2,1-3H3	InChI=1S/C9H16/c1-7(2)9-5-4-8(3)6-9/h6-7,9H,4-5H2,1-3H3/t9-/m0/s1
