16
gdb 68154	2.64639	1.78483	1.27797	5.1414	69.26	-0.2258	-0.0789	0.1469	985.3181	0.123963	-437.877116	-437.869316	-437.868372	-437.909265	29.718	
C	 0.0170058946	 1.5413535132	 0.0402917224	-0.504195
C	 0.0297208431	 0.0418516703	-0.0159059898	 0.18399
C	 0.6154625452	-0.8110755988	-1.1871398966	-0.291393
C	 0.7248736163	-1.8712257584	-0.0576406711	-0.132893
N	 0.8912869279	-0.7573358204	 0.9640112421	-0.367977
C	-0.7449073311	-2.1790450654	 0.226641683	 0.385938
O	-1.3322262292	-3.2116124306	 0.3567711553	-0.29625
C	-1.2810367778	-0.7048100942	 0.2605914006	 0.347444
O	-2.3907697079	-0.2909643929	 0.4263825009	-0.304173
H	 1.0011175625	 1.9589287977	-0.1947209106	 0.117747
H	-0.7080366483	 1.9399126251	-0.6756449572	 0.143831
H	-0.2782911473	 1.8802008519	 1.0376673933	 0.148824
H	-0.002314108	-1.0195614926	-2.0682755985	 0.120697
H	 1.598751001	-0.440422433	-1.4928786616	 0.117767
H	 1.4268767122	-2.7015630297	-0.0585672483	 0.101886
H	 1.8465804468	-0.4048241922	 0.8743670759	 0.228758
106.3769	164.6689	219.5582	231.7076	290.5982	311.9674	456.2198	519.9078	524.1752	539.1865	666.5882	697.377	770.219	843.0219	845.978	878.8039	938.6402	957.1293	974.2572	1002.8367	1030.7333	1091.1359	1122.0216	1160.6239	1217.1698	1238.8026	1262.2382	1323.4194	1377.1895	1418.7248	1481.7925	1486.9714	1491.5449	1881.3086	1902.9727	3032.0622	3040.8442	3097.8585	3112.2536	3119.7945	3155.3107	3429.6873
CC12CC(N1)C(=O)C2=O	C[C@@]12C[C@@H](N1)C(=O)C2=O	
InChI=1S/C6H7NO2/c1-6-2-3(7-6)4(8)5(6)9/h3,7H,2H2,1H3	InChI=1S/C6H7NO2/c1-6-2-3(7-6)4(8)5(6)9/h3,7H,2H2,1H3/t3-,6+/m1/s1
