21
gdb 58047	2.18014	1.34805	0.92462	3.2002	82.55	-0.255	0.0259	0.2808	1324.7558	0.182132	-383.264183	-383.254232	-383.253288	-383.299433	36.328	
C	 0.0555891139	 1.502840954	-0.1181049278	-0.408991
C	-0.0151530444	-0.0272018549	-0.0257378766	 0.044066
C	 0.8290259819	-0.5350564685	 1.1507007814	-0.411849
C	-1.4950708591	-0.5140980438	 0.0835469006	-0.169612
C	-2.2785804896	-0.0067802077	-1.0485108193	 0.276365
N	-2.8834107436	 0.3643113917	-1.9615720107	-0.345434
C	-1.6310583271	-2.0349911368	 0.1850719964	 0.007257
C	-2.8073571049	-2.7739790118	-0.3312677284	-0.257329
N	-1.4920776621	-2.9023835758	-0.9906936952	-0.319695
H	 1.0933014167	 1.8288889753	-0.2350978596	 0.120408
H	-0.5164018712	 1.887742264	-0.9665105441	 0.143427
H	-0.3372079619	 1.9684321384	 0.793830698	 0.116288
H	 0.3932941568	-0.4508597728	-0.9519300932	 0.097262
H	 0.4071477478	-0.2103257385	 2.1096542269	 0.115981
H	 0.9144453626	-1.624064197	 1.1658138225	 0.13344
H	 1.8422647897	-0.1277883273	 1.083639585	 0.122553
H	-1.9238137154	-0.076273027	 0.996965854	 0.126791
H	-1.1433862814	-2.432430068	 1.0705901443	 0.106367
H	-3.1484757843	-3.6650166258	 0.1875324234	 0.12157
H	-3.5844453592	-2.2129328378	-0.8415009548	 0.139254
H	-1.4928222651	-2.3397173499	-1.8401656128	 0.241881
51.7733	72.6139	150.3284	172.2757	193.1271	234.3085	246.2776	332.3642	351.263	399.9672	422.8307	443.0111	549.857	643.8486	773.3698	842.6836	855.9702	897.4786	934.5395	951.6135	961.6322	974.6146	993.9495	1048.4833	1122.1227	1130.2808	1150.5111	1164.0119	1186.9913	1202.4998	1259.2773	1275.8452	1310.3862	1324.5509	1348.9892	1365.3241	1401.6864	1412.2287	1426.7187	1487.149	1495.6117	1503.9145	1511.8002	1515.7643	2349.5988	3006.384	3028.5628	3030.2426	3038.2249	3096.8823	3103.343	3117.7991	3119.607	3122.2658	3150.4916	3206.8784	3482.53
CC(C)C(C#N)C1CN1	CC(C)[C@@H](C#N)[C@H]1CN1	
InChI=1S/C7H12N2/c1-5(2)6(3-8)7-4-9-7/h5-7,9H,4H2,1-2H3	InChI=1S/C7H12N2/c1-5(2)6(3-8)7-4-9-7/h5-7,9H,4H2,1-2H3/t6-,7-/m1/s1
