23
gdb 95751	2.36652	1.3163	1.05435	1.9647	81.4	-0.2541	0.0638	0.318	1260.3636	0.205805	-425.454197	-425.444694	-425.44375	-425.487493	37.935	
C	-0.0134122553	 1.5427452248	 0.0213554968	-0.431213
C	-0.0036862828	 0.0112257165	-0.0042625439	 0.339893
O	-1.3537287163	-0.4786077748	 0.0507570818	-0.463566
C	 0.6951950986	-0.5182412584	-1.2734694081	-0.212121
C	 0.7749994163	-2.0498491494	-1.2923282758	-0.209517
C	 1.4699449093	-2.5775319103	-0.0293172163	-0.216783
C	 0.7727525065	-2.0761334934	 1.240460882	 0.115962
O	 1.4840446139	-2.4461815847	 2.4188591283	-0.442022
C	 0.6823239848	-0.5506753733	 1.2501860518	-0.185184
H	 1.0028828707	 1.9494970631	 0.0278104302	 0.114974
H	-0.5250171712	 1.9414416156	-0.8634083961	 0.098838
H	-0.538517814	 1.9037101325	 0.9104306905	 0.121977
H	-1.8245994767	-0.124936117	-0.7116781806	 0.273501
H	 0.158421726	-0.1501704211	-2.1582842885	 0.076459
H	 1.7055417745	-0.0916540855	-1.3255119468	 0.093826
H	-0.2408411418	-2.4575567959	-1.3476627182	 0.103425
H	 1.3047830946	-2.3892701344	-2.1888472376	 0.089425
H	 1.4895799065	-3.6753080692	-0.0343947303	 0.077291
H	 2.515310629	-2.2412866958	-0.0017983034	 0.095973
H	-0.2490316784	-2.4827777899	 1.2695083941	 0.08064
H	 1.5154907376	-3.4075070312	 2.4528896483	 0.276184
H	 1.6982319428	-0.1438677293	 1.3199635282	 0.096744
H	 0.1369215453	-0.2236967991	 2.1408720633	 0.105295
138.6257	143.1199	246.1996	256.7826	268.2749	278.9565	291.4835	329.9448	344.4386	409.1695	415.6757	459.9621	493.827	506.8911	573.2614	742.0811	827.5553	867.9393	889.9553	896.4425	926.0673	967.7503	982.307	1033.0512	1048.3495	1068.8783	1080.5593	1108.6082	1125.1205	1169.2614	1205.1776	1214.5245	1251.7583	1281.4498	1305.0401	1320.4706	1343.7903	1371.5366	1378.1621	1394.1304	1403.2096	1408.6673	1436.1413	1472.8796	1479.8904	1487.2919	1492.2146	1495.8303	1500.7135	2992.8422	3008.9093	3010.6955	3023.8513	3033.9149	3040.8925	3047.8292	3053.4768	3079.6208	3089.163	3091.6472	3115.0979	3801.1054	3815.5692
CC1(O)CCCC(O)C1	C[C@@]1(O)CCC[C@@H](O)C1	
InChI=1S/C7H14O2/c1-7(9)4-2-3-6(8)5-7/h6,8-9H,2-5H2,1H3	InChI=1S/C7H14O2/c1-7(9)4-2-3-6(8)5-7/h6,8-9H,2-5H2,1H3/t6-,7-/m1/s1
