19
gdb 64098	3.29025	1.24106	1.14507	5.8474	71.56	-0.2779	0.0394	0.3172	1144.8929	0.158818	-460.216736	-460.207856	-460.206912	-460.250256	33.036	
C	-0.1548456065	 1.5375171202	 0.0112479057	-0.433056
C	-0.0109426486	 0.0096457931	 0.002581313	 0.178484
C	-1.3950163041	-0.6613273295	 0.004998465	-0.420765
C	 0.8091310216	-0.4217625715	-1.2118924112	-0.070979
O	 1.1509479657	-1.8152613837	-1.1730191082	-0.263123
C	 1.3896855425	-2.4714608644	-0.0165467486	 0.467964
O	 1.7571856455	-3.6075599397	-0.0241163977	-0.361047
O	 1.1611209779	-1.827445927	 1.1487949413	-0.263133
C	 0.8195215052	-0.4344938836	 1.2053496943	-0.07097
H	 0.820335648	 2.0358496841	 0.0096300644	 0.121299
H	-0.7105453909	 1.8800981625	-0.8676024635	 0.127095
H	-0.7028668223	 1.8708072817	 0.898452742	 0.127095
H	-1.9695549299	-0.3573078434	-0.875865662	 0.12046
H	-1.3251130007	-1.7517128845	-0.0009819024	 0.146066
H	-1.9619836815	-0.3665283506	 0.8938664332	 0.120459
H	 0.2570981683	-0.2873021512	-2.1462259302	 0.124283
H	 1.7368127658	 0.1618489263	-1.275911201	 0.112792
H	 1.7476760485	 0.1485527702	 1.2676213167	 0.112793
H	 0.2754883553	-0.3100360088	 2.1457426991	 0.124283
88.8443	96.5085	195.0497	222.989	224.8232	268.0814	326.6499	362.6371	407.2438	469.4928	485.2661	590.4214	702.3264	764.9432	811.138	821.4768	920.8375	945.5926	949.5475	959.1293	1034.3945	1049.5571	1063.635	1154.763	1165.8694	1207.3592	1239.9361	1246.6341	1306.0001	1335.5594	1403.6484	1407.6032	1421.5503	1439.7878	1484.8189	1487.3873	1504.6036	1505.4291	1510.4992	1519.4746	1878.9765	3016.7834	3023.1957	3032.5063	3041.2129	3089.2956	3091.9379	3102.502	3103.0911	3107.4536	3124.6603
CC1(C)COC(=O)OC1	CC1(C)COC(=O)OC1	
InChI=1S/C6H10O3/c1-6(2)3-8-5(7)9-4-6/h3-4H2,1-2H3	InChI=1S/C6H10O3/c1-6(2)3-8-5(7)9-4-6/h3-4H2,1-2H3
