21
gdb 89591	4.10187	0.91556	0.86872	0.7806	88.55	-0.2474	0.0537	0.3012	1428.0493	0.181193	-349.898229	-349.888958	-349.888014	-349.932312	35.665	
C	-0.1757937194	 1.5990953469	 0.1629321266	-0.403692
C	 0.020353548	 0.0892166149	 0.1009319382	 0.041616
C	 1.0127481032	-0.5122727005	-0.9566755804	-0.311182
C	 1.7545161959	-1.2403772896	 0.1740611223	 0.396037
C	 2.2799288478	-2.6551908744	 0.0829805847	-0.47715
C	 3.4556991272	-2.7686041663	-0.7784971305	 0.318555
C	 4.4166081261	-2.8368880424	-1.4973686796	-0.461268
C	 2.2835107108	-0.2313385945	 1.1500956085	-0.317508
C	 0.823965556	-0.6074569843	 1.2122510227	-0.136441
H	 0.7763757238	 2.1270092786	 0.2786595834	 0.114721
H	-0.6506332524	 1.9700050382	-0.7522721471	 0.112999
H	-0.8156475505	 1.8788691538	 1.0073034891	 0.113126
H	-0.9549214049	-0.396431922	-0.0061104443	 0.072692
H	 0.5197960027	-1.1874764785	-1.6608165429	 0.100234
H	 1.6118414126	 0.2054289423	-1.5269810667	 0.096849
H	 2.5277669943	-3.0186092334	 1.088903462	 0.127182
H	 1.4918525942	-3.3209932479	-0.2956125327	 0.1264
H	 5.2680427434	-2.9053197903	-2.1277227303	 0.193735
H	 2.8922844516	-0.6370398412	 1.9527579747	 0.10902
H	 2.6002397193	 0.7535788005	 0.8154523379	 0.105135
H	 0.3986795503	-1.0520348601	 2.1056812743	 0.078939
59.1439	87.7237	164.8955	221.4402	227.9815	313.5188	342.7602	362.6381	405.9139	415.2704	524.5428	616.3501	634.0061	652.751	724.6494	800.7238	853.3317	888.9744	895.7463	908.4517	952.756	973.2436	981.7641	998.8832	1027.9823	1077.7334	1093.9052	1107.1275	1124.3041	1175.9777	1188.0937	1238.347	1262.4987	1281.1551	1319.1411	1332.3138	1371.8196	1397.4936	1415.4484	1461.7918	1482.8029	1493.9255	1496.8091	1510.222	2236.918	3006.5316	3027.4332	3041.1119	3043.4023	3046.7262	3091.4252	3097.3448	3102.3605	3109.1869	3165.0375	3193.8187	3506.7524
CC1CC2(CC#C)CC12	C[C@H]1C[C@@]2(CC#C)C[C@@H]12	
InChI=1S/C9H12/c1-3-4-9-5-7(2)8(9)6-9/h1,7-8H,4-6H2,2H3	InChI=1S/C9H12/c1-3-4-9-5-7(2)8(9)6-9/h1,7-8H,4-6H2,2H3/t7-,8-,9-/m0/s1
