18
gdb 76050	2.49983	1.29418	1.09177	3.9667	76.85	-0.2589	0.0204	0.2793	1174.1691	0.146996	-401.927861	-401.919001	-401.918056	-401.961806	31.969	
C	-0.0976942873	 1.5568834835	-0.0674681712	-0.418978
C	 0.003714705	 0.0500361308	-0.0031746809	-0.089375
C	 1.3489485314	-0.6652168498	-0.1835733957	-0.263195
C	 2.5553071027	 0.0960589476	-0.3376375514	 0.298342
N	 3.5265460658	 0.7178206609	-0.4383990241	-0.346148
C	 0.6342463138	-0.6411430054	 1.1549793729	 0.265835
C	 1.1472558561	-0.0691273065	 2.4731909399	-0.139556
O	 0.6765393643	-1.2394824531	 3.1794299278	-0.271336
C	 0.1607422699	-1.8378717427	 1.9728173603	-0.140066
H	 0.781612518	 2.0378090681	 0.369431623	 0.144284
H	-0.1817518266	 1.8984083331	-1.1035626673	 0.13571
H	-0.9816639354	 1.9049831137	 0.4765145865	 0.129134
H	-0.8221534875	-0.4841266877	-0.4680151417	 0.104461
H	 1.3394276794	-1.603051273	-0.7306054899	 0.133186
H	 2.2339540061	 0.0552297592	 2.5489429344	 0.127929
H	 0.6521826363	 0.8465632104	 2.8201107094	 0.110563
H	-0.9273287476	-1.9807662794	 2.0142466998	 0.108452
H	 0.6431906258	-2.7974599897	 1.7467663183	 0.110755
77.7676	118.983	132.1301	178.5787	180.524	219.7054	353.3923	381.1893	432.1327	510.5348	584.7883	648.8327	766.9411	819.4976	866.5928	926.33	955.5942	977.7062	1006.607	1033.3278	1036.1998	1107.3888	1112.4381	1128.4351	1139.7119	1151.8232	1165.2653	1209.115	1297.2597	1312.8055	1348.7548	1379.241	1421.0248	1467.2605	1489.5103	1503.4601	1509.273	1533.0467	2347.3239	3002.4366	3018.3621	3041.3802	3047.1431	3063.1383	3106.8605	3116.7363	3137.6899	3159.6463
CC1C(C#N)C11COC1	C[C@H]1[C@@H](C#N)C21COC2	
InChI=1S/C7H9NO/c1-5-6(2-8)7(5)3-9-4-7/h5-6H,3-4H2,1H3	InChI=1S/C7H9NO/c1-5-6(2-8)7(5)3-9-4-7/h5-6H,3-4H2,1H3/t5-,6+/m0/s1
