18
gdb 62134	2.20498	0.91485	0.67351	5.1141	73.59	-0.263	-0.034	0.2289	1610.8824	0.143693	-439.099718	-439.089323	-439.088379	-439.137014	34.944	
C	-0.1244261352	 1.5399886938	-0.0869155363	-0.411018
C	-0.0116823077	 0.0174959784	-0.0043637457	 0.141435
C	 0.7814655648	-0.5491472354	-1.1949107966	-0.350567
C	 0.8096186657	-2.0099320307	-1.1989894711	 0.267596
N	 0.8146279297	-3.1649859918	-1.2073082127	-0.303899
O	 0.6834162742	-0.4067647668	 1.1567702358	-0.255608
C	-0.0586347848	-0.4005231016	 2.3521258252	-0.15728
C	 0.7323843017	-1.1692774416	 3.3998966297	 0.142702
O	 0.4694059306	-1.1498400044	 4.5718574903	-0.233666
H	 0.8698167262	 1.9973169523	-0.0936914699	 0.133237
H	-0.6559990143	 1.8414046555	-0.994726937	 0.126426
H	-0.6782520716	 1.936907476	 0.7679266836	 0.131504
H	-1.018847743	-0.4279987311	-0.0080872761	 0.092718
H	 0.3441036938	-0.1985014279	-2.135253152	 0.152993
H	 1.8088892629	-0.1716584317	-1.1477988771	 0.161547
H	-0.2597112068	 0.612039354	 2.7306511312	 0.127279
H	-1.032123944	-0.904679601	 2.223913376	 0.128823
H	 1.5702510479	-1.7643213959	 2.9767553325	 0.105779
40.596	61.8398	73.2964	94.8968	158.7713	160.0452	222.7479	293.0945	344.5771	390.1122	422.3977	447.3365	539.3704	589.1562	748.1923	847.5451	888.779	916.304	972.8178	1038.1263	1092.1508	1110.4223	1125.4176	1126.0057	1173.8697	1240.3463	1255.8624	1310.5942	1342.7666	1381.2228	1388.1748	1408.1652	1413.9312	1453.3631	1480.2517	1489.5391	1499.1135	1845.9764	2367.9249	2911.6847	2966.5205	2985.5975	3022.4246	3042.5725	3053.7272	3097.8681	3117.0374	3121.4705
CC(CC#N)OCC=O	C[C@@H](CC#N)OCC=O	
InChI=1S/C6H9NO2/c1-6(2-3-7)9-5-4-8/h4,6H,2,5H2,1H3	InChI=1S/C6H9NO2/c1-6(2-3-7)9-5-4-8/h4,6H,2,5H2,1H3/t6-/m0/s1
