21
gdb 101623	3.53868	0.69938	0.67365	2.5644	81.53	-0.2648	0.032	0.2968	1732.3966	0.178744	-424.18319	-424.171987	-424.171043	-424.220038	40.167	
C	-0.0881046201	 1.5810121008	-0.1240449915	-0.402259
C	 0.03109208	 0.0541126851	-0.0301254388	 0.045843
C	 0.7374928335	-0.5130075427	-1.2628823898	-0.088273
O	-0.0333781542	-0.1905844827	-2.4114191835	-0.422593
C	 0.7579786561	-0.4121456195	 1.241078608	-0.212226
C	-0.0081242265	-0.1072839847	 2.5450986197	-0.074372
O	-1.3289286316	-0.644675277	 2.5310078236	-0.412334
C	 0.7478221967	-0.5706240474	 3.7130583032	 0.29729
C	 1.3653597028	-0.9985539326	 4.6518289048	-0.437151
H	 0.8984491273	 2.0566907307	-0.0544038294	 0.103375
H	-0.5318445473	 1.8624347757	-1.081253759	 0.1361
H	-0.7166603515	 1.9910106991	 0.6716690202	 0.118022
H	-0.9787635212	-0.3725074946	-0.0145709804	 0.097629
H	 1.7535723526	-0.0888678489	-1.3351300609	 0.080749
H	 0.8452955185	-1.6046761129	-1.1560257629	 0.080103
H	 0.4514467245	-0.4768168821	-3.1904852723	 0.28648
H	 0.928596659	-1.4964738282	 1.199477173	 0.091806
H	 1.7493087964	 0.0543842017	 1.3091283586	 0.105888
H	-0.1546561471	 0.9753482498	 2.6297320214	 0.12291
H	-1.2535532091	-1.5998134226	 2.6366574639	 0.284589
H	 1.9054558411	-1.356934017	 5.4932159721	 0.198423
42.2158	74.8822	102.6428	132.0991	191.7506	229.0673	239.6805	242.6908	272.4798	301.967	344.7906	396.8997	420.8362	508.5179	571.4598	574.3634	630.0203	671.8012	820.5302	862.5576	924.8649	931.3169	955.0603	1004.4448	1065.2985	1083.2698	1108.2516	1127.6601	1170.5377	1215.9487	1239.9797	1273.4123	1286.339	1301.4586	1340.2073	1382.6221	1388.2681	1407.5205	1420.1295	1459.3965	1477.5763	1494.3873	1509.8646	1521.3653	2231.4002	2952.7324	2982.4728	3013.3871	3027.1376	3042.526	3051.8932	3065.9445	3098.6271	3130.6692	3503.2373	3802.8928	3836.0761
CC(CO)CC(O)C#C	C[C@@H](CO)C[C@@H](O)C#C	
InChI=1S/C7H12O2/c1-3-7(9)4-6(2)5-8/h1,6-9H,4-5H2,2H3	InChI=1S/C7H12O2/c1-3-7(9)4-6(2)5-8/h1,6-9H,4-5H2,2H3/t6-,7+/m1/s1
