19
gdb 92568	3.09117	1.43348	1.2764	2.9025	77.2	-0.2482	0.0031	0.2513	1070.8443	0.160462	-423.034298	-423.026415	-423.025471	-423.067264	30.163	
C	 0.8329778802	 1.2612729972	 0.1144721051	-0.3827
C	-0.0068387403	 0.0018781573	-0.0604456043	 0.143962
C	 0.3862538462	-0.8296404503	-1.3292036281	-0.361543
C	 1.3332054072	-1.7821567941	-0.6912029441	 0.241359
C	 2.6238603393	-2.084864957	-0.7441823124	-0.23581
C	 3.050300165	-2.6304953791	 0.5964831337	-0.110635
O	 1.917187901	-2.4551980719	 1.4554636071	-0.271322
C	 0.802461378	-2.0796383007	 0.6823892338	 0.189225
O	 0.1760698925	-0.8694850435	 1.0807469988	-0.28972
H	 1.9004525524	 1.0253750204	 0.0593402635	 0.119522
H	 0.5951457588	 1.9981599965	-0.6605481124	 0.108359
H	 0.6325752871	 1.7093076163	 1.0913383809	 0.130556
H	-1.069075217	 0.2698429155	-0.0907553689	 0.081054
H	-0.4952975946	-1.3338171302	-1.7412793008	 0.115689
H	 0.828269204	-0.2097698508	-2.1113994747	 0.116355
H	 3.3192891976	-1.8868323459	-1.5501943053	 0.108521
H	 3.3311404727	-3.6945865914	 0.5743968121	 0.111003
H	 3.9093885476	-2.075211551	 0.9986551722	 0.116343
H	 0.0514216225	-2.8833022573	 0.7521320936	 0.069782
50.859	95.8	225.5182	250.1437	349.2431	358.106	404.2574	431.1284	611.6311	684.6595	724.8795	790.8795	800.8597	824.2677	892.6561	907.5814	927.7959	946.3961	987.2824	1023.9347	1036.76	1047.8121	1078.3205	1093.509	1118.658	1187.4018	1195.8969	1201.676	1265.1288	1284.346	1338.7941	1348.78	1379.1842	1385.5089	1404.7807	1406.4589	1480.2773	1489.0182	1495.9263	1515.9416	1751.5825	2963.4738	2988.3607	3018.9638	3031.1312	3034.2703	3046.4613	3106.628	3116.002	3121.7462	3213.8891
CC1CC2=CCOC2O1	C[C@H]1C[C]2[CH]CO[C@H]2O1	
InChI=1S/C7H10O2/c1-5-4-6-2-3-8-7(6)9-5/h2,5,7H,3-4H2,1H3	InChI=1S/C7H10O2/c1-5-4-6-2-3-8-7(6)9-5/h2,5,7H,3-4H2,1H3/t5-,7-/m0/s1
