16
gdb 10259	2.27081	2.1261	1.14555	3.8985	71.46	-0.2414	-0.0023	0.2391	1020.9438	0.127869	-342.733807	-342.724837	-342.723893	-342.767185	32.034	
C	 0.0343229342	 1.4741971268	 0.0182116815	-0.329678
N	 0.0254505542	 0.0150311552	 0.0221397661	-0.067472
C	 0.6955529397	-0.5113162927	 1.2075473529	-0.336902
C	-1.3381621287	-0.5168485416	-0.1066419819	-0.264466
C	-2.0316839063	-0.0184846507	-1.300227709	 0.315713
C	-2.6327248497	 0.3762851425	-2.260669387	-0.392088
C	-1.3136784806	-1.9956309007	-0.1564099276	 0.305482
N	-1.3174823449	-3.1499724963	-0.174518902	-0.325964
H	 1.0714542807	 1.8167870987	 0.0579483508	 0.129479
H	-0.4192070414	 1.851490178	-0.8996821443	 0.14369
H	-0.5040293644	 1.9107399559	 0.8806484525	 0.09749
H	 0.1952466603	-0.2190822207	 2.1501846806	 0.098969
H	 0.7433747325	-1.6016844462	 1.1649614923	 0.15439
H	 1.7178397255	-0.1259654748	 1.2325760575	 0.13045
H	-1.9571391491	-0.251234645	 0.7773888161	 0.129489
H	-3.1573313321	 0.7228113619	-3.1172884984	 0.211418
67.6923	139.4677	169.8968	179.9491	244.5673	256.621	341.9539	360.2933	373.1994	413.2118	507.0582	572.2485	578.1012	646.4005	681.6151	849.4943	924.6455	1022.9357	1052.3546	1066.1338	1125.362	1174.0705	1236.0828	1284.8614	1319.2302	1332.8581	1443.7267	1475.8566	1484.7102	1494.5317	1499.9466	1512.39	2248.896	2367.6279	2867.0218	2930.3791	2937.9732	3085.1576	3088.067	3131.8701	3139.2945	3500.2813
CN(C)C(C#C)C#N	CN(C)[C@@H](C#C)C#N	
InChI=1S/C6H8N2/c1-4-6(5-7)8(2)3/h1,6H,2-3H3	InChI=1S/C6H8N2/c1-4-6(5-7)8(2)3/h1,6H,2-3H3/t6-/m0/s1
