18
gdb 94795	2.8694	1.45286	1.07612	3.9574	72.55	-0.2447	-0.0346	0.21	1120.5063	0.148213	-439.083747	-439.075568	-439.074624	-439.116611	31.401	
O	 0.0842375681	 1.4003027749	 0.1365677011	-0.442399
C	-0.013468964	 0.0102361838	 0.0204318911	 0.066477
C	-1.4385270768	-0.5539903719	-0.0653098731	-0.249836
C	-1.2162490273	-1.9692826033	-0.65587562	-0.322827
C	-0.076133111	-1.7810091305	-1.6564209729	 0.209665
C	 0.6431437053	-2.8866139744	-2.3486961933	-0.279217
N	-0.2303684958	-2.0006006819	-3.1152176681	-0.324811
C	 0.6288672781	-0.5105593936	-1.2657037671	 0.345799
O	 1.5066547776	 0.0684455491	-1.8569723088	-0.338938
H	 0.8038545051	 1.6627484571	-0.4572710801	 0.293034
H	 0.5085099604	-0.4948126528	 0.8577567847	 0.090475
H	-1.9546611119	-0.5677746327	 0.8964095275	 0.112863
H	-2.0191922076	 0.0675030046	-0.7559125093	 0.120752
H	-0.9182772522	-2.6652081478	 0.1373702887	 0.116054
H	-2.1186095562	-2.3767533397	-1.1205765627	 0.10874
H	 1.7028394401	-2.7689804107	-2.5581562299	 0.139487
H	 0.3180795214	-3.9017994708	-2.1324807323	 0.119042
H	-1.1265204928	-2.4569773892	-3.2766629554	 0.235641
61.1264	162.9598	223.1261	233.1494	289.0216	349.8888	391.6954	428.6033	455.7282	516.3311	586.0885	691.941	741.9038	784.4837	871.3559	890.3304	931.8528	970.2588	978.4925	991.0311	1006.7871	1068.2021	1100.8163	1139.594	1154.484	1170.8546	1200.9826	1261.2799	1267.9718	1298.4652	1308.1151	1319.7795	1368.137	1396.9931	1419.7088	1486.3273	1497.9223	1503.9053	1840.2293	2907.3251	3035.2095	3054.6787	3086.984	3102.6481	3118.2723	3195.1409	3482.2369	3715.6865
OC1CCC2(CN2)C1=O	O[C@H]1CC[C@]2(CN2)C1=O	
InChI=1S/C6H9NO2/c8-4-1-2-6(3-7-6)5(4)9/h4,7-8H,1-3H2	InChI=1S/C6H9NO2/c8-4-1-2-6(3-7-6)5(4)9/h4,7-8H,1-3H2/t4-,6-/m0/s1
