21
gdb 89230	2.86843	1.59876	1.25487	1.4081	82.24	-0.2569	0.0802	0.3371	1072.9943	0.183909	-387.057605	-387.049749	-387.048805	-387.089464	32.283	
C	 0.0135561104	 1.5307554263	-0.0400075951	-0.50134
C	 0.040951419	 0.0173890683	-0.0005173173	 0.378065
C	 0.4647849095	-0.6890672152	-1.2947404439	-0.320718
C	 0.3934602686	-2.1740709213	-0.8530599911	 0.091939
O	 1.652372339	-2.8357915047	-0.8185615185	-0.44539
C	-0.0922946772	-1.9880361879	 0.5740833742	 0.004765
C	 0.6564165771	-0.7739284436	 1.2132243702	-0.081039
C	-0.6125714739	-0.4813942185	 2.050300798	-0.256904
C	-1.1307726719	-0.8248666609	 0.6326091231	-0.105527
H	 1.0087665295	 1.9284301891	-0.2703521882	 0.116073
H	-0.6671112202	 1.8856642088	-0.8227764413	 0.113829
H	-0.3094288958	 1.9751065078	 0.9053215337	 0.117208
H	-0.2100659233	-0.4547689233	-2.1262203627	 0.088462
H	 1.4831106938	-0.4223728525	-1.599142563	 0.091294
H	-0.3228201876	-2.7514638889	-1.4564280602	 0.057311
H	 1.9655002444	-2.9265099364	-1.7237357762	 0.280217
H	-0.2596217931	-2.8810304179	 1.1778391261	 0.065181
H	 1.6970348549	-0.7575678324	 1.5411959208	 0.06996
H	-0.8478397517	-1.2025935388	 2.8380305029	 0.088206
H	-0.7613707318	 0.5386836016	 2.4109066633	 0.088962
H	-2.1674762798	-0.8589841096	 0.2875844352	 0.059445
115.4009	208.1056	235.3229	280.8035	317.3557	345.7795	390.6415	478.911	491.5828	617.316	677.643	714.069	756.7478	824.5572	873.3733	887.5125	906.7655	910.9252	934.6564	980.759	1011.2827	1019.8522	1048.1601	1060.5119	1071.35	1097.4152	1121.3186	1137.9261	1171.2093	1182.659	1212.0304	1218.6794	1229.0026	1236.164	1256.0727	1267.4857	1312.6811	1342.9847	1358.1331	1414.1342	1426.9171	1482.4803	1493.2291	1494.8603	1528.3234	2983.8955	3026.2047	3032.5694	3054.8446	3075.1045	3076.2526	3082.2793	3098.1149	3106.3257	3113.0334	3114.9068	3819.9205
CC12CC(O)C3C1CC23	C[C@@]12C[C@@H](O)[C@H]3[C@@H]1C[C@@H]23	
InChI=1S/C8H12O/c1-8-3-6(9)7-4(8)2-5(7)8/h4-7,9H,2-3H2,1H3	InChI=1S/C8H12O/c1-8-3-6(9)7-4(8)2-5(7)8/h4-7,9H,2-3H2,1H3/t4-,5+,6-,7-,8+/m1/s1
