13
gdb 20589	3.42772	1.9096	1.23584	7.2348	63.16	-0.2533	-0.0493	0.204	905.7567	0.095772	-394.79426	-394.786964	-394.78602	-394.826645	25.114	
C	-0.0022660086	 1.5321668526	 0.09674308	-0.50964
C	 0.0257585721	 0.0471142496	-0.0407267581	 0.280201
C	-0.0181103384	-0.8131104204	-1.1298991107	 0.130009
C	-0.1112605571	-0.463174467	-2.5493367097	 0.090994
O	-0.1465238067	-1.2500338467	-3.4637555035	-0.257671
N	 0.0409217652	-2.1073252415	-0.6694547754	-0.224892
N	 0.1173150894	-2.0996017688	 0.6158390094	-0.096089
N	 0.1089222724	-0.7961757875	 1.0092907616	-0.22825
H	 0.9043680308	 1.902940102	 0.5868754309	 0.154152
H	-0.071946754	 2.0082760689	-0.8821172613	 0.161026
H	-0.8615136403	 1.8599552363	 0.6916735118	 0.154157
H	-0.1492956361	 0.6343604886	-2.7371325157	 0.061715
H	 0.1621681314	-0.5799274962	 1.9930264009	 0.284289
50.6673	131.5157	191.2303	225.558	306.6055	313.7855	532.5248	592.3838	643.2256	692.0299	737.2958	809.4012	983.3148	1022.2872	1025.7358	1037.0502	1062.7524	1170.9187	1277.6533	1333.0573	1388.9025	1420.1645	1432.0969	1467.8984	1482.0831	1511.4351	1603.589	1809.3942	2862.0459	3040.5754	3094.9242	3143.6444	3643.4633
CC1=C(C=O)N=NN1	Cc1c(C=O)nn[nH]1	
InChI=1S/C4H5N3O/c1-3-4(2-8)6-7-5-3/h2H,1H3,(H,5,6,7)	InChI=1S/C4H5N3O/c1-3-4(2-8)6-7-5-3/h2H,1H3,(H,5,6,7)
