16
gdb 125005	2.38356	1.87449	1.05719	5.5205	80.77	-0.194	-0.0359	0.1581	1081.0669	0.125858	-430.235221	-430.226883	-430.225939	-430.268009	31.491	
C	 0.0616940571	 1.5349706877	 0.0195308389	-0.513862
C	-0.0402068123	 0.040624105	-0.0114186888	 0.329597
C	-1.1922333936	-0.6797665282	 0.0461367242	 0.183756
N	-2.458024309	-0.1639291076	 0.1773356659	-0.596407
C	-1.0897484011	-2.1382562918	 0.0163904087	 0.356664
N	-2.1669018525	-2.8375390152	 0.0743736525	-0.556929
N	 0.1880387106	-2.719733828	-0.086658669	-0.299891
N	 1.2453093233	-2.0103223088	-0.1462166978	-0.057305
N	 1.1362408442	-0.68195754	-0.1088837095	-0.295352
H	 1.0037509584	 1.8586301487	 0.4748411515	 0.134908
H	 0.0095818212	 1.9795436887	-0.982490283	 0.145841
H	-0.7514990885	 1.9559190006	 0.6175222384	 0.151988
H	-2.6580232454	 0.7268815821	-0.2478238898	 0.248499
H	-3.1635907715	-0.8804528605	 0.0467499786	 0.27562
H	-1.9313768996	-3.8299338495	 0.0386283241	 0.220106
H	 2.0257203388	-0.2103221432	-0.157004015	 0.272767
98.4841	117.195	173.0774	272.6548	305.5871	335.2527	389.9865	469.353	502.3763	512.6335	531.9677	561.9726	618.7053	643.2618	694.5604	798.5079	866.9467	905.1576	978.5125	1003.8326	1055.1337	1081.9534	1153.4088	1231.0801	1301.4973	1318.2181	1371.0838	1418.8972	1481.0545	1482.4427	1499.9909	1552.057	1615.743	1664.851	1706.5375	3021.5179	3079.9915	3112.2325	3479.4425	3526.8766	3638.63	3672.6773
CC1=C(N)C(=N)N=NN1	Cc1c(N)c([NH])nn[nH]1	
InChI=1S/C4H7N5/c1-2-3(5)4(6)8-9-7-2/h1H3,(H2,5,9)(H2,6,7,8)	InChI=1S/C4H12N5/c1-2-3(5)4(6)8-9-7-2/h2-4,6-9H,5H2,1H3
