16
gdb 14226	5.06938	1.73322	1.55413	0.435	63.94	-0.2249	0.0718	0.2967	844.2067	0.129745	-383.667813	-383.660824	-383.659879	-383.698519	27.446	
C	-0.0719097235	 1.4076900337	 0.0018879521	-0.505192
C	 0.027774255	-0.0784720199	 0.014145426	 0.468473
O	-1.1460115554	-0.859654304	-0.2757654191	-0.327823
C	-0.4022004941	-2.0011762342	 0.2247963979	 0.012399
C	 0.6162583565	-1.0634153915	 0.9646115255	-0.18241
C	 1.2471058031	-0.9102532293	-0.4247928397	-0.171627
C	 0.6703894091	-2.2411169494	-0.8810429802	 0.119453
O	 1.572748903	-3.284439882	-0.5783395529	-0.433782
H	 0.8812444842	 1.8528366319	 0.3022412673	 0.128127
H	-0.3187152493	 1.7729279235	-1.0006008482	 0.133881
H	-0.8476700161	 1.7493954869	 0.6940493395	 0.132889
H	-1.0196087023	-2.7994686122	 0.6344975583	 0.080803
H	 1.0164995093	-1.0026303142	 1.9665193896	 0.099489
H	 2.1999898806	-0.4701570369	-0.6897289343	 0.093091
H	 0.28382541	-2.3166239442	-1.9072894952	 0.068214
H	 1.1313231699	-4.1181992582	-0.7709919966	 0.284015
178.0229	201.4746	240.9671	299.8923	315.835	363.58	503.1771	556.5001	648.2479	776.7658	802.0677	805.6217	854.2818	894.1416	917.9709	933.5934	954.7925	971.1262	1035.8812	1076.4443	1100.9026	1108.6505	1137.0434	1147.5337	1185.5294	1220.5087	1249.3358	1278.387	1311.1515	1401.5084	1423.6002	1462.3125	1474.3433	1501.5009	3004.0912	3036.8433	3103.3604	3116.4051	3132.3613	3200.2109	3216.9173	3808.6821
CC12OC3C1C2C3O	C[C@]12O[C@@H]3[C@H]1[C@H]2[C@H]3O	
InChI=1S/C6H8O2/c1-6-2-3(6)5(8-6)4(2)7/h2-5,7H,1H3	InChI=1S/C6H8O2/c1-6-2-3(6)5(8-6)4(2)7/h2-5,7H,1H3/t2-,3+,4+,5+,6+/m0/s1
