23
gdb 102052	1.84175	1.31895	0.96111	1.497	82.49	-0.2466	-0.0262	0.2204	1369.9862	0.201084	-425.445952	-425.434508	-425.433564	-425.482876	41.495	
C	 0.0351755236	 1.6122017219	 0.2485446382	-0.395168
C	 0.0216127623	 0.0984588451	 0.0091364622	-0.204681
C	-1.4010283944	-0.4857086689	-0.0580529027	-0.074938
C	-2.0862965071	-0.0427917308	-1.3370255483	 0.154168
O	-3.222722056	 0.3499402403	-1.4191006503	-0.261761
C	-1.4355170901	-2.0503435461	 0.0983110214	 0.318196
C	-2.8851623983	-2.5443363066	 0.1868218125	-0.42646
C	-0.6852163438	-2.7738432133	-1.0235704168	-0.403779
O	-0.7385441065	-2.4061867845	 1.2951764192	-0.452407
H	 1.0600162628	 1.9935296644	 0.2863716889	 0.117285
H	-0.491614847	 2.1550850137	-0.5441999535	 0.122905
H	-0.4512905495	 1.8669745603	 1.1964987094	 0.118533
H	 0.5538255752	-0.125598506	-0.9242853181	 0.099671
H	 0.5625283501	-0.4181128204	 0.8065112041	 0.119766
H	-2.002479343	-0.0813242939	 0.7670453256	 0.077464
H	-1.4419999583	-0.1063491086	-2.2463411935	 0.074917
H	-3.4490284063	-2.3265387855	-0.723721595	 0.135595
H	-2.895070231	-3.6244463912	 0.3576176559	 0.121156
H	-3.4114249707	-2.0584866248	 1.0169113362	 0.11018
H	 0.3617408331	-2.4646479265	-1.0615348751	 0.127805
H	-0.7101351221	-3.8509309665	-0.8382633091	 0.126702
H	-1.1432206866	-2.5825045891	-1.9982843799	 0.11739
H	-1.2644854866	-2.106072113	 2.0449089487	 0.277464
37.8215	70.9274	79.9119	181.6071	206.8532	219.6326	251.2592	258.8929	296.6523	322.6367	327.0353	335.8669	377.6469	449.1831	472.5495	498.574	563.6896	758.8988	779.7864	877.0303	909.7365	932.6143	963.8073	974.8907	1010.0596	1028.3687	1071.3973	1100.787	1142.9471	1161.4561	1204.0265	1225.0247	1263.9189	1279.6004	1329.4833	1363.5823	1384.7423	1408.862	1415.0785	1425.4361	1428.1273	1477.1642	1486.3712	1494.222	1497.2472	1499.1455	1506.9085	1508.432	1821.9439	2843.9752	3018.8833	3029.0083	3031.5235	3034.4411	3050.0295	3083.4687	3102.5206	3104.128	3106.5937	3120.2176	3129.2566	3130.3091	3799.6825
CCC(C=O)C(C)(C)O	CC[C@@H](C=O)C(C)(C)O	
InChI=1S/C7H14O2/c1-4-6(5-8)7(2,3)9/h5-6,9H,4H2,1-3H3	InChI=1S/C7H14O2/c1-4-6(5-8)7(2,3)9/h5-6,9H,4H2,1-3H3/t6-/m0/s1
