16
gdb 128583	2.75662	1.53987	0.99424	2.4211	78.33	-0.2011	-0.0347	0.1665	1139.9155	0.126397	-434.067671	-434.059834	-434.05889	-434.100089	29.616	
C	 0.0732930211	 1.3555042974	-0.1129111697	-0.250688
O	-0.0271392306	-0.0594424712	-0.09341022	-0.225241
C	-1.244851689	-0.5977329161	 0.0186191166	 0.396523
C	-2.4252855809	 0.0733125003	 0.1183352832	-0.284857
C	-3.6441708224	-0.6668558817	 0.2319745825	 0.007852
N	-3.7071918772	-1.9624058636	 0.2471954957	-0.202633
N	-2.5206023359	-2.602148513	 0.1466735485	-0.307701
C	-1.2361394683	-2.0692921599	 0.0288264931	 0.315235
N	-0.1479792095	-2.7407251863	-0.0626483921	-0.546427
H	 1.135787895	 1.579510316	-0.2088784155	 0.148589
H	-0.4703824756	 1.7805919362	-0.9655456369	 0.131218
H	-0.3123022674	 1.7939213796	 0.8157306793	 0.131218
H	-2.4670170707	 1.1543155882	 0.113989003	 0.108189
H	-4.5937999694	-0.1496052461	 0.3123800758	 0.120386
H	-2.6036192185	-3.6077072887	 0.1615380236	 0.260622
H	-0.3295627908	-3.7458738912	-0.0390369171	 0.197716
105.8793	136.5448	221.3988	233.7288	279.7979	356.0733	451.7474	513.6642	540.8479	562.4201	596.765	650.6489	765.6414	771.9877	803.5926	851.2392	890.5525	920.5295	1054.3197	1066.1768	1095.8532	1174.408	1176.8182	1213.9667	1294.2693	1322.9649	1393.6749	1411.3941	1460.9557	1483.4276	1491.7424	1503.6412	1605.4677	1657.5213	1702.2056	3013.2284	3076.7839	3149.5569	3191.8863	3218.9523	3453.2261	3616.3753
COC1=CC=NNC1=N	COC1=C(NN=CC1)[NH]	
InChI=1S/C5H7N3O/c1-9-4-2-3-7-8-5(4)6/h2-3H,1H3,(H2,6,8)	InChI=1S/C5H8N3O/c1-9-4-2-3-7-8-5(4)6/h3,6,8H,2H2,1H3
