13
gdb 21021	5.81535	1.64502	1.29275	6.1985	64.29	-0.2391	-0.0572	0.1819	880.8038	0.097149	-394.802875	-394.796056	-394.795112	-394.834434	24.128	
C	 0.0040461547	 1.4803357764	 0.0436545367	-0.319003
N	-0.0236920478	 0.0253638068	 0.006281359	 0.0007
C	-1.1496021942	-0.6989865179	-0.2207123106	 0.126874
N	-1.2245204215	-1.9868375233	-0.2631102969	-0.329441
C	-0.0379305337	-2.7076027191	-0.0565122954	 0.358921
O	 0.0144533235	-3.9193208561	-0.0733603923	-0.348999
C	 1.1593964461	-1.8741419191	 0.186293849	-0.071018
N	 1.1703959133	-0.5830909371	 0.2167592318	-0.174942
H	 0.6789519251	 1.8615023382	-0.7265830663	 0.16014
H	-1.0028725495	 1.8588807778	-0.1366907656	 0.14886
H	 0.3512744702	 1.8227573613	 1.0215235799	 0.16014
H	-2.047404899	-0.100772473	-0.3758349961	 0.139864
H	 2.1100168027	-2.371690495	 0.3535490268	 0.147903
73.7951	99.8727	227.4781	344.0494	436.3779	458.3662	479.6133	537.3365	659.7917	790.5559	792.1008	840.9461	953.4494	976.749	981.4992	1075.8381	1154.9747	1189.3608	1267.9343	1326.4568	1385.4958	1446.0661	1468.7971	1473.0169	1516.2442	1593.4046	1655.2567	1786.1745	3055.0208	3126.2428	3130.9029	3154.4437	3185.9145
CN1C=NC(=O)C=N1	Cn1cnc(=O)cn1	
InChI=1S/C4H5N3O/c1-7-3-5-4(8)2-6-7/h2-3H,1H3	InChI=1S/C4H5N3O/c1-7-3-5-4(8)2-6-7/h2-3H,1H3
