12
gdb 132251	3.52769	1.20718	0.8994	4.6734	70.71	-0.2903	-0.0729	0.2175	1145.16	0.079062	-439.702302	-439.695574	-439.69463	-439.733789	25.046	
F	-0.0021829156	 0.0258387028	 0.0030672412	-0.058125
C	-0.0132448119	 1.3521631219	 0.0104901746	 0.339324
C	-1.2260112895	 2.0243231816	 0.0309405624	-0.309926
C	-1.1751723651	 3.41985704	 0.0378805621	 0.236193
N	-0.0401637761	 4.1332433169	 0.0260988202	-0.314355
C	 1.1018795575	 3.4481202598	 0.0065558315	 0.008842
C	 1.1806608228	 2.056585109	-0.0021572928	-0.250434
C	-2.4085540207	 4.1647345287	 0.0590246272	 0.249471
N	-3.4174139992	 4.7294947497	 0.076076702	-0.318089
H	-2.165100598	 1.4867069026	 0.0409805112	 0.147541
H	 2.0129456859	 4.0399526819	-0.0027985262	 0.134875
H	 2.1306162398	 1.5373447051	-0.0181343835	 0.134683
140.0703	153.8663	240.2253	386.1066	399.8622	479.0672	505.0566	519.8857	590.9794	663.2229	759.5864	767.4472	870.9464	912.4231	959.1443	996.9056	1006.7987	1100.0135	1164.5829	1293.0039	1317.3678	1328.187	1427.8876	1501.6692	1618.0796	1627.7815	2355.7466	3172.9938	3219.7015	3225.5528
FC1=CC(=NC=C1)C#N	Fc1cc(ncc1)C#N	
InChI=1S/C6H3FN2/c7-5-1-2-9-6(3-5)4-8/h1-3H	InChI=1S/C6H3FN2/c7-5-1-2-9-6(3-5)4-8/h1-3H
