20
gdb 61509	2.9995	0.83182	0.76812	3.1357	77.49	-0.2419	-0.0352	0.2067	1541.6532	0.167982	-440.318902	-440.308257	-440.307312	-440.356083	36.367	
C	-0.09210031	 1.6577753412	-0.0859785831	-0.409945
C	-0.0071001102	 0.1225886703	-0.1502010966	-0.079914
C	 0.7736105685	-0.5319506353	 1.0039607786	-0.191507
N	 2.1629832992	-0.1068649753	 1.114541025	-0.035062
C	 2.5331164357	 0.9229173214	 2.0735167103	-0.352972
C	 3.1383608815	-0.7579993599	 0.4169961536	 0.149991
O	 4.3247121327	-0.5065394749	 0.4493010519	-0.341043
C	-1.4045217151	-0.4604248037	-0.2504559145	 0.157269
O	-1.8540619401	-1.3054843947	 0.4809703963	-0.24263
H	 0.9008975619	 2.1024564099	-0.1794294579	 0.143932
H	-0.708279047	 2.0493243284	-0.9020235099	 0.126681
H	-0.5345791657	 1.9906965829	 0.8588789287	 0.130195
H	 0.4887125867	-0.1366228082	-1.0994335429	 0.107791
H	 0.2703042065	-0.3241425299	 1.9530727817	 0.125264
H	 0.7370529896	-1.6177478333	 0.8744934962	 0.135141
H	 2.2468594369	 0.6259649967	 3.0896963502	 0.128212
H	 3.6154055436	 1.0438433564	 2.0241185232	 0.170405
H	 2.0525830582	 1.8794848438	 1.8457777334	 0.123847
H	 2.7160019501	-1.5720188642	-0.2063008687	 0.069015
H	-2.0176700531	-0.0335423616	-1.0780701856	 0.085327
30.4174	65.6471	103.4769	107.9413	135.3771	201.1193	249.0234	260.5132	328.2737	336.9174	369.29	398.8379	430.7217	606.5758	746.4209	796.4569	881.1385	894.7457	918.8168	932.6467	1030.8349	1087.4836	1091.9719	1117.9521	1156.5155	1160.5648	1250.139	1279.2471	1299.3815	1335.1572	1394.0569	1405.6213	1425.1276	1427.2753	1439.9067	1445.9952	1475.6945	1495.1567	1497.363	1508.948	1521.2493	1797.6122	1826.4822	2863.2224	2926.4293	2989.3839	3026.8319	3037.8912	3056.1375	3084.1048	3099.4396	3103.2546	3128.338	3156.549
CC(CN(C)C=O)C=O	C[C@@H](CN(C)C=O)C=O	
InChI=1S/C6H11NO2/c1-6(4-8)3-7(2)5-9/h4-6H,3H2,1-2H3	InChI=1S/C6H11NO2/c1-6(4-8)3-7(2)5-9/h4-6H,3H2,1-2H3/t6-/m0/s1
