18
gdb 128410	6.1234	0.79381	0.73133	1.5094	75.57	-0.236	-0.0164	0.2196	1584.603	0.147594	-435.268142	-435.25895	-435.258006	-435.303163	32.053	
C	-0.2093977835	 1.4765924736	 0.2619970859	-0.308677
N	-0.1624587594	 0.023309323	 0.1761689661	-0.291101
C	 0.891807703	-0.5527106693	 1.0001672228	-0.257768
C	 0.8598336867	-2.0447497594	 0.9506631756	 0.430437
N	 1.8351600036	-2.8738217639	 0.7415583243	-0.350315
C	 1.2056694398	-4.0998053441	 0.8421938036	 0.351436
C	 1.9168720895	-5.3971496832	 0.6737212603	-0.489214
N	-0.0750701198	-4.030209123	 1.0936714428	-0.168301
O	-0.31474634	-2.648146905	 1.1735447449	-0.207921
H	 0.7080934766	 1.8979256159	-0.1642526371	 0.127213
H	-1.0515467386	 1.8472870332	-0.3282089293	 0.126556
H	-0.3080292232	 1.8663173792	 1.2912909105	 0.097862
H	-1.055294387	-0.3702018364	 0.4531887999	 0.235504
H	 1.8682833671	-0.2346496438	 0.6229959276	 0.144956
H	 0.8412119751	-0.2387044262	 2.0620568146	 0.109535
H	 2.7180902545	-5.4879839885	 1.4131784637	 0.149064
H	 1.2218393371	-6.2295849295	 0.7914973247	 0.150027
H	 2.3779919884	-5.4489320925	-0.317040521	 0.150707
41.0026	88.6329	113.0255	139.0702	223.2215	250.5726	281.5242	329.3467	363.414	442.6277	646.3273	688.5866	728.4159	772.1688	803.5816	921.46	983.8216	990.9321	996.9804	1044.6335	1061.0975	1071.9367	1137.2301	1150.8162	1189.8227	1264.5549	1311.3713	1365.8837	1380.2728	1423.0444	1460.6166	1474.0738	1475.6463	1486.9059	1492.3315	1504.6148	1518.6974	1572.4303	1638.6735	2904.5193	2944.8116	3052.5318	3058.5806	3086.1681	3112.3801	3112.9352	3151.6855	3533.123
CNCC1=NC(C)=NO1	CNCc1nc(C)no1	
InChI=1S/C5H9N3O/c1-4-7-5(3-6-2)9-8-4/h6H,3H2,1-2H3	InChI=1S/C5H9N3O/c1-4-7-5(3-6-2)9-8-4/h6H,3H2,1-2H3
