15
gdb 48092	3.73653	1.16854	1.02548	2.4293	68.61	-0.2414	-0.0918	0.1496	1139.9448	0.111052	-457.726179	-457.718318	-457.717374	-457.759385	28.383	
O	-0.7595881947	 1.3092551626	-0.0468097947	-0.225544
C	 0.3549056582	 0.8836508778	-0.2025535229	 0.095835
C	 1.6294382363	 1.7363703423	-0.1044299197	 0.286229
O	 2.6933647464	 1.1632275229	-0.2275845055	-0.304857
C	 1.4225703032	 3.1789516473	 0.109269696	-0.166505
C	 2.4616970267	 4.1662005682	 0.6308022659	-0.172453
C	 3.8460173904	 3.8483057068	 0.0605910627	-0.087281
O	 3.312398232	 3.8686988196	-1.2990308257	-0.263706
C	 2.0503180809	 4.2476670874	-0.8031563724	 0.095479
H	 0.579949036	-0.1820967806	-0.4189875006	 0.108121
H	 0.4040793218	 3.4373685805	 0.3815405225	 0.127586
H	 2.2430808687	 4.8109913107	 1.4709754806	 0.115616
H	 4.5495261158	 4.6759115783	 0.1929226561	 0.118378
H	 4.3023170372	 2.8910155868	 0.309644376	 0.14637
H	 1.4423260711	 4.9320087693	-1.3830506582	 0.126733
53.0955	137.5015	163.3974	175.0746	245.1045	366.2535	420.4535	550.668	621.9426	631.0566	743.3225	795.134	824.0433	886.0376	897.5801	959.1319	984.4888	1005.7129	1031.953	1063.201	1076.9174	1097.9739	1144.8524	1166.1371	1172.7432	1259.4226	1301.2794	1360.6088	1369.3499	1442.3023	1495.3634	1773.9302	1821.6926	2925.2983	3059.4341	3149.8522	3175.5987	3188.0539	3210.1622
O=CC(=O)C1C2COC12	O=CC(=O)[C@H]1[C@H]2CO[C@@H]12	
InChI=1S/C6H6O3/c7-1-4(8)5-3-2-9-6(3)5/h1,3,5-6H,2H2	InChI=1S/C6H6O3/c7-1-4(8)5-3-2-9-6(3)5/h1,3,5-6H,2H2/t3-,5-,6-/m1/s1
