21
gdb 95644	2.18272	1.74524	1.02446	3.0048	81.08	-0.2248	0.0231	0.2479	1193.0504	0.183643	-420.411919	-420.402943	-420.401999	-420.445658	34.135	
C	 0.1966702167	 1.5891723516	-0.0083639025	-0.408335
C	 0.1924265759	 0.0592851676	 0.0359862763	-0.022849
N	 0.7294422479	-0.5373622595	-1.196411603	-0.083906
C	-0.0257130562	-0.1562363503	-2.3818242087	-0.32259
C	 0.8083619013	-1.9838084608	-1.0658216515	-0.157134
C	 1.7878318992	-2.3200819093	 0.0365097256	-0.083275
O	 1.4142532366	-1.7186723839	 1.2795623505	-0.253263
C	 0.9340883974	-0.4437778112	 1.2784250397	 0.388689
N	 0.9872601442	 0.2640992142	 2.3269189114	-0.509182
H	 1.1880260544	 1.9546632114	-0.2915836659	 0.123219
H	-0.5366695009	 1.9681082579	-0.723290437	 0.108786
H	-0.0438994529	 1.976977152	 0.9805048111	 0.156193
H	-0.8573111834	-0.2796119005	 0.1798278024	 0.080389
H	 0.0510737246	 0.9171602012	-2.5622812082	 0.130411
H	 0.3926391597	-0.6705766967	-3.2519289563	 0.11843
H	-1.0990012314	-0.4189612105	-2.3133412809	 0.093743
H	-0.1775791737	-2.4429130934	-0.8502112069	 0.085283
H	 1.1712962467	-2.4126209286	-2.0060947131	 0.106569
H	 1.8254540399	-3.395712757	 0.2266747785	 0.114981
H	 2.7908544898	-1.9715083167	-0.2397077316	 0.114896
H	 1.4624779841	-0.2550106377	 3.0679794501	 0.218945
56.936	112.0103	200.6063	224.7361	235.8889	316.2069	360.5197	377.906	419.6756	447.3019	477.9012	514.3052	610.658	658.3204	786.5056	837.602	908.2482	917.2317	938.4593	1020.0295	1047.9116	1072.1274	1100.7796	1106.6735	1121.7403	1160.9754	1167.9822	1197.621	1258.3805	1273.8355	1293.2742	1318.3401	1352.3133	1371.2105	1401.216	1404.0382	1435.4022	1461.2456	1484.549	1493.0893	1499.8654	1502.5623	1504.0617	1510.7798	1739.3652	2857.3033	2904.5428	2927.2998	3029.291	3056.7246	3066.6119	3079.2942	3101.524	3123.1154	3133.5719	3165.1267	3465.0332
CC1N(C)CCOC1=N	C[C@H]1N(C)CCO[C]1[NH]	
InChI=1S/C6H12N2O/c1-5-6(7)9-4-3-8(5)2/h5,7H,3-4H2,1-2H3	InChI=1S/C6H12N2O/c1-5-6(7)9-4-3-8(5)2/h5,7H,3-4H2,1-2H3/t5-/m1/s1
