17
gdb 18320	3.27827	2.31079	1.59425	3.1259	68.51	-0.2529	0.0257	0.2786	826.2084	0.145025	-363.873994	-363.867355	-363.866411	-363.905022	25.69	
N	-0.0414561255	 1.2769327136	 0.1549425489	-0.543079
C	-0.0072613835	 0.0264558729	-0.018461883	 0.405743
O	 1.1383007453	-0.6885734282	-0.2505962579	-0.243034
C	 0.8469723734	-2.0622917274	-0.5631147293	-0.107509
C	-0.5738013606	-2.3097991798	-0.0681941275	-0.02291
C	-0.7807536896	-2.480103417	 1.4674407272	-0.235441
C	-1.6904301868	-1.2187823787	 1.4734600912	-0.215591
C	-1.2072595286	-0.8941480929	 0.0312731515	-0.109397
H	 0.8953522885	 1.676348043	 0.0746537884	 0.219767
H	 0.9358035931	-2.2014525439	-1.6480530018	 0.109774
H	 1.5997733928	-2.6835989103	-0.06847848	 0.116892
H	-1.1107998869	-3.0406400328	-0.6736451613	 0.08028
H	-1.2415147765	-3.4158391655	 1.7899503041	 0.104127
H	 0.1470543054	-2.3420004987	 2.0302471053	 0.112053
H	-2.7530503945	-1.4714771501	 1.4931070974	 0.106724
H	-1.4957381431	-0.4541734833	 2.2272668027	 0.122139
H	-1.9639978029	-0.5806176109	-0.6887161958	 0.099464
88.1261	147.913	241.643	336.8645	440.6214	579.9042	657.1346	708.079	721.4148	771.05	812.3264	873.8328	888.9943	894.8888	958.1804	963.4028	984.4042	999.0639	1057.6713	1075.5864	1121.946	1144.8216	1184.649	1213.969	1237.7307	1252.9482	1263.7187	1267.9115	1280.3711	1323.1868	1336.0005	1404.651	1480.9098	1497.1122	1516.3547	1769.7814	3022.8365	3060.2917	3071.1146	3082.617	3098.7333	3107.897	3115.9165	3132.3342	3469.7936
N=C1OCC2CCC12	[NH][C]1OC[C@H]2CC[C@@H]12	
InChI=1S/C6H9NO/c7-6-5-2-1-4(5)3-8-6/h4-5,7H,1-3H2	InChI=1S/C6H9NO/c7-6-5-2-1-4(5)3-8-6/h4-5,7H,1-3H2/t4-,5-/m1/s1
