19
gdb 52885	1.92919	1.2079	0.84368	1.0437	93.01	-0.2241	0.0367	0.2608	1452.5363	0.155469	-348.689884	-348.679332	-348.678388	-348.726343	37.697	
C	 0.0537866575	 1.4867475526	 0.0522509781	-0.502565
C	 0.0330551607	 0.0312431951	 0.0363247753	 0.089707
C	 0.0271471207	-1.173328516	 0.0207851323	-0.010127
C	 0.0307137197	-2.6151113986	-0.0034055205	-0.00278
C	-0.4779960727	-3.3617887117	 1.2430117744	-0.313208
C	-1.3179030071	-3.3712854973	 0.0086546601	-0.021722
C	-2.625934108	-2.6219458405	-0.065397603	-0.413056
C	 1.1095792585	-3.2257593434	-0.7399325615	 0.256513
C	 2.0005518264	-3.750946751	-1.3535354124	-0.455674
H	 1.0332111539	 1.867623661	-0.2577374093	 0.152151
H	-0.6950760464	 1.9077360331	-0.6279445914	 0.147027
H	-0.1498729041	 1.8788721076	 1.0549897928	 0.1466
H	 0.0630758548	-4.2575968366	 1.5235361848	 0.129642
H	-0.7907593192	-2.7317931437	 2.0683301274	 0.126693
H	-1.2817352239	-4.2890593225	-0.5704720388	 0.105719
H	-2.569152777	-1.6727858949	 0.4731680275	 0.130116
H	-2.8963354117	-2.4019172094	-1.1031984521	 0.125432
H	-3.4322880427	-3.2187391771	 0.3748145137	 0.119062
H	 2.7914947606	-4.2037862167	-1.8977318075	 0.190471
28.5395	81.123	108.0035	141.5456	166.0307	193.678	254.118	291.7241	346.2722	382.7345	448.2979	487.6798	535.1226	567.4059	576.6526	595.1503	648.9365	771.0467	856.7797	877.5262	922.5263	989.679	1049.5096	1053.5094	1054.438	1072.222	1093.7279	1131.4256	1196.1444	1242.7664	1328.6752	1394.0246	1414.9735	1420.6583	1477.2227	1477.4474	1479.4068	1492.5067	1498.4594	2236.2929	2368.1456	3025.5584	3035.8169	3084.6666	3087.862	3097.2319	3120.1939	3140.7422	3158.9002	3235.2284	3504.7586
CC#CC1(CC1C)C#C	CC#C[C@]1(C[C@H]1C)C#C	
InChI=1S/C9H10/c1-4-6-9(5-2)7-8(9)3/h2,8H,7H2,1,3H3	InChI=1S/C9H10/c1-4-6-9(5-2)7-8(9)3/h2,8H,7H2,1,3H3/t8-,9+/m1/s1
