14
gdb 8745	3.84314	1.26111	1.21648	3.9046	63.86	-0.2774	0.0143	0.2917	1017.8094	0.105615	-378.679407	-378.670537	-378.669593	-378.713047	31.17	
N	 0.1919971654	 1.5860347326	-0.0884615173	-0.508313
C	 0.1084775635	 0.1289808317	-0.0275642883	-0.134413
C	 0.6428577826	-0.5396630805	-1.2317538008	 0.259335
N	 1.0608295303	-1.03277545	-2.1901773731	-0.317597
C	 0.8631869429	-0.3696718725	 1.2477422015	-0.042555
O	 2.1410667345	 0.2355384851	 1.3301591631	-0.416589
C	 0.0550371664	-0.1314293986	 2.4443646012	 0.304285
C	-0.6001870965	 0.0779228601	 3.429278465	-0.43593
H	 1.1145520784	 1.8537008478	-0.4175410786	 0.249595
H	-0.4772456057	 1.951014102	-0.7576604968	 0.251058
H	-0.9430891522	-0.1569001549	 0.0734404482	 0.144625
H	 1.0477447282	-1.44391491	 1.1400903019	 0.141088
H	 2.0049855197	 1.1259253899	 1.6756107735	 0.297625
H	-1.1765379275	 0.2546365273	 4.3041220105	 0.207785
55.0639	123.484	155.7177	175.6465	220.4412	241.1217	302.6136	390.8806	456.7334	489.4723	570.3168	584.1822	643.3592	682.2077	719.9353	849.921	871.6844	954.1595	1000.4375	1051.173	1126.2113	1190.9647	1263.5839	1305.8724	1338.7949	1392.6279	1424.5542	1653.8814	2239.2332	2348.3923	3060.9127	3074.79	3501.5392	3510.4665	3590.1374	3799.1834
NC(C#N)C(O)C#C	N[C@@H](C#N)[C@@H](O)C#C	
InChI=1S/C5H6N2O/c1-2-5(8)4(7)3-6/h1,4-5,8H,7H2	InChI=1S/C5H6N2O/c1-2-5(8)4(7)3-6/h1,4-5,8H,7H2/t4-,5-/m0/s1
