16
gdb 7303	3.90772	1.15002	0.9377	2.6569	62.84	-0.2514	-0.0404	0.211	1185.7974	0.126561	-420.904218	-420.894998	-420.894054	-420.939373	31.255	
C	-0.0350136978	 1.4450182248	 0.2217177685	-0.483196
C	 0.0357760731	-0.0311195222	-0.0842799761	 0.369464
O	 1.0716529581	-0.5920896931	-0.3726520932	-0.313675
C	-1.2509865296	-0.8651836613	-0.0305052515	 0.024723
O	-0.9742585696	-2.1866329438	-0.4010167154	-0.43516
C	-1.8878081673	-0.8228130104	 1.3796462616	-0.301175
C	-3.1527316086	-1.6586493036	 1.4357282799	 0.157491
O	-4.2165768487	-1.2377503959	 1.8123333531	-0.239221
H	 0.8577703787	 1.9417821429	-0.1600039726	 0.155694
H	-0.9350459721	 1.9001450982	-0.2019627684	 0.146304
H	-0.0775927183	 1.5920070191	 1.3071520475	 0.161307
H	-1.9600796484	-0.4123258223	-0.7445561624	 0.103593
H	-0.0147527706	-2.2071713226	-0.5598602544	 0.296146
H	-1.164642065	-1.2488687686	 2.0882388154	 0.129496
H	-2.1366406028	 0.1964996899	 1.6862043712	 0.120197
H	-3.0263541911	-2.706494161	 1.0956695869	 0.108011
51.6787	70.1504	87.292	108.5975	168.1738	266.3542	319.8564	392.694	445.4289	478.7754	501.4826	584.6514	634.3892	794.3103	840.0325	924.1885	975.7679	999.9536	1061.1372	1097.3187	1143.3204	1205.1416	1232.8463	1262.0438	1299.9735	1355.5395	1388.5113	1418.2016	1437.4792	1452.2461	1464.0079	1474.9521	1796.9453	1829.0993	2935.6156	2963.1763	3026.7305	3043.4837	3107.4234	3111.3903	3154.6006	3649.007
CC(=O)C(O)CC=O	CC(=O)[C@@H](O)CC=O	
InChI=1S/C5H8O3/c1-4(7)5(8)2-3-6/h3,5,8H,2H2,1H3	InChI=1S/C5H8O3/c1-4(7)5(8)2-3-6/h3,5,8H,2H2,1H3/t5-/m0/s1
