15
gdb 42503	6.24358	0.63713	0.58231	1.9239	76.03	-0.2731	-0.0455	0.2276	1784.9132	0.108685	-420.581696	-420.571988	-420.571044	-420.617752	33.47	
O	-0.0702505972	-0.1021409093	 0.0014418258	-0.348209
C	-0.0145481436	 1.1016896067	 0.0051916804	 0.297299
O	 1.1248482271	 1.8170037076	-0.0025938656	-0.231633
C	 2.3397061705	 1.0439546073	-0.0160647831	-0.061935
C	 3.4934903888	 2.0479148241	-0.0214685964	-0.359113
C	 4.785444137	 1.3746818913	-0.0353491517	 0.281105
C	 5.836072132	 0.7922684336	-0.0467118993	-0.433588
C	-1.168675416	 1.9738962754	 0.0184010791	 0.221372
C	-2.1620123313	 2.6493632003	 0.0295856328	-0.355398
H	 2.3728621703	 0.3976821561	 0.8651281206	 0.140661
H	 2.3580497128	 0.4052830589	-0.9032231671	 0.140622
H	 3.3952103755	 2.7008726066	-0.8967560201	 0.146137
H	 3.410051317	 2.6932185556	 0.8610121033	 0.146135
H	 6.7714307777	 0.289843508	-0.0564647591	 0.202061
H	-3.0411440707	 3.246601988	 0.0395701006	 0.214483
40.8677	52.9285	82.1359	151.8704	156.4716	261.4403	295.6426	329.7823	352.7105	465.457	587.7237	607.7611	629.5099	657.1464	659.8325	699.4055	771.2947	788.2018	898.8549	986.6676	1021.2758	1077.6007	1082.056	1228.3907	1250.1551	1295.5001	1307.7668	1407.1963	1476.9531	1511.4929	1794.8762	2238.1942	2245.0173	3034.8458	3066.7326	3068.6171	3118.8512	3498.2498	3507.6128
O=C(OCCC#C)C#C	O=C(OCCC#C)C#C	
InChI=1S/C7H6O2/c1-3-5-6-9-7(8)4-2/h1-2H,5-6H2	InChI=1S/C7H6O2/c1-3-5-6-9-7(8)4-2/h1-2H,5-6H2
