18
gdb 38000	3.33264	1.83801	1.53105	1.3413	81.87	-0.2217	-0.0135	0.2082	904.5855	0.150182	-364.695379	-364.689003	-364.688059	-364.725673	27.398	
C	 0.0905670315	 1.5966473663	-0.0515029903	-0.289714
C	 1.354506655	 0.7370363341	-0.0570128715	-0.093094
C	 1.9921615742	 0.7890117973	 1.289071866	-0.162056
C	 1.6477296312	-0.138559659	 2.1930035256	 0.129051
C	 0.7782987894	 0.1678971705	 3.3934865809	-0.183029
N	-0.2875055505	-0.7328052935	 2.7626182033	-0.173947
C	-0.3629824595	-0.7839795724	 1.2094858664	-0.020221
C	-0.0242913391	 0.1009462644	 0.0206784551	-0.01872
C	 0.7831286474	-1.3578842653	 1.917123373	-0.117838
H	-0.1104182253	 2.1763322247	 0.8435495356	 0.120449
H	-0.2045892017	 2.0820600742	-0.9762729079	 0.112662
H	 1.9191093623	 0.6794250238	-0.9821246839	 0.091387
H	 2.3174417712	 1.7663488191	 1.6447919727	 0.091921
H	 1.0316842586	-0.3249144647	 4.3373543704	 0.117672
H	 0.5036557887	 1.2121224637	 3.5724885386	 0.106298
H	-1.2166383571	-1.4302497465	 1.0217905627	 0.102389
H	-0.3922464526	-0.3683596153	-0.8887064376	 0.091342
H	 1.0722813863	-2.4006706214	 2.0033250309	 0.095448
179.6363	246.4287	378.1796	437.0232	489.3466	514.0152	547.4525	612.1191	743.2722	769.7527	777.2774	809.2153	833.1174	843.85	882.9527	907.7133	920.8981	954.5749	1005.28	1029.4013	1046.1494	1064.2417	1077.1477	1092.9915	1102.6429	1108.955	1131.3247	1138.0589	1195.7418	1235.6149	1262.6344	1297.6562	1326.4929	1351.8943	1379.2022	1399.5204	1483.0849	1502.575	1670.2467	3038.7023	3096.4684	3119.4737	3124.9854	3128.627	3143.8804	3152.435	3156.7951	3213.1005
C1C2C=C3CN4C(C12)C34	C1[C@H]2[CH][C]3CN4[C@@H]([C@@H]12)[C@@H]34	
InChI=1S/C8H9N/c1-4-2-6(4)8-7-5(1)3-9(7)8/h1,4,6-8H,2-3H2	InChI=1S/C8H9N/c1-4-2-6(4)8-7-5(1)3-9(7)8/h1,4,6-8H,2-3H2/t4-,6+,7-,8+,9?/m1/s1
