16
gdb 16432	3.42245	2.20046	1.67658	2.9667	63.79	-0.2271	0.0631	0.2901	804.5829	0.1291	-383.642262	-383.635185	-383.634241	-383.673123	27.59	
C	-0.1514238981	 1.6145019988	-0.0153819952	-0.426028
C	-0.0552313756	 0.0955737904	 0.0050865581	-0.085542
C	 1.1531072867	-0.5934622437	-0.6699636608	-0.101038
C	 2.1120732569	-0.3477423254	 0.5356180481	 0.002897
O	 2.5226093666	-1.7401410837	 0.6478115023	-0.326633
C	 1.1083089204	-1.8098839254	 0.3073087504	 0.038955
C	 0.686128129	-0.5943897163	 1.179866489	 0.357995
O	 0.3338418348	-0.683213432	 2.5046681017	-0.461177
H	 0.8086784088	 2.0845249259	 0.2261730442	 0.114028
H	-0.458527493	 1.9797722006	-1.0009414507	 0.124526
H	-0.8921366671	 1.973441852	 0.708592035	 0.115943
H	-1.0202163022	-0.3656138551	-0.2359971952	 0.074441
H	 1.4392481283	-0.6249380912	-1.7182880957	 0.089486
H	 2.8571185977	 0.4292609621	 0.7017338126	 0.094203
H	 0.635130493	-2.7841597478	 0.1911732049	 0.098414
H	 0.2752332838	 0.2057710408	 2.8718176812	 0.28953
192.4323	201.7685	206.6069	236.8656	327.1819	369.0333	527.6018	558.1419	685.0163	729.9995	756.9634	824.1238	842.6216	891.1062	909.8839	916.0688	951.0206	1004.8059	1046.9238	1076.8641	1098.5426	1114.2106	1138.0936	1150.3034	1173.7739	1222.6421	1237.5166	1290.2449	1297.4464	1387.7568	1413.8543	1424.3598	1493.0736	1503.605	3025.1908	3039.0207	3088.2984	3096.3612	3125.8336	3130.7089	3158.7915	3803.7717
CC1C2C3OC2C13O	C[C@H]1[C@H]2[C@@H]3O[C@H]2[C@]13O	
InChI=1S/C6H8O2/c1-2-3-4-6(2,7)5(3)8-4/h2-5,7H,1H3	InChI=1S/C6H8O2/c1-2-3-4-6(2,7)5(3)8-4/h2-5,7H,1H3/t2-,3-,4-,5+,6-/m0/s1
