19
gdb 96760	2.66006	1.5085	1.15097	2.1232	78.59	-0.2203	0.0062	0.2266	1122.9359	0.159094	-419.157137	-419.148263	-419.147319	-419.190856	32.603	
C	-0.3048364425	 1.4036364589	-0.0065165257	-0.323353
N	-0.1523816189	-0.0377564168	-0.0238899815	-0.289535
C	 0.4732959555	-0.5740413777	-0.9735063122	 0.331956
C	 1.3480210888	-0.1460352996	-2.1855249497	-0.01111
O	 2.3724141222	 0.7902481979	-1.9542311295	-0.420878
C	 1.8198854716	-1.6170447321	-2.172860873	 0.005494
C	 2.9211057998	-2.0143126971	-1.1578924963	-0.25248
C	 1.7809311387	-2.5114614839	-0.2211785327	-0.173118
N	 0.7437209786	-1.9608220437	-1.1627019967	-0.151716
H	 0.2972307035	 1.8336952344	 0.8031283005	 0.129205
H	-0.0292942735	 1.9095423558	-0.9455764186	 0.079226
H	-1.3495849219	 1.652869561	 0.2087965713	 0.131435
H	 0.766570197	 0.0957095279	-3.086168987	 0.090754
H	 1.9891508011	 1.6724835265	-1.9518905904	 0.293836
H	 1.7999981335	-2.1551434325	-3.1223538706	 0.080237
H	 3.621041017	-2.7766144614	-1.5037694532	 0.107812
H	 3.4822058309	-1.1592550355	-0.776947276	 0.132051
H	 1.7014810198	-3.598610752	-0.14487894	 0.112503
H	 1.7205622388	-2.07396783	 0.7778554611	 0.12768
75.411	114.4659	170.4593	193.4854	204.2853	234.4781	266.8221	330.4919	500.5713	530.7795	634.4698	666.8569	709.8815	810.7852	831.6619	875.7614	893.0596	966.2979	986.3794	1028.4376	1061.4776	1069.1501	1115.3888	1128.5078	1153.0548	1162.4065	1192.9776	1208.4288	1227.1265	1243.8824	1259.5946	1281.9182	1307.585	1344.8989	1412.3382	1441.6174	1480.3177	1481.754	1501.0628	1507.6732	1801.7471	2968.4418	3002.9157	3053.4157	3063.5992	3077.9074	3080.0171	3091.4155	3116.7515	3140.8797	3830.9367
CN=C1C(O)C2CCN12	CN=C1[C@@H](O)[C@H]2CCN12	
InChI=1S/C6H10N2O/c1-7-6-5(9)4-2-3-8(4)6/h4-5,9H,2-3H2,1H3	InChI=1S/C6H10N2O/c1-7-6-5(9)4-2-3-8(4)6/h4-5,9H,2-3H2,1H3/t4-,5+/m1/s1
