18
gdb 85173	2.19252	1.73294	1.14861	3.4743	72.18	-0.25	0.0336	0.2836	1093.6063	0.147186	-439.085935	-439.077277	-439.076332	-439.11951	31.933	
C	 0.1301393554	 1.6183586252	-0.0668807178	-0.408999
C	 0.0853693941	 0.098166877	-0.0101948526	 0.052107
N	 1.1514689305	-0.5921935526	-0.75304023	-0.333285
C	 1.7216753946	-1.214801317	 0.3223635474	 0.452192
O	 2.6745907093	-1.9391557272	 0.4481112171	-0.376309
C	 0.6465295372	-0.620219735	 1.2734972685	-0.224327
C	 1.1422668781	 0.2102590249	 2.424897055	 0.058181
C	 2.4142867825	-0.0955841491	 3.0968292393	-0.183105
O	 2.301003897	 1.0145711109	 2.1985865357	-0.232122
H	 1.109825615	 1.994156422	 0.2346450598	 0.157756
H	-0.0849342561	 1.9690706201	-1.0819953185	 0.114717
H	-0.6291079231	 2.0468680896	 0.5959835489	 0.120737
H	-0.9114116169	-0.2634668245	-0.2901258304	 0.085042
H	 1.415849119	-0.5731749354	-1.7272572722	 0.249719
H	-0.0334907508	-1.3929920418	 1.6463601302	 0.106194
H	 0.3658848069	 0.710382608	 3.006912933	 0.094356
H	 2.5403200909	 0.1702824631	 4.145002034	 0.113657
H	 3.0145842965	-0.923657198	 2.7285796926	 0.153488
81.4322	100.7571	149.4846	173.8116	246.457	301.6767	365.5605	392.7805	433.1912	521.62	558.6368	707.798	741.7353	791.2064	822.7384	901.3475	904.1416	911.4823	993.9455	1040.7263	1081.1821	1099.2981	1113.6338	1134.483	1172.8773	1177.7518	1185.6793	1201.3382	1278.2256	1298.6086	1344.1923	1385.8275	1392.9355	1412.882	1424.5732	1492.7131	1499.8983	1521.1354	1884.1575	3026.2781	3038.4306	3067.735	3090.0446	3097.3135	3099.2354	3140.6147	3198.0376	3607.4051
CC1NC(=O)C1C1CO1	C[C@H]1NC(=O)[C@H]1[C@H]1CO1	
InChI=1S/C6H9NO2/c1-3-5(4-2-9-4)6(8)7-3/h3-5H,2H2,1H3,(H,7,8)	InChI=1S/C6H9NO2/c1-3-5(4-2-9-4)6(8)7-3/h3-5H,2H2,1H3,(H,7,8)/t3-,4-,5-/m1/s1
