22
gdb 7539	4.37378	0.99876	0.93888	1.3011	78.83	-0.2566	0.0807	0.3373	1338.9071	0.198333	-350.194489	-350.184481	-350.183537	-350.229165	36.427	
C	-0.0480875082	 1.4356685908	-0.2558463796	-0.414954
C	 0.0681561309	-0.0389906128	 0.06494796	-0.033282
C	 1.3929524968	-0.762756789	-0.0152327317	-0.329799
C	 0.7083460952	-0.5882970523	 1.3265725005	 0.35349
C	 1.3259087455	 0.3649894586	 2.3356074189	-0.465944
C	 0.0477969632	-1.8191751114	 1.9323560126	-0.243818
C	 1.0095493472	-2.7645092927	 2.647801484	-0.074734
O	 0.2616067765	-3.9003994258	 3.0614526744	-0.420891
H	 0.8494281769	 1.9943716132	 0.0231569767	 0.114543
H	-0.1966162658	 1.5815562316	-1.3317213218	 0.116955
H	-0.899406681	 1.8942079724	 0.2602418936	 0.115449
H	-0.7876233045	-0.6157965271	-0.2797330475	 0.079489
H	 1.4232123902	-1.7518295803	-0.4617390733	 0.104859
H	 2.2780166498	-0.1643812501	-0.2111241942	 0.101678
H	 1.7593500593	 1.245892215	 1.8565287639	 0.113433
H	 0.5780993725	 0.7127786551	 3.0586225312	 0.113582
H	 2.1294018937	-0.118739611	 2.9017063919	 0.115669
H	-0.7342838856	-1.517116848	 2.6413023386	 0.099269
H	-0.4518904229	-2.395866491	 1.145500962	 0.101243
H	 1.8240039276	-3.0498202927	 1.9624436687	 0.085753
H	 1.4708667922	-2.2633710296	 3.5124960874	 0.084249
H	 0.8530699004	-4.4924780228	 3.5347186439	 0.283761
82.0702	85.6654	131.9286	165.9606	173.8223	254.97	265.7039	280.6908	315.6403	357.9441	414.9799	438.8455	528.9578	720.5273	782.1396	802.7937	879.8313	905.1421	941.9648	985.371	1008.3071	1011.0623	1052.226	1066.0101	1071.8762	1110.3516	1135.5367	1152.2375	1193.4143	1222.566	1244.907	1273.9265	1304.1207	1346.7764	1359.8792	1407.6698	1419.9901	1425.0902	1458.9492	1480.2386	1487.9153	1492.5396	1498.2506	1502.118	1516.0465	1528.7233	2967.8774	2995.5658	3021.4518	3026.2119	3030.2758	3068.8506	3082.1981	3084.6627	3101.3186	3115.5582	3120.1271	3127.1047	3200.9892	3830.1883
CC1CC1(C)CCO	C[C@H]1C[C@]1(C)CCO	
InChI=1S/C7H14O/c1-6-5-7(6,2)3-4-8/h6,8H,3-5H2,1-2H3	InChI=1S/C7H14O/c1-6-5-7(6,2)3-4-8/h6,8H,3-5H2,1-2H3/t6-,7-/m0/s1
