20
gdb 93247	2.73359	1.29757	0.92659	3.7893	75.17	-0.2427	0.0063	0.2489	1275.0185	0.172254	-440.328441	-440.319408	-440.318464	-440.362157	33.942	
C	-0.1359923589	 1.5403206234	-0.004928808	-0.409207
C	 0.0215432639	 0.0174504135	 0.0236908648	-0.010471
C	 0.7695754637	-0.46211774	-1.2167646316	-0.061213
O	 1.0485320524	-1.8727960834	-1.2446563922	-0.232303
C	 1.3343505464	-2.5662855436	-0.1179523674	 0.391299
O	 1.8707453278	-3.6389393966	-0.2085890508	-0.329907
C	 0.8561385564	-2.008212416	 1.2374963656	-0.114248
N	 1.6156401098	-2.5256987762	 2.3679927319	-0.513241
C	 0.7693753165	-0.4822528316	 1.261782294	-0.205535
H	 0.8401392268	 2.0384773385	 0.007097461	 0.121173
H	-0.6704939083	 1.8716101646	-0.9013188247	 0.120306
H	-0.6976880621	 1.8874719514	 0.8672183359	 0.125344
H	-0.9779346438	-0.4393622857	 0.0157411686	 0.087912
H	 0.1982756567	-0.2674639917	-2.1283158521	 0.122554
H	 1.727623037	 0.0698186479	-1.3023351923	 0.110574
H	-0.1706039232	-2.3965133873	 1.3295263673	 0.117247
H	 1.7492738081	-3.5240202658	 2.223189853	 0.24389
H	 2.5530930933	-2.1297148156	 2.3449604236	 0.224167
H	 1.7821527625	-0.0521408914	 1.2757526432	 0.095551
H	 0.278631375	-0.1638133844	 2.1865116201	 0.116109
72.7055	125.9497	188.7975	225.5883	250.3942	259.133	311.7027	377.1776	407.2146	417.9762	438.7691	566.8772	592.1665	722.6914	793.2114	869.9278	908.258	935.5774	956.2674	986.4879	1008.3165	1063.8663	1082.3045	1117.3974	1170.4967	1176.8054	1181.4333	1223.4086	1247.9532	1298.3551	1327.0345	1346.0581	1362.8363	1390.8077	1404.9707	1411.0225	1433.3641	1491.6337	1498.3743	1501.7899	1513.6725	1671.8289	1829.9571	2985.3117	3000.8927	3006.5304	3021.1585	3032.772	3081.0167	3091.8076	3099.9306	3109.2588	3474.4143	3547.0691
CC1COC(=O)C(N)C1	C[C@H]1COC(=O)[C@@H](N)C1	
InChI=1S/C6H11NO2/c1-4-2-5(7)6(8)9-3-4/h4-5H,2-3,7H2,1H3	InChI=1S/C6H11NO2/c1-4-2-5(7)6(8)9-3-4/h4-5H,2-3,7H2,1H3/t4-,5+/m1/s1
