19
gdb 63774	3.29409	1.19216	1.04153	3.5647	77.03	-0.2333	-0.0226	0.2108	1201.2628	0.156682	-422.998388	-422.989473	-422.988529	-423.031839	33.736	
C	 1.5635367	 0.6453393797	-1.8443309045	-0.442885
C	 1.7435737851	-0.7382576904	-1.2426903679	 0.393114
C	 1.1373524056	-1.817479854	-2.1354188411	-0.414494
O	 3.1579009522	-1.0834724255	-0.9857610902	-0.327285
C	 2.8255006297	-1.5130842217	 0.3333077706	 0.060414
C	 2.4314789408	-0.3437635436	 1.2007616017	-0.140881
C	 3.0894211797	 0.9847851126	 1.0888801342	 0.135687
O	 3.0598509884	 1.8138590452	 1.9681703863	-0.275957
C	 1.4246884411	-0.997750139	 0.234539048	-0.183692
H	 2.0942072417	 0.7077362368	-2.8000699938	 0.13132
H	 0.5020191749	 0.8330559533	-2.0352437999	 0.125124
H	 1.934638227	 1.4379825334	-1.1941238869	 0.13006
H	 1.5972015621	-1.7831984623	-3.1273468582	 0.12893
H	 1.3027005177	-2.8107733855	-1.7106531848	 0.124071
H	 0.0591132843	-1.6627338309	-2.2498900289	 0.11798
H	 3.2573732991	-2.4370218555	 0.6997135866	 0.11501
H	 2.1889123066	-0.6019963632	 2.2287618753	 0.114527
H	 3.6637927534	 1.1510890766	 0.1570026241	 0.099358
H	 0.4963118005	-1.4010800963	 0.6166052393	 0.109599
79.4317	128.9805	171.527	226.4542	244.0003	279.4271	339.1226	351.2991	384.7333	446.7726	532.2897	617.9813	638.5448	787.6462	800.6522	847.1725	880.6236	934.275	957.0244	973.09	1000.3434	1025.598	1037.8033	1053.2499	1055.0524	1078.1178	1164.6654	1189.9012	1218.8286	1249.6865	1301.25	1331.533	1372.5514	1402.3509	1417.8645	1442.6911	1475.6282	1478.4711	1497.4473	1503.1074	1803.3435	2943.9158	3037.6426	3046.4442	3105.778	3113.2402	3125.0357	3144.278	3152.8359	3180.9449	3204.6552
CC1(C)OC2C(C=O)C12	CC1(C)O[C@H]2[C@@H](C=O)[C@@H]12	
InChI=1S/C7H10O2/c1-7(2)5-4(3-8)6(5)9-7/h3-6H,1-2H3	InChI=1S/C7H10O2/c1-7(2)5-4(3-8)6(5)9-7/h3-6H,1-2H3/t4-,5+,6-/m0/s1
