16
gdb 123627	4.22244	1.55443	1.3645	1.7541	73.96	-0.2073	0.0197	0.227	931.2822	0.130308	-396.879585	-396.873601	-396.872657	-396.909889	24.776	
C	-0.0374395075	 1.5772979859	-0.0634074164	-0.192842
C	 1.5121083313	 1.3243212966	 0.0141336881	-0.150211
N	 1.1462449675	 0.2273546727	 0.9861978451	-0.28858
C	-0.026311027	 0.0106332608	 0.0472859887	-0.165001
C	 0.6582884282	-0.3637242766	-1.2700194109	 0.254905
C	 1.7042906565	 0.5378623993	-1.2802782465	 0.387115
N	 2.3653313578	 0.3751202979	-2.4371500308	-0.369242
N	 1.8167674092	-0.6136273252	-3.1959756048	-0.232997
C	 0.7643624337	-1.0520058683	-2.4864877715	-0.211367
H	-0.4201171137	 2.0648564984	 0.8354323255	 0.114429
H	-0.4368103594	 2.019917303	-0.9759686321	 0.107214
H	 2.2293850507	 2.0789502619	 0.3323046702	 0.079912
H	 1.8077004113	-0.5498758043	 0.9462986584	 0.207445
H	-0.8736939841	-0.5595653791	 0.4226947798	 0.078284
H	 3.1884558571	 0.8401117355	-2.7807979413	 0.271343
H	 0.1565513984	-1.8453667385	-2.8958719714	 0.109593
126.489	304.7057	401.8914	487.8737	526.0791	537.7203	671.6639	685.1576	698.7662	755.545	797.8333	842.0243	884.6545	903.6153	907.0408	975.3518	1018.6594	1040.2831	1044.4882	1079.0091	1114.8029	1129.5646	1137.2422	1211.5815	1228.3979	1249.5443	1266.0518	1270.6395	1316.8365	1341.3903	1353.2568	1461.9141	1483.8535	1540.3544	1543.8487	3077.7281	3135.1449	3141.6338	3154.0535	3245.3331	3435.3605	3671.0238
C1C2NC1C1=C2NN=C1	C1[C@H]2N[C@@H]1c1c2[nH]nc1	
InChI=1S/C6H7N3/c1-4-3-2-7-9-6(3)5(1)8-4/h2,4-5,8H,1H2,(H,7,9)	InChI=1S/C6H7N3/c1-4-3-2-7-9-6(3)5(1)8-4/h2,4-5,8H,1H2,(H,7,9)/t4-,5+/m0/s1
