17
gdb 46161	4.808	0.99736	0.85062	3.6223	75.12	-0.2412	0.0401	0.2812	1294.7912	0.137759	-418.024944	-418.016432	-418.015488	-418.05822	31.892	
O	 0.000918482	-0.0753699721	-0.1487363406	-0.415456
C	-0.0135139726	 1.1338225703	-0.0004363918	 0.43457
N	-1.1855603442	 1.8479534666	 0.1407256814	-0.348776
C	-1.292326254	 3.2924630392	 0.0599303133	-0.159319
C	-0.0421199892	 3.9278383037	 0.6980220136	-0.183289
C	 1.2074574321	 3.3263722253	 0.0267200218	-0.159318
N	 1.1420781887	 1.8795245434	 0.1098031035	-0.34878
C	-0.0633027382	 5.3794127389	 0.5849683477	 0.306455
C	-0.081105185	 6.5754142687	 0.4698638972	-0.436838
H	-2.0060164658	 1.2900912521	-0.0329604746	 0.252042
H	-1.3835265668	 3.6515957889	-0.9764766682	 0.114719
H	-2.1882087464	 3.6178476335	 0.5968205982	 0.124567
H	-0.0241662479	 3.6409559236	 1.7569202132	 0.127139
H	 1.2613313858	 3.687476885	-1.01161234	 0.114719
H	 2.1081320842	 3.6761201049	 0.5397456966	 0.124567
H	 1.972439142	 1.3440623135	-0.0859219295	 0.25204
H	-0.0967751647	 7.6336954146	 0.3811807882	 0.200958
81.0435	123.6554	139.2416	171.062	301.448	387.5144	415.5755	456.8205	496.7006	510.2617	541.344	593.6577	643.0005	656.8665	712.8592	760.3504	834.1978	914.8001	959.9405	1033.0454	1036.423	1132.5394	1134.2048	1164.6275	1224.5284	1278.2951	1286.0529	1299.4298	1348.7761	1404.3686	1412.4547	1467.378	1477.3011	1526.4454	1530.9324	1807.897	2242.0152	2983.6321	2989.0528	3036.103	3076.6491	3079.7346	3503.2016	3645.5705	3648.3382
O=C1NCC(CN1)C#C	O=C1NCC(CN1)C#C	
InChI=1S/C6H8N2O/c1-2-5-3-7-6(9)8-4-5/h1,5H,3-4H2,(H2,7,8,9)	InChI=1S/C6H8N2O/c1-2-5-3-7-6(9)8-4-5/h1,5H,3-4H2,(H2,7,8,9)
