17
gdb 30511	2.50393	1.65867	1.01014	1.7531	82.61	-0.2203	-0.0562	0.1641	1156.0501	0.135417	-418.034095	-418.025424	-418.02448	-418.067823	31.29	
C	-0.0037947377	 1.4125948582	-0.1559457433	-0.324091
N	-0.0094217883	-0.0377266711	-0.2360433546	-0.303603
C	-1.0638168175	-0.6623233019	 0.0828469088	 0.352762
O	-2.201042961	 0.0164656863	 0.5029625693	-0.235143
C	-3.3093376281	-0.6898234303	 0.8362920239	 0.039137
C	-3.3400252681	-2.0271654213	 0.7716621827	-0.094197
N	-2.2416409067	-2.7711682346	 0.3602957591	-0.297654
C	-1.1666610329	-2.1336975393	 0.034552367	 0.267319
C	 0.046684627	-2.887162036	-0.4159925763	-0.458437
H	 0.9774188524	 1.7843967326	-0.4584864897	 0.122345
H	-0.7639123338	 1.8607725711	-0.8102944408	 0.124118
H	-0.2131837497	 1.7670526826	 0.8625129883	 0.123995
H	-4.1260981732	-0.0507706276	 1.1468227951	 0.138355
H	-4.2329259737	-2.5766722562	 1.0412689964	 0.119576
H	-0.1655924345	-3.9566131126	-0.4048745089	 0.13402
H	 0.3424092919	-2.570668204	-1.4213850535	 0.145737
H	 0.899035964	-2.6639481961	 0.2337051465	 0.145761
67.1725	108.5205	152.9701	193.0671	199.2418	265.2906	315.6702	478.0343	492.367	551.879	561.7649	564.3949	733.6648	760.0035	818.2295	893.603	915.6255	967.1248	1042.7354	1050.8936	1060.8219	1081.1818	1105.9908	1172.4643	1207.1925	1273.7135	1320.8351	1405.4942	1417.4893	1436.4564	1462.1918	1464.8053	1483.5132	1496.9119	1613.2369	1672.7224	1732.7801	3000.5963	3046.5966	3049.7104	3101.4048	3112.6288	3155.0094	3206.3552	3228.6573
CN=C1OC=CN=C1C	C[N]C1=C([N]C=CO1)C	
InChI=1S/C6H8N2O/c1-5-6(7-2)9-4-3-8-5/h3-4H,1-2H3	InChI=1S/C6H8N2O/c1-5-6(7-2)9-4-3-8-5/h3-4H,1-2H3
