15
gdb 33634	3.14759	1.59489	1.40681	5.0537	77.24	-0.2379	-0.0709	0.167	943.0195	0.113396	-379.554447	-379.547656	-379.546712	-379.58553	26.893	
N	-0.466604254	-1.2249532922	 0.0108271663	-0.348889
C	-0.2846407119	-0.0829729738	-0.010697819	 0.171089
C	-0.0282019211	 1.3194594238	-0.0290563328	 0.224799
C	-0.509464366	 2.4376056365	 0.8210729945	-0.096158
C	 0.9690720351	 2.7861511062	 1.2825064424	-0.272473
C	 1.3375738843	 2.0724698421	-0.02779892	-0.021638
C	 1.3721227715	 2.8758024413	-1.1081633976	-0.093551
C	-0.0230568001	 2.9165995649	-1.7140497303	-0.191643
N	-0.8837119642	 2.3182605198	-0.6478520613	-0.154625
H	-1.3686794233	 2.4289345858	 1.4828575011	 0.137102
H	 1.2690268721	 3.8316557122	 1.3748779063	 0.120426
H	 1.1615723316	 2.24686276	 2.2157138269	 0.132156
H	 2.0210638588	 3.7447484687	-1.1651552409	 0.119143
H	-0.2961274714	 3.9595142874	-1.9073814942	 0.133007
H	-0.2100194514	 2.3447538773	-2.6306479013	 0.141255
130.3961	162.367	269.9286	391.3618	419.4888	519.2629	545.0177	560.8967	600.335	691.9449	758.0303	787.754	820.8973	862.1187	909.0796	924.614	973.0514	991.7291	1015.4693	1024.4371	1066.3022	1092.0337	1108.6322	1199.9984	1206.9809	1234.0337	1272.143	1304.5806	1375.5238	1470.2342	1499.1855	1580.7818	2356.4147	3037.159	3048.2965	3084.3183	3121.9061	3173.7839	3184.4108
N#CC12C3CC1=CCN23	N#C[C@@]12[C@H]3C[C]1[CH]CN23	
InChI=1S/C7H6N2/c8-4-7-5-1-2-9(7)6(7)3-5/h1,6H,2-3H2	InChI=1S/C7H6N2/c8-4-7-5-1-2-9(7)6(7)3-5/h1,6H,2-3H2/t6-,7+,9?/m1/s1
