21
gdb 57281	2.56521	1.24016	1.0349	1.1311	84.37	-0.2601	0.037	0.2971	1262.5555	0.179896	-387.046891	-387.0369	-387.035955	-387.081419	37.885	
C	 0.0742922821	 1.5019456999	 0.0914184242	-0.402042
C	-0.0358238617	-0.0280372438	 0.0336655985	 0.125542
O	 0.5708524721	-0.5010999205	 1.2443829682	-0.448827
C	-1.4445886197	-0.4480432066	-0.0153599302	 0.318879
C	-2.583948631	-0.8310760195	-0.0562317554	-0.48926
C	 0.7023804418	-0.5781834766	-1.2041739372	 0.062006
C	 2.2465566736	-0.4143933699	-1.2747325306	-0.245262
C	 2.3246601503	-1.8342170033	-1.8975137955	-0.216378
C	 0.8954107716	-2.1120421764	-1.3583487358	-0.242029
H	 1.1277030329	 1.7857902191	 0.162986405	 0.129118
H	-0.3568690953	 1.9551732718	-0.8045375604	 0.12087
H	-0.4506700077	 1.8820278279	 0.9701443387	 0.130272
H	 0.2586260586	-1.3985687526	 1.398540834	 0.285961
H	-3.5942290272	-1.1572911803	-0.0874731783	 0.198269
H	 0.224354612	-0.1672186704	-2.0993736922	 0.075182
H	 2.6450710702	 0.421614049	-1.854058475	 0.093182
H	 2.6728662684	-0.3908802681	-0.2685924099	 0.117726
H	 2.3437596592	-1.7982965816	-2.9904961588	 0.10171
H	 3.1288818779	-2.4910201344	-1.5582945257	 0.097159
H	 0.9324014263	-2.6129726638	-0.3857023671	 0.086842
H	 0.1945558157	-2.6499287101	-1.9998047165	 0.101079
73.8981	113.0282	138.5376	178.2518	218.3713	235.4088	264.9823	289.1328	362.5073	414.6535	455.3464	532.5529	586.7247	623.3453	630.3774	661.8302	731.904	780.1304	839.3104	893.9286	929.6988	936.0436	953.4678	964.5139	1018.8585	1034.2788	1075.9417	1122.6968	1176.9592	1200.8963	1205.3802	1247.4884	1258.3184	1259.0174	1278.5854	1288.6214	1347.7345	1369.6833	1401.9394	1471.7295	1480.3515	1484.6193	1491.2598	1506.6879	2226.6295	3049.637	3051.5989	3055.7095	3057.248	3064.7623	3101.4418	3113.1488	3125.4644	3130.1579	3137.6874	3500.1581	3822.6851
CC(O)(C#C)C1CCC1	C[C@@](O)(C#C)C1CCC1	
InChI=1S/C8H12O/c1-3-8(2,9)7-5-4-6-7/h1,7,9H,4-6H2,2H3	InChI=1S/C8H12O/c1-3-8(2,9)7-5-4-6-7/h1,7,9H,4-6H2,2H3/t8-/m1/s1
