20
gdb 58019	1.9172	1.43441	1.02303	2.9811	81.08	-0.2433	0.0275	0.2708	1263.2121	0.167874	-403.161542	-403.150794	-403.14985	-403.197639	39.185	
C	 2.1190590083	-0.4268073345	 0.9863798233	-0.405742
C	 0.6957890207	-0.0492933671	 0.5604847785	 0.050637
C	 0.4370084676	 1.4521425742	 0.716442081	-0.409641
C	 0.3720403975	-0.5273005764	-0.8889357328	-0.314936
C	 1.2502592927	 0.0582073905	-1.8964448131	 0.337415
C	 1.9809381092	 0.5337224904	-2.7268014025	-0.457306
C	 0.3012966907	-2.076392548	-0.9183926404	 0.4257
N	 1.0375126556	-2.6927742003	-1.8743378279	-0.540058
O	-0.3950253671	-2.6705280012	-0.1182895417	-0.369085
H	 2.2828446563	-1.5071595865	 0.925475987	 0.124292
H	 2.865254392	 0.0678555154	 0.3555030132	 0.121235
H	 2.2994706544	-0.1219946361	 2.0218216619	 0.11414
H	-0.0111167205	-0.6004619146	 1.1886522116	 0.11023
H	 1.1010984903	 2.0388564665	 0.0725645607	 0.123773
H	-0.5957995088	 1.709554892	 0.4579495594	 0.111193
H	 0.6110718494	 1.7646276508	 1.7508946248	 0.114572
H	-0.6565289156	-0.2087046813	-1.1062901605	 0.132883
H	 2.6153968481	 0.9694921471	-3.4589148789	 0.201317
H	 1.61126356	-2.1678146891	-2.5122253145	 0.26816
H	 1.0094650691	-3.6973845418	-1.9267494492	 0.261221
30.7276	79.2291	147.2994	172.0364	182.9718	224.299	250.7001	266.3597	323.0346	347.1488	404.6444	416.1393	498.9058	540.9372	595.6985	624.9888	631.2473	647.0553	702.6684	828.8633	880.7719	938.4246	951.0469	971.444	1000.5541	1102.479	1107.3156	1157.8592	1201.525	1253.6479	1285.9338	1347.2519	1353.4509	1379.3399	1403.9102	1423.1659	1487.4848	1493.2735	1503.9833	1510.6154	1605.3719	1796.0747	2220.7557	3021.5848	3029.8136	3036.3536	3063.3476	3098.8446	3101.5728	3107.6877	3109.5607	3499.1676	3596.1659	3733.5091
CC(C)C(C#C)C(N)=O	CC(C)[C@@H](C#C)C(=O)N	
InChI=1S/C7H11NO/c1-4-6(5(2)3)7(8)9/h1,5-6H,2-3H3,(H2,8,9)	InChI=1S/C7H11NO/c1-4-6(5(2)3)7(8)9/h1,5-6H,2-3H3,(H2,8,9)/t6-/m1/s1
