17
gdb 28036	3.94971	0.93563	0.86071	3.2522	80.76	-0.2154	0.0095	0.2249	1374.1565	0.13654	-380.916617	-380.907871	-380.906927	-380.951292	31.361	
C	-0.0029320593	 1.5192780858	 0.0062556457	-0.497667
C	 0.0132810945	 0.0204167742	 0.0142291626	 0.268837
C	-0.0211666344	-0.804772491	-1.0844402366	-0.187878
N	-0.0150086199	-2.1149214384	-0.6515904558	 0.024916
C	 0.0496979725	-3.2763557091	-1.5048764939	-0.311236
C	 1.4212703465	-3.6460293934	-1.898967701	 0.276882
N	 2.4927742341	-3.9411283473	-2.2127383362	-0.294747
C	 0.0426773264	-2.1309782322	 0.7236210268	-0.081948
C	 0.0542645033	-0.8313748577	 1.161518206	-0.257093
H	 0.8854243325	 1.934321422	 0.4959837904	 0.129168
H	-0.0292493987	 1.9091950456	-1.0153080573	 0.120309
H	-0.8759756207	 1.9183132995	 0.5356114434	 0.126275
H	-0.050295073	-0.5741681029	-2.1382116802	 0.122056
H	-0.4071467221	-4.1279662252	-0.9911230139	 0.169239
H	-0.5367677942	-3.0975143667	-2.4120224775	 0.169326
H	 0.0689871994	-3.0659673762	 1.2609723989	 0.124716
H	 0.0750341031	-0.5143987271	 2.1935765088	 0.098845
36.1166	72.2436	100.0112	218.7947	254.2228	285.9313	368.5876	389.6468	476.8789	605.8133	634.6876	650.4725	676.131	755.1078	762.2371	818.1308	916.876	965.9165	980.2673	1012.1821	1018.1865	1063.4831	1100.3068	1192.6383	1220.2601	1278.0499	1362.9483	1376.0499	1411.6945	1423.92	1431.7244	1458.1106	1483.3829	1498.3132	1534.868	1616.2683	2364.4454	3026.7893	3055.5799	3076.1995	3097.7281	3106.8211	3240.0852	3252.1736	3263.9847
CC1=CN(CC#N)C=C1	Cc1cn(CC#N)cc1	
InChI=1S/C7H8N2/c1-7-2-4-9(6-7)5-3-8/h2,4,6H,5H2,1H3	InChI=1S/C7H8N2/c1-7-2-4-9(6-7)5-3-8/h2,4,6H,5H2,1H3
