21
gdb 39465	2.09146	1.91083	1.26234	1.4767	82.9	-0.2395	0.0188	0.2583	1079.0793	0.185061	-387.075095	-387.067096	-387.066152	-387.107523	31.878	
C	-0.3088728045	 1.553714128	 0.0328663135	-0.182309
C	 0.8687812958	 2.5573900312	-0.0237270448	-0.251648
C	 1.8709373034	 2.2014307793	-1.0821162242	-0.041305
C	 2.9169927192	 1.3970238091	-0.8941521916	-0.061462
C	 3.3705540849	 0.7801289426	 0.4147892942	-0.294551
C	 2.4505999557	-0.1338974528	 1.2263779579	 0.066727
O	 1.4519957406	 0.4398733497	 2.0793645085	-0.247636
C	 1.0196929315	-0.4511011401	 1.040717103	 0.054782
C	 0.0827743892	 0.0681272039	-0.044862328	-0.24093
H	-0.8704131963	 1.7353472997	 0.9556572235	 0.106661
H	-0.9983626033	 1.7501510534	-0.7975362887	 0.091826
H	 0.4647191605	 3.5600657519	-0.2043329983	 0.090966
H	 1.3506790118	 2.5703186607	 0.9565087844	 0.126811
H	 1.6859047444	 2.5786573746	-2.0866051628	 0.080399
H	 3.5516279967	 1.1720040811	-1.7483328433	 0.084789
H	 4.2695331845	 0.1893291883	 0.2095849089	 0.105269
H	 3.7002468874	 1.5714587096	 1.1039230148	 0.131046
H	 3.0268395453	-0.9036318833	 1.7464808029	 0.086734
H	 0.7221919485	-1.4283688066	 1.4291335471	 0.0836
H	-0.8403559091	-0.5199369415	 0.0130658923	 0.097145
H	 0.5199849639	-0.149182229	-1.0247604392	 0.113088
69.6935	208.0503	231.768	255.1198	257.8902	350.1978	366.6515	508.592	550.0669	588.381	679.8938	716.7427	745.4505	792.511	804.3696	851.8768	888.0349	909.1651	978.5682	993.1899	1007.8384	1017.2526	1045.4873	1082.9843	1102.6116	1131.1778	1166.2374	1204.9895	1225.0417	1263.5854	1285.1745	1302.9697	1336.13	1341.0653	1369.0233	1375.0774	1388.9633	1411.7279	1425.2613	1467.1686	1474.3884	1487.2153	1491.8821	1505.5242	1725.3777	3006.2501	3023.7998	3037.2553	3042.4748	3054.4091	3063.7946	3068.9477	3077.5969	3084.0828	3105.3187	3131.4556	3156.742
C1CC=CCC2OC2C1	C1CC=CC[C@H]2O[C@H]2C1	
InChI=1S/C8H12O/c1-2-4-6-8-7(9-8)5-3-1/h1,3,7-8H,2,4-6H2/b3-1-	InChI=1S/C8H12O/c1-2-4-6-8-7(9-8)5-3-1/h1,3,7-8H,2,4-6H2/b3-1-/t7-,8+/m1/s1
