13
gdb 26789	3.61072	1.17201	0.88972	4.3495	72.65	-0.2368	-0.0632	0.1736	1205.8245	0.08902	-452.793621	-452.785542	-452.784598	-452.826516	28.683	
C	 0.1796828175	 1.4873923411	 0.1267153123	-0.507507
C	-0.0181597409	 0.0243282236	 0.0192215282	 0.234209
C	-1.0967002237	-0.7855194999	-0.2100007017	 0.266647
O	-2.3678213071	-0.3999457322	-0.4131767389	-0.429446
N	-0.7186755074	-2.1005666738	-0.2095937771	-0.373061
C	 0.5661220429	-2.0585737064	 0.0172517974	 0.281914
O	 1.059950594	-0.8107889286	 0.1661278294	-0.189231
C	 1.4631218084	-3.1490322917	 0.1196721738	 0.265604
N	 2.1977022809	-4.0396375573	 0.2036280963	-0.327038
H	 0.8783184152	 1.8575611911	-0.6317756248	 0.151798
H	-0.7809214865	 1.9865250294	-0.0167042142	 0.159527
H	 0.57331405	 1.7710664822	 1.1090734408	 0.151794
H	-2.8940607534	-1.1980210175	-0.5449602615	 0.31479
112.0404	128.6817	150.7813	224.6941	247.8202	340.3248	350.4224	428.4446	499.7162	545.607	608.9623	652.9556	697.9241	738.3628	809.1481	987.9533	1024.6331	1063.6747	1134.8584	1190.0463	1317.4973	1327.4828	1408.49	1449.7847	1472.6609	1489.0398	1550.6887	1704.2367	2351.735	3034.0841	3086.9418	3137.1313	3808.6324
CC1=C(O)N=C(O1)C#N	Cc1c(O)nc(o1)C#N	
InChI=1S/C5H4N2O2/c1-3-5(8)7-4(2-6)9-3/h8H,1H3	InChI=1S/C5H4N2O2/c1-3-5(8)7-4(2-6)9-3/h8H,1H3
