18
gdb 60635	2.66414	1.20022	1.09838	4.8709	67.48	-0.245	0.0222	0.2672	1178.3154	0.148653	-476.239872	-476.231272	-476.230327	-476.27371	32.551	
N	 0.3467330468	 1.8712846541	 0.7611835595	-0.533876
H	 0.0238112412	 2.1737590155	-0.1530374011	 0.247127
H	 1.3544812054	 0.3616422404	 1.0126974333	 0.30145
H	 0.8323838004	 2.6570369869	 1.184436304	 0.253021
C	-0.7704918557	 1.4545056633	 1.593272305	-0.008517
C	-1.3494329047	 0.0850792206	 1.3363088358	-0.316552
C	-0.5377961757	 0.3334605867	 2.5795720809	-0.010595
C	 0.8312301501	-0.3095331171	 2.7484411256	-0.060219
O	 1.5761160623	-0.4382161905	 1.5449945666	-0.456861
C	 1.6514030127	 0.4470980241	 3.8179801567	 0.394907
O	 1.1953571942	 0.8179609062	 4.8665744475	-0.342805
O	 2.9322802765	 0.6310139912	 3.4665612311	-0.370325
H	-1.4707119992	 2.2309877159	 1.898070098	 0.094556
H	-2.4215313872	-0.0472673636	 1.4239370227	 0.121878
H	-0.8759736351	-0.5031860108	 0.5574750895	 0.13064
H	-1.0638496792	 0.4180801768	 3.5233741238	 0.123021
H	 0.6902772804	-1.3249049641	 3.143593339	 0.125885
H	 3.0079351367	 0.2314012447	 2.576682272	 0.307263
58.2203	72.6514	168.0765	263.3386	301.6047	320.0768	366.8976	411.1976	449.8916	533.529	558.797	653.491	732.9099	750.2541	800.9581	821.1646	849.9187	890.7756	931.4339	960.0758	992.3307	1026.8614	1060.09	1082.1627	1137.9773	1153.2638	1168.2145	1215.614	1235.2049	1262.8773	1297.4095	1315.538	1382.5882	1414.0855	1416.0594	1489.3321	1514.4473	1653.6345	1867.8222	3019.4274	3105.9785	3139.6953	3185.8519	3229.3234	3361.9151	3490.2904	3564.8737	3572.9223
[NH3+]C1CC1C(O)C([O-])=O	N[C@H]1C[C@H]1[C@@H](O)C(=O)O	
InChI=1S/C5H9NO3/c6-3-1-2(3)4(7)5(8)9/h2-4,7H,1,6H2,(H,8,9)	InChI=1S/C5H9NO3/c6-3-1-2(3)4(7)5(8)9/h2-4,7H,1,6H2,(H,8,9)/t2-,3+,4-/m1/s1
