17
gdb 74468	2.90824	1.48844	1.07369	2.7408	76.55	-0.2346	-0.0092	0.2254	1126.0497	0.136584	-418.064141	-418.055962	-418.055017	-418.096769	30.953	
C	-0.0293924216	 1.4757244638	-0.0143704087	-0.492592
C	-0.050576878	-0.0151734747	 0.0030169439	 0.348201
N	-1.1038544739	-0.7451362047	-0.0887688307	-0.336925
C	-0.6445109959	-2.1033321986	-0.0269007751	 0.214493
C	-1.4691654389	-3.1805648404	 0.6565674741	-0.295837
C	-1.3266902852	-3.1999134648	-0.8267143155	-0.295837
C	 0.8480982553	-2.1037701937	 0.1164658233	 0.382603
O	 1.6312949775	-3.0215337212	 0.2034566836	-0.384605
N	 1.1377584906	-0.74161554	 0.1269029257	-0.393553
H	 0.5742351301	 1.8504567902	-0.8487555214	 0.140678
H	-1.0493401288	 1.8461510904	-0.1178026404	 0.160265
H	 0.4043852409	 1.8734254726	 0.9100717193	 0.140716
H	-0.9083592382	-3.9048896138	 1.236804735	 0.140313
H	-2.4085401302	-2.8485755234	 1.0816875614	 0.134191
H	-2.1671685659	-2.8814034607	-1.4312853763	 0.134187
H	-0.6674814016	-3.9375772366	-1.2707132014	 0.140315
H	 2.0678522138	-0.3649227843	 0.2108195732	 0.263387
116.4816	160.2879	162.2786	224.7727	224.9996	295.8584	407.0162	490.978	498.9776	579.0801	626.434	660.669	746.9896	760.8501	789.6103	899.1626	913.0988	964.7471	974.8502	999.2329	1036.6775	1062.0311	1064.1258	1089.1839	1146.9052	1206.129	1254.0714	1288.5207	1355.2296	1398.7179	1430.2822	1445.6508	1478.69	1479.4627	1483.8662	1689.4301	1839.9089	3036.7508	3090.492	3142.7046	3143.1267	3157.2091	3234.2145	3248.2805	3655.3372
CC1=NC2(CC2)C(=O)N1	CC1=NC2(CC2)C(=O)N1	
InChI=1S/C6H8N2O/c1-4-7-5(9)6(8-4)2-3-6/h2-3H2,1H3,(H,7,8,9)	InChI=1S/C6H8N2O/c1-4-7-5(9)6(8-4)2-3-6/h2-3H2,1H3,(H,7,8,9)
