19
gdb 89769	2.15981	1.63397	1.10023	1.1221	81.45	-0.2303	0.0374	0.2677	1158.6439	0.15667	-385.827123	-385.818028	-385.817084	-385.86118	34.566	
C	-0.3997697365	 1.4262876994	-0.0706656361	-0.402852
C	 0.1047778997	 0.0008862598	-0.0214295631	 0.144821
O	 1.3175676484	-0.1858302699	-0.7953044159	-0.318697
C	 2.055970657	-0.5615209479	 0.3623430917	 0.474206
C	 3.1584247432	-1.563048832	 0.3241330762	-0.341057
C	 3.4467363416	-0.0926202699	 0.6128613522	-0.336052
C	 0.8252017829	-0.4938067961	 1.2804095746	-0.377361
C	 0.8804090071	 0.3805773106	 2.4323202019	 0.368095
C	 0.9429429902	 1.1029644164	 3.3919773547	-0.475186
H	 0.3570531755	 2.1230001118	 0.2980933863	 0.133168
H	-0.649390489	 1.6921742887	-1.102376879	 0.125303
H	-1.3000204929	 1.535600976	 0.5428698055	 0.121093
H	-0.6699438443	-0.6975333399	-0.3597933001	 0.083633
H	 3.2412527455	-2.2799376561	 1.1350336706	 0.116335
H	 3.4409333132	-1.9439723198	-0.6516254538	 0.125214
H	 3.9191056236	 0.4862140708	-0.173520604	 0.124299
H	 3.7128367755	 0.1995419336	 1.6234453053	 0.12505
H	 0.4787317508	-1.487509304	 1.5799105558	 0.110874
H	 0.9917916086	 1.7412736986	 4.2392515172	 0.199115
41.9295	119.943	151.1265	214.2262	238.2663	298.9972	340.4654	378.1668	431.653	496.441	542.313	621.7154	627.8173	644.3479	755.4026	798.8417	802.123	876.9836	890.0458	924.3004	970.5755	979.4154	1028.8257	1048.8101	1067.5278	1087.6817	1099.6549	1147.0153	1185.2236	1204.4039	1221.7704	1313.236	1329.1481	1369.0023	1395.7486	1411.5456	1447.7586	1480.5626	1488.1923	1500.0042	2233.3055	3027.2761	3041.476	3060.3843	3112.1283	3125.8258	3128.7339	3130.6854	3210.7493	3225.6286	3502.9035
CC1OC2(CC2)C1C#C	C[C@H]1OC2(CC2)[C@H]1C#C	
InChI=1S/C8H10O/c1-3-7-6(2)9-8(7)4-5-8/h1,6-7H,4-5H2,2H3	InChI=1S/C8H10O/c1-3-7-6(2)9-8(7)4-5-8/h1,6-7H,4-5H2,2H3/t6-,7+/m1/s1
