18
gdb 44754	3.0388	1.60071	1.25249	4.2959	77.98	-0.2384	-0.0347	0.2037	1019.225	0.151242	-401.976721	-401.969592	-401.968648	-402.008195	28.957	
O	 0.0083863956	-0.049288991	-0.3877564855	-0.380701
C	-0.0107404727	 1.1298288302	-0.0631739602	 0.369028
N	-1.2047845636	 1.7573668248	 0.1987246848	-0.327148
C	-1.4635617419	 3.1277320731	 0.5938551533	 0.019467
C	-0.7523800481	 4.1972157569	-0.2843806879	-0.226975
C	 0.4269758583	 4.181709044	 0.7404366856	-0.071687
C	-0.5966439496	 3.630186856	 1.7841776576	-0.226977
C	 1.4761518658	 3.1662884156	 0.3831005111	-0.081776
C	 1.2686097028	 1.8877393624	 0.0482578049	-0.126974
H	-1.9944625461	 1.1402148756	 0.0890582685	 0.245597
H	-2.5444860412	 3.2264293898	 0.7022894254	 0.081021
H	-0.5281958878	 3.9283615755	-1.317937367	 0.112674
H	-1.291280508	 5.1473924678	-0.2543153199	 0.106655
H	 0.8861673299	 5.1443322244	 0.9697387186	 0.071271
H	-1.0977927274	 4.4429174724	 2.3156589247	 0.106655
H	-0.2410877211	 2.8830096463	 2.4955753832	 0.112675
H	 2.5061236844	 3.5155053958	 0.4012758859	 0.103133
H	 2.1135757108	 1.2506205201	-0.1899996131	 0.114061
84.3311	228.2014	323.0384	345.9854	365.4021	460.1121	462.9582	511.1073	565.1595	696.4089	708.5309	781.8418	810.6861	830.2357	835.8036	861.85	916.5778	925.0867	1001.8576	1012.4047	1029.5206	1089.3466	1091.4241	1143.5837	1149.6503	1190.7089	1223.4242	1248.8998	1261.2029	1269.588	1336.2254	1369.4833	1397.8146	1422.8192	1466.2688	1468.8434	1496.122	1687.6957	1752.3887	3064.3528	3067.8947	3092.6486	3098.6235	3131.9775	3133.3232	3150.4823	3196.6089	3629.2021
O=C1NC2CC(C2)C=C1	O=C1N[C@@H]2C[C@@H](C2)C=C1	
InChI=1S/C7H9NO/c9-7-2-1-5-3-6(4-5)8-7/h1-2,5-6H,3-4H2,(H,8,9)	InChI=1S/C7H9NO/c9-7-2-1-5-3-6(4-5)8-7/h1-2,5-6H,3-4H2,(H,8,9)/t5-,6+
