18
gdb 72045	2.48709	1.66663	1.29884	1.7119	84.82	-0.2291	0.0246	0.2538	1048.8872	0.146996	-364.72218	-364.714125	-364.71318	-364.754404	31.773	
C	-0.1426812765	 1.4682063476	-0.0320635477	-0.490806
C	 0.0009788052	-0.0184118547	-0.0830754104	 0.285534
C	 0.9347108645	-0.8565140892	-0.9603216355	-0.293358
C	 0.1177066174	-2.0838457933	-0.484163635	-0.135875
C	 0.4027569663	-2.0943580513	 1.0226811754	-0.156513
N	-0.3209234113	-0.7876309219	 1.1693444447	-0.217291
C	-1.056861638	-1.0796730405	-0.119259695	 0.292615
C	-2.4538829927	-1.0703855442	-0.3135655639	-0.007717
C	-3.6413446406	-1.0782212999	-0.5142353084	-0.350961
H	 0.7509938149	 1.9280553218	 0.4045634634	 0.126054
H	-0.2829669463	 1.8818128579	-1.0359671097	 0.122267
H	-1.0016103288	 1.7467491781	 0.583513717	 0.142144
H	 0.7674208107	-0.6322711292	-2.0169314818	 0.110967
H	 2.0090021003	-0.8512152791	-0.7436196495	 0.095162
H	 0.0422216826	-2.9874980394	-1.0848523342	 0.084718
H	-0.1529119751	-2.8575525255	 1.5725153175	 0.115991
H	 1.4492178179	-2.0833095025	 1.3493313775	 0.097491
H	-4.6897217604	-1.0809017847	-0.6814774746	 0.179579
114.8864	146.0741	179.2186	255.6937	303.1572	409.1038	413.2182	492.8967	547.0973	582.3357	584.4153	622.0826	667.2015	706.2949	783.5751	837.3819	871.9852	935.0139	944.8794	972.8203	986.7511	1020.794	1041.2691	1091.9985	1142.9216	1148.9988	1175.7319	1196.8667	1226.8853	1262.9143	1305.3821	1318.6475	1400.9647	1436.5081	1482.8728	1488.8374	1493.9692	1514.6277	2229.152	3033.0616	3034.1823	3041.0907	3096.5262	3104.9943	3108.3362	3124.1228	3143.7635	3502.3799
CC12CC3CN1C23C#C	C[C@@]12C[C@H]3CN1[C@@]23C#C	
InChI=1S/C8H9N/c1-3-8-6-4-7(8,2)9(8)5-6/h1,6H,4-5H2,2H3	InChI=1S/C8H9N/c1-3-8-6-4-7(8,2)9(8)5-6/h1,6H,4-5H2,2H3/t6-,7-,8+,9?/m0/s1
