14
gdb 42282	3.71514	1.18503	1.01114	3.3481	68.96	-0.2578	-0.0708	0.187	1132.7669	0.10004	-436.666578	-436.65846	-436.657516	-436.700513	28.512	
O	 0.1329934731	-0.1222196194	 0.2074144932	-0.26809
C	 0.0355517652	 1.0768166872	 0.1078735837	 0.228564
C	 1.1877393319	 1.9568735642	 0.0045849277	 0.254457
C	 2.1213820014	 2.7123913628	-0.0773332669	-0.415969
C	-1.3046693061	 1.8084740386	 0.0306301306	-0.029229
C	-1.6716767014	 2.2086424438	-1.4394210083	-0.200359
N	-2.8131055185	 1.3454928162	-1.7712817394	-0.252816
C	-3.0929444303	 0.7128000513	-0.7124372136	 0.125431
O	-2.3630990606	 0.9218123591	 0.4140989774	-0.200481
H	 2.9601934071	 3.3622443328	-0.148345757	 0.222638
H	-1.2926818137	 2.6635507459	 0.7118963435	 0.120389
H	-1.9608797593	 3.2610548463	-1.5186190359	 0.12989
H	-0.8468773061	 2.0397054939	-2.1380625333	 0.134141
H	-3.8961670626	-0.0049839128	-0.5955215617	 0.151434
43.7392	72.924	129.2433	198.2668	266.3036	306.3239	448.3252	497.4693	598.1732	662.0685	692.0736	716.734	773.4156	803.2902	883.2676	958.9689	970.4487	979.3177	1002.1237	1044.8311	1114.0219	1130.3873	1192.4266	1270.3968	1310.2607	1330.3142	1366.4398	1500.0054	1713.5856	1786.6367	2210.6841	3051.3622	3075.5786	3091.7137	3229.3162	3491.8784
O=C(C#C)C1CN=CO1	O=C(C#C)[C@H]1CN=CO1	
InChI=1S/C6H5NO2/c1-2-5(8)6-3-7-4-9-6/h1,4,6H,3H2	InChI=1S/C6H5NO2/c1-2-5(8)6-3-7-4-9-6/h1,4,6H,3H2/t6-/m1/s1
