19
gdb 39407	2.40507	2.16202	1.72839	0.1427	72.75	-0.2421	0.063	0.3051	890.6782	0.162887	-422.995896	-422.989389	-422.988445	-423.026421	27.461	
C	 0.0890598733	 1.5090124352	-0.1054984021	-0.191243
C	 1.6037931621	 1.7795973896	-0.0158147299	-0.227334
C	 2.1524234478	 1.4756051718	 1.3845793702	 0.068307
O	 1.0953280654	 1.5098596051	 2.4003914167	-0.298443
C	 1.1058271223	 0.0842621341	 2.4795045263	 0.051751
C	 0.489208293	-0.6811723977	 1.2532524848	 0.067567
C	-0.3664111861	 0.0704510631	 0.2411226074	-0.202454
O	 1.8315193084	-0.9219299933	 0.7137881858	-0.30034
C	 2.399195904	-0.0424684946	 1.6803126716	 0.061448
H	-0.4075812136	 2.2089864709	 0.5697701951	 0.119229
H	-0.2527245426	 1.7505450997	-1.1175226206	 0.089338
H	 2.1566690456	 1.1754771527	-0.7437165486	 0.115891
H	 1.7821534496	 2.8316701828	-0.2620387897	 0.097097
H	 2.9687430195	 2.1459321119	 1.6708797216	 0.080956
H	 0.8923167227	-0.2977020151	 3.4786200162	 0.088443
H	 0.0238527229	-1.6371099664	 1.5204844031	 0.081033
H	-1.4053219441	 0.090353159	 0.5921385009	 0.100914
H	-0.359791723	-0.5513715111	-0.662461442	 0.111682
H	 3.381521583	-0.3514697478	 2.0395701832	 0.086157
186.8799	257.0891	294.7891	371.7201	388.6544	514.5176	602.9542	647.4711	699.3753	759.7309	798.4726	818.7943	848.3835	882.7836	895.1758	913.1728	942.6933	974.2463	1026.5335	1037.6212	1058.8194	1071.923	1083.1433	1129.977	1159.0437	1197.5557	1214.7331	1219.9758	1255.4859	1275.8133	1304.4388	1340.0763	1340.9239	1342.5192	1358.9085	1374.8673	1388.3895	1403.5798	1468.6952	1477.7343	1493.0606	3022.8938	3037.6027	3040.5074	3053.058	3059.2288	3062.297	3081.8806	3099.3777	3108.3608	3113.0307
C1CC2OC3C(C1)OC23	C1C[C@H]2O[C@H]3[C@@H](C1)O[C@@H]23	
InChI=1S/C7H10O2/c1-2-4-6-7(8-4)5(3-1)9-6/h4-7H,1-3H2	InChI=1S/C7H10O2/c1-2-4-6-7(8-4)5(3-1)9-6/h4-7H,1-3H2/t4-,5-,6+,7+/m1/s1
