18
gdb 102273	2.21532	1.13174	0.90682	1.0412	69.87	-0.2568	-0.0391	0.2177	1343.2964	0.144791	-476.262508	-476.252212	-476.251268	-476.298994	35.272	
C	-0.0285446137	 1.4820649471	 0.0137749689	-0.487578
C	-0.1590006403	 0.0062638708	 0.3486307622	 0.400936
O	 0.4243819753	-0.5172255806	 1.2803984074	-0.365736
N	-0.9856611149	-0.7071383513	-0.4825142798	-0.331289
C	-1.0152913845	-2.1541610768	-0.4399804538	-0.081336
C	-1.9353890061	-2.6841063121	 0.6784690631	-0.08686
O	-3.2731922507	-2.2698304673	 0.4910633749	-0.416821
C	-1.4868096895	-2.6700253073	-1.7852583218	 0.171021
O	-1.7361249883	-1.9597677645	-2.726413229	-0.258692
H	 0.1346873796	 2.0408725192	 0.9360267471	 0.154538
H	 0.8471565773	 1.6281123825	-0.6277596253	 0.153691
H	-0.904565829	 1.8759036541	-0.5080999047	 0.126765
H	-1.2790771769	-0.3099434363	-1.3658178036	 0.259025
H	-0.0057461112	-2.5523848739	-0.2521339701	 0.122924
H	-1.9402976749	-3.7794965622	 0.6621450192	 0.11478
H	-1.5228907944	-2.3570676003	 1.640436756	 0.134348
H	-3.2707729608	-1.3058262341	 0.4975093105	 0.288355
H	-1.5939961571	-3.772793007	-1.8437602912	 0.101929
56.8328	67.7668	88.2716	108.8303	141.8227	173.9892	247.7443	261.0399	338.4	371.7978	433.9069	581.5188	591.7242	655.2878	663.2191	700.5258	832.4736	898.9907	950.3611	977.9614	1005.9034	1053.1891	1069.1093	1099.8258	1171.3041	1213.3322	1245.6433	1281.4343	1350.9676	1384.4064	1395.1406	1407.5526	1422.9466	1466.9486	1485.5929	1505.4568	1512.3556	1778.5452	1824.9699	2926.9936	2998.498	3035.1239	3048.2458	3085.1023	3115.7749	3153.2319	3576.6251	3799.3021
CC(=O)NC(CO)C=O	CC(=O)N[C@@H](CO)C=O	
InChI=1S/C5H9NO3/c1-4(9)6-5(2-7)3-8/h2,5,8H,3H2,1H3,(H,6,9)	InChI=1S/C5H9NO3/c1-4(9)6-5(2-7)3-8/h2,5,8H,3H2,1H3,(H,6,9)/t5-/m1/s1
