15
gdb 18849	3.71713	2.34127	1.9532	2.5953	64.05	-0.2305	-0.0107	0.2198	723.7746	0.12113	-362.644207	-362.638328	-362.637384	-362.674124	23.388	
O	-0.00472595	 0.0248810037	 0.1274143044	-0.330177
C	-0.0357991793	 1.2161878544	-0.0077545668	 0.425744
C	-1.1384508747	 2.2367521619	 0.071456386	-0.176705
C	-0.0713178072	 3.2788978422	 0.3932064692	-0.057388
C	 1.0655619445	 2.3099746112	-0.0463603984	-0.178765
C	 1.3746943478	 2.7171473073	-1.4930965621	-0.229952
C	-0.0204062575	 3.1571007364	-2.0006977346	-0.16457
N	-0.8609336527	 3.402585549	-0.8001884768	-0.089242
H	-2.1493018367	 2.1061322056	 0.4408831121	 0.11396
H	-0.0743671424	 4.0222922424	 1.1797851223	 0.115313
H	 1.9208176225	 2.130287632	 0.6037420411	 0.097234
H	 2.0952208021	 3.5413664972	-1.5202749346	 0.109796
H	 1.7883411631	 1.8888208038	-2.0742272474	 0.123131
H	 0.0220251968	 4.08799866	-2.5723098364	 0.117998
H	-0.4998829265	 2.3996010229	-2.626404838	 0.123621
136.7638	210.4597	380.3543	454.5944	549.9336	660.0216	686.1155	757.1246	795.7066	831.4158	851.0342	863.9684	916.7369	925.6095	944.3483	989.0854	1012.1279	1025.2986	1068.5354	1116.9131	1157.9573	1194.1285	1206.2018	1225.383	1243.5945	1268.1651	1298.753	1331.877	1353.8962	1488.7019	1507.6792	1873.2151	3047.6183	3063.805	3097.02	3114.5262	3134.4689	3182.4108	3204.4962
O=C1C2C3C1CCN23	O=C1[C@H]2[C@H]3[C@@H]1CCN23	
InChI=1S/C6H7NO/c8-6-3-1-2-7-4(3)5(6)7/h3-5H,1-2H2	InChI=1S/C6H7NO/c8-6-3-1-2-7-4(3)5(6)7/h3-5H,1-2H2/t3-,4+,5+,7?/m0/s1
