14
gdb 30530	3.7058	1.06075	0.82521	7.6939	85.89	-0.1599	-0.0401	0.1198	1293.6955	0.102126	-470.025774	-470.017743	-470.016799	-470.058705	29.36	
N	-0.011985811	 1.4433231654	 0.1469296041	-0.520516
C	-0.0604690691	 0.0783720869	 0.0247988242	 0.097987
N	 1.0017422967	-0.6834911293	 0.007304458	-0.296369
H	 1.9284207212	-0.2601293166	 0.0138052635	 0.282413
C	 1.0839034391	-2.0573674384	-0.0108876759	 0.148059
C	 2.3218842053	-2.729219487	-0.0481723876	 0.337913
O	 3.4852390047	-2.3761669549	-0.0688017102	-0.436775
O	 1.9096670905	-4.0986525096	-0.058717766	-0.212284
C	 0.5543571724	-4.0769500343	-0.0289325708	 0.068326
N	 0.0019222234	-2.9064296806	-0.0006856286	-0.338339
H	 0.8576634584	 1.9059388395	-0.0789817139	 0.269887
H	-0.8206759563	 1.9377030991	-0.1978035853	 0.280029
H	-1.024249446	-0.4118119656	 0.0245340508	 0.183731
H	 0.0492860706	-5.0309933847	-0.0317282023	 0.135936
109.3817	112.9084	148.4963	265.0581	313.4498	328.3082	370.9318	400.8284	529.3841	582.1486	646.1461	700.4404	724.0547	779.261	788.2829	805.9482	919.2545	936.0852	950.3356	1089.3573	1137.9355	1238.3035	1310.2243	1317.197	1367.7536	1438.4658	1487.7888	1572.0535	1653.32	1738.5768	1821.2093	3246.4728	3258.1443	3502.7398	3563.5349	3674.2953
NC=[NH+]C1=C([O-])OC=N1	[NH2]=CN[C]1C(=O)OC=N1	
InChI=1S/C4H5N3O2/c5-1-6-3-4(8)9-2-7-3/h1-2,8H,(H2,5,6)	InChI=1S/C4H5N3O2/c5-1-6-3-4(8)9-2-7-3/h1-2H,5H2,(H,6,7)
