19
gdb 114672	3.47368	1.14374	1.06594	2.3852	70.79	-0.2397	0.0611	0.3008	1182.8775	0.160279	-460.123917	-460.115872	-460.114928	-460.156422	31.782	
O	-0.0471016329	 1.3919808229	-0.2066617559	-0.421069
C	 0.0658785253	 0.0187475939	 0.1129297535	-0.08604
C	-1.3044863407	-0.6472538425	 0.0886875427	 0.113279
O	-1.945699833	-0.3753503403	-1.1981729791	-0.312454
C	-2.3245859404	-1.6931187999	-1.6296034486	 0.06119
C	-2.880688474	-2.3591618112	-0.3503455892	-0.246753
C	-1.3901449439	-2.1783858902	 0.0942832084	-0.108683
C	-1.0154966239	-2.5043549255	-1.3869461002	 0.12594
O	-1.0703721965	-3.8910807682	-1.624867672	-0.438601
H	-0.5726595986	 1.4279410928	-1.0153729633	 0.292574
H	 0.7616883822	-0.495017447	-0.5674563976	 0.085443
H	 0.485425958	-0.0416967391	 1.1235748357	 0.105795
H	-1.9194754573	-0.2000447295	 0.8804130846	 0.085758
H	-2.8498283078	-1.636607932	-2.5827960484	 0.077218
H	-3.651067969	-1.8149126312	 0.2000047186	 0.10034
H	-3.1465786561	-3.40397191	-0.4945943786	 0.123393
H	-0.9496775404	-2.7188993738	 0.9307587387	 0.083573
H	-0.1023194985	-2.0564551819	-1.7950559604	 0.070579
H	-1.0223675624	-4.0322783374	-2.5757519889	 0.288518
87.838	161.0397	229.7046	291.0259	309.8576	318.9228	399.1127	462.5744	473.5924	525.3841	562.6829	658.8032	813.2673	849.5577	860.2134	898.7191	924.4704	966.0404	974.3958	1006.1691	1021.1095	1072.9663	1078.4476	1090.1595	1111.166	1136.1259	1142.1272	1194.7028	1223.4858	1232.9489	1253.2627	1265.9233	1273.9146	1313.15	1322.7068	1357.9753	1404.7145	1419.8585	1444.0609	1483.3822	1504.7327	2986.5772	3021.0039	3042.4833	3067.1706	3082.2088	3126.1844	3135.0403	3170.5147	3786.5778	3816.1297
OCC1OC2CC1C2O	OC[C@H]1O[C@@H]2C[C@H]1[C@H]2O	
InChI=1S/C6H10O3/c7-2-5-3-1-4(9-5)6(3)8/h3-8H,1-2H2	InChI=1S/C6H10O3/c7-2-5-3-1-4(9-5)6(3)8/h3-8H,1-2H2/t3-,4-,5-,6-/m1/s1
