20
gdb 83522	2.42912	2.00938	1.64719	1.5097	76.96	-0.2026	0.094	0.2966	936.4536	0.173709	-403.12278	-403.115586	-403.114642	-403.153936	29.725	
C	 0.1026053376	 1.4513773326	-0.2799440671	-0.334026
N	-0.0148638689	 0.0549045589	 0.1163709056	-0.045994
C	-1.3151912999	-0.5008465783	 0.5072687753	-0.069264
C	-0.9575819584	-2.0136005642	 0.5242667077	-0.202883
C	 0.5161908094	-1.9862753927	 1.0573181283	-0.202884
C	 0.7521479835	-0.4625160672	 1.254999051	-0.069262
C	-0.0919284033	-0.1082108591	 2.4957544706	 0.049123
O	-0.8563314387	 1.0973025087	 2.38939212	-0.255324
C	-1.4719498451	-0.1338065816	 1.9966196666	 0.049121
H	 1.1418946813	 1.6398926425	-0.5724521077	 0.110866
H	-0.5156525485	 1.6094275554	-1.1710049813	 0.110879
H	-0.1860245037	 2.1825990002	 0.4820403558	 0.129202
H	-2.127895731	-0.2105772514	-0.1596586883	 0.06854
H	-1.6273787075	-2.5937034978	 1.1659842796	 0.094301
H	-1.0100503023	-2.4283479628	-0.4839622567	 0.105936
H	 0.6392891168	-2.5516692899	 1.9858250606	 0.094301
H	 1.2148526196	-2.3871065005	 0.3207717731	 0.105936
H	 1.7933659036	-0.1378787746	 1.2586192305	 0.068543
H	 0.1957948663	-0.4125031326	 3.4985907909	 0.096444
H	-2.324279601	-0.4592466255	 2.5871130956	 0.096443
149.4626	238.5531	253.013	283.5126	327.1524	395.5501	462.2209	603.5435	631.6148	694.9044	791.1862	811.8395	826.2466	868.3002	889.7698	907.5524	914.27	936.5495	944.2235	993.6992	1019.2095	1021.9271	1045.14	1114.0504	1136.069	1147.662	1179.107	1198.7565	1226.2827	1236.0678	1251.7863	1269.1664	1281.3336	1290.2405	1320.2076	1320.5711	1352.0969	1406.1506	1454.9668	1480.7903	1484.2093	1503.6163	1528.4194	3018.2302	3055.8373	3066.389	3083.782	3086.1706	3102.4829	3110.286	3110.4824	3123.367	3144.1715	3157.322
CN1C2CCC1C1OC21	CN1[C@H]2CC[C@@H]1[C@H]1O[C@@H]21	
InChI=1S/C7H11NO/c1-8-4-2-3-5(8)7-6(4)9-7/h4-7H,2-3H2,1H3	InChI=1S/C7H11NO/c1-8-4-2-3-5(8)7-6(4)9-7/h4-7H,2-3H2,1H3/t4-,5+,6-,7+
