21
gdb 63393	2.99423	1.14351	0.96699	3.765	79.4	-0.24	-0.0126	0.2274	1293.0266	0.17905	-424.235584	-424.225567	-424.224623	-424.270099	37.759	
C	-0.8564822209	 1.2730353649	-0.4737781368	-0.451738
C	 0.0726840776	 0.0943574357	-0.2305010026	 0.410838
O	-0.6499274525	-1.1341477069	-0.2405318078	-0.470688
C	 1.376783211	 0.0112489551	-1.0794881253	-0.320751
C	 2.2035358744	-0.3217438524	 0.2146094208	 0.22436
C	 3.4827033342	 0.4691429292	 0.4401368593	-0.462986
C	 0.9424756336	 0.0994008256	 1.0507912196	-0.292759
C	 2.4408717976	-1.8134164621	 0.3229553773	 0.118613
O	 3.5121395359	-2.3213265776	 0.5452996939	-0.267432
H	-0.3190894549	 2.2243997809	-0.4144926832	 0.1161
H	-1.3111320708	 1.2109380807	-1.4708175117	 0.108546
H	-1.6621731059	 1.2803200841	 0.267050277	 0.128972
H	-1.0557457002	-1.2322834998	-1.1093452514	 0.276412
H	 1.3744375174	-0.7369459394	-1.8779491522	 0.10094
H	 1.6784833347	 0.9742869745	-1.5001646978	 0.103798
H	 3.2941303721	 1.543967275	 0.3539630741	 0.101915
H	 3.8959434863	 0.26858277	 1.4330559339	 0.129226
H	 4.2480864815	 0.1913270719	-0.2904069945	 0.1288
H	 1.0669906492	 1.0977214538	 1.4767509538	 0.104497
H	 0.6045134133	-0.585077586	 1.8323770992	 0.118622
H	 1.5282034365	-2.4300760072	 0.1767058744	 0.094715
78.098	81.5739	192.6672	218.8822	239.1293	250.6166	297.3464	309.3245	321.7909	360.4369	391.655	425.2208	470.3664	499.8189	663.0264	754.596	827.3932	835.651	874.6276	908.2247	918.9869	938.2336	972.1897	1010.1718	1033.0473	1094.6045	1112.2837	1135.7151	1164.2595	1225.3683	1239.72	1265.8374	1278.2399	1333.771	1372.9343	1408.4432	1410.2679	1430.9726	1457.8515	1477.7571	1484.664	1489.312	1491.5533	1492.7065	1817.9484	2913.1995	3021.9829	3037.2752	3049.217	3065.3455	3089.2273	3105.2081	3108.8271	3113.5488	3114.2037	3124.2468	3794.442
CC1(O)CC(C)(C1)C=O	C[C@@]1(O)C[C@@](C)(C1)C=O	
InChI=1S/C7H12O2/c1-6(5-8)3-7(2,9)4-6/h5,9H,3-4H2,1-2H3	InChI=1S/C7H12O2/c1-6(5-8)3-7(2,9)4-6/h5,9H,3-4H2,1-2H3/t6-,7+
