17
gdb 17665	4.06682	1.50807	1.44845	2.1738	63.82	-0.243	0.0527	0.2958	925.8513	0.142151	-400.93915	-400.931363	-400.930419	-400.971542	28.771	
O	-0.1983237775	 1.417302646	 0.3144440694	-0.478699
C	 0.0190704993	 0.0385279236	 0.1438357036	 0.302338
C	 0.9269734708	-0.4094758695	-1.0353180426	-0.129888
O	 1.7193621909	-1.2267360321	-0.1529541125	-0.269114
C	 1.1039072119	-0.6508264669	 1.0154218009	-0.120994
C	-1.3229676122	-0.6549490618	 0.1830669006	 0.004057
C	-2.4135495022	-0.1581432127	 1.054743844	-0.251361
N	-2.5036438484	-0.0195213265	-0.4134043487	-0.3348
H	 0.6427180997	 1.8771479444	 0.2298646909	 0.287907
H	 0.4641534354	-0.9880894074	-1.8416469778	 0.119744
H	 1.5084955891	 0.4179767371	-1.4708269176	 0.086768
H	 1.764407878	 0.0651185239	 1.5275378573	 0.089338
H	 0.7715038874	-1.4108658133	 1.7308553842	 0.113489
H	-1.2491933664	-1.7243651476	-0.0047299891	 0.099456
H	-3.1160456333	-0.8609311828	 1.4933393635	 0.115842
H	-2.2215570511	 0.7354839725	 1.6397053428	 0.125627
H	-2.2572534015	 0.9389096931	-0.6535077187	 0.240288
81.3027	89.4558	212.9961	266.6159	273.5683	352.1523	364.7861	464.1387	509.503	706.0507	783.5834	858.609	875.0763	919.613	940.4243	978.9769	998.2173	1011.3289	1030.7203	1071.5629	1105.142	1129.3091	1145.275	1156.6522	1162.1817	1178.4188	1247.8357	1280.3784	1291.4006	1309.5842	1358.2662	1369.1465	1452.2457	1502.4722	1505.712	1529.2153	2978.9945	2992.1255	3066.8078	3071.1143	3118.0675	3129.1261	3209.9086	3494.4071	3824.529
OC1(COC1)C1CN1	OC1(COC1)[C@H]1CN1	
InChI=1S/C5H9NO2/c7-5(2-8-3-5)4-1-6-4/h4,6-7H,1-3H2	InChI=1S/C5H9NO2/c7-5(2-8-3-5)4-1-6-4/h4,6-7H,1-3H2/t4-/m1/s1
