16
gdb 124938	2.29123	1.84424	1.03478	5.596	74.96	-0.258	-0.0768	0.1812	1107.15	0.122685	-437.908429	-437.899637	-437.898693	-437.943827	30.887	
C	 0.0599975186	 1.5417408005	 0.1083230489	-0.506661
C	-0.008545862	 0.0382086097	 0.0163078185	 0.195227
C	-1.1647366865	-0.6705946167	-0.0318723151	 0.030732
C	-2.54781522	-0.0966393077	-0.0029932332	-0.481412
C	-1.0999329962	-2.131715955	-0.120955827	 0.417715
O	-2.0521536554	-2.8668871439	-0.1689551945	-0.329703
O	 0.1601946153	-2.7125756253	-0.1525393537	-0.258222
N	 1.3369547612	-1.9916927692	-0.1044230098	-0.070175
C	 1.2223343001	-0.7110398423	-0.0258271846	-0.01413
H	 1.0952616321	 1.8854426779	 0.1666842198	 0.136641
H	-0.4005997073	 2.0151853471	-0.7649295982	 0.152557
H	-0.4665140203	 1.9116107632	 0.9937111692	 0.15213
H	-3.1009178401	-0.4023629561	-0.8973765924	 0.158777
H	-3.1068314878	-0.5025081671	 0.8468206205	 0.158556
H	-2.5444865195	 0.9919556601	 0.0591843842	 0.12262
H	 2.1762735175	-0.1918649253	 0.0094671776	 0.135344
13.7983	82.6419	110.6929	166.9688	269.3087	298.087	322.6819	470.652	477.6783	532.8421	541.7598	630.4731	661.6314	774.9985	837.8352	909.431	923.1923	957.274	1012.637	1034.666	1067.0008	1075.755	1150.3236	1234.1237	1329.0747	1364.0518	1412.4415	1415.9476	1467.0707	1467.4965	1489.6498	1497.0547	1609.7668	1688.7606	1821.1422	3042.1495	3046.2054	3096.2808	3100.9066	3124.6124	3148.4185	3174.8372
CC1=C(C)C(=O)ON=C1	Cc1c(C)c(=O)onc1	
InChI=1S/C6H7NO2/c1-4-3-7-9-6(8)5(4)2/h3H,1-2H3	InChI=1S/C6H7NO2/c1-4-3-7-9-6(8)5(4)2/h3H,1-2H3
