19
gdb 88566	3.30932	1.18427	1.12372	3.0353	75.96	-0.234	0.0736	0.3076	1171.2755	0.158392	-422.96545	-422.95711	-422.956165	-422.998677	32.293	
O	 0.0090452252	 1.402466063	 0.0241331419	-0.414664
C	 0.0123206005	 0.0081954328	-0.0689090221	 0.108177
C	-0.3331885691	-0.8137241399	 1.1455359135	-0.350181
C	-1.3261377784	-0.6761953963	 0.0033271807	-0.162164
C	-2.5787741698	 0.0964281861	 0.160326432	 0.473852
C	-2.9153436264	 1.2833104786	 1.0826534666	-0.288239
C	-4.4132709687	 0.8154126929	 1.067068937	-0.243731
C	-3.9930861399	-0.3306302947	 0.1386585702	-0.053475
O	-3.3903276464	 0.2651570507	-1.0177756922	-0.300503
H	 0.787416555	 1.66935219	 0.5242090856	 0.289025
H	 0.7386648033	-0.4016454928	-0.7705637877	 0.090829
H	 0.1526244838	-1.7712734062	 1.2972952411	 0.114759
H	-0.5491354404	-0.2619282378	 2.0542764883	 0.118211
H	-1.447111436	-1.5396162652	-0.6436426633	 0.096506
H	-2.4673597797	 1.2092063858	 2.0759281311	 0.099032
H	-2.6894472643	 2.2603861033	 0.6545650514	 0.118653
H	-4.7573950338	 0.4749243151	 2.0468272907	 0.100705
H	-5.1445195511	 1.5077771293	 0.6430028922	 0.109023
H	-4.4391657437	-1.3114801347	 0.0117922429	 0.094186
53.2472	130.8384	171.4988	239.7518	304.5044	321.6984	392.5878	446.3932	473.0757	545.4176	677.8272	732.6946	771.6404	796.3008	840.6882	877.275	903.3962	926.1894	936.1692	960.6091	998.4633	1022.7244	1039.2807	1061.2135	1063.8739	1130.8109	1148.1435	1170.4633	1206.7148	1208.3598	1214.174	1232.1171	1260.8132	1287.6894	1307.9873	1342.1034	1418.6434	1461.6295	1463.6704	1483.7122	1509.0616	3063.3629	3079.623	3099.7874	3116.5211	3132.9505	3141.4924	3156.7799	3173.1994	3222.7696	3806.1659
OC1CC1C12CCC1O2	O[C@H]1C[C@H]1[C@]12CC[C@H]1O2	
InChI=1S/C7H10O2/c8-5-3-4(5)7-2-1-6(7)9-7/h4-6,8H,1-3H2	InChI=1S/C7H10O2/c8-5-3-4(5)7-2-1-6(7)9-7/h4-6,8H,1-3H2/t4-,5+,6-,7-/m1/s1
