18
gdb 7999	3.23058	1.60918	1.18366	1.4192	70.15	-0.2484	0.0095	0.2579	1030.2609	0.153204	-384.952817	-384.944358	-384.943413	-384.985672	31.648	
C	-0.1284464811	 1.5170447718	 0.0562650355	-0.484809
C	-0.0502193355	 0.0255870904	-0.0189019356	 0.27572
C	-0.0786325512	-0.7542497135	-1.1024241613	-0.236084
C	-0.025969124	-2.2265312486	-0.7744689583	 0.116547
O	 0.851043642	-2.9811128184	-1.6024492624	-0.433283
C	 0.3430913229	-2.2319220527	 0.7310752349	-0.278859
C	 0.0222681882	-0.8108305985	 1.2492864403	 0.057999
O	 0.9294908951	-0.3107207284	 2.2248200082	-0.429665
H	 0.6916926616	 1.9185234779	 0.6607523285	 0.131339
H	-0.0978060905	 1.9772745019	-0.9345117129	 0.121968
H	-1.0552803588	 1.8329339235	 0.5524482478	 0.131647
H	-0.1695735214	-0.408474399	-2.1275994403	 0.094103
H	-1.0044673307	-2.6962817003	-0.9358432635	 0.09609
H	 1.7085684512	-2.5414846083	-1.5858538987	 0.270443
H	-0.1505730922	-3.0235357018	 1.2986687631	 0.108285
H	 1.4240711327	-2.4001116218	 0.8177730847	 0.08904
H	-0.9477469661	-0.7915761606	 1.7633991388	 0.096433
H	 1.8106197276	-0.3257908836	 1.8343299112	 0.273088
72.0603	132.5364	163.7473	243.8347	304.0951	317.4549	353.8552	371.2308	458.9862	477.9673	562.1777	611.2326	644.2912	804.4669	866.5188	881.7812	963.2411	994.0145	1007.6849	1056.1807	1065.8148	1080.8817	1094.2381	1140.0483	1198.642	1248.1299	1271.5616	1274.3506	1309.4336	1320.6923	1344.3276	1408.5476	1422.9017	1433.1235	1473.7936	1481.711	1486.7857	1717.0183	3021.948	3025.4648	3027.6471	3034.4351	3079.3732	3109.4932	3119.6408	3180.6386	3794.624	3795.9763
CC1=CC(O)CC1O	CC1=C[C@@H](O)C[C@H]1O	
InChI=1S/C6H10O2/c1-4-2-5(7)3-6(4)8/h2,5-8H,3H2,1H3	InChI=1S/C6H10O2/c1-4-2-5(7)3-6(4)8/h2,5-8H,3H2,1H3/t5-,6-/m1/s1
