16
gdb 54745	3.88838	1.08321	0.90171	1.3316	72.16	-0.2445	-0.0344	0.21	1250.9017	0.12188	-437.880218	-437.871663	-437.870719	-437.914264	30.651	
C	-0.0414696518	 1.4440527573	 0.0006969276	-0.477341
C	-0.0146794344	-0.0703382761	-0.019283642	 0.36622
O	 0.8852207087	-0.7243012976	-0.492886562	-0.324669
N	-1.0947227781	-0.6761468964	 0.6450510562	-0.102633
C	-1.7137665603	-1.8826061955	 0.1630552398	-0.029993
C	-2.5416637667	-2.4426997694	 1.3297737701	-0.371731
C	-3.3490492044	-1.1067028555	 1.2955481697	 0.432822
O	-4.3485368288	-0.7304881699	 1.826599658	-0.291482
C	-2.4866798593	-0.5714275444	 0.1569273	-0.198882
H	 0.9818579701	 1.8180721376	-0.0458065978	 0.154476
H	-0.5750907177	 1.8123453252	-0.88313639	 0.146548
H	-0.5501041522	 1.8276304	 0.8874205014	 0.146136
H	-1.3065286266	-2.4060917977	-0.6907995365	 0.138826
H	-3.1954662503	-3.2751852982	 1.0539147293	 0.141043
H	-1.9946318856	-2.6809380981	 2.2433086308	 0.142825
H	-2.7406392524	 0.0930631488	-0.6600007846	 0.127836
69.9708	86.432	114.5626	155.5723	181.7605	327.5208	418.8375	469.0898	528.1338	591.8956	624.824	668.0875	711.3919	807.0193	849.6195	878.1456	974.68	982.2376	987.1491	1010.542	1033.9402	1052.5862	1086.575	1135.4764	1171.7922	1210.3019	1249.6631	1285.8992	1377.7757	1397.5685	1444.8937	1469.7423	1479.6542	1796.4117	1905.2733	3046.8451	3072.5858	3117.9951	3137.2497	3160.5289	3200.2773	3228.569
CC(=O)N1C2CC(=O)C12	CC(=O)N1[C@H]2CC(=O)[C@@H]12	
InChI=1S/C6H7NO2/c1-3(8)7-4-2-5(9)6(4)7/h4,6H,2H2,1H3	InChI=1S/C6H7NO2/c1-3(8)7-4-2-5(9)6(4)7/h4,6H,2H2,1H3/t4-,6-,7?/m0/s1
