18
gdb 41873	3.3796	1.54251	1.11896	2.5768	71.58	-0.2537	0.0187	0.2724	1059.4222	0.151256	-439.098415	-439.091296	-439.090352	-439.130243	27.599	
C	-0.0340443614	 1.3972495006	 0.1090478804	-0.074616
C	 1.408392821	 1.9506955634	-0.0269080558	-0.302108
C	 2.2135963996	 0.7236148966	 0.3961629968	-0.006309
C	 3.6678580343	 0.4517520227	 0.0423372554	-0.211572
N	 3.9843503039	-0.9618136522	 0.2970214455	-0.266803
C	 3.0480324968	-1.8010311851	 0.4409744659	 0.124203
O	 1.6952024417	-1.633500924	 0.3177081842	-0.228881
C	 1.380155331	-0.3716790033	-0.2471458973	 0.256321
O	 0.045639093	-0.039144934	-0.0226637702	-0.275527
H	-0.4635388604	 1.6259208799	 1.0912139396	 0.114313
H	-0.7085935487	 1.7865700467	-0.6599773788	 0.112703
H	 1.6254841565	 2.2269503997	-1.0648336647	 0.11191
H	 1.5727093477	 2.8307958627	 0.5982716829	 0.114305
H	 2.0979451881	 0.5884076851	 1.4801575362	 0.100795
H	 3.881811994	 0.6809282893	-1.010282922	 0.113546
H	 4.3573692619	 1.058941382	 0.6376029415	 0.116905
H	 3.2654449128	-2.8362384187	 0.6939613781	 0.129225
H	 1.584477788	-0.4478121013	-1.3306872875	 0.071589
91.0718	157.2504	196.0736	359.0793	364.42	451.5017	503.645	555.6277	590.5943	670.863	820.2997	847.3558	890.8087	924.7315	941.9192	953.4321	980.8284	991.2799	1061.0595	1112.2539	1124.3208	1139.323	1147.7585	1168.4283	1202.8	1228.0322	1232.1713	1293.8969	1323.8491	1333.4746	1372.6274	1390.9351	1401.4824	1418.8525	1423.6417	1490.6838	1498.9587	1528.7158	1717.1557	2934.365	3015.7489	3026.9416	3034.7693	3049.2464	3069.6032	3078.0378	3114.0874	3169.9016
C1CC2CN=COC2O1	C1C[C@@H]2CN=CO[C@H]2O1	
InChI=1S/C6H9NO2/c1-2-8-6-5(1)3-7-4-9-6/h4-6H,1-3H2	InChI=1S/C6H9NO2/c1-2-8-6-5(1)3-7-4-9-6/h4-6H,1-3H2/t5-,6-/m1/s1
