16
gdb 81156	2.58253	1.65844	1.24144	1.9298	69.11	-0.2631	0.0106	0.2737	1000.5359	0.125452	-437.867747	-437.86027	-437.859326	-437.899552	29.134	
O	 0.1253930249	 1.3863716628	 0.047473258	-0.431672
C	 0.0695399622	-0.0067563181	 0.0259985487	 0.103124
C	 0.0495100636	-0.6340076222	 1.4422574286	 0.068981
C	-1.4395161997	-0.2308127393	 1.5429993407	-0.277427
C	-1.3929758566	-0.633011223	 0.0266561821	 0.129376
C	-1.0162344932	-2.1209223534	 0.1425365279	-0.120694
O	 0.0093815415	-2.0373256016	 1.1560492141	-0.276384
C	-2.3769330976	-0.221378968	-0.9382498126	 0.141247
N	-3.1359611173	 0.1469606968	-1.7300082428	-0.338789
H	-0.125927324	 1.7206647975	-0.8209387263	 0.302926
H	 0.7719494432	-0.4552246773	-0.6875141976	 0.089893
H	 0.7976899337	-0.418856589	 2.2011073651	 0.103074
H	-2.078941609	-0.8233878253	 2.1985731963	 0.11731
H	-1.5885763339	 0.8379040289	 1.6752026119	 0.142679
H	-1.845455012	-2.7496715018	 0.4828007293	 0.124172
H	-0.6050117658	-2.5325950569	-0.7852152034	 0.122184
115.1066	160.7177	284.4119	307.1805	337.3629	350.0897	462.2575	488.7924	542.1123	549.7169	604.2172	658.8218	836.5707	877.1728	898.5925	929.8708	975.4473	984.9559	1018.1356	1061.5878	1088.1941	1136.2662	1162.2063	1176.3607	1200.2783	1221.7311	1231.2626	1249.3226	1288.5951	1313.4912	1373.6357	1420.9333	1479.6438	1529.1354	2348.2693	3033.7963	3038.7241	3084.2692	3098.0409	3163.1484	3185.4853	3801.0342
OC1C2CC1(CO2)C#N	O[C@H]1[C@H]2C[C@@]1(CO2)C#N	
InChI=1S/C6H7NO2/c7-2-6-1-4(5(6)8)9-3-6/h4-5,8H,1,3H2	InChI=1S/C6H7NO2/c7-2-6-1-4(5(6)8)9-3-6/h4-5,8H,1,3H2/t4-,5+,6+/m1/s1
