15
gdb 16855	4.32448	1.8771	1.42877	2.1331	61.54	-0.2599	0.0227	0.2826	839.9086	0.120563	-399.790208	-399.783703	-399.782759	-399.821035	24.931	
N	-0.0538744453	 1.043515986	 0.878053751	-0.511723
C	 0.0289652121	 0.0938803773	 0.04489509	 0.39251
C	-1.2095497804	-0.5098229384	-0.583527491	-0.323905
C	-1.1020906127	-2.0233004499	-0.6838321109	 0.040298
O	-0.8835099468	-2.5616166742	-1.9892845675	-0.243843
C	 0.2157626407	-2.5410934761	-1.0739327401	 0.019784
C	 1.2657729453	-1.4738574059	-1.316967333	-0.1127
O	 1.2310929959	-0.4422889475	-0.313516979	-0.247954
H	 0.8801158049	 1.3284590254	 1.1806203932	 0.219361
H	-2.0689752584	-0.18638472	 0.0028950828	 0.142856
H	-1.3294256093	-0.1124622163	-1.5986902072	 0.144094
H	-1.751964244	-2.6211910292	-0.0491824697	 0.113151
H	 0.5505129628	-3.5194381396	-0.7375602317	 0.109585
H	 2.2789957186	-1.8759133689	-1.2644965867	 0.127949
H	 1.1124020268	-1.0379345826	-2.3111107201	 0.130536
95.2709	168.545	316.4503	421.4086	428.5911	472.2514	518.2978	580.1496	736.5095	791.6244	839.206	846.3093	910.7737	925.4825	967.7076	1016.2782	1042.1656	1049.093	1081.0477	1134.7974	1150.43	1210.7355	1269.2248	1279.731	1305.6031	1320.5223	1367.8081	1414.2225	1451.7657	1461.8958	1499.975	1751.214	3041.5178	3046.6008	3117.347	3133.7348	3142.8321	3151.4447	3462.5165
N=C1CC2OC2CO1	[NH][C]1C[C@H]2O[C@H]2CO1	
InChI=1S/C5H7NO2/c6-5-1-3-4(8-3)2-7-5/h3-4,6H,1-2H2	InChI=1S/C5H7NO2/c6-5-1-3-4(8-3)2-7-5/h3-4,6H,1-2H2/t3-,4+/m1/s1
