16
gdb 45966	2.85197	1.48277	1.15822	1.7748	69.3	-0.2505	-0.0369	0.2136	1046.869	0.125356	-437.906345	-437.8988	-437.897855	-437.938971	28.608	
O	 0.0225648415	 0.1544469182	-0.7690264365	-0.314648
C	 0.0028464056	 1.2167992018	-0.1935093984	 0.429532
C	-1.3111302215	 1.8787658045	 0.222960742	-0.320175
C	-1.2028577504	 3.1681881699	 1.0644526512	-0.336062
C	-0.104221882	 4.0788674192	 0.542664155	 0.426519
O	-0.273269613	 5.2267997639	 0.2034174283	-0.315455
C	 1.2414643007	 3.4213670847	 0.4437575569	-0.149356
N	 1.5000706468	 2.3883924422	 1.4594462576	-0.328393
C	 1.2832602761	 1.9623331116	 0.0680447744	-0.146381
H	-1.8267167912	 2.0990361601	-0.7210844372	 0.150127
H	-1.9228183319	 1.1246234595	 0.7262941072	 0.143372
H	-2.1446814874	 3.7197402737	 1.057082776	 0.125681
H	-0.9535718921	 2.9094238257	 2.0985119994	 0.148844
H	 2.0505788507	 4.0598187791	 0.1021701052	 0.113162
H	 2.4933747951	 2.3498574009	 1.6731178877	 0.255264
H	 2.1321791031	 1.5985425348	-0.5034609888	 0.117969
50.1335	134.1156	203.6193	301.9919	393.1922	430.6005	467.4212	481.7627	536.9473	601.2385	703.8811	717.5058	777.6188	863.2316	875.2476	912.8551	938.9518	997.285	1002.6469	1066.0488	1104.4296	1149.9247	1177.8074	1208.1062	1229.5214	1234.2556	1289.7755	1324.6372	1354.8062	1373.5221	1417.1229	1449.0632	1466.9771	1809.4446	1818.5981	3035.902	3061.9579	3094.4484	3125.5411	3160.5035	3169.973	3512.4763
O=C1CCC(=O)C2NC12	O=C1CCC(=O)[C@H]2N[C@@H]12	
InChI=1S/C6H7NO2/c8-3-1-2-4(9)6-5(3)7-6/h5-7H,1-2H2	InChI=1S/C6H7NO2/c8-3-1-2-4(9)6-5(3)7-6/h5-7H,1-2H2/t5-,6+
