14
gdb 80165	2.51892	1.7302	1.41072	5.6385	64.13	-0.2555	-0.0665	0.189	935.9582	0.100744	-473.818025	-473.810577	-473.809633	-473.850098	28.042	
O	-0.0728739073	 1.3026257309	-0.2747213783	-0.403573
C	-0.0552168661	-0.0665550461	-0.042097367	 0.071288
C	-0.4757286997	-0.6178441839	 1.2854836256	 0.004831
O	-1.0093377227	 0.3292617425	 2.1952354945	-0.241167
C	-2.2106365051	 0.8157824492	 1.7459620512	 0.319182
N	-2.919041105	 1.6791395109	 2.3253324044	-0.49663
C	-2.5644785745	 0.1241509729	 0.4322141609	 0.367847
O	-3.6018593062	 0.2349926916	-0.1585849208	-0.286938
C	-1.4040766687	-0.7651084685	 0.0993340281	-0.243436
H	 0.6260539891	 1.7118864339	 0.2481937356	 0.302218
H	 0.6956824814	-0.6350353575	-0.5907663121	 0.113947
H	 0.0331434179	-1.4353947864	 1.7805977731	 0.126258
H	-2.4777860386	 1.99958694	 3.1899684702	 0.233837
H	-1.5918649647	-1.6874886295	-0.4329745155	 0.132335
99.3293	126.9426	213.2188	290.758	330.7222	373.4447	480.4886	522.158	599.4834	647.7864	698.2293	741.3507	780.3528	839.0663	848.5299	908.2844	960.5041	975.6906	1028.228	1064.2423	1098.7433	1111.5459	1167.4071	1222.4218	1275.959	1298.4421	1305.619	1365.1979	1430.7084	1770.4895	1860.3677	3107.7961	3194.7536	3215.1013	3469.0556	3799.2802
OC1C2OC(=N)C(=O)C12	O[C@H]1[C@H]2O[C]([NH])C(=O)[C@@H]12	
InChI=1S/C5H5NO3/c6-5-3(8)1-2(7)4(1)9-5/h1-2,4,6-7H	InChI=1S/C5H5NO3/c6-5-3(8)1-2(7)4(1)9-5/h1-2,4,6-7H/t1-,2-,4+/m1/s1
