17
gdb 9376	2.7464	1.69072	1.15779	3.1141	65.41	-0.2615	0.0144	0.2758	1044.7043	0.140227	-400.997799	-400.988621	-400.987676	-401.032018	32.096	
C	-0.1644512834	 1.4597422569	 0.5335475135	-0.394586
C	 0.0946303565	 0.1910030422	-0.2809790152	-0.006902
O	 0.2079221645	 0.5515854293	-1.6416286719	-0.247504
C	-0.2477740354	-0.3968477912	-2.6033682136	-0.074195
C	 0.6901825883	-1.5752195995	-2.8512018181	-0.083717
O	 0.6469923751	-2.5297193846	-1.8028560892	-0.426614
C	 1.3340464946	-0.4782473562	 0.1837143418	 0.285804
N	 2.3105420771	-1.0008031517	 0.517143615	-0.348482
H	 0.6382608178	 2.1815797169	 0.3666805339	 0.149313
H	-1.1094526802	 1.901914616	 0.2107275118	 0.135236
H	-0.2190860379	 1.2305610314	 1.6008834231	 0.137747
H	-0.7262935969	-0.5256145691	-0.1382782841	 0.128986
H	-1.2369285633	-0.7826293314	-2.3142251256	 0.105076
H	-0.3582045908	 0.1777433319	-3.5293038006	 0.112907
H	 0.3583919036	-2.0752771771	-3.7713783469	 0.10804
H	 1.707646102	-1.2021709815	-3.0252222144	 0.113134
H	 1.4106323983	-2.3999474823	-1.2313564692	 0.305757
54.1992	82.9386	157.422	182.0878	218.3628	251.8459	262.8703	350.8305	382.1648	396.145	519.0476	569.6475	595.0253	797.2428	829.2633	905.62	931.7345	1035.5469	1061.7211	1100.4491	1108.6174	1142.9903	1148.174	1231.1133	1310.9825	1325.5876	1374.8534	1393.1594	1405.8263	1406.2809	1417.5587	1474.9495	1481.4261	1487.1897	1494.5472	2342.9465	2998.3307	3010.865	3016.6847	3055.6136	3059.8574	3081.1654	3137.1586	3142.916	3819.4465
CC(OCCO)C#N	C[C@@H](OCCO)C#N	
InChI=1S/C5H9NO2/c1-5(4-6)8-3-2-7/h5,7H,2-3H2,1H3	InChI=1S/C5H9NO2/c1-5(4-6)8-3-2-7/h5,7H,2-3H2,1H3/t5-/m1/s1
