20
gdb 10079	1.84907	1.81795	0.98264	4.0404	72.7	-0.2743	0.0116	0.2858	1229.4931	0.174445	-386.17921	-386.169301	-386.168357	-386.214895	34.198	
C	-0.125035165	 1.560093399	 0.2340754792	-0.401431
C	-0.0243770262	 0.0398712434	 0.0905785178	-0.175075
C	 0.6942186899	-0.4172004046	-1.179796614	 0.119111
C	 0.8444693536	-1.9365028547	-1.2705862081	-0.175184
C	 1.6191579524	-2.4106734168	-2.5021891203	-0.401278
O	-0.0691605778	 0.0333384932	-2.3220680406	-0.191894
C	 0.4938524126	 0.8879823896	-3.1926131095	 0.172397
O	-0.0771475259	 1.3024472272	-4.1571482989	-0.282335
H	 0.8668940882	 2.0260349418	 0.2497266078	 0.113124
H	-0.6919323808	 1.9992215932	-0.5915317373	 0.139196
H	-0.6311014249	 1.8294576272	 1.1654909817	 0.120894
H	 0.5143743198	-0.3815949918	 0.9477338024	 0.102274
H	-1.0261135402	-0.4059488448	 0.0990479333	 0.114346
H	 1.6893354961	 0.0519181154	-1.2259465707	 0.081044
H	 1.3485305247	-2.2763278772	-0.3579040039	 0.102259
H	-0.1569990457	-2.3828997898	-1.2612125235	 0.114315
H	 1.1144993891	-2.1133668839	-3.4255953253	 0.139232
H	 2.6328367969	-1.9942987039	-2.5207354001	 0.113092
H	 1.7096539632	-3.5006066543	-2.5082183197	 0.12082
H	 1.5321016801	 1.1601879217	-2.9182776305	 0.075093
40.0787	81.1083	98.5206	152.0335	169.2707	208.0704	250.5395	285.7727	302.0602	377.8864	478.7611	501.3514	604.6515	768.2474	807.1462	889.007	939.3624	972.3432	1021.2033	1044.1528	1046.5571	1060.6095	1133.1389	1137.4545	1170.0294	1218.1917	1279.3006	1305.0042	1316.3364	1373.3398	1388.3079	1398.215	1409.6191	1413.7042	1441.4406	1470.1386	1482.055	1498.8294	1499.3526	1509.3043	1510.2475	1859.1963	2942.618	2989.0235	3029.3289	3035.5677	3035.7272	3038.1148	3066.5874	3075.7406	3103.888	3104.8495	3119.0542	3119.9916
CCC(CC)OC=O	CCC(CC)OC=O	
InChI=1S/C6H12O2/c1-3-6(4-2)8-5-7/h5-6H,3-4H2,1-2H3	InChI=1S/C6H12O2/c1-3-6(4-2)8-5-7/h5-6H,3-4H2,1-2H3
