15
gdb 49221	3.0492	1.17154	0.96378	2.3061	74.31	-0.2439	-0.0729	0.171	1202.3584	0.112394	-416.78976	-416.78154	-416.780596	-416.823061	29.996	
O	-0.7697419223	 1.3311666813	 0.3335309286	-0.260015
C	 0.3416117095	 0.9317612243	 0.0830482408	 0.114103
C	 1.4954059392	 1.8452366469	-0.121204816	 0.276167
N	 2.6870816716	 1.4065254359	-0.298649371	-0.274554
C	 3.5368626141	 2.5968622265	-0.4259870202	-0.18079
C	 2.6432715678	 3.8194821389	 0.0033088251	-0.172895
N	 1.3045195934	 3.2129818192	-0.1322644707	-0.333786
C	 2.9116994385	 4.2958012313	 1.3587842429	 0.337492
C	 3.1262298177	 4.684613239	 2.4758804852	-0.47156
H	 0.6015563017	-0.1404824832	 0.0040158972	 0.112825
H	 4.4363772293	 2.5041023027	 0.1861066473	 0.134453
H	 3.8499193567	 2.7020277793	-1.4718972411	 0.127254
H	 2.7547060628	 4.6507569274	-0.6994657632	 0.120474
H	 0.5329634803	 3.5834142951	 0.4050627773	 0.262019
H	 3.3180883499	 5.0279757256	 3.4626811079	 0.208814
69.5733	108.0136	177.5194	206.0348	249.8781	292.6002	446.6437	501.4821	525.7447	584.462	631.0834	638.1031	666.793	759.5565	805.7593	811.9662	955.0661	994.5619	1021.9718	1027.7277	1037.1019	1074.8563	1211.2306	1243.8393	1274.4375	1323.863	1363.8752	1385.8996	1463.1473	1481.5625	1682.8098	1805.3454	2232.8733	2969.6971	3034.8333	3058.7111	3107.6744	3501.1351	3607.7924
O=CC1=NCC(N1)C#C	O=C[C]1[N]C[C@@H](N1)C#C	
InChI=1S/C6H6N2O/c1-2-5-3-7-6(4-9)8-5/h1,4-5H,3H2,(H,7,8)	InChI=1S/C6H6N2O/c1-2-5-3-7-6(4-9)8-5/h1,4-5H,3H2,(H,7,8)/t5-/m0/s1
