18
gdb 83844	2.17875	1.90844	1.33578	3.3624	71.64	-0.238	-0.0014	0.2366	1010.3416	0.148858	-439.093389	-439.085489	-439.084545	-439.125922	30.194	
C	-0.3205006761	 1.4804176958	-0.0336734717	-0.430642
C	-0.0008707245	 0.0030791365	-0.0272224152	 0.016717
C	 0.6966770899	-0.6716006689	-1.1686903998	-0.201239
N	 1.3488864968	-0.5452659596	 0.1429845787	-0.118333
C	 2.4925629015	 0.3760321751	 0.1934188514	-0.172622
C	 3.1925524159	 0.4191218179	-1.1527207172	-0.080632
O	 2.2995979113	 0.843712696	-2.200329292	-0.229608
C	 1.1334417547	 0.1603945734	-2.3414481472	 0.421838
O	 0.4964725641	 0.255234445	-3.3536262688	-0.328844
H	 0.3569429494	 2.0645637688	-0.6602089503	 0.141302
H	-1.3340146408	 1.6278791762	-0.4187343764	 0.140538
H	-0.288224178	 1.8885356881	 0.9827511193	 0.127207
H	-0.7483467568	-0.5983300993	 0.4877279675	 0.103084
H	 0.3927103697	-1.6748695097	-1.4550321891	 0.123132
H	 2.1949251963	 1.3887877996	 0.4881610297	 0.115261
H	 3.1946216172	 0.0111144362	 0.9520750558	 0.118519
H	 4.0139493473	 1.1385907346	-1.158924214	 0.129135
H	 3.5957582222	-0.5687093054	-1.4073297407	 0.12519
77.088	137.6074	203.2169	240.4367	311.8849	377.4329	435.5284	473.5104	513.4092	534.7982	682.4538	710.0881	758.0959	784.963	824.1318	925.6999	946.5875	981.69	1015.4798	1057.665	1078.9887	1112.1079	1123.2647	1136.4378	1176.8409	1222.9937	1250.2585	1291.5288	1316.6731	1360.0458	1381.5086	1411.3617	1418.7514	1423.1643	1489.7039	1498.8304	1505.6834	1513.9282	1850.6143	3032.1853	3035.4277	3040.0894	3068.8715	3103.3548	3111.6725	3115.3932	3133.3161	3146.1486
CC1C2N1CCOC2=O	C[C@H]1[C@@H]2N1CCOC2=O	
InChI=1S/C6H9NO2/c1-4-5-6(8)9-3-2-7(4)5/h4-5H,2-3H2,1H3	InChI=1S/C6H9NO2/c1-4-5-6(8)9-3-2-7(4)5/h4-5H,2-3H2,1H3/t4-,5-,7?/m0/s1
