17
gdb 56935	2.1438	1.43111	1.01564	4.3912	79.37	-0.2512	0.0161	0.2673	1202.7409	0.133728	-380.815927	-380.806623	-380.805679	-380.850264	33.925	
C	-0.0146509212	 1.4599970504	-0.208696356	-0.391947
C	 0.1031586856	-0.0214575437	 0.1765445893	-0.111101
C	 0.7025882179	-0.1619821227	 1.5140871674	 0.304821
N	 1.1932085304	-0.2528941956	 2.5556226027	-0.32186
N	-1.2301492606	-0.6317176896	 0.1882928934	-0.082217
C	-1.7405150466	-1.0936697997	-1.0936581433	-0.248165
C	-1.3356278682	-2.0880731186	-0.0456453735	-0.175046
C	-0.1717426363	-2.9059695887	-0.2499243099	 0.335057
C	 0.7979815457	-3.6032138617	-0.39152915	-0.450428
H	 0.9668495313	 1.9391855939	-0.1875652913	 0.139516
H	-0.4233873312	 1.5437588034	-1.2191936543	 0.127444
H	-0.6800567479	 1.9791508352	 0.4842226925	 0.150029
H	 0.780493037	-0.5288935558	-0.5288488298	 0.12275
H	-2.7928988608	-0.9020350801	-1.2812456357	 0.132312
H	-1.0921911835	-1.0222856299	-1.9651066736	 0.127464
H	-2.1167849256	-2.5507724996	 0.551771404	 0.131418
H	 1.6532879542	-4.2215977472	-0.5117595017	 0.209954
52.3752	109.5227	148.7481	208.1608	222.0431	241.0328	265.4943	351.4101	394.3545	518.3075	537.9655	555.1241	611.9208	646.5009	678.087	747.0446	801.235	856.6283	916.7487	994.8842	1029.3773	1043.681	1107.8272	1114.6403	1122.1755	1151.4962	1164.2206	1309.664	1324.0453	1361.9847	1372.2246	1407.0967	1487.5168	1495.6298	1501.2452	2235.1784	2365.6025	2980.7302	3054.262	3100.6341	3131.3797	3142.4555	3143.6454	3194.0039	3501.3724
CC(C#N)N1CC1C#C	C[C@@H](C#N)N1C[C@H]1C#C	
InChI=1S/C7H8N2/c1-3-7-5-9(7)6(2)4-8/h1,6-7H,5H2,2H3	InChI=1S/C7H8N2/c1-3-7-5-9(7)6(2)4-8/h1,6-7H,5H2,2H3/t6-,7+,9?/m0/s1
