19
gdb 116396	2.50332	1.37821	0.93701	1.8828	71.88	-0.2374	-0.0324	0.2051	1256.5836	0.158675	-460.178759	-460.169895	-460.168951	-460.21295	32.393	
C	 0.0279828866	 1.5394072108	 0.0786954394	-0.394517
C	 0.1023739008	 0.0114497418	 0.0748585072	-0.185294
C	 0.7380065555	-0.5452303376	-1.1932968905	 0.004292
O	 2.0934273095	-0.1035668857	-1.2637799325	-0.243438
C	 2.8044930958	-0.695853462	-2.3124125207	 0.013647
O	 2.9721782555	-2.074638251	-2.1206962712	-0.226216
C	 1.7315517645	-2.7579513504	-2.1205238584	-0.188851
C	 0.6431893259	-2.0738153187	-1.2919600766	 0.35118
O	-0.2779095948	-2.7006960898	-0.8277582333	-0.296998
H	 1.0231022384	 1.9787862149	-0.0287759356	 0.13486
H	-0.5939759285	 1.9080557061	-0.7448658396	 0.112171
H	-0.407218601	 1.9039067149	 1.0135862015	 0.116437
H	 0.6883048844	-0.3427757471	 0.9305944696	 0.113164
H	-0.8921112714	-0.4336136496	 0.1668118728	 0.125564
H	 0.1911331294	-0.1615966909	-2.0782861089	 0.093932
H	 2.2957706217	-0.503184446	-3.2773378722	 0.076777
H	 3.8017089879	-0.2528268149	-2.3161380962	 0.126029
H	 1.3360697952	-2.8525210657	-3.148779341	 0.120428
H	 1.8964348047	-3.7651811491	-1.7326975339	 0.146833
57.101	93.3362	142.9207	181.0743	229.3755	312.189	348.6785	398.052	444.4438	465.1641	521.1523	585.5441	687.9594	765.6059	807.3959	919.9473	954.0489	963.6003	974.9901	1056.5497	1088.4725	1113.4894	1121.4834	1170.6096	1196.0148	1214.6279	1256.8011	1293.2216	1306.0808	1322.6621	1345.1702	1366.5966	1388.4842	1411.5936	1438.7432	1463.8282	1478.2221	1497.6399	1508.534	1509.7307	1825.8135	2905.6991	2915.7449	2946.5069	3037.3703	3050.3409	3095.6399	3108.1223	3115.8971	3122.0279	3125.9637
CCC1OCOCC1=O	CC[C@H]1OCOCC1=O	
InChI=1S/C6H10O3/c1-2-6-5(7)3-8-4-9-6/h6H,2-4H2,1H3	InChI=1S/C6H10O3/c1-2-6-5(7)3-8-4-9-6/h6H,2-4H2,1H3/t6-/m1/s1
