20
gdb 63575	3.04389	1.32446	1.13551	1.3651	80.75	-0.2255	0.0221	0.2476	1156.6428	0.170736	-403.158381	-403.149594	-403.14865	-403.19159	33.476	
C	-0.0789746931	 1.503346449	 0.0476938891	-0.455709
C	-0.008980617	-0.0121927314	 0.0287080912	 0.275514
C	-1.2610469471	-0.6876923266	-0.4967319296	-0.449665
C	 1.3312254032	-0.6517013074	-0.2706733084	-0.381693
C	 0.7743621638	-0.7027381653	 1.1315711909	 0.295126
C	 1.4105724239	 0.0285992154	 2.3235889484	-0.177512
O	 1.2687645672	-0.917274843	 3.4120296711	-0.226394
C	 0.6321339439	-1.9867192728	 2.8750925751	 0.10164
N	 0.3157857138	-1.9787719251	 1.6476497736	-0.296787
H	 0.8544467963	 1.959914245	 0.3921779313	 0.111528
H	-0.2770652724	 1.8877095792	-0.9594151886	 0.120335
H	-0.8868574844	 1.8577746022	 0.699087863	 0.117576
H	-1.4389073249	-0.4055453901	-1.5410907238	 0.108589
H	-1.1811688799	-1.7740610172	-0.4354697818	 0.14088
H	-2.1407828863	-0.3855825289	 0.0835390282	 0.111392
H	 1.343717785	-1.5852973398	-0.8226735969	 0.120569
H	 2.1848526149	-0.0035462328	-0.4502035052	 0.10433
H	 2.476040584	 0.2424245445	 2.1934086056	 0.119913
H	 0.8947139851	 0.9511427362	 2.6079041815	 0.119936
H	 0.4408949938	-2.7933896011	 3.5730723553	 0.140431
83.6381	161.0735	179.8014	192.636	225.7576	277.0438	355.7881	402.2245	420.2004	429.3961	536.0636	588.5146	725.1423	801.6068	866.2221	878.947	921.675	937.4695	953.9031	967.4379	972.7983	991.041	1035.7447	1055.7504	1084.2703	1112.5339	1153.1088	1180.6085	1212.3624	1215.1575	1297.1719	1323.7162	1365.1374	1402.3744	1408.5881	1423.6262	1480.0592	1483.9122	1490.2261	1502.0239	1511.0219	1521.4746	1698.6496	3020.6625	3027.2065	3040.378	3079.7345	3082.6912	3083.3218	3095.7784	3117.7852	3137.7023	3211.8541	3221.5966
CC1(C)CC11COC=N1	CC1(C)C[C@]21COC=N2	
InChI=1S/C7H11NO/c1-6(2)3-7(6)4-9-5-8-7/h5H,3-4H2,1-2H3	InChI=1S/C7H11NO/c1-6(2)3-7(6)4-9-5-8-7/h5H,3-4H2,1-2H3/t7-/m1/s1
