18
gdb 53496	4.33827	0.68944	0.62856	5.5392	77.28	-0.2523	0.0143	0.2666	1759.5148	0.146368	-439.0989	-439.088602	-439.087658	-439.13619	35.359	
C	 0.0857549896	 1.5225791015	-0.0676312908	-0.499091
C	 0.0441813353	 0.0677014241	-0.0158557544	 0.109587
C	 0.0356383369	-1.1357586724	 0.0450194637	 0.012312
C	-0.0182989064	-2.59198848	 0.0903102638	-0.353175
C	-1.4668604154	-3.1355186545	 0.0235541662	-0.112872
N	-2.1235179962	-2.7099603102	-1.2194382283	-0.538548
H	-1.8644736041	-4.5192617912	-1.7079156204	 0.306241
H	-3.124524461	-2.614739537	-1.0831798593	 0.248859
H	-1.7746033447	-1.7985112148	-1.5025619837	 0.24828
C	-1.3933705123	-4.6746389317	 0.0749513324	 0.419084
O	-1.0950005544	-5.2780537892	 1.0708940637	-0.346709
O	-1.6511676245	-5.2627069539	-1.0991148926	-0.363356
H	 0.7693807537	 1.9236691682	 0.6884305348	 0.155704
H	 0.4269972727	 1.8782739965	-1.0458596336	 0.151113
H	-0.9028876301	 1.9564038464	 0.1179088473	 0.14976
H	 0.5549464321	-3.0122561708	-0.7468655049	 0.138932
H	 0.4362736106	-2.977697779	 1.0080769001	 0.162536
H	-1.9936085116	-2.8066023522	 0.9265791459	 0.111343
27.1809	52.6774	74.3981	84.2226	197.3152	220.8369	277.6436	309.7003	336.9246	384.4942	390.1553	467.9089	557.0979	657.819	698.4695	790.5497	858.3211	874.5404	886.1803	954.1252	993.8466	1051.7184	1054.7181	1110.644	1168.0538	1172.5288	1226.3257	1277.8359	1302.3035	1354.7892	1369.8263	1415.2887	1432.7381	1471.3217	1477.7483	1478.3465	1660.2482	1869.0498	2367.9638	3022.5871	3029.6174	3045.6799	3086.4271	3090.773	3092.345	3450.9341	3498.6276	3575.4769
CC#CCC([NH3+])C([O-])=O	CC#CC[C@@H](N)C(=O)O	
InChI=1S/C6H9NO2/c1-2-3-4-5(7)6(8)9/h5H,4,7H2,1H3,(H,8,9)	InChI=1S/C6H9NO2/c1-2-3-4-5(7)6(8)9/h5H,4,7H2,1H3,(H,8,9)/t5-/m1/s1
