18
gdb 38401	4.0776	1.2827	1.26738	2.0854	74.81	-0.2354	0.0771	0.3125	1046.5075	0.148317	-401.852288	-401.845217	-401.844273	-401.883762	28.483	
C	 0.0922833653	 1.4218135189	-0.0179353253	-0.242167
C	 1.3355168872	 0.6265610216	 0.0159884137	-0.093051
N	-0.0367338493	-0.0410067097	 0.0878103108	-0.127308
C	 0.2014029686	-0.5563423103	-1.3069211551	-0.255598
C	 1.6424673772	 0.0133485742	-1.338342606	 0.351711
C	 2.2408254924	 0.7789635865	-2.5714776107	-0.350004
C	 3.3655268097	-0.2631818854	-2.6103462439	 0.037101
O	 4.0127568787	-0.2309543417	-1.3319919369	-0.249953
C	 2.8012791064	-0.9854666615	-1.459306425	-0.05573
H	-0.1942424148	 1.9386326839	 0.8928944138	 0.123526
H	-0.2176960915	 1.9160516085	-0.9374037515	 0.109219
H	 2.0162886529	 0.6377752034	 0.8608299384	 0.104066
H	 0.1597427072	-1.6486072704	-1.3191516839	 0.114072
H	-0.5042449455	-0.1638033101	-2.0477103684	 0.102537
H	 1.5774453944	 0.733276201	-3.439750174	 0.107262
H	 2.5620475267	 1.8102769517	-2.405276229	 0.112712
H	 3.9484992954	-0.6195643419	-3.4510705466	 0.107042
H	 2.8305117491	-2.0324984887	-1.1771844601	 0.104562
123.2501	137.2824	223.5101	375.9536	412.2808	429.5308	509.2381	556.3041	739.3201	770.3083	789.4101	842.1089	846.7007	860.8537	879.8224	888.0739	952.6978	969.268	984.9109	1018.6857	1040.4114	1054.0354	1104.2678	1109.2079	1116.2488	1152.7344	1157.125	1202.0397	1208.2088	1226.1746	1235.6292	1257.5568	1281.4586	1285.8397	1377.7071	1385.3274	1466.9608	1488.9421	1505.2458	3035.7148	3058.6866	3096.8359	3097.8238	3116.745	3168.7177	3174.239	3194.8689	3195.2724
C1C2N1CC21CC2OC12	C1[C@H]2N1C[C@]12C[C@H]2O[C@@H]12	
InChI=1S/C7H9NO/c1-4-6(9-4)7(1)3-8-2-5(7)8/h4-6H,1-3H2	InChI=1S/C7H9NO/c1-4-6(9-4)7(1)3-8-2-5(7)8/h4-6H,1-3H2/t4-,5-,6-,7+,8?/m1/s1
