17
gdb 34386	2.56576	1.69067	1.34189	4.8051	77.42	-0.2409	-0.0092	0.2317	1000.2904	0.138055	-380.866054	-380.858678	-380.857734	-380.897874	28.669	
N	-0.0502287581	-1.1398441913	-0.05963772	-0.341482
C	-0.040581809	 0.0151665496	-0.0139106686	 0.253985
C	-0.0647391196	 1.4827564018	 0.0315882088	 0.150176
C	-0.3614028266	 2.1948902741	-1.3237759534	-0.289834
C	 0.8668374478	 3.0787381841	-1.0069600024	-0.168355
N	 1.2748373603	 2.1530211778	 0.0872085948	-0.112727
C	 1.4257558425	 2.7607836137	 1.4188311528	-0.237253
C	 0.0396380683	 2.6977283862	 2.024716071	-0.069199
C	-0.7914786846	 1.9935659496	 1.260482526	-0.13658
H	-0.2262240366	 1.537958	-2.1834016975	 0.133956
H	-1.3287147469	 2.6929428823	-1.389915656	 0.12126
H	 1.6172358502	 3.1792392208	-1.7956219155	 0.117143
H	 0.5935291446	 4.0788724823	-0.6469233098	 0.103169
H	 2.1538368451	 2.2110363352	 2.0313558819	 0.125509
H	 1.8057047204	 3.7853167758	 1.3191321947	 0.116444
H	-0.2127455412	 3.1491418311	 2.9771950336	 0.113768
H	-1.8265698966	 1.753478407	 1.4675509797	 0.120019
116.2135	158.5192	176.371	250.2675	373.2709	449.7422	524.3042	544.4081	559.429	689.6976	730.6213	760.5029	790.6354	823.5241	919.9761	941.1457	949.5963	966.437	969.8666	1005.4918	1069.7745	1105.9462	1120.4204	1141.9571	1186.449	1194.2326	1217.0397	1250.2455	1264.1562	1320.4313	1331.8353	1345.9181	1482.5168	1494.4817	1519.4095	1670.8755	2350.6858	3008.951	3020.6336	3047.6957	3084.2474	3091.9863	3151.7689	3200.084	3227.2076
N#CC12CCN1CC=C2	N#C[C@]12CCN1CC=C2	
InChI=1S/C7H8N2/c8-6-7-2-1-4-9(7)5-3-7/h1-2H,3-5H2	InChI=1S/C7H8N2/c8-6-7-2-1-4-9(7)5-3-7/h1-2H,3-5H2/t7-/m0/s1
