23
gdb 106825	3.14825	1.02997	0.90995	1.7113	86.6	-0.2237	0.0772	0.3009	1433.451	0.20423	-388.263685	-388.253706	-388.252762	-388.298854	37.125	
C	-0.2951010603	 1.5281708607	 0.1116469261	-0.370142
C	 0.0824974138	 0.0495434787	-0.0622641998	-0.295285
C	 0.8116691239	-0.515945368	 1.1243562561	 0.20725
C	 0.1276434817	-1.0276118699	 2.3856186716	-0.384443
C	 1.0526902988	-1.9296197926	 1.6178456784	 0.436562
C	 0.759849924	-3.3042453922	 1.1026233924	-0.287199
C	 0.9657891286	-4.3827720844	 2.1760963976	-0.374215
O	 2.4115379892	-1.6410007106	 1.9930035731	-0.332096
C	 2.2845330039	-0.295652216	 1.4621865469	-0.128152
H	 0.5948809372	 2.1498914131	 0.2569646884	 0.117232
H	-0.8252570179	 1.9064696492	-0.7678083104	 0.111224
H	-0.9418802638	 1.6665715031	 0.9839754561	 0.120683
H	-0.8261659846	-0.5391126098	-0.2401412563	 0.098381
H	 0.7016981099	-0.0662220617	-0.96189468	 0.098039
H	 0.419397545	-0.6659170106	 3.3685649531	 0.106995
H	-0.933219916	-1.2309516372	 2.2666637417	 0.107466
H	-0.2729646586	-3.3284142918	 0.7353840165	 0.09972
H	 1.4102174196	-3.5094497672	 0.2434299109	 0.104328
H	 1.9911348006	-4.3545838941	 2.5555999726	 0.137705
H	 0.2896157321	-4.2279135082	 3.0228770129	 0.117794
H	 0.7795868658	-5.3809816452	 1.7689596195	 0.108586
H	 2.9198822796	-0.1692436136	 0.5762460586	 0.100402
H	 2.5353269673	 0.4705927583	 2.2061991142	 0.099167
59.2846	89.899	96.576	192.2841	208.8033	213.9071	279.4682	280.3108	348.952	388.0954	445.5424	520.6039	633.9741	721.4277	756.4174	784.5898	796.1529	875.5928	907.761	966.9056	974.8796	981.9629	988.6024	1002.6266	1036.9705	1056.4587	1065.2852	1098.7552	1102.7429	1153.5341	1188.737	1219.4089	1268.1632	1303.3417	1309.9486	1344.3081	1354.8701	1374.6893	1406.4182	1408.8888	1423.8165	1472.7923	1480.4965	1493.1775	1498.1138	1499.2226	1506.5453	1511.2432	1522.8539	3008.414	3014.2464	3026.9722	3033.6299	3040.0058	3048.1875	3056.5731	3065.1751	3101.8684	3104.5177	3107.5014	3109.5324	3119.248	3195.3825
CCC12CC1(CC)OC2	CC[C@@]12C[C@]1(CC)OC2	
InChI=1S/C8H14O/c1-3-7-5-8(7,4-2)9-6-7/h3-6H2,1-2H3	InChI=1S/C8H14O/c1-3-7-5-8(7,4-2)9-6-7/h3-6H2,1-2H3/t7-,8-/m0/s1
