18
gdb 98118	4.63381	0.84015	0.71739	2.0576	77.58	-0.2461	-0.0618	0.1843	1559.54	0.147212	-435.305807	-435.296098	-435.295154	-435.341307	34.16	
C	-0.1562230473	 1.4651781837	 0.3526205472	-0.384242
C	-0.0872594256	-0.0535209877	 0.2190599575	-0.272967
C	 0.5676276362	-0.509337577	-1.0616905091	 0.367247
O	 0.9951250206	 0.2541637134	-1.9051977428	-0.33702
C	 0.6889312502	-2.0096764511	-1.2894551174	 0.270556
N	 0.2473133213	-2.8236476085	-0.4166188982	-0.505074
N	 1.3087333825	-2.2782839068	-2.5049446022	-0.317011
C	 1.5886043714	-3.5086919508	-3.0438111682	 0.101197
N	 1.2966725345	-4.6064049919	-2.4628520466	-0.453513
H	 0.8427573713	 1.9090292337	 0.3331493813	 0.1286
H	-0.7245330725	 1.9084466789	-0.4694754248	 0.128692
H	-0.6381882767	 1.7430332014	 1.2937024167	 0.11446
H	 0.4569975294	-0.5178775886	 1.050162174	 0.146535
H	-1.0797298302	-0.5180243237	 0.2638330856	 0.146405
H	 0.4054485728	-3.7879884106	-0.7207664424	 0.259137
H	 1.5662078174	-1.4430620414	-3.0150982901	 0.269341
H	 2.0847685932	-3.4238335189	-4.0173779144	 0.105076
H	 1.5885099914	-5.3990961242	-3.0287433662	 0.232582
46.4071	71.2491	110.0373	149.8994	204.5877	224.2759	257.8291	315.7654	340.7973	418.1459	508.6266	589.3745	654.9795	677.0723	733.1755	813.0959	824.6988	882.9255	949.4931	980.2823	1008.2057	1052.9387	1085.3291	1095.5981	1148.2789	1170.8269	1261.3702	1262.9281	1345.7047	1393.2275	1416.7306	1420.411	1433.6098	1495.4229	1499.4043	1549.6888	1690.7823	1739.0218	1782.166	3049.2411	3050.902	3056.1051	3071.2078	3123.27	3123.4545	3439.9399	3521.9907	3578.2158
CCC(=O)C(=N)NC=N	CCC(=O)C(=N)NC=N	
InChI=1S/C5H9N3O/c1-2-4(9)5(7)8-3-6/h3H,2H2,1H3,(H3,6,7,8)	InChI=1S/C5H9N3O/c1-2-4(9)5(7)8-3-6/h3H,2H2,1H3,(H3,6,7,8)
