16
gdb 54048	1.91321	1.51065	0.92931	3.6551	72.89	-0.2823	-0.0385	0.2438	1233.5653	0.123698	-434.103228	-434.094084	-434.093139	-434.13793	32.218	
C	 0.023537827	 1.4813615844	-0.121029092	-0.474047
C	 0.0299439657	-0.0180867535	 0.053626957	 0.406108
N	 1.1469431466	-0.6030609127	 0.2090909614	-0.490614
N	-1.226963913	-0.6779212129	 0.0212341292	-0.129455
C	-1.2811188775	-2.1367057861	 0.0594511515	-0.342069
C	-0.9409874841	-2.6992969426	 1.3719499895	 0.276155
N	-0.6685340026	-3.1575548993	 2.3964684924	-0.293803
C	-2.4482499193	-0.0239256401	-0.0938325108	 0.170006
O	-3.5129206876	-0.5910967809	-0.1548368401	-0.311669
H	 1.0621016113	 1.8082372127	-0.1102285729	 0.165291
H	-0.438314063	 1.7848444314	-1.0657590528	 0.144007
H	-0.5098898451	 1.9828325848	 0.692889973	 0.150488
H	 1.0782410929	-1.6080974156	 0.357520329	 0.232982
H	-2.3090445679	-2.4115727263	-0.1903584844	 0.204914
H	-0.6127962206	-2.5591074091	-0.6979897381	 0.17106
H	-2.3510723627	 1.0681745758	-0.126334692	 0.120644
53.596	74.0302	121.6165	193.2104	255.6889	272.4433	338.4369	348.6537	387.9233	411.9157	500.3575	552.758	590.4014	655.7108	820.9458	886.0591	932.9137	975.522	999.8741	1027.9858	1070.0347	1076.7676	1184.5401	1236.3564	1337.0598	1363.5724	1386.478	1409.7758	1443.5823	1462.6179	1481.9021	1490.6712	1717.5261	1799.4234	2366.0612	3044.7967	3057.5452	3067.7593	3106.6683	3114.6648	3168.3266	3510.8994
CC(=N)N(CC#N)C=O	CC(=N)N(CC#N)C=O	
InChI=1S/C5H7N3O/c1-5(7)8(4-9)3-2-6/h4,7H,3H2,1H3	InChI=1S/C5H7N3O/c1-5(7)8(4-9)3-2-6/h4,7H,3H2,1H3
