13
gdb 19783	3.3205	2.75728	1.84926	3.7356	57.08	-0.2512	-0.0331	0.2181	698.4808	0.096712	-398.567413	-398.561642	-398.560698	-398.597219	22.489	
O	-0.0414360199	-0.0107903859	 0.0494126654	-0.306214
C	-0.0443176497	 1.1868731413	 0.0061007383	 0.404881
C	-1.2679064451	 2.0911544358	-0.0767071253	-0.088395
O	-1.3762251227	 2.8452432843	 1.1511763911	-0.241362
C	-0.7779922668	 3.4737838607	 0.0194788299	 0.031486
C	 0.7362340754	 3.4178777217	 0.0238756096	-0.058428
C	 1.4277125165	 2.8210367214	 1.1963993141	-0.249316
N	 1.1388445656	 2.002402373	-0.0051378084	-0.140064
H	-2.1984653087	 1.7572847456	-0.5238300527	 0.126047
H	-1.3056154965	 4.3272649317	-0.393412417	 0.116951
H	 1.2652303919	 4.0775994457	-0.6572590475	 0.111295
H	 2.4828661658	 3.0196500657	 1.3571007379	 0.135634
H	 0.8357950241	 2.6323855692	 2.0845678646	 0.157484
155.3927	259.7028	326.9795	455.5062	524.0782	622.298	704.149	725.8505	789.9701	830.4083	854.6176	871.672	894.1621	967.1555	1007.3583	1043.8295	1075.1364	1096.3623	1122.2632	1138.9877	1153.9279	1236.4949	1283.2762	1309.6123	1370.0127	1404.9736	1492.1604	1861.1804	3129.0787	3158.2939	3172.4694	3183.2833	3230.836
O=C1C2OC2C2CN12	O=C1[C@H]2O[C@H]2[C@H]2CN12	
InChI=1S/C5H5NO2/c7-5-4-3(8-4)2-1-6(2)5/h2-4H,1H2	InChI=1S/C5H5NO2/c7-5-4-3(8-4)2-1-6(2)5/h2-4H,1H2/t2-,3+,4+,6?/m1/s1
