23
gdb 39390	2.25963	2.03185	1.36814	0.2972	88.76	-0.2467	0.082	0.3287	1045.4446	0.209787	-351.126529	-351.119082	-351.118137	-351.157765	32.007	
C	 0.0040442082	 1.5351693494	-0.0379158857	-0.446273
C	 1.2808116983	 0.7093458235	-0.0739593307	-0.007558
C	 2.2572935718	 0.4685990305	 1.0561653995	-0.239643
C	 2.5577539611	-1.0629969086	 1.2375953963	-0.193723
C	 1.7833062954	-2.0710723206	 0.3406404986	-0.198754
C	 0.224574448	-1.9995129669	 0.3106370662	 0.013488
C	-0.3220266272	-0.8697691574	 1.2300615224	-0.280546
C	-0.0619360681	 0.0425998465	 0.0280464817	 0.378821
C	-0.3120910366	-1.151737231	-0.8944444033	-0.303363
H	-0.2432351978	 2.0725716154	 0.8739700745	 0.107425
H	-0.2814741886	 2.0559108798	-0.9469333628	 0.109015
H	 1.7265100536	 0.6459640971	-1.0652482865	 0.078376
H	 3.1911108145	 1.0149876002	 0.8845682256	 0.092574
H	 1.8463809536	 0.8697195995	 1.9886107566	 0.098171
H	 3.6238167845	-1.2453446009	 1.0616559681	 0.09356
H	 2.3904136635	-1.333346456	 2.2864318328	 0.099872
H	 2.1571648207	-1.9936336128	-0.6876336434	 0.095791
H	 2.0791367767	-3.0700612146	 0.6810625635	 0.091343
H	-0.2142975793	-2.9936202195	 0.4301809446	 0.055487
H	-1.395085887	-0.9887400947	 1.4149709901	 0.08875
H	 0.1784383931	-0.672165351	 2.1793021791	 0.091631
H	 0.2402142579	-1.193750679	-1.8384342148	 0.086879
H	-1.3735722662	-1.3517141791	-1.0807345225	 0.088677
165.1154	197.8328	304.6872	343.5398	362.5286	371.0384	436.683	501.2687	550.6728	618.5906	742.2385	750.0254	799.0168	840.6254	849.8396	865.4707	884.7664	889.1279	939.8441	959.4274	990.5442	1015.5526	1021.9181	1055.3262	1066.5295	1082.8603	1111.7642	1123.0484	1147.8175	1164.1389	1180.0437	1215.3184	1230.2615	1231.7881	1269.712	1281.9307	1284.7368	1319.9052	1344.4763	1358.4497	1372.0914	1375.4343	1435.0885	1480.781	1486.3645	1492.2375	1494.7154	1504.481	1524.6899	3022.2396	3027.5032	3028.9793	3040.1065	3046.5965	3050.8199	3059.0201	3071.7655	3078.475	3085.9111	3112.7303	3114.5587	3116.2064	3196.7512
C1C2CCCC3CC12C3	C1[C@H]2CCC[C@H]3C[C@@]12C3	
InChI=1S/C9H14/c1-2-7-4-9(5-7)6-8(9)3-1/h7-8H,1-6H2	InChI=1S/C9H14/c1-2-7-4-9(5-7)6-8(9)3-1/h7-8H,1-6H2/t7-,8-,9+/m1/s1
