19
gdb 109263	3.21014	1.42592	1.10653	1.5905	76.39	-0.2167	0.0498	0.2665	1134.9603	0.161654	-419.201442	-419.193356	-419.192411	-419.234418	30.068	
C	 0.3785540867	 1.3016865642	 0.085043228	-0.230889
O	 0.2238153037	-0.1115552589	-0.064550466	-0.252068
C	 0.5616462874	-0.5984310554	-1.2598457927	 0.447623
N	 0.9690055775	 0.0865909955	-2.2595477894	-0.360981
C	 1.3014463745	-0.8708939733	-3.3216461773	-0.189294
C	 1.1219857779	-2.2720449657	-2.684113974	 0.01906
C	 2.2985815885	-2.9453931696	-1.9265451914	-0.248568
C	 1.4465153402	-2.8099557116	-0.6353852998	-0.180612
N	 0.4356646953	-1.9898367352	-1.3820187004	-0.15885
H	 1.4162590202	 1.5979295745	-0.0921393258	 0.135551
H	-0.2610466691	 1.8349699935	-0.6232037873	 0.141493
H	 0.0842743068	 1.5254684399	 1.1110850694	 0.127962
H	 0.6298384884	-0.7329105801	-4.1778449032	 0.106535
H	 2.3230572837	-0.7042066381	-3.6875005168	 0.101891
H	 0.5544235545	-2.9604946975	-3.3150171425	 0.083402
H	 2.5599130648	-3.9600707828	-2.2329545042	 0.107213
H	 3.2041820155	-2.332999008	-1.9149639199	 0.113635
H	 1.0082514698	-3.7471929271	-0.2833639415	 0.115389
H	 1.8962257436	-2.2878841642	 0.2127069951	 0.121509
82.4777	129.2774	147.5482	218.9118	241.1977	290.6767	344.764	489.5564	647.1559	687.1315	728.7993	754.3872	799.5525	825.5073	897.3459	921.8657	956.6441	1012.518	1042.6545	1052.2378	1072.9264	1094.9282	1133.0242	1181.4808	1183.0997	1213.8777	1220.4679	1228.318	1256.8267	1270.1433	1302.705	1319.7804	1353.2213	1385.6983	1476.816	1480.0075	1482.9494	1500.744	1505.7679	1518.3558	1698.8622	3015.1134	3041.7363	3046.0818	3060.0006	3065.3339	3073.9493	3107.5129	3119.3655	3127.3612	3151.4419
COC1=NCC2CCN12	CO[C]1[N]C[C@H]2CCN12	
InChI=1S/C6H10N2O/c1-9-6-7-4-5-2-3-8(5)6/h5H,2-4H2,1H3	InChI=1S/C6H10N2O/c1-9-6-7-4-5-2-3-8(5)6/h5H,2-4H2,1H3/t5-/m1/s1
