20
gdb 31813	4.45446	0.97218	0.85387	1.9089	90.73	-0.2403	-0.0186	0.2218	1431.0285	0.171997	-366.091163	-366.082129	-366.081185	-366.125993	33.031	
C	 0.1078086661	 1.5441224844	 0.1462327968	-0.367302
C	-0.0548202452	 0.0254336644	-0.0261751878	-0.264696
C	 0.695077387	-0.4982665532	-1.2284170809	 0.314877
N	 0.2285043573	-0.1332774711	-2.4299740371	-0.312915
C	 0.8730123931	-0.560653683	-3.5154068893	-0.0734
C	 2.0109641981	-1.3703118708	-3.500611253	 0.264257
C	 2.6802920374	-1.8147141653	-4.7750441331	-0.498322
C	 2.4864244608	-1.7430832965	-2.2424560441	-0.148981
C	 1.8279154992	-1.3069428494	-1.1009036583	-0.162906
H	 1.1548196061	 1.8110878414	 0.3243685624	 0.112403
H	-0.2243157099	 2.0620709861	-0.7573563844	 0.137513
H	-0.4836301488	 1.9072457643	 0.9923134808	 0.109236
H	 0.2856750251	-0.4943999067	 0.8758787428	 0.093969
H	-1.1179499057	-0.2079034789	-0.1536977746	 0.11571
H	 0.4572950964	-0.2417251661	-4.4706040407	 0.09703
H	 3.7229505871	-1.4804013035	-4.818246904	 0.13264
H	 2.6891834883	-2.9069388675	-4.8638634443	 0.132916
H	 2.1652656335	-1.4138018945	-5.6523730612	 0.127939
H	 3.3674005081	-2.3738175026	-2.1578386183	 0.096411
H	 2.1845869161	-1.5900228714	-0.1159850918	 0.09362
41.0621	57.8083	100.7396	212.3091	229.0938	300.3857	362.8413	396.5871	424.0102	480.552	557.3106	655.0692	721.0694	782.1178	799.2557	841.5048	857.0781	957.15	982.2656	985.3448	1003.7799	1047.3709	1068.574	1075.4811	1085.658	1160.7303	1239.0025	1249.2534	1267.2255	1304.8576	1341.0456	1360.2346	1401.1698	1414.2377	1415.8983	1479.6081	1485.2498	1495.3495	1496.1804	1508.2294	1523.7909	1604.2486	1642.8926	3030.0225	3036.59	3037.5021	3076.252	3083.4045	3105.6072	3111.8708	3124.1421	3132.7324	3161.2438	3184.9055
CCC1=NC=C(C)C=C1	CCc1ncc(C)cc1	
InChI=1S/C8H11N/c1-3-8-5-4-7(2)6-9-8/h4-6H,3H2,1-2H3	InChI=1S/C8H11N/c1-3-8-5-4-7(2)6-9-8/h4-6H,3H2,1-2H3
