20
gdb 90656	3.76466	1.04217	1.00093	3.447	80.91	-0.2408	-0.0227	0.2181	1281.2441	0.169257	-403.121822	-403.112702	-403.111757	-403.155453	34.282	
C	-0.2579836163	 1.6822274361	 0.4375713833	-0.403972
C	-0.2426087827	 0.1693362648	 0.3283545021	 0.087516
C	 0.6984680446	-0.4246377837	-0.754800416	-0.287251
C	 1.45799812	-1.0746705373	 0.395472405	-0.062568
N	 0.5898842102	-0.4302700285	 1.4465022676	-0.188708
C	 0.5797888923	-1.9161467258	 1.2638708875	 0.214818
C	-0.6094965077	-2.7195967113	 0.7937142141	-0.494257
C	 1.3345160324	-2.5255962268	 2.4098619398	 0.1405
O	 1.1577802028	-3.6416361688	 2.8281278922	-0.270225
H	 0.760828088	 2.0798421493	 0.4833243579	 0.122618
H	-0.764293515	 2.1238296094	-0.4273608867	 0.115928
H	-0.7830067141	 1.9956185299	 1.3448838759	 0.128428
H	-1.2664422267	-0.2164471913	 0.3216397088	 0.082651
H	 0.2746262283	-1.0879727762	-1.5135609238	 0.110247
H	 1.2868548113	 0.347847448	-1.2549097796	 0.115589
H	 2.5405988134	-1.1010016291	 0.4899355044	 0.097334
H	-0.927234974	-2.4677336887	-0.2186986549	 0.121771
H	-0.3450368943	-3.7792133206	 0.8224079404	 0.148607
H	-1.4603271383	-2.5796662775	 1.4687967242	 0.134637
H	 2.0904388557	-1.8423885018	 2.8541976177	 0.086339
89.9577	119.898	163.9364	207.8043	234.9654	276.9394	303.9044	318.1912	397.3177	412.5287	476.8591	588.1696	714.5405	743.6906	791.4975	845.5255	876.1475	894.6731	934.2051	991.2143	1013.1749	1025.9668	1034.405	1085.4306	1092.2952	1107.1513	1139.7994	1200.5576	1226.0163	1260.7664	1274.3503	1325.403	1367.8186	1378.6888	1408.8207	1413.492	1430.8849	1483.6317	1486.9375	1489.1142	1496.6984	1502.2186	1825.091	2903.5407	3035.069	3050.1846	3056.8051	3062.123	3108.0447	3110.7996	3116.1959	3116.9732	3140.7547	3144.0034
CC1CC2N1C2(C)C=O	C[C@H]1C[C@H]2N1[C@]2(C)C=O	
InChI=1S/C7H11NO/c1-5-3-6-7(2,4-9)8(5)6/h4-6H,3H2,1-2H3	InChI=1S/C7H11NO/c1-5-3-6-7(2,4-9)8(5)6/h4-6H,3H2,1-2H3/t5-,6+,7+,8?/m0/s1
