23
gdb 102291	2.42341	0.86259	0.73637	1.5203	88.43	-0.2583	0.0451	0.3033	1663.8499	0.202651	-388.262182	-388.250929	-388.249985	-388.299073	41.108	
C	-0.0342684913	 1.5549798632	-0.1346905966	-0.386312
C	 0.0467441788	 0.022785464	-0.0827194163	 0.028891
C	 0.8500890033	-0.5156127353	-1.2753259183	-0.394041
C	 0.6658331909	-0.4914661266	 1.2318177674	-0.182861
C	-0.0928502694	-0.1288726018	 2.5313547328	-0.201131
C	-1.5112807828	-0.7456731546	 2.5922773288	-0.052468
O	-2.1892399669	-0.42957177	 3.7878043665	-0.42351
C	 0.6613154651	-0.5641999098	 3.7068891804	 0.293229
C	 1.2430325796	-0.9607056665	 4.6831578624	-0.452064
H	 0.9607671501	 2.0018079782	-0.0195709115	 0.114192
H	-0.4382747247	 1.8897218769	-1.0955833421	 0.113212
H	-0.6769276386	 1.9660699312	 0.649749328	 0.118798
H	-0.9732783564	-0.374849592	-0.1690345141	 0.080387
H	 1.883790945	-0.1503904251	-1.2484874208	 0.113898
H	 0.8842341067	-1.6101069014	-1.2735652235	 0.111759
H	 0.409429657	-0.19433687	-2.2246400692	 0.111539
H	 0.7581798133	-1.5837766854	 1.1844511437	 0.102385
H	 1.6890460279	-0.1044670646	 1.3140550567	 0.10541
H	-0.2108820327	 0.9601152085	 2.5949531798	 0.11434
H	-2.1226233863	-0.3412423321	 1.7810642143	 0.110889
H	-1.4295816066	-1.834595986	 2.4422038523	 0.090684
H	-1.6214150164	-0.7109576402	 4.5157883886	 0.28452
H	 1.7800017245	-1.2906404505	 5.5380679707	 0.198254
34.237	84.3473	116.6164	126.9779	167.1109	224.4917	242.0766	265.5628	283.3656	318.7123	389.6297	414.8832	421.0839	471.1374	527.8342	591.1141	624.4167	652.8161	793.4542	832.0882	866.9851	929.8541	954.492	967.6391	1008.6971	1033.0323	1068.0551	1086.9534	1138.9744	1166.0055	1192.785	1213.2338	1242.7743	1300.1739	1324.7151	1348.5473	1370.1059	1380.4205	1389.7641	1403.7028	1424.3499	1431.3542	1478.6373	1489.2546	1494.9775	1504.8796	1507.5325	1511.8968	2224.4499	2972.7166	3011.1356	3020.898	3024.1113	3030.358	3033.9726	3063.9984	3089.5586	3091.2208	3096.433	3100.3907	3103.6073	3502.2597	3776.4804
CC(C)CC(CO)C#C	CC(C)C[C@@H](CO)C#C	
InChI=1S/C8H14O/c1-4-8(6-9)5-7(2)3/h1,7-9H,5-6H2,2-3H3	InChI=1S/C8H14O/c1-4-8(6-9)5-7(2)3/h1,7-9H,5-6H2,2-3H3/t8-/m0/s1
