16
gdb 106259	2.69603	1.32551	1.07031	2.6491	67.02	-0.2543	0.0091	0.2634	1133.7354	0.122895	-474.975781	-474.967221	-474.966277	-475.009247	31.8	
O	 0.6763248628	 0.1747519439	-0.6550557455	-0.401286
C	-0.2163282399	 0.2846706362	 0.4372927209	-0.18978
C	-1.5135791464	-0.4229159901	 0.1613430449	 0.33988
O	-2.53278703	-0.3623155169	 1.2032729849	-0.324754
C	-2.7735156404	-1.7436026672	 1.0461515337	 0.440103
N	-3.4770956148	-2.5117605367	 1.7378944999	-0.549367
C	-1.877609121	-1.8835520293	-0.1297169764	-0.300984
C	-2.1955166966	-0.7358171944	-1.1160860784	 0.075666
O	-3.4626049855	-0.291632316	-1.4442225186	-0.423152
H	 0.3785779887	 0.775575562	-1.3456060302	 0.294921
H	 0.2790806896	-0.1746112351	 1.2989850281	 0.133802
H	-0.4274795378	 1.3319213969	 0.7017022959	 0.113926
H	-3.9292928788	-2.0166037886	 2.5078465216	 0.233416
H	-1.2783968185	-2.7425365334	-0.3935139445	 0.129652
H	-1.5506122058	-0.7762917762	-1.9888487319	 0.127189
H	-3.8840885458	 0.006743535	-0.6276210746	 0.300768
64.8798	128.6988	166.4623	216.5201	246.704	316.4956	378.1329	392.1908	442.2529	466.9793	623.2516	683.9204	700.9494	721.4516	807.6521	867.1566	909.4378	917.1315	951.494	976.367	1030.0791	1065.8168	1085.0514	1101.7488	1164.4459	1184.981	1221.6612	1252.1067	1310.9937	1374.074	1388.9023	1408.3892	1485.6795	1503.1837	1836.358	2995.2209	3077.3962	3171.0328	3232.6583	3484.8366	3771.0929	3820.9994
OCC12OC(=N)C1C2O	OC[C@]12O[C]([NH])[C@H]1[C@H]2O	
InChI=1S/C5H7NO3/c6-4-2-3(8)5(2,1-7)9-4/h2-3,6-8H,1H2	InChI=1S/C5H7NO3/c6-4-2-3(8)5(2,1-7)9-4/h2-3,6-8H,1H2/t2-,3-,5+/m1/s1
