22
gdb 107481	2.10343	1.64506	1.21712	1.7382	86.25	-0.218	0.0789	0.2969	1160.4015	0.194238	-367.156581	-367.147666	-367.146721	-367.189923	34.897	
C	 0.2069672408	 1.5763859972	-0.1596226455	-0.377804
C	 0.0121061486	 0.0583729664	-0.0329799541	-0.310382
C	-1.4271888854	-0.371147396	 0.031743794	 0.257762
N	-1.9038416212	-1.6514538474	-0.5683706512	-0.381554
C	-2.5098689272	-0.3618512562	-0.995611886	-0.103685
C	-3.5773562702	-0.0135815916	 0.0491597632	-0.311382
C	-2.4582821792	-0.0704994152	 1.1180282564	 0.378037
C	-2.5282942786	-0.6614957485	 2.4915429404	-0.313455
C	-2.3165814429	 0.8264545894	 2.3116862339	-0.345936
H	 1.2709358119	 1.8299408948	-0.1982185927	 0.111907
H	-0.2638447275	 1.9527147855	-1.0733341194	 0.117476
H	-0.2354063703	 2.1129810926	 0.6837646743	 0.127359
H	 0.4878017211	-0.4357413626	-0.8900535958	 0.095252
H	 0.5412611526	-0.3131376391	 0.8553656229	 0.105264
H	-1.2263403964	-1.9044234225	-1.2893870685	 0.216935
H	-2.4792633275	-0.0569983899	-2.035034651	 0.088115
H	-3.9848305976	 0.9933542989	-0.0794903167	 0.099423
H	-4.3926151909	-0.7359113409	 0.1486400358	 0.103986
H	-3.4944950304	-1.0027266369	 2.8486199002	 0.111788
H	-1.6908796897	-1.259695382	 2.836206863	 0.110975
H	-1.3368650411	 1.2277056694	 2.5499155017	 0.110349
H	-3.137070009	 1.4985897947	 2.5443009049	 0.109566
90.7197	127.9246	167.1483	185.6305	234.7617	258.4994	371.5051	387.1969	455.4793	505.8048	596.3061	618.7416	744.5476	773.1641	796.5542	857.9521	876.0467	886.4198	901.0552	941.6086	961.5553	975.2762	989.7652	1029.1388	1050.1517	1057.2272	1076.4115	1094.2318	1108.9989	1133.2713	1180.3443	1186.6046	1200.7358	1230.0625	1268.8358	1320.7039	1326.5017	1352.9188	1397.287	1407.6996	1434.2827	1464.5564	1476.3915	1479.9435	1496.6219	1506.8137	1508.5783	3010.5653	3040.5306	3043.5038	3048.859	3104.3302	3106.7198	3119.5728	3123.2295	3127.2451	3181.2564	3198.4962	3214.3724	3449.7996
CCC12NC1CC21CC1	CC[C@]12N[C@H]1CC12CC1	
InChI=1S/C8H13N/c1-2-8-6(9-8)5-7(8)3-4-7/h6,9H,2-5H2,1H3	InChI=1S/C8H13N/c1-2-8-6(9-8)5-7(8)3-4-7/h6,9H,2-5H2,1H3/t6-,8-/m0/s1
