20
gdb 57504	2.97214	0.98276	0.88373	3.2396	83.25	-0.248	-0.0384	0.2096	1400.7935	0.168871	-399.356118	-399.34556	-399.344616	-399.391417	38.668	
C	-0.1050251366	 1.5638103147	 0.1122701569	-0.40108
C	 0.0183849324	 0.0300675043	 0.0651546056	 0.273003
C	 0.6683880029	-0.5033446665	 1.3546477754	-0.401071
C	-1.3683778526	-0.6017218395	-0.1226981024	-0.429701
N	 0.8119902523	-0.3815429148	-1.1136729153	-0.338258
C	 2.1062660475	-0.0560827202	-1.3779020656	 0.301057
N	 2.847380956	 0.6728339561	-0.6256975869	-0.526916
C	 2.5914557874	-0.6272302169	-2.6310103033	 0.221166
N	 3.0149918226	-1.0604322222	-3.6160927802	-0.321839
H	 0.8778780647	 2.0268260713	 0.2086895509	 0.156003
H	-0.582725665	 1.9402607989	-0.7976755829	 0.109799
H	-0.7183223838	 1.8599051395	 0.9690154778	 0.112251
H	 0.0603198889	-0.2214624131	 2.2198757054	 0.112242
H	 0.7400538077	-1.595138631	 1.3271166318	 0.109822
H	 1.6698730841	-0.090031271	 1.4810292868	 0.156017
H	-1.8459701377	-0.2418344156	-1.0406879345	 0.119759
H	-1.3024755719	-1.6944045203	-0.1674247394	 0.119796
H	-2.0162271887	-0.3391418952	 0.7172079115	 0.130446
H	 0.3500129756	-0.961712237	-1.7936197227	 0.259232
H	 3.7756263739	 0.7799117584	-1.0251556686	 0.238271
51.0968	111.6409	132.7115	208.4704	227.6677	260.1699	270.2523	276.644	322.0044	323.1771	361.3193	371.9149	411.3602	467.8761	542.3509	606.8805	726.0253	772.0504	807.2908	904.7656	925.4246	934.52	942.2781	969.8939	1057.234	1065.4139	1172.1233	1242.903	1245.5477	1251.5053	1336.4477	1397.8047	1400.1391	1430.0436	1472.9089	1489.4852	1492.6917	1494.0805	1506.1785	1525.0586	1553.5826	1683.6891	2345.2766	3030.4929	3039.6918	3045.207	3097.0987	3106.5168	3109.1035	3123.776	3146.2329	3148.9222	3535.0439	3653.8697
CC(C)(C)NC(=N)C#N	CC(C)(C)NC(=N)C#N	
InChI=1S/C6H11N3/c1-6(2,3)9-5(8)4-7/h1-3H3,(H2,8,9)	InChI=1S/C6H11N3/c1-6(2,3)9-5(8)4-7/h1-3H3,(H2,8,9)
