22
gdb 63476	3.0392	1.03646	0.90431	4.2059	87.06	-0.2746	0.037	0.3116	1382.3753	0.191911	-367.229133	-367.218655	-367.21771	-367.264349	38.834	
C	 0.0072617352	 1.4787817916	-0.1927658757	-0.449163
C	 0.01871845	-0.0273919528	 0.0208421614	 0.269819
C	-1.1921735814	-0.6908541355	-0.6193736188	-0.455566
C	 1.3443334397	-0.7589579854	-0.0230055008	-0.360411
C	 0.6309383261	-0.5932626263	 1.3021335601	 0.313878
C	 1.2267140053	 0.3327291698	 2.3505474171	-0.471653
C	-0.002292998	-1.8363843311	 1.9363853048	-0.413624
C	 0.9816916824	-2.6713580008	 2.6305303025	 0.275888
N	 1.767278682	-3.3222686956	 3.1736721599	-0.317271
H	 0.9099962658	 1.9683745779	 0.17566625	 0.118323
H	-0.0710051988	 1.7026725231	-1.2627584892	 0.11899
H	-0.8532673648	 1.9436183219	 0.3029227351	 0.116514
H	-1.2648417082	-0.3892718904	-1.6703358105	 0.121214
H	-1.1447515072	-1.7821417631	-0.6086079374	 0.116304
H	-2.1242866804	-0.3868148757	-0.1280391717	 0.117186
H	 1.3686416097	-1.7464601032	-0.4742276674	 0.112612
H	 2.2510609555	-0.1832521741	-0.1802563539	 0.112493
H	 1.7918712883	 1.1533993946	 1.907236512	 0.12223
H	 0.4476524275	 0.7672831862	 2.9886505419	 0.11593
H	 1.9146988531	-0.221652114	 2.9979115241	 0.143628
H	-0.7705708973	-1.5421276742	 2.6629044535	 0.146813
H	-0.5001279148	-2.4621565329	 1.1928435029	 0.145867
53.9449	109.2955	164.6511	169.9741	174.8434	200.3891	276.2042	319.8703	352.2716	378.2336	387.2462	397.3115	437.3522	461.8179	551.5947	691.3013	736.1974	873.2486	901.0949	915.3022	937.0268	957.4041	966.6206	970.076	1032.7597	1040.3765	1070.5173	1110.8682	1152.0889	1170.2389	1221.7078	1269.0272	1306.2888	1327.0071	1393.6565	1412.2865	1419.2155	1430.5491	1457.21	1481.6741	1489.4606	1491.3345	1496.0711	1504.1748	1509.4111	1521.3175	2358.4141	3025.443	3028.2274	3031.7502	3036.7297	3081.3048	3085.2059	3088.8186	3103.8706	3117.4618	3122.4899	3123.9179	3140.0719	3204.9991
CC1(C)CC1(C)CC#N	CC1(C)C[C@]1(C)CC#N	
InChI=1S/C8H13N/c1-7(2)6-8(7,3)4-5-9/h4,6H2,1-3H3	InChI=1S/C8H13N/c1-7(2)6-8(7,3)4-5-9/h4,6H2,1-3H3/t8-/m0/s1
