19
gdb 29702	2.41569	1.53462	0.95367	2.0667	80.88	-0.1655	0.0558	0.2213	1225.4035	0.158392	-419.237323	-419.22704	-419.226096	-419.272348	36.706	
C	 0.0200227421	 1.4470125762	 0.0212074651	-0.345617
N	 0.029462175	 0.0013824252	 0.0184130352	-0.065852
C	 0.0782439551	-0.7888784548	-1.1051052782	 0.258154
N	 0.1494207367	-0.1912174582	-2.384966365	-0.608394
C	 0.1020029934	-2.1109392109	-0.7036737453	-0.376792
C	 0.05887472	-2.1052923863	 0.716104894	 0.264079
O	 0.0661577042	-3.1825251822	 1.5645286878	-0.459292
C	 0.0013939654	-0.8018876219	 1.1538159516	 0.202809
C	-0.0769892607	-0.2650753448	 2.541833504	-0.512226
H	 0.2622826834	 1.7881931185	-0.9858598795	 0.156074
H	-0.9596001019	 1.848861303	 0.3083653769	 0.123795
H	 0.7672874635	 1.8352650785	 0.720185788	 0.131607
H	-0.7673728902	-0.0576682195	-2.8031818456	 0.241092
H	 0.6892643932	-0.7689672494	-3.0179677671	 0.244015
H	 0.1332165633	-2.9716429754	-1.3558963779	 0.07466
H	 0.0428886648	-3.9830611366	 1.0339743662	 0.291563
H	 0.7950499939	 0.3436528582	 2.8169064582	 0.117979
H	-0.9679315286	 0.3553693295	 2.7068457326	 0.116635
H	-0.1242852528	-1.1039267893	 3.2400269089	 0.14571
88.4728	111.8813	112.703	170.5331	190.127	194.5903	244.1543	255.1469	302.5551	323.6985	352.0821	550.309	601.2035	605.2445	629.5736	666.4065	705.5978	737.7946	822.2382	856.7154	1002.6166	1062.8335	1092.7532	1151.4566	1154.9839	1167.7641	1210.3792	1222.5933	1295.7194	1377.4272	1416.2887	1442.9263	1464.8297	1481.7801	1484.6417	1500.1189	1511.3255	1523.3841	1550.9633	1650.9703	1675.7876	3002.7259	3021.6365	3040.3899	3080.7452	3123.4105	3147.666	3230.3464	3482.3107	3582.3906	3851.9877
CN1C(N)=CC(O)=C1C	Cn1c(N)cc(O)c1C	
InChI=1S/C6H10N2O/c1-4-5(9)3-6(7)8(4)2/h3,9H,7H2,1-2H3	InChI=1S/C6H10N2O/c1-4-5(9)3-6(7)8(4)2/h3,9H,7H2,1-2H3
