17
gdb 36133	4.07206	1.10637	0.99036	4.6321	77.46	-0.2479	0.0018	0.2497	1198.1305	0.137307	-380.866678	-380.858915	-380.85797	-380.899424	29.686	
N	-0.1555524891	-1.090969423	 0.5191987311	-0.303854
C	-0.1033997073	 0.0160682958	 0.1930526946	 0.269875
C	-0.0291202898	 1.4183587787	-0.227688047	-0.455127
C	 1.3865999287	 1.9618364244	-0.2268393791	 0.318848
N	 2.0308029521	 2.3730677058	 1.0496958774	-0.354699
C	 1.7157723304	 3.3929491813	 0.0234822015	-0.110673
C	 2.9024506889	 3.769288937	-0.857810441	-0.264427
C	 3.2337310314	 2.4642079789	-1.555681584	-0.070069
C	 2.3935533806	 1.481823239	-1.2265096059	-0.115289
H	-0.4613472703	 1.4969569115	-1.2325452638	 0.160979
H	-0.66433295	 2.0144125508	 0.4377370479	 0.147947
H	 1.3244802947	 2.4230305826	 1.7837519409	 0.227771
H	 0.9446170989	 4.1251979639	 0.2405360001	 0.09077
H	 2.6413995473	 4.5607824441	-1.5721061846	 0.110189
H	 3.744977045	 4.1390796645	-0.2616222293	 0.128179
H	 4.0877281932	 2.3612893684	-2.2153290341	 0.10431
H	 2.4313339452	 0.4584254766	-1.5796764148	 0.115268
55.6568	109.6406	238.1704	271.2699	339.8183	390.738	432.5454	461.6583	507.0176	702.8689	714.3393	747.156	785.2875	859.5677	888.2602	910.7058	923.3616	945.4322	955.8354	980.4174	1011.7146	1042.5519	1081.3	1123.6258	1155.7466	1190.0814	1202.6588	1270.2227	1295.4986	1326.3668	1344.0576	1387.5656	1428.165	1454.778	1463.9415	1669.9936	2363.849	3026.0478	3035.9614	3064.6686	3075.9145	3159.4155	3194.1133	3218.8468	3464.0332
N#CCC12NC1CC=C2	N#CC[C@]12N[C@H]1CC=C2	
InChI=1S/C7H8N2/c8-5-4-7-3-1-2-6(7)9-7/h1,3,6,9H,2,4H2	InChI=1S/C7H8N2/c8-5-4-7-3-1-2-6(7)9-7/h1,3,6,9H,2,4H2/t6-,7-/m0/s1
