20
gdb 22266	2.1901	1.35532	1.03522	2.0966	78.67	-0.237	-0.0011	0.2359	1242.5163	0.167494	-440.234067	-440.223788	-440.222844	-440.269229	37.996	
C	 0.5557196584	 1.3631939614	 0.0574078844	-0.477835
C	-0.002081588	-0.0349749832	 0.0217999829	 0.30019
N	-0.4965947579	-0.6213787614	 1.0475567755	-0.189453
O	-0.4398672803	 0.1829362338	 2.194625378	-0.395874
C	-0.0337796124	-0.7951034046	-1.2664444114	 0.208294
C	-1.0396734172	-0.2545346887	-2.2721405757	-0.460725
C	 1.2842325403	-1.3413394074	-1.8049878134	-0.34645
C	 0.2326743723	-2.2825175681	-1.2648189404	 0.08907
O	 0.5028181122	-2.975599613	-0.0907960107	-0.432177
H	 0.9653432011	 1.6481658289	-0.9124913306	 0.12796
H	-0.2207609881	 2.0787646015	 0.3471683263	 0.148482
H	 1.3417665786	 1.4366759799	 0.8155128039	 0.151392
H	-0.8371256535	-0.3826212435	 2.8653065822	 0.30792
H	-0.8279939372	 0.7890092956	-2.5321563312	 0.119002
H	-1.0091832634	-0.8361468016	-3.1983624262	 0.121482
H	-2.0582942623	-0.3040765214	-1.8727975685	 0.127193
H	 1.4644639818	-1.2880822041	-2.8739316429	 0.107466
H	 2.1646785148	-1.228436825	-1.1816373748	 0.120729
H	-0.3332496476	-2.8619454415	-1.9947255009	 0.084277
H	 0.0112878083	-2.5252961076	 0.6126981734	 0.289057
49.4469	98.305	160.9103	169.2831	210.9868	232.4738	269.4835	307.3742	346.7069	376.4022	408.8801	446.6926	486.0524	510.8464	583.7664	597.1026	738.6757	811.4825	875.6405	907.565	946.5236	980.7742	1030.1237	1036.0941	1044.8186	1059.0176	1109.0681	1128.3986	1168.5975	1177.1894	1264.4751	1346.3565	1395.1178	1398.816	1409.9976	1415.4423	1419.8382	1472.0074	1479.1314	1481.3984	1490.4937	1504.3851	1712.033	3026.1452	3045.3202	3089.4699	3093.7237	3102.2224	3105.5234	3128.0268	3143.7867	3221.3814	3686.184	3821.2706
CC(=NO)C1(C)CC1O	CC(=NO)[C@@]1(C)C[C@H]1O	
InChI=1S/C6H11NO2/c1-4(7-9)6(2)3-5(6)8/h5,8-9H,3H2,1-2H3	InChI=1S/C6H11NO2/c1-4(7-9)6(2)3-5(6)8/h5,8-9H,3H2,1-2H3/t5-,6-/m1/s1
