18
gdb 70263	2.8828	1.37782	1.16483	3.9983	75.13	-0.2631	0.0172	0.2803	1105.7939	0.147894	-401.951334	-401.943093	-401.942149	-401.984338	31.291	
C	-0.2440044833	 1.5353517421	 0.1123658756	-0.487046
C	-0.0508081026	 0.0399423382	 0.0273183646	 0.322992
C	-0.8939754816	-0.9009967994	 0.8730771794	-0.348541
C	 0.5840056664	-0.7709370874	 1.1208764815	 0.059879
O	 1.3880548684	-1.7890357507	 0.5576206355	-0.252178
C	 1.6872791075	-1.4239562777	-0.7851788934	-0.028593
C	 0.493701369	-0.5625324819	-1.2760284021	-0.326031
C	 2.9600586982	-0.6710384753	-0.8470388231	 0.272803
N	 3.9490169183	-0.0749756033	-0.8945165439	-0.321224
H	 0.6742617403	 2.0687245563	-0.1570590952	 0.133685
H	-1.0396373927	 1.8711324094	-0.5623185671	 0.124074
H	-0.5230258981	 1.8386989965	 1.1260718457	 0.121814
H	-1.5707165338	-0.452672897	 1.5937319151	 0.116412
H	-1.2402260894	-1.8308043583	 0.4337331524	 0.117937
H	 0.9818850412	-0.3430411809	 2.034944738	 0.110239
H	 1.8119108607	-2.3465249849	-1.3594315517	 0.133364
H	-0.2392850691	-1.1978556809	-1.7810241379	 0.118602
H	 0.8148394304	 0.2092168351	-1.9787112733	 0.131812
58.7544	141.8425	211.2391	231.0146	262.6419	322.2544	369.38	420.5726	497.6932	564.8505	616.682	730.4413	771.8017	815.8409	844.04	875.5938	936.2477	954.6078	979.033	1001.406	1030.5295	1039.7423	1052.6858	1097.3656	1121.4936	1132.85	1190.9155	1259.3658	1281.8256	1297.165	1318.4972	1358.9199	1403.8416	1420.9423	1476.8711	1488.9264	1495.7613	1501.3332	2352.5218	3027.0577	3061.1917	3079.8828	3090.1039	3103.6224	3117.8332	3125.4412	3168.0955	3217.2772
CC12CC1OC(C2)C#N	C[C@]12C[C@H]1O[C@@H](C2)C#N	
InChI=1S/C7H9NO/c1-7-2-5(4-8)9-6(7)3-7/h5-6H,2-3H2,1H3	InChI=1S/C7H9NO/c1-7-2-5(4-8)9-6(7)3-7/h5-6H,2-3H2,1H3/t5-,6+,7-/m0/s1
