15
gdb 132044	2.34533	1.83211	1.03519	4.0591	74.81	-0.2124	-0.0412	0.1712	1081.3521	0.112024	-461.944961	-461.937062	-461.936118	-461.97753	29.488	
C	-0.011973666	 1.5321860088	-0.0119775701	-0.497402
C	-0.0097758124	 0.0307721582	 0.0041153207	 0.148835
C	-1.1414510065	-0.697795047	-0.1030343197	 0.132109
F	-2.3313923543	-0.1158780271	-0.230126148	-0.055164
C	-1.172457885	-2.1539305781	-0.0915071478	 0.307266
N	-2.237016322	-2.8337610768	-0.1934992168	-0.531026
O	 0.0711064999	-2.7643449694	 0.0431048945	-0.241276
C	 1.2111094695	-2.0412247906	 0.1503499853	 0.069559
C	 1.2306712501	-0.7018057648	 0.1373889225	-0.243243
H	 0.6002562487	 1.9094986101	-0.8389980864	 0.140494
H	-1.0226782069	 1.9257754486	-0.1199933199	 0.149813
H	 0.4204044575	 1.9279771492	 0.9140253148	 0.140543
H	-2.029899667	-3.8319142572	-0.1618416881	 0.225914
H	 2.0781158015	-2.6818339901	 0.2453507386	 0.139459
H	 2.1716893528	-0.1745206737	 0.2265215205	 0.114116
109.4624	121.3923	167.2499	285.6178	285.8438	324.0466	479.7928	493.709	518.0846	532.3334	585.1039	682.1437	749.8061	781.6315	839.8485	842.4097	915.3062	953.2286	985.246	1058.9413	1079.1703	1123.9476	1219.374	1251.5377	1289.999	1369.2011	1416.0464	1444.1001	1485.8019	1489.0277	1630.3972	1705.901	1742.5042	3035.0226	3084.8967	3152.9998	3211.3632	3232.8837	3497.3456
CC1=C(F)C(=N)OC=C1	C[C@H]1C(=C([NH])OC=C1)F	
InChI=1S/C6H6FNO/c1-4-2-3-9-6(8)5(4)7/h2-3,8H,1H3	InChI=1S/C6H7FNO/c1-4-2-3-9-6(8)5(4)7/h2-4,8H,1H3/t4-/m1/s1
