13
gdb 125737	2.36205	1.8423	1.04178	5.7855	61.83	-0.2783	-0.0598	0.2185	1048.2507	0.0882	-489.921425	-489.913601	-489.912657	-489.954097	27.651	
C	-0.0276389643	 1.5028639542	 0.0578845234	-0.504498
C	-0.0126248385	 0.0162774435	-0.0024177911	 0.42413
N	-0.0381045421	-0.636745955	-1.1108033205	-0.162622
O	-0.0126828786	-2.0081079838	-0.7644897267	-0.23999
C	 0.0299617435	-2.1613904879	 0.5930255139	 0.531881
O	 0.0577435759	-3.1973109503	 1.1738373979	-0.340439
N	 0.0292344638	-0.831820481	 1.09761274	-0.252103
C	 0.0643931582	-0.4568462818	 2.4523428824	 0.170449
O	 0.0994439425	-1.2226545702	 3.3688726222	-0.238972
H	 0.8692965949	 1.8910637883	 0.5507443171	 0.16026
H	-0.0620097722	 1.8852359005	-0.9629357674	 0.178258
H	-0.9025584092	 1.871060841	 0.6029099356	 0.160272
H	 0.0543418461	 0.6416383826	 2.5604907033	 0.113373
95.0565	157.9761	200.2608	208.3931	236.8504	296.2781	340.3438	482.0613	546.3179	626.192	636.2018	771.0306	783.3663	788.7954	937.59	1013.4046	1023.6748	1068.5638	1088.8983	1121.6432	1313.6074	1397.5083	1424.9125	1456.6568	1476.8057	1479.1432	1675.902	1833.2868	1935.6256	2988.7623	3047.247	3107.7688	3155.1833
CC1=NOC(=O)N1C=O	Cc1noc(=O)n1C=O	
InChI=1S/C4H4N2O3/c1-3-5-9-4(8)6(3)2-7/h2H,1H3	InChI=1S/C4H4N2O3/c1-3-5-9-4(8)6(3)2-7/h2H,1H3
