20
gdb 107069	3.79473	1.06728	0.9487	2.9319	74.17	-0.2465	0.0624	0.3089	1271.7117	0.172094	-440.26566	-440.256849	-440.255905	-440.299284	33.73	
O	 0.0421937521	 1.2484067475	-0.5877650249	-0.422195
C	 0.0152504981	 0.037304162	 0.1520347048	-0.136124
C	-1.385948017	-0.5131668414	 0.245449313	 0.309124
C	-2.4158639006	 0.1785917754	 1.1328962006	-0.277709
C	-3.588100734	-0.8209207599	 1.2255469663	-0.292969
C	-2.9591559203	-2.2210995876	 1.001549848	 0.116924
O	-3.8163954416	-3.135269741	 0.3330625688	-0.436361
C	-1.7231629384	-1.9607778392	 0.1613338205	-0.073769
N	-1.8727423506	-1.0965132508	-1.0194728897	-0.379595
H	-0.3173273185	 1.0323813889	-1.4564682623	 0.28902
H	 0.6754678145	-0.7197720671	-0.2958445937	 0.091892
H	 0.4030169947	 0.2786925648	 1.1478759305	 0.102365
H	-1.9714512845	 0.3506838019	 2.1205588988	 0.105555
H	-2.713513612	 1.1580550025	 0.7453429018	 0.113714
H	-4.1248009114	-0.7529020798	 2.1756549303	 0.100858
H	-4.3254043505	-0.6473174676	 0.4347017421	 0.110937
H	-2.6296115662	-2.6441631218	 1.9646521615	 0.069527
H	-4.5688582754	-3.3136360637	 0.9060059587	 0.284117
H	-0.9773030911	-2.7452560508	 0.0753088996	 0.091139
H	-2.8526630474	-0.8877221122	-1.1929943845	 0.233553
62.9796	113.5079	162.3868	231.15	274.357	297.8326	361.4448	396.7536	425.354	444.4854	557.176	632.6687	663.0879	716.2543	824.0843	856.4496	885.6179	935.375	959.7176	996.589	1017.503	1024.1892	1062.7532	1075.1862	1078.3926	1119.7773	1153.5888	1175.2235	1212.2799	1224.9102	1257.9589	1286.3683	1295.1715	1315.8328	1336.4201	1358.6542	1385.8759	1422.057	1432.941	1449.4137	1494.4398	1495.4341	1507.4801	2965.8078	2996.789	3036.6241	3050.5299	3070.6331	3079.8957	3098.3819	3156.4368	3498.3859	3789.8526	3818.2041
OCC12CCC(O)C1N2	OC[C@]12CC[C@@H](O)[C@H]1N2	
InChI=1S/C6H11NO2/c8-3-6-2-1-4(9)5(6)7-6/h4-5,7-9H,1-3H2	InChI=1S/C6H11NO2/c8-3-6-2-1-4(9)5(6)7-6/h4-5,7-9H,1-3H2/t4-,5-,6-/m1/s1
