15
gdb 28635	5.69365	1.00668	0.85999	6.2229	83.73	-0.2701	-0.0625	0.2076	1282.056	0.114386	-379.751813	-379.743989	-379.743045	-379.784983	28.287	
C	-0.0149383829	 1.525017852	 0.0042059006	-0.49967
C	 0.0002636665	 0.0201365656	 0.0121584075	 0.27417
C	-0.0890071355	-0.7152304888	-1.1762238083	-0.068961
N	-0.0820018244	-2.0433350601	-1.2488036747	-0.310298
C	 0.0179760792	-2.7190913439	-0.0971298238	 0.207553
C	 0.1132350054	-2.0974677045	 1.1515436482	-0.145471
C	 0.1034593562	-0.7112227852	 1.1970060509	-0.152691
C	 0.0252637561	-4.1565882827	-0.1801620592	 0.234827
N	 0.034297289	-5.3129855893	-0.2080505385	-0.326907
H	 0.9008868779	 1.9326955189	 0.4458197785	 0.144209
H	-0.1009081466	 1.9152766972	-1.0127966103	 0.137353
H	-0.8556109586	 1.9157283284	 0.5877937976	 0.144215
H	-0.1711795218	-0.1911167238	-2.1262921947	 0.116279
H	 0.1920951627	-2.6941841999	 2.0522780038	 0.129977
H	 0.1758624966	-0.198224894	 2.1512533623	 0.115415
44.3766	100.4687	156.4106	258.3361	335.4238	407.2727	431.3719	451.5732	567.5387	582.6357	662.7115	699.3898	784.4018	845.0632	866.5691	959.1268	997.3211	1008.1232	1043.7786	1068.0908	1156.4242	1231.3058	1249.9684	1298.3441	1328.8319	1407.2472	1416.0508	1483.4374	1491.0317	1508.7816	1595.4874	1632.1327	2350.9434	3036.4156	3092.0481	3122.4262	3150.2302	3177.9101	3210.4443
CC1=CN=C(C=C1)C#N	Cc1cnc(cc1)C#N	
InChI=1S/C7H6N2/c1-6-2-3-7(4-8)9-5-6/h2-3,5H,1H3	InChI=1S/C7H6N2/c1-6-2-3-7(4-8)9-5-6/h2-3,5H,1H3
