14
gdb 33301	6.08808	0.71901	0.683	4.3121	85.61	-0.2571	-0.0503	0.2068	1553.8637	0.100854	-399.48957	-399.481799	-399.480855	-399.522541	28.383	
N	 0.0678959207	-3.7440469425	-0.0441821944	-0.33799
C	 0.050665964	-2.5814911431	-0.03052859	 0.16114
C	 0.0309089075	-1.2193288281	-0.0147007726	 0.27021
C	 0.0202526209	-0.0076271291	-0.0042945887	-0.147677
C	-0.0102878709	 1.4002673402	 0.0253707196	 0.042286
C	 0.279702312	 2.2925972999	-1.1838535482	-0.332699
C	 1.1174116103	 2.4536312234	 0.0309063983	 0.073793
O	 0.4710829686	 3.2443000725	 1.0131714475	-0.269759
C	-0.6020776117	 2.275703556	 1.1396810029	-0.129029
H	 0.7433705742	 1.7686890818	-2.012728386	 0.144432
H	-0.4332299081	 3.0672358535	-1.4518519506	 0.134572
H	 2.1935952692	 2.3385502781	 0.0842280531	 0.134659
H	-1.5892869093	 2.7133790313	 0.9585724074	 0.123221
H	-0.5695735674	 1.7933013761	 2.1205752318	 0.132843
79.572	85.8646	209.2421	226.3479	321.1513	401.2807	453.7055	502.5343	511.1499	573.6652	585.7266	747.1304	795.0028	842.1564	930.0624	966.1178	982.6781	998.7366	1054.0101	1083.8963	1088.1703	1096.4712	1159.7666	1210.6851	1292.7126	1340.7884	1413.5619	1472.8279	1514.523	2257.3674	2380.461	3043.7133	3104.8984	3123.9141	3193.9677	3226.0134
N#CC#CC12CC1OC2	N#CC#C[C@]12C[C@H]1OC2	
InChI=1S/C7H5NO/c8-3-1-2-7-4-6(7)9-5-7/h6H,4-5H2	InChI=1S/C7H5NO/c8-3-1-2-7-4-6(7)9-5-7/h6H,4-5H2/t6-,7-/m1/s1
