14
gdb 5275	4.98191	1.59375	1.21659	0.2815	66.43	-0.2452	-0.0482	0.197	932.7586	0.108685	-378.790436	-378.783244	-378.7823	-378.822493	25.5	
C	 0.063235712	 1.5131802935	 0.0076639894	-0.491778
C	 0.0326028855	-0.0017534624	 0.0020188897	 0.298293
O	 1.0496695424	-0.6765263214	-0.0092061341	-0.34904
C	-1.2758185655	-0.6524612164	 0.0098137727	 0.224031
C	-2.5929538329	-0.2308946028	 0.0219275653	-0.157462
N	-3.4462350822	-1.2963114338	 0.0245925108	-0.258914
C	-2.6629372724	-2.3633563789	 0.0141387599	 0.036252
N	-1.3548231472	-2.0305960472	 0.005025936	-0.286103
H	 1.0998656904	 1.8507786938	-0.0013643533	 0.145491
H	-0.4614611616	 1.9111627868	-0.8672866587	 0.145092
H	-0.4435496657	 1.9039105329	 0.8963557	 0.145155
H	-2.9627855074	 0.7837792207	 0.0288542971	 0.121471
H	-3.003088427	-3.3882587939	 0.0128329209	 0.143908
H	-0.5399062285	-2.624731571	-0.0037960659	 0.283605
69.221	120.6235	177.973	178.4958	368.3099	507.407	555.1235	630.2397	632.398	689.9859	703.4539	850.1065	880.6044	930.3964	955.2193	1006.5881	1044.9422	1091.6051	1141.4339	1177.5083	1268.0478	1319.9395	1365.6555	1396.9007	1435.8032	1466.499	1474.6929	1481.8996	1584.7665	1748.901	3042.8228	3105.7548	3156.9569	3246.6098	3254.7198	3645.7547
CC(=O)C1=CN=CN1	CC(=O)c1cnc[nH]1	
InChI=1S/C5H6N2O/c1-4(8)5-2-6-3-7-5/h2-3H,1H3,(H,6,7)	InChI=1S/C5H6N2O/c1-4(8)5-2-6-3-7-5/h2-3H,1H3,(H,6,7)
