18
gdb 82788	3.02678	1.91231	1.76739	1.3409	73.05	-0.2223	0.0629	0.2852	858.5072	0.150938	-401.888035	-401.881653	-401.880709	-401.918441	27.092	
O	 0.0822181151	 1.4628399296	-0.1264281015	-0.424968
C	 0.0226194634	 0.0655808437	 0.0195321969	 0.123959
C	 0.2206687905	-0.58146695	 1.4251668957	-0.079534
C	-0.2556119209	 0.3773338705	 2.5220073346	-0.233287
C	-1.7621610897	 0.23245556	 2.4244831084	-0.047362
C	-2.3980821359	 0.0343688768	 1.0518979494	-0.099674
C	-2.0988707181	-1.1454475528	 1.9659960751	-0.030601
N	-0.9366574218	-1.5480441721	 1.1108010696	-0.159082
C	-1.3806086195	-0.5404249527	 0.0625871336	-0.019544
H	 1.0008817249	 1.7198355141	-0.2518019688	 0.286836
H	 0.6301755421	-0.4457643595	-0.7380393302	 0.076743
H	 1.1708713431	-1.0772019206	 1.6312590614	 0.068639
H	 0.0942057149	 0.0711172366	 3.5141124403	 0.093783
H	 0.0941217301	 1.3949802325	 2.3270336192	 0.108677
H	-2.4040605983	 0.7043951263	 3.1607874648	 0.086344
H	-3.3463079566	 0.4934695104	 0.8005614202	 0.087811
H	-2.7233162156	-1.8758708281	 2.4653893219	 0.090009
H	-1.8199699377	-0.9443733145	-0.8534204206	 0.071252
160.2341	270.7696	276.3836	382.8464	544.3587	560.2284	637.9449	683.5941	698.3941	766.4537	773.9481	814.9315	836.4003	874.6689	916.9754	938.6939	962.3748	993.2823	1010.6577	1018.9077	1041.3812	1059.1898	1061.5063	1079.2528	1091.7215	1161.6034	1170.6372	1188.9589	1204.9637	1221.6859	1252.3979	1276.5395	1292.2053	1321.9561	1342.2261	1359.832	1403.6372	1438.2465	1484.9633	3018.6872	3040.3729	3068.7053	3090.3257	3095.6147	3171.7258	3178.7105	3192.9263	3822.2169
OC1C2CC3C4C3N2C14	O[C@H]1[C@H]2C[C@H]3[C@@H]4[C@H]3N2[C@H]14	
InChI=1S/C7H9NO/c9-7-3-1-2-4-5(2)8(3)6(4)7/h2-7,9H,1H2	InChI=1S/C7H9NO/c9-7-3-1-2-4-5(2)8(3)6(4)7/h2-7,9H,1H2/t2-,3+,4+,5-,6-,7-/m0/s1
