16
gdb 33961	3.34391	1.43998	1.24231	4.4496	72.73	-0.2837	-0.0018	0.2819	1017.5414	0.125662	-400.737043	-400.730024	-400.72908	-400.768379	27.891	
N	-0.0014681327	-1.1384470113	-0.1121299218	-0.333102
C	 0.0350185924	 0.0122843175	-0.0105279133	 0.216111
C	 0.0644959317	 1.4444197161	 0.1567221389	 0.293953
O	 0.2871130692	 2.2177872442	-1.0335442076	-0.279761
C	 1.2919506332	 2.261175142	-0.0153014006	-0.017819
C	 1.2193552471	 3.4593524333	 0.918484702	-0.266301
C	-0.1438074544	 3.3784454472	 1.6152690003	-0.046995
C	-1.408996545	 3.4434465437	 0.8004013089	-0.285233
C	-0.8399745895	 2.0983476736	 1.1829668031	-0.118848
H	 2.2493701705	 1.8329164768	-0.3018097542	 0.120996
H	 2.0247381614	 3.3766324148	 1.6564183686	 0.120398
H	 1.3705580779	 4.3967789495	 0.3725853052	 0.12878
H	-0.1933975057	 3.7013308426	 2.6487911891	 0.098971
H	-2.310427665	 3.7553040912	 1.3159722505	 0.118313
H	-1.3485634055	 3.732485181	-0.2411717141	 0.142898
H	-1.3639796856	 1.4509961377	 1.873936455	 0.107639
136.6451	156.9852	264.9202	319.2186	402.2396	464.6591	508.4088	549.7982	621.8068	699.8354	709.1795	798.7735	802.7903	837.9781	889.4017	921.5466	957.7263	978.0606	1009.1614	1038.7411	1086.5425	1101.5184	1105.8076	1114.331	1172.3525	1196.5749	1221.0739	1279.8656	1311.3418	1336.336	1385.3483	1418.4917	1470.5427	1480.8644	2361.3207	3047.1944	3087.2578	3146.2207	3150.9632	3175.0686	3201.9257	3240.632
N#CC12OC1CC1CC21	N#C[C@]12O[C@H]1C[C@H]1C[C@@H]21	
InChI=1S/C7H7NO/c8-3-7-5-1-4(5)2-6(7)9-7/h4-6H,1-2H2	InChI=1S/C7H7NO/c8-3-7-5-1-4(5)2-6(7)9-7/h4-6H,1-2H2/t4-,5-,6+,7-/m1/s1
