19
gdb 111863	2.35702	1.56926	1.23908	1.5032	71.01	-0.2162	0.073	0.2892	1090.0839	0.158421	-460.12432	-460.115429	-460.114485	-460.157812	33.04	
C	 0.3278479748	 0.8562914469	 0.4876413098	-0.236979
O	-0.4003882069	-0.076114355	-0.2985735175	-0.243045
C	 0.3529029989	-0.595654299	-1.342982553	-0.005564
C	 1.4221552902	-1.6573012705	-1.0949030551	 0.013072
O	 1.502951981	-2.2313908064	 0.1759351393	-0.264267
C	 0.2396238326	-2.8327943993	 0.5125115433	-0.075023
C	-0.5810311114	-2.9526209893	-0.7887592854	-0.305558
C	 0.1319718389	-2.0278549387	-1.769171807	 0.297292
O	 0.1132011509	-2.3482089908	-3.1261569698	-0.469034
H	 1.2092170345	 0.3864494125	 0.940232858	 0.132634
H	 0.6504755779	 1.7194245508	-0.1128970453	 0.106831
H	-0.3465855379	 1.2051364004	 1.2731817862	 0.12481
H	 0.5725397852	 0.1007167113	-2.1564476017	 0.086017
H	 2.3731380982	-1.6115410173	-1.613617995	 0.10969
H	 0.4465208152	-3.803274401	 0.9743401894	 0.106042
H	-0.2762596768	-2.199467991	 1.2400806688	 0.112067
H	-0.538250188	-3.9613771631	-1.2099752211	 0.115742
H	-1.6294042019	-2.6887280278	-0.6242100402	 0.111306
H	-0.7195673455	-2.0330273726	-3.4953771237	 0.283966
93.6006	135.8956	162.9692	178.1833	244.8921	246.2331	294.8614	340.7829	381.3042	504.4026	582.2568	650.5844	711.9938	744.9472	825.8275	867.2035	932.519	962.5341	984.8502	1002.7883	1025.3576	1068.7817	1086.5585	1151.2602	1160.0887	1182.9819	1204.1651	1224.4797	1243.272	1248.7838	1262.665	1303.067	1321.9289	1344.0676	1400.156	1455.5003	1481.4495	1487.4626	1496.3866	1507.8827	1522.8791	2994.4881	3044.4923	3057.3379	3064.1321	3070.8375	3081.1861	3107.8126	3121.5218	3180.0194	3789.2457
COC1C2OCCC12O	CO[C@H]1[C@H]2OCC[C@@]12O	
InChI=1S/C6H10O3/c1-8-4-5-6(4,7)2-3-9-5/h4-5,7H,2-3H2,1H3	InChI=1S/C6H10O3/c1-8-4-5-6(4,7)2-3-9-5/h4-5,7H,2-3H2,1H3/t4-,5+,6+/m0/s1
