23
gdb 118584	1.99508	1.11881	0.91955	1.9597	79.23	-0.2446	0.0755	0.3201	1449.378	0.203475	-462.539184	-462.528081	-462.527136	-462.576187	39.054	
C	 0.1126498578	 1.4734552125	 0.5936061364	-0.386893
C	 0.5317755615	 0.0584954333	 0.2301319998	-0.041841
O	 0.5889048248	-0.703943682	 1.4242851664	-0.256196
C	 0.7340029945	-2.1028316488	 1.2583898578	 0.103029
C	 1.9499265797	-2.5095680419	 0.4043279802	-0.08366
O	 3.1576824119	-1.9254438487	 0.8356071848	-0.425363
C	 0.7932599616	-2.7090248267	 2.6629741364	-0.094349
O	 2.0058492763	-2.4324144894	 3.3567308024	-0.254269
C	 1.984630836	-1.2407395425	 4.1324583815	-0.24497
H	 0.8349477724	 1.9213225493	 1.2823292617	 0.127459
H	 0.06060595	 2.0973649857	-0.3037543758	 0.115184
H	-0.8685566287	 1.4741738906	 1.076821295	 0.121709
H	-0.1952302972	-0.3891663846	-0.4682163662	 0.082123
H	 1.5117903115	 0.0655360889	-0.2656154523	 0.114595
H	-0.1649435611	-2.519063964	 0.7628835381	 0.058729
H	 1.9952927865	-3.6129052589	 0.3975714826	 0.081994
H	 1.801518851	-2.1984123908	-0.6348899178	 0.104684
H	 3.20660873	-2.1016437171	 1.785688758	 0.292132
H	-0.0676095829	-2.3576336064	 3.2477577254	 0.101592
H	 0.7305811326	-3.799762233	 2.5769479182	 0.108016
H	 2.9385785299	-1.1959451067	 4.6638227586	 0.125021
H	 1.863633646	-0.3528750174	 3.5051506898	 0.139963
H	 1.1696939659	-1.2723303914	 4.8697595493	 0.111312
55.5153	81.146	87.7169	97.5269	159.9486	183.9943	210.8544	249.8623	273.5631	303.313	333.3728	405.604	451.7418	536.1039	592.1091	770.4394	792.5204	830.5954	880.3482	914.3482	944.8912	990.5411	1021.3492	1083.0236	1117.1454	1130.5125	1155.8105	1168.8839	1184.2257	1191.1254	1210.1452	1244.0077	1301.3839	1313.9267	1347.4524	1359.8173	1390.0936	1401.831	1411.2765	1437.0305	1466.4454	1470.6191	1483.8438	1484.6763	1492.3221	1498.8261	1510.1419	1516.0843	1526.9545	2916.1699	2953.869	2964.1843	3001.9532	3015.0226	3028.7053	3043.3457	3069.092	3074.0037	3086.4299	3117.5706	3120.3569	3126.2563	3733.3539
CCOC(CO)COC	CCO[C@@H](CO)COC	
InChI=1S/C6H14O3/c1-3-9-6(4-7)5-8-2/h6-7H,3-5H2,1-2H3	InChI=1S/C6H14O3/c1-3-9-6(4-7)5-8-2/h6-7H,3-5H2,1-2H3/t6-/m0/s1
