21
gdb 110443	2.8892	1.30027	1.06999	1.3842	81.85	-0.2441	0.0794	0.3235	1207.2825	0.182875	-387.033647	-387.025137	-387.024193	-387.06661	33.286	
C	 0.0844162604	 1.6052613348	 0.0937890785	-0.421828
C	 0.1285420331	 0.0834207549	 0.0253794929	 0.025801
C	 0.8036111467	-0.6462140043	-1.1389914756	-0.095166
C	 2.2865615881	-0.8495526748	-0.7784372546	-0.080696
C	 1.2252779771	-1.7866787308	-0.2491994773	-0.087497
C	 1.0837511985	-0.7473459435	 0.9399089045	-0.068325
C	 2.5180337788	-0.2452360961	 0.6061518178	 0.013344
C	 3.5959222599	-0.9616052456	 1.3998330575	-0.099376
O	 3.5050595527	-0.5206056101	 2.7498294171	-0.426164
H	 1.0635719384	 2.0565596683	-0.0867496692	 0.119185
H	-0.6040170885	 2.0030854307	-0.6603870585	 0.110059
H	-0.268337023	 1.944784071	 1.0743730425	 0.114053
H	-0.8849583851	-0.3190086715	 0.1415873829	 0.067523
H	 0.48052205	-0.7020613987	-2.1717254622	 0.078731
H	 3.0200003236	-1.0479322732	-1.5511035035	 0.077537
H	 1.0858978162	-2.854224096	-0.3338790244	 0.084744
H	 0.8203769308	-0.9688633341	 1.9716644511	 0.074259
H	 2.6894440373	 0.8345266005	 0.6808281986	 0.065787
H	 3.451388091	-2.0511224638	 1.3235934131	 0.084124
H	 4.5867899057	-0.7301499258	 0.9755556052	 0.079012
H	 4.1845906984	-0.9712911619	 3.2591248235	 0.284893
107.0132	136.1667	177.1741	213.5699	244.9614	271.3966	311.4955	421.9187	537.0102	559.8096	679.0353	769.0719	785.7933	798.1928	809.8067	872.8631	883.4372	906.6087	955.1164	1010.6294	1016.7817	1029.8625	1035.4377	1041.5417	1060.5331	1072.026	1107.5785	1122.4312	1138.0535	1162.3655	1171.5	1196.7799	1221.9011	1250.273	1258.7782	1291.2346	1308.7843	1356.2905	1383.8404	1389.1378	1409.4501	1459.0604	1492.4942	1499.5953	1521.2194	2960.8379	2991.1279	3028.0012	3033.3041	3044.3422	3088.7136	3114.1675	3143.8946	3178.0668	3186.4859	3224.0268	3832.0566
CC1C2C3C2C1C3CO	C[C@H]1[C@H]2[C@@H]3[C@H]2[C@H]1[C@H]3CO	
InChI=1S/C8H12O/c1-3-5-4(2-9)7-6(3)8(5)7/h3-9H,2H2,1H3	InChI=1S/C8H12O/c1-3-5-4(2-9)7-6(3)8(5)7/h3-9H,2H2,1H3/t3-,4-,5-,6+,7-,8+/m1/s1
