16
gdb 21229	5.11349	1.35152	1.20984	3.4361	65.19	-0.2167	0.008	0.2247	1011.5663	0.133442	-376.114084	-376.106498	-376.105554	-376.146899	26.935	
C	-0.43287703	 0.7951703837	 1.0331852926	-0.311444
N	 0.2052784011	 0.2815951517	-0.1755474448	-0.265645
C	 1.3064040895	-0.6329877586	 0.0801877981	-0.273204
C	 0.9384539835	-1.9701074588	 0.6774845051	 0.346167
N	-0.2704968814	-2.4979889437	 0.5490864852	-0.273595
N	-0.1354303879	-3.6876577816	 1.1857684425	-0.176279
C	 1.1178934135	-3.8218419924	 1.6593445834	 0.015766
N	 1.8295857875	-2.7545451946	 1.3586259655	-0.302623
H	 0.2930057479	 1.3921773039	 1.5973313082	 0.11774
H	-1.2565157578	 1.4573624591	 0.7501028977	 0.115026
H	-0.8313717714	 0.0190773931	 1.7058428251	 0.104546
H	-0.4890491805	-0.1932105135	-0.7432414726	 0.227496
H	 1.8390056183	-0.8133282176	-0.8631474064	 0.121139
H	 2.0295075434	-0.151010577	 0.7473556384	 0.12713
H	-0.921655066	-4.3118556741	 1.2589816648	 0.281231
H	 1.4552074404	-4.6907014496	 2.2048776272	 0.146551
41.317	106.9947	163.9106	249.1225	271.8861	352.9914	484.1323	534.2476	679.9506	697.4143	719.8043	802.5337	858.0717	945.8544	993.3667	994.8137	1008.1489	1101.506	1142.19	1153.3374	1174.4203	1195.5242	1270.2228	1306.2543	1326.3867	1387.0395	1452.0354	1461.6739	1471.545	1479.0465	1487.6944	1501.5753	1525.2855	1555.0357	2978.159	3020.277	3057.461	3073.178	3100.7264	3255.6698	3526.5839	3666.6636
CNCC1=NNC=N1	CNCc1n[nH]cn1	
InChI=1S/C4H8N4/c1-5-2-4-6-3-7-8-4/h3,5H,2H2,1H3,(H,6,7,8)	InChI=1S/C4H8N4/c1-5-2-4-6-3-7-8-4/h3,5H,2H2,1H3,(H,6,7,8)
