17
gdb 15148	3.85627	1.16782	1.00698	5.2009	66.6	-0.2509	0.0181	0.269	1171.3142	0.141283	-400.98295	-400.974679	-400.973735	-401.016784	28.9	
O	 0.3998881728	 0.2975765617	-0.6687282411	-0.281935
C	 0.5570972329	 1.4809442232	-0.6633647819	 0.190406
O	 0.7201578615	 2.1836845932	 0.4771973033	-0.178375
C	 1.0140945366	 3.5767618248	 0.3592138599	-0.093854
C	 2.5180289376	 3.8193992944	 0.3045754059	-0.137482
N	 3.067103352	 3.314420763	-0.9444820722	-0.060935
C	 3.2267522745	 4.2750869525	-2.0339119606	-0.226323
C	 4.4105174338	 3.7510138326	-1.2972968916	-0.217153
H	 0.5610427258	 2.1194292284	-1.5652028614	 0.078007
H	 0.5252505635	 3.9953007913	-0.5305137034	 0.11328
H	 0.581984176	 4.0521172895	 1.2432612307	 0.12521
H	 2.710792001	 4.8978685678	 0.4522703743	 0.084883
H	 2.9900590591	 3.2808242932	 1.1337555698	 0.126834
H	 2.989162839	 3.9093701941	-3.0284678205	 0.124988
H	 2.9445808616	 5.3106519752	-1.8476536117	 0.111535
H	 4.9168778364	 4.4380370064	-0.6210239677	 0.113517
H	 5.050858976	 2.9963639787	-1.7442191917	 0.127397
60.9992	72.0584	117.5226	187.4472	219.8997	318.2881	367.4798	420.5162	523.0514	635.7979	733.9243	819.5206	888.6786	920.3566	963.6424	1023.3735	1032.5269	1044.5443	1066.9264	1110.9891	1120.314	1126.5461	1164.0715	1184.9644	1192.6276	1282.3097	1316.6561	1328.5669	1393.0151	1405.4604	1433.7171	1477.4912	1493.1231	1493.991	1523.0115	1866.8994	2939.7966	2975.4661	3025.4336	3070.6075	3093.7237	3099.5859	3105.8859	3180.6548	3194.6583
O=COCCN1CC1	O=COCCN1CC1	
InChI=1S/C5H9NO2/c7-5-8-4-3-6-1-2-6/h5H,1-4H2	InChI=1S/C5H9NO2/c7-5-8-4-3-6-1-2-6/h5H,1-4H2
