15
gdb 44173	5.72287	1.04158	0.95883	3.1431	73.56	-0.2455	0.0044	0.2499	1184.5167	0.112565	-416.728477	-416.720817	-416.719873	-416.760876	29.116	
N	-0.269011999	 1.03149779	-0.8382932986	-0.542446
C	-0.1105441384	-0.0215668965	-0.1851779123	 0.471945
O	 1.0215087054	-0.5354288173	 0.4506353722	-0.272733
C	 0.3326401947	-1.7659283497	 0.7962345661	 0.092477
C	-0.3470053028	-1.7180309495	 2.1966855845	-0.177507
N	-1.5279008635	-1.0125401984	 1.5843802918	-0.328698
C	-0.9805850191	-1.2026702694	 0.2103817976	-0.146352
C	-0.6397411561	-3.0273046536	 2.7485082705	 0.318682
C	-0.9041806413	-4.1198034003	 3.1761852986	-0.445572
H	 0.5845530295	 1.5919186389	-0.8680614508	 0.233459
H	 0.8826094356	-2.6534292802	 0.4916940781	 0.114904
H	 0.1834707363	-1.093443555	 2.9231043716	 0.125672
H	-2.3919541079	-1.5202006691	 1.7350114493	 0.238353
H	-1.6215554078	-1.6665200088	-0.5368630069	 0.109454
H	-1.1316810356	-5.079229781	 3.5715687483	 0.208364
74.4548	129.5514	173.7248	266.8311	350.2182	420.5822	441.8722	523.5525	642.5369	655.7912	662.9987	702.0049	771.1953	812.3123	865.0074	869.6857	921.1997	947.0859	975.1082	1000.6327	1010.1256	1051.3233	1067.0432	1176.1567	1193.8174	1230.8509	1239.0442	1262.539	1287.8551	1348.3526	1396.9655	1836.6303	2231.8257	3054.826	3136.8084	3148.6104	3476.9391	3500.5973	3553.6117
N=C1OC2C(NC12)C#C	[NH][C]1O[C@H]2[C@@H](N[C@@H]12)C#C	
InChI=1S/C6H6N2O/c1-2-3-5-4(8-3)6(7)9-5/h1,3-5,7-8H	InChI=1S/C6H6N2O/c1-2-3-5-4(8-3)6(7)9-5/h1,3-5,7-8H/t3-,4+,5-/m0/s1
