17
gdb 72392	2.7342	1.9699	1.41647	0.9739	71.41	-0.218	0.0015	0.2195	924.3724	0.136899	-421.781635	-421.77465	-421.773706	-421.812582	28.849	
O	-0.0903318758	 1.3472660773	-0.1164976731	-0.470137
C	-0.038308536	-0.053858853	-0.0289991	 0.359449
C	 1.0602734234	-0.7176032158	-0.8578651563	-0.351766
C	 0.6856613874	-2.069175455	-1.4129666182	-0.047546
C	-0.3689405946	-2.7546407237	-0.9755891843	-0.057178
C	-1.2055617943	-2.1724876612	 0.1267884145	 0.039858
O	-0.4294522267	-2.0099911399	 1.3769169493	-0.30581
C	-0.5685196701	-0.5982460904	 1.2830616739	 0.027421
C	-1.4200331394	-0.6531800015	 0.0426394189	-0.19762
H	 0.6547427373	 1.7027590659	 0.3810929579	 0.284962
H	 1.2973970577	-0.0394841968	-1.6874584115	 0.118657
H	 1.9841067606	-0.8080172447	-0.2672036454	 0.116742
H	 1.3245600206	-2.4693491056	-2.1957692433	 0.097232
H	-0.6226199259	-3.7294842887	-1.378643059	 0.092266
H	-2.1103820428	-2.7472570734	 0.3358168438	 0.086149
H	-0.6359275937	-0.0155595501	 2.1951005963	 0.101362
H	-2.3171488477	-0.1291850133	-0.2559568535	 0.105956
144.4158	279.2983	290.0568	331.5086	376.627	449.8464	468.2896	528.079	565.1483	680.9965	696.6889	729.5425	825.4137	878.5532	900.754	921.6232	934.7672	941.8089	975.6814	997.8861	1020.1915	1034.1825	1056.6431	1085.7112	1149.7996	1177.3141	1220.2375	1224.257	1246.1321	1270.5143	1313.9043	1340.9745	1368.2552	1404.2619	1432.9585	1469.1927	1710.0189	2998.3339	3043.1206	3083.596	3159.1222	3174.6188	3188.2512	3212.6129	3790.3329
OC12CC=CC3OC1C23	O[C@@]12CC=C[C@H]3O[C@@H]1[C@@H]23	
InChI=1S/C7H8O2/c8-7-3-1-2-4-5(7)6(7)9-4/h1-2,4-6,8H,3H2	InChI=1S/C7H8O2/c8-7-3-1-2-4-5(7)6(7)9-4/h1-2,4-6,8H,3H2/t4-,5+,6-,7-/m1/s1
