16
gdb 32146	3.75331	1.1437	0.88151	0.5234	76.35	-0.223	-0.016	0.207	1261.9458	0.125396	-437.933721	-437.925827	-437.924883	-437.966179	29.897	
C	 0.0559740138	 1.4035776323	 0.0484969563	-0.246612
O	-0.0050810219	-0.0123729583	 0.0148906336	-0.265553
C	-1.2275701084	-0.5995976046	 0.0018074427	 0.364048
C	-2.4489746226	 0.0871248677	 0.0179104771	-0.130978
N	-3.6237014534	-0.5470092445	 0.0036819826	-0.251199
C	-3.6371646197	-1.8737589532	-0.0267962768	-0.125496
C	-2.4666432035	-2.6434561104	-0.0448089753	 0.350534
O	-2.4796140822	-4.0027566838	-0.0760443326	-0.43801
C	-1.2413361353	-1.9940181994	-0.0302199765	-0.264757
H	 1.1165677866	 1.6592856359	 0.0547497558	 0.137923
H	-0.4186754199	 1.8488124668	-0.8346878708	 0.130138
H	-0.4190183774	 1.8064111856	 0.9516211196	 0.130146
H	-2.4882214527	 1.170088952	 0.0427578028	 0.101294
H	-4.6124251356	-2.3607403393	-0.0377166563	 0.089552
H	-3.3936473511	-4.3074789875	-0.0825624002	 0.301404
H	-0.3128869167	-2.5518160593	-0.0432661421	 0.117567
85.3902	203.1251	233.0613	239.7045	271.8885	362.9794	376.526	471.2405	491.2223	545.3146	578.3872	642.9166	729.231	730.6931	864.7288	904.903	910.6885	967.2855	1024.0232	1074.534	1176.9035	1177.3053	1197.929	1212.5605	1256.2941	1320.6792	1339.5657	1357.7264	1471.6837	1486.8451	1489.7589	1504.3458	1532.8079	1605.3596	1652.9645	3010.2588	3072.6115	3120.0421	3137.3352	3186.9126	3211.6936	3813.1597
COC1=CN=CC(O)=C1	COc1cncc(O)c1	
InChI=1S/C6H7NO2/c1-9-6-2-5(8)3-7-4-6/h2-4,8H,1H3	InChI=1S/C6H7NO2/c1-9-6-2-5(8)3-7-4-6/h2-4,8H,1H3
