20
gdb 122254	2.48709	1.05636	0.90848	2.1309	82.36	-0.2391	0.0459	0.285	1395.9452	0.168712	-403.073333	-403.063301	-403.062357	-403.108972	36.332	
C	 0.9792342386	 0.9629177687	-0.1768982243	-0.229459
O	 0.7459059672	-0.3861673869	 0.1540877407	-0.233401
C	-0.0944113955	-0.5456761089	 1.2821108245	-0.04958
C	-0.1625383766	-2.0322461435	 1.6164212713	-0.305843
C	 1.1325196185	-2.5779467423	 2.2125700299	 0.103943
C	 1.6488366984	-3.8910607775	 1.7118391143	-0.277731
N	 2.3364489429	-2.6522598919	 1.3502881944	-0.329513
C	 1.3771614916	-2.1896963026	 3.5820872941	 0.346952
C	 1.532588266	-1.8595813749	 4.7280112747	-0.459095
H	 1.4782242446	 1.50254968	 0.6423503728	 0.112945
H	 1.6270753312	 0.9772508771	-1.0565152473	 0.128725
H	 0.0421614178	 1.4897015127	-0.4167214238	 0.104663
H	 0.298602073	 0.0224430617	 2.1404772166	 0.105323
H	-1.1024077787	-0.1568191172	 1.0612805972	 0.086224
H	-0.9835958558	-2.2036907195	 2.3205696657	 0.113732
H	-0.3999177451	-2.5784146272	 0.6964144457	 0.106742
H	 2.1993411105	-4.5386658766	 2.3874243762	 0.125298
H	 1.0455304466	-4.4084507233	 0.9691847331	 0.111907
H	 2.0744099539	-2.3356277136	 0.4199242973	 0.245039
H	 1.6921343509	-1.5737511543	 5.7380542069	 0.193129
42.3268	77.4485	118.3615	151.7345	209.6347	232.3722	261.5801	279.521	359.5221	371.9444	509.8714	551.3518	590.3567	608.682	647.7265	664.9318	823.8437	856.6354	901.3308	935.0671	977.5606	998.9295	1033.5841	1063.1405	1114.0044	1148.2572	1160.1042	1183.4833	1201.9066	1245.2097	1254.6335	1279.6753	1295.5732	1374.3556	1382.7371	1419.3209	1464.3704	1481.2233	1485.9643	1502.4187	1508.1791	1527.537	2235.6153	2961.1809	2977.0224	2998.6477	3022.7855	3042.2858	3088.4226	3104.4074	3116.8852	3196.165	3503.3787	3512.8868
COCCC1(CN1)C#C	COCC[C@]1(CN1)C#C	
InChI=1S/C7H11NO/c1-3-7(6-8-7)4-5-9-2/h1,8H,4-6H2,2H3	InChI=1S/C7H11NO/c1-3-7(6-8-7)4-5-9-2/h1,8H,4-6H2,2H3/t7-/m0/s1
