23
gdb 76342	1.81566	1.53228	1.05312	3.0812	85.78	-0.2409	-0.0204	0.2205	1278.0686	0.203733	-388.296798	-388.286468	-388.285524	-388.332138	38.191	
C	-0.4834246124	 1.489152487	-0.1451040131	-0.407757
C	-0.0636650404	 0.0218978864	-0.0809484188	-0.021528
C	 1.0764740301	-0.4237517227	-1.0546693057	 0.022143
C	 1.3691432171	 0.3559547052	-2.3312311939	-0.422472
C	 2.1039821464	-0.4129018692	 0.1374941138	-0.132344
C	 3.0066176195	 0.7879416926	 0.2061780189	 0.159904
O	 4.2061864224	 0.7249742532	 0.3226499317	-0.261135
C	 0.865443233	-0.3895959729	 1.108222172	 0.022152
C	 0.9077504442	 0.4304534397	 2.3923441538	-0.422508
H	 0.3600848555	 2.1831487394	-0.073961109	 0.118618
H	-1.0011391746	 1.7022085903	-1.0861826748	 0.118111
H	-1.1723495672	 1.7301087087	 0.6712234476	 0.11811
H	-0.9681650425	-0.5902604723	-0.159607245	 0.066755
H	 0.9138537008	-1.4733186665	-1.3206504358	 0.08368
H	 1.5062393816	 1.4261208752	-2.152042285	 0.118837
H	 2.2795204134	-0.0176834221	-2.812306849	 0.125293
H	 0.5479544769	 0.2459323024	-3.0479143845	 0.117637
H	 2.7455244504	-1.2940437528	 0.2138861453	 0.081491
H	 2.5063888512	 1.7804427564	 0.1428119624	 0.069597
H	 0.6513300549	-1.4308454716	 1.3704015364	 0.083669
H	 1.0795335447	 1.4950319551	 2.2098144444	 0.118836
H	-0.036809055	 0.3397331564	 2.9397439251	 0.11766
H	 1.7069915801	 0.075172612	 3.0517655031	 0.125254
45.7288	85.741	178.2073	208.0654	211.7859	230.9883	237.6353	253.1281	268.5723	370.5531	410.7171	442.7437	495.1992	504.1401	688.882	733.3041	778.9251	852.1512	919.5624	964.31	976.9047	984.6373	1026.8242	1033.5446	1042.2111	1074.9257	1145.8415	1162.5469	1180.5891	1185.0381	1193.1818	1269.0863	1272.1707	1278.1099	1335.7299	1342.7186	1376.5709	1388.2272	1408.7594	1413.3124	1416.2564	1442.2018	1488.2194	1489.8562	1497.1388	1498.0599	1506.9139	1507.9652	1815.4636	2873.8352	3031.4016	3032.4302	3032.5725	3035.7087	3043.7046	3053.2132	3084.141	3094.1124	3094.6783	3098.7056	3100.8851	3108.858	3111.0711
CC1C(C)C(C=O)C1C	C[C@H]1[C@@H](C)[C@@H](C=O)[C@H]1C	
InChI=1S/C8H14O/c1-5-6(2)8(4-9)7(5)3/h4-8H,1-3H3	InChI=1S/C8H14O/c1-5-6(2)8(4-9)7(5)3/h4-8H,1-3H3/t5-,6+,7-,8+
