18
gdb 12967	2.30096	2.21271	1.72347	2.1624	67.7	-0.2263	0.0737	0.3	888.7688	0.152126	-384.894782	-384.886535	-384.88559	-384.926714	31.465	
C	 0.1160310811	 1.6223784705	-0.3929571622	-0.424605
C	 0.2200835133	 0.1266169496	-0.1832889147	-0.092395
C	 1.4918161218	-0.6618561783	-0.3579258387	 0.020904
O	 2.6200122766	 0.0822367482	 0.1155717032	-0.305891
C	 2.138303922	-0.0200600914	 1.4934734846	 0.104361
C	 2.2172752305	 1.2592969693	 2.3007138994	-0.424882
C	 0.8230485011	-0.6259377964	 0.9954090163	 0.257753
O	 0.1553810756	-1.6320539735	 1.6694857656	-0.454306
H	 1.0979711504	 2.090739012	-0.3037767099	 0.141309
H	-0.263075231	 1.8349304233	-1.3982370043	 0.115885
H	-0.5639605547	 2.0955885662	 0.3238862362	 0.10986
H	-0.6310684696	-0.4480775022	-0.5491316281	 0.092009
H	 1.6662902563	-1.450461089	-1.0803579764	 0.107813
H	 2.7080933119	-0.8140697999	 1.9962735873	 0.089889
H	 1.6222746975	 2.0641856563	 1.8665753174	 0.124832
H	 1.8576392027	 1.0699308	 3.3182975772	 0.118974
H	 3.2564080953	 1.5966452169	 2.3728081613	 0.129568
H	-0.6293796907	-1.2537837416	 2.0802196157	 0.288923
165.3637	196.3024	204.1872	220.9815	256.7335	277.43	310.8572	357.9829	421.7956	561.2531	583.8926	656.4578	706.4524	776.1823	850.4443	911.9839	933.8294	972.7738	997.673	1068.9599	1081.6448	1098.6738	1119.4599	1130.0003	1158.5293	1216.2491	1238.491	1284.101	1323.1324	1349.408	1392.6686	1407.9041	1410.2967	1477.0863	1488.9058	1495.5289	1505.3319	1512.5832	3009.5657	3033.612	3041.7371	3088.6926	3101.971	3114.1665	3134.414	3145.7278	3185.0701	3799.2714
CC1C2OC(C)C12O	C[C@H]1[C@H]2O[C@@H](C)[C@@]12O	
InChI=1S/C6H10O2/c1-3-5-6(3,7)4(2)8-5/h3-5,7H,1-2H3	InChI=1S/C6H10O2/c1-3-5-6(3,7)4(2)8-5/h3-5,7H,1-2H3/t3-,4-,5+,6-/m0/s1
