25
gdb 119261	1.80606	1.05354	0.74788	1.5775	89.51	-0.2574	0.0795	0.3369	1679.0125	0.226849	-389.484782	-389.473682	-389.472738	-389.521916	40.128	
C	-0.7047882408	 1.0406400041	 1.1188258534	-0.381668
C	-0.6798213218	-0.4603175192	 0.8190480665	-0.156613
C	-1.1344189133	-0.7781380359	-0.6152155537	-0.270245
C	-1.0407346446	-2.2550443973	-0.9966277734	 0.413298
C	-2.2593363238	-3.1381171095	-0.7764385003	-0.246174
C	-2.7381695399	-3.2564685119	 0.6770310406	-0.168096
C	-3.8769625546	-4.2685976031	 0.8329493845	-0.383009
C	-0.0796334685	-2.6638930758	-2.0358904648	-0.228352
O	 0.2136566636	-2.8780451034	-0.6547117151	-0.279857
H	-0.36560144	 1.2471620147	 2.1387140045	 0.111961
H	-0.0524184949	 1.5935661454	 0.4334035149	 0.112548
H	-1.7151545748	 1.4527590447	 1.0150695209	 0.110317
H	 0.3328880884	-0.8549235693	 0.9512686955	 0.117102
H	-1.3101492089	-0.9871146704	 1.5432059457	 0.099704
H	-2.1670897111	-0.4380957284	-0.7658710252	 0.094814
H	-0.5167665289	-0.1906925579	-1.3049771365	 0.095908
H	-3.0804936015	-2.7603453026	-1.4018138411	 0.09456
H	-2.0184078888	-4.1404624827	-1.1501318482	 0.098441
H	-1.8914108693	-3.551349182	 1.3079387313	 0.112515
H	-3.0738292839	-2.278345679	 1.0406959419	 0.100473
H	-4.2087300755	-4.3381663857	 1.873500409	 0.112218
H	-4.7444586206	-3.9873576735	 0.2250487514	 0.112198
H	-3.5626201597	-5.2690759987	 0.5155823427	 0.116166
H	-0.2594842942	-3.5659280328	-2.6208492867	 0.105035
H	 0.5312873076	-1.9100751599	-2.5320692476	 0.106756
49.7718	73.0234	83.9621	104.2471	147.3426	198.2518	246.5346	249.1776	296.8186	309.6695	371.778	373.9921	501.1168	519.3522	737.5418	741.9926	755.0886	855.0382	868.8423	878.6325	900.6349	910.42	945.2355	974.0858	1044.4719	1053.2243	1067.9553	1104.7478	1119.3799	1134.4024	1138.3921	1176.8491	1232.052	1263.3096	1289.4518	1305.2829	1311.7739	1331.2164	1340.6297	1380.4195	1387.9801	1411.6392	1412.2658	1427.5506	1469.1191	1484.04	1492.7353	1494.9129	1499.6252	1500.5768	1509.1567	1512.0037	1530.1513	3009.5729	3021.4922	3027.0442	3028.1097	3031.5881	3049.8877	3051.8412	3055.5525	3071.2898	3072.3288	3077.9532	3097.8789	3101.0808	3102.2227	3103.4248	3156.058
CCCC1(CCC)CO1	CCCC1(CCC)CO1	
InChI=1S/C8H16O/c1-3-5-8(6-4-2)7-9-8/h3-7H2,1-2H3	InChI=1S/C8H16O/c1-3-5-8(6-4-2)7-9-8/h3-7H2,1-2H3
