18
gdb 126921	5.06957	0.80601	0.70246	3.3438	76.27	-0.1936	0.0459	0.2395	1581.6573	0.14869	-435.285009	-435.27584	-435.274896	-435.31927	33.669	
C	-0.1041829321	 1.5802260892	-0.0729448748	-0.402276
C	-0.0396410242	 0.0623809829	 0.0547425697	-0.108876
N	-1.3736322868	-0.5196777808	-0.0570438101	-0.411928
C	-1.482819224	-1.899041638	 0.0154600755	 0.486511
C	-0.5266803816	-2.9000327069	-0.0024791044	-0.406145
C	-1.291963009	-4.0906808611	 0.0189153374	 0.432547
O	-0.7736347151	-5.3373938001	 0.0229632844	-0.432984
N	-2.5936546602	-3.8839882642	 0.0527249594	-0.346281
N	-2.6943761027	-2.5110510947	 0.0775997819	-0.306117
H	 0.8984898884	 2.0116391469	-0.0110031195	 0.126327
H	-0.5510336302	 1.8725192354	-1.0274768658	 0.131925
H	-0.7031328659	 2.020238103	 0.7331091105	 0.11624
H	 0.5709471653	-0.3552150959	-0.7534229163	 0.124597
H	 0.4510546557	-0.219026543	 1.0008245301	 0.101817
H	-2.0551831128	-0.0371139383	 0.5152669855	 0.231461
H	 0.5442663891	-2.8019688516	 0.0008534019	 0.101996
H	-1.5215765764	-5.9475371257	 0.0510272674	 0.299348
H	-3.5896434376	-2.0928804071	-0.1039523227	 0.261836
68.2033	90.8816	127.9796	212.8218	257.0016	265.7469	320.5602	376.0145	409.3671	434.706	485.9908	567.9129	671.7272	686.0622	708.6232	749.9078	802.1461	825.4956	931.5404	1004.4942	1043.6161	1079.0664	1128.9751	1152.812	1166.7477	1205.2298	1240.4975	1289.4949	1315.1589	1386.5416	1414.2543	1444.0732	1483.2337	1496.975	1502.0709	1527.1777	1559.8868	1588.7845	1633.9716	2970.3854	3034.7405	3059.3813	3103.897	3124.4104	3288.2287	3555.1337	3684.219	3791.0286
CCNC1=CC(O)=NN1	CCNc1cc(O)n[nH]1	
InChI=1S/C5H9N3O/c1-2-6-4-3-5(9)8-7-4/h3H,2H2,1H3,(H3,6,7,8,9)	InChI=1S/C5H9N3O/c1-2-6-4-3-5(9)8-7-4/h3H,2H2,1H3,(H3,6,7,8,9)
