18
gdb 88326	4.19248	0.80731	0.7716	2.8563	79.66	-0.2531	-0.0224	0.2307	1526.1462	0.147888	-435.277795	-435.268519	-435.267575	-435.312641	33.331	
C	 0.4250222319	 1.4138937626	-0.784770803	-0.405995
C	-0.061974606	 0.1559113955	-0.1104455389	 0.012984
N	 0.8967218404	-0.928911503	 0.0677793929	-0.306444
C	 0.3630231145	-0.2707595723	 1.2703567407	-0.18109
C	 1.3345475586	 0.5305174703	 2.0885987779	 0.473278
O	 2.3499792456	 1.0328042472	 1.6558531737	-0.354945
N	 0.9446955544	 0.6745194533	 3.4126295743	-0.325247
C	 1.6609300108	 1.4000471257	 4.3504731688	 0.104096
N	 1.2378798409	 1.4889767511	 5.5451921865	-0.467232
H	 1.4415450998	 1.6475427173	-0.4679674576	 0.168627
H	 0.4150743868	 1.279258021	-1.871549076	 0.1205
H	-0.2293777854	 2.25835098	-0.543601939	 0.114405
H	-1.086848494	-0.1260360698	-0.3539936386	 0.09054
H	 0.4569128023	-1.837862295	-0.0473700178	 0.238748
H	-0.3874094725	-0.8070771192	 1.8490991621	 0.082737
H	 0.0946563484	 0.2428601302	 3.7462536991	 0.260111
H	 2.5652726392	 1.8388350323	 3.9253299242	 0.141821
H	 1.8761533645	 2.0525263828	 6.1037416108	 0.233104
38.7607	123.4295	144.8296	165.8014	192.406	227.6273	286.6412	355.9688	400.5251	437.9433	503.8533	627.3435	707.2299	766.2391	803.1996	833.0602	856.0898	911.3035	969.7687	1009.8753	1021.7764	1079.2474	1085.1273	1090.3969	1148.4432	1160.1764	1197.2963	1241.3312	1261.9557	1302.9936	1390.6148	1397.4553	1431.082	1459.9709	1494.2564	1498.734	1499.1704	1727.1851	1798.4188	3039.7361	3097.3594	3098.9975	3115.0306	3128.0334	3159.4072	3506.8799	3509.0971	3613.2505
CC1NC1C(=O)NC=N	C[C@H]1N[C@H]1C(=O)NC=N	
InChI=1S/C5H9N3O/c1-3-4(8-3)5(9)7-2-6/h2-4,8H,1H3,(H2,6,7,9)	InChI=1S/C5H9N3O/c1-3-4(8-3)5(9)7-2-6/h2-4,8H,1H3,(H2,6,7,9)/t3-,4-/m1/s1
