19
gdb 113541	3.19614	1.0337	0.91545	0.3723	71.79	-0.2555	0.0645	0.32	1324.2528	0.15708	-460.116993	-460.107646	-460.106702	-460.15175	33.81	
C	-0.3535691289	 1.3871938429	 0.3398932084	-0.397058
C	 0.1307878136	 0.0034714938	-0.0460198384	 0.058144
O	 1.4196842404	 0.0220176677	-0.718035857	-0.297196
C	 2.0536283848	-0.7740223332	 0.3062618162	-0.157411
C	 0.7356254991	-0.8657775862	 1.0631925625	 0.344145
O	 0.5917984296	-0.6108609994	 2.4463201009	-0.287545
C	 0.1757317535	-1.9000590693	 1.9291191655	-0.068073
C	-1.3037285744	-2.1702024831	 2.0306222064	-0.083142
O	-1.6926677212	-2.4201183166	 3.3690178901	-0.414801
H	 0.3588845924	 1.8785283256	 1.0075636749	 0.130202
H	-0.4749203681	 1.9998176147	-0.5582359549	 0.129804
H	-1.3205981687	 1.3277392877	 0.8496787293	 0.122388
H	-0.6144915782	-0.5117818548	-0.6676334133	 0.083206
H	 2.4548028738	-1.7162306429	-0.0866927108	 0.109865
H	 2.8463275337	-0.2298988876	 0.8343104987	 0.118154
H	 0.8210767052	-2.7214442494	 2.2441603673	 0.103962
H	-1.8622051826	-1.3272357097	 1.5961134245	 0.093902
H	-1.5586519337	-3.0706811187	 1.4610513349	 0.117158
H	-1.4248483303	-1.6509012915	 3.8847934548	 0.294298
57.5959	89.3721	121.1956	179.5509	201.3899	221.4249	297.9141	387.9073	413.1849	430.7912	502.2122	538.2593	621.1374	794.126	805.1072	875.0825	895.3775	975.7168	1002.2325	1024.5927	1045.1867	1079.4814	1087.5659	1099.5172	1108.7619	1141.1596	1158.2705	1192.298	1226.2617	1280.8215	1311.1966	1345.4523	1370.8282	1390.4497	1404.9887	1424.6165	1481.302	1487.0064	1490.8042	1511.9161	1532.8554	2991.3987	3007.1487	3018.3255	3042.6864	3063.3139	3072.4181	3107.6427	3114.4321	3127.3924	3800.5086
CC1OCC11OC1CO	C[C@H]1OC[C@]21O[C@H]2CO	
InChI=1S/C6H10O3/c1-4-6(3-8-4)5(2-7)9-6/h4-5,7H,2-3H2,1H3	InChI=1S/C6H10O3/c1-4-6(3-8-4)5(2-7)9-6/h4-5,7H,2-3H2,1H3/t4-,5+,6-/m1/s1
