18
gdb 118606	1.84854	1.04619	0.69678	3.0437	74.53	-0.2643	-0.041	0.2233	1582.3605	0.143995	-439.097015	-439.086599	-439.085655	-439.13418	34.889	
C	 0.0100472156	 1.4771141542	 0.18167576	-0.387863
C	 0.1500993826	-0.0334191903	 0.1600923874	-0.057535
O	 0.5303045559	-0.4238417562	-1.1603880662	-0.243572
C	 0.6731995066	-1.8104308907	-1.3445224183	-0.040999
C	 0.8239506008	-2.0662853673	-2.8522617547	-0.295047
C	-0.4283949184	-1.6886214767	-3.6249658159	 0.149052
O	-0.8419060984	-2.313271601	-4.5660364997	-0.231546
C	 1.8428575275	-2.3421736787	-0.6065651933	 0.27968
N	 2.7568221509	-2.7470364571	-0.0270746293	-0.316743
H	 0.9590951687	 1.9543546642	-0.0766087887	 0.137433
H	-0.7489907835	 1.8065219377	-0.5333041129	 0.130704
H	-0.2855928253	 1.8110105434	 1.1802883174	 0.127329
H	 0.9114766868	-0.3674433891	 0.87889864	 0.122313
H	-0.7995505197	-0.5228699118	 0.4272756781	 0.09957
H	-0.2144449826	-2.3440171881	-0.9637935788	 0.122247
H	 1.6498696239	-1.4404746551	-3.2137185929	 0.156918
H	 1.0712935788	-3.1102414112	-3.0565876828	 0.147578
H	-0.9377773704	-0.770439986	-3.2642471095	 0.100482
50.2483	61.4281	83.2317	92.8721	132.4165	176.7061	231.7382	262.377	295.623	395.4153	410.8888	461.494	568.6859	624.75	783.9076	823.7308	860.1215	921.3453	969.4857	1044.5594	1078.6397	1096.9213	1137.1337	1152.7218	1187.6291	1237.8291	1279.8525	1301.4384	1343.4268	1366.9318	1405.341	1419.45	1437.3275	1442.7914	1484.264	1499.3223	1526.3036	1836.1241	2354.099	2918.5787	2964.3692	2983.6254	3029.538	3045.4405	3049.2743	3124.3919	3124.8381	3128.0728
CCOC(CC=O)C#N	CCO[C@@H](CC=O)C#N	
InChI=1S/C6H9NO2/c1-2-9-6(5-7)3-4-8/h4,6H,2-3H2,1H3	InChI=1S/C6H9NO2/c1-2-9-6(5-7)3-4-8/h4,6H,2-3H2,1H3/t6-/m0/s1
