19
gdb 39883	3.95402	1.52436	1.41556	0.5091	79.01	-0.2234	0.0733	0.2966	972.4261	0.16293	-381.973187	-381.966708	-381.965764	-382.003731	27.651	
C	 0.0044293553	 1.5463605909	 0.052410005	-0.338939
N	 1.2354196554	 0.7093351549	 0.0331781888	-0.400462
C	-0.0772870011	 0.0772455827	 0.0243332307	 0.444782
C	-0.5268884824	-0.9897075442	 1.0297337421	-0.153296
C	-2.0406643381	-0.9465504574	 0.7324667077	-0.161226
N	-1.9927199365	-1.3768596661	-0.7071146297	-0.156235
C	-1.4155428697	-2.7673248501	-0.5166876503	-0.189701
C	-0.1306429018	-2.0839880087	-0.0664295392	-0.040106
C	-0.5311265933	-0.9182116991	-1.0204547556	-0.107559
H	-0.1552725815	 2.088612805	 0.9807427081	 0.120632
H	-0.2629238973	 2.096807818	-0.8461957674	 0.116163
H	 1.635431142	 0.7105963372	-0.9033458363	 0.230246
H	-0.1589474798	-1.0142894242	 2.0534795945	 0.077332
H	-2.6522790678	-1.6412736029	 1.3126507887	 0.098168
H	-2.461669976	 0.0578581775	 0.8245381111	 0.103908
H	-1.9819179791	-3.4118804237	 0.1629805376	 0.098307
H	-1.3080659621	-3.2604114535	-1.4872159796	 0.106255
H	 0.8615517862	-2.5304530037	-0.0124137437	 0.0776
H	-0.3147592324	-0.8568521724	-2.0866577123	 0.074131
158.272	242.9173	288.1116	422.4883	461.6751	522.801	588.875	698.0242	739.9537	800.1342	825.0717	835.8843	865.2968	898.6223	910.5619	920.9908	934.6129	962.9517	971.6666	993.3311	1018.8851	1032.3045	1046.9583	1074.2706	1110.9211	1132.8686	1138.7182	1172.384	1194.9354	1207.8074	1225.3916	1230.0582	1261.3757	1269.7133	1281.9632	1287.1106	1323.179	1443.5313	1502.7425	1518.5741	1526.8182	3043.7826	3063.4582	3099.2455	3104.0918	3112.0751	3117.2726	3126.028	3141.9418	3188.5226	3478.9899
C1NC11C2CN3CC2C13	C1N[C@]21[C@H]1CN3C[C@H]1[C@H]23	
InChI=1S/C7H10N2/c1-4-5-2-9(1)6(4)7(5)3-8-7/h4-6,8H,1-3H2	InChI=1S/C7H10N2/c1-4-5-2-9(1)6(4)7(5)3-8-7/h4-6,8H,1-3H2/t4-,5+,6-,7-/m1/s1
