18
gdb 29833	3.87843	1.05793	0.83994	3.3337	91.7	-0.1948	0.0212	0.216	1363.5685	0.146614	-364.82819	-364.81882	-364.817876	-364.862473	34.352	
C	 0.0043167173	 1.435972407	 0.0311767387	-0.337966
N	 0.0132875079	-0.0119266406	 0.0207748553	-0.036325
C	 0.0033577689	-0.7895548027	-1.1047152472	-0.222986
C	 0.0154780448	-2.1194161385	-0.7215655529	 0.147452
C	 0.0335117932	-2.1261737809	 0.70997966	-0.37668
C	 0.0318133698	-0.822247483	 1.1425161792	 0.322929
C	 0.046255601	-0.2623477709	 2.5259739253	-0.505812
C	 0.0109288698	-3.240955303	-1.5824939028	 0.2478
C	 0.0072527437	-4.2068103235	-2.3036660828	-0.46073
H	 0.8938385731	 1.8341976907	 0.5304336001	 0.140852
H	-0.0052020147	 1.797809788	-0.9979696346	 0.144917
H	-0.8827149286	 1.8235445464	 0.5432269317	 0.140805
H	-0.0114931882	-0.3485134435	-2.0882337049	 0.12441
H	 0.0463557045	-3.002905195	 1.3388052699	 0.100381
H	 0.9286826846	 0.3615456591	 2.7173221181	 0.127336
H	-0.8364938814	 0.3540708284	 2.73876165	 0.127293
H	 0.0585377727	-1.0799432835	 3.2498677355	 0.139586
H	 0.0039773718	-5.0550432143	-2.9413735486	 0.176738
58.1733	121.6459	139.1451	158.7324	201.6402	262.8388	268.9286	394.5377	466.0664	517.0056	519.8508	562.8759	626.9652	631.7348	642.9582	665.8512	723.5735	786.4915	810.1493	999.3183	1009.3604	1062.8252	1080.2572	1149.727	1160.6495	1187.6132	1232.6092	1355.0824	1395.7074	1415.9244	1431.612	1467.3769	1476.0285	1487.4205	1489.5493	1516.9522	1558.2389	1607.7826	2227.7423	3014.8405	3034.2397	3057.0705	3089.2975	3125.1714	3141.2671	3253.2518	3263.9207	3506.0891
CN1C=C(C=C1C)C#C	Cn1cc(cc1C)C#C	
InChI=1S/C8H9N/c1-4-8-5-7(2)9(3)6-8/h1,5-6H,2-3H3	InChI=1S/C8H9N/c1-4-8-5-7(2)9(3)6-8/h1,5-6H,2-3H3
