18
gdb 65829	3.30584	1.10166	1.07146	3.3881	78.04	-0.242	0.0297	0.2718	1197.521	0.147178	-401.966783	-401.957926	-401.956982	-402.000092	33.811	
C	 0.2665663702	 1.2993078837	 0.0556208314	-0.427652
C	-0.1430102192	-0.188717549	-0.0006974138	 0.08121
C	 0.5907191172	-0.8986890832	-1.1872773859	-0.196086
N	 1.83405535	-1.3294815258	-0.5802664628	-0.303497
C	 1.8005625213	-1.4503259084	 0.7846628335	 0.397143
O	 2.6869762777	-1.8841548889	 1.4848346098	-0.37613
C	 0.4238179129	-0.9480837475	 1.2302854776	-0.362924
C	-1.5920415245	-0.3062380696	-0.1242800213	 0.283367
C	-2.7863912297	-0.3957952551	-0.2278680903	-0.443212
H	 1.3555674661	 1.389620237	 0.1140528474	 0.129924
H	-0.0817396964	 1.830196776	-0.834433379	 0.126456
H	-0.1693398104	 1.7826487243	 0.9338089669	 0.131082
H	-0.0040184803	-1.7419513281	-1.5613227343	 0.117684
H	 0.7633816678	-0.2074678397	-2.0180103908	 0.118887
H	 2.6013071773	-1.7194252014	-1.1044151629	 0.253505
H	 0.5034642613	-0.326633217	 2.1236668101	 0.135042
H	-0.1920514465	-1.8174503693	 1.4811668973	 0.138757
H	-3.8416429947	-0.477168618	-0.3155751831	 0.196444
81.4647	144.2314	157.3321	190.7488	255.5071	345.4105	354.5996	427.9021	478.3269	485.1821	555.103	560.9715	606.4524	632.0281	640.7459	688.5499	781.1949	867.0923	922.5126	946.0939	966.8071	978.3728	1070.5639	1098.8994	1173.2824	1179.5552	1215.4465	1254.2328	1269.2814	1309.907	1345.9924	1405.6651	1444.9673	1465.3476	1492.4395	1496.531	1530.7216	1836.2094	2236.4899	3017.2187	3042.086	3067.1118	3073.9242	3118.6018	3122.8698	3127.186	3500.8435	3641.579
CC1(CNC(=O)C1)C#C	C[C@]1(CNC(=O)C1)C#C	
InChI=1S/C7H9NO/c1-3-7(2)4-6(9)8-5-7/h1H,4-5H2,2H3,(H,8,9)	InChI=1S/C7H9NO/c1-3-7(2)4-6(9)8-5-7/h1H,4-5H2,2H3,(H,8,9)/t7-/m0/s1
