23
gdb 81336	2.92708	1.38394	1.24086	1.4997	85.23	-0.2308	0.0903	0.3211	1163.6258	0.205463	-388.279621	-388.270575	-388.269631	-388.312545	36.169	
C	-0.1565956343	 1.5571820684	-0.0226052554	-0.44047
C	 0.0194782314	 0.0433495242	-0.0045605615	 0.038076
C	 1.1481966439	-0.6101372477	-0.8493262444	 0.102563
C	 2.1346978873	-0.2134020993	 0.2703328677	-0.261821
C	 0.8922377095	-0.5894195003	 1.14447807	-0.102297
C	 0.7533639255	-2.0989333973	 0.8163876599	 0.41126
C	 1.8368202436	-2.9968750568	 1.4230120777	-0.436103
C	-0.6145784056	-2.7115780603	 1.1342427186	-0.435794
O	 0.9388979399	-2.0175651938	-0.6354410153	-0.330449
H	 0.7697427409	 2.1117578173	 0.1464062901	 0.117853
H	-0.5646247236	 1.8827521883	-0.9860807681	 0.118513
H	-0.8676561701	 1.8652903919	 0.7519647966	 0.117991
H	-0.954213464	-0.4232629891	-0.1672462847	 0.0703
H	 1.3091678401	-0.4213900371	-1.9107950721	 0.071013
H	 3.0502021601	-0.7972525723	 0.3627570877	 0.098676
H	 2.3707230571	 0.8489057854	 0.2972659551	 0.101369
H	 0.7932201827	-0.2939083853	 2.1897615353	 0.062853
H	 1.7027886244	-3.0797919446	 2.5069797976	 0.108878
H	 1.7614808824	-4.0017362681	 0.9960692966	 0.122503
H	 2.8450090734	-2.6297512575	 1.2292471595	 0.115763
H	-1.4459799193	-2.1102845663	 0.7647691416	 0.1164
H	-0.6883093183	-3.7010348264	 0.6728027253	 0.12371
H	-0.734378587	-2.8342505332	 2.2160284021	 0.109215
126.8928	174.6306	193.045	204.3199	211.7259	269.8992	346.0724	383.5321	393.1557	486.3208	518.2041	524.3112	593.6654	743.9182	800.8704	816.7948	843.4595	864.7763	892.6246	931.1663	950.5806	969.3452	993.4788	1021.5928	1028.5662	1050.3322	1073.7008	1094.8171	1113.0511	1133.7039	1183.3481	1202.7205	1219.6185	1223.7591	1254.9637	1262.437	1302.0855	1310.5245	1384.6578	1403.846	1415.3137	1417.9271	1474.1868	1483.1844	1490.7299	1497.9336	1501.5879	1508.3642	1518.9813	3032.757	3038.2783	3045.6359	3082.5444	3088.3273	3097.1856	3101.2973	3109.0783	3111.3278	3116.6727	3123.2762	3137.8695	3139.3379	3159.4201
CC1C2CC1C(C)(C)O2	C[C@H]1[C@H]2C[C@@H]1C(C)(C)O2	
InChI=1S/C8H14O/c1-5-6-4-7(5)9-8(6,2)3/h5-7H,4H2,1-3H3	InChI=1S/C8H14O/c1-5-6-4-7(5)9-8(6,2)3/h5-7H,4H2,1-3H3/t5-,6+,7-/m1/s1
