17
gdb 26530	2.32876	1.83039	1.03303	5.9987	81.27	-0.1871	-0.0057	0.1814	1114.0227	0.138094	-418.077719	-418.069399	-418.068455	-418.110268	32.064	
C	 0.0765660466	 1.5465150528	 0.0284628788	-0.509881
C	-0.0016376786	 0.0486884628	 0.0074608089	 0.295135
C	-1.1734983294	-0.6508056965	 0.0611143664	 0.094925
N	-2.4261802287	-0.0554491893	 0.175106845	-0.589966
C	-1.1924729606	-2.1262419751	 0.0626297475	 0.359418
O	-2.2692288897	-2.7318340261	 0.114367315	-0.431845
C	 0.1089595022	-2.7495814298	-0.0115862849	-0.259875
C	 1.2438478493	-2.0037313833	-0.0803348986	 0.014552
N	 1.1910283366	-0.6466367273	-0.0743111857	-0.379789
H	 1.0246082397	 1.8925643895	 0.4548064539	 0.122176
H	-0.0130645396	 1.9860746766	-0.9737354909	 0.137541
H	-0.7334266256	 1.9511786258	 0.641983048	 0.156188
H	-2.5981798055	 0.7358889517	-0.4277942776	 0.239726
H	-3.1325280013	-0.7810645647	 0.0779720111	 0.259184
H	 0.1611812196	-3.8307443447	-0.0272081337	 0.10669
H	 2.2356776894	-2.4349493697	-0.1435112163	 0.127516
H	 2.0471601356	-0.1194891928	-0.1151233269	 0.258306
112.6016	140.5325	195.3813	281.3016	300.2489	340.6763	369.2709	451.0432	490.7403	512.1101	542.1098	562.3306	574.0076	692.4317	732.8513	781.302	841.8338	862.8381	933.6042	949.6168	1021.0479	1056.1974	1099.6724	1215.4869	1226.7529	1238.297	1306.0576	1379.5127	1423.8966	1427.3756	1479.2806	1499.3182	1561.0744	1608.0686	1629.898	1678.2791	1703.7519	3016.0303	3072.8935	3111.2812	3200.3287	3221.5882	3489.0072	3627.5562	3656.7217
CC1=C(N)C(=O)C=CN1	Cc1c(N)c(=O)cc[nH]1	
InChI=1S/C6H8N2O/c1-4-6(7)5(9)2-3-8-4/h2-3H,7H2,1H3,(H,8,9)	InChI=1S/C6H8N2O/c1-4-6(7)5(9)2-3-8-4/h2-3H,7H2,1H3,(H,8,9)
