19
gdb 59544	2.76071	1.20267	1.1709	2.236	70.74	-0.236	0.0549	0.2909	1169.4108	0.157619	-460.105973	-460.097004	-460.09606	-460.139536	34.204	
C	 0.1523543794	 1.3588559478	-0.2820610549	-0.410178
C	 0.1265449875	-0.1025618116	 0.1565062144	 0.091054
O	 0.5229855793	-0.2696921392	 1.5153296237	-0.429426
C	-1.2604189453	-0.7216954691	-0.0157318633	 0.122479
O	-1.8230041636	-0.6377372694	-1.3670842754	-0.326664
C	-2.2044973444	-2.0241178727	-1.3034235913	 0.014711
C	-0.9700422026	-2.8488038655	-1.299653317	 0.127966
O	 0.1713698024	-2.4606843514	-1.998533187	-0.430792
C	-1.4485511614	-2.2334362317	 0.0087134484	-0.202221
H	 1.1520915875	 1.7794523254	-0.1451888111	 0.125991
H	-0.1328959209	 1.4545295102	-1.333656092	 0.134553
H	-0.5565154187	 1.9542148232	 0.308647992	 0.104656
H	 0.8488544683	-0.6844674066	-0.421167995	 0.11069
H	 0.0099796471	 0.3477439067	 2.0492734285	 0.278112
H	-1.9597472857	-0.224447571	 0.6741057203	 0.073654
H	-3.1953042492	-2.2867521887	-1.6569251017	 0.105266
H	-1.1253149839	-3.9236866162	-1.3401225756	 0.112194
H	-0.0332924773	-1.5962003056	-2.379805071	 0.293956
H	-1.6930511485	-2.8241129046	 0.8806677081	 0.104
74.003	136.0508	154.2284	241.1748	255.8354	291.4564	322.2213	350.7605	423.5915	454.3674	478.2583	569.9663	661.4778	735.4287	806.0575	817.5983	875.5288	924.7218	938.6938	980.0825	1012.4924	1020.9084	1052.0655	1054.2902	1075.5855	1081.2224	1117.1566	1181.5083	1191.5823	1246.5217	1268.2912	1277.5545	1316.2765	1336.1649	1364.162	1400.1295	1417.1464	1427.3741	1453.7529	1492.1606	1494.9667	2983.924	3022.2015	3086.3535	3106.251	3126.1543	3153.5669	3174.4687	3210.3427	3758.9857	3791.6757
CC(O)C1OC2C(O)C12	C[C@@H](O)[C@H]1O[C@H]2[C@@H](O)[C@@H]12	
InChI=1S/C6H10O3/c1-2(7)5-3-4(8)6(3)9-5/h2-8H,1H3	InChI=1S/C6H10O3/c1-2(7)5-3-4(8)6(3)9-5/h2-8H,1H3/t2-,3+,4+,5-,6-/m1/s1
