18
gdb 84705	2.98678	1.70455	1.14848	1.5087	78.39	-0.2233	-0.0034	0.22	1061.564	0.150827	-398.151502	-398.14385	-398.142905	-398.183909	28.812	
C	 0.3717338144	 1.3227007904	 0.148203954	-0.337793
N	-0.2492561686	 0.0159514311	 0.058019771	-0.145253
C	-0.3188223173	-0.7708208418	-1.1074593865	 0.048179
N	-0.5510095785	-2.0233066505	-0.9705460518	-0.282197
C	-0.737024166	-2.2045214541	 0.4811894596	-0.039126
C	 0.0640108652	-3.1809804796	 1.3551467938	-0.246716
C	 0.1752122872	-2.3384234841	 2.6716659825	-0.161744
N	 0.2451971213	-0.9110843529	 2.2518110128	-0.331161
C	-0.2555587011	-0.9111122707	 1.0836582001	 0.391146
H	 1.4115755785	 1.2455310568	 0.4875717357	 0.145673
H	 0.346427142	 1.801207942	-0.8333982227	 0.134086
H	-0.1746303323	 1.9490750757	 0.8577121912	 0.150549
H	-0.1777179929	-0.2773403867	-2.0649672305	 0.131249
H	-1.8138431154	-2.346724759	 0.6620561823	 0.107481
H	-0.4133442929	-4.1524112743	 1.4999400381	 0.104411
H	 1.0590912742	-3.3384873068	 0.9267079262	 0.115133
H	-0.7021621669	-2.502307934	 3.3132869031	 0.10625
H	 1.0591857291	-2.5876816714	 3.2650459011	 0.10983
80.9904	133.0674	179.1646	256.3099	286.1134	328.3066	496.7188	569.5939	590.3181	633.4409	719.6323	761.3703	841.305	855.9143	914.7528	945.1597	978.8566	993.7508	1037.0947	1071.3273	1090.571	1139.9974	1154.1786	1173.2914	1199.9382	1262.2848	1286.8719	1300.4091	1313.2945	1320.632	1329.3641	1404.3156	1462.3451	1476.8204	1488.1925	1504.3738	1515.5783	1645.23	1752.9036	2988.1865	3010.7456	3030.1682	3058.9119	3086.2892	3100.602	3119.8862	3132.7883	3183.992
CN1C=NC2CCN=C12	CN1[CH][N][C@H]2CC[N][C]12	
InChI=1S/C6H9N3/c1-9-4-8-5-2-3-7-6(5)9/h4-5H,2-3H2,1H3	InChI=1S/C6H9N3/c1-9-4-8-5-2-3-7-6(5)9/h4-5H,2-3H2,1H3/t5-/m0/s1
