19
gdb 120592	3.94864	0.76813	0.72673	5.0818	78.59	-0.249	0.0247	0.2737	1602.1385	0.157724	-419.180253	-419.170067	-419.169122	-419.216031	35.792	
C	-0.1340549007	 1.32797407	-0.0522593329	-0.229156
O	-0.1560890198	-0.0746248759	-0.1860500207	-0.229322
C	 0.8474684787	-0.5565097795	-1.0508405189	-0.082987
C	 0.7673333336	-2.0626181249	-1.0475809347	-0.041784
C	-0.1746915714	-2.8061389692	-1.9570384821	-0.313813
C	 1.3354080828	-2.8902605844	-2.187420653	 0.126044
N	 2.0113422697	-2.2577168947	-3.3005359464	-0.565331
C	 1.9684414268	-4.1359878409	-1.8093526698	 0.284169
N	 2.452303102	-5.1446393345	-1.5163967908	-0.341728
H	 0.825315632	 1.6845114502	 0.3541496659	 0.109585
H	-0.3073988194	 1.8331760681	-1.0158563504	 0.104684
H	-0.9349721905	 1.6010119356	 0.6383501238	 0.133516
H	 0.7001063705	-0.1449118234	-2.0647691391	 0.075111
H	 1.8437260107	-0.2263043185	-0.7123932698	 0.106716
H	 0.9064166464	-2.4867161538	-0.0584066398	 0.125203
H	-0.6998051332	-3.6726363433	-1.5725398011	 0.137544
H	-0.7234058452	-2.2257240672	-2.6921014234	 0.119753
H	 1.9114856637	-2.8332814022	-4.1322038309	 0.244951
H	 1.5866603833	-1.3619589716	-3.5111814959	 0.236842
58.745	91.3648	101.3132	147.7616	159.4976	201.7594	235.7901	275.4942	313.8909	391.3034	416.0196	483.8445	577.8452	610.3763	689.459	849.1064	870.1684	888.6348	909.0533	937.1671	990.7961	1053.6333	1065.569	1094.3309	1152.3167	1174.6988	1183.6829	1192.5938	1228.1564	1273.4792	1306.7068	1319.6206	1397.991	1446.2274	1480.9313	1484.4752	1487.2046	1502.2907	1524.8945	1655.6082	2355.2942	2944.1855	2972.3242	2981.3268	3017.3135	3120.6394	3133.2245	3167.509	3227.6664	3498.9936	3590.6142
COCC1CC1(N)C#N	COC[C@H]1C[C@]1(N)C#N	
InChI=1S/C6H10N2O/c1-9-3-5-2-6(5,8)4-7/h5H,2-3,8H2,1H3	InChI=1S/C6H10N2O/c1-9-3-5-2-6(5,8)4-7/h5H,2-3,8H2,1H3/t5-,6+/m1/s1
