17
gdb 17465	4.40547	1.952	1.6596	3.1279	67.02	-0.2369	0.0708	0.3078	822.042	0.143189	-363.825994	-363.819274	-363.81833	-363.85642	26.989	
C	 0.1143442027	 1.4912912312	-0.1435380221	-0.478722
C	-0.0685386401	 0.0168929164	 0.0981647119	 0.399914
C	-1.3931195049	-0.664781446	-0.2744518718	-0.283499
C	-1.5224621213	-1.8701209439	 0.6571980252	-0.041036
N	-0.5009656208	-2.9166633623	 0.4738373238	-0.312812
C	-0.3342603484	-1.9217022076	 1.554511131	-0.077363
C	 0.5652513424	-0.7598168385	 1.1850712138	-0.018258
O	 1.0814022349	-0.8049797584	-0.14700332	-0.270831
H	 1.0968573303	 1.8153380986	 0.2087415701	 0.129133
H	 0.0469003046	 1.7203565939	-1.2131065068	 0.127977
H	-0.6561596701	 2.073807379	 0.3727571552	 0.117662
H	-2.2245392095	 0.0274324822	-0.1000782374	 0.099217
H	-1.4086621024	-0.9518123804	-1.3305445939	 0.122172
H	-2.5105458131	-2.1641433602	 0.9980125814	 0.086415
H	-0.8445897163	-3.7837644355	 0.8819980301	 0.229022
H	-0.3917756189	-2.2359452361	 2.5908493786	 0.083833
H	 1.2201091109	-0.3196454026	 1.9333677211	 0.087173
181.8982	202.1668	257.4766	354.6776	359.5838	414.2426	558.8022	626.608	704.4473	725.9508	796.4262	842.6713	848.7789	881.6475	899.1704	934.7906	970.4513	980.7598	1029.0494	1057.2301	1067.557	1115.2585	1144.6431	1171.3993	1211.0719	1220.4469	1240.9129	1295.1391	1325.3242	1370.9194	1407.4295	1421.8827	1445.4992	1464.9881	1485.6018	1497.1514	3032.2548	3046.5626	3091.3163	3095.1446	3122.0523	3139.8301	3151.7483	3175.2867	3486.6432
CC12CC3NC3C1O2	C[C@]12C[C@H]3N[C@H]3[C@H]1O2	
InChI=1S/C6H9NO/c1-6-2-3-4(7-3)5(6)8-6/h3-5,7H,2H2,1H3	InChI=1S/C6H9NO/c1-6-2-3-4(7-3)5(6)8-6/h3-5,7H,2H2,1H3/t3-,4-,5-,6+/m1/s1
