23
gdb 122073	2.39154	0.75867	0.60008	4.9373	87.44	-0.2361	0.0359	0.272	1901.2947	0.204365	-384.47833	-384.466935	-384.465991	-384.516156	39.66	
C	-0.1636472816	 1.5737334834	 0.0190260045	-0.381904
C	-0.1238808234	 0.0435354918	 0.0056224117	-0.170164
C	-1.5188588252	-0.5928412049	-0.0190796291	-0.173907
C	-1.4703498997	-2.1233531085	-0.0321763755	-0.19371
C	-2.8620563521	-2.8000508965	-0.0174142484	-0.140803
N	-3.708371412	-2.5305359099	-1.1762349366	-0.271743
C	-4.7589436578	-1.5377308565	-1.0011251436	-0.32555
C	-2.6806380937	-4.2622104041	 0.1341531555	 0.29733
N	-2.5141430824	-5.3995852421	 0.2526401218	-0.329203
H	 0.8448866056	 1.9977038931	 0.0365116419	 0.1167
H	-0.673861831	 1.9653183728	-0.86806173	 0.114764
H	-0.6976508757	 1.9486345255	 0.8991884039	 0.11611
H	 0.4463943047	-0.3021907229	-0.8665573452	 0.099311
H	 0.4220096698	-0.3183950524	 0.8865298619	 0.101324
H	-2.0891301773	-0.2516890363	 0.8560771027	 0.097205
H	-2.0634282158	-0.2298641312	-0.8998633321	 0.099236
H	-0.9267092985	-2.4759273454	-0.9188039415	 0.111895
H	-0.9029423824	-2.4856824519	 0.8336542705	 0.119273
H	-3.4020207579	-2.460462483	 0.8758275166	 0.123663
H	-3.1457996309	-2.3449497901	-1.9966863497	 0.225567
H	-5.4697335919	-1.88776418	-0.2448768618	 0.13296
H	-4.4123936849	-0.5352055544	-0.701210574	 0.102453
H	-5.3089784059	-1.4385507667	-1.9412392635	 0.129193
44.8215	65.6591	92.4714	96.5689	150.1875	159.0467	203.2309	227.2171	243.3882	295.738	356.4488	384.4638	429.6831	558.2668	569.4631	659.0176	741.6187	787.2013	877.5556	905.8427	953.2552	984.0816	1017.7312	1044.705	1068.7259	1101.3767	1124.1505	1153.1902	1166.0682	1211.7328	1244.5149	1270.5764	1307.9606	1328.0567	1334.9492	1366.1602	1378.7744	1400.94	1416.3821	1462.2501	1473.746	1485.1106	1491.7987	1493.3647	1499.629	1502.2102	1513.7158	1521.7519	2355.1357	2968.8165	3009.501	3017.1076	3024.0775	3031.0484	3034.6835	3038.2899	3054.6683	3063.8958	3074.3831	3097.325	3105.072	3108.8629	3558.0826
CCCCC(NC)C#N	CCCC[C@@H](NC)C#N	
InChI=1S/C7H14N2/c1-3-4-5-7(6-8)9-2/h7,9H,3-5H2,1-2H3	InChI=1S/C7H14N2/c1-3-4-5-7(6-8)9-2/h7,9H,3-5H2,1-2H3/t7-/m1/s1
