20
gdb 103294	2.51227	1.38257	1.32894	3.0942	75.02	-0.251	0.0596	0.3107	1093.6651	0.170581	-440.19443	-440.18545	-440.184506	-440.227749	34.868	
C	-0.1639956009	 1.5244947452	-0.0537588677	-0.487602
C	-0.0600842489	 0.0083254027	 0.1129790009	 0.311544
C	-1.456109209	-0.5702764208	-0.171280916	-0.134809
O	-1.7170714208	-0.5432141672	-1.5663955936	-0.428191
N	 1.0681147128	-0.7098464943	-0.7153594083	-0.189879
C	 2.0530179368	-0.1343580594	 0.316980715	-0.247419
C	 0.8631764965	-0.6196958828	 1.1888080702	 0.303217
O	 0.6391026899	-0.5034347022	 2.5493751375	-0.468222
C	 0.9317851091	-1.8752551144	 0.2773542252	-0.253264
H	 0.7849377039	 2.0519587344	-0.1365907952	 0.118455
H	-0.7491735936	 1.7383978825	-0.9520339208	 0.143952
H	-0.7001700782	 1.9390166922	 0.8066718094	 0.131214
H	-1.6005782351	-1.5758847531	 0.2401510481	 0.092522
H	-2.2085388677	 0.0689926762	 0.3017663066	 0.110042
H	-0.9068346234	-0.8393295411	-2.0007023189	 0.294612
H	 2.9817864501	-0.7079753286	 0.3685405582	 0.098785
H	 2.2604064872	 0.9276096793	 0.2195485991	 0.110377
H	 1.3502771246	-0.9469737926	 3.0249604714	 0.284525
H	 0.0561627833	-2.5039187971	 0.1365301866	 0.112213
H	 1.8379302134	-2.483543179	 0.3309306121	 0.097931
90.7007	126.0093	162.9311	216.7744	247.6384	301.7616	362.1122	412.6369	431.0925	454.8736	522.1279	571.3609	607.0926	668.156	692.9897	790.4136	818.6709	888.9402	943.9928	955.87	977.475	981.175	1051.8687	1065.526	1073.3217	1090.5874	1109.7687	1164.3704	1181.2298	1186.9182	1229.9661	1242.5126	1268.3655	1290.2927	1351.071	1382.7261	1410.4258	1440.352	1485.9186	1500.294	1519.1814	1543.3683	1574.8686	3027.0869	3050.1087	3070.8948	3073.0678	3081.7874	3115.2979	3150.2878	3167.4551	3178.1603	3769.6845	3804.9172
CC1(CO)N2CC1(O)C2	C[C@@]1(CO)N2C[C@]1(O)C2	
InChI=1S/C6H11NO2/c1-5(4-8)6(9)2-7(5)3-6/h8-9H,2-4H2,1H3	InChI=1S/C6H11NO2/c1-5(4-8)6(9)2-7(5)3-6/h8-9H,2-4H2,1H3/t5-/m0/s1
