16
gdb 65874	2.77361	1.28335	1.18489	4.8397	65.43	-0.2601	-0.0489	0.2112	1095.8135	0.123346	-475.082292	-475.073743	-475.072799	-475.115985	30.877	
C	-0.0890168539	 1.6879897273	 0.120522468	-0.450061
C	 0.0629204446	 0.163835657	 0.1014047955	 0.163128
C	 0.7811759239	-0.378869456	-1.1516545318	-0.116731
O	 1.5895538802	-1.4656040202	-0.6861623567	-0.239465
C	 1.7220548732	-1.4031539983	 0.6712005984	 0.484813
O	 2.3980585337	-2.1516725902	 1.3155612458	-0.383581
N	 0.964679861	-0.336215284	 1.1264364838	-0.403747
C	-1.3311790264	-0.4642556726	 0.2705485676	 0.145152
O	-1.9982011737	-0.9058007194	-0.624943555	-0.236007
H	 0.8976898022	 2.1582546076	 0.1097747772	 0.142538
H	-0.6592037518	 2.0264717355	-0.7500205619	 0.145717
H	-0.618380907	 2.0222022403	 1.0193744558	 0.128981
H	 0.0704865323	-0.7510917903	-1.8905442102	 0.153219
H	 1.4274546161	 0.3827625499	-1.6003877781	 0.118271
H	 0.7513829002	-0.297456703	 2.1107730133	 0.261842
H	-1.6922662146	-0.4692667235	 1.3259383481	 0.085932
56.6848	103.1295	156.9453	231.8054	284.3439	294.0858	300.3182	409.3611	449.1181	493.0491	565.6023	644.5632	724.4791	769.1887	842.5872	900.0719	938.1512	971.8656	986.8244	1016.9976	1080.3032	1169.2508	1192.0534	1204.843	1263.9039	1272.1679	1385.1143	1402.4732	1404.3824	1428.9056	1489.92	1496.249	1516.9701	1838.9878	1898.9672	2859.7334	3036.5542	3050.4057	3106.9743	3126.9199	3133.9305	3644.616
CC1(COC(=O)N1)C=O	C[C@]1(COC(=O)N1)C=O	
InChI=1S/C5H7NO3/c1-5(2-7)3-9-4(8)6-5/h2H,3H2,1H3,(H,6,8)	InChI=1S/C5H7NO3/c1-5(2-7)3-9-4(8)6-5/h2H,3H2,1H3,(H,6,8)/t5-/m1/s1
