20
gdb 56256	3.99298	0.78723	0.73402	1.1072	75.79	-0.2443	-0.0238	0.2206	1576.204	0.168816	-440.260038	-440.250001	-440.249057	-440.296817	35.031	
C	 0.9920792861	-0.2922698515	 0.0569207084	-0.475947
C	-0.3395356803	-0.0416490832	-0.6198712032	 0.346993
O	-1.1331744151	 0.7814497096	-0.2298858522	-0.28413
C	-0.6349164037	-0.8358111149	-1.9021352491	-0.167234
O	 0.0052402218	-2.088880486	-1.9908443345	-0.242295
C	-0.6456083149	-3.1222232527	-1.2713124904	-0.106172
C	 0.1222090108	-4.4120989913	-1.4533747263	 0.001951
C	 0.80123886	-4.72261571	-2.7318191005	-0.229293
N	 1.5887777819	-4.3979077378	-1.5228798614	-0.32036
H	 1.8110961996	-0.1845597511	-0.6626849229	 0.143323
H	 1.1195097287	 0.411801006	 0.8797837143	 0.144263
H	 1.0469103019	-1.3173862141	 0.4371318374	 0.152414
H	-1.7243733217	-0.9167832829	-2.0143325437	 0.122458
H	-0.2585644063	-0.2342620869	-2.7400747681	 0.135266
H	-0.7042023595	-2.8704112007	-0.1991868586	 0.100671
H	-1.6799784654	-3.2431064899	-1.6321248086	 0.106808
H	-0.286217206	-5.2322406816	-0.8657419833	 0.095427
H	 0.880073763	-5.7523422331	-3.0680971815	 0.116573
H	 0.7491165418	-3.9782943385	-3.5198986665	 0.122839
H	 1.8905184272	-3.4284797993	-1.5989231194	 0.236444
32.6662	50.6381	82.1137	122.8648	162.0345	180.1623	249.6259	339.2792	360.7941	440.7172	484.573	524.6904	638.6997	761.1412	778.1392	847.3695	862.9399	914.4374	949.5817	989.3798	994.652	1021.4326	1097.0944	1102.1262	1116.6636	1149.6811	1155.2086	1199.1176	1236.6734	1268.2816	1282.7741	1288.7662	1310.62	1362.8739	1382.9183	1421.4623	1424.9918	1455.5666	1460.5496	1471.4303	1505.2167	1516.9077	1819.7165	2961.3321	2991.8988	3013.4646	3043.3439	3062.8642	3104.7981	3118.1978	3127.4569	3156.1487	3209.2268	3496.3125
CC(=O)COCC1CN1	CC(=O)COC[C@H]1CN1	
InChI=1S/C6H11NO2/c1-5(8)3-9-4-6-2-7-6/h6-7H,2-4H2,1H3	InChI=1S/C6H11NO2/c1-5(8)3-9-4-6-2-7-6/h6-7H,2-4H2,1H3/t6-/m1/s1
