18
gdb 125173	3.22056	1.53588	1.07299	5.1246	78.43	-0.2338	0.0127	0.2465	1118.9222	0.150772	-398.151902	-398.144108	-398.143164	-398.184806	28.794	
C	-0.1248312454	 1.5123055107	 0.1026289492	-0.500878
C	-0.0753340468	 0.0278140703	-0.0565936846	 0.137552
C	 0.1053597324	-0.7595406644	-1.17525781	 0.306786
C	 0.3623936562	-0.7852165408	-2.6503624528	-0.362436
C	 0.0889602133	-2.2825160414	-3.0038845005	-0.216169
C	 0.2699788792	-3.0723477616	-1.6802589366	-0.173358
N	 0.0525482775	-2.0224039017	-0.6969449601	 0.071316
N	-0.1403081547	-2.0641530489	 0.6236882011	-0.188171
N	-0.2241672947	-0.8134888698	 1.0137131163	-0.250541
H	 0.834602288	 1.9833400882	-0.1396430174	 0.126588
H	-0.8841714715	 1.9681533036	-0.542126759	 0.124464
H	-0.3674043462	 1.7526359858	 1.1399686438	 0.14897
H	-0.2822019514	-0.1082541471	-3.2171276169	 0.127884
H	 1.3983224259	-0.5040715304	-2.8764429044	 0.127268
H	-0.942875104	-2.390358462	-3.3487745481	 0.127662
H	 0.7426077417	-2.6547661315	-3.7948182003	 0.118126
H	-0.4512807271	-3.8818782301	-1.553021634	 0.141827
H	 1.2783425679	-3.4863358989	-1.5709187058	 0.133111
57.4017	127.3783	166.6132	241.6002	244.4917	319.6756	488.7419	566.1232	629.3408	672.4968	708.5926	728.2027	817.9008	859.5653	897.7668	918.2802	994.8846	1008.1813	1064.8856	1090.3742	1102.6744	1182.302	1196.5287	1212.4174	1229.5101	1257.0372	1275.8578	1313.5698	1333.0044	1353.3464	1370.7533	1418.0524	1477.5875	1486.8354	1490.8994	1500.6923	1505.1454	1529.3366	1618.3777	3032.4266	3032.8248	3048.5286	3069.3154	3081.9615	3090.1049	3111.7965	3126.5661	3131.5046
CC1=C2CCCN2N=N1	Cc1c2CCCn2nn1	
InChI=1S/C6H9N3/c1-5-6-3-2-4-9(6)8-7-5/h2-4H2,1H3	InChI=1S/C6H9N3/c1-5-6-3-2-4-9(6)8-7-5/h2-4H2,1H3
