14
gdb 47221	2.24204	1.71202	1.2017	5.5343	67.58	-0.2836	-0.0303	0.2533	1021.8947	0.101618	-436.727641	-436.719842	-436.718898	-436.76151	27.634	
O	-0.0464395696	 0.51844411	-1.2505686003	-0.310166
C	-0.020007938	 1.3429314881	-0.3839690831	 0.428625
O	-1.1527896627	 1.7357641285	 0.2202794134	-0.222694
C	-1.2028705461	 2.7427443646	 1.2424655728	-0.113315
C	-0.0342395443	 3.6737616055	 1.2610575668	-0.070912
C	 1.1263635063	 3.3531222121	 0.7078491593	-0.070952
C	 1.3085614274	 1.9970094443	 0.0636628904	-0.329285
C	 2.0128507587	 1.0857156309	 0.9757410676	 0.27822
N	 2.5656125701	 0.3925215053	 1.7168373637	-0.309656
H	-2.1328211838	 3.2889760823	 1.0558489459	 0.146624
H	-1.3149417141	 2.2371359794	 2.2115691672	 0.150416
H	-0.1823536653	 4.6259495962	 1.7603925024	 0.125101
H	 1.9822051711	 4.0184470931	 0.7231499604	 0.129998
H	 1.9075738403	 2.0688030696	-0.8501794665	 0.167998
22.7435	113.8958	143.4876	190.1135	384.9586	407.5975	451.2215	490.1874	554.7944	596.1724	685.8213	716.7732	804.2367	895.0849	940.5999	962.3292	994.4588	1026.3508	1034.9179	1117.9165	1155.6383	1245.9544	1260.237	1281.7705	1296.4888	1400.2789	1426.929	1499.04	1743.2497	1856.1751	2357.342	3018.6477	3065.1876	3078.5153	3181.8433	3203.9992
O=C1OCC=CC1C#N	O=C1OCC=C[C@H]1C#N	
InChI=1S/C6H5NO2/c7-4-5-2-1-3-9-6(5)8/h1-2,5H,3H2	InChI=1S/C6H5NO2/c7-4-5-2-1-3-9-6(5)8/h1-2,5H,3H2/t5-/m0/s1
