17
gdb 33031	4.71583	0.87773	0.78662	1.3934	77.89	-0.2461	-0.0507	0.1954	1421.7967	0.137927	-418.050501	-418.042341	-418.041396	-418.084328	29.573	
O	 0.1242755879	 1.4244490807	 0.1913405628	-0.412976
C	 0.0554727771	 0.0117984819	 0.2376470464	-0.055751
C	-1.3427259888	-0.5223915593	-0.1274015394	-0.305914
C	-1.3983218183	-2.0247905865	-0.0720294279	 0.302584
N	-0.7880191241	-2.7010588468	-1.0551365109	-0.290231
C	-0.818129183	-4.0312446664	-0.9794161662	-0.020203
C	-1.4505505375	-4.6995322059	 0.0656575762	-0.012054
N	-2.0619778471	-4.0393780507	 1.050601684	-0.230973
C	-2.0288800767	-2.7096121556	 0.9734687607	-0.057072
H	 0.0269479504	 1.695272412	-0.7272237318	 0.284116
H	 0.8019610711	-0.4598256923	-0.4173859485	 0.109938
H	 0.3001511688	-0.2666058995	 1.2682688304	 0.115464
H	-2.079885444	-0.0819487729	 0.550839395	 0.114442
H	-1.5863452416	-0.1988328039	-1.146417035	 0.111129
H	-0.3263199223	-4.5824651428	-1.7773056785	 0.116113
H	-1.4669371936	-5.7853109672	 0.108677313	 0.117232
H	-2.5260816982	-2.1595250148	 1.7692940296	 0.114155
47.9223	99.2175	105.0771	255.0667	304.8765	345.8106	363.2363	423.4779	523.1155	618.7233	676.685	784.4148	796.7554	855.3824	881.1784	970.1204	994.5096	1016.7542	1024.9777	1043.9747	1076.1491	1083.711	1145.4979	1208.499	1239.1709	1251.7138	1300.988	1315.0446	1343.0648	1394.1652	1414.1509	1436.2006	1479.1117	1506.6921	1511.7083	1579.2103	1616.1927	3005.7589	3036.1149	3072.3313	3098.9639	3153.1364	3154.0351	3173.9796	3816.0925
OCCC1=NC=CN=C1	OCCc1nccnc1	
InChI=1S/C6H8N2O/c9-4-1-6-5-7-2-3-8-6/h2-3,5,9H,1,4H2	InChI=1S/C6H8N2O/c9-4-1-6-5-7-2-3-8-6/h2-3,5,9H,1,4H2
