15
gdb 42946	2.51581	2.14542	1.49879	2.6891	63.48	-0.2449	-0.0449	0.1999	871.1887	0.11408	-457.730861	-457.724443	-457.723499	-457.761643	25.653	
O	-0.0256187856	-0.0060391821	-0.0616776748	-0.312258
C	-0.0039191538	 1.197234776	-0.0016648926	 0.432299
C	-1.2570038854	 2.0526214955	-0.0781679523	-0.075265
O	-1.528923287	 2.8566387751	 1.0862733244	-0.238056
C	-1.0202658374	 3.5079299504	-0.0773422162	 0.042022
C	 0.4636056377	 3.8848298938	-0.0553420466	 0.054865
C	 1.2064461705	 3.16904544	 1.0919159265	-0.267426
C	 1.2808497767	 2.0347256755	 0.0456760438	-0.026204
O	 1.1474840665	 3.0251606476	-1.021239957	-0.296031
H	-2.1279748974	 1.5974128364	-0.5423958856	 0.122838
H	-1.7209604738	 4.1724443469	-0.5775600641	 0.110416
H	 0.6433621976	 4.9436010968	-0.250668372	 0.089411
H	 2.191139679	 3.6059942377	 1.2610520805	 0.121973
H	 0.6791608968	 2.99792808	 2.0281005442	 0.138608
H	 2.1679420157	 1.4068959503	-0.0485027883	 0.102809
119.0464	249.1892	328.191	404.4423	437.4429	463.7688	542.692	601.5793	723.6367	772.3246	803.9263	866.4245	881.7251	900.2593	932.4477	949.5784	966.8149	1006.0603	1054.4595	1083.5176	1100.439	1125.5324	1211.8342	1227.6216	1254.3278	1259.33	1297.5771	1302.1253	1342.0608	1345.2871	1422.537	1482.0702	1835.7895	3092.6197	3101.1179	3116.2062	3142.8712	3158.562	3169.8728
O=C1C2OC2C2CC1O2	O=C1[C@H]2O[C@H]2[C@H]2C[C@@H]1O2	
InChI=1S/C6H6O3/c7-4-2-1-3(8-2)5-6(4)9-5/h2-3,5-6H,1H2	InChI=1S/C6H6O3/c7-4-2-1-3(8-2)5-6(4)9-5/h2-3,5-6H,1H2/t2-,3+,5-,6+/m0/s1
