19
gdb 70331	2.20935	2.06565	1.375	2.1092	73.91	-0.2258	0.0683	0.294	993.7624	0.158381	-422.986708	-422.978585	-422.977641	-423.018635	32.895	
C	-0.0245614671	 1.5198718785	-0.0376797454	-0.479319
C	 0.0407075349	 0.0105487574	-0.0217047246	 0.22773
C	-0.6071449529	-0.7736951154	 1.108289512	-0.379769
C	 0.8915508347	-0.7810865936	 0.9390533806	 0.071822
O	 1.4939700381	-1.8706704252	 0.2762329937	-0.260676
C	 1.196602621	-1.8159682379	-1.0951143389	 0.063026
C	-0.2155053792	-2.12276721	-1.5638178204	-0.395743
C	 0.2453949437	-0.6916570421	-1.3701717386	 0.297072
O	 0.436130588	 0.1213483463	-2.487569883	-0.457644
H	 0.8023879155	 1.9470610828	-0.6106229553	 0.135635
H	-0.9600844301	 1.8742939304	-0.4867380687	 0.109561
H	 0.0186515825	 1.9164675283	 0.9810456627	 0.11387
H	-0.9974184883	-0.187776897	 1.9352289395	 0.109376
H	-1.1675137098	-1.6787393874	 0.9084259135	 0.116194
H	 1.5368964543	-0.3402367424	 1.691957843	 0.098864
H	 2.037473547	-2.0585754837	-1.7354062756	 0.110424
H	-0.2911487717	-2.4453209064	-2.5977174028	 0.115062
H	-0.9274731764	-2.5819114738	-0.8896118413	 0.119295
H	-0.4303570143	 0.339366361	-2.8485236503	 0.285218
139.2645	190.116	247.5787	283.2462	305.0754	326.0561	373.1067	426.9	462.4908	491.0165	590.6402	615.1063	698.9834	799.6734	812.2659	849.6601	886.585	909.3363	946.2965	967.7866	988.712	1003.6572	1025.9961	1032.6534	1069.0534	1088.3378	1104.4093	1126.6459	1168.2142	1194.598	1237.7861	1283.0312	1309.7604	1331.7765	1388.5654	1398.247	1417.4078	1469.6523	1486.7033	1489.755	1501.2873	3029.6117	3091.1955	3119.3605	3129.1216	3136.0672	3161.3287	3175.0949	3218.2188	3230.7623	3792.9458
CC12CC1OC1CC21O	C[C@]12C[C@H]1O[C@H]1C[C@@]21O	
InChI=1S/C7H10O2/c1-6-2-4(6)9-5-3-7(5,6)8/h4-5,8H,2-3H2,1H3	InChI=1S/C7H10O2/c1-6-2-4(6)9-5-3-7(5,6)8/h4-5,8H,2-3H2,1H3/t4-,5+,6+,7+/m1/s1
