17
gdb 36384	2.20129	1.3189	1.05329	2.4709	77.66	-0.253	0.0161	0.2691	1193.7827	0.134361	-380.810426	-380.801252	-380.800308	-380.844981	33.223	
C	-1.7946472762	 1.5129939591	 0.0672703346	-0.448742
C	-1.0195839001	 2.4232025834	-0.0584331368	 0.303663
C	-0.0508552095	 3.5075821314	-0.2005104849	-0.399437
C	 1.3887285022	 3.0038448504	-0.1750841325	 0.026296
C	 2.4865590756	 3.8290810434	 0.4062957185	-0.275189
N	 2.0713718004	 2.5838791774	 1.0471133466	-0.087941
C	 1.4030258505	 2.5769481714	 2.3460147611	-0.266359
C	 0.8923209128	 3.8660872045	 2.8461765842	 0.253574
N	 0.5287945573	 4.900193085	 3.2148283281	-0.322703
H	-2.4932908336	 0.7199659909	 0.1714980744	 0.202227
H	-0.2127748029	 4.0200682846	-1.1576568172	 0.141963
H	-0.2185113645	 4.2594519396	 0.5771197735	 0.163578
H	 1.6228784743	 2.3537993276	-1.0162318707	 0.109799
H	 3.4819582674	 3.8227469261	-0.0290578239	 0.124325
H	 2.1989454009	 4.7676149678	 0.8770625067	 0.139335
H	 0.5736090279	 1.8633342963	 2.3085845432	 0.173858
H	 2.1186948173	 2.2050407311	 3.0882781252	 0.161753
46.4997	88.9868	130.7872	163.1832	226.1975	312.5574	349.2088	373.7195	398.7456	430.7958	543.4738	603.6056	628.6191	647.3893	760.9353	784.0752	882.1784	907.9554	966.0409	968.2561	1002.2303	1073.8265	1088.823	1131.6086	1140.9705	1170.7831	1241.3553	1288.7073	1317.7406	1333.9893	1366.289	1421.9495	1459.7939	1470.0026	1512.8875	2237.2425	2345.0619	3029.9886	3044.1856	3081.3475	3090.4771	3099.7761	3123.9234	3187.378	3504.3066
C#CCC1CN1CC#N	C#CC[C@H]1CN1CC#N	
InChI=1S/C7H8N2/c1-2-3-7-6-9(7)5-4-8/h1,7H,3,5-6H2	InChI=1S/C7H8N2/c1-2-3-7-6-9(7)5-4-8/h1,7H,3,5-6H2/t7-,9?/m0/s1
