21
gdb 63435	4.5885	0.73756	0.71308	4.2093	81.43	-0.2747	0.0115	0.2862	1648.2704	0.180253	-424.250264	-424.2405	-424.239555	-424.285516	35.918	
C	-0.2250316078	 1.4497705921	 0.0115114771	-0.437274
C	 0.0067535699	-0.0637677493	 0.0431113065	 0.340058
C	-1.2753254347	-0.8188188281	-0.2908002619	-0.449116
C	 1.2800201797	-0.4840755869	-0.7658921206	-0.294628
C	 2.0771291952	-0.4889068343	 0.5537595185	 0.148975
C	 0.7525536198	-0.5208410676	 1.3420419321	-0.294627
O	 2.93439979	-1.6120589661	 0.7486759643	-0.186931
C	 4.2215893492	-1.3979530181	 1.0746275948	 0.160546
O	 5.0018229541	-2.2840158988	 1.2543582041	-0.277259
H	 0.6857892676	 2.0099094382	 0.2492695605	 0.110729
H	-0.5622520266	 1.7722631907	-0.9799693493	 0.116993
H	-0.9920970384	 1.7423022554	 0.7373155919	 0.116992
H	-1.6408526864	-0.5518335752	-1.2892983574	 0.115701
H	-1.1168638599	-1.9018168276	-0.2702720688	 0.114617
H	-2.0698482909	-0.5820894954	 0.4265463338	 0.115706
H	 1.1953128858	-1.5009030633	-1.1583313124	 0.117332
H	 1.6225511527	 0.1812363942	-1.562663498	 0.100983
H	 2.6458938077	 0.4338507003	 0.7121896898	 0.087865
H	 0.6741496635	 0.1151602202	 2.2275762257	 0.100982
H	 0.5013586368	-1.5492441535	 1.6148159184	 0.11733
H	 4.4696873428	-0.3207574869	 1.1556256709	 0.075026
43.2882	65.8043	150.1793	219.3442	246.4532	250.5755	296.0486	297.7641	322.5776	400.671	429.1902	447.0138	551.4818	663.9231	792.2066	832.3536	865.2572	921.0399	949.0259	962.7149	973.0054	1004.0857	1045.0266	1052.3155	1070.2782	1090.1847	1167.4835	1200.2097	1218.5712	1235.9528	1238.0723	1280.8382	1305.1409	1310.2979	1386.7875	1405.625	1423.3203	1444.6218	1468.9837	1482.9531	1485.1841	1499.3288	1503.9604	1506.1548	1864.9712	2938.3713	3020.3927	3025.075	3042.4412	3057.5567	3062.8277	3085.5018	3092.0965	3092.831	3097.6305	3117.0085	3119.8779
CC1(C)CC(C1)OC=O	CC1(C)CC(C1)OC=O	
InChI=1S/C7H12O2/c1-7(2)3-6(4-7)9-5-8/h5-6H,3-4H2,1-2H3	InChI=1S/C7H12O2/c1-7(2)3-6(4-7)9-5-8/h5-6H,3-4H2,1-2H3
