16
gdb 131385	3.32593	1.36986	1.04307	2.8448	71.51	-0.2121	0.0208	0.2329	1107.7497	0.127104	-434.057961	-434.050203	-434.049259	-434.090455	29.468	
O	-1.0829306896	 0.8597539484	 0.3522574553	-0.437398
C	-0.3700288945	-0.2801301257	 0.1845985507	 0.329001
N	 0.0112055161	-0.6936123715	-1.0109295122	-0.324076
N	 0.6728697432	-1.848869254	-0.7523759596	-0.20336
C	 0.6996896272	-2.1524557542	 0.5655760226	-0.124234
C	 0.0298350348	-1.1457819042	 1.2363796702	 0.168747
C	-0.2153861639	-1.030422783	 2.6870591569	-0.115006
C	-0.2370561869	 0.2896742967	 3.3783115978	-0.248749
N	-1.483153664	-0.4730745909	 3.2090186922	-0.331417
H	-1.2350721381	 1.2351793675	-0.5242726818	 0.30646
H	 1.0625717752	-2.3682394902	-1.5183442238	 0.276946
H	 1.1840812129	-3.0427038882	 0.9357958503	 0.138481
H	 0.1343160567	-1.8870494552	 3.2589060888	 0.083038
H	 0.1224391272	 0.3645765768	 4.4012271795	 0.113523
H	-0.0890083158	 1.1768818665	 2.7704184541	 0.125222
H	-2.0080335505	-0.0713295289	 2.4350753889	 0.242822
69.4586	165.8223	174.211	308.3044	360.3948	372.8879	392.5827	451.7862	480.8999	650.1314	659.5798	729.805	740.6823	797.3625	822.4406	886.9176	941.6516	970.0217	1000.0579	1080.5819	1097.404	1132.853	1152.5216	1186.6821	1247.0125	1253.6175	1291.4236	1296.3646	1315.4706	1407.8662	1463.7594	1492.8894	1506.919	1558.112	1642.6892	3111.2229	3127.509	3203.2909	3257.1139	3502.1308	3696.4171	3793.2435
OC1=NNC=C1C1CN1	Oc1n[nH]cc1[C@H]1CN1	
InChI=1S/C5H7N3O/c9-5-3(1-7-8-5)4-2-6-4/h1,4,6H,2H2,(H2,7,8,9)	InChI=1S/C5H7N3O/c9-5-3(1-7-8-5)4-2-6-4/h1,4,6H,2H2,(H2,7,8,9)/t4-/m1/s1
