18
gdb 62433	3.63562	1.21139	1.18089	4.5073	82.17	-0.2466	-0.0074	0.2392	1110.8512	0.148707	-364.830791	-364.822802	-364.821858	-364.862995	31.035	
C	-0.0875378679	 1.5599660575	 0.0562194985	-0.468752
C	 0.0366950759	 0.0471387671	-0.0091156755	 0.138197
C	-1.1112770988	-0.6428974748	 0.5287894577	 0.239871
N	-2.0330435854	-1.1898891611	 0.9659253911	-0.349516
C	 0.7115302158	-0.6900003484	-1.1649286239	-0.082059
C	 1.6331401616	 0.1001875035	-2.0960190354	-0.293692
C	 2.7704461583	 0.5302026105	-1.1933774312	-0.075971
C	 2.6224373131	 0.0705105443	 0.0523986616	-0.086882
C	 1.3668973654	-0.7166412198	 0.1987417838	-0.105428
H	 0.8424016253	 2.0454259564	-0.2422192992	 0.134313
H	-0.8891229255	 1.906835128	-0.6032590695	 0.134599
H	-0.3275209621	 1.8798336884	 1.07426068	 0.137434
H	 0.1951842006	-1.5583095503	-1.5544848716	 0.112173
H	 1.987255533	-0.5330314346	-2.9193870373	 0.121488
H	 1.1310202216	 0.956551143	-2.5647579262	 0.12088
H	 3.5827249729	 1.1590850643	-1.5394155423	 0.105305
H	 3.3027031171	 0.2466055425	 0.8769454847	 0.105572
H	 1.3330788192	-1.5845865164	 0.8466563548	 0.11247
136.2666	155.988	178.9135	235.6214	247.6167	348.582	410.8568	476.5402	558.5627	570.4869	652.1124	701.6014	757.4069	796.0041	842.3853	867.6186	933.2595	947.63	963.9085	984.4114	1003.2485	1007.332	1072.6953	1094.4826	1109.0003	1132.99	1177.4797	1209.6586	1285.8738	1299.2394	1312.1908	1368.4188	1388.1988	1416.7598	1472.1002	1495.2246	1500.6991	1662.7065	2343.2015	3023.1831	3047.4979	3048.6665	3109.9826	3142.5598	3180.7068	3192.3198	3194.1214	3218.3419
CC1(C#N)C2CC=CC12	C[C@@]1(C#N)[C@H]2CC=C[C@@H]12	
InChI=1S/C8H9N/c1-8(5-9)6-3-2-4-7(6)8/h2-3,6-7H,4H2,1H3	InChI=1S/C8H9N/c1-8(5-9)6-3-2-4-7(6)8/h2-3,6-7H,4H2,1H3/t6-,7+,8+/m1/s1
