21
gdb 102473	2.18946	1.05023	0.80531	2.6731	76.33	-0.253	-0.0307	0.2223	1502.1635	0.178777	-461.36657	-461.355572	-461.354628	-461.403545	38.194	
C	-0.0492159854	 0.9399310824	 0.9869264861	-0.389164
C	-0.0117175418	-0.4260714183	 0.2983561575	-0.193683
C	 0.5031929256	-0.3422905176	-1.1500145356	 0.034727
O	 1.8210256544	 0.1377096141	-1.0994497796	-0.226446
C	 2.3779003939	 0.4707351346	-2.3555797393	-0.244627
C	 0.4076680086	-1.7239824647	-1.8063767901	 0.332745
O	 1.3442153345	-2.4915705945	-1.8516755874	-0.323747
C	-0.9206947673	-2.1394842004	-2.4302642976	-0.134895
O	-0.8801626209	-3.4636962945	-2.8671991662	-0.419518
H	 0.9420197112	 1.3980355656	 0.9837164591	 0.141675
H	-0.740597204	 1.6207234687	 0.4780151982	 0.112792
H	-0.3809510919	 0.8398856258	 2.0244740024	 0.117369
H	 0.6502143975	-1.1097071085	 0.8415076489	 0.127634
H	-1.0102143386	-0.877052143	 0.2979457942	 0.104915
H	-0.1402291147	 0.3525343731	-1.7218750224	 0.069351
H	 2.4989794368	-0.4107241263	-2.9974546831	 0.12621
H	 1.7623790908	 1.2165066594	-2.8824334291	 0.10316
H	 3.3621429519	 0.9018920982	-2.1605988073	 0.133922
H	-1.7350120982	-1.9879155665	-1.7048206206	 0.118961
H	-1.12084401	-1.4404978239	-3.2627146785	 0.11431
H	 0.0412480377	-3.7412097734	-2.7344068196	 0.294309
47.1061	83.1488	91.2636	109.327	175.9523	188.2461	198.9686	248.57	264.1553	314.102	358.0248	428.0474	448.7708	487.2822	565.2045	724.9356	768.1956	871.1922	919.8593	951.9446	990.5276	1036.7252	1055.8246	1111.1969	1139.9428	1150.4759	1172.2482	1184.8129	1236.2121	1240.6474	1285.6609	1311.8602	1317.5434	1371.5724	1388.2497	1407.0037	1452.5436	1475.973	1482.2172	1489.4866	1491.2097	1494.8877	1508.4653	1509.8899	1798.776	2929.487	2952.3579	2984.5071	2999.489	3039.4321	3042.658	3056.3457	3082.5264	3106.5778	3123.7822	3134.9168	3673.5775
CCC(OC)C(=O)CO	CC[C@@H](OC)C(=O)CO	
InChI=1S/C6H12O3/c1-3-6(9-2)5(8)4-7/h6-7H,3-4H2,1-2H3	InChI=1S/C6H12O3/c1-3-6(9-2)5(8)4-7/h6-7H,3-4H2,1-2H3/t6-/m1/s1
