18
gdb 110429	2.70189	1.66653	1.26257	4.0163	74.71	-0.2423	0.0017	0.244	1038.4265	0.147715	-401.903558	-401.895739	-401.894795	-401.936176	30.01	
C	-0.2696747146	 1.4777974586	-0.1169153104	-0.378114
C	-0.0220531027	-0.0292373777	 0.0180881436	-0.21631
C	 0.7329345242	-0.6031605663	-1.168861822	 0.04335
C	 0.8581289881	-2.1112192896	-1.4152916047	-0.108945
C	 0.6817425092	-1.8732050691	-2.8635421413	-0.028273
C	-0.4658378212	-2.5393183331	-2.1135028026	-0.224513
C	-1.2000209603	-1.2593221498	-2.3024397584	 0.439283
O	-2.3295103466	-0.8942444298	-2.3869414447	-0.324765
N	 0.0634599412	-0.5015967225	-2.5501545917	-0.234087
H	 0.6730888176	 2.0269743763	-0.2147313895	 0.114144
H	-0.8757505763	 1.69247964	-1.0010758913	 0.150075
H	-0.7952510227	 1.8663724211	 0.7599310055	 0.114851
H	 0.5690280677	-0.2375705386	 0.9192884353	 0.098362
H	-0.9762025683	-0.5527564764	 0.1474674362	 0.116191
H	 1.7154429865	-0.128089398	-1.2607440109	 0.090702
H	 1.4690820358	-2.8564687093	-0.9182727621	 0.104568
H	 1.1775783536	-2.1456770265	-3.7819390722	 0.124717
H	-0.8034726713	-3.5664431392	-2.1327628888	 0.118764
69.8442	139.1185	170.7339	206.5501	281.9692	407.491	454.7619	542.54	635.1311	722.018	768.2952	801.6625	814.1825	827.7039	840.9509	869.1558	897.0649	924.9977	942.6492	985.2685	1021.6082	1022.7576	1033.0678	1085.2693	1099.5533	1115.5859	1168.7961	1179.8846	1255.3741	1273.6343	1294.1125	1338.6533	1349.6996	1410.476	1417.9793	1486.8693	1498.8135	1507.8612	1917.5662	3026.7495	3039.476	3048.8533	3070.0608	3107.1665	3124.4595	3177.8238	3216.5462	3248.721
CCC1C2C3C2C(=O)N13	CC[C@H]1[C@@H]2[C@H]3[C@@H]2C(=O)N13	
InChI=1S/C7H9NO/c1-2-3-4-5-6(4)8(3)7(5)9/h3-6H,2H2,1H3	InChI=1S/C7H9NO/c1-2-3-4-5-6(4)8(3)7(5)9/h3-6H,2H2,1H3/t3-,4-,5+,6-/m0/s1
