17
gdb 81651	2.96906	1.62658	1.33284	2.4451	74.63	-0.2211	-0.0503	0.1707	984.99	0.137549	-421.800758	-421.793533	-421.792589	-421.832012	29.058	
O	-0.0650888798	 1.4213835917	-0.0425187651	-0.435611
C	 0.0489643055	 0.0196226494	-0.0316748539	 0.103729
C	 0.2060475481	-0.6053024888	 1.3847965033	-0.011547
O	-1.2388136528	-0.7070660091	 1.4889109983	-0.279581
C	-1.3610456383	-0.6047519016	 0.0421078152	 0.024075
C	-1.4855153703	-1.9665143781	-0.5960747953	-0.078006
C	-0.6910478421	-3.0029713154	-0.2890923511	-0.074769
C	 0.4321255918	-2.9997297162	 0.6558278164	-0.079177
C	 0.86037234	-1.9641896239	 1.3944225602	-0.073974
H	 0.8011161279	 1.7968039461	 0.1477049674	 0.285296
H	 0.722732861	-0.352782938	-0.811581478	 0.081094
H	 0.6123673261	 0.0575225854	 2.1555914865	 0.073145
H	-2.1739267242	 0.0685898797	-0.2413139788	 0.087394
H	-2.2779840021	-2.1032157895	-1.3259069277	 0.096428
H	-0.8749697887	-3.9508879648	-0.7881012966	 0.094292
H	 0.9634245998	-3.9435164302	 0.7478718336	 0.094101
H	 1.7180774281	-2.0996704466	 2.0471818755	 0.093113
167.652	224.3553	268.9843	291.4119	303.8992	400.7586	458.0738	462.6462	596.1595	667.2057	701.4542	788.151	846.8548	864.0033	898.1667	923.3304	933.6146	968.6462	986.192	996.8996	1008.2815	1011.8464	1082.5958	1121.0846	1185.4975	1201.6756	1236.3049	1239.2099	1282.1909	1309.931	1320.981	1349.5707	1403.1539	1427.0325	1442.4581	1658.2974	1698.8531	3038.2301	3057.6282	3083.6868	3147.9181	3158.4405	3173.7328	3181.7347	3808.3042
OC1C2OC1C=CC=C2	O[C@H]1[C@H]2O[C@@H]1C=CC=C2	
InChI=1S/C7H8O2/c8-7-5-3-1-2-4-6(7)9-5/h1-8H	InChI=1S/C7H8O2/c8-7-5-3-1-2-4-6(7)9-5/h1-8H/t5-,6+,7-
