19
gdb 69357	3.55446	1.14813	1.03084	3.5106	76.33	-0.2377	-0.0219	0.2158	1217.2493	0.15608	-423.00877	-422.99956	-422.998616	-423.042512	34.329	
C	 0.1744233345	 1.6172792687	 0.0662052644	-0.502324
C	-0.0246682876	 0.1395630023	 0.1354424586	 0.430958
C	-1.317823834	-0.6670283318	-0.0781434323	-0.35508
C	-0.7532065748	-1.7797056731	 0.8996525477	 0.197354
C	-1.5249098352	-1.9018450966	 2.2060597718	-0.459653
C	-0.5171361615	-3.1197013448	 0.2402439384	 0.118096
O	-0.9728289741	-4.1645879196	 0.6364385545	-0.261367
C	 0.5297570633	-0.9087630261	 1.0089003054	-0.094714
O	 1.0460500504	-0.711281316	-0.3114075259	-0.284478
H	 1.1766999859	 1.8834091952	 0.4119694257	 0.138648
H	 0.0625720601	 1.9752565347	-0.9635114934	 0.135439
H	-0.5627242865	 2.1382459062	 0.6852695307	 0.127855
H	-2.2134593832	-0.1992750763	 0.3372111293	 0.116895
H	-1.506029662	-0.9621173425	-1.1138741254	 0.114991
H	-2.5106498026	-2.3407174819	 2.0308259905	 0.136121
H	-0.9985865021	-2.5535155278	 2.909527758	 0.131108
H	-1.6574288385	-0.9214429142	 2.6747370872	 0.109372
H	 0.1244191959	-3.074263095	-0.6640494535	 0.095927
H	 1.232540132	-0.8676673214	 1.8349030183	 0.104852
78.3145	116.0977	194.1112	201.2671	231.3855	253.7312	300.8789	325.4233	385.0226	424.8386	449.3383	536.0975	658.8573	730.8708	784.4081	839.0172	872.6811	885.7172	929.9993	956.2863	1002.4949	1014.5009	1048.9067	1059.8136	1142.834	1151.4768	1164.9599	1202.5257	1257.021	1270.2602	1294.4295	1404.2248	1405.4448	1421.7188	1455.0684	1474.701	1484.593	1486.3354	1492.2264	1497.4979	1815.1248	2924.5123	3035.5777	3040.3605	3062.403	3098.6149	3110.2476	3120.8996	3122.1485	3123.8491	3172.1914
CC12CC(C)(C=O)C1O2	C[C@]12C[C@@](C)(C=O)[C@H]1O2	
InChI=1S/C7H10O2/c1-6(4-8)3-7(2)5(6)9-7/h4-5H,3H2,1-2H3	InChI=1S/C7H10O2/c1-6(4-8)3-7(2)5(6)9-7/h4-5H,3H2,1-2H3/t5-,6+,7+/m1/s1
