20
gdb 124563	4.05775	0.8881	0.84704	3.8855	81.	-0.2487	0.0016	0.2503	1448.507	0.171609	-399.343457	-399.334322	-399.333377	-399.378321	33.506	
C	 0.0369580194	 1.5253153099	-0.0757878491	-0.394599
C	 0.0630355143	 0.0023374417	 0.0989016205	 0.055516
C	 0.7237549928	-0.3896511684	 1.4259211794	-0.386244
C	-1.365991973	-0.5766351745	-0.0241052989	-0.305375
C	-1.4134332728	-2.0706075171	-0.0873325846	 0.32486
C	-1.9004603924	-2.9897703435	 0.8137874884	-0.179731
N	-1.6714053498	-4.187344316	 0.2232599522	-0.149996
N	-1.0782503024	-4.0396444531	-0.9743141358	-0.114196
N	-0.9222318505	-2.7619397296	-1.1623556836	-0.248835
H	 1.0463932676	 1.9456250967	-0.0209486369	 0.111017
H	-0.3934726407	 1.8099339064	-1.041668851	 0.112457
H	-0.5624166423	 2.0012926615	 0.710171376	 0.108153
H	 0.6526730776	-0.430172312	-0.7191837618	 0.099634
H	 0.7570319799	-1.475689482	 1.5532825506	 0.115962
H	 1.7509261512	-0.0145969285	 1.4782714752	 0.112593
H	 0.1737128987	 0.0323233782	 2.2767195677	 0.103598
H	-1.9743944644	-0.2286474763	 0.8200220247	 0.09394
H	-1.8290610612	-0.1753068463	-0.9333021263	 0.115898
H	-2.3709605422	-2.8946094985	 1.7778081725	 0.143796
H	-1.8873483899	-5.1131052486	 0.5564262506	 0.281553
38.9547	70.4432	111.7969	221.9864	247.1102	292.6732	317.6895	340.8762	415.229	428.6405	566.8559	675.9739	721.8873	763.3246	790.701	831.3753	885.932	931.1252	953.0918	967.4938	988.3102	1038.1547	1050.914	1103.0407	1132.6482	1138.0519	1191.4518	1240.5789	1268.2222	1304.1134	1329.725	1347.943	1373.2391	1380.1113	1400.8145	1421.1505	1473.0715	1486.9859	1488.6674	1494.2739	1503.6861	1509.7501	1590.9296	3020.8976	3022.798	3023.6395	3034.8346	3067.1251	3085.854	3093.4862	3100.1181	3107.652	3282.7562	3659.6187
CC(C)CC1=CNN=N1	CC(C)Cc1c[nH]nn1	
InChI=1S/C6H11N3/c1-5(2)3-6-4-7-9-8-6/h4-5H,3H2,1-2H3,(H,7,8,9)	InChI=1S/C6H11N3/c1-5(2)3-6-4-7-9-8-6/h4-5H,3H2,1-2H3,(H,7,8,9)
