17
gdb 126880	4.58798	0.9895	0.85919	2.087	83.56	-0.2159	-0.0773	0.1386	1352.7652	0.13764	-414.191087	-414.182778	-414.181834	-414.225292	30.053	
C	-0.0270202259	 1.5954357334	 0.0237547735	-0.357537
C	-0.0373196334	 0.0641852059	-0.0108806753	-0.136752
N	-1.3998292056	-0.4337016819	-0.1052095976	-0.344076
C	-1.7519217634	-1.1384982412	-1.1007776054	 0.466859
N	-3.0967307552	-1.5769824348	-1.1308988673	-0.254295
N	-3.6690045387	-2.3189931566	-2.0608199746	-0.128042
C	-2.9073133289	-2.6800989389	-3.0554227434	-0.042064
C	-1.5314511374	-2.2711098506	-3.0989992241	 0.0102
N	-0.9693985797	-1.54546662	-2.1888558416	-0.294106
H	 0.9902459972	 1.9708394137	 0.1760334054	 0.105193
H	-0.4061270603	 2.0077763696	-0.916870264	 0.112497
H	-0.6604759688	 1.9675964713	 0.8343668581	 0.11907
H	 0.598684052	-0.2979667036	-0.8276035222	 0.111567
H	 0.3894446208	-0.3124525948	 0.9285871782	 0.096994
H	-3.6832454793	-1.2948315343	-0.3573607789	 0.278767
H	-3.3582250274	-3.2891538414	-3.8282588778	 0.130046
H	-0.913956306	-2.5824457558	-3.9428416729	 0.12568
30.9714	83.2581	137.1544	194.6949	278.8495	384.0574	387.8349	472.6175	496.0814	606.7994	648.5018	711.1334	780.6742	793.3648	828.7468	845.1223	917.6659	995.3286	1014.0693	1020.1983	1069.89	1113.8118	1157.0581	1203.4464	1209.9633	1304.5939	1377.9111	1390.8046	1403.167	1413.0173	1437.3505	1488.8467	1494.2064	1510.5916	1564.9613	1658.9663	1742.1932	3007.3988	3034.6965	3051.0812	3105.3391	3114.0359	3119.4748	3217.2745	3599.7314
CCN=C1NN=CC=N1	CC[N]c1[nH]nccn1	
InChI=1S/C5H8N4/c1-2-6-5-7-3-4-8-9-5/h3-4H,2H2,1H3,(H,6,7,9)	InChI=1S/C5H13N4/c1-2-6-5-7-3-4-8-9-5/h5,7-9H,2-4H2,1H3
