21
gdb 123084	4.84476	0.53758	0.50341	2.0513	77.05	-0.2517	-0.0168	0.2349	2179.5313	0.178903	-461.371987	-461.360837	-461.359892	-461.410648	37.751	
C	 0.0572414688	 1.4675546557	-0.1761535473	-0.473123
C	 0.0385145737	-0.0396753561	 0.0006592697	 0.379274
O	 0.0400473467	-0.5576866998	 1.0947980361	-0.291099
C	 0.0170900871	-0.8685931151	-1.274967518	-0.31781
C	 0.0114552196	-2.366511516	-1.0110477334	-0.049038
O	-0.0227163759	-3.028885541	-2.2600003884	-0.267076
C	-0.0146317013	-4.4417634367	-2.1562192046	-0.071267
C	 0.0934095404	-4.9825372753	-3.5731966781	-0.058697
O	 1.2691369166	-4.5231502092	-4.2099353321	-0.421353
H	 0.938316725	 1.7730881538	-0.7515891597	 0.140255
H	-0.8207564656	 1.7966339707	-0.7432518719	 0.140089
H	 0.0685720766	 1.9544857109	 0.7994973658	 0.144915
H	-0.8626426653	-0.5870359544	-1.86845187	 0.13104
H	 0.8830518349	-0.5957535667	-1.8924294614	 0.126983
H	 0.9044641047	-2.6577623888	-0.4384773716	 0.106993
H	-0.8611691891	-2.6419639837	-0.4009311928	 0.106442
H	 0.8496663575	-4.7740802561	-1.5594378814	 0.097576
H	-0.9319566846	-4.8053826946	-1.6649205309	 0.089332
H	 0.1400168813	-6.0761784619	-3.5500627624	 0.108424
H	-0.8088279868	-4.6941318356	-4.1363200162	 0.091621
H	 1.2897336756	-3.5713992801	-4.0550846914	 0.286518
29.7545	45.4557	77.1877	94.9217	116.8138	125.5069	171.2419	232.0733	299.61	354.6659	439.1727	455.0136	480.6632	537.2656	605.2295	763.8936	825.1962	882.6731	907.5175	939.1205	943.4589	1049.3914	1081.3576	1103.108	1120.3843	1141.8561	1151.4561	1186.9417	1220.4299	1239.7494	1263.9776	1301.3284	1333.72	1383.177	1385.5412	1389.6108	1436.2696	1445.1684	1458.1656	1467.7938	1477.2168	1500.0406	1503.9632	1525.4866	1807.8561	2967.3987	2976.7656	2993.6041	3010.4649	3022.3175	3028.2619	3039.1451	3063.7045	3079.8035	3098.5164	3153.7815	3795.2623
CC(=O)CCOCCO	CC(=O)CCOCCO	
InChI=1S/C6H12O3/c1-6(8)2-4-9-5-3-7/h7H,2-5H2,1H3	InChI=1S/C6H12O3/c1-6(8)2-4-9-5-3-7/h7H,2-5H2,1H3
