19
gdb 120344	4.04576	0.99329	0.88342	2.6382	77.18	-0.2465	-0.0081	0.2385	1366.9617	0.158433	-422.995331	-422.986756	-422.985812	-423.029396	31.702	
C	 0.0687359343	 1.5198993215	 0.0142549657	-0.384074
C	-0.0909618224	 0.0132843497	-0.0985558247	-0.034575
O	 0.7728010409	-0.4475199086	-1.1213887342	-0.254629
C	 0.7863229103	-1.8493651138	-1.2887303998	 0.096687
C	-0.3993179116	-2.4213472992	-2.0644510382	-0.117884
C	-0.0093310576	-3.155136223	-3.1071662771	-0.080174
C	 1.4836599395	-3.1205536213	-3.2321014029	-0.008394
O	 1.978342264	-1.7848971969	-3.4758882138	-0.244582
C	 1.9825831906	-2.2796938157	-2.1374305586	 0.001054
H	 1.1039805862	 1.777982457	 0.2540800448	 0.127816
H	-0.1940858169	 2.003728696	-0.9304445807	 0.131976
H	-0.5813992938	 1.914198343	 0.8010355635	 0.113363
H	 0.1612822636	-0.4773523747	 0.8571963752	 0.084846
H	-1.1385474146	-0.2423769957	-0.3246772325	 0.088288
H	 0.8592515707	-2.3366283633	-0.2992829752	 0.070026
H	-1.4259145947	-2.2094071079	-1.7897428426	 0.106513
H	-0.6563168527	-3.668562025	-3.8081930381	 0.106388
H	 2.0559690376	-3.9230615206	-3.6865413669	 0.099336
H	 2.9607618265	-2.3929138218	-1.6794533738	 0.098019
60.024	79.1612	109.2659	216.2087	250.289	291.3213	354.7375	439.0065	489.2346	599.6683	713.3385	748.7763	820.2746	827.75	835.1807	869.9548	907.9518	928.1607	948.9878	981.9767	1004.8701	1051.3062	1063.5245	1105.042	1123.0403	1147.2749	1164.2399	1187.1684	1255.4635	1295.7751	1300.239	1310.5667	1344.4293	1376.2451	1401.7805	1420.4751	1437.2544	1482.5981	1499.8169	1527.9317	1667.1452	2935.3704	2957.1333	2987.204	3045.9851	3120.1811	3124.5497	3155.3493	3169.9747	3193.2199	3217.6229
CCOC1C=CC2OC12	CCO[C@H]1C=C[C@H]2O[C@@H]12	
InChI=1S/C7H10O2/c1-2-8-5-3-4-6-7(5)9-6/h3-7H,2H2,1H3	InChI=1S/C7H10O2/c1-2-8-5-3-4-6-7(5)9-6/h3-7H,2H2,1H3/t5-,6+,7-/m0/s1
