16
gdb 17998	3.58827	1.89219	1.6905	3.1913	64.01	-0.2457	-0.0187	0.227	820.7101	0.13045	-383.70956	-383.702505	-383.701561	-383.74157	25.744	
O	-0.8489514475	 1.4146009376	-0.3655746871	-0.246262
C	 0.0860673581	 1.258193367	 0.3774934239	 0.164029
C	 1.4400324123	 1.892366336	 0.1929228054	-0.117479
C	 1.5884378435	 2.9594221383	-0.9274361966	-0.260403
C	 1.9206555715	 4.0389883013	 0.1373507588	-0.072049
C	 0.6916798462	 4.6870164275	 0.8054547786	-0.081445
O	 0.6137102371	 3.6307101076	 1.7997898027	-0.283142
C	 1.7794936355	 2.9827754991	 1.2663283128	 0.102506
H	-0.0023276553	 0.6192012157	 1.284732845	 0.079444
H	 2.1963896665	 1.0989361701	 0.167058103	 0.094791
H	 2.4128782987	 2.755142206	-1.6129169713	 0.107668
H	 0.6781264102	 3.1270779402	-1.5070318751	 0.127182
H	 2.8016380165	 4.6605835732	-0.0134317964	 0.081623
H	 0.8777798743	 5.6569963565	 1.281625032	 0.106997
H	-0.2167941567	 4.7496886371	 0.1953296273	 0.116902
H	 2.519180229	 2.7447518469	 2.034628637	 0.079638
53.902	109.2091	196.7243	244.0505	355.5391	473.2556	622.7525	668.8149	765.8451	799.8281	845.2778	897.5208	910.7549	935.1161	950.2127	997.3429	1018.8052	1057.0819	1089.2698	1100.4211	1143.8117	1158.3246	1173.5016	1219.6584	1232.4592	1268.1043	1294.5019	1318.8611	1333.6828	1360.9815	1423.0276	1479.9654	1517.4914	1825.3884	2879.9395	3020.3246	3043.0722	3069.0065	3073.8636	3079.3217	3121.7197	3132.0965
O=CC1CC2COC12	O=C[C@H]1C[C@H]2CO[C@@H]12	
InChI=1S/C6H8O2/c7-2-4-1-5-3-8-6(4)5/h2,4-6H,1,3H2	InChI=1S/C6H8O2/c7-2-4-1-5-3-8-6(4)5/h2,4-6H,1,3H2/t4-,5+,6+/m1/s1
