15
gdb 56950	2.24872	1.25538	0.97598	5.7844	70.27	-0.3059	-0.0057	0.3003	1209.0362	0.111941	-416.809549	-416.800657	-416.799712	-416.844014	31.454	
O	-0.4500281799	 1.1586811161	 0.0874053756	-0.405632
C	 0.0959125668	-0.1259726451	-0.1408054559	-0.037304
C	 0.9623077477	-0.1303827141	-1.3388944882	 0.259123
N	 1.6687646582	-0.0927533911	-2.2521641521	-0.308634
C	 0.8620883927	-0.6611706026	 1.0598033603	-0.025355
C	 0.1068490358	-1.084932328	 2.2796105917	-0.302733
C	 0.8007740936	-2.1389767767	 1.4312466488	-0.165149
C	 0.0038614661	-3.0484706537	 0.6550400121	 0.290917
N	-0.6478643141	-3.7724005271	 0.0308239453	-0.330528
H	 0.2727325595	 1.7917812899	 0.1695146886	 0.297682
H	-0.7624020242	-0.7756300073	-0.3427105336	 0.160554
H	 1.8339364566	-0.2006663095	 1.2111779275	 0.121525
H	 0.530853891	-0.8756066303	 3.2542228712	 0.141499
H	-0.9756920062	-1.0532767198	 2.2363900394	 0.156386
H	 1.7139762265	-2.5745360706	 1.8211777991	 0.147647
41.5458	101.8756	136.089	203.8045	227.8506	268.9481	300.852	356.2615	434.2727	523.7143	560.7917	582.521	652.4645	777.1942	831.9242	852.6175	930.1136	972.9454	1011.9502	1066.1558	1082.5177	1116.9322	1124.8735	1161.1429	1219.4704	1272.9923	1306.0428	1374.4306	1417.9821	1422.4988	1489.5451	2355.1678	2358.9685	3071.1173	3149.9388	3157.5563	3178.4805	3241.5383	3801.4717
OC(C#N)C1CC1C#N	O[C@@H](C#N)[C@H]1C[C@H]1C#N	
InChI=1S/C6H6N2O/c7-2-4-1-5(4)6(9)3-8/h4-6,9H,1H2	InChI=1S/C6H6N2O/c7-2-4-1-5(4)6(9)3-8/h4-6,9H,1H2/t4-,5-,6-/m0/s1
