23
gdb 113090	2.31256	1.19944	0.87417	1.3065	88.44	-0.2291	0.018	0.2471	1440.0869	0.204797	-388.310375	-388.300467	-388.299523	-388.34573	36.709	
C	-0.0902852844	 1.5221470609	-0.3026377876	-0.380812
C	-0.0490926046	-0.0036301484	-0.1911153667	-0.174645
C	-1.4208898748	-0.6125744813	 0.1227848352	 0.092681
O	-2.3574010206	-0.291554864	-0.9129265512	-0.28963
C	-3.0078510598	-1.4702461041	-1.4032167626	 0.092683
C	-2.8983135519	-1.5435342036	-2.9309014962	-0.174647
C	-3.5495486481	-0.3474783834	-3.6290953994	-0.380811
C	-2.33408718	-2.5983328265	-0.6679770681	-0.10879
C	-1.4427852392	-2.1166508931	 0.1890115476	-0.108784
H	 0.8961674351	 1.927919285	-0.546515035	 0.107761
H	-0.7912478324	 1.8296144837	-1.0830023408	 0.134453
H	-0.4163441869	 1.9779859157	 0.6391553014	 0.110691
H	 0.3168983714	-0.4444842188	-1.1259392799	 0.097396
H	 0.6495268913	-0.3053720135	 0.600362241	 0.089106
H	-1.7820132098	-0.1752432134	 1.0716695631	 0.073466
H	-4.0796309221	-1.4169742134	-1.1376999233	 0.073463
H	-1.8365386705	-1.6083697728	-3.1966606621	 0.097396
H	-3.3695437796	-2.4775227597	-3.2643101128	 0.089107
H	-3.4393851277	-0.4153294174	-4.7155928115	 0.107762
H	-4.6207685853	-0.2943300049	-3.403838097	 0.110692
H	-3.0909650832	 0.5866560425	-3.2945087264	 0.134452
H	-2.5768734654	-3.6393893562	-0.8415467877	 0.103504
H	-0.8082788916	-2.6835930631	 0.8589740402	 0.103504
55.343	88.8741	93.2276	168.8841	209.284	216.9226	245.7703	309.531	382.7971	434.7738	435.9276	537.8878	677.3994	753.2906	761.1443	794.9744	828.8353	872.1892	883.0766	932.8579	954.1629	977.1024	1010.6173	1016.9001	1054.9416	1073.9491	1102.2777	1133.3134	1133.3955	1145.4665	1149.8355	1282.8321	1284.8875	1290.7574	1308.7509	1342.1023	1358.7255	1373.0417	1389.103	1392.6369	1405.1663	1408.8799	1471.8541	1476.3531	1495.8852	1497.4524	1507.4937	1509.3737	1691.2	2927.9321	2932.4013	3020.9469	3021.6152	3035.3796	3035.6602	3062.4958	3064.3244	3100.6376	3101.1177	3122.3459	3122.7594	3200.7605	3225.6755
CCC1OC(CC)C=C1	CC[C@H]1O[C@@H](CC)C=C1	
InChI=1S/C8H14O/c1-3-7-5-6-8(4-2)9-7/h5-8H,3-4H2,1-2H3	InChI=1S/C8H14O/c1-3-7-5-6-8(4-2)9-7/h5-8H,3-4H2,1-2H3/t7-,8+
