17
gdb 15144	6.37873	0.85269	0.8051	2.569	65.98	-0.2524	0.0282	0.2806	1382.0761	0.141661	-401.00024	-400.991601	-400.990657	-401.035012	29.611	
O	 0.4576367977	 0.5157826181	-1.1164723217	-0.327233
C	 0.2275400278	 1.3173511495	-0.2343206217	 0.150647
N	 1.1233406856	 1.7061846911	 0.7091361832	-0.269398
C	 2.4879796784	 1.2012871719	 0.7356085211	-0.157479
C	 3.4232052415	 1.9292990637	-0.2437602761	-0.221206
C	 4.8242754748	 1.3758687301	-0.1801927904	 0.099463
C	 6.0142557076	 2.2275870716	-0.2847519657	-0.179118
O	 5.5894108509	 1.7226282376	 0.9822715429	-0.241016
H	-0.7559733217	 1.8118201503	-0.104279781	 0.074981
H	 0.8477825473	 2.4146370176	 1.369538553	 0.2502
H	 2.8720910154	 1.2950959482	 1.7549411152	 0.125396
H	 2.4497394162	 0.1372347071	 0.4836263602	 0.138137
H	 3.0267561018	 1.8142437333	-1.2585530935	 0.131404
H	 3.4443781681	 2.9995462024	-0.0092382923	 0.097018
H	 4.9275194829	 0.3289301098	-0.4727226642	 0.098535
H	 6.9472240487	 1.8140650216	-0.6650948313	 0.116737
H	 5.892362007	 3.3010798862	-0.4252611976	 0.112931
37.7822	67.1738	89.7532	150.7513	218.6765	275.0015	368.2249	420.2101	477.474	516.8865	728.8167	785.1198	835.5939	871.8322	941.0294	984.6797	1017.8882	1030.8633	1052.338	1103.5424	1151.0566	1159.3912	1175.9008	1209.7566	1257.7411	1291.1347	1303.7892	1340.9897	1406.7593	1428.3418	1447.2714	1468.8921	1484.3135	1527.8401	1531.0393	1801.6226	2933.6545	3039.945	3061.3243	3080.5813	3083.2379	3096.2045	3116.6949	3168.3409	3642.6382
O=CNCCC1CO1	O=CNCC[C@H]1CO1	
InChI=1S/C5H9NO2/c7-4-6-2-1-5-3-8-5/h4-5H,1-3H2,(H,6,7)	InChI=1S/C5H9NO2/c7-4-6-2-1-5-3-8-5/h4-5H,1-3H2,(H,6,7)/t5-/m0/s1
