16
gdb 33896	4.07163	1.31509	1.19813	0.6817	76.22	-0.2349	0.0059	0.2408	1043.3019	0.123878	-400.627287	-400.619994	-400.61905	-400.658826	29.022	
C	 0.135966598	-1.1918535177	 0.1113847763	-0.384752
C	 0.0533109914	 0.0045313789	 0.0092779586	 0.191596
C	-0.0987518691	 1.4155807248	-0.0734975438	 0.164627
C	 0.2396373618	 2.2420196964	-1.2525815497	-0.284232
N	 1.0957691657	 2.4182670415	-0.0705362988	-0.189678
C	 0.3557886327	 3.2322215253	 0.9770276938	-0.019181
C	-0.6628626843	 4.2977192839	 0.5460836709	-0.108603
O	-1.7165289957	 3.2952329644	 0.4652620715	-0.292143
C	-0.8352830347	 2.2779150971	 0.9842116251	 0.028734
H	 0.2201695777	-2.2471844936	 0.1935754693	 0.192593
H	 0.7643816321	 1.7391876392	-2.0582325884	 0.137693
H	-0.4577330921	 3.0111818244	-1.5673366465	 0.139736
H	 1.0026113144	 3.4266134018	 1.8294062697	 0.102629
H	-0.8819459592	 5.0358681107	 1.3269168445	 0.113485
H	-0.4955712616	 4.8160907034	-0.4045415892	 0.115224
H	-1.2339687671	 1.7467287797	 1.8491522368	 0.092271
126.1942	141.2418	239.7813	342.3838	381.2337	456.4383	510.5176	532.3822	588.9449	622.852	663.8482	684.3913	749.9427	807.7018	874.7443	881.4636	936.0607	948.8828	964.9593	984.5749	1042.8624	1083.5375	1130.7465	1141.6399	1157.6358	1186.4378	1228.3844	1238.8796	1269.5765	1302.0611	1344.3912	1367.9185	1489.5	1518.3184	2230.1963	3024.7591	3072.574	3109.9907	3132.5493	3141.6869	3221.392	3502.5281
C#CC12CN1C1COC21	C#C[C@]12CN1[C@H]1CO[C@@H]21	
InChI=1S/C7H7NO/c1-2-7-4-8(7)5-3-9-6(5)7/h1,5-6H,3-4H2	InChI=1S/C7H7NO/c1-2-7-4-8(7)5-3-9-6(5)7/h1,5-6H,3-4H2/t5-,6+,7+,8?/m0/s1
