20
gdb 112439	2.40908	1.32001	0.98373	3.0937	75.9	-0.2388	-0.0205	0.2183	1242.8911	0.170625	-440.300405	-440.291383	-440.290439	-440.334362	33.862	
C	 0.0311181522	 1.3925493054	-0.0585821967	-0.329521
N	 0.0395169767	-0.0564810654	 0.0577481112	-0.090171
C	-1.2907738271	-0.6500002734	-0.0110116828	-0.268741
C	-1.1606948922	-2.0002946473	 0.6917572315	 0.386818
O	-2.0033470963	-2.8571541348	 0.7239167878	-0.305495
C	 0.2099707616	-2.0307584562	 1.3526512382	-0.342405
C	 0.7224878795	-0.5874825286	 1.2592648139	 0.009304
C	 2.2422177537	-0.5068185727	 1.06655039	-0.072629
O	 2.6347752295	-1.1555111602	-0.1243915964	-0.417952
H	 1.0505727322	 1.7860285167	-0.0432262957	 0.129893
H	-0.4238296696	 1.6834354857	-1.0102535266	 0.128307
H	-0.5387310292	 1.8780954233	 0.7549637798	 0.102235
H	-2.0515400614	-0.0612780751	 0.537900843	 0.110834
H	-1.64852655	-0.7623942761	-1.0398345997	 0.134319
H	 0.1546031957	-2.4277281205	 2.3679737839	 0.132496
H	 0.8602700669	-2.6884273605	 0.7632717797	 0.153618
H	 0.4399096347	-0.0209297722	 2.1656807453	 0.060155
H	 2.5692429123	 0.5453335005	 1.0783985025	 0.088472
H	 2.7458345215	-1.0090591778	 1.8995962665	 0.110607
H	 1.9728813695	-0.8902544709	-0.7798318153	 0.279856
73.2719	104.3624	131.2636	225.5002	241.7535	306.5683	319.4081	343.0061	475.0865	507.8878	526.7281	551.7485	578.0825	648.2222	768.0259	813.1202	870.5763	915.8039	972.3607	1012.7215	1038.7746	1102.3371	1103.8436	1133.6706	1155.6798	1183.2589	1193.317	1206.3754	1241.3589	1257.8743	1273.0847	1335.4313	1338.7457	1358.93	1397.6943	1437.7781	1445.969	1457.9295	1481.0466	1497.0626	1501.8923	1519.2332	1858.27	2919.3395	2929.7711	2943.2208	2977.1888	3051.2858	3066.9231	3069.0041	3073.701	3117.3861	3122.0536	3720.9452
CN1CC(=O)CC1CO	CN1CC(=O)C[C@H]1CO	
InChI=1S/C6H11NO2/c1-7-3-6(9)2-5(7)4-8/h5,8H,2-4H2,1H3	InChI=1S/C6H11NO2/c1-7-3-6(9)2-5(7)4-8/h5,8H,2-4H2,1H3/t5-/m0/s1
