17
gdb 13997	4.06903	1.48941	1.27791	1.8278	75.64	-0.2401	0.0354	0.2755	991.3239	0.141768	-326.653652	-326.645972	-326.645028	-326.685635	29.427	
C	-0.076618796	-1.1967255468	-0.0174598913	-0.449342
C	-0.0323248971	 0.0046981706	 0.0171123986	 0.391423
C	 0.0304405898	 1.4386100674	 0.0108816237	-0.333824
N	 0.5808838484	 2.1099043136	 1.2236062059	-0.373449
C	 1.3304878217	 2.1763804075	-0.0151079844	 0.380918
C	 2.7203320743	 1.5838630253	-0.2504592218	-0.288464
C	 2.8926798081	 2.6031861315	-1.4173575869	-0.20638
C	 1.6504683416	 3.3889932936	-0.8970950369	-0.308784
H	-0.1205837954	-2.2574711426	-0.031444872	 0.197216
H	-0.8029988094	 1.9295438272	-0.4886383473	 0.107428
H	 0.0736097581	 2.9789302696	 1.3814528112	 0.232238
H	 3.3918049611	 1.7809689734	 0.5899822943	 0.110563
H	 2.7613545458	 0.5205375443	-0.4960506913	 0.1167
H	 3.8345611245	 3.1529278892	-1.4540967679	 0.102958
H	 2.7135401967	 2.1495585652	-2.3946573443	 0.110599
H	 0.8978744156	 3.6952519783	-1.6287375042	 0.103143
H	 1.9344775023	 4.2619381528	-0.2994080555	 0.107057
89.3108	131.1146	155.6457	298.3373	343.2876	355.1736	507.4536	546.9847	581.0307	607.5241	656.5517	715.1712	784.4232	813.1661	863.858	902.6055	927.3438	944.0981	959.281	1005.4001	1037.6206	1076.0956	1136.9009	1186.2219	1197.7715	1217.7961	1247.6893	1252.5918	1270.942	1291.2892	1353.3004	1450.445	1471.5623	1481.1971	1506.4228	2237.3925	3043.1328	3062.8703	3073.7255	3094.8573	3114.214	3119.1867	3131.842	3481.4367	3504.6826
C#CC1NC11CCC1	C#C[C@H]1NC21CCC2	
InChI=1S/C7H9N/c1-2-6-7(8-6)4-3-5-7/h1,6,8H,3-5H2	InChI=1S/C7H9N/c1-2-6-7(8-6)4-3-5-7/h1,6,8H,3-5H2/t6-/m1/s1
