17
gdb 100609	2.49518	0.97925	0.7502	3.305	66.16	-0.2553	-0.0435	0.2117	1457.8374	0.131888	-496.112471	-496.102404	-496.10146	-496.148844	34.74	
O	 0.5823013285	 0.1771163686	 0.8603546703	-0.40107
C	-0.0969277931	 0.1519646113	-0.3826038728	-0.109362
C	-1.5288755671	-0.4425039417	-0.3139401502	 0.019794
O	-2.1718072521	-0.2003059234	-1.5330964895	-0.429448
C	-1.5003423117	-1.9461872758	-0.0305985224	 0.352132
O	-1.8531420385	-2.7113475024	-0.9057122882	-0.32364
C	-1.035786523	-2.4261341747	 1.3263753321	-0.40472
C	-0.8026207783	-3.9242414497	 1.3828369824	 0.176187
O	-1.1820410142	-4.6238631143	 2.2841026763	-0.237566
H	 0.1950871777	 0.8707153441	 1.4043035457	 0.294053
H	-0.1927573849	 1.1519202819	-0.8231406682	 0.125441
H	 0.5135859692	-0.4500234332	-1.0631081723	 0.128448
H	-2.0666786907	 0.056422692	 0.5101994891	 0.084668
H	-2.3315330451	-1.0783584255	-1.9176177078	 0.298186
H	-0.110706222	-1.889079831	 1.5812582994	 0.177738
H	-1.7727888242	-2.1449572254	 2.0880432694	 0.152369
H	-0.2245578006	-4.3364794407	 0.5298929168	 0.09679
45.8867	61.5727	77.4295	146.9357	173.686	213.8318	304.2889	323.1318	342.6404	360.4727	440.7757	479.726	508.937	593.9423	691.979	772.8859	835.9143	977.1258	1016.4273	1023.8285	1055.6049	1074.7594	1096.919	1148.0255	1160.6634	1211.3866	1285.3528	1326.184	1336.4521	1382.6322	1399.1935	1426.8094	1432.9744	1444.5898	1502.7527	1779.988	1840.036	2919.9265	2965.1473	3024.0391	3031.8568	3077.0276	3092.9895	3668.3342	3817.0734
OCC(O)C(=O)CC=O	OC[C@@H](O)C(=O)CC=O	
InChI=1S/C5H8O4/c6-2-1-4(8)5(9)3-7/h2,5,7,9H,1,3H2	InChI=1S/C5H8O4/c6-2-1-4(8)5(9)3-7/h2,5,7,9H,1,3H2/t5-/m1/s1
