19
gdb 55093	3.94212	1.12008	0.96409	3.6752	77.17	-0.2273	0.0537	0.2809	1254.6728	0.159561	-419.213526	-419.204704	-419.20376	-419.246952	33.586	
C	-0.2800177909	 1.4888984151	 0.0275530245	-0.496059
C	 0.0819058354	 0.0339491697	-0.0028809689	 0.316389
C	-0.6043907098	-1.0364482078	 0.8170131882	-0.328654
C	 0.8735386264	-0.8207038866	 0.9824298555	-0.039954
N	 1.6114560318	-1.42841973	-0.1156633696	-0.107544
C	 0.8766949647	-0.6396200512	-1.1357607461	-0.252587
C	 1.9271002021	-2.7745576673	-0.145088234	 0.40576
N	 2.2002183263	-3.2614507309	-1.4173076887	-0.554585
O	 1.9631798771	-3.4651807672	 0.8549688286	-0.388939
H	 0.5730071708	 2.1198239923	-0.2469460228	 0.120503
H	-1.0971539827	 1.7106383549	-0.6695009189	 0.123658
H	-0.61111109	 1.7907853529	 1.0261580688	 0.124964
H	-1.2184993187	-0.6580695826	 1.6288371238	 0.115505
H	-0.9703144429	-1.953142357	 0.3619771785	 0.118403
H	 1.3600819902	-0.5711105183	 1.9166609628	 0.108367
H	 0.3053821201	-1.2387307016	-1.8544226773	 0.116868
H	 1.5335980015	 0.051743365	-1.6771735529	 0.106712
H	 2.5689642571	-2.6132065716	-2.0968153172	 0.252077
H	 2.6700212416	-4.1541002878	-1.3988416044	 0.259116
85.921	106.2846	155.1857	199.4111	258.9293	325.8424	379.3212	414.8154	443.4322	461.1727	547.3232	577.105	637.3569	690.8573	778.6785	812.7143	832.9911	923.4899	955.8821	967.2248	999.2623	1032.2565	1059.7698	1091.3912	1093.9003	1112.9623	1159.5279	1172.6021	1188.929	1250.8884	1297.7027	1302.4248	1400.978	1416.7196	1432.6954	1487.1948	1489.8472	1498.606	1514.8218	1621.2374	1796.6196	3017.0841	3023.7289	3066.4762	3080.7549	3100.8711	3113.9469	3194.8603	3205.0925	3573.226	3688.6902
CC12CC1N(C2)C(N)=O	C[C@]12C[C@H]1N(C2)C(=O)N	
InChI=1S/C6H10N2O/c1-6-2-4(6)8(3-6)5(7)9/h4H,2-3H2,1H3,(H2,7,9)	InChI=1S/C6H10N2O/c1-6-2-4(6)8(3-6)5(7)9/h4H,2-3H2,1H3,(H2,7,9)/t4-,6-/m1/s1
