17
gdb 52517	3.40288	0.85364	0.71639	3.5459	83.81	-0.2552	-0.0454	0.2098	1564.6946	0.13372	-418.007966	-417.997629	-417.996685	-418.045364	34.559	
C	 0.0362699276	 1.4111033969	 0.321280312	-0.503857
C	 0.0223845969	-0.0294767572	 0.1312914543	 0.115358
C	-0.0101847484	-1.2242083548	-0.0244885022	 0.094173
C	-0.0458902224	-2.6452446368	-0.2192401955	 0.156683
N	-1.1669537196	-3.2229779353	-0.424067643	-0.486087
N	 1.2188746757	-3.2858389988	-0.1492419751	-0.118174
C	 2.4410549921	-2.5634789502	-0.5022573483	-0.353794
C	 1.3319423298	-4.5604843972	 0.372163243	 0.150288
O	 2.3669572517	-5.1793537197	 0.4575307542	-0.321039
H	 1.0452177639	 1.8193175964	 0.201556429	 0.157217
H	-0.6198235252	 1.9081033161	-0.4010077316	 0.164031
H	-0.3144934392	 1.67287846	 1.3255386625	 0.164321
H	-1.0485489478	-4.2175076225	-0.6178948936	 0.226997
H	 2.6530527474	-1.7709358993	 0.2205141258	 0.14321
H	 3.2526158874	-3.2901285119	-0.4961009548	 0.17073
H	 2.3450773502	-2.12071419	-1.4960539673	 0.140719
H	 0.3650296898	-4.9507330856	 0.7311702905	 0.099224
22.3305	50.8004	79.3418	116.8192	161.5307	186.721	254.5261	301.3157	351.5199	364.6527	387.7906	442.0143	502.3788	650.4316	721.683	786.7277	871.2909	902.5866	1036.1865	1046.4819	1053.5784	1056.6381	1139.0232	1157.3347	1239.7256	1311.1223	1369.4735	1411.8113	1439.2152	1446.7716	1471.7303	1473.3137	1496.1511	1509.3199	1671.9148	1799.9301	2360.8387	2994.3961	3032.9127	3054.5028	3096.4564	3099.9521	3121.1755	3167.5907	3484.1067
CC#CC(=N)N(C)C=O	CC#CC(=N)N(C)C=O	
InChI=1S/C6H8N2O/c1-3-4-6(7)8(2)5-9/h5,7H,1-2H3	InChI=1S/C6H8N2O/c1-3-4-6(7)8(2)5-9/h5,7H,1-2H3
