18
gdb 94076	4.45173	0.9602	0.82815	4.1342	72.77	-0.2667	0.015	0.2818	1337.8355	0.148547	-439.10012	-439.091684	-439.09074	-439.133132	31.874	
O	-0.0526392512	 1.4347314071	-0.0406479965	-0.427149
C	 0.0134651301	 0.019199948	 0.0026433739	 0.110765
C	-1.4167281399	-0.5135954313	 0.0527474117	-0.227962
C	-1.4269841337	-2.0430465073	-0.0685493047	-0.22074
C	-0.6144045887	-2.4691092867	-1.3055558653	-0.013444
O	 0.7072455413	-1.9574620942	-1.2639242332	-0.252718
C	 0.7217277029	-0.536174893	-1.2411683987	-0.105464
C	-0.5211941765	-3.9314007218	-1.4127376449	 0.278663
N	-0.4926212189	-5.0832161746	-1.4874630751	-0.314229
H	 0.8377553684	 1.7857438589	 0.0627615694	 0.288319
H	 0.557926506	-0.3268351968	 0.8954979717	 0.079217
H	-1.9041160526	-0.1943677065	 0.978373438	 0.115829
H	-1.9766637568	-0.062848119	-0.7768994089	 0.112757
H	-0.973656292	-2.5048852272	 0.8150159683	 0.12715
H	-2.4491906548	-2.4246161646	-0.1518332286	 0.123241
H	-1.1260404968	-2.1013255958	-2.2124035036	 0.1148
H	 0.2349455724	-0.1232586054	-2.1398830067	 0.102342
H	 1.7773929808	-0.2485203698	-1.2608907368	 0.108626
83.7313	148.8244	210.7149	234.0303	280.5704	330.5783	338.6203	385.3131	450.1555	461.9015	548.2293	563.7014	605.3871	808.006	849.9608	906.0291	953.64	982.011	1029.1092	1054.3744	1092.5933	1108.6095	1124.0587	1125.351	1186.0503	1239.2294	1261.5884	1295.3769	1322.8897	1345.3833	1347.6425	1367.8045	1386.152	1402.0553	1442.6019	1479.8178	1488.2728	1501.7141	2370.3555	2955.1491	2974.0442	2985.9059	3033.2913	3051.0273	3084.0918	3091.4376	3100.7357	3816.4313
OC1CCC(OC1)C#N	O[C@H]1CC[C@@H](OC1)C#N	
InChI=1S/C6H9NO2/c7-3-6-2-1-5(8)4-9-6/h5-6,8H,1-2,4H2	InChI=1S/C6H9NO2/c7-3-6-2-1-5(8)4-9-6/h5-6,8H,1-2,4H2/t5-,6+/m0/s1
