23
gdb 106062	2.64221	1.37149	1.20915	0.5137	89.62	-0.2308	0.0888	0.3196	1201.1404	0.205907	-351.121649	-351.112692	-351.111748	-351.154963	35.236	
C	-0.0044952609	 1.6275237043	 0.0063350072	-0.377948
C	 0.0050668142	 0.0938351778	 0.0005774738	-0.331277
C	-1.3656685827	-0.5081173039	 0.0131208022	 0.334969
C	-2.6402345361	-0.2116255307	-0.7440557038	-0.116485
C	-2.7873610594	-1.6596862277	-1.1957611785	-0.268381
C	-1.8787683251	-2.0267131419	 0.0141766007	 0.260778
C	-1.0280170955	-3.2696109174	 0.0018812647	-0.50414
C	-2.7622625479	-1.6663663275	 1.244534268	-0.268392
C	-2.6244984733	-0.2158437882	 0.7977515147	-0.116521
H	 1.0151481062	 2.0239685903	-0.0033366633	 0.111998
H	-0.52638974	 2.0225178385	-0.8713049144	 0.118737
H	-0.5071081008	 2.0159864077	 0.8980242754	 0.118748
H	 0.5532350649	-0.2605523063	-0.8835217189	 0.097638
H	 0.5721382306	-0.2670473269	 0.8700017337	 0.097637
H	-2.8934235317	 0.6898224335	-1.288440069	 0.077721
H	-3.7868257328	-2.1114209044	-1.2296899173	 0.081294
H	-2.2761531125	-1.8350598465	-2.1478622137	 0.089864
H	-0.3926646339	-3.3146054903	-0.889795945	 0.113688
H	-0.3764374279	-3.32113711	 0.8814094141	 0.11367
H	-1.6570092233	-4.1684944144	 0.0043029606	 0.117522
H	-3.7608282423	-2.118355263	 1.2965645488	 0.081283
H	-2.2315665497	-1.8468738248	 2.1849412649	 0.08987
H	-2.8665491201	 0.6825850218	 1.3520995251	 0.077729
80.2899	140.0154	173.5592	206.7929	248.0392	255.9395	323.3366	365.6765	474.1421	489.104	585.645	633.4061	713.2308	765.8582	790.2344	818.1981	870.9931	885.8303	904.5347	949.5716	982.4235	988.7836	997.1495	1015.9808	1028.6544	1048.3696	1103.2219	1107.1409	1133.9355	1145.4302	1147.9063	1208.6925	1224.8629	1245.3497	1247.0004	1290.7677	1303.3072	1332.6222	1367.3268	1406.2743	1414.5813	1448.3157	1487.0703	1490.5639	1491.	1495.7015	1497.9276	1510.3807	1510.5738	3001.4782	3014.831	3017.44	3024.1181	3026.6776	3036.5101	3077.2513	3079.4791	3082.0311	3088.6613	3105.1992	3108.1418	3182.5369	3192.8174
CCC12C3CC1(C)CC23	CC[C@@]12[C@H]3C[C@]1(C)C[C@@H]23	
InChI=1S/C9H14/c1-3-9-6-4-8(9,2)5-7(6)9/h6-7H,3-5H2,1-2H3	InChI=1S/C9H14/c1-3-9-6-4-8(9,2)5-7(6)9/h6-7H,3-5H2,1-2H3/t6-,7+,8+,9-
