15
gdb 26739	3.35005	1.2822	0.9319	3.7975	71.9	-0.2051	-0.0271	0.178	1166.4504	0.112921	-453.988036	-453.979376	-453.978432	-454.021586	31.243	
N	 0.1617063157	 1.4416774578	 0.0082675777	-0.613031
C	 0.0036834566	 0.042342852	-0.0162175928	 0.181028
C	-1.0987627595	-0.76880736	-0.030946696	 0.261541
O	-2.3748106593	-0.2925543019	-0.0231903057	-0.446835
C	-0.6631447505	-2.1357916384	-0.0546992939	-0.302023
C	 0.7020088932	-2.1246537103	-0.0537779826	-0.057587
N	 1.126590213	-0.8099075124	-0.0306025016	-0.073249
C	 2.4578363006	-0.4051298424	-0.0229580261	 0.17235
O	 3.3874895497	-1.1735873775	-0.035931801	-0.310745
H	-0.2609207196	 1.8548834675	 0.8332294871	 0.251319
H	-0.2613266794	 1.8834697825	-0.8015273708	 0.25133
H	-2.9836273485	-1.0364884012	-0.0369609379	 0.30112
H	-1.2931806337	-3.0132088221	-0.0703715833	 0.106601
H	 1.4312553551	-2.9163792977	-0.0672366621	 0.15468
H	 2.5444156265	 0.6909014142	-0.003806751	 0.123501
67.3689	113.0261	208.0106	211.9934	241.0773	274.7871	301.4497	333.7953	416.7294	541.0979	614.0581	679.8612	684.004	741.3022	744.6304	786.1181	828.3176	867.2485	1034.8256	1054.667	1074.2612	1157.623	1215.4632	1251.6504	1301.6865	1342.5846	1400.8033	1432.7506	1473.7386	1526.4148	1657.773	1697.212	1808.5679	3045.1087	3236.6622	3293.5117	3499.763	3561.1287	3845.3135
NC1=C(O)C=CN1C=O	Nc1c(O)ccn1C=O	
InChI=1S/C5H6N2O2/c6-5-4(9)1-2-7(5)3-8/h1-3,9H,6H2	InChI=1S/C5H6N2O2/c6-5-4(9)1-2-7(5)3-8/h1-3,9H,6H2
