17
gdb 72191	3.09337	2.02486	1.61227	1.4419	69.73	-0.2318	0.072	0.3038	852.9164	0.137591	-421.773857	-421.76757	-421.766625	-421.804	27.247	
O	-0.1421932309	 1.3558171978	 0.0737938245	-0.484349
C	 0.0309226293	-0.0237692893	 0.0193780338	 0.411314
C	 1.1304139586	-0.7412381129	 0.8291946406	-0.310577
C	 1.0855175899	-1.8533068783	-0.2566502677	 0.070081
O	 0.0952519369	-2.8173318331	 0.067481575	-0.256623
C	-1.1346015007	-2.2223615518	-0.2579008939	 0.094358
C	-1.0531583389	-1.3039139962	-1.4290110522	-0.12618
C	-1.3370500612	-0.73962691	-0.0193619209	-0.153722
C	 0.4050710407	-0.8375057569	-1.2718155724	-0.157057
H	 0.7249340495	 1.7702428506	 0.003562641	 0.277041
H	 2.0725330962	-0.1814137888	 0.7766378185	 0.085464
H	 0.9349188654	-1.0473044238	 1.85963777	 0.106202
H	 2.0091635433	-2.3682718774	-0.5204490142	 0.081727
H	-1.9740520639	-2.8898860679	-0.1085511526	 0.108558
H	-1.6573926598	-1.3443053582	-2.3252075333	 0.091053
H	-2.2474079397	-0.3304741477	 0.4030249586	 0.091714
H	 0.9832325553	-0.4330335161	-2.0983884049	 0.070996
245.9501	289.2195	346.0213	383.2483	435.9339	553.8069	573.2041	669.5444	712.3772	744.7763	759.1823	814.4966	826.9937	854.083	904.234	920.2243	932.612	960.8759	995.6735	1004.6042	1031.2542	1058.3425	1061.7535	1081.7986	1086.5572	1124.9721	1150.5166	1192.3002	1216.803	1234.4551	1242.5822	1279.3169	1292.5882	1347.7383	1392.9421	1410.3398	1472.2678	3031.3236	3108.4544	3112.6128	3154.5859	3180.8008	3196.5837	3207.988	3799.5883
OC12CC3OC4C(C14)C23	O[C@@]12C[C@H]3O[C@@H]4[C@@H]([C@H]14)[C@@H]23	
InChI=1S/C7H8O2/c8-7-1-2-4(7)3-5(7)6(3)9-2/h2-6,8H,1H2	InChI=1S/C7H8O2/c8-7-1-2-4(7)3-5(7)6(3)9-2/h2-6,8H,1H2/t2-,3-,4+,5+,6-,7-/m1/s1
