21
gdb 55630	2.8058	1.00259	0.8892	2.1709	85.04	-0.2461	-0.0175	0.2286	1417.1252	0.177358	-387.087227	-387.076095	-387.075151	-387.124581	40.27	
C	 0.0321424802	 1.5833938524	-0.1653615815	-0.471475
C	 0.0307594194	 0.0855585986	 0.096923502	 0.371757
O	 0.0283035414	-0.3530523444	 1.2254010348	-0.289478
C	 0.0331704973	-0.7873449987	-1.1546416706	-0.315752
C	 0.0483291262	-2.3294748798	-0.9685756172	 0.052023
C	 1.3229205066	-2.7861363486	-0.2192567484	-0.414964
C	-1.215691856	-2.8111037277	-0.2168791819	-0.414921
C	 0.0527709703	-2.9195533964	-2.3139572096	 0.340512
C	 0.0562400196	-3.3939261579	-3.4191162414	-0.487848
H	 0.9216789074	 1.8704701312	-0.7372168632	 0.140664
H	-0.8373354114	 1.8696470022	-0.7674317549	 0.139978
H	 0.0165130115	 2.1216694104	 0.782871502	 0.143769
H	-0.8422142395	-0.5015761202	-1.7531910082	 0.129436
H	 0.896267157	-0.4852225215	-1.7627484237	 0.12889
H	 1.3332870366	-2.3710517572	 0.7894606554	 0.145267
H	 1.3498633614	-3.8773259045	-0.1556378432	 0.120308
H	 2.2231340885	-2.4596898917	-0.7490907379	 0.112139
H	-2.1229715204	-2.5029788105	-0.7456285011	 0.112144
H	-1.2207779606	-3.9025923488	-0.1526716697	 0.12015
H	-1.2328589061	-2.395498127	 0.7914962323	 0.145507
H	 0.0593901107	-3.8226686898	-4.390564954	 0.191894
11.9223	103.0134	112.8733	123.7968	186.9455	219.0854	243.9342	261.394	299.4781	336.3967	367.635	384.1797	474.8261	552.9434	554.8632	590.5361	624.4133	634.4555	743.0049	818.8788	826.4889	907.9948	934.3468	947.8092	1001.7524	1015.6737	1052.7423	1149.8576	1168.9151	1222.9664	1238.9075	1285.0098	1366.3778	1383.0688	1391.9955	1413.0888	1440.2723	1464.6744	1477.6455	1482.853	1497.2414	1504.9166	1513.8002	1805.6592	2229.0848	3022.0399	3038.9923	3044.3234	3047.9605	3053.072	3099.1503	3111.3029	3114.2677	3147.418	3150.2742	3153.3833	3501.3178
CC(=O)CC(C)(C)C#C	CC(=O)CC(C)(C)C#C	
InChI=1S/C8H12O/c1-5-8(3,4)6-7(2)9/h1H,6H2,2-4H3	InChI=1S/C8H12O/c1-5-8(3,4)6-7(2)9/h1H,6H2,2-4H3
