19
gdb 106935	3.74528	1.13742	1.0205	3.8967	76.2	-0.2356	-0.0103	0.2253	1214.8133	0.158802	-423.036948	-423.028412	-423.027468	-423.070225	32.286	
C	-0.333425556	 1.3052721482	-0.0993441272	-0.255955
O	 0.264953594	 0.0333731894	 0.0857646099	-0.288293
C	 0.799765841	-0.5132206543	-1.0715443795	 0.452026
C	-0.1082040756	-1.1641786596	-2.062858324	-0.352375
C	 0.8328782464	-2.0211176139	-1.2014146687	-0.226175
C	 2.1381607127	-2.3895649788	-1.8263350941	 0.427801
O	 2.6384939835	-3.4863554073	-1.8476624683	-0.330193
C	 2.776133616	-1.1049880335	-2.38430802	-0.349841
C	 2.1215356085	 0.0518564989	-1.6003416396	-0.289339
H	 0.400836306	 2.0654472669	-0.399438938	 0.113954
H	-1.1300439698	 1.2698085412	-0.8555645332	 0.111104
H	-0.7643572294	 1.593458911	 0.8617038161	 0.132675
H	-1.1528555401	-1.2414745835	-1.7837044971	 0.130455
H	 0.0752552616	-1.076553302	-3.1288943859	 0.119997
H	 0.3907478865	-2.6794872088	-0.4654127436	 0.1157
H	 3.8617051782	-1.152949067	-2.2826515436	 0.133473
H	 2.5600817273	-1.0460093761	-3.4578813733	 0.130296
H	 1.9851812084	 0.952688526	-2.2067320322	 0.103973
H	 2.7365660108	 0.3224605632	-0.7355850877	 0.120716
87.8228	110.6933	154.0489	180.7507	264.9474	340.4346	370.5466	426.1996	476.3673	529.2528	590.889	647.8679	693.0419	774.0648	824.4824	899.0215	906.2766	963.3651	974.3035	995.3443	1015.7873	1048.0385	1064.4278	1105.568	1164.0696	1179.05	1181.0551	1207.7287	1226.2004	1241.016	1278.8732	1294.541	1323.8501	1377.7286	1458.9284	1474.443	1484.9074	1489.1187	1504.7214	1508.696	1835.8433	2994.6087	3042.9605	3046.1215	3050.08	3087.7579	3120.344	3125.2168	3130.802	3209.4099	3224.4227
COC12CC1C(=O)CC2	CO[C@]12C[C@H]1C(=O)CC2	
InChI=1S/C7H10O2/c1-9-7-3-2-6(8)5(7)4-7/h5H,2-4H2,1H3	InChI=1S/C7H10O2/c1-9-7-3-2-6(8)5(7)4-7/h5H,2-4H2,1H3/t5-,7+/m0/s1
