12
gdb 130746	3.54054	1.61574	1.11729	2.2846	61.03	-0.2882	-0.0465	0.2417	963.0857	0.079658	-472.640304	-472.634122	-472.633177	-472.671102	23.254	
O	-0.0992764128	-0.0436634366	 0.0057408069	-0.328477
C	 0.0233534654	 1.1428964248	 0.0090170733	 0.402671
O	-1.0846333472	 1.9941698311	 0.0286130906	-0.2506
C	-0.7164062053	 3.3833819933	 0.0298932355	-0.197649
C	 0.7712584467	 3.3049150034	 0.0089020865	 0.377108
C	 1.1987489738	 2.0233798488	-0.0029393034	-0.028516
C	 2.6133209092	 2.1549926968	-0.0215967583	-0.120485
N	 2.9740030562	 3.4156936397	-0.0208994996	-0.121491
O	 1.7634845015	 4.1736214121	-0.0008294312	-0.219134
H	-1.1409586275	 3.8740760672	-0.8526523743	 0.160369
H	-1.1162302369	 3.8658873734	 0.9283601621	 0.160384
H	 3.3845967568	 1.398426096	-0.0356260583	 0.165819
168.4345	203.831	250.64	316.2924	531.7915	627.7916	628.8956	638.2937	658.064	767.7648	773.6044	813.0516	921.0636	968.34	1012.9173	1022.8101	1029.9812	1142.8142	1187.7577	1196.3877	1325.0136	1411.3805	1433.4837	1490.0828	1525.3416	1635.4516	1897.0823	3045.8768	3086.7574	3254.6852
O=C1OCC2=C1C=NO2	O=C1OCc2c1cno2	
InChI=1S/C5H3NO3/c7-5-3-1-6-9-4(3)2-8-5/h1H,2H2	InChI=1S/C5H3NO3/c7-5-3-1-6-9-4(3)2-8-5/h1H,2H2
