18
gdb 11917	4.44492	1.43787	1.23138	2.7787	67.41	-0.2571	0.0658	0.3229	1001.2533	0.154083	-384.930645	-384.923051	-384.922106	-384.962846	29.21	
O	-0.0079833113	 1.3957597386	-0.104793547	-0.435241
C	 0.0057078816	-0.0142769909	 0.0204575728	 0.137499
C	 0.6083713961	-0.5467480439	 1.3353867679	-0.252232
C	 0.0404531865	-1.971958799	 1.4275913292	-0.291495
C	-1.3692802115	-1.8451017798	 0.8394619064	 0.448083
C	-2.234792571	-3.0034252167	 0.5968984022	-0.257179
O	-2.4746396798	-2.1318544819	 1.7051015856	-0.272547
C	-1.4376109922	-0.5391208933	 0.0460781233	-0.298833
H	 0.9036334716	 1.7015322177	-0.1437590768	 0.281555
H	 0.5457906575	-0.4681479057	-0.8275556775	 0.063878
H	 1.7019742413	-0.5096512024	 1.3542874528	 0.087708
H	 0.2336043492	 0.0742606272	 2.1574224599	 0.113875
H	 0.6383305928	-2.6593788568	 0.8166151557	 0.103857
H	 0.0058707692	-2.3742661029	 2.4425132512	 0.11776
H	-2.9797536415	-2.9672097372	-0.1979873544	 0.10975
H	-1.8867440785	-4.0041970632	 0.8551051923	 0.107207
H	-2.0547208828	 0.1799411757	 0.595432938	 0.131286
H	-1.8685894074	-0.6560122356	-0.9509363816	 0.105071
45.6783	170.4183	269.3243	290.7119	340.5295	400.0856	420.3791	452.5575	483.2077	560.9567	730.9839	810.2647	829.0162	883.6454	911.1044	929.8492	976.3746	992.5034	1028.9851	1055.2855	1103.1454	1130.2313	1159.3568	1174.6853	1193.2076	1208.1878	1240.4651	1272.7544	1284.4042	1312.0611	1315.2331	1375.2253	1422.8552	1433.8488	1477.82	1481.0755	1503.5911	1532.5504	2954.9911	3032.8587	3040.9297	3057.1155	3068.7351	3089.7673	3107.6636	3108.6743	3152.5716	3818.6474
OC1CCC2(CO2)C1	O[C@H]1CC[C@]2(CO2)C1	
InChI=1S/C6H10O2/c7-5-1-2-6(3-5)4-8-6/h5,7H,1-4H2	InChI=1S/C6H10O2/c7-5-1-2-6(3-5)4-8-6/h5,7H,1-4H2/t5-,6+/m0/s1
