18
gdb 98343	3.53632	0.91934	0.81704	2.1775	76.06	-0.2452	0.0369	0.282	1441.4073	0.144704	-439.082994	-439.072366	-439.071422	-439.120183	35.878	
C	 0.1158047471	 1.4218988576	 0.1870671761	-0.232539
O	 0.0146452316	 0.0080220803	 0.0000410503	-0.262254
C	-1.2520019815	-0.4733126204	 0.0393125953	 0.541059
O	-2.2262983062	 0.226364778	 0.2271620628	-0.43
N	-1.2856268666	-1.8273363828	-0.1509818865	-0.150225
C	-0.1167886339	-2.6658318925	-0.3566468824	-0.346172
C	-2.5856640241	-2.4860059781	-0.1159520784	-0.318996
C	-2.9462175847	-3.1157157483	-1.3875324253	 0.31676
C	-3.2343822899	-3.6459815339	-2.4265551673	-0.46016
H	 1.1817016355	 1.6476179701	 0.1402766192	 0.128531
H	-0.4218513514	 1.9580917193	-0.5988912422	 0.14045
H	-0.2945612381	 1.7167085374	 1.1559373396	 0.139887
H	 0.0290926249	-3.3463813289	 0.4931607303	 0.120741
H	-0.2468946061	-3.2699256781	-1.2610390369	 0.139084
H	 0.7674511922	-2.0442902461	-0.4665193789	 0.161147
H	-2.5888377256	-3.2472964406	 0.6776735041	 0.130536
H	-3.3200562288	-1.7232990924	 0.1525299775	 0.179578
H	-3.5019298042	-4.1041232704	-3.3465644972	 0.202573
25.9981	72.8317	99.2772	106.839	140.9445	153.4676	232.0817	254.1254	328.0629	362.3146	366.6102	442.1635	583.8753	614.6842	663.0847	675.0388	772.8089	834.9206	931.2541	966.0387	1025.7959	1087.8172	1160.2516	1183.8754	1188.4635	1214.7678	1243.4762	1296.6108	1377.8528	1428.8339	1457.515	1467.4928	1480.948	1489.8698	1494.6272	1505.6036	1531.4933	1790.8115	2238.5116	3000.6398	3013.4787	3051.7633	3074.3985	3110.4716	3127.007	3153.629	3190.6651	3504.6519
COC(=O)N(C)CC#C	COC(=O)N(C)CC#C	
InChI=1S/C6H9NO2/c1-4-5-7(2)6(8)9-3/h1H,5H2,2-3H3	InChI=1S/C6H9NO2/c1-4-5-7(2)6(8)9-3/h1H,5H2,2-3H3
