16
gdb 124115	3.49666	0.979	0.76927	3.0495	87.54	-0.1907	-0.003	0.1877	1445.6624	0.125462	-396.928964	-396.919847	-396.918902	-396.964035	32.327	
C	-0.0791689463	 1.4690433031	 0.0044988773	-0.509993
C	-0.0127913534	 0.0166632179	-0.0158504612	 0.189611
C	 0.0373138129	-1.1908580215	-0.0404424039	-0.091198
C	 0.1213609397	-2.5932571889	-0.061468216	 0.223463
C	 1.2312099363	-3.4375422094	-0.0231690576	 0.065394
N	 2.5743008935	-3.0564422682	-0.0246901024	-0.623016
C	 0.690272323	-4.7407435665	-0.0654545075	-0.070247
N	-0.6425820956	-4.7237023803	-0.1246443377	-0.209167
N	-0.9673273783	-3.4312749062	-0.1277514923	-0.302272
H	 0.6654473518	 1.9108619514	-0.6673348321	 0.15303
H	-1.0647511413	 1.818769925	-0.3223115409	 0.153992
H	 0.0977228981	 1.8706344828	 1.0090930303	 0.149675
H	 2.7064077585	-2.1017447168	 0.2841848351	 0.247515
H	 3.167788081	-3.6777757092	 0.5084395952	 0.246664
H	 1.219110037	-5.6825904903	-0.0556548889	 0.104417
H	-1.9337335569	-3.1565281129	-0.1688769774	 0.272134
29.4168	80.7012	107.2259	221.5263	255.8926	266.2827	321.2041	369.7764	436.7103	479.2774	479.9591	556.7162	677.6095	689.941	717.1014	761.077	849.6013	945.3772	993.5353	1050.6862	1051.5114	1087.5324	1159.6597	1243.6199	1280.9245	1303.4223	1406.0237	1417.9784	1446.8303	1472.7483	1478.4002	1537.0649	1616.674	1654.6213	2343.376	3022.8127	3080.0637	3088.3446	3243.4618	3538.0801	3631.2978	3677.4051
CC#CC1=C(N)C=NN1	CC#Cc1c(N)cn[nH]1	
InChI=1S/C6H7N3/c1-2-3-6-5(7)4-8-9-6/h4H,7H2,1H3,(H,8,9)	InChI=1S/C6H7N3/c1-2-3-6-5(7)4-8-9-6/h4H,7H2,1H3,(H,8,9)
