17
gdb 107195	3.46311	1.21443	1.145	3.1413	67.63	-0.2335	0.0421	0.2756	1112.5848	0.134398	-458.865881	-458.857739	-458.856795	-458.898659	31.457	
O	 0.0725206025	 1.36507152	 0.205742544	-0.416907
C	-0.0489345924	-0.0233035133	-0.0636179851	-0.203407
C	-1.4988540482	-0.3725228338	 0.0126515143	 0.434508
O	-1.9261232567	-1.5904939301	-0.6407293551	-0.326665
C	-2.588984859	-0.3385196835	-0.9556047091	-0.04374
C	-3.6260143717	-0.0004388967	 0.1463464866	-0.172709
C	-3.6378757815	-0.9794589475	 1.2949630066	 0.144823
O	-3.6370646771	-2.3635968599	 1.239504567	-0.42903
C	-2.4653156358	-0.0386555924	 1.1843374234	-0.214949
H	 1.0029868311	 1.5617930285	 0.3468359168	 0.295418
H	 0.3238438019	-0.2915765987	-1.0634364397	 0.105961
H	 0.5058162995	-0.6253390261	 0.6739931122	 0.102374
H	-2.620875087	-0.0537950728	-2.0001249245	 0.116623
H	-4.3751882952	 0.7696202584	 0.0100864432	 0.097024
H	-4.3249085943	-0.6559436256	 2.0749102224	 0.111593
H	-3.0204516946	-2.5963209311	 0.5324938867	 0.294167
H	-2.2134482715	 0.7057807444	 1.9285951104	 0.104917
74.1676	141.2398	196.4903	230.024	280.7262	330.0214	454.9433	478.8661	535.575	584.3429	625.9952	678.5091	720.2384	727.3243	808.5095	861.1996	876.9949	928.8581	950.5979	988.1159	1000.7939	1035.1549	1055.6137	1078.4673	1094.0202	1159.6891	1184.1567	1223.8964	1242.1034	1265.4666	1289.892	1310.623	1356.4179	1435.7467	1476.5544	1511.0311	1513.807	2972.4523	3013.0775	3132.7409	3185.5081	3197.0586	3201.589	3748.1028	3837.1412
OCC12OC1C1C(O)C21	OC[C@]12O[C@H]1[C@H]1[C@@H](O)[C@@H]21	
InChI=1S/C6H8O3/c7-1-6-3-2(4(3)8)5(6)9-6/h2-5,7-8H,1H2	InChI=1S/C6H8O3/c7-1-6-3-2(4(3)8)5(6)9-6/h2-5,7-8H,1H2/t2-,3+,4-,5+,6-/m1/s1
