17
gdb 90204	3.02713	1.77794	1.59032	0.9237	71.78	-0.2137	0.0479	0.2616	908.6518	0.133857	-421.643824	-421.636645	-421.635701	-421.675051	29.091	
C	-0.433583466	 1.4040186844	 0.0196388562	-0.400061
C	 0.0192020773	-0.0505823042	-0.0114582216	-0.081901
C	 1.3116719871	-0.3451762575	-0.8869659891	-0.335548
C	 2.1271727524	-0.4696162822	 0.4188690621	 0.293219
O	 2.6378376298	 0.7149109548	 1.1229358259	-0.339339
C	 1.9604482759	-0.0274201778	 2.1732789237	-0.01774
C	 2.3380217661	-1.4627479333	 1.5960817986	-0.011868
O	 0.9719258649	-1.9505581521	 1.5588628368	-0.34502
C	 0.8249299538	-0.5248591937	 1.2339678515	 0.289376
H	 0.4018758832	 2.0640498396	 0.2670905524	 0.143295
H	-0.8295136534	 1.7014717246	-0.957115163	 0.118269
H	-1.2211271715	 1.5515737336	 0.765358305	 0.123799
H	-0.818528077	-0.7192410584	-0.2244311085	 0.103133
H	 1.2596682828	-1.2824728479	-1.4432252067	 0.133285
H	 1.6407909483	 0.4552399177	-1.5529464551	 0.128783
H	 1.9888784318	 0.3756643428	 3.1902230617	 0.099278
H	 3.1310325245	-2.1665583605	 1.8670408401	 0.099041
121.0411	210.3454	252.6801	308.6405	372.6307	451.3776	482.6811	520.2019	631.6608	707.9773	726.2484	732.9923	800.3569	812.2905	843.4706	895.1336	921.6691	936.8878	954.7216	997.6417	1069.9618	1091.8782	1099.9856	1104.0742	1128.4175	1170.6783	1202.857	1223.4777	1239.6845	1263.1222	1270.7495	1327.0961	1330.9007	1407.048	1444.4145	1491.1859	1507.2083	3036.4526	3063.15	3075.1416	3077.3456	3081.9971	3103.5928	3124.3963	3140.8555
CC1CC23OC4C2OC134	C[C@H]1C[C@]23O[C@@H]4[C@H]2O[C@]134	
InChI=1S/C7H8O2/c1-3-2-6-4-5(8-6)7(3,6)9-4/h3-5H,2H2,1H3	InChI=1S/C7H8O2/c1-3-2-6-4-5(8-6)7(3,6)9-4/h3-5H,2H2,1H3/t3-,4+,5+,6-,7-/m0/s1
