18
gdb 57734	3.23343	0.85635	0.79098	1.0599	71.34	-0.2622	-0.0368	0.2254	1477.157	0.143341	-476.222952	-476.212385	-476.211441	-476.260185	36.057	
C	 0.1772920051	 1.5802267804	 0.2144341876	-0.434896
C	 0.0294862043	 0.0541586529	 0.0653879364	 0.245628
O	 0.6118782488	-0.6287038225	 1.1635087377	-0.474562
C	-1.4357367508	-0.3608098491	-0.102683252	-0.103122
O	-2.08590195	-0.0212068381	 1.1252874747	-0.212235
C	-3.3821133644	-0.378119627	 1.2478771307	 0.130889
N	-3.9998228298	-0.126936083	 2.3174505418	-0.434961
C	 0.8285625447	-0.3898863938	-1.1562079318	 0.148311
O	 0.3939949261	-0.3962535335	-2.2784055726	-0.260102
H	 1.2273911044	 1.8385281493	 0.3745195201	 0.131803
H	-0.1835195301	 2.0980769924	-0.6790611788	 0.132966
H	-0.4025035331	 1.9221040448	 1.075985055	 0.144847
H	 0.0458111929	-0.4637496191	 1.9273469806	 0.299001
H	-1.8925099574	 0.1616636284	-0.949190482	 0.13039
H	-1.4961858032	-1.4418538233	-0.2743149285	 0.120871
H	-3.7848860508	-0.8747978299	 0.3552158891	 0.095756
H	-4.961252762	-0.4542112255	 2.2514982707	 0.234591
H	 1.8692078353	-0.6952100535	-0.9138939887	 0.104825
30.9153	57.7062	74.97	118.7232	146.317	219.064	245.6186	282.1905	309.953	358.4053	377.1901	421.9459	511.5768	573.244	681.8406	790.4292	824.0387	910.9367	935.2242	986.7066	1000.9777	1022.1429	1044.7422	1133.98	1140.2678	1165.8854	1226.8724	1280.2723	1291.1657	1356.6986	1390.752	1408.163	1411.602	1428.3288	1490.1987	1494.9391	1502.9285	1750.2786	1835.2649	2912.391	3027.0571	3039.7605	3044.9383	3091.8375	3125.2348	3128.478	3522.1458	3795.2876
CC(O)(COC=N)C=O	C[C@@](O)(CO[CH][NH])C=O	
InChI=1S/C5H9NO3/c1-5(8,2-7)3-9-4-6/h2,4,6,8H,3H2,1H3	InChI=1S/C5H9NO3/c1-5(8,2-7)3-9-4-6/h2,4,6,8H,3H2,1H3/t5-/m0/s1
