21
gdb 120969	3.4758	0.982	0.94999	1.1968	78.41	-0.2467	0.0935	0.3403	1358.5109	0.183049	-424.211479	-424.202719	-424.201775	-424.245337	32.78	
C	-0.3075923377	 1.2645760038	-0.556900806	-0.227735
O	-0.0592925012	-0.0755944782	-0.2103068367	-0.234944
C	 0.6514347059	-0.7801447941	-1.2089009706	-0.064066
C	 0.8104733208	-2.2306614167	-0.7546513431	-0.016061
C	-0.5589495944	-2.9584920777	-0.6298609669	-0.249459
C	-0.6938191251	-3.7619635373	-1.9058810576	 0.053025
O	-0.447074543	-2.9995642439	-3.100014897	-0.257417
C	 0.6057459464	-3.8280861799	-2.5840314097	 0.058056
C	 1.6360445483	-3.0662595424	-1.7749082199	-0.272287
H	 0.627042427	 1.8298219566	-0.7034551346	 0.100757
H	-0.9021584335	 1.3456956269	-1.4806341855	 0.105558
H	-0.8673627307	 1.7188855099	 0.2647182654	 0.123502
H	 0.1167950537	-0.7407685748	-2.1694672553	 0.109828
H	 1.6457120196	-0.3237234758	-1.3591385685	 0.076771
H	 1.3126116	-2.2053271136	 0.2166327162	 0.081935
H	-0.5655409658	-3.6472873312	 0.2232525217	 0.098207
H	-1.3747658293	-2.246658211	-0.4788363873	 0.123376
H	-1.4505032468	-4.5369622011	-2.0027471358	 0.090244
H	 0.9010596249	-4.6554768633	-3.2248836424	 0.090671
H	 2.2785309847	-2.4400062532	-2.4038118596	 0.107281
H	 2.2876937259	-3.7841269631	-1.2631462769	 0.102759
74.1235	104.5287	140.2155	180.2001	232.7087	304.0433	334.1013	388.2786	416.6401	471.5431	668.8007	749.1313	809.8785	841.2134	862.573	887.7486	916.1822	947.366	973.4835	1000.5943	1025.5285	1035.5787	1085.5704	1117.089	1135.0187	1161.0612	1183.1663	1195.1743	1215.208	1234.4237	1244.1488	1264.5926	1287.2374	1317.3624	1331.2366	1341.4669	1370.817	1416.3515	1445.0007	1478.9802	1480.7339	1484.8809	1490.7675	1505.1978	1535.3839	2947.249	2968.5358	3010.3746	3017.9241	3036.2277	3041.1791	3067.9131	3077.8476	3100.3046	3109.3726	3136.8866	3149.8664
COCC1CC2OC2C1	COC[C@H]1C[C@H]2O[C@H]2C1	
InChI=1S/C7H12O2/c1-8-4-5-2-6-7(3-5)9-6/h5-7H,2-4H2,1H3	InChI=1S/C7H12O2/c1-8-4-5-2-6-7(3-5)9-6/h5-7H,2-4H2,1H3/t5-,6+,7-
