16
gdb 130457	3.13839	1.30575	0.96459	7.604	66.98	-0.2449	-0.0217	0.2233	1168.5579	0.125941	-471.168547	-471.160804	-471.15986	-471.201178	29.137	
N	 0.4143171943	 1.3545323008	 1.1819362028	-0.511249
H	 0.7842047307	 0.4251789583	 1.3575097928	 0.256023
H	 0.7102450348	 2.4720632753	 2.4800735774	 0.318627
H	 0.878930555	 1.6999053597	 0.34613662	 0.251709
C	-1.0467629663	 1.3018389776	 0.9663590479	-0.174746
C	-1.6449180058	 2.7152014405	 0.9552316916	-0.314344
C	-1.6528974548	 3.4042671606	 2.2880220351	 0.232239
N	-2.7205404161	 4.0021029327	 2.7396006139	-0.14306
O	-2.3771786291	 4.5536851871	 3.9365612505	-0.163902
N	-1.0630582151	 4.2892015574	 4.2587055559	-0.159482
C	-0.6020158282	 3.5839255629	 3.2579202473	 0.311376
O	 0.6484374368	 3.1436612728	 3.2161270775	-0.417419
H	-1.3072036279	 0.7952283552	 0.0272556578	 0.112038
H	-1.4839632385	 0.7195893149	 1.7833202115	 0.136244
H	-1.0888751038	 3.3243940669	 0.2283645453	 0.122741
H	-2.6768901159	 2.6712965772	 0.5965000425	 0.143205
64.6565	170.8328	243.149	254.8701	302.4392	338.313	391.1785	482.0174	504.1488	619.3007	651.5571	743.9939	768.0442	868.0051	895.2692	912.2903	935.489	963.0273	992.5641	1034.4097	1053.1021	1082.0844	1155.6756	1261.4866	1282.167	1326.9126	1375.8186	1390.1806	1416.4486	1470.3076	1508.3627	1531.9617	1559.8661	1650.8522	1679.0291	3010.5662	3014.9593	3087.3684	3100.043	3124.9772	3492.6858	3571.2461
[NH3+]CCC1=NON=C1[O-]	NCCc1nonc1O	
InChI=1S/C4H7N3O2/c5-2-1-3-4(8)7-9-6-3/h1-2,5H2,(H,7,8)	InChI=1S/C4H7N3O2/c5-2-1-3-4(8)7-9-6-3/h1-2,5H2,(H,7,8)
