17
gdb 26924	2.17104	1.68699	0.96064	2.7733	78.56	-0.229	-0.0447	0.1842	1193.6742	0.134648	-421.886194	-421.877208	-421.876264	-421.920047	32.023	
C	 0.11104909	 1.4947030466	 0.0323011932	-0.503225
C	-0.0301685661	 0.0179521933	 0.0328568994	 0.308511
C	-1.1221425281	-0.8200674215	-0.0216482696	-0.027017
C	-2.5238055765	-0.4245319211	-0.1001124535	 0.06618
O	-2.9432129037	 0.7158781978	-0.1293973371	-0.287006
C	-0.6041822397	-2.1749507271	 0.014389256	 0.171656
C	-1.3827011827	-3.4536578773	-0.0202733392	-0.506137
C	 0.740020137	-2.0390545708	 0.0861592347	-0.123709
O	 1.0999825644	-0.7147763634	 0.0981980832	-0.17663
H	 0.7145410898	 1.8282595624	-0.8195140074	 0.14286
H	-0.8792769529	 1.9451105291	-0.0261845915	 0.178821
H	 0.6146997272	 1.8385222819	 0.9429271384	 0.142908
H	-3.2350800588	-1.2789623407	-0.1338152262	 0.068322
H	-1.9799091312	-3.5393166336	-0.9348405382	 0.137091
H	-0.7130147803	-4.3167618114	 0.0212772752	 0.129445
H	-2.0755798382	-3.5288157922	 0.8251234468	 0.137092
H	 1.5545314196	-2.7426852121	 0.1342041758	 0.140838
95.0048	121.6327	151.6367	169.6546	192.349	259.4874	260.565	332.3495	381.9014	502.1921	594.1613	624.7268	687.0282	727.1082	746.5946	801.6329	967.8614	1012.5961	1037.0982	1061.894	1063.744	1069.3343	1139.5414	1206.5344	1267.4879	1316.4394	1391.3392	1409.3938	1420.945	1462.3585	1474.009	1482.9271	1488.4162	1496.3409	1591.4315	1639.2197	1776.5974	2885.7124	3032.3623	3034.1365	3084.1972	3085.1822	3113.8188	3166.1642	3278.7314
CC1=C(C=O)C(C)=CO1	Cc1c(C=O)c(C)co1	
InChI=1S/C7H8O2/c1-5-4-9-6(2)7(5)3-8/h3-4H,1-2H3	InChI=1S/C7H8O2/c1-5-4-9-6(2)7(5)3-8/h3-4H,1-2H3
