19
gdb 114598	3.12375	1.08697	0.92783	3.8635	77.41	-0.2557	-0.0411	0.2146	1317.5037	0.157071	-422.999283	-422.990261	-422.989316	-423.033392	32.954	
C	 0.1827013095	 1.6500167572	 0.1225445273	-0.384029
C	-0.1032205034	 0.1548734284	-0.0461234457	-0.193169
C	 0.6370797244	-0.4654220693	-1.2259134836	-0.063534
C	 2.2043959787	-0.6100029718	-1.1503859428	-0.268556
C	 2.0345526003	-2.1213646924	-1.3242029896	-0.017046
O	 1.2133625703	-2.6008047592	-0.2760252803	-0.260608
C	 0.5462744777	-1.9988432506	-1.3875532017	 0.307731
C	-0.4010303192	-2.8029425444	-2.1914690774	 0.050334
O	-0.5120893096	-4.0014920874	-2.1366383914	-0.253015
H	 1.2501699453	 1.8367669447	 0.2823379498	 0.119331
H	-0.1228494178	 2.2168388932	-0.7641036964	 0.11402
H	-0.3570345962	 2.0596214357	 0.9814857038	 0.118942
H	 0.1761862035	-0.3881373386	 0.8634693965	 0.1177
H	-1.1817543553	-0.0001066326	-0.1815641328	 0.099119
H	 0.3546513849	 0.0263435069	-2.1639511317	 0.081383
H	 2.7200649944	-0.1282363668	-1.9834141475	 0.114348
H	 2.6765943547	-0.3170167086	-0.2091840097	 0.118823
H	 2.6729867965	-2.84170284	-1.8236075575	 0.12451
H	-1.009593199	-2.1890834844	-2.8945210792	 0.073717
80.5854	98.8387	150.6174	174.2639	203.3023	234.155	286.6469	351.8264	429.7778	469.6754	601.8386	726.4823	747.9764	788.3973	826.3542	862.0238	893.7901	939.1869	958.5325	976.2065	1027.512	1045.2625	1076.978	1110.4031	1118.064	1140.6623	1192.7664	1224.9152	1257.2924	1267.9293	1291.3699	1336.5222	1376.8331	1415.1289	1415.3219	1433.0711	1473.5964	1490.6642	1500.6861	1507.1687	1816.2974	2868.6854	3023.0066	3031.3923	3043.1279	3068.6367	3071.1792	3099.0615	3106.7686	3127.7217	3187.6095
CCC1CC2OC12C=O	CC[C@H]1C[C@H]2O[C@@]12C=O	
InChI=1S/C7H10O2/c1-2-5-3-6-7(5,4-8)9-6/h4-6H,2-3H2,1H3	InChI=1S/C7H10O2/c1-2-5-3-6-7(5,4-8)9-6/h4-6H,2-3H2,1H3/t5-,6+,7-/m0/s1
