21
gdb 119734	3.11974	1.11487	0.98067	1.2555	79.04	-0.2396	0.0725	0.3121	1313.9994	0.18178	-424.181233	-424.172128	-424.171184	-424.215794	33.406	
C	 0.7691322405	 1.3409338103	-0.0208600174	-0.220505
O	 0.9648828009	-0.0373487569	-0.2288621574	-0.238529
C	-0.0532822153	-0.6265954851	-1.007363487	-0.154219
C	 0.231406807	-2.1016032321	-1.1448368799	 0.445452
C	 0.5797374006	-2.9492231729	 0.1009937741	-0.273627
C	 1.7259866457	-3.6387486137	-0.7053543294	-0.224696
C	 1.3999229047	-2.7576759529	-1.941645018	-0.128778
C	 0.2816128841	-3.3083018646	-2.8388855484	-0.086453
O	-0.750859666	-2.7394723488	-1.9948997812	-0.340034
H	 0.7530345236	 1.898971821	-0.9703397389	 0.105085
H	-0.1743761761	 1.5430322947	 0.5103354063	 0.106218
H	 1.6020387985	 1.702273267	 0.5871907365	 0.126944
H	-1.0428949223	-0.4920368805	-0.5350726762	 0.094382
H	-0.1052913395	-0.1639690874	-2.0070316839	 0.090632
H	 0.9406186852	-2.3449810198	 0.9354513214	 0.116505
H	-0.2385802227	-3.5898599212	 0.4368622465	 0.102776
H	 2.7185114981	-3.4512206062	-0.29075935	 0.10636
H	 1.6186086783	-4.7150615407	-0.866884608	 0.09788
H	 2.2112176841	-2.2030891531	-2.4110721798	 0.077883
H	 0.2449392756	-2.8814834131	-3.8495414845	 0.098932
H	 0.203285745	-4.4007206841	-2.9111482549	 0.097791
72.0356	77.4412	91.2665	171.1356	228.8366	268.0872	326.3292	374.1388	387.956	440.3533	659.3127	695.7175	738.6532	830.5211	853.0678	910.2074	915.108	953.5497	983.2173	999.8135	1011.779	1041.4568	1116.099	1122.3424	1148.2321	1155.5896	1169.6026	1185.9164	1192.4116	1225.15	1227.5207	1237.0193	1253.1896	1282.6797	1307.6039	1329.07	1356.8042	1415.2255	1460.947	1480.3077	1485.382	1485.8538	1500.8496	1520.0996	1524.0048	2946.775	2972.0592	2983.3988	3005.2564	3015.8723	3047.6486	3058.6983	3072.0278	3106.9662	3114.12	3121.9327	3135.6216
COCC12CCC1CO2	COC[C@]12CC[C@H]1CO2	
InChI=1S/C7H12O2/c1-8-5-7-3-2-6(7)4-9-7/h6H,2-5H2,1H3	InChI=1S/C7H12O2/c1-8-5-7-3-2-6(7)4-9-7/h6H,2-5H2,1H3/t6-,7+/m0/s1
