20
gdb 108002	3.59212	1.51806	1.36607	1.6445	80.97	-0.2191	0.0857	0.3047	1025.2061	0.17225	-365.930213	-365.922878	-365.921934	-365.961815	30.048	
C	 0.0320829156	 1.5303238425	 0.1245486786	-0.389005
C	-0.0764379264	 0.0097186678	-0.0266994149	-0.290913
C	-1.493376952	-0.5059880131	-0.0673987277	 0.36864
C	-2.6119188397	 0.0546218341	-0.9749268292	-0.291902
C	-3.5240743119	-0.4982117296	 0.1301577649	-0.010493
C	-3.280044931	-2.0080811024	 0.2615003967	-0.097689
C	-2.3856990156	-1.7864799052	 1.4436672401	-0.029855
C	-1.7478625056	-2.0168965342	 0.1069819873	-0.149703
N	-2.4058787452	-0.289109768	 1.1748127879	-0.215237
H	 1.0742506337	 1.834651688	 0.2590881849	 0.1086
H	-0.3536676814	 2.0521960839	-0.7570665716	 0.113215
H	-0.5401253715	 1.8668685455	 0.9938399605	 0.139126
H	 0.4420621744	-0.3214753363	-0.9373742301	 0.095756
H	 0.4360649414	-0.4808146038	 0.8112291364	 0.10289
H	-2.6153550397	 1.1475767244	-0.9845267098	 0.110572
H	-2.7126500196	-0.3394994498	-1.989338688	 0.095593
H	-4.5113357808	-0.0889834372	 0.3449468254	 0.073952
H	-3.9055253123	-2.8530845986	 0.0052362641	 0.088753
H	-2.2919338753	-2.2612719406	 2.4119689699	 0.092989
H	-1.1941497872	-2.8686553875	-0.2674014755	 0.084711
95.9351	175.7458	210.9799	292.029	356.5721	441.1165	543.6524	600.7502	734.5872	761.9934	792.9155	799.4541	811.6621	832.8717	841.8055	876.6795	919.5471	928.2575	951.3018	968.2827	998.0893	1014.9528	1019.4432	1038.2758	1051.4794	1062.3253	1090.4325	1145.5382	1155.2194	1198.624	1207.803	1225.3437	1248.7675	1283.4321	1302.6422	1316.3718	1364.4593	1385.6732	1406.6551	1473.9051	1476.9302	1498.042	1510.3509	3011.2442	3039.1118	3045.1817	3060.6661	3105.2119	3112.243	3118.8215	3123.2114	3184.5446	3190.9604	3206.7106
CCC12CC3C4C(C14)N23	CC[C@@]12C[C@H]3[C@@H]4[C@@H]([C@H]14)N23	
InChI=1S/C8H11N/c1-2-8-3-4-5-6(8)7(5)9(4)8/h4-7H,2-3H2,1H3	InChI=1S/C8H11N/c1-2-8-3-4-5-6(8)7(5)9(4)8/h4-7H,2-3H2,1H3/t4-,5-,6+,7-,8+/m0/s1
