21
gdb 58732	2.90465	1.3854	1.18318	1.9385	81.27	-0.2245	0.0808	0.3054	1150.9913	0.18202	-387.029206	-387.020649	-387.019705	-387.062498	33.262	
C	 0.1065546659	 1.4857295683	-0.2158997188	-0.38389
C	 0.0327346458	-0.0254871998	 0.0564548993	-0.137301
C	 0.770238995	-0.3970403526	 1.3534411635	-0.386682
C	-1.3879500277	-0.5062557066	 0.0751246959	 0.352761
C	-2.0449222766	-1.8854825847	-0.0298154661	-0.187425
C	-2.8617744082	-1.657634956	 1.2404585541	-0.231992
C	-2.6828767293	-0.1508679723	 0.9270577574	 0.015451
O	-3.4566453227	 0.0441719189	-0.2898512604	-0.29484
C	-2.4463310439	-0.7147988144	-0.9524033273	 0.013862
H	 1.1469683125	 1.8214296485	-0.2760214287	 0.109215
H	-0.3922881938	 1.7442127891	-1.1544155334	 0.120857
H	-0.3796325767	 2.0504563951	 0.5875185767	 0.116493
H	 0.5310644999	-0.5458220059	-0.7746532938	 0.077441
H	 0.3120581764	 0.0969539593	 2.2181294719	 0.114324
H	 0.7436772364	-1.4767240352	 1.5297905529	 0.116229
H	 1.8185064447	-0.0843352835	 1.3108584757	 0.111249
H	-1.6144365489	-2.803532108	-0.4108279074	 0.086675
H	-3.8932598124	-2.0212269467	 1.2880611864	 0.098799
H	-2.3058511313	-1.9550889535	 2.133349143	 0.102134
H	-2.828316771	 0.6368804032	 1.6638462393	 0.083472
H	-2.425993084	-0.7387619629	-2.0345125503	 0.103166
60.2903	123.9115	165.0421	227.271	260.176	311.5007	352.5606	452.4977	468.2301	559.5124	586.5837	761.5514	783.1914	824.1095	844.9347	906.3095	909.5482	926.1956	936.6004	942.3051	970.0671	974.3621	1009.09	1029.8663	1047.8718	1084.0736	1118.5893	1136.0032	1154.0688	1166.7876	1183.6785	1220.2122	1233.6003	1271.3953	1313.5146	1336.0768	1341.5242	1396.8015	1416.9372	1455.079	1484.4738	1488.1001	1491.2823	1502.7113	1512.7043	2997.3657	3027.4736	3032.4996	3046.6985	3093.2428	3099.5388	3105.7602	3110.1653	3110.6056	3139.1847	3190.2376	3203.5223
CC(C)C12C3CC1OC23	CC(C)[C@@]12[C@H]3C[C@@H]1O[C@@H]23	
InChI=1S/C8H12O/c1-4(2)8-5-3-6(8)9-7(5)8/h4-7H,3H2,1-2H3	InChI=1S/C8H12O/c1-4(2)8-5-3-6(8)9-7(5)8/h4-7H,3H2,1-2H3/t5-,6-,7+,8+/m0/s1
