19
gdb 84016	2.13965	1.70912	1.43363	1.6264	70.86	-0.2438	0.0678	0.3116	1026.1345	0.159292	-460.139245	-460.130825	-460.129881	-460.171765	32.595	
C	-0.2253612196	 1.5100063711	-0.0826173834	-0.422333
C	-0.0011024391	 0.0184794718	 0.0255479267	-0.066113
C	 1.3645727666	-0.6131958156	-0.1956578394	-0.01133
O	 2.4676454759	 0.2302916466	-0.4074007572	-0.235822
C	 3.1828256952	 0.4839358339	 0.7742558259	 0.012789
O	 2.3822543148	 1.0776851983	 1.7606939756	-0.228968
C	 1.4158584206	 0.1653732618	 2.26934389	-0.150331
C	 0.7204481118	-0.6331021174	 1.1749573525	 0.298921
O	 0.1296220825	-1.8205053929	 1.6281414764	-0.458135
H	 0.6349514539	 2.0721085509	 0.282482327	 0.144603
H	-0.3985397411	 1.7947022747	-1.1255100507	 0.120429
H	-1.1048244248	 1.8115728803	 0.4961654296	 0.116536
H	-0.8159488209	-0.5991046525	-0.3428896242	 0.098094
H	 1.4168235544	-1.5426900347	-0.7580761733	 0.097232
H	 3.6262148794	-0.4515197398	 1.1629857286	 0.075017
H	 3.9661382952	 1.2001989876	 0.5201658495	 0.120844
H	 1.9038418231	-0.5548397673	 2.9491722352	 0.084962
H	 0.7082731988	 0.7549302596	 2.8592182202	 0.124363
H	 0.8319508731	-2.4212367465	 1.9048732509	 0.279244
155.2259	160.1462	176.8042	220.6667	262.6316	332.0514	359.1911	393.3034	445.481	490.824	508.7707	579.7976	646.0856	767.4886	804.7257	878.9647	945.5275	964.6784	1012.9768	1025.7639	1048.6716	1057.0592	1100.3035	1131.0332	1144.622	1172.5023	1197.3524	1239.1575	1252.706	1294.9348	1317.7766	1336.7276	1352.1275	1386.4282	1418.0541	1440.5206	1458.5297	1494.041	1502.7107	1507.9803	1509.8913	2930.4837	2954.5409	3040.0011	3084.9941	3095.867	3119.0931	3129.4809	3139.589	3155.0301	3777.7672
CC1C2OCOCC12O	C[C@H]1[C@H]2OCOC[C@@]12O	
InChI=1S/C6H10O3/c1-4-5-6(4,7)2-8-3-9-5/h4-5,7H,2-3H2,1H3	InChI=1S/C6H10O3/c1-4-5-6(4,7)2-8-3-9-5/h4-5,7H,2-3H2,1H3/t4-,5+,6+/m0/s1
