19
gdb 104528	2.15064	1.39244	1.02272	2.8683	75.12	-0.2418	0.0214	0.2632	1214.5296	0.158858	-419.184101	-419.174684	-419.17374	-419.218952	33.708	
C	-1.5609968735	-0.2117602975	-0.0995131791	-0.338066
N	-0.1155960535	-0.0518139325	 0.0287447507	-0.326491
C	 0.6790721415	-0.607069024	-1.0425186954	 0.259651
C	 0.4116148505	-0.0173136275	-2.4572394831	-0.407834
C	 0.6209553784	 1.4270821522	-2.4777088892	 0.256268
N	 0.7912205255	 2.5697562617	-2.4343090704	-0.308103
C	 2.1921355762	-0.7121287342	-0.7366126124	-0.114107
O	 2.197810299	-2.1140306973	-1.0786669561	-0.272879
C	 0.7577021152	-2.1532099489	-1.089816059	-0.104848
H	-2.0120916091	 0.2821960565	-0.9758657568	 0.107767
H	-1.8067863976	-1.2781530628	-0.1513467931	 0.128457
H	-2.0429075159	 0.1928712	 0.7942945903	 0.133764
H	 0.1177904451	 0.9284717911	 0.1575233089	 0.236472
H	 1.0783449651	-0.4909938809	-3.1855076339	 0.16243
H	-0.6151943084	-0.2321365213	-2.7722898456	 0.151332
H	 2.8771857498	-0.1295720705	-1.3620856601	 0.114103
H	 2.4169429062	-0.5436333796	 0.3231708412	 0.110509
H	 0.3490322882	-2.6239115401	-0.1872267481	 0.10894
H	 0.3658250071	-2.6559552645	-1.9815738288	 0.102636
60.9688	93.8455	110.4128	131.3472	205.4253	246.8885	323.7606	349.5674	402.8103	411.5971	456.5208	543.6259	700.1499	766.0036	814.7941	890.704	893.8484	946.8758	976.5646	994.9988	1031.9148	1056.7164	1084.8659	1155.2443	1160.0268	1166.144	1176.1524	1212.9057	1244.7801	1286.7761	1309.6302	1328.0724	1389.6385	1456.3356	1464.9849	1484.6873	1496.357	1502.4123	1523.9313	1527.2722	2355.9709	2969.7332	3014.8532	3027.7183	3051.288	3063.9443	3068.8107	3080.0034	3092.7641	3112.4535	3513.2986
CNC1(CC#N)COC1	CNC1(CC#N)COC1	
InChI=1S/C6H10N2O/c1-8-6(2-3-7)4-9-5-6/h8H,2,4-5H2,1H3	InChI=1S/C6H10N2O/c1-8-6(2-3-7)4-9-5-6/h8H,2,4-5H2,1H3
