18
gdb 90825	3.29143	1.7923	1.56321	2.9342	72.35	-0.2378	0.0682	0.306	895.0256	0.150859	-401.891943	-401.885401	-401.884457	-401.922792	27.187	
O	-0.0404428344	 1.4638802979	-0.0273172132	-0.435337
C	 0.0550121817	 0.0464711667	 0.002320575	 0.111955
C	 0.7610903404	-0.5253658394	 1.277786147	-0.275491
C	-0.3364172918	-1.3190444586	 1.9963523632	-0.032498
C	-1.5310693126	-0.4984910935	 2.4807179219	-0.046245
C	-2.1925046079	 0.0178831443	 1.246461586	-0.024907
C	-1.3670338042	-0.5214756297	 0.0800867564	-0.048535
C	-1.349039698	-1.8138712928	 0.9309744705	-0.022654
N	-2.5586431772	-1.3412189424	 1.7767376864	-0.185481
H	 0.8495719386	 1.8233048629	-0.0911046235	 0.283537
H	 0.5642260624	-0.3143169668	-0.9041266464	 0.063563
H	 1.6000254463	-1.1745504821	 1.0038078984	 0.095353
H	 1.1573471263	 0.2887554205	 1.8935338534	 0.099917
H	 0.00140015	-2.0680812626	 2.713303274	 0.074311
H	-1.7141425099	-0.0831297955	 3.4649922662	 0.090885
H	-2.8949414415	 0.8413900981	 1.2530695695	 0.096865
H	-1.9089449865	-0.5669992578	-0.8642016594	 0.07717
H	-1.3387170917	-2.8159127192	 0.5071702046	 0.077589
94.1571	260.7078	294.2265	381.3934	475.7052	499.64	642.8785	681.8321	760.9756	785.7845	812.881	818.5297	846.9517	872.8358	895.4211	926.8945	953.1158	991.8851	1004.1372	1020.4626	1042.7998	1045.8464	1067.8371	1090.2065	1135.1489	1153.3009	1178.7241	1199.5275	1219.1663	1240.9599	1256.2466	1277.0165	1286.0258	1334.7792	1356.081	1367.3109	1372.8471	1426.7812	1477.1442	2977.697	3039.1476	3085.166	3107.906	3118.0141	3138.9543	3179.7227	3200.7972	3823.7231
OC1CC2C3C4C1C2N34	O[C@H]1C[C@H]2[C@H]3[C@H]4[C@@H]1[C@@H]2N34	
InChI=1S/C7H9NO/c9-3-1-2-5-4(3)7-6(2)8(5)7/h2-7,9H,1H2	InChI=1S/C7H9NO/c9-3-1-2-5-4(3)7-6(2)8(5)7/h2-7,9H,1H2/t2-,3+,4+,5-,6+,7-,8?/m1/s1
