18
gdb 8300	6.7758	0.91829	0.85949	3.236	69.75	-0.2412	-0.0185	0.2227	1332.055	0.15157	-384.937195	-384.928495	-384.927551	-384.971759	30.577	
C	-0.1549271769	 1.3703028294	-0.19650685	-0.227278
O	-0.0921863286	-0.0340092211	-0.1191884087	-0.232215
C	 0.7659715599	-0.6028443565	-1.0820302612	-0.065887
C	 0.7362869887	-2.1090300326	-0.9218337114	 0.003378
C	-0.6101809576	-2.8146012852	-1.2773075888	-0.34506
C	 0.1746670859	-3.7318985173	-2.2275546776	 0.404016
O	-0.0967673845	-4.7203858864	-2.8436165816	-0.286548
C	 1.4739953687	-2.9291335839	-2.0262715584	-0.374877
H	 0.8307675311	 1.8336158462	-0.031451446	 0.104952
H	-0.53233695	 1.7096051615	-1.1743249796	 0.104535
H	-0.8398313311	 1.7109926147	 0.5835978011	 0.129616
H	 0.4400366125	-0.3245861475	-2.1015356489	 0.079948
H	 1.7952284793	-0.222290509	-0.9589451042	 0.088866
H	 1.0765972892	-2.3723686909	 0.0823620914	 0.090821
H	-1.1488305234	-3.3186744905	-0.4712758523	 0.133161
H	-1.3174624619	-2.1674927351	-1.807758984	 0.13259
H	 1.7378460015	-2.3436921047	-2.9149875375	 0.128315
H	 2.3485437273	-3.5130322912	-1.7284518023	 0.131666
28.6956	85.3647	101.5753	165.0563	232.4081	318.0144	358.0721	411.5048	441.2124	489.6995	648.683	676.9218	782.9245	903.1601	916.1764	951.3507	974.6853	1035.6592	1069.1872	1112.2731	1129.7804	1161.334	1178.5533	1193.5287	1208.568	1226.2043	1242.4898	1256.6007	1285.2111	1354.2782	1424.0525	1426.7198	1445.4425	1480.7685	1485.9758	1502.3545	1525.0461	1895.1549	2930.8522	2963.554	2970.995	3013.7956	3046.5935	3056.1753	3082.1166	3111.0529	3115.6745	3116.0128
COCC1CC(=O)C1	COCC1CC(=O)C1	
InChI=1S/C6H10O2/c1-8-4-5-2-6(7)3-5/h5H,2-4H2,1H3	InChI=1S/C6H10O2/c1-8-4-5-2-6(7)3-5/h5H,2-4H2,1H3
