17
gdb 82154	3.18895	1.15819	1.02094	5.0143	70.08	-0.2378	0.0308	0.2686	1184.2193	0.136973	-455.117504	-455.109255	-455.10831	-455.151387	30.625	
O	-0.1054984338	 1.401998138	 0.3049645066	-0.431074
C	-0.0300439126	 0.0227784665	 0.1159104233	 0.138541
C	-1.3584059358	-0.7363286539	 0.0386124312	-0.093908
N	-2.0488916505	-0.1146630994	-1.1235275624	-0.376431
C	-1.0675187816	-1.2117954181	-1.3412037195	-0.075572
C	 0.2964558173	-0.5293861878	-1.3549876268	-0.023922
N	 0.520258855	 0.4224660787	-2.4042630186	-0.258682
C	 1.7347936722	 0.6217412239	-2.9846138435	 0.158881
O	 2.7404132595	-0.0083112693	-2.7351417137	-0.326631
H	-0.875841192	 1.6962728374	-0.1992178196	 0.28764
H	 0.6691240341	-0.3776120882	 0.8522411602	 0.10184
H	-1.9253496163	-1.2060183645	 0.8321185415	 0.105008
H	-2.9840094823	-0.512633061	-1.1821526469	 0.240717
H	-1.3654314842	-2.1279701116	-1.8355271382	 0.106176
H	 1.1404558402	-1.2180538124	-1.3390716148	 0.121359
H	-0.2472619057	 1.0274816604	-2.6512538149	 0.25243
H	 1.7005030065	 1.4330699214	-3.738465834	 0.073627
35.0278	99.3985	175.7875	205.2345	269.3953	297.5193	464.3301	492.9578	564.1659	597.6863	639.5325	701.2336	748.6684	841.7972	846.3743	854.4195	907.1117	958.3223	999.4911	1031.8422	1036.2326	1082.4006	1096.9186	1105.9751	1145.5705	1171.237	1210.5379	1238.0839	1267.4696	1319.6544	1327.817	1346.5925	1375.4696	1430.9401	1443.4284	1526.3071	1804.7232	2937.2302	3102.1274	3135.4005	3191.5708	3205.7136	3498.7361	3633.6876	3760.1799
OC1C2NC2C1NC=O	O[C@H]1[C@H]2N[C@H]2[C@H]1NC=O	
InChI=1S/C5H8N2O2/c8-1-6-3-2-4(7-2)5(3)9/h1-5,7,9H,(H,6,8)	InChI=1S/C5H8N2O2/c8-1-6-3-2-4(7-2)5(3)9/h1-5,7,9H,(H,6,8)/t2-,3+,4-,5+/m0/s1
