21
gdb 113400	4.27215	1.01381	0.95174	1.6691	83.86	-0.2514	0.0974	0.3488	1345.865	0.18249	-387.023446	-387.015049	-387.014105	-387.056636	32.695	
C	 0.4481004029	 1.45010584	 0.2651322967	-0.37273
C	-0.2868640146	 0.179655952	-0.1779989655	-0.208601
C	 0.329183597	-0.4378173883	-1.4096014807	-0.109512
O	 1.6179650625	-1.0984049573	-1.2164378788	-0.331562
C	 0.5048865624	-1.8701600116	-1.5910683011	 0.567608
C	-0.0140121874	-3.1535325013	-0.9205060694	-0.14923
C	-0.9663730192	-3.2723984336	-2.1506968639	-0.220736
C	 0.4119953239	-2.8654623407	-2.7581939534	-0.153673
C	 1.0555167477	-3.9026826301	-1.7809853904	-0.226136
H	 1.4970096172	 1.2278409929	 0.4818385491	 0.135537
H	 0.4220568197	 2.2166594935	-0.5171245993	 0.114472
H	-0.0053576621	 1.8751387682	 1.1653725916	 0.112497
H	-0.2802391544	-0.5594182477	 0.630361438	 0.102906
H	-1.3391259587	 0.4084380464	-0.393133465	 0.099784
H	 0.310678129	 0.192049279	-2.3022782759	 0.088942
H	-0.257814189	-3.3183332756	 0.1286411388	 0.078277
H	-1.3043364076	-4.2837935303	-2.3874828824	 0.096106
H	-1.7793351494	-2.5456295224	-2.2256309416	 0.093976
H	 0.6547446953	-2.6970910462	-3.8070718973	 0.078477
H	 2.1012039188	-3.7418410924	-1.5131834206	 0.112672
H	 0.8442453162	-4.9538574745	-1.9940328987	 0.090927
72.85	118.336	162.2087	211.8585	248.845	322.5913	399.8184	474.9306	500.6966	614.1974	663.2978	757.0539	787.176	795.7835	842.0956	891.2683	901.1258	933.495	941.3653	975.6837	1018.4666	1031.0977	1038.0117	1064.9975	1079.3684	1094.5551	1100.8186	1124.6332	1151.5509	1164.9357	1184.2304	1193.3046	1235.4636	1239.5789	1250.1988	1289.1463	1335.2195	1377.9783	1408.8521	1473.1189	1493.5613	1498.2319	1507.2371	1517.8112	1563.0421	3024.5103	3036.4867	3057.3893	3060.7638	3066.7463	3085.0966	3105.4104	3117.3693	3118.3021	3122.3468	3125.077	3134.4364
CCC1OC11C2CC1C2	CC[C@H]1O[C@]21[C@H]1C[C@@H]2C1	
InChI=1S/C8H12O/c1-2-7-8(9-7)5-3-6(8)4-5/h5-7H,2-4H2,1H3	InChI=1S/C8H12O/c1-2-7-8(9-7)5-3-6(8)4-5/h5-7H,2-4H2,1H3/t5-,6+,7-,8-/m1/s1
