16
gdb 75692	2.23216	1.98229	1.17524	1.2271	68.76	-0.2517	-0.0453	0.2064	1020.2027	0.123583	-437.909755	-437.901725	-437.900781	-437.942766	29.601	
C	-0.3513116451	 1.5699129995	-0.000709676	-0.397374
C	 0.0809010343	 0.1085907059	-0.0112301175	-0.219929
C	 0.902657247	-0.3694385294	-1.211471311	 0.384475
O	 0.7446253368	-0.0629661531	-2.3635091748	-0.309387
C	 1.8975916826	-1.3706131936	-0.6751778037	-0.146597
C	 3.0044532506	-0.8453040992	 0.176465288	-0.244671
N	 1.7965656239	-1.4102298577	 0.7977953126	-0.123804
C	 0.8899684379	-0.3605304533	 1.1977769943	 0.363513
O	 0.8246422443	 0.0612680469	 2.3167876532	-0.300995
H	 0.516443587	 2.2345580937	 0.0347155505	 0.12923
H	-0.9191146959	 1.7984045186	-0.9054600746	 0.141295
H	-0.9687961753	 1.7757997049	 0.8760250524	 0.143599
H	-0.8102285887	-0.5418516782	-0.0320965979	 0.154598
H	 2.0210643832	-2.3111268433	-1.2013826011	 0.132708
H	 3.903679654	-1.4416665137	 0.2915004966	 0.149252
H	 3.1573883634	 0.2295378519	 0.2376883591	 0.144088
54.3454	150.3943	190.8837	225.0035	229.6275	299.4636	413.9971	520.4665	548.6065	608.9034	665.1526	683.6075	782.6221	816.8204	860.6613	904.1407	939.4281	996.0227	1043.5657	1077.9545	1097.0576	1110.7913	1123.7838	1151.2348	1204.8255	1222.0072	1254.4619	1313.3335	1335.264	1407.2693	1491.5509	1495.4062	1508.2014	1838.177	1877.2222	2982.9105	3054.5281	3114.4367	3126.0227	3141.3552	3177.1409	3208.0971
CC1C(=O)C2CN2C1=O	C[C@H]1C(=O)[C@H]2CN2C1=O	
InChI=1S/C6H7NO2/c1-3-5(8)4-2-7(4)6(3)9/h3-4H,2H2,1H3	InChI=1S/C6H7NO2/c1-3-5(8)4-2-7(4)6(3)9/h3-4H,2H2,1H3/t3-,4+,7?/m0/s1
