17
gdb 75203	2.57146	1.69628	1.24504	1.755	69.43	-0.2209	0.0333	0.2542	1016.9371	0.135542	-455.138912	-455.130089	-455.129145	-455.171932	33.73	
N	 0.0202151551	 1.3319649318	-0.0793226903	-0.573165
C	-0.0321620915	-0.0345073341	-0.0571802009	 0.317466
N	-1.1084963165	-0.7336172353	-0.0734362045	-0.304712
C	-0.7461441602	-2.1563807222	 0.003579553	-0.223134
C	 0.7841883415	-2.2444199017	-0.0187059039	 0.273585
O	 1.4460373433	-3.1302358387	 0.8302115423	-0.469104
C	 1.4640189907	-1.7148704298	-1.2568067338	-0.387225
C	 1.2510431845	-0.8101716061	-0.0557506772	 0.282534
O	 2.3573348694	-0.3161483612	 0.6265054696	-0.474275
H	 0.8747900904	 1.734960656	 0.273394409	 0.261913
H	-0.8279886953	 1.8087269134	 0.1871171564	 0.256027
H	-1.1288794464	-2.5926454637	 0.9357007779	 0.108442
H	-1.2064742485	-2.7096697856	-0.8247460798	 0.099654
H	 1.6558607475	-3.9319890511	 0.3408110243	 0.29119
H	 2.4994541025	-2.0123659855	-1.3899732967	 0.118277
H	 0.8912313271	-1.5580017758	-2.1653166611	 0.124783
H	 2.4466885764	-0.8244124903	 1.4422098957	 0.297743
83.7291	143.2556	230.7189	239.2433	258.9182	273.4225	324.7841	400.0608	446.1725	470.2906	511.1127	534.2963	589.9368	665.5794	699.4862	725.2419	802.6603	872.2441	922.6247	950.5113	980.0881	1014.7133	1053.0413	1117.935	1165.6331	1182.413	1202.9042	1256.9605	1296.2638	1312.2208	1356.9814	1397.9202	1443.3079	1470.1497	1497.8096	1622.612	1716.5804	3016.4397	3047.5143	3121.5806	3219.6495	3576.4307	3691.9899	3777.2028	3813.62
NC1=NCC2(O)CC12O	NC1=NC[C@@]2(O)C[C@@]12O	
InChI=1S/C5H8N2O2/c6-3-5(9)1-4(5,8)2-7-3/h8-9H,1-2H2,(H2,6,7)	InChI=1S/C5H8N2O2/c6-3-5(9)1-4(5,8)2-7-3/h8-9H,1-2H2,(H2,6,7)/t4-,5+/m0/s1
