19
gdb 30839	2.56162	1.24878	0.89153	0.23	80.21	-0.1685	0.0645	0.233	1323.6747	0.158728	-419.233652	-419.223676	-419.222732	-419.268752	36.144	
C	 0.1505632107	 1.0062006036	-0.5025802193	-0.323196
N	-0.4506969907	 0.2497086975	 0.6019229743	-0.39131
C	 0.4120265968	-0.6202634309	 1.2962832988	 0.170412
C	 0.8155820969	-1.920317054	 1.0944516929	 0.265904
C	 0.409336842	-2.8136478617	-0.0374383054	-0.509131
C	 1.6969084871	-2.266846158	 2.1765496406	-0.403104
C	 1.799628368	-1.157821689	 2.9782803198	 0.384729
O	 2.4830207712	-0.8939996281	 4.1235411621	-0.439402
N	 1.0323332042	-0.162066511	 2.4554382476	-0.319492
H	 0.5758777204	 0.3744576267	-1.2975487483	 0.106539
H	-0.6065487508	 1.6626109427	-0.9434297265	 0.112635
H	 0.9550553861	 1.6362168388	-0.1116806049	 0.124936
H	-1.2797724515	-0.2379823204	 0.2874338981	 0.229031
H	 1.2736731499	-3.1538576829	-0.6206390151	 0.121659
H	-0.1098299399	-3.7134387164	 0.3154726631	 0.120008
H	-0.265428949	-2.2957279459	-0.7265416954	 0.105831
H	 2.1953164074	-3.2129107667	 2.3279005628	 0.078711
H	 2.9834755802	-1.6807636436	 4.3592111923	 0.304255
H	 0.854319601	 0.7282637995	 2.8868773024	 0.260985
45.1734	120.1797	135.7066	176.0733	204.2384	231.2916	252.9585	283.485	317.2177	417.1601	439.2425	502.9793	586.5142	629.2242	656.0107	666.1896	716.4114	739.2361	811.9704	984.968	1033.2308	1041.5748	1061.1747	1128.1541	1160.0266	1167.5498	1173.0932	1195.5672	1265.6639	1328.5619	1412.6339	1438.5248	1456.4458	1478.2	1482.361	1489.8246	1497.0959	1514.1298	1541.1072	1592.6193	1651.9511	2982.2069	3016.1765	3061.3781	3069.1203	3092.8718	3107.9414	3233.2331	3553.3727	3683.8649	3847.7382
CNC1=C(C)C=C(O)N1	CNc1c(C)cc(O)[nH]1	
InChI=1S/C6H10N2O/c1-4-3-5(9)8-6(4)7-2/h3,7-9H,1-2H3	InChI=1S/C6H10N2O/c1-4-3-5(9)8-6(4)7-2/h3,7-9H,1-2H3
