18
gdb 57325	1.81019	1.65304	1.08121	4.5681	76.03	-0.2692	-0.0087	0.2605	1169.7242	0.145764	-398.152317	-398.142211	-398.141267	-398.186904	36.771	
C	-0.0228981358	 1.5247780655	 0.1671907499	-0.430768
C	 0.0218857458	-0.0088953737	 0.0627136716	 0.217656
C	 0.7615033004	-0.6179398182	 1.2594340586	-0.424141
N	-1.2998795637	-0.6381176167	-0.0253905919	-0.535363
C	 0.7675025229	-0.4524755422	-1.2594141014	-0.267301
C	 0.0376878072	-0.0069916062	-2.4537173396	 0.300712
N	-0.5768805867	 0.3447791056	-3.3659355631	-0.319227
C	 2.1600529385	 0.0077508477	-1.3090268309	 0.305955
N	 3.2596031841	 0.3604284264	-1.3116799747	-0.319404
H	 0.9797507858	 1.9617705807	 0.2084510491	 0.142958
H	-0.5510257972	 1.9621626736	-0.6860166111	 0.138838
H	-0.5557730989	 1.8115609288	 1.0786358029	 0.120775
H	 0.2654565178	-0.3194214055	 2.1885479736	 0.123874
H	 0.7513628315	-1.7103209333	 1.2052602415	 0.133033
H	 1.7967705858	-0.2725242803	 1.3088765452	 0.149725
H	-1.7629669753	-0.5815844428	 0.8764041994	 0.235345
H	-1.8896219738	-0.139904077	-0.6872471151	 0.245633
H	 0.7635932418	-1.5485947122	-1.2623267443	 0.181701
71.228	135.6462	145.7076	166.7134	219.9166	248.7151	278.3004	311.4504	326.4197	389.6926	394.4368	410.2975	435.7555	524.623	575.5112	590.7972	766.6737	835.1512	912.1589	938.6123	956.0358	988.3391	1012.78	1051.9769	1084.6967	1177.3454	1244.4687	1270.647	1306.2707	1344.2744	1404.1365	1423.5475	1482.9347	1486.5559	1503.018	1507.6616	1658.1208	2364.2134	2369.8093	3036.2631	3044.0634	3058.229	3110.3327	3112.3973	3114.7129	3132.6097	3489.3866	3570.4551
CC(C)(N)C(C#N)C#N	CC(C)(N)C(C#N)C#N	
InChI=1S/C6H9N3/c1-6(2,9)5(3-7)4-8/h5H,9H2,1-2H3	InChI=1S/C6H9N3/c1-6(2,9)5(3-7)4-8/h5H,9H2,1-2H3
