19
gdb 111528	3.33422	1.2334	1.12227	2.7766	76.4	-0.2473	0.0804	0.3277	1169.0128	0.158109	-422.955903	-422.947515	-422.946571	-422.989097	31.748	
C	 0.1122808152	 1.0483981705	-0.3387234675	-0.236521
O	-0.1095713266	-0.0400720535	 0.5359729079	-0.233431
C	-1.3277063192	-0.6699875722	 0.3088243665	 0.141226
C	-1.5072883235	-1.7206640773	-0.745355483	-0.119584
C	-0.2093147012	-2.5306865876	-0.9123654464	-0.339405
C	-0.3197521622	-2.9166254093	 0.5727508222	 0.500125
C	-0.0202564064	-4.2089169282	 1.1876694995	-0.275369
O	 0.7528318012	-3.0369482985	 1.4856196748	-0.266187
C	-1.5502093188	-2.0683014439	 0.7788019019	-0.236446
H	 1.0878102485	 1.469434634	-0.0861718327	 0.131471
H	 0.1164225283	 0.7315198458	-1.3916802262	 0.109591
H	-0.6553270087	 1.8279423255	-0.2157648097	 0.105377
H	-2.1941941498	-0.017011055	 0.4414538562	 0.085817
H	-2.32959872	-1.7137735534	-1.4495172442	 0.0915
H	-0.3084772905	-3.3853918636	-1.5851564128	 0.107644
H	 0.6777637596	-1.9528245711	-1.1819792345	 0.11808
H	-0.6380383697	-4.5804744861	 2.0053062785	 0.111973
H	 0.4936398103	-4.9775003857	 0.6105296088	 0.111356
H	-2.3905798065	-2.3295953804	 1.4114917107	 0.092786
83.4094	96.6074	175.6384	232.8551	247.0683	297.4306	368.624	395.1359	511.4388	592.2485	631.3683	739.4611	798.9999	829.4946	878.4107	896.7509	926.9551	963.6295	976.4213	986.6743	1029.0077	1070.6947	1090.0261	1112.2219	1121.8884	1151.3952	1170.0554	1181.6409	1190.8366	1194.2657	1243.0694	1251.2095	1287.3926	1322.9143	1419.0474	1445.6465	1475.7181	1485.8505	1489.7656	1508.6004	1538.6019	2980.4425	3031.1871	3065.847	3071.7432	3073.7905	3119.2912	3122.5717	3156.3556	3177.2494	3194.7379
COC1C2CC3(CO3)C12	CO[C@H]1[C@H]2C[C@]3(CO3)[C@@H]12	
InChI=1S/C7H10O2/c1-8-6-4-2-7(3-9-7)5(4)6/h4-6H,2-3H2,1H3	InChI=1S/C7H10O2/c1-8-6-4-2-7(3-9-7)5(4)6/h4-6H,2-3H2,1H3/t4-,5+,6-,7-/m0/s1
