18
gdb 115033	2.07142	1.54956	0.9806	3.0622	76.85	-0.2597	0.0022	0.2619	1194.8695	0.148373	-401.967798	-401.959108	-401.958163	-402.001521	32.041	
O	-0.0353654053	 1.3574618073	-0.3377390744	-0.423835
C	 0.0007309623	-0.0618178068	-0.3737691663	-0.096398
C	-1.3658237682	-0.5587288506	 0.1014244621	-0.009357
C	-2.4938946149	-0.083258168	-0.8549197808	-0.267989
C	-2.7658838486	-1.2878553804	-1.7186355874	-0.069808
C	-2.2146958758	-2.3964857026	-1.2349018666	-0.062821
C	-1.4813369093	-2.1230231084	 0.0711227648	-0.204941
C	-0.2126322146	-2.8451831493	 0.1934103734	 0.273085
N	 0.7803561987	-3.4294760307	 0.2901886302	-0.339458
H	 0.8139611038	 1.6862853841	-0.6457078284	 0.291181
H	 0.1976675851	-0.4331334674	-1.3921405691	 0.10046
H	 0.7899032704	-0.4562338796	 0.2806470044	 0.11328
H	-1.5171622031	-0.1840587032	 1.1166559	 0.094619
H	-3.3969880873	 0.2062483334	-0.3011955376	 0.111995
H	-2.1815683924	 0.8010110522	-1.4178606333	 0.132093
H	-3.375657906	-1.2421772707	-2.6140378121	 0.10576
H	-2.285554361	-3.3936387152	-1.6507088	 0.116916
H	-2.1027252737	-2.4577813941	 0.9144434413	 0.135217
69.1827	122.435	137.6811	195.2806	250.9622	260.4911	353.8805	389.6208	440.2808	519.7611	570.7851	689.6188	751.996	795.5418	827.3994	876.7713	933.3386	959.9986	974.3449	1029.8505	1043.3071	1067.6993	1079.6896	1104.4076	1135.5512	1193.5188	1201.6102	1254.5733	1264.1496	1292.1391	1312.1954	1324.3122	1357.6462	1376.5491	1460.7805	1494.0337	1521.573	1689.3541	2352.1405	2979.685	3000.19	3021.3215	3028.6542	3083.587	3088.0837	3192.8993	3223.246	3836.2373
OCC1CC=CC1C#N	OC[C@H]1CC=C[C@H]1C#N	
InChI=1S/C7H9NO/c8-4-6-2-1-3-7(6)5-9/h1-2,6-7,9H,3,5H2	InChI=1S/C7H9NO/c8-4-6-2-1-3-7(6)5-9/h1-2,6-7,9H,3,5H2/t6-,7+/m0/s1
