18
gdb 23582	4.28405	1.24998	1.18992	1.2604	79.91	-0.2338	0.0191	0.2529	1079.6989	0.149911	-401.868912	-401.861959	-401.861015	-401.900149	28.639	
O	-0.1541646559	 1.3781322559	 0.088801208	-0.401823
N	 0.0431683761	-0.0214216866	-0.0022457042	-0.313396
C	-1.0625105813	-0.6303910992	-0.0783214771	 0.48559
C	-2.5492158551	-0.3283319511	 0.0018152039	-0.146712
C	-2.9998522268	-0.8861977718	-1.3741982149	-0.212431
C	-2.5834494842	-2.3466226389	-1.0777284426	-0.045834
C	-3.5185431972	-2.6957059528	 0.1099206274	-0.240417
C	-2.6581867159	-1.6730398726	 0.8634071786	-0.028861
C	-1.413379608	-2.0825973641	-0.0203395137	-0.125202
H	 0.7512317255	 1.7000246249	 0.150128283	 0.303317
H	-2.930549382	 0.6291541965	 0.3443462417	 0.089308
H	-4.0740311513	-0.7922075187	-1.5580429658	 0.097333
H	-2.4579537327	-0.4237885126	-2.2031788321	 0.10961
H	-2.4457166834	-3.0234819193	-1.9197884338	 0.070221
H	-4.5923293894	-2.5224875744	-0.0136116548	 0.092997
H	-3.34903504	-3.704336931	 0.4974054993	 0.102184
H	-2.6025966477	-1.5754053245	 1.9456571266	 0.081558
H	-0.7210397107	-2.8843306499	 0.2219230007	 0.082557
114.1832	184.05	301.3391	372.3892	402.7688	447.7152	483.2997	667.3312	677.7984	714.2664	746.1855	803.4013	814.4707	829.9297	910.9621	913.8583	932.8434	960.5742	968.3016	990.25	1000.8903	1038.9668	1060.3122	1086.9607	1136.984	1140.9694	1157.458	1193.1691	1202.7928	1227.9303	1235.211	1256.1841	1275.9978	1304.5967	1316.0588	1409.2448	1492.8985	1513.2208	1798.8044	3044.6728	3055.7699	3101.0051	3105.6883	3124.7026	3138.4804	3160.51	3166.2803	3821.503
ON=C1C2CC3CC2C13	ON=C1[C@H]2C[C@@H]3C[C@H]2[C@H]13	
InChI=1S/C7H9NO/c9-8-7-5-2-3-1-4(5)6(3)7/h3-6,9H,1-2H2	InChI=1S/C7H9NO/c9-8-7-5-2-3-1-4(5)6(3)7/h3-6,9H,1-2H2/t3-,4+,5-,6+/m0/s1
