17
gdb 84160	2.87914	1.35598	0.9792	4.1386	70.92	-0.2548	-0.0059	0.2489	1188.3474	0.135367	-459.005398	-458.996937	-458.995993	-459.038579	31.559	
C	 0.3486705865	 1.5384227429	 0.1565808707	-0.485349
C	 0.0571715394	 0.0768291462	-0.0209335496	 0.2808
C	 0.2458948463	-0.6130093666	-1.1426558938	-0.190023
C	-0.1597668124	-2.0619450654	-1.2027961167	-0.034046
O	 0.485031062	-2.7537171002	-2.2364259778	-0.436012
C	 0.1357949038	-2.7375223736	 0.1373670292	 0.402134
O	 0.5808892484	-3.8566890861	 0.1890986382	-0.351025
O	-0.1146455903	-2.040963814	 1.2517063249	-0.219499
C	-0.5172068758	-0.6577363635	 1.1648367433	-0.158143
H	 1.1055365927	 1.7010858806	 0.9339404221	 0.135774
H	 0.7093074851	 1.9843613599	-0.7731813674	 0.136119
H	-0.5475337577	 2.0895995794	 0.469545668	 0.131644
H	 0.6611171562	-0.178799156	-2.0460158829	 0.114003
H	-1.2594923485	-2.1178423157	-1.3360215608	 0.107631
H	 0.7557636161	-3.5998366412	-1.8466873965	 0.297537
H	-0.1814885419	-0.2160976341	 2.1069434003	 0.136155
H	-1.6161818899	-0.6203972526	 1.1593350687	 0.132299
75.3757	144.2437	180.4277	199.6192	284.3351	330.2489	400.679	426.5976	429.7583	490.1795	497.8482	592.316	616.4638	763.2135	806.7795	897.1281	910.2708	976.4974	1023.9151	1065.2739	1079.8723	1089.8816	1121.3633	1202.5318	1214.0632	1243.6026	1260.8721	1323.8362	1360.4913	1413.1787	1419.4562	1444.633	1479.2748	1489.1732	1502.0786	1745.0351	1827.1771	2890.8144	3006.11	3019.5508	3066.6159	3091.9183	3122.6225	3191.2602	3702.8351
CC1=CC(O)C(=O)OC1	CC1=C[C@@H](O)C(=O)OC1	
InChI=1S/C6H8O3/c1-4-2-5(7)6(8)9-3-4/h2,5,7H,3H2,1H3	InChI=1S/C6H8O3/c1-4-2-5(7)6(8)9-3-4/h2,5,7H,3H2,1H3/t5-/m1/s1
