14
gdb 25533	4.79705	0.95946	0.82215	2.5257	68.83	-0.1999	-0.0012	0.1987	1316.5535	0.10042	-470.011528	-470.003074	-470.002129	-470.046186	29.492	
N	 0.0538494567	 1.231572347	-0.1760536401	-0.415121
C	-0.0868968698	 0.0283552582	 0.1485998107	 0.113734
O	-0.9498821381	-0.7516270602	-0.585479943	-0.211625
C	-1.0195500736	-2.054814345	-0.2662060934	 0.381084
C	-2.0502927496	-2.8343628867	 0.0657629189	-0.204982
N	-1.5282857118	-4.1277920546	 0.1882076109	-0.335753
C	-0.1799671769	-4.1265502989	-0.0871884653	 0.479886
N	 0.6031747746	-5.1194552487	-0.0814218924	-0.597961
O	 0.1420389855	-2.7996035189	-0.3668334767	-0.24485
H	 0.7086296277	 1.6923975616	 0.452564947	 0.243723
H	 0.3913730383	-0.5204007439	 0.965362966	 0.121182
H	-3.0850603295	-2.593919658	 0.2279419989	 0.161366
H	-2.0434405416	-4.976471058	 0.3341503412	 0.279989
H	 1.548134108	-4.8452431141	-0.3330033127	 0.229328
41.4559	78.052	86.6065	121.7307	281.8225	362.3839	416.4479	458.4551	529.6041	613.8501	703.3184	710.7838	733.3309	749.3669	813.5956	827.9087	927.7201	962.8176	1026.0476	1040.6222	1045.7718	1099.8467	1201.1568	1250.0839	1316.9685	1368.144	1403.1055	1412.3259	1727.3457	1777.7523	1813.2861	3083.5694	3305.8131	3524.6941	3553.5836	3709.825
N=COC1=CNC(=N)O1	[NH][CH]OC1=CN[C@H]([NH])O1	
InChI=1S/C4H5N3O2/c5-2-8-3-1-7-4(6)9-3/h1-2,5H,(H2,6,7)	InChI=1S/C4H6N3O2/c5-2-8-3-1-7-4(6)9-3/h1-2,4-7H/t4-/m0/s1
