18
gdb 17893	2.72411	2.38438	2.14158	1.4215	66.47	-0.2335	0.0828	0.3163	780.5729	0.155593	-384.919946	-384.913078	-384.912134	-384.950598	27.064	
C	-0.117664774	 1.6406090535	 0.0021035013	-0.443161
C	 0.0622814946	 0.1295048048	 0.0151678427	 0.02656
C	 1.0910441509	-0.6150705339	-0.8740644207	 0.046206
C	 2.4419592643	 0.0859402757	-0.9031009964	-0.070827
O	 2.724896435	 0.7047305886	 0.3500685298	-0.271059
C	 2.1443845702	 0.0711974714	 1.4880632528	-0.070826
C	 0.8428500419	-0.6273681927	 1.1203067993	 0.046207
O	 1.1860740159	-1.6557586198	 0.1440117012	-0.303125
H	 0.8305688967	 2.1668007063	 0.1232822371	 0.145155
H	-0.5738941656	 1.963606027	-0.9402196	 0.116724
H	-0.7912905962	 1.9528231997	 0.8078314424	 0.116725
H	-0.9025132938	-0.3707278134	-0.1079835595	 0.088923
H	 0.7934182472	-1.0031792416	-1.8526738781	 0.077307
H	 3.2135358075	-0.6571366338	-1.1556164593	 0.104089
H	 2.4684282226	 0.8844990581	-1.6538511769	 0.104852
H	 2.8316626611	-0.6760542218	 1.9129415157	 0.104089
H	 1.9848368182	 0.860541245	 2.2320412845	 0.104852
H	 0.3150412635	-1.0268808831	 1.9913370939	 0.077307
200.4715	210.5528	225.5124	231.9385	364.3394	428.8428	498.1592	610.0522	633.6647	776.7044	826.1968	848.1382	868.73	895.7252	960.7557	972.4665	1010.6473	1021.2232	1071.1396	1076.8169	1101.2723	1160.4298	1169.4568	1191.4743	1245.6252	1247.2259	1268.5469	1322.5392	1336.6034	1359.6802	1372.025	1379.8917	1412.26	1427.1573	1485.8451	1492.9446	1499.396	1515.3968	2989.8453	2996.3521	3035.167	3057.333	3058.3283	3063.7035	3070.7224	3078.2297	3090.2096	3137.87
CC1C2COCC1O2	C[C@H]1[C@H]2COC[C@@H]1O2	
InChI=1S/C6H10O2/c1-4-5-2-7-3-6(4)8-5/h4-6H,2-3H2,1H3	InChI=1S/C6H10O2/c1-4-5-2-7-3-6(4)8-5/h4-6H,2-3H2,1H3/t4-,5+,6-
