14
gdb 66714	2.85861	1.73057	1.30863	4.5517	71.19	-0.235	-0.0093	0.2257	944.409	0.101078	-395.608378	-395.601139	-395.600195	-395.640048	27.842	
N	 0.0143026111	 1.4319993723	 0.0592275662	-0.631666
C	 0.0474598328	 0.0362479379	 0.0139281981	 0.270615
C	 0.9199910416	-1.0134473533	 0.7731837538	-0.08718
C	-0.2106141454	-1.976098513	 0.7584283986	-0.042592
C	-1.0932291993	-0.9597941089	-0.0059310446	-0.207762
C	-0.0515463586	-1.0152183348	-1.1224152146	 0.2646
C	-0.1641449554	-0.8730189834	-2.5219566237	 0.134267
N	-0.258641063	-0.7069409594	-3.6656480773	-0.353509
N	 0.8094508822	-2.0104051393	-0.3490357742	-0.202312
H	 0.692138688	 1.8736661102	-0.5517641891	 0.255319
H	-0.9035896844	 1.8192935697	-0.1166151484	 0.25308
H	 1.8034126722	-0.9363390208	 1.3943232918	 0.113061
H	-0.4413392989	-2.843243806	 1.3643897678	 0.114125
H	-2.158563783	-0.7901826912	-0.0779062144	 0.119954
105.8393	160.0188	195.7466	295.2246	343.8426	492.6587	516.071	553.8588	637.139	707.5958	727.5361	754.6562	782.0014	803.8192	840.8533	874.0486	928.8233	946.1305	955.1418	1003.6776	1014.2534	1070.4024	1135.5324	1186.4704	1227.5204	1270.6406	1309.83	1339.8814	1461.157	1652.4994	2325.2173	3188.2261	3203.316	3220.6434	3522.8194	3614.9826
NC12C3C4C1C2(C#N)N34	N[C@@]12[C@H]3[C@H]4[C@@H]1[C@]2(C#N)N34	
InChI=1S/C6H5N3/c7-1-5-3-2-4(9(2)5)6(3,5)8/h2-4H,8H2	InChI=1S/C6H5N3/c7-1-5-3-2-4(9(2)5)6(3,5)8/h2-4H,8H2/t2-,3-,4-,5+,6-,9?/m1/s1
