20
gdb 61244	3.24686	0.83233	0.78421	6.425	80.41	-0.2504	0.0408	0.2912	1528.6912	0.170872	-399.314102	-399.304049	-399.303105	-399.34971	36.221	
C	 1.2279533893	 0.8704527248	-0.781434129	-0.401431
C	 0.750690042	-0.434158443	-0.1886904726	-0.006401
N	 1.7788272559	-1.4130541188	 0.2070997198	-0.339523
C	 0.9072919931	-0.8305232031	 1.2398032058	-0.044954
C	 1.5659347734	 0.0326455726	 2.3051434569	 0.021764
N	 0.6292378498	 0.8579222787	 3.0663299671	-0.499604
C	 2.363090018	-0.8728190586	 3.2688433057	-0.33692
C	 3.1548572349	-0.1250846505	 4.2418614707	 0.275848
N	 3.8025302355	 0.4530274671	 5.0041259227	-0.312026
H	 2.1502614209	 1.214002986	-0.3085514452	 0.135511
H	 1.4335557012	 0.7464770829	-1.8497435684	 0.12745
H	 0.4670503088	 1.6517367294	-0.6764256585	 0.116873
H	-0.1368947121	-0.8381243978	-0.6754175545	 0.086938
H	 1.4915587325	-2.3599793908	-0.023047595	 0.233786
H	 0.1171640095	-1.4687016471	 1.6425453139	 0.07424
H	 2.2816084251	 0.7054275009	 1.8245542074	 0.10874
H	 0.1728036022	 1.523453849	 2.4502476844	 0.234812
H	-0.1087272477	 0.2804616791	 3.4623242349	 0.223726
H	 1.6761890487	-1.5358910208	 3.8107584063	 0.135508
H	 3.0309908393	-1.51058055	 2.6808609176	 0.165664
52.7252	74.9403	108.8406	169.9468	204.6218	210.234	237.2179	337.9955	377.7934	392.6707	403.84	455.3797	527.1518	595.0246	784.6541	815.0727	854.7268	895.1269	928.7954	948.867	967.0553	989.9806	1012.6655	1046.5964	1095.0831	1137.287	1157.0052	1161.1984	1194.3485	1251.102	1270.9702	1291.6314	1304.6849	1353.6646	1396.8366	1406.0258	1427.4667	1465.4927	1467.3012	1491.5901	1504.895	1660.7504	2365.6035	3031.5739	3037.9462	3069.3022	3081.8336	3093.235	3097.4768	3104.5092	3134.6536	3482.1425	3509.262	3567.4052
CC1NC1C(N)CC#N	C[C@H]1N[C@H]1[C@@H](N)CC#N	
InChI=1S/C6H11N3/c1-4-6(9-4)5(8)2-3-7/h4-6,9H,2,8H2,1H3	InChI=1S/C6H11N3/c1-4-6(9-4)5(8)2-3-7/h4-6,9H,2,8H2,1H3/t4-,5+,6-/m1/s1
