15
gdb 18693	3.21809	2.38395	1.52176	5.036	60.9	-0.2518	-0.0022	0.2496	808.4039	0.121332	-399.807937	-399.801436	-399.800492	-399.838796	24.732	
O	 0.0678091315	 0.0062086731	 0.2176833908	-0.332061
C	 0.0193312049	 1.1770591495	-0.0402921941	 0.46096
O	-1.1781793901	 1.7937418676	-0.1961480651	-0.230539
C	-1.2360389258	 3.0339391319	-0.9255433172	-0.076168
C	-0.2820674826	 4.0906846229	-0.3801523939	-0.22211
C	 1.1253283185	 3.5184910719	-0.2842718479	-0.04399
N	 1.4613841776	 2.9276907597	 1.0141632739	-0.318203
C	 1.2464819197	 2.0395859	-0.1550511462	-0.179778
H	-1.0171253439	 2.8274663376	-1.9812980339	 0.113777
H	-2.2777422803	 3.3532413726	-0.8533199163	 0.127888
H	-0.3058493214	 4.9622558793	-1.0423272988	 0.109615
H	-0.6066733492	 4.4134362723	 0.6131624967	 0.132791
H	 1.9122766492	 4.0338988095	-0.8283604801	 0.097422
H	 2.4597602602	 2.994509616	 1.195660689	 0.242877
H	 2.1038623817	 1.5177370061	-0.5661279767	 0.117518
86.7723	224.4345	233.2287	404.4325	431.0773	458.2493	528.9691	684.8419	744.0972	767.4064	812.8094	879.651	909.8245	930.9176	945.5864	1009.7259	1041.9138	1105.633	1107.857	1160.4327	1176.6841	1240.37	1253.2433	1257.0877	1294.9962	1365.1014	1394.1724	1417.5979	1443.6858	1470.2058	1510.8934	1851.74	3024.5167	3053.5514	3101.1999	3113.2557	3143.0128	3174.638	3504.8615
O=C1OCCC2NC12	O=C1OCC[C@H]2N[C@@H]12	
InChI=1S/C5H7NO2/c7-5-4-3(6-4)1-2-8-5/h3-4,6H,1-2H2	InChI=1S/C5H7NO2/c7-5-4-3(6-4)1-2-8-5/h3-4,6H,1-2H2/t3-,4-/m1/s1
