16
gdb 56722	2.03254	1.40172	1.24622	3.807	75.08	-0.2688	0.0099	0.2787	1115.4581	0.121905	-400.705847	-400.696622	-400.695678	-400.739976	33.848	
O	-0.3291401087	 1.2777125503	 0.0704771427	-0.403468
C	 0.0298999102	-0.0809605701	 0.0003193249	-0.095773
C	 0.8461098797	-0.3609307332	-1.2063579909	 0.270768
N	 1.47992723	-0.5725488161	-2.1487066956	-0.319208
C	 0.7482220802	-0.5709904807	 1.2620579236	 0.141455
C	-0.1166774255	-1.1069231144	 2.3918426626	-0.308989
C	 0.7070469864	-2.0569593109	 1.574529109	-0.291193
C	 1.9196346571	 0.1967638724	 1.5857463585	 0.251874
C	 2.8752038176	 0.8908067751	 1.8167913248	-0.434174
H	 0.471077557	 1.7774877106	 0.2816921869	 0.298414
H	-0.9087315397	-0.6358952144	-0.1038966353	 0.13649
H	 0.2044612882	-0.8845110617	 3.4019318735	 0.139372
H	-1.1903625709	-1.0841364154	 2.2413021512	 0.132786
H	 0.2047447326	-2.6951694839	 0.855251763	 0.133804
H	 1.5943120059	-2.4906773598	 2.0186739425	 0.140681
H	 3.7357496799	 1.4773271723	 2.0264774487	 0.207161
56.1837	113.7447	139.829	208.8875	219.4413	251.0809	318.7102	381.1528	422.1136	470.063	542.9676	566.3176	598.4261	619.5158	680.9919	754.9832	780.7317	876.5391	914.321	947.2942	975.8832	997.3751	1064.8885	1086.3469	1090.8227	1190.2852	1235.9855	1276.8607	1309.2491	1358.8084	1426.4431	1467.3908	1495.9449	2231.2249	2357.0371	3063.1438	3141.6562	3145.2284	3228.4979	3241.8266	3498.9841	3763.1201
OC(C#N)C1(CC1)C#C	O[C@@H](C#N)C1(CC1)C#C	
InChI=1S/C7H7NO/c1-2-7(3-4-7)6(9)5-8/h1,6,9H,3-4H2	InChI=1S/C7H7NO/c1-2-7(3-4-7)6(9)5-8/h1,6,9H,3-4H2/t6-/m0/s1
