20
gdb 98670	3.40721	1.0014	0.94097	2.0319	75.83	-0.2247	0.0081	0.2328	1358.6228	0.170416	-440.299744	-440.290071	-440.289127	-440.335161	34.401	
C	 0.4104843862	 1.3394347631	 0.1227437724	-0.24014
O	 0.1830080906	-0.0764669374	 0.1139446928	-0.230017
C	 0.7307026241	-0.7583763146	 1.1356031341	 0.436007
O	 1.3672902019	-0.2444708533	 2.0243907652	-0.369751
C	 0.4469531578	-2.2418108551	 1.0108536497	-0.074049
C	 1.4280549481	-2.9977550505	 0.063277744	-0.27158
C	 2.0325456917	-3.6297831963	 1.3484637762	 0.086488
C	 3.4271571536	-3.1521855606	 1.7308282622	-0.408906
N	 0.9100456629	-3.0536715644	 2.1481882675	-0.331388
H	 1.4805998481	 1.5584994686	 0.0857499485	 0.140581
H	-0.089807474	 1.7261334989	-0.7649996199	 0.13525
H	-0.0088668902	 1.7900795101	 1.0256979947	 0.143096
H	-0.6147875986	-2.3659069968	 0.7706625573	 0.096896
H	 0.9278883955	-3.7026405755	-0.601895004	 0.1135
H	 2.1025589981	-2.3714490645	-0.5241470116	 0.109635
H	 2.0066439193	-4.7259098588	 1.3573507525	 0.074048
H	 3.4847011963	-2.0591721675	 1.7239222653	 0.133121
H	 3.6906959619	-3.4983985977	 2.7366671084	 0.119157
H	 4.1772171083	-3.5470887293	 1.0361860331	 0.113009
H	 1.2212206283	-2.4738465184	 2.9233655918	 0.225043
45.123	79.687	111.1972	131.7334	192.5056	252.7946	273.3555	323.1688	341.9837	399.6031	433.5613	648.9142	718.7389	748.7887	790.8257	844.0203	879.7604	916.4656	959.8504	980.0786	1022.2587	1090.4922	1094.008	1117.0855	1154.7944	1178.4505	1190.2931	1208.5112	1224.8415	1243.7672	1265.8864	1312.3573	1322.3957	1380.0164	1406.7949	1428.6429	1473.8653	1482.1518	1486.6937	1493.1131	1496.7967	1502.6202	1804.8551	3022.7573	3027.2859	3041.7632	3052.4305	3077.7468	3091.8793	3110.7458	3127.4171	3134.2743	3160.0686	3504.8922
COC(=O)C1CC(C)N1	COC(=O)[C@H]1C[C@@H](C)N1	
InChI=1S/C6H11NO2/c1-4-3-5(7-4)6(8)9-2/h4-5,7H,3H2,1-2H3	InChI=1S/C6H11NO2/c1-4-3-5(7-4)6(8)9-2/h4-5,7H,3H2,1-2H3/t4-,5-/m1/s1
