21
gdb 95306	2.58984	1.69476	1.42221	2.3816	76.45	-0.2485	0.0767	0.3252	1023.2772	0.185935	-424.248495	-424.240983	-424.240039	-424.280019	30.768	
C	-0.0325044964	 1.5585396651	-0.0498050096	-0.415882
C	 0.016353317	 0.0292885535	-0.0008558003	 0.002902
C	 0.6470745281	-0.5439294966	-1.2866281369	-0.07565
O	 0.9396465436	-1.9369982336	-1.2096892787	-0.267014
C	 1.5900595267	-2.295772151	-0.0064792136	 0.216552
C	 0.6620196991	-2.0643567011	 1.1873775071	-0.260299
C	 0.7694044384	-0.5300706501	 1.2318302871	-0.041086
C	 2.2955360107	-0.3851037365	 1.1048220396	-0.090209
O	 2.7119061133	-1.4700631471	 0.2562776619	-0.269048
H	 0.9709164086	 1.9958822164	-0.0905556192	 0.118842
H	-0.5773337293	 1.9074233717	-0.9336852484	 0.117736
H	-0.5378934932	 1.9630283563	 0.8332459159	 0.115442
H	-1.0147914368	-0.3420765231	 0.0652407549	 0.077867
H	-0.0318282919	-0.4260697115	-2.136019095	 0.105784
H	 1.5687772183	 0.0093036198	-1.5185011626	 0.101926
H	 1.9414205452	-3.3187066814	-0.1527349252	 0.085409
H	-0.347321631	-2.438361429	 1.0080418514	 0.10603
H	 1.0689880768	-2.5311153352	 2.090188412	 0.10023
H	 0.3918806278	-0.0833880194	 2.1557118582	 0.06617
H	 2.6164878383	 0.5594044376	 0.6527835852	 0.105052
H	 2.7864922967	-0.4815081548	 2.0823024364	 0.099246
157.6348	209.5798	243.7742	263.5388	329.8249	395.9772	425.8344	487.5111	510.8929	576.472	738.3575	777.2579	831.8592	870.4856	908.9136	921.1293	934.2721	943.3919	966.305	997.6746	1016.975	1030.6731	1067.7307	1108.6147	1118.2813	1129.0933	1163.2392	1184.6309	1218.1901	1239.1323	1271.875	1310.3443	1318.1565	1331.7577	1351.3971	1370.764	1385.7079	1390.8071	1409.9093	1423.5819	1487.8	1496.0034	1499.6947	1507.0537	1526.9701	3000.4698	3013.3057	3017.4986	3030.6156	3053.9627	3064.8253	3072.666	3085.5036	3097.386	3101.236	3106.6028	3122.7028
CC1COC2CC1CO2	C[C@H]1CO[C@@H]2C[C@H]1CO2	
InChI=1S/C7H12O2/c1-5-3-8-7-2-6(5)4-9-7/h5-7H,2-4H2,1H3	InChI=1S/C7H12O2/c1-5-3-8-7-2-6(5)4-9-7/h5-7H,2-4H2,1H3/t5-,6-,7-/m0/s1
