19
gdb 111981	2.42384	1.33468	1.08026	1.7775	72.3	-0.2551	-0.0006	0.2545	1173.4169	0.159481	-460.158024	-460.149033	-460.148089	-460.19189	34.038	
O	 0.1505751922	 1.1370716144	-0.5276364869	-0.427173
C	 0.0199398002	-0.2596354109	-0.3058382316	-0.070596
C	-1.4307728955	-0.5293921169	 0.1005781345	-0.087329
C	-2.4216874928	-0.169284294	-0.979729133	-0.049284
C	-3.0116458553	-1.2369953526	-1.523422082	-0.132774
C	-2.4913131856	-2.5184461227	-0.9353461109	 0.04885
O	-1.5966983983	-3.2147667755	-1.8242819869	-0.443808
C	-1.7366454771	-2.0420173424	 0.344252427	 0.084246
O	-0.6130953392	-2.8440084646	 0.6224258921	-0.437266
H	 1.0780648566	 1.3296076312	-0.6920124522	 0.2878
H	 0.2654864951	-0.8312027855	-1.2166435739	 0.061751
H	 0.6864296386	-0.6153164158	 0.4902674317	 0.109714
H	-1.615126609	 0.0597630352	 1.0069984949	 0.087723
H	-2.6028848061	 0.8596328943	-1.2690007524	 0.115835
H	-3.7406035365	-1.2200549521	-2.3258975568	 0.101308
H	-3.2659072293	-3.2528452852	-0.6969029793	 0.092684
H	-1.1659493234	-2.5483477318	-2.3721898989	 0.284908
H	-2.4257560714	-2.1139090194	 1.1941741163	 0.087252
H	-0.4444309131	-3.3312485659	-0.1991265118	 0.286159
60.4805	106.8126	180.5769	212.9788	265.7541	296.7029	315.6617	344.7556	411.5553	520.7965	552.0891	573.8046	580.2374	755.7812	767.2402	791.3081	841.3361	854.7487	950.2059	989.9996	1017.8762	1058.4346	1070.3117	1080.5442	1126.1827	1132.994	1136.3047	1212.8651	1227.9402	1242.6715	1264.8282	1297.9985	1326.1043	1336.7278	1361.5646	1383.362	1417.7423	1444.4384	1448.7867	1517.5417	1670.0704	2956.9894	3023.9029	3034.8876	3045.6316	3073.3325	3188.418	3212.8391	3691.7958	3796.0058	3832.2869
OCC1C=CC(O)C1O	OC[C@H]1C=C[C@@H](O)[C@H]1O	
InChI=1S/C6H10O3/c7-3-4-1-2-5(8)6(4)9/h1-2,4-9H,3H2	InChI=1S/C6H10O3/c7-3-4-1-2-5(8)6(4)9/h1-2,4-9H,3H2/t4-,5-,6+/m1/s1
