15
gdb 28167	5.26909	1.29657	1.04733	2.8285	74.25	-0.1962	0.0217	0.218	1091.2744	0.114828	-416.847456	-416.840188	-416.839243	-416.8792	27.618	
C	-0.0215874792	 1.4627784479	 0.0598005258	-0.500623
C	-0.002536151	-0.0251774216	-0.0369826406	 0.314413
N	-0.0497592409	-0.7234586951	-1.1517328388	-0.381199
C	-0.0067057688	-2.044059719	-0.7417455201	 0.205626
C	 0.0658561893	-2.1048701509	 0.6201110146	 0.417854
N	 0.0703847613	-0.829839815	 1.1056402645	-0.447822
O	 0.1124528183	-3.3448701385	 1.1227989499	-0.219379
C	 0.065555851	-4.15044835	-0.0204186309	-0.029957
C	-0.0068176426	-3.4186544784	-1.1671367149	-0.306082
H	 0.8832623777	 1.8549022274	 0.5392259252	 0.131082
H	-0.0811358035	 1.8707033792	-0.9498036147	 0.161146
H	-0.883559393	 1.8262468138	 0.6318637572	 0.131089
H	 0.1156057503	-0.5183513308	 2.0602947669	 0.271914
H	 0.0935992033	-5.2067767945	 0.1837394166	 0.134502
H	-0.0527521524	-3.8247112045	-2.1653743406	 0.117436
97.0249	141.5516	246.7486	283.0998	354.4366	402.7003	511.6384	572.0205	589.272	656.23	687.922	761.0918	762.8805	812.465	829.5759	911.6653	967.9883	1000.4063	1019.0969	1059.3227	1130.7226	1177.085	1205.4005	1295.799	1368.3915	1403.7621	1443.5258	1480.4996	1486.5388	1523.0664	1553.1688	1568.3644	1615.3558	3026.3058	3074.1703	3150.3581	3259.0553	3297.153	3677.993
CC1=NC2=C(N1)OC=C2	Cc1nc2c([nH]1)occ2	
InChI=1S/C6H6N2O/c1-4-7-5-2-3-9-6(5)8-4/h2-3H,1H3,(H,7,8)	InChI=1S/C6H6N2O/c1-4-7-5-2-3-9-6(5)8-4/h2-3H,1H3,(H,7,8)
