17
gdb 76456	2.21919	1.36678	1.22278	3.4294	76.17	-0.2579	-0.0607	0.1973	1127.5329	0.1331	-417.996277	-417.986718	-417.985774	-418.03029	34.099	
C	 0.0126835382	 1.6110573225	 0.3163897985	-0.441003
C	 0.0853291087	 0.1074822943	 0.1989587847	-0.015838
N	 1.2599480932	-0.6304584618	-0.1548701318	-0.119149
C	 2.5358164557	 0.020933869	-0.4508438495	-0.339146
C	 0.7938428767	-0.7856640621	 1.241691147	 0.031147
C	 1.4801463103	-0.1592355097	 2.4184898149	 0.108082
O	 2.1144690735	 0.8684921137	 2.3936139659	-0.267845
C	 0.2170741214	-2.0810415633	 1.5388384646	 0.253231
N	-0.2553931846	-3.1013591994	 1.8075875107	-0.329205
H	 0.8545549302	 2.0320315252	 0.8638851551	 0.168197
H	-0.0140582795	 2.0485856217	-0.6876132273	 0.137696
H	-0.9134738152	 1.8951096656	 0.8245161856	 0.137992
H	-0.8256581922	-0.3520501292	-0.1847287376	 0.127361
H	 2.7846369316	 0.8673694388	 0.1933758116	 0.155079
H	 3.3257257982	-0.7299087373	-0.366614939	 0.141318
H	 2.4926195835	 0.3512572185	-1.4926751709	 0.136963
H	 1.3624166202	-0.7427770565	 3.3544964578	 0.115121
131.4906	146.1963	154.5951	166.2018	186.1477	214.7622	223.0178	263.334	357.6625	383.2893	510.7406	517.7246	554.2156	576.0835	717.188	742.1613	812.9259	968.4371	1020.3107	1046.6192	1067.759	1109.6764	1131.3418	1157.8932	1187.7613	1231.1773	1358.2324	1392.173	1418.1087	1434.1598	1451.2651	1478.1742	1495.2486	1497.3551	1517.6797	1796.4689	2355.3029	2926.1887	3044.4908	3047.9223	3106.7625	3108.9831	3120.6085	3127.8429	3168.4924
CC1N(C)C1(C=O)C#N	C[C@H]1N(C)[C@]1(C=O)C#N	
InChI=1S/C6H8N2O/c1-5-6(3-7,4-9)8(5)2/h4-5H,1-2H3	InChI=1S/C6H8N2O/c1-5-6(3-7,4-9)8(5)2/h4-5H,1-2H3/t5-,6+,8?/m1/s1
