15
gdb 93487	3.1162	1.33152	0.98273	1.5087	62.17	-0.2785	-0.0504	0.2281	1122.1665	0.112066	-494.952571	-494.944584	-494.94364	-494.98587	29.258	
O	 0.181339562	 1.2848979964	 0.3606537534	-0.429564
C	 0.0366580772	-0.0562033949	 0.0120632773	 0.023506
C	-1.4510468137	-0.4250805162	-0.1270838959	-0.11033
O	-1.6473973791	-1.8052857314	-0.45591556	-0.218912
C	-0.8842589793	-2.4297339369	-1.3851892402	 0.413825
O	-1.2069648496	-3.5060226948	-1.7966179401	-0.307671
C	 0.418857394	-1.7566909117	-1.8398368726	-0.454186
C	 0.6627460671	-0.3572179525	-1.3340574817	 0.358838
O	 1.2484263185	 0.5032516803	-1.9516310298	-0.323533
H	 0.6954343341	 1.6857013559	-0.3598864441	 0.299657
H	 0.4840059207	-0.7194812929	 0.7709846481	 0.110223
H	-1.9671642271	-0.2672306279	 0.8205706188	 0.149486
H	-1.9186063448	 0.2122938402	-0.8872340233	 0.132279
H	 1.2238610122	-2.4034751786	-1.466155584	 0.181568
H	 0.4804786178	-1.789236575	-2.9298214158	 0.174814
48.5259	98.4883	199.1224	284.7121	322.7842	386.6137	415.8507	430.2484	461.9795	532.557	620.6562	643.0201	738.099	768.336	825.609	911.4692	1035.6483	1063.7206	1088.2379	1124.4649	1162.0675	1174.226	1227.1119	1256.4224	1281.9076	1302.849	1345.4474	1400.2599	1420.1497	1443.7016	1514.8739	1811.5475	1860.0651	2976.6162	3042.9088	3044.532	3120.3451	3131.4204	3674.6464
OC1COC(=O)CC1=O	O[C@H]1COC(=O)CC1=O	
InChI=1S/C5H6O4/c6-3-1-5(8)9-2-4(3)7/h4,7H,1-2H2	InChI=1S/C5H6O4/c6-3-1-5(8)9-2-4(3)7/h4,7H,1-2H2/t4-/m0/s1
