17
gdb 88234	3.91453	0.72575	0.6699	0.5914	80.5	-0.2511	0.0027	0.2538	1677.9919	0.133482	-421.748861	-421.739634	-421.73869	-421.784901	32.259	
C	-0.7022886842	 1.202789872	 0.2588298493	-0.425216
C	 0.0570763734	-0.0769949471	 0.0372043411	 0.097948
O	 1.4467894738	 0.0248179004	-0.2635397436	-0.242305
C	 1.0756011115	-0.5908732713	 0.9842541775	-0.169011
C	 1.4176924599	 0.0972338914	 2.1980616185	 0.12184
C	 1.7062437003	 0.6513826205	 3.2291915553	 0.126711
C	 2.0578392813	 1.2918879372	 4.4660951395	-0.120572
C	 2.4690841024	 2.7096400923	 4.5157602985	-0.159035
O	 1.1776384359	 2.3168306564	 4.9596345678	-0.213934
H	-0.1530949507	 1.8732076141	 0.9227378554	 0.142506
H	-0.8693300849	 1.7116528247	-0.6959969181	 0.130905
H	-1.6798436584	 0.9910186991	 0.7044141738	 0.127365
H	-0.4624643941	-0.8341794045	-0.5541077009	 0.095447
H	 1.2426046389	-1.6677515496	 1.007987641	 0.115095
H	 2.4377112183	 0.629283193	 5.2428983782	 0.121081
H	 3.1612240806	 3.0310353359	 5.2930425443	 0.122403
H	 2.4962359259	 3.2814877955	 3.5903807424	 0.128775
22.1146	64.1609	95.3749	172.2894	185.6353	233.8731	333.3036	393.1126	412.0671	510.0074	568.8131	607.0393	734.272	780.6328	827.0656	843.3896	908.2068	953.2892	988.8039	1029.3538	1076.3955	1085.5097	1140.9648	1157.0878	1163.5919	1165.3391	1198.6567	1278.8811	1289.2075	1377.3776	1405.2773	1414.7463	1447.7097	1484.6455	1496.8097	1520.0926	2357.7505	3042.2888	3084.8089	3087.0612	3106.005	3109.9691	3117.009	3140.1949	3181.4405
CC1OC1C#CC1CO1	C[C@H]1O[C@H]1C#C[C@H]1CO1	
InChI=1S/C7H8O2/c1-5-7(9-5)3-2-6-4-8-6/h5-7H,4H2,1H3	InChI=1S/C7H8O2/c1-5-7(9-5)3-2-6-4-8-6/h5-7H,4H2,1H3/t5-,6+,7+/m1/s1
