16
gdb 12183	3.76032	1.44507	1.20355	2.7316	72.15	-0.2379	-0.0245	0.2134	1027.576	0.128125	-346.582139	-346.573813	-346.572869	-346.615126	30.303	
C	 0.0814939789	 1.6391437602	-0.0602824388	-0.409287
C	 0.0883698606	 0.1180668311	-0.0073253875	-0.091139
C	 0.6769456991	-0.7142106139	-1.1887682068	-0.25879
C	 1.427973295	-1.6514299967	-0.178190979	-0.296417
C	 2.7959139173	-2.0384597507	-0.42517243	 0.315742
C	 3.945542712	-2.3270314903	-0.6268498144	-0.428583
C	 1.1280123827	-0.5602417198	 0.8991204492	 0.389699
O	 1.6202404523	-0.2825535297	 1.9492537189	-0.286419
H	 1.0681903303	 2.0259576269	-0.3340679405	 0.126995
H	-0.6432030853	 2.0049384439	-0.7942169874	 0.122536
H	-0.1811113404	 2.0554179533	 0.9165674945	 0.13825
H	-0.9063484151	-0.2606182163	 0.2626571833	 0.107373
H	-0.0354877221	-1.205013335	-1.851790521	 0.115144
H	 1.3849731025	-0.1320840059	-1.7821240779	 0.125437
H	 0.8095763127	-2.5290899592	 0.0508984207	 0.130703
H	 4.9599554693	-2.5882608881	-0.8003930434	 0.198756
58.1749	123.3068	180.7034	200.9581	211.4418	327.9603	374.7419	476.3638	513.6541	576.0927	616.7857	638.325	669.4231	769.9963	823.9024	913.2671	922.3052	950.3168	1026.5956	1065.9943	1085.1295	1138.3963	1146.3442	1208.1485	1235.8585	1254.987	1309.1698	1349.2244	1408.3787	1488.7153	1494.5784	1495.326	1897.5596	2236.4454	3025.8809	3030.3668	3038.8114	3082.9909	3108.5345	3115.5806	3144.7755	3504.7719
CC1CC(C#C)C1=O	C[C@H]1C[C@@H](C#C)C1=O	
InChI=1S/C7H8O/c1-3-6-4-5(2)7(6)8/h1,5-6H,4H2,2H3	InChI=1S/C7H8O/c1-3-6-4-5(2)7(6)8/h1,5-6H,4H2,2H3/t5-,6+/m0/s1
