17
gdb 66903	2.5674	2.1054	1.80794	2.0536	75.72	-0.2384	-0.0118	0.2266	861.648	0.137979	-380.857497	-380.850646	-380.849702	-380.888211	27.962	
C	-0.056767353	 1.5168952684	-0.022719908	-0.507687
C	 0.0603527395	 0.0188272833	-0.003646547	 0.325118
C	 0.720385344	-0.8157658323	-1.0284511437	-0.106448
C	 1.5343350278	-1.831432277	-0.3476455708	-0.06483
C	 1.3410397363	-1.7815637902	 0.9813866739	-0.071305
C	 0.2238767856	-0.8026654424	 1.3051948015	-0.133105
N	-0.9413314775	-1.7315890018	 1.3179780125	-0.205508
C	-1.3802455098	-1.7288760683	 0.1139933443	 0.047629
N	-0.8763824072	-0.7872839872	-0.8021624219	-0.205604
H	 0.8682927155	 1.9844632508	 0.3307989294	 0.125253
H	-0.2592655255	 1.8714545742	-1.0370175221	 0.13252
H	-0.8756987739	 1.850445062	 0.6236061931	 0.13088
H	 0.9450491998	-0.4606595989	-2.026309555	 0.110218
H	 2.1529193415	-2.5480347455	-0.8737918669	 0.10515
H	 1.7462826761	-2.4671548709	 1.7148285066	 0.117345
H	 0.3117554263	-0.2370915773	 2.2335329821	 0.079183
H	-2.1415898355	-2.4221950072	-0.2321492778	 0.121192
189.6794	209.2121	280.1998	340.5415	353.58	398.8984	565.909	597.0489	639.753	666.9922	785.3865	787.3392	844.351	867.6152	904.7897	927.4679	933.3917	960.707	969.0145	989.1643	1007.4244	1064.393	1099.6797	1120.1107	1137.6889	1204.9528	1256.0157	1262.5114	1282.6567	1320.1738	1365.2321	1406.7782	1438.5676	1486.1738	1492.4342	1608.3314	1632.4329	3034.4869	3100.1441	3105.7092	3118.3746	3181.8196	3195.0206	3205.9856	3227.5508
CC12C3C=CC1N=CN23	C[C@@]12[C@H]3C=C[C@@H]1[N][CH]N23	
InChI=1S/C7H8N2/c1-7-5-2-3-6(7)9(7)4-8-5/h2-6H,1H3	InChI=1S/C7H8N2/c1-7-5-2-3-6(7)9(7)4-8-5/h2-6H,1H3/t5-,6+,7-,9?/m0/s1
