19
gdb 46188	2.98953	1.61188	1.21118	2.6073	80.6	-0.2329	-0.0253	0.2076	1054.4686	0.160018	-385.847472	-385.839933	-385.838989	-385.879998	29.768	
O	-0.0765469043	 0.0719816756	-0.4208992362	-0.304722
C	-0.0792274552	 1.2290733815	-0.1026989072	 0.309506
C	-1.1699540798	 2.1773847356	 0.4271367622	-0.341659
C	-0.1072071614	 3.3160153204	 0.4759919732	-0.353876
C	 0.9781454197	 2.3386976465	-0.0617349238	 0.301869
C	 2.4112955985	 2.1654746373	 0.5360489795	-0.100291
C	 2.7870982713	 1.4031949593	-0.7680500459	-0.230914
C	 1.9729588923	 2.6483109747	-1.22612195	-0.100289
C	 2.7936238264	 3.4825920048	-0.1999156947	-0.228939
H	-1.9981305236	 2.3250100502	-0.2719041945	 0.131501
H	-1.586555863	 1.8694703897	 1.3904357268	 0.131442
H	-0.323331606	 4.1584488851	-0.1846822575	 0.110559
H	 0.0895110072	 3.7018312711	 1.4786632655	 0.110575
H	 2.6435793908	 1.8839672618	 1.5643807243	 0.07664
H	 3.8483622418	 1.4075875143	-1.030832197	 0.088573
H	 2.3257644057	 0.4284745431	-0.9203595356	 0.132962
H	 1.6962346715	 2.9274796694	-2.2440399205	 0.076651
H	 2.3422294434	 4.4077531746	 0.1658635491	 0.096924
H	 3.8550450546	 3.617883945	-0.4268631779	 0.093491
44.9588	142.9815	206.1638	276.0739	357.8834	459.6075	503.4402	561.1151	622.4247	728.7139	735.6838	748.1721	809.7026	853.2375	900.4457	903.6193	935.3743	966.7255	1022.0443	1025.5596	1031.0986	1051.7652	1058.6283	1099.4253	1110.4862	1125.637	1126.2545	1189.5487	1192.933	1202.1117	1215.3193	1217.5753	1240.73	1252.2157	1255.9499	1287.7625	1435.9777	1486.0952	1499.7215	1535.4252	1868.1804	3051.2547	3060.2367	3063.7729	3070.4946	3098.0442	3103.1856	3105.9778	3118.0653	3124.1079	3157.806
O=C1CCC11C2CC1C2	O=C1CC[C@]21[C@H]1C[C@@H]2C1	
InChI=1S/C8H10O/c9-7-1-2-8(7)5-3-6(8)4-5/h5-6H,1-4H2	InChI=1S/C8H10O/c9-7-1-2-8(7)5-3-6(8)4-5/h5-6H,1-4H2/t5-,6+,8-
