23
gdb 109889	2.4438	1.38794	1.12129	1.499	84.27	-0.2498	0.0558	0.3057	1221.8157	0.206278	-388.264669	-388.255477	-388.254532	-388.298547	35.68	
C	-0.4759183735	 1.6550688797	-0.5346679806	-0.390361
C	-0.4031597866	 0.1431667666	-0.2877686875	-0.193211
C	 0.5193081181	-0.5689778046	-1.2752710903	-0.020022
C	 2.0748394985	-0.42434273	-1.068962023	 0.114282
O	 2.5849471525	 0.474791994	-0.1121258325	-0.422479
C	 2.1955216266	-1.9496136076	-0.8312206572	-0.045155
C	 1.8808056472	-2.4466845181	 0.6095087463	-0.242355
C	 0.420937191	-2.7816702394	 0.1840181007	-0.220235
C	 0.6729795617	-2.123458897	-1.1942813777	-0.050908
H	 0.515623077	 2.1069979814	-0.4458439429	 0.137188
H	-0.8552504286	 1.8686223306	-1.5402706267	 0.11075
H	-1.1424086885	 2.143628276	 0.1832988301	 0.105775
H	-0.0784675705	-0.0372570339	 0.7455341216	 0.079151
H	-1.4075813302	-0.2940639726	-0.3611128353	 0.097262
H	 0.2349731517	-0.2577047465	-2.2865390487	 0.066736
H	 2.5631443305	-0.1400436369	-2.005166286	 0.087456
H	 2.2581421412	 0.2165200381	 0.7556144007	 0.281036
H	 3.0064605721	-2.4685282143	-1.3442626504	 0.061725
H	 2.4737078239	-3.3072084207	 0.9264065178	 0.107016
H	 1.9761692806	-1.69071497	 1.3975802722	 0.079045
H	 0.2582384182	-3.859168627	 0.0963338058	 0.099316
H	-0.3862145467	-2.3705094324	 0.795783577	 0.097466
H	 0.3319031738	-2.6696817354	-2.0744677032	 0.060522
62.4839	115.8892	177.849	208.5404	246.6884	265.2257	272.4775	313.3953	450.6551	492.5216	559.2409	622.3737	717.0584	755.881	770.7468	802.6945	840.5571	865.7022	894.6168	956.7037	963.0201	1001.3817	1019.9471	1045.6171	1060.0999	1078.8259	1108.8619	1131.3053	1142.2856	1172.4527	1200.2923	1225.5949	1229.5745	1249.9566	1265.0291	1277.9349	1293.2519	1304.4126	1313.7026	1323.1741	1340.4454	1385.6496	1405.0845	1437.167	1477.4613	1491.371	1497.6815	1499.0885	1515.0931	3009.7346	3029.6496	3032.597	3033.6819	3044.4648	3056.3692	3067.9566	3085.1336	3095.7606	3097.0003	3098.9293	3111.9289	3120.9723	3814.2455
CCC1C(O)C2CCC12	CC[C@H]1[C@@H](O)[C@H]2CC[C@@H]12	
InChI=1S/C8H14O/c1-2-5-6-3-4-7(6)8(5)9/h5-9H,2-4H2,1H3	InChI=1S/C8H14O/c1-2-5-6-3-4-7(6)8(5)9/h5-9H,2-4H2,1H3/t5-,6+,7+,8-/m1/s1
