18
gdb 7958	3.34824	1.78476	1.34298	4.13	67.98	-0.2428	0.0613	0.3042	952.7323	0.155668	-381.183916	-381.176039	-381.175094	-381.215724	30.276	
C	-0.3678815161	 1.555764331	-0.0288030652	-0.408361
C	 0.0804962037	 0.1000060108	-0.041923516	 0.050886
N	 1.1572404448	-0.1620324971	-0.9928409344	-0.34782
C	 1.9175279144	-1.2540362529	-0.5862428442	 0.425629
O	 2.74510799	-1.8483058168	-1.2393594633	-0.411449
N	 1.5355893695	-1.5248998514	 0.7235301977	-0.341421
C	 0.7206924235	-0.4421381885	 1.2719126916	 0.024653
C	 1.5486562314	 0.5763594855	 2.0631578868	-0.398066
H	 0.4690263131	 2.2315591038	 0.1625406022	 0.131324
H	-0.8063749898	 1.8268375561	-0.9946458708	 0.11892
H	-1.1343115092	 1.7170802008	 0.7363130114	 0.120988
H	-0.7923275041	-0.5346762487	-0.2645152074	 0.083212
H	 0.9962615896	-0.0742950395	-1.9844885014	 0.247393
H	 2.2169404431	-1.9947632237	 1.3002068277	 0.246379
H	-0.0648331665	-0.8484217649	 1.9182470255	 0.085667
H	 2.3108899008	 1.0407956366	 1.4308039931	 0.137159
H	 0.916529107	 1.3633034606	 2.4855258837	 0.120247
H	 2.0553019147	 0.0780589182	 2.8963197132	 0.114658
126.921	151.0877	236.1723	259.2766	283.63	316.4142	424.0466	483.3709	505.0598	542.9559	557.8202	694.7044	709.5665	771.7088	774.0799	931.4106	964.1104	989.1212	1015.1549	1036.5345	1101.4761	1131.5547	1148.8458	1184.5328	1258.548	1292.702	1353.1694	1384.8983	1394.7411	1406.2042	1415.3477	1422.4291	1423.0388	1486.1049	1493.5218	1500.7631	1508.7227	1851.3556	2963.5674	3036.825	3039.991	3043.2865	3101.8636	3104.6928	3120.7927	3129.4844	3627.3022	3631.5812
CC1NC(=O)NC1C	C[C@H]1NC(=O)N[C@H]1C	
InChI=1S/C5H10N2O/c1-3-4(2)7-5(8)6-3/h3-4H,1-2H3,(H2,6,7,8)	InChI=1S/C5H10N2O/c1-3-4(2)7-5(8)6-3/h3-4H,1-2H3,(H2,6,7,8)/t3-,4+
