21
gdb 119948	1.93041	1.04365	0.79328	2.6823	80.72	-0.2426	-0.0181	0.2245	1516.4566	0.180319	-424.218964	-424.208535	-424.207591	-424.255171	37.021	
C	-0.024240889	 1.6062057419	 0.1771002089	-0.413401
C	 0.0510970475	 0.1018464396	 0.0113003926	-0.048897
C	 0.425025775	-0.5803374001	-1.2663047861	-0.039222
C	 0.7824730876	 0.1520816261	-2.5441247699	-0.210681
C	 1.7294435459	-0.6476759296	-3.4343737135	-0.06677
O	 1.9294009008	 0.0988209604	-4.6237093991	-0.420955
C	 1.3757414806	-0.6689736153	-0.0586381133	-0.12865
C	 2.6815328094	 0.0217812939	-0.0510830912	 0.160508
O	 3.6766438029	-0.432988731	 0.4643676836	-0.27876
H	 0.701166193	 2.1449620229	-0.435263963	 0.126333
H	-1.0199472995	 1.9652721077	-0.1043957094	 0.125883
H	 0.1488876338	 1.8897330116	 1.2202966096	 0.128775
H	-0.6970168795	-0.4220188622	 0.6010306113	 0.099957
H	-0.0922172956	-1.5194186738	-1.4507540064	 0.097741
H	-0.1350810963	 0.3519059339	-3.110921908	 0.113253
H	 1.238152458	 1.1265036659	-2.3487625083	 0.110692
H	 2.6791760305	-0.8231318885	-2.9048191541	 0.099216
H	 1.2912410912	-1.6363469256	-3.6497124919	 0.085764
H	 2.5607614471	-0.373373408	-5.1740677079	 0.288303
H	 1.4137509967	-1.6212881642	 0.4601209284	 0.102481
H	 2.7146111101	 1.0107767544	-0.5573755922	 0.068432
53.6188	91.1342	102.2761	117.3614	186.3913	218.192	238.4751	261.2899	268.0525	369.4014	412.5496	458.034	532.0175	547.0792	716.1866	806.0591	842.6789	908.5549	950.574	956.9676	1018.5231	1036.9627	1051.1004	1065.5165	1084.7617	1106.8232	1152.2014	1180.6121	1188.165	1230.7361	1245.3302	1261.3593	1311.5164	1325.7584	1342.5809	1394.8228	1422.0322	1436.5382	1456.3601	1463.0865	1491.4955	1496.9047	1509.044	1526.6871	1802.0444	2889.816	2962.5834	2993.2963	3039.5996	3042.5495	3093.5952	3097.6246	3122.7414	3127.5919	3142.5124	3168.946	3832.2011
CC1C(CCO)C1C=O	C[C@H]1[C@@H](CCO)[C@H]1C=O	
InChI=1S/C7H12O2/c1-5-6(2-3-8)7(5)4-9/h4-8H,2-3H2,1H3	InChI=1S/C7H12O2/c1-5-6(2-3-8)7(5)4-9/h4-8H,2-3H2,1H3/t5-,6+,7-/m0/s1
