18
gdb 93063	2.34611	1.54503	1.00708	3.1162	73.65	-0.2393	-0.0227	0.2166	1171.1403	0.14745	-439.111929	-439.103368	-439.102424	-439.145847	31.575	
C	-0.4610706301	 1.3760349887	-0.0333373035	-0.401208
C	-0.0838714227	-0.0977287794	 0.0313117435	 0.108777
C	 0.899322763	-0.5008381657	-1.0680844022	-0.314117
C	 1.0215741759	-2.0022457844	-1.3202597748	 0.370638
O	 1.4069020453	-2.4244977991	-2.3827447366	-0.294103
C	 0.6146999259	-2.9538318045	-0.191362051	-0.268465
N	 1.0484161689	-2.6228355928	 1.1531673069	-0.265152
C	 0.9657444004	-1.4999294861	 1.7205823227	 0.1349
O	 0.4902937323	-0.2895403491	 1.3405160779	-0.232228
H	 0.433790314	 2.0034329234	 0.0193928555	 0.131915
H	-0.9847844872	 1.593080233	-0.9684077009	 0.12536
H	-1.1151267386	 1.6368914833	 0.8022079414	 0.133061
H	-0.9965163458	-0.7041871377	-0.0348812902	 0.095506
H	 0.6244870106	-0.0402990841	-2.0217589175	 0.134925
H	 1.8931262055	-0.1118323039	-0.8091566438	 0.144514
H	-0.4814781338	-3.0513933289	-0.2276777014	 0.133249
H	 1.0137991955	-3.9362371046	-0.4559458853	 0.136612
H	 1.3386368708	-1.4023548082	 2.7405541393	 0.125817
40.4453	110.1596	148.0424	231.8046	281.8896	331.2461	347.3368	426.9363	490.5589	502.1231	515.1456	562.6069	749.9197	819.2996	821.803	885.9681	936.7851	954.9209	987.7979	1002.2933	1055.6071	1120.7811	1149.4123	1157.3771	1207.8044	1216.9071	1268.2332	1296.8752	1339.1075	1372.5909	1391.0589	1413.6941	1435.4286	1437.489	1471.9287	1486.5298	1498.6422	1763.988	1816.3055	2989.1861	3022.623	3036.9156	3047.7215	3092.9396	3095.5476	3123.1395	3129.9673	3138.2081
CC1CC(=O)CN=CO1	C[C@H]1CC(=O)CN=CO1	
InChI=1S/C6H9NO2/c1-5-2-6(8)3-7-4-9-5/h4-5H,2-3H2,1H3	InChI=1S/C6H9NO2/c1-5-2-6(8)3-7-4-9-5/h4-5H,2-3H2,1H3/t5-/m0/s1
