12
gdb 131032	2.90412	1.66953	1.0601	2.1042	65.46	-0.2671	-0.1168	0.1502	1008.6736	0.078427	-468.835571	-468.828569	-468.827625	-468.867518	25.08	
O	-0.0231889298	-0.0719796359	-0.0027071043	-0.239107
C	-0.0138572616	 1.1212449204	 0.0069764936	 0.18314
N	 1.1922167027	 1.8967320565	-0.000193555	-0.145778
N	 2.3570371604	 1.2021261939	-0.0187161126	-0.155709
C	 3.4446336377	 1.899011843	-0.025253557	 0.091601
N	 3.5517509584	 3.2772815465	-0.0154878234	-0.226257
C	 2.443569057	 3.9344580297	 0.0020837243	-0.044343
C	 1.1107332756	 3.3079534031	 0.0120187457	 0.422452
O	 0.0608899947	 3.9155853677	 0.0283845619	-0.360826
H	-0.8899827413	 1.7810415571	 0.0221705757	 0.157962
H	 4.3726245682	 1.3398031119	-0.0400335772	 0.156362
H	 2.4585964979	 5.0228202561	 0.0105616482	 0.160502
87.2429	150.0868	240.5577	248.771	374.421	406.071	529.1726	552.8272	587.2513	648.7812	769.2105	822.9923	876.6743	931.8636	987.2936	1045.5111	1080.6016	1130.1616	1205.1768	1281.8397	1361.282	1384.8075	1417.024	1551.0483	1655.9706	1786.4848	1852.9465	3082.3671	3161.7831	3215.3172
O=CN1N=CN=CC1=O	O=Cn1ncncc1=O	
InChI=1S/C4H3N3O2/c8-3-7-4(9)1-5-2-6-7/h1-3H	InChI=1S/C4H3N3O2/c8-3-7-4(9)1-5-2-6-7/h1-3H
