17
gdb 105849	2.13031	1.59936	1.271	3.7591	69.25	-0.2152	0.007	0.2222	1072.7974	0.135546	-455.112065	-455.103218	-455.102274	-455.145647	32.572	
C	-0.3489868595	 1.3918823919	-0.0419679748	-0.334739
N	 0.0899393761	-0.003274199	 0.0814365991	-0.379788
C	 0.7675436656	-0.4998449638	-1.0534771656	 0.157092
C	 0.0009044555	-0.9600314139	-2.2802336265	 0.070312
O	 0.2949559216	-0.4031021577	-3.5236216436	-0.414342
C	 0.9058194101	-1.9422328585	-1.5973018822	-0.148101
N	 2.3141193608	-1.6838815478	-1.9069127566	-0.343866
C	 2.2330850131	-0.337642707	-1.4759136988	 0.364081
O	 3.048880886	 0.5369238002	-1.4411625271	-0.337319
H	 0.4704929652	 2.1004763758	-0.2274824671	 0.131381
H	-1.0602203432	 1.4715333811	-0.8698294266	 0.131373
H	-0.8658387796	 1.6833667233	 0.8765571239	 0.118821
H	 0.6633247254	-0.1161430738	 0.9105111447	 0.230618
H	-1.0603329836	-1.0928304451	-2.062636464	 0.105441
H	 0.0075360515	-1.0205097657	-4.2052397141	 0.291501
H	 0.5984685343	-2.8676965333	-1.1279387623	 0.117002
H	 2.7014688009	-1.8979323367	-2.8193618283	 0.240534
81.2157	124.1982	156.1657	180.9274	242.8646	282.015	298.9433	357.7423	431.5852	491.7516	579.1091	669.1787	678.0779	748.0818	761.6572	811.5759	830.6854	922.6547	964.5121	998.1921	1049.6552	1063.2656	1091.7673	1151.9134	1161.1864	1200.0304	1225.4251	1271.7053	1292.3648	1322.9706	1355.852	1450.573	1480.1165	1481.4195	1492.5982	1522.6011	1897.3969	3003.9689	3079.5314	3099.2598	3114.6294	3204.0813	3526.7762	3546.2593	3801.5157
CNC12C(O)C1NC2=O	CN[C@]12[C@@H](O)[C@H]1NC2=O	
InChI=1S/C5H8N2O2/c1-6-5-2(3(5)8)7-4(5)9/h2-3,6,8H,1H3,(H,7,9)	InChI=1S/C5H8N2O2/c1-6-5-2(3(5)8)7-4(5)9/h2-3,6,8H,1H3,(H,7,9)/t2-,3+,5+/m1/s1
