18
gdb 90344	4.07153	1.29549	1.06055	3.7837	81.97	-0.227	-0.0212	0.2058	1154.8431	0.149812	-401.983098	-401.975523	-401.974579	-402.015198	29.273	
C	-0.037737133	 1.5402232154	-0.0538964738	-0.388498
C	 0.0413306542	 0.0190759895	 0.0239273353	 0.067487
O	 0.8167258753	-0.4799946484	-1.1035792181	-0.263211
C	 1.8329578074	-1.2075642068	-0.6037023729	 0.397845
N	 2.7604968344	-1.8334916048	-1.2067118734	-0.336908
C	 3.5840775995	-2.4466993503	-0.1440158059	-0.157358
C	 2.9718216693	-2.0692107242	 1.2649198708	-0.387708
C	 1.7974581381	-1.2369844335	 0.8546564779	 0.316488
C	 0.7463712754	-0.5251271002	 1.2566579483	-0.332913
H	 0.9600907801	 1.9799969992	 0.0274472348	 0.129943
H	-0.4829611309	 1.848691442	-1.0033428882	 0.136263
H	-0.6585066471	 1.9265479515	 0.7608102724	 0.120478
H	-0.9681226428	-0.4047312753	-0.0750709829	 0.105151
H	 3.6117991033	-3.5326632042	-0.2881814075	 0.11181
H	 4.6169104424	-2.0924583342	-0.2366101732	 0.111657
H	 2.6764846884	-2.9560880418	 1.8337705347	 0.127303
H	 3.6824196996	-1.5137074657	 1.8844652941	 0.126889
H	 0.3918354965	-0.3191374681	 2.2582222777	 0.115282
99.3323	138.5309	229.2146	238.7491	325.6994	349.6639	480.3438	502.0276	652.7638	694.3408	716.1187	762.5643	815.3613	832.1671	844.2476	854.3435	911.9665	927.8435	1021.9284	1046.3645	1051.7824	1098.9124	1126.6146	1136.5363	1184.1168	1216.3877	1233.2083	1269.0187	1310.7342	1339.8688	1353.1779	1402.7377	1406.4065	1470.1166	1485.6863	1494.0891	1504.8802	1728.0034	1740.7702	3006.6494	3035.2749	3043.1888	3056.3304	3061.5961	3093.7507	3117.924	3129.3163	3219.0084
CC1OC2=NCCC2=C1	C[C@H]1OC2=NCCC2=C1	
InChI=1S/C7H9NO/c1-5-4-6-2-3-8-7(6)9-5/h4-5H,2-3H2,1H3	InChI=1S/C7H9NO/c1-5-4-6-2-3-8-7(6)9-5/h4-5H,2-3H2,1H3/t5-/m1/s1
