19
gdb 30345	2.87736	1.55751	1.0601	1.1976	81.14	-0.2141	0.0205	0.2346	1136.1628	0.16197	-385.931812	-385.924253	-385.923309	-385.963724	30.	
C	-0.1083730042	 1.577439409	-0.0222534403	-0.395961
C	 0.0247455561	 0.0532026699	 0.0185945164	-0.118058
C	 0.8091356122	-0.543006393	-1.1943925813	-0.208277
C	 1.4746591933	-1.8635408818	-0.7035252287	-0.361153
C	 1.6356725929	-1.5986620046	 0.7668293313	 0.221234
C	 2.2918468241	-2.0253509544	 1.8724727155	-0.170704
O	 1.9230817248	-1.2633410454	 2.9473489674	-0.155487
C	 1.013863538	-0.3411061193	 2.5069393632	-0.182818
C	 0.8062421247	-0.5059111049	 1.1778335755	 0.253086
H	 0.8776676242	 2.0536637353	-0.0101293358	 0.118291
H	-0.6317486975	 1.9010755969	-0.9282086384	 0.112222
H	-0.6725944721	 1.9507958865	 0.8385350992	 0.114365
H	-0.9865140287	-0.3798028082	 0.0279586169	 0.085264
H	 0.1724650421	-0.6890339391	-2.0716545211	 0.095318
H	 1.5954558024	 0.1668681035	-1.4776877718	 0.104584
H	 0.8115739093	-2.7211343368	-0.8768495522	 0.112161
H	 2.4107856094	-2.0761419974	-1.228101229	 0.110675
H	 3.0168780502	-2.7946638785	 2.0805291572	 0.13318
H	 0.6425912889	 0.3343555123	 3.2597202159	 0.132079
121.1527	165.3935	226.3537	247.2753	288.6715	433.3472	490.3853	553.3206	606.745	618.0915	690.9821	713.6391	738.6593	763.5749	823.4248	907.5817	923.9508	952.4915	969.7378	1027.1206	1056.5827	1095.8764	1107.5156	1121.2225	1145.2095	1194.5757	1219.6304	1252.7283	1288.3372	1304.3717	1313.8747	1328.5432	1363.2765	1395.936	1410.4869	1484.7144	1495.0631	1496.6881	1501.2336	1596.1298	1662.6894	2988.8107	3021.4844	3030.2184	3038.1837	3078.9219	3093.7633	3098.7373	3103.6303	3270.6861	3275.487
CC1CCC2=COC=C12	C[C@H]1CCc2cocc12	
InChI=1S/C8H10O/c1-6-2-3-7-4-9-5-8(6)7/h4-6H,2-3H2,1H3	InChI=1S/C8H10O/c1-6-2-3-7-4-9-5-8(6)7/h4-6H,2-3H2,1H3/t6-/m0/s1
