21
gdb 103648	3.38126	1.00163	0.9839	2.6688	80.25	-0.2472	0.0073	0.2545	1333.9263	0.181898	-424.239216	-424.229797	-424.228852	-424.273236	36.267	
C	-0.0149774293	 1.5574758895	 0.0133424168	-0.396501
C	 0.0142858618	 0.0239030472	 0.0161856006	-0.026606
C	 0.7772346	-0.5919019506	-1.1879463455	-0.285931
C	 1.6005680834	-1.780595626	-0.6327841331	 0.331216
O	 0.9779398336	-3.0577662092	-0.9031070489	-0.487712
C	 2.9871122314	-1.9175255332	-1.2693775618	-0.078524
O	 3.67341268	-3.0435077164	-0.7652259665	-0.431049
C	 1.6219670449	-1.5121099218	 0.8550998896	-0.151367
C	 0.7467287842	-0.569469092	 1.2013715879	-0.073738
H	 1.0014456254	 1.9662102344	 0.0191194374	 0.118427
H	-0.5272110109	 1.9381284366	-0.8763676769	 0.117324
H	-0.5390293066	 1.9474242672	 0.892486649	 0.113032
H	-1.028709642	-0.3263156977	 0.0267357301	 0.080092
H	 0.1225049783	-0.9243661629	-1.9966124478	 0.107628
H	 1.4589520329	 0.1594586061	-1.6046859365	 0.100564
H	 0.2873915836	-3.1902237368	-0.2457065046	 0.279655
H	 2.868141426	-1.971782307	-2.3645730033	 0.088043
H	 3.5904706478	-1.0342431205	-1.0382500832	 0.105023
H	 3.0313089593	-3.7637342503	-0.8124026835	 0.28528
H	 2.259396696	-2.0818912132	 1.52084784	 0.108545
H	 0.5546442803	-0.2381254135	 2.2176775703	 0.0966
56.6173	132.3638	182.9018	218.9605	248.6661	296.2155	299.4606	342.6576	371.3085	411.3911	460.2291	499.4176	564.5218	678.5456	706.0698	806.1118	820.2285	847.225	863.8447	925.5668	931.2581	989.3472	1015.9339	1055.3188	1057.1393	1090.778	1121.0413	1126.8002	1146.2073	1174.3744	1210.163	1252.4131	1291.8049	1305.2991	1334.4119	1349.9521	1377.8935	1398.5433	1412.3323	1442.9304	1475.3415	1497.0953	1498.5385	1499.2914	1677.9465	2966.4911	2986.9293	3027.7515	3036.8866	3081.8303	3097.4725	3100.3826	3106.9742	3173.2721	3212.9431	3770.9634	3817.6258
CC1CC(O)(CO)C=C1	C[C@H]1C[C@@](O)(CO)C=C1	
InChI=1S/C7H12O2/c1-6-2-3-7(9,4-6)5-8/h2-3,6,8-9H,4-5H2,1H3	InChI=1S/C7H12O2/c1-6-2-3-7(9,4-6)5-8/h2-3,6,8-9H,4-5H2,1H3/t6-,7-/m1/s1
