18
gdb 14764	10.79508	0.59532	0.57227	2.5929	71.94	-0.2555	0.0333	0.2888	1861.8274	0.150355	-384.881781	-384.87184	-384.870896	-384.917654	33.637	
O	-0.1055453016	 1.4265250636	 0.0104378096	-0.418544
C	 0.0108575937	 0.0127123495	 0.0020679636	-0.072247
C	-1.3980634574	-0.5661721206	 0.0122061682	-0.185083
C	-1.4048292761	-2.0873650346	 0.0042780207	-0.043092
O	-2.7489356173	-2.5257412135	 0.0145673382	-0.24387
C	-2.8554291522	-3.9344341401	 0.0082478073	-0.205875
C	-4.2575435064	-4.3308249973	 0.0191247456	 0.280139
C	-5.4044218161	-4.6860854371	 0.0281394252	-0.413512
H	 0.7798786682	 1.8013303617	 0.0042858628	 0.286116
H	 0.5539540542	-0.3370199459	-0.8917297089	 0.085156
H	 0.5704772683	-0.3461607443	 0.881938582	 0.085158
H	-1.9285965425	-0.2058680937	 0.8996457847	 0.12017
H	-1.9450478257	-0.1966101976	-0.8613311513	 0.120176
H	-0.8844895553	-2.4751269024	-0.8894544155	 0.085904
H	-0.8678724435	-2.4844443384	 0.8839800916	 0.085899
H	-2.3585670221	-4.3563357259	-0.882943603	 0.116655
H	-2.3421496545	-4.365524673	 0.8856398223	 0.116671
H	-6.4211830438	-4.9922051206	 0.0369493569	 0.200179
48.9523	72.6089	81.8079	126.6113	137.7427	185.5973	270.1262	308.6874	334.3739	350.2778	500.3311	563.5776	607.696	675.5348	779.7514	890.807	968.4972	1000.0764	1032.273	1045.182	1064.6229	1103.3111	1150.3304	1177.772	1229.5827	1245.1266	1255.4999	1304.3367	1305.9368	1319.0099	1389.3292	1452.6739	1467.3782	1496.2134	1500.6762	1524.3823	1534.9537	2248.7074	2938.0536	2950.1446	2957.0527	2962.522	2966.7085	2980.2512	3054.0777	3100.6852	3506.4023	3831.911
OCCCOCC#C	OCCCOCC#C	
InChI=1S/C6H10O2/c1-2-5-8-6-3-4-7/h1,7H,3-6H2	InChI=1S/C6H10O2/c1-2-5-8-6-3-4-7/h1,7H,3-6H2
