17
gdb 14269	3.04499	2.71077	1.87469	2.2282	68.14	-0.2408	0.034	0.2748	757.7207	0.145351	-363.860219	-363.854006	-363.853061	-363.890251	25.13	
C	-0.0324554042	 1.3769852158	-0.2758947469	-0.250002
C	 1.4913639073	 1.5085098471	 0.0021751887	-0.027464
C	 1.3899735152	 0.2422717659	 0.8982832239	-0.250002
C	 0.0763711336	-0.1067649142	 0.1553485071	 0.129445
O	 0.2496041864	-1.0139953164	-0.9312488534	-0.234484
C	 1.2026822263	-0.7989105223	-1.877983148	 0.122558
N	 2.0700409431	 0.0975336675	-2.0624056044	-0.262398
C	 2.3331530591	 1.2685499187	-1.249483204	-0.158892
H	-0.6369388177	 1.945112263	 0.4359115517	 0.104982
H	-0.3920508745	 1.5728157179	-1.2891942456	 0.112206
H	 1.8240304591	 2.4297119295	 0.4894154752	 0.067293
H	 2.1972422248	-0.4927406405	 0.8481992172	 0.112206
H	 1.1911533994	 0.4867898128	 1.9449532466	 0.104982
H	-0.7430352899	-0.5344063312	 0.734731284	 0.087174
H	 1.1374983153	-1.6199446639	-2.5924691973	 0.118973
H	 2.2452798924	 2.1411499803	-1.9124511942	 0.111711
H	 3.3939943345	 1.2247814798	-0.9642128106	 0.111711
157.0906	299.063	301.4904	397.001	398.3683	512.5916	524.7658	760.5573	784.7123	804.0242	836.2273	883.8046	890.9046	941.7158	943.6684	971.0285	971.7869	1045.4778	1091.0512	1103.1347	1119.3532	1140.9304	1166.6555	1215.3544	1249.5093	1265.2892	1274.1153	1318.7966	1344.1212	1379.8884	1395.6537	1441.6509	1463.7605	1470.7	1491.3796	1758.7744	3001.6605	3025.9079	3057.25	3059.5503	3069.6603	3100.5514	3117.8276	3119.6555	3135.3592
C1C2CC1OC=NC2	C1[C@H]2C[C@@H]1OC=NC2	
InChI=1S/C6H9NO/c1-5-2-6(1)8-4-7-3-5/h4-6H,1-3H2	InChI=1S/C6H9NO/c1-5-2-6(1)8-4-7-3-5/h4-6H,1-3H2/t5-,6+
