23
gdb 58093	2.03967	1.3315	1.17577	3.4786	81.41	-0.2336	-0.0058	0.2278	1250.7339	0.201356	-425.453015	-425.441652	-425.440707	-425.489046	42.144	
C	 0.2459130618	 1.4094237613	 0.2599257683	-0.442068
C	-0.0570291457	-0.0883932802	 0.2285207459	 0.143607
O	 0.3659337279	-0.7064265704	 1.4462466764	-0.445023
C	-1.5413453412	-0.4640205899	-0.1106585546	 0.146142
C	-2.5036340321	-0.0075188383	 0.9982330223	-0.454662
C	-1.9504718021	 0.1625457678	-1.4569414488	-0.418121
C	-1.5271530827	-2.0064342724	-0.2927499456	 0.390778
C	-1.9032000187	-2.8978123898	 0.8736677157	-0.492816
O	-1.1727777133	-2.4801211606	-1.3495407636	-0.322424
H	 1.2975085501	 1.552510297	 0.5243576644	 0.129754
H	 0.0718975848	 1.8827438803	-0.7088393368	 0.1309
H	-0.3645695237	 1.9330955972	 1.0052741463	 0.111821
H	 0.5615620663	-0.5533351618	-0.5471260669	 0.108708
H	 0.0825885761	-0.1467799508	 2.1765266193	 0.281048
H	-2.5202185242	 1.0842510047	 1.0733106737	 0.117681
H	-3.5283308279	-0.3270751621	 0.7836555976	 0.122085
H	-2.2306642331	-0.410589402	 1.9770769002	 0.112392
H	-1.2420830077	-0.1032852506	-2.2438365672	 0.136739
H	-2.9333905516	-0.2064844125	-1.7660349037	 0.116022
H	-2.0132232868	 1.2514251346	-1.3826409228	 0.107218
H	-1.8078409883	-3.9411291524	 0.5706092004	 0.134678
H	-1.2311567463	-2.6858137454	 1.7109140364	 0.1545
H	-2.9254787316	-2.7055878837	 1.2141714228	 0.131045
41.9766	78.4393	179.1083	204.0911	207.5218	244.4354	249.1347	274.1746	286.4879	299.5064	320.4925	344.111	358.4612	421.0846	464.5449	500.9512	588.349	610.9494	677.5933	784.0599	902.6731	915.8126	948.3909	961.9111	1014.3157	1026.1416	1052.8747	1075.2333	1114.4277	1151.791	1185.9229	1227.3046	1265.905	1298.5819	1363.4353	1372.1184	1395.4446	1400.0777	1418.4341	1425.9719	1466.0478	1476.6179	1484.2372	1490.333	1495.5882	1505.6666	1509.6094	1514.9024	1794.435	3033.8661	3039.0914	3045.3269	3047.3484	3053.4258	3099.2973	3105.9864	3108.7414	3113.3325	3115.3605	3129.931	3136.4875	3153.222	3813.8065
CC(O)C(C)(C)C(C)=O	C[C@@H](O)C(C)(C)C(=O)C	
InChI=1S/C7H14O2/c1-5(8)7(3,4)6(2)9/h5,8H,1-4H3	InChI=1S/C7H14O2/c1-5(8)7(3,4)6(2)9/h5,8H,1-4H3/t5-/m1/s1
