18
gdb 17706	5.84792	1.44082	1.40181	1.6441	71.73	-0.2513	0.0724	0.3237	945.4759	0.153994	-347.726747	-347.719674	-347.71873	-347.757589	28.188	
C	-0.1675206323	 1.5898144055	-0.0033324743	-0.420138
C	-0.0304653243	 0.075360698	 0.002715139	 0.00455
C	 1.2026268455	-0.5883213205	-0.6534594727	-0.049851
C	 2.1323173253	-0.2883688816	 0.5762659165	-0.100482
C	 2.5829889594	-1.7611330916	 0.6434057587	 0.147015
O	 3.0440731555	-2.3076766798	 1.8528633119	-0.449468
C	 1.0926842478	-1.8544812139	 0.2639334125	-0.097737
C	 0.7081642315	-0.6235632944	 1.1660923065	-0.075922
H	 0.7719618182	 2.0841685612	 0.2646236865	 0.114548
H	-0.4651798128	 1.9535143531	-0.9931825179	 0.115543
H	-0.9323071207	 1.9175797781	 0.7098019712	 0.11448
H	-0.9826635605	-0.4011639369	-0.2647390676	 0.062463
H	 1.5136646264	-0.5879677384	-1.699776428	 0.068669
H	 2.7149390903	 0.6168313574	 0.7498669293	 0.072629
H	 3.2961443326	-2.0815546709	-0.1227631255	 0.081467
H	 2.4368887022	-2.0457834037	 2.5535948561	 0.280416
H	 0.4695845504	-2.7304118444	 0.0748926564	 0.069281
H	 0.4285193854	-0.6500646473	 2.2221607415	 0.062535
172.6676	194.9038	219.6311	274.4279	312.568	394.6858	508.2503	580.4267	724.3804	750.1931	835.7529	838.8598	841.3909	857.8016	900.235	922.9474	968.6315	1000.9616	1040.1279	1051.2745	1081.6371	1098.8583	1125.416	1132.8113	1144.6038	1158.6877	1166.0502	1183.4428	1235.2397	1242.6607	1280.914	1298.7148	1312.991	1399.5557	1415.3476	1446.4922	1494.557	1498.9671	3018.6863	3028.0076	3065.9876	3075.1991	3088.9151	3092.023	3098.5772	3103.4731	3114.4201	3803.3169
CC1C2C3C(O)C2C13	C[C@H]1[C@H]2[C@@H]3[C@@H](O)[C@H]2[C@H]13	
InChI=1S/C7H10O/c1-2-3-5-4(2)6(3)7(5)8/h2-8H,1H3	InChI=1S/C7H10O/c1-2-3-5-4(2)6(3)7(5)8/h2-8H,1H3/t2-,3-,4+,5-,6+,7-/m1/s1
