19
gdb 88871	3.73063	1.06317	0.90023	2.5919	72.24	-0.2537	0.0779	0.3316	1320.7386	0.158493	-460.139386	-460.130478	-460.129534	-460.174909	31.642	
C	-0.0550433616	 1.4887350759	-0.2672656723	-0.418637
C	-0.0768152978	 0.0232463972	 0.0874456928	 0.083275
O	 1.1538008916	-0.7065129967	 0.0124825435	-0.257163
C	 0.5333879896	-0.5632666543	 1.2902004587	 0.0246
C	 1.2761010949	 0.2545695093	 2.3192951225	 0.1986
O	 0.337183759	 0.8566871512	 3.1837954348	-0.261898
C	 0.9645707173	 0.9246714813	 4.4568826351	-0.097712
C	 1.7803471709	-0.3687748238	 4.4865747672	-0.089136
O	 2.113935288	-0.5748792306	 3.1175614134	-0.274083
H	 0.824002795	 1.9935259012	 0.1367461735	 0.13016
H	-0.0479643187	 1.6118128183	-1.3551934183	 0.127463
H	-0.9503222043	 1.983580711	 0.1231781578	 0.130486
H	-0.9261335931	-0.5249917642	-0.3256103772	 0.09054
H	 0.1072074589	-1.4787003227	 1.7022346439	 0.094176
H	 1.9124056189	 1.0085573777	 1.8300727367	 0.078581
H	 1.614204796	 1.8099101358	 4.5281062932	 0.102876
H	 0.1888696302	 0.9840292555	 5.2230180282	 0.119946
H	 2.6998671354	-0.290317033	 5.0744488517	 0.112912
H	 1.1850056398	-1.2100459692	 4.8665295146	 0.105014
24.9021	46.1794	129.8688	177.0874	202.9134	250.3421	378.8396	394.5308	414.8081	545.9614	661.0634	746.9377	785.6763	861.8147	900.8936	945.1355	955.1072	986.0063	998.3645	1016.1027	1065.2543	1087.4153	1110.5382	1143.9382	1159.9023	1166.1612	1194.6712	1226.0232	1247.1307	1294.0313	1324.0786	1340.2907	1381.3011	1386.4076	1410.1442	1426.4113	1471.845	1489.9594	1510.9627	1515.1687	1527.3547	2981.8038	2995.3246	3012.7356	3043.3294	3081.7119	3084.2984	3104.595	3110.6603	3112.9754	3141.6263
CC1OC1C1OCCO1	C[C@H]1O[C@H]1C1OCCO1	
InChI=1S/C6H10O3/c1-4-5(9-4)6-7-2-3-8-6/h4-6H,2-3H2,1H3	InChI=1S/C6H10O3/c1-4-5(9-4)6-7-2-3-8-6/h4-6H,2-3H2,1H3/t4-,5-/m1/s1
