15
gdb 29598	3.18093	1.17144	0.86064	5.4038	71.36	-0.2049	0.0348	0.2397	1245.5038	0.113329	-416.852502	-416.843992	-416.843048	-416.886619	30.909	
O	 0.8865916028	 1.2885789478	-0.0146022675	-0.450635
C	 0.3858877673	 0.0189700554	-0.0655165341	 0.218272
C	 0.3479766758	-0.8736096237	-1.1123742532	-0.207086
N	-0.2642153537	-2.0164842914	-0.6374476623	-0.254022
C	-0.6055748547	-1.8567529708	 0.6739408949	-0.138501
C	-0.2153119642	-0.5954776081	 1.0682081427	 0.186116
C	-0.3680895069	 0.0575441248	 2.4150863885	-0.461498
C	-1.0276590471	-0.8068862896	 3.3927800584	 0.273424
N	-1.5498341275	-1.5013685108	 4.1544126942	-0.321785
H	 1.23988804	 1.5256788353	-0.8771207805	 0.298916
H	 0.6948552342	-0.7949751988	-2.1294809853	 0.116583
H	-0.4314918944	-2.8447889536	-1.1792114288	 0.26668
H	-1.0957838425	-2.6364467823	 1.233694477	 0.146409
H	 0.6090422474	 0.3514403439	 2.8201143474	 0.163571
H	-0.9447358365	 0.9882298819	 2.3346900885	 0.163557
27.0601	112.3239	215.9307	228.0593	246.475	309.5558	382.006	412.7999	423.3398	535.7979	614.7224	626.0622	643.5997	697.8337	765.6217	783.7126	912.1211	946.4303	957.282	1079.2203	1097.6323	1171.6898	1219.6808	1219.8919	1275.2917	1346.0504	1356.3428	1454.8093	1466.6153	1485.0055	1584.2682	1638.7313	2364.6496	3024.4006	3047.0132	3264.4149	3272.2932	3698.434	3838.4377
OC1=CNC=C1CC#N	Oc1c[nH]cc1CC#N	
InChI=1S/C6H6N2O/c7-2-1-5-3-8-4-6(5)9/h3-4,8-9H,1H2	InChI=1S/C6H6N2O/c7-2-1-5-3-8-4-6(5)9/h3-4,8-9H,1H2
