21
gdb 75899	2.37987	1.47099	1.2174	4.3388	77.42	-0.2591	0.015	0.2741	1142.8282	0.182028	-424.287191	-424.277904	-424.27696	-424.320669	35.532	
C	 0.2769377965	 1.6371539254	-0.2264571858	-0.423871
C	 0.0109115498	 0.1551676605	 0.0876024041	-0.157316
C	 0.5203713048	-0.6957282152	-1.0785687685	 0.43499
O	 0.0499914025	-0.8042904797	-2.1737394205	-0.348826
O	 1.6662964767	-1.3347476286	-0.7131437278	-0.22353
C	 2.0387631444	-0.9710800613	 0.6242306769	-0.104707
C	 0.753496081	-0.452403911	 1.3072962391	 0.258984
C	 1.0705955403	 0.5210607706	 2.4449318296	-0.451707
C	-0.0565535854	-1.6455736843	 1.8478598823	-0.432066
H	 1.3461991868	 1.8512866825	-0.3259207153	 0.124036
H	-0.2041652417	 1.8990906878	-1.1723593657	 0.144763
H	-0.1269699091	 2.2841565017	 0.5565934355	 0.123208
H	-1.0697862653	 0.0070499993	 0.1655476101	 0.101588
H	 2.4550086618	-1.8583117003	 1.1084345343	 0.119061
H	 2.8185136573	-0.2008959382	 0.5762236623	 0.108066
H	 1.6573569276	 1.3782475764	 2.1040734753	 0.12009
H	 0.1530062394	 0.9009601074	 2.9061373968	 0.12189
H	 1.6452557005	 0.0164634829	 3.2297527672	 0.118346
H	 0.4851925788	-2.1544107948	 2.6521919785	 0.115356
H	-1.0184330857	-1.3109397624	 2.2498734054	 0.119254
H	-0.2592846813	-2.3815233987	 1.0628464862	 0.132391
78.6142	179.9177	213.9184	222.5119	253.6048	263.6565	280.8633	311.9178	350.2949	366.7145	454.8292	528.3321	569.8639	685.588	727.0434	771.8067	817.8816	883.327	937.9686	959.7123	987.8919	1025.3485	1037.2072	1051.6244	1077.4448	1101.3955	1171.1102	1206.7487	1218.2777	1254.6282	1278.0243	1303.1408	1347.9906	1391.5483	1404.6534	1410.4924	1432.7114	1483.7024	1488.542	1497.6969	1501.3436	1509.0961	1511.4858	1523.5144	1878.1129	3027.5632	3029.0668	3034.5653	3041.7924	3069.9526	3093.4078	3094.9492	3102.192	3103.9994	3111.6847	3114.4498	3125.2246
CC1C(=O)OCC1(C)C	C[C@H]1C(=O)OCC1(C)C	
InChI=1S/C7H12O2/c1-5-6(8)9-4-7(5,2)3/h5H,4H2,1-3H3	InChI=1S/C7H12O2/c1-5-6(8)9-4-7(5,2)3/h5H,4H2,1-3H3/t5-/m0/s1
