20
gdb 80168	2.39213	1.53093	1.27903	1.4812	78.37	-0.2326	-0.0221	0.2104	1099.0346	0.170518	-403.151944	-403.143133	-403.142189	-403.185476	33.291	
C	 1.0946045474	 1.0266204188	 0.8635532696	-0.408224
C	 0.4485872473	-0.2963257662	 0.4195735633	-0.110459
C	 0.8644951184	-0.7156347149	-0.9817988149	-0.043639
C	 1.6560803937	-1.9980140717	-0.9158798517	-0.041835
C	 1.7617065546	-2.4398927215	 0.5308041465	-0.349412
C	 0.9050491465	-1.4503109647	 1.3353851103	 0.38781
O	 0.6420030194	-1.5450470793	 2.5059015483	-0.320642
N	 0.3541321162	-1.947885323	-1.5659017727	-0.096162
C	-0.8104442843	-2.6404292929	-1.0352190804	-0.335317
H	 2.1849641896	 0.9889416274	 0.7668216608	 0.120759
H	 0.7320400412	 1.8579767841	 0.2517413525	 0.122427
H	 0.8512470827	 1.2305434889	 1.9091583262	 0.140302
H	-0.6392568309	-0.2005235182	 0.5208375343	 0.10673
H	 1.0966993598	 0.0714988301	-1.6956142107	 0.089608
H	 2.4950785278	-2.1967092192	-1.5772400042	 0.09309
H	 1.4341463966	-3.4661723011	 0.7256511461	 0.135182
H	 2.7984974118	-2.3710394094	 0.8825045069	 0.135238
H	-0.9074490972	-2.6630179562	 0.0600884178	 0.116718
H	-1.7109994758	-2.1673458975	-1.438945825	 0.129425
H	-0.7900118548	-3.6761061533	-1.388500153	 0.128403
59.563	138.4772	170.8475	220.3045	232.4081	249.061	297.3819	432.2601	456.4745	505.5092	588.9909	635.9503	704.0261	730.5308	736.5851	830.9394	878.7787	931.1573	981.6085	1017.4576	1029.8143	1057.8016	1065.7991	1115.9729	1140.7425	1151.6574	1161.6676	1188.3318	1192.6257	1270.307	1278.2012	1306.6008	1326.1973	1347.299	1393.745	1406.7114	1443.5355	1461.5265	1496.9523	1497.9008	1500.4305	1502.4096	1840.0608	2995.802	3035.2248	3038.6851	3043.3579	3071.1293	3084.7293	3104.4199	3105.6709	3125.3684	3127.7928	3142.0756
CC1C2C(CC1=O)N2C	C[C@H]1[C@H]2[C@@H](CC1=O)N2C	
InChI=1S/C7H11NO/c1-4-6(9)3-5-7(4)8(5)2/h4-5,7H,3H2,1-2H3	InChI=1S/C7H11NO/c1-4-6(9)3-5-7(4)8(5)2/h4-5,7H,3H2,1-2H3/t4-,5-,7+,8?/m1/s1
