23
gdb 87963	3.45076	1.05066	0.95231	1.2156	86.76	-0.2229	0.0874	0.3103	1382.031	0.205384	-388.297982	-388.288511	-388.287567	-388.332599	36.213	
C	-0.0027855555	 1.503227718	-0.3609140065	-0.410047
C	-0.0553951386	 0.028614703	-0.0317359325	-0.075386
C	 1.2043983021	-0.8264112165	-0.040785111	-0.360545
C	 0.4827235275	-0.5242444257	 1.2503410866	 0.462099
C	 1.1186989278	 0.2926079498	 2.3829731649	-0.319697
C	 0.6898975279	-0.4774604769	 3.6510002083	-0.218845
C	 0.3062706978	-1.8594385486	 3.0999554746	 0.14241
C	-0.6911150237	-2.6500176794	 3.9266375869	-0.407464
O	-0.2735478071	-1.5665354621	 1.8293165058	-0.300211
H	 0.9176168841	 1.9658859846	 0.0100281008	 0.113728
H	-0.0346546927	 1.6628460831	-1.4443667123	 0.117365
H	-0.8476230018	 2.0446982468	 0.0799118136	 0.116706
H	-0.9482636305	-0.4843033601	-0.3803721035	 0.093143
H	 1.1279530357	-1.8356746717	-0.4301086864	 0.113011
H	 2.1535767609	-0.3310614279	-0.2277386098	 0.100521
H	 2.2074119742	 0.3195982879	 2.2808909976	 0.10506
H	 0.7670988512	 1.3277680946	 2.3978882113	 0.108313
H	 1.4742267481	-0.526132888	 4.4106765441	 0.097779
H	-0.1920950192	-0.0136522734	 4.1053927947	 0.102255
H	 1.2226689328	-2.4578667105	 2.9529574691	 0.061431
H	-1.6091315041	-2.0716550718	 4.0704723761	 0.120844
H	-0.9502893533	-3.587953425	 3.4275660758	 0.123952
H	-0.2701679337	-2.8883683201	 4.9084309819	 0.113576
34.0567	117.2973	173.196	203.7716	219.0539	237.2059	272.7966	382.4475	411.2266	435.983	517.3574	530.8104	579.0181	771.9161	783.2357	832.0074	867.97	892.1168	902.693	921.7327	949.5068	972.1397	1009.1987	1013.9566	1029.7181	1092.1602	1114.1757	1129.2597	1136.6765	1156.9443	1183.2943	1199.7637	1221.6883	1247.2364	1293.7181	1314.8422	1342.2856	1367.116	1392.4396	1405.9293	1416.1039	1425.8358	1481.8905	1483.7872	1487.4297	1494.2595	1499.1117	1506.738	1508.4488	2943.7314	3026.2059	3039.1958	3047.8596	3055.3792	3086.4196	3088.799	3095.861	3106.6254	3113.7543	3115.1988	3117.1017	3143.8319	3211.8501
CC1CC11CCC(C)O1	C[C@H]1C[C@]21CC[C@@H](C)O2	
InChI=1S/C8H14O/c1-6-5-8(6)4-3-7(2)9-8/h6-7H,3-5H2,1-2H3	InChI=1S/C8H14O/c1-6-5-8(6)4-3-7(2)9-8/h6-7H,3-5H2,1-2H3/t6-,7+,8-/m0/s1
