15
gdb 68935	2.12728	1.73232	1.14034	4.8553	68.48	-0.2516	-0.0544	0.1972	1070.3441	0.108895	-457.749821	-457.741288	-457.740344	-457.783239	30.706	
C	 0.0877945814	 1.4886267766	 0.1094276176	-0.495716
C	-0.0772267221	 0.0045555215	 0.1534581528	 0.336749
C	-1.3633376156	-0.8172367481	-0.0646592054	-0.410199
C	-0.7868864417	-1.8450427051	 0.9493748459	 0.393771
O	-1.2262518557	-2.8138752642	 1.4837800283	-0.275203
C	 0.4942811369	-1.0188032511	 1.1144418568	 0.109924
O	 0.9917698037	-0.8330224405	-0.236793543	-0.291558
C	 1.4433654808	-0.8326651965	 2.2331582727	 0.055634
O	 1.2494597893	-1.2422327486	 3.3489851316	-0.238753
H	 1.0923455608	 1.7789723756	 0.4249789418	 0.145644
H	-0.0676655329	 1.8511240918	-0.9126294441	 0.147843
H	-0.6462084397	 1.9783744923	 0.7557272093	 0.143988
H	-2.2740612967	-0.3595786879	 0.333275268	 0.142468
H	-1.5307132664	-1.156600412	-1.0889609607	 0.14307
H	 2.3561065579	-0.2636914139	 1.9513657184	 0.092339
89.0287	117.292	140.1235	194.9202	211.5713	296.5345	368.9155	455.5739	468.9338	490.2585	585.0633	606.214	678.4658	736.2499	788.5559	880.138	942.2323	992.5399	1028.95	1043.9917	1083.8987	1140.5208	1190.4382	1218.4659	1294.9348	1381.7161	1408.0767	1434.3574	1454.6952	1478.7375	1492.4558	1810.5834	1914.6611	2896.9479	3042.7789	3067.3905	3108.2482	3130.0497	3135.0521
CC12CC(=O)C1(O2)C=O	C[C@]12CC(=O)[C@]1(O2)C=O	
InChI=1S/C6H6O3/c1-5-2-4(8)6(5,3-7)9-5/h3H,2H2,1H3	InChI=1S/C6H6O3/c1-5-2-4(8)6(5,3-7)9-5/h3H,2H2,1H3/t5-,6+/m0/s1
