19
gdb 80381	2.20721	1.66478	1.36782	1.2423	70.67	-0.2281	0.0648	0.2929	1046.8679	0.156227	-460.115736	-460.106457	-460.105513	-460.148772	35.967	
C	-0.1054682452	 1.6029702437	 0.0598789133	-0.457623
C	 0.0457343715	 0.0891116605	 0.0809602246	 0.332317
C	-1.2168947674	-0.6210536701	-0.3898906574	-0.412754
O	 1.1899034733	-0.3840866311	-0.7350778406	-0.34964
C	 1.6639336533	-1.2058237029	 0.3410337654	-0.040547
C	 2.1591546683	-0.3068163811	 1.4258304399	 0.041592
O	 2.7890270328	 0.9055070003	 1.1512675315	-0.433692
C	 0.666842229	-0.5913312008	 1.3133723494	 0.218889
O	-0.0715435304	-1.2015551375	 2.3084872943	-0.454022
H	 0.7832723066	 2.1016606651	 0.4471368278	 0.13521
H	-0.2988694758	 1.9502774607	-0.9606333138	 0.123882
H	-0.9608712201	 1.8971694731	 0.677599354	 0.11925
H	-1.4791724491	-0.2849586562	-1.3975247202	 0.119665
H	-1.0726195034	-1.7038115583	-0.4071643003	 0.127145
H	-2.0528116621	-0.3997951614	 0.2805050368	 0.119787
H	 1.9830647777	-2.2166826063	 0.1145507157	 0.10909
H	 2.6043175856	-0.821194268	 2.2749285343	 0.111663
H	 2.7287630427	 1.0171089806	 0.1923990465	 0.295788
H	-0.0723176673	-0.6273882902	 3.0822825288	 0.294
161.1225	171.3275	197.7607	213.3948	232.2494	265.3729	285.9705	332.0518	363.5771	428.5084	435.175	465.7725	591.8061	633.8239	648.7261	684.4249	811.424	829.7765	925.4605	933.3347	947.7863	986.9263	1006.5099	1020.361	1052.7709	1102.3808	1154.6722	1217.3345	1221.2868	1239.9606	1286.707	1294.9927	1336.7858	1388.5419	1400.2837	1413.747	1469.5992	1478.179	1484.1274	1497.0265	1513.3873	3039.0469	3045.5577	3100.4851	3116.9341	3128.2935	3143.5233	3150.5755	3179.6604	3750.9574	3796.4086
CC1(C)OC2C(O)C12O	CC1(C)O[C@H]2[C@@H](O)[C@@]12O	
InChI=1S/C6H10O3/c1-5(2)6(8)3(7)4(6)9-5/h3-4,7-8H,1-2H3	InChI=1S/C6H10O3/c1-5(2)6(8)3(7)4(6)9-5/h3-4,7-8H,1-2H3/t3-,4+,6+/m1/s1
