17
gdb 90115	3.11515	1.74417	1.52338	2.6993	72.95	-0.2249	-0.0048	0.2201	909.2873	0.135311	-421.67508	-421.668019	-421.667075	-421.705984	29.461	
O	 0.2882408559	 1.4150620285	-0.1177342708	-0.406672
C	 0.1627632358	 0.0204383094	-0.0735205835	 0.044984
C	 0.2425570327	-0.6182956662	 1.4165297229	-0.380842
C	-1.2924705137	-0.4292353582	 1.4233305707	 0.355724
O	-2.5844850804	-1.2109300289	 1.4450321637	-0.361314
C	-2.8465419745	-0.3259715477	 0.2575682634	-0.078813
C	-2.8874198954	 1.0536549808	 0.9158916423	-0.052522
C	-1.8267220133	 0.9816157495	 1.7179273153	-0.114246
C	-1.3123172513	-0.5426493069	-0.0702892287	 0.010963
H	 1.2157168952	 1.6344924531	 0.0190342472	 0.289425
H	 0.8184373703	-0.4631009311	-0.8094305235	 0.079786
H	 0.5657504401	-1.6601380873	 1.3794121769	 0.123137
H	 0.8307915105	-0.0642439659	 2.1552231378	 0.101311
H	-3.6649509276	-0.6819662963	-0.3682958268	 0.081863
H	-3.6173448867	 1.8322011079	 0.754473048	 0.110486
H	-1.399899911	 1.6960054212	 2.4055997192	 0.101387
H	-1.2038164565	-1.595743752	-0.3470026542	 0.095345
177.4881	212.4625	280.5853	347.9907	405.3288	412.7022	506.0919	559.5004	603.4747	678.8404	703.2938	731.2973	759.6727	801.336	833.0446	843.6706	888.8491	900.2579	929.9831	977.7721	1021.8938	1038.6305	1062.3233	1120.2585	1136.7287	1145.8462	1194.1626	1202.3895	1207.1475	1249.0839	1258.3818	1292.4733	1319.2816	1393.6323	1422.084	1464.264	1624.1496	3008.5441	3051.2507	3060.5126	3125.5511	3131.9509	3235.964	3263.8743	3810.5282
OC1CC23OC(C=C2)C13	O[C@H]1C[C@@]23O[C@@H](C=C2)[C@@H]13	
InChI=1S/C7H8O2/c8-4-3-7-2-1-5(9-7)6(4)7/h1-2,4-6,8H,3H2	InChI=1S/C7H8O2/c8-4-3-7-2-1-5(9-7)6(4)7/h1-2,4-6,8H,3H2/t4-,5-,6+,7-/m0/s1
