16
gdb 81934	2.54958	1.66971	1.32911	3.5841	64.27	-0.2439	-0.041	0.2029	973.0076	0.125681	-475.010157	-475.002677	-475.001733	-475.041943	29.413	
O	-0.0035862432	 1.4340139134	 0.0318799349	-0.439424
C	-0.003481655	 0.0325595485	 0.0079405572	 0.13051
C	-1.3945100946	-0.5986873272	-0.0982084315	-0.070661
N	-1.9280273615	-0.5441647564	-1.4646340381	-0.353769
C	-1.3191148172	-1.8163404979	-0.9637576211	-0.162898
C	 0.107074854	-1.9372221121	-1.4264158982	 0.437076
O	 0.6592307099	-2.9414385032	-1.7909789741	-0.315387
C	 0.7553901699	-0.5459547275	-1.2228605251	-0.063369
O	 0.5703535772	 0.2959070322	-2.35545925	-0.440224
H	 0.1433841573	 1.7050458216	-0.8870778832	 0.289446
H	 0.4648731593	-0.3292733301	 0.9323880891	 0.095535
H	-2.0844229963	-0.5431692247	 0.736977726	 0.110062
H	-2.940200897	-0.6396587553	-1.4566267373	 0.253001
H	-1.9359429721	-2.697047094	-0.8326232504	 0.116647
H	 1.8302145871	-0.6374789805	-1.0638524257	 0.111391
H	-0.3811893878	 0.2526408633	-2.5541650928	 0.302065
112.7711	189.0344	258.8278	284.5474	311.406	407.6038	451.4028	514.0337	528.8508	553.107	709.0978	737.0228	783.2516	823.0898	849.6321	868.1235	883.7478	924.1005	999.6368	1022.3968	1088.5503	1119.1805	1125.3088	1140.1256	1189.8761	1238.0566	1239.9986	1257.337	1299.4811	1346.1664	1370.0849	1394.6687	1438.02	1464.6999	1854.154	3031.8814	3118.8553	3175.8061	3198.6771	3511.2382	3641.793	3712.156
OC1C2NC2C(=O)C1O	O[C@H]1[C@H]2N[C@H]2C(=O)[C@H]1O	
InChI=1S/C5H7NO3/c7-3-1-2(6-1)4(8)5(3)9/h1-3,5-7,9H	InChI=1S/C5H7NO3/c7-3-1-2(6-1)4(8)5(3)9/h1-3,5-7,9H/t1-,2+,3-,5-/m0/s1
