16
gdb 51418	3.97232	1.1215	1.03776	4.1585	70.48	-0.2498	-0.02	0.2298	1151.9298	0.125262	-437.855447	-437.848136	-437.847191	-437.887995	28.	
O	-0.1544715656	-0.0587531263	 0.375252922	-0.314823
C	-0.0973137208	 1.1180104855	 0.0955700002	 0.15372
N	 1.045179969	 1.8138523037	-0.1788751346	-0.29578
C	 2.3479107378	 1.2284798262	-0.1707145767	 0.054789
C	 3.3779497922	 1.4651658735	-1.334593968	-0.007301
C	 3.4569531863	 3.0029288537	-1.3833992923	-0.095344
C	 3.5846455428	 3.3052218367	-0.0876732048	-0.095359
C	 3.5644673225	 1.9067781536	 0.5583083952	-0.007313
O	 4.4142422609	 1.1474706966	-0.3554317575	-0.272649
H	-0.9922723326	 1.7683907721	 0.0319968897	 0.076735
H	 0.9711102342	 2.7953726917	-0.4003749133	 0.243171
H	 2.2529927706	 0.1749395361	 0.084408723	 0.14079
H	 3.4117083916	 0.8767673402	-2.2497231743	 0.090865
H	 3.4221990596	 3.6337802088	-2.2591727084	 0.118819
H	 3.6854849352	 4.2570432652	 0.4123543542	 0.118818
H	 3.7925121465	 1.7783780828	 1.6148709257	 0.09086
46.4508	156.3175	201.8466	249.4138	367.5716	537.341	573.7414	584.8794	598.6995	720.0949	740.7678	797.9946	823.5394	853.8443	880.2035	887.7768	919.8752	943.4998	963.3147	1008.0504	1032.7354	1099.2678	1123.397	1148.3896	1199.663	1217.8678	1237.4735	1242.2572	1289.0894	1314.0056	1349.2828	1434.7655	1526.1637	1606.7951	1810.8776	2936.2396	3143.7642	3145.8562	3161.4147	3233.1987	3259.8364	3616.0422
O=CNC1C2C=CC1O2	O=CN[C@H]1[C@H]2C=C[C@@H]1O2	
InChI=1S/C6H7NO2/c8-3-7-6-4-1-2-5(6)9-4/h1-6H,(H,7,8)	InChI=1S/C6H7NO2/c8-3-7-6-4-1-2-5(6)9-4/h1-6H,(H,7,8)/t4-,5+,6+
