14
gdb 19802	4.38923	2.10053	1.89278	4.0614	61.65	-0.2427	0.0264	0.2691	726.8905	0.108872	-378.648688	-378.642866	-378.641922	-378.678478	23.36	
N	-0.0254845199	 1.2296568057	 0.0735702778	-0.557411
C	-0.0362744276	-0.0216292217	 0.0647574778	 0.459502
O	 1.0152144896	-0.9337325531	 0.0586958733	-0.263504
C	 0.0934207355	-2.0572213454	-0.0207230265	 0.114136
C	-0.3841923634	-2.6518840145	 1.3291727446	-0.081375
N	-0.4613981037	-1.5325854708	 2.2927565304	-0.317158
C	-1.559808135	-1.7287783546	 1.3308193114	-0.048792
C	-1.1112466688	-1.094650326	-0.0154467491	-0.185948
H	 0.9281072788	 1.5934895542	 0.116939122	 0.228746
H	 0.3350873337	-2.7477893796	-0.8267912269	 0.098316
H	-0.2833018433	-3.675898288	 1.6653052694	 0.100746
H	-0.7573966936	-1.9251450041	 3.1853604561	 0.238851
H	-2.5791984791	-1.8881397017	 1.6560636642	 0.10628
H	-1.8450847632	-1.0447177804	-0.8156819643	 0.107613
144.9915	265.1553	353.626	441.9169	569.3331	655.97	703.5116	762.6627	796.2435	816.4305	864.1952	885.5089	889.9602	928.8088	944.8861	956.1812	986.0239	1001.9232	1025.9727	1099.0015	1114.6059	1176.3541	1185.0542	1199.5877	1231.901	1290.5795	1314.806	1331.0959	1369.9037	1827.1614	3134.0107	3157.6208	3193.506	3209.3051	3475.3904	3486.1464
N=C1OC2C3NC3C12	[NH][C]1O[C@H]2[C@H]3N[C@H]3[C@@H]12	
InChI=1S/C5H6N2O/c6-5-1-2-3(7-2)4(1)8-5/h1-4,6-7H	InChI=1S/C5H6N2O/c6-5-1-2-3(7-2)4(1)8-5/h1-4,6-7H/t1-,2+,3+,4-/m1/s1
