19
gdb 61629	3.11746	0.86152	0.78919	2.8165	76.96	-0.2367	0.0077	0.2444	1492.5533	0.1578	-419.176556	-419.166803	-419.165858	-419.211867	35.126	
C	-0.3443299782	 1.3345722629	 0.0631651724	-0.321941
N	 0.0745260396	-0.058188905	 0.0956739251	-0.074204
C	 1.4553184127	-0.3573383426	-0.2589857009	-0.266935
C	 0.9781915888	-0.5485279554	 1.1409372414	 0.018143
C	 1.5144611839	 0.3152629114	 2.2643926154	-0.250541
C	 0.5633243796	 0.3353150908	 3.4800625653	-0.015208
O	 0.3370228038	-0.9506001617	 4.026680968	-0.406516
C	 1.0639102663	 1.2698553094	 4.5103037464	 0.255844
N	 1.4884535693	 1.9814975842	 5.3157829974	-0.313063
H	 0.4390269161	 2.0639649859	 0.32414895	 0.102078
H	-0.6848352414	 1.5680099512	-0.9504763961	 0.132459
H	-1.1924048041	 1.4792147084	 0.7409212492	 0.124719
H	 1.6137486563	-1.2079331819	-0.9169932866	 0.119121
H	 2.1263115268	 0.4840427201	-0.4368711017	 0.106009
H	 0.7301132054	-1.5573352081	 1.4638717391	 0.106199
H	 2.4847570127	-0.0784327676	 2.5950568076	 0.114947
H	 1.6967860034	 1.3422833998	 1.9362851234	 0.125505
H	-0.4236080341	 0.6869222401	 3.1605032711	 0.147827
H	 1.168942353	-1.2755099219	 4.3910774736	 0.295556
52.4725	70.714	117.8788	188.2319	220.6271	249.5515	281.2006	323.5431	346.9832	398.1728	423.9436	525.9464	559.9972	594.3472	745.3222	790.0311	853.6536	922.0093	947.897	1014.1027	1039.6307	1074.1097	1107.7707	1119.095	1133.255	1142.6042	1172.753	1203.0644	1219.2442	1275.5202	1311.7541	1340.7189	1356.0994	1416.4076	1426.4791	1450.6414	1470.6508	1490.7687	1508.0428	1515.4642	2354.2927	2974.3755	3028.2539	3064.7121	3068.9164	3079.1434	3097.3498	3100.4679	3131.8714	3170.0056	3796.0063
CN1CC1CC(O)C#N	CN1C[C@H]1C[C@@H](O)C#N	
InChI=1S/C6H10N2O/c1-8-4-5(8)2-6(9)3-7/h5-6,9H,2,4H2,1H3	InChI=1S/C6H10N2O/c1-8-4-5(8)2-6(9)3-7/h5-6,9H,2,4H2,1H3/t5-,6-,8?/m1/s1
