18
gdb 95528	2.20294	1.65714	1.2046	2.2463	77.55	-0.2487	0.0174	0.2661	1087.9196	0.147825	-401.92769	-401.919129	-401.918185	-401.960753	32.335	
C	-0.1440212866	 1.5470916342	-0.0424265847	-0.416682
C	 0.0211236991	 0.0282279576	-0.0140257363	-0.029591
C	 0.7405656535	-0.4917518592	-1.2527627708	-0.07448
O	 0.8576158914	-1.9244578463	-1.2280472358	-0.225375
C	 1.0093447072	-2.488176621	-0.0111355398	 0.13399
N	 1.0076964268	-1.9614050988	 1.1405396122	-0.265368
C	 0.7851190119	-0.5068428105	 1.2242220379	-0.163272
C	 2.0622386877	 0.1798391524	 1.4375169786	 0.375586
C	 3.1112392961	 0.7456641272	 1.5947104497	-0.491591
H	 0.8262241694	 2.0500067454	-0.0867460718	 0.136437
H	-0.7343907297	 1.8586023332	-0.9104921042	 0.115847
H	-0.6608055889	 1.8994294746	 0.8558044469	 0.123785
H	-0.9707740982	-0.4402598801	 0.0176609658	 0.094018
H	 0.1985398463	-0.2541405755	-2.1713560151	 0.11832
H	 1.7477761962	-0.0613286021	-1.317757252	 0.126296
H	 1.1382008399	-3.5639063834	-0.1187151965	 0.128315
H	 0.1629943059	-0.3381969182	 2.1126845439	 0.113552
H	 4.0407985919	 1.2353506205	 1.7501009021	 0.200212
81.3587	149.1323	185.49	211.5055	231.3481	289.055	377.2964	416.401	489.3159	501.9655	598.4277	622.0364	633.8205	647.8918	771.0813	881.8321	909.0994	933.7829	959.6515	982.3907	996.521	1019.1704	1109.1289	1133.3076	1182.8681	1186.4775	1252.3818	1303.2849	1322.3869	1341.9877	1372.4616	1403.335	1412.2476	1422.5725	1494.6803	1500.7695	1505.3873	1721.8231	2231.6221	3016.0334	3027.223	3037.4385	3038.7549	3100.7759	3103.691	3117.9783	3158.2263	3502.1871
CC1COC=NC1C#C	C[C@H]1COC=N[C@H]1C#C	
InChI=1S/C7H9NO/c1-3-7-6(2)4-9-5-8-7/h1,5-7H,4H2,2H3	InChI=1S/C7H9NO/c1-3-7-6(2)4-9-5-8-7/h1,5-7H,4H2,2H3/t6-,7-/m0/s1
