20
gdb 133873	3.08572	1.9131	1.87526	1.9005	81.97	-0.2086	0.0824	0.291	871.4877	0.175911	-365.922771	-365.916841	-365.915897	-365.952493	26.965	
C	-0.7778971189	 1.7887034422	 0.3690105058	-0.276637
N	 0.6580763081	 1.5284302262	-0.1869655035	-0.193392
C	-0.0448564622	 0.401553045	-0.9915671011	 0.056297
C	 0.5671294385	-0.9621387979	-1.3325600265	-0.262655
C	 0.4523269563	-1.6781013218	 0.0343344356	-0.021135
C	 1.4475698358	-0.8648368177	 0.8958872231	-0.262655
C	 0.7272617467	 0.486884472	 0.9627069026	 0.056296
C	-0.6804798735	 0.2284777734	 0.3986482141	 0.269082
C	-0.9845553623	-1.2560193476	 0.5836054703	-0.367242
H	-1.4415655452	 2.2559600081	-0.3628850235	 0.103377
H	-0.77714419	 2.3293900302	 1.3188067167	 0.103377
H	-0.6562810323	 0.8232513255	-1.7929667018	 0.064566
H	 1.5961466151	-0.9387135435	-1.7037241731	 0.105877
H	-0.0542399643	-1.4303066619	-2.1039885159	 0.095846
H	 0.6288877741	-2.7550986001	 0.0116026372	 0.06205
H	 2.4517399383	-0.8441596321	 0.4618336688	 0.105877
H	 1.5340623853	-1.2547737504	 1.9161085705	 0.095846
H	 0.8149612988	 0.985847267	 1.9308264522	 0.064566
H	-1.7919297544	-1.6495368263	-0.0410135598	 0.10033
H	-1.1363209138	-1.5770823202	 1.6183730682	 0.10033
303.1817	384.8822	401.5244	436.21	478.0856	586.6164	593.3616	673.7235	762.4916	763.8964	784.6592	835.9447	842.0949	878.5645	907.3471	930.4951	947.9262	957.53	987.7242	1002.7341	1033.4989	1070.6971	1082.7018	1087.5929	1105.5232	1138.3557	1142.8488	1169.3919	1181.5224	1195.9529	1209.7342	1243.0072	1261.2277	1281.074	1299.0653	1320.9977	1331.3321	1370.7962	1413.3686	1474.2223	1479.9814	1500.8951	1526.0859	3039.1616	3039.2868	3052.2156	3053.6133	3068.7193	3074.7037	3085.5098	3091.4748	3098.5334	3108.1582	3125.7922
C1N2C3CC4CC2C13C4	C1N2[C@H]3C[C@H]4C[C@@H]2[C@@]13C4	
InChI=1S/C8H11N/c1-5-2-7-8(3-5)4-9(7)6(1)8/h5-7H,1-4H2	InChI=1S/C8H11N/c1-5-2-7-8(3-5)4-9(7)6(1)8/h5-7H,1-4H2/t5-,6-,7+,8-
