20
gdb 75333	2.62299	1.56248	1.14848	1.7745	80.5	-0.2358	0.0356	0.2714	1141.6907	0.170714	-403.166472	-403.157726	-403.156782	-403.199666	33.488	
C	-0.3850231726	 1.4481031149	 0.1320366648	-0.451467
C	 0.003433404	 0.0073803726	-0.0319627932	 0.382009
N	-0.1737776438	-0.6120987851	-1.1219248668	-0.307072
C	 0.1634695378	-2.0224457564	-1.2365861264	-0.183734
C	 0.9331491362	-2.6160685843	-0.0710043408	-0.104273
C	 2.2870921941	-2.0409247199	 0.3097679222	-0.344618
C	 1.0739588637	-1.777485162	 1.1623746038	 0.421543
C	 0.9423357102	-2.347331229	 2.5485553204	-0.452068
O	 0.5427008427	-0.4637037287	 1.131389647	-0.294906
H	 0.4903584319	 2.0505397388	 0.3952571476	 0.134861
H	-0.8212004192	 1.8153822703	-0.7958298169	 0.142566
H	-1.1069260932	 1.5550572166	 0.9481483141	 0.135537
H	-0.7783190998	-2.5745550536	-1.3579558459	 0.113861
H	 0.7124443236	-2.1632383974	-2.1774379164	 0.108853
H	 0.795477088	-3.6828387619	 0.0818265985	 0.08846
H	 3.0514071414	-2.7090029838	 0.6917332916	 0.113574
H	 2.6613644842	-1.215328956	-0.2874826221	 0.124022
H	 1.3928067053	-3.3425350482	 2.5946949109	 0.11874
H	 1.4470084579	-1.7062820256	 3.2786494294	 0.128666
H	-0.1105032522	-2.4302983414	 2.837181878	 0.125447
79.8654	134.3378	186.1312	215.97	250.9908	273.0589	370.9178	384.0713	410.1961	514.819	545.5923	609.0906	655.591	766.5166	787.601	860.5836	895.6372	923.5188	935.7143	945.8197	1039.8426	1048.8767	1058.5949	1072.3421	1092.6279	1123.8652	1131.2502	1152.9741	1225.7214	1274.1223	1284.6717	1295.7212	1369.8113	1405.2647	1409.2778	1429.7645	1475.7555	1477.0397	1479.2838	1482.856	1492.4199	1507.3031	1758.4399	3008.0698	3028.8449	3036.7276	3046.9711	3103.0837	3103.4499	3118.707	3127.6112	3143.4006	3167.1849	3216.9895
CC1=NCC2CC2(C)O1	CC1=NC[C@H]2C[C@@]2(C)O1	
InChI=1S/C7H11NO/c1-5-8-4-6-3-7(6,2)9-5/h6H,3-4H2,1-2H3	InChI=1S/C7H11NO/c1-5-8-4-6-3-7(6,2)9-5/h6H,3-4H2,1-2H3/t6-,7-/m1/s1
