22
gdb 68780	2.34916	1.44442	1.30296	0.7883	83.03	-0.2162	0.0751	0.2913	1152.1381	0.191606	-404.32348	-404.31348	-404.312536	-404.357178	38.753	
C	-0.026418114	 1.5630301567	 0.0710086043	-0.512189
C	 0.1435414016	 0.077753341	-0.0005967702	 0.295089
C	 0.6501207355	-0.7388845799	-1.1967109375	-0.329218
C	 1.2649040841	-1.7757325392	-0.1787349191	 0.382459
C	 0.8037829131	-3.2209183318	-0.2738576347	-0.461155
O	 2.6815566748	-1.6774053186	-0.1134290444	-0.486281
C	 0.7022145756	-0.9103249807	 0.9693174685	 0.271997
C	 1.3050549464	-0.7682648238	 2.3313970469	-0.52131
N	-0.7649408242	-0.8531276774	 0.7273685593	-0.422622
H	 0.8581057895	 2.0776690013	-0.3192366626	 0.1261
H	-0.8911945416	 1.8924104366	-0.5177078078	 0.12634
H	-0.1809028274	 1.8963714423	 1.1034163334	 0.114753
H	-0.1227767088	-1.1022259958	-1.8798904497	 0.092144
H	 1.4483148095	-0.239588389	-1.751065837	 0.095156
H	 1.1244688063	-3.6688586263	-1.2232515324	 0.099218
H	 1.2302035062	-3.8136359536	 0.542029387	 0.115421
H	-0.285805988	-3.2734262436	-0.2225296239	 0.142915
H	 3.04416987	-2.1531363874	-0.868151924	 0.274459
H	 2.3907317782	-0.6657616213	 2.2548450091	 0.145371
H	 0.9095984785	 0.1127257104	 2.8491643066	 0.11055
H	 1.0913821508	-1.6445734899	 2.9551708953	 0.123735
H	-1.1646082061	-0.3301367198	 1.5079017828	 0.217068
122.2341	181.002	196.4042	209.1919	213.3638	230.6793	262.6179	276.0655	327.0196	364.38	415.4952	468.4313	485.0326	529.2026	577.363	655.682	713.3942	775.598	843.0127	882.276	924.9554	954.5076	959.2518	1008.8113	1047.1071	1081.718	1101.1426	1109.0019	1137.1951	1158.2519	1183.1196	1225.2819	1246.3527	1297.4402	1338.2172	1393.3525	1394.1113	1407.0931	1416.5729	1448.4581	1478.5958	1480.6157	1486.0342	1492.8598	1494.9862	1503.0066	1512.3985	3020.8238	3021.7729	3025.6152	3053.624	3081.213	3082.7832	3088.0274	3094.9662	3116.8331	3118.8199	3133.1256	3450.8231	3808.175
CC12CC(C)(O)C1(C)N2	C[C@@]12C[C@@](C)(O)[C@]1(C)N2	
InChI=1S/C7H13NO/c1-5-4-6(2,9)7(5,3)8-5/h8-9H,4H2,1-3H3	InChI=1S/C7H13NO/c1-5-4-6(2,9)7(5,3)8-5/h8-9H,4H2,1-3H3/t5-,6-,7-/m1/s1
