20
gdb 65816	3.42637	0.83966	0.77898	5.4443	79.56	-0.2726	0.0417	0.3142	1510.4679	0.170237	-403.159606	-403.150205	-403.149261	-403.194258	35.002	
O	 0.1920299169	 1.5884888063	-0.2723922643	-0.483883
C	 0.0026349932	 0.2193794395	 0.0187422493	 0.404306
C	 0.8641601053	-0.5467179294	-0.9847154772	-0.207077
C	 2.3466540036	-0.1270327424	-0.9230782007	-0.349019
C	 3.1730196906	-0.8672168046	-1.8723723956	 0.255701
N	 3.8131918511	-1.4645735887	-2.6268199373	-0.310288
C	 0.1841447696	-0.2440762482	 1.499795943	-0.279357
C	-1.0733821353	-1.1391799611	 1.3377695211	-0.212309
C	-1.4590157402	-0.3195971202	 0.0773107128	-0.279739
H	-0.320157646	 2.107233859	 0.3557868227	 0.27892
H	 0.7738191527	-1.6220158939	-0.8031860901	 0.119497
H	 0.4794160724	-0.3551179491	-1.9918217987	 0.12671
H	 2.429457643	 0.9433897857	-1.1303736457	 0.172116
H	 2.750787207	-0.2865323502	 0.0831507184	 0.147123
H	 1.1272323804	-0.7210115663	 1.7799066485	 0.101691
H	 0.0036550506	 0.588741191	 2.1875955477	 0.095921
H	-0.8176102087	-2.1740668068	 1.0984994147	 0.113044
H	-1.7864718892	-1.1451918701	 2.1636382012	 0.105957
H	-2.1575118217	 0.4894675055	 0.314938492	 0.095275
H	-1.8339736053	-0.8547556061	-0.7990651719	 0.105411
55.4056	107.592	123.538	165.8178	222.1149	292.0254	329.3249	343.3594	399.1289	427.1477	477.0318	538.7801	643.849	729.0642	778.1001	786.8797	871.7483	915.212	927.7188	941.8982	970.5785	989.5887	1027.6918	1039.4493	1089.8035	1121.6841	1158.3	1197.5149	1214.1493	1234.3723	1245.0036	1269.0856	1286.9143	1292.7315	1336.8562	1369.0971	1412.5328	1464.3663	1472.2976	1481.5336	1486.4506	1505.2096	2361.2267	3044.7536	3047.1089	3051.025	3057.2108	3071.9746	3091.7118	3098.1227	3102.3479	3111.502	3127.0727	3820.2652
OC1(CCC#N)CCC1	OC1(CCC#N)CCC1	
InChI=1S/C7H11NO/c8-6-2-5-7(9)3-1-4-7/h9H,1-5H2	InChI=1S/C7H11NO/c8-6-2-5-7(9)3-1-4-7/h9H,1-5H2
