19
gdb 56434	3.45829	0.97818	0.85946	2.8661	83.09	-0.2436	-0.0168	0.2269	1398.659	0.15651	-385.864231	-385.854388	-385.853444	-385.899823	35.647	
C	 0.099421276	 1.43930017	-0.0257460144	-0.391379
C	-0.0517263424	-0.1047756522	-0.0316720214	-0.302067
C	-1.4508609572	-0.5028584653	 0.0368287735	 0.350795
C	-2.6092367207	-0.8104219351	 0.1147720892	-0.449421
C	 0.662002857	-0.664808769	-1.2807285985	 0.391341
O	 0.0593445743	-1.0130614296	-2.2699931924	-0.323595
C	 2.1512276382	-0.714673215	-1.2013236795	-0.10071
C	 2.842427335	-1.8499348233	-1.9466548227	-0.253074
C	 2.9285046629	-0.4663068305	-2.4873920613	-0.24991
H	 1.154015166	 1.7274618211	-0.0543567842	 0.123917
H	-0.405014236	 1.8687638492	-0.8948093756	 0.145151
H	-0.3517121124	 1.8558609839	 0.8775299109	 0.135413
H	 0.4756778085	-0.4970961799	 0.8486098086	 0.115433
H	-3.6305242113	-1.095140632	 0.172084626	 0.195635
H	 2.6031940613	-0.3838339322	-0.2732568334	 0.089591
H	 3.7148703904	-2.2875592769	-1.4756016016	 0.119849
H	 2.1808666653	-2.5439790718	-2.4519937121	 0.142756
H	 2.3253933023	-0.2319741872	-3.3569544016	 0.141041
H	 3.8628066128	 0.0763392358	-2.4013422893	 0.119233
38.218	56.3461	126.8864	186.0489	215.4222	223.2371	260.7914	282.8134	348.2304	407.5898	523.3756	631.417	641.0201	669.5653	737.2401	777.6493	811.0259	829.1485	848.9414	891.1401	917.9894	1022.1139	1038.2349	1067.4293	1075.4665	1097.1744	1112.4331	1125.8457	1142.2078	1210.888	1225.0004	1277.9345	1344.3292	1396.7203	1406.5164	1453.2835	1484.6927	1490.1458	1500.5495	1798.5643	2244.0534	3014.5069	3048.97	3125.891	3134.8513	3141.6222	3143.4091	3173.2688	3229.6813	3244.1665	3505.9163
CC(C#C)C(=O)C1CC1	C[C@@H](C#C)C(=O)C1CC1	
InChI=1S/C8H10O/c1-3-6(2)8(9)7-4-5-7/h1,6-7H,4-5H2,2H3	InChI=1S/C8H10O/c1-3-6(2)8(9)7-4-5-7/h1,6-7H,4-5H2,2H3/t6-/m0/s1
