21
gdb 84013	2.07342	1.64238	1.37024	1.8499	77.98	-0.2369	0.0738	0.3107	1090.1399	0.182912	-424.214364	-424.205551	-424.204607	-424.247404	34.397	
C	-0.3440819586	 1.4543233311	-0.1526600126	-0.423028
C	-0.0383331532	-0.0176751402	 0.0118182726	-0.061912
C	 1.335839464	-0.5989447894	-0.2966102178	-0.014555
O	 2.360435403	 0.2915425441	-0.6350768765	-0.24783
C	 3.2940564996	 0.5199449167	 0.4130440872	-0.062452
C	 2.6107355684	 1.1442571204	 1.6274777306	-0.221821
C	 1.5283197413	 0.1994613389	 2.1850936713	-0.271245
C	 0.7989273969	-0.6062890022	 1.1184263803	 0.341046
O	 0.2602944461	-1.8197848006	 1.5878005753	-0.463015
H	 0.5678434668	 2.0508280404	-0.2128334625	 0.13034
H	-0.89901073	 1.6204418726	-1.0816093061	 0.120404
H	-0.9574160915	 1.8348385771	 0.671190088	 0.115499
H	-0.8534102056	-0.6840871034	-0.2557651618	 0.096168
H	 1.3848157766	-1.5467192863	-0.830624609	 0.088348
H	 3.7935484029	-0.4221055989	 0.6945366263	 0.08234
H	 4.0510606328	 1.1899330979	-0.0044614559	 0.107348
H	 3.3524837809	 1.3587022128	 2.4048919029	 0.098074
H	 2.1790840764	 2.1047204261	 1.3294129754	 0.114176
H	 2.0174198449	-0.5360546159	 2.8383980934	 0.089625
H	 0.8172563918	 0.7404393699	 2.8196611411	 0.108797
H	 0.9935299163	-2.383618841	 1.8609902877	 0.273694
97.1291	143.7832	186.0005	222.8306	252.6972	317.7499	354.7395	380.7342	444.2846	460.079	490.5327	573.9894	598.154	697.8167	796.7831	850.4534	888.2166	895.2816	935.2805	951.9651	1011.3605	1031.3829	1059.9285	1079.5811	1108.6762	1120.3666	1145.0325	1172.5984	1198.5036	1225.333	1254.818	1292.4146	1297.6561	1330.7917	1351.6221	1361.4847	1378.0485	1406.757	1415.4521	1451.8397	1481.4254	1489.82	1500.6585	1506.3686	1509.7728	2967.6792	3011.0897	3038.4254	3045.0554	3057.557	3085.2635	3092.5944	3093.8585	3112.6236	3130.8441	3154.6904	3779.2678
CC1C2OCCCC12O	C[C@H]1[C@H]2OCCC[C@@]12O	
InChI=1S/C7H12O2/c1-5-6-7(5,8)3-2-4-9-6/h5-6,8H,2-4H2,1H3	InChI=1S/C7H12O2/c1-5-6-7(5,8)3-2-4-9-6/h5-6,8H,2-4H2,1H3/t5-,6+,7+/m0/s1
