18
gdb 32886	5.11718	0.73569	0.68122	1.7451	75.86	-0.1826	0.0458	0.2284	1616.3295	0.147477	-439.109336	-439.099853	-439.098909	-439.144425	34.372	
O	-0.1229036133	 1.4711291436	 0.1030746027	-0.418185
C	 0.0165405797	 0.0596247645	 0.086609566	-0.059935
C	-1.377027609	-0.5416230709	-0.1260763965	-0.302464
C	-1.3780066653	-2.0361632134	-0.1374676159	 0.322417
C	-1.3312233841	-2.9318413659	-1.1898149388	-0.381783
C	-1.3074131014	-4.2414587842	-0.6348235729	 0.332385
O	-1.2654177716	-5.4347050017	-1.2994665091	-0.450309
C	-1.3389410845	-4.1245736107	 0.7348233992	-0.183323
N	-1.3776277132	-2.7727090746	 1.0170968163	-0.299119
H	 0.7516896127	 1.8601191857	 0.1938383893	 0.286914
H	 0.6830840651	-0.2753102319	-0.7226162092	 0.094611
H	 0.4401245212	-0.3143882195	 1.032775799	 0.081112
H	-2.0389300022	-0.1558640167	 0.6597756165	 0.107154
H	-1.7717607198	-0.1677473145	-1.0755765136	 0.121421
H	-1.3181753467	-2.6720679678	-2.2386986762	 0.083115
H	-1.2670273211	-5.25339379	-2.2432373552	 0.294468
H	-1.3474751631	-4.8736976032	 1.5075598238	 0.115043
H	-1.4308761134	-2.3842539789	 1.9420721047	 0.256476
41.2644	89.887	98.9352	206.5595	254.2867	271.5704	282.5715	339.7698	352.8702	439.1266	451.4086	627.6452	634.1951	686.886	692.9866	760.7059	776.9621	794.2892	982.6177	1000.6316	1009.9282	1046.3955	1076.8463	1126.0543	1170.5698	1186.7861	1213.0698	1238.8289	1297.4832	1319.8542	1328.9553	1346.261	1452.3788	1463.2572	1478.3516	1488.6043	1526.6096	1550.8381	1660.5658	2967.8807	3002.6574	3031.2135	3091.3798	3229.9436	3281.3503	3684.1436	3831.3552	3847.9784
OCCC1=CC(O)=CN1	OCCc1cc(O)c[nH]1	
InChI=1S/C6H9NO2/c8-2-1-5-3-6(9)4-7-5/h3-4,7-9H,1-2H2	InChI=1S/C6H9NO2/c8-2-1-5-3-6(9)4-7-5/h3-4,7-9H,1-2H2
