21
gdb 81561	3.05873	1.16589	1.03214	2.4519	83.66	-0.2364	-0.0128	0.2235	1275.9174	0.181527	-387.059788	-387.050687	-387.049743	-387.094167	34.17	
C	-0.0587843181	 1.7109574929	-0.0944312088	-0.446802
C	 0.0160390594	 0.1922617423	-0.0376576733	 0.067934
C	 1.1549265693	-0.6097035353	-0.7623290569	-0.068058
C	 2.1272418683	-0.1494235126	 0.3663191813	-0.241568
C	 0.8090760457	-0.550024364	 1.0888220151	-0.078475
C	 0.8119898036	-1.8183679015	 0.1540895268	-0.06155
C	-0.4437914011	-2.6375467331	-0.0570024431	 0.344968
C	-0.7240467458	-3.689076649	 1.0050158617	-0.480955
O	-1.1712680459	-2.492210861	-1.0153328446	-0.30267
H	 0.8976843078	 2.2122934977	 0.0719788388	 0.115753
H	-0.4344850581	 2.0319259307	-1.0722166741	 0.122233
H	-0.7614557805	 2.0832188354	 0.6596517184	 0.116502
H	-0.9768791135	-0.2199491897	-0.2227015507	 0.090124
H	 1.3521530464	-0.6510602518	-1.8338282284	 0.076821
H	 2.9958265128	-0.7874241286	 0.5520543324	 0.088916
H	 2.4102019674	 0.9024119586	 0.3879707401	 0.097119
H	 0.6126929204	-0.5395699652	 2.1632432968	 0.068389
H	 1.6492604422	-2.4946840181	 0.3674247995	 0.074984
H	-0.7537866678	-3.2325804183	 2.0007446049	 0.137424
H	-1.6717228221	-4.1861382482	 0.7944599651	 0.140239
H	 0.0815418695	-4.4323184411	 1.023095259	 0.138671
42.0657	112.374	151.6824	167.3743	183.1939	277.1318	333.3059	362.3535	456.4157	545.6424	578.1604	632.4387	764.6674	776.2331	789.548	849.7511	876.3721	899.9634	939.4523	983.2885	1018.2234	1020.466	1027.011	1042.0734	1081.9923	1095.7658	1106.4042	1131.3226	1151.3499	1187.8978	1204.0214	1210.7523	1234.4609	1241.2199	1269.1375	1375.9559	1397.259	1410.3378	1439.0547	1462.611	1474.9361	1496.0694	1498.5107	1533.2152	1797.2429	3026.9698	3033.7677	3036.2282	3062.4352	3086.427	3089.5829	3094.7107	3097.7151	3112.2031	3119.4571	3142.1008	3150.6589
CC1C2CC1C2C(C)=O	C[C@H]1[C@H]2C[C@@H]1[C@H]2C(=O)C	
InChI=1S/C8H12O/c1-4-6-3-7(4)8(6)5(2)9/h4,6-8H,3H2,1-2H3	InChI=1S/C8H12O/c1-4-6-3-7(4)8(6)5(2)9/h4,6-8H,3H2,1-2H3/t4-,6+,7-,8-
