23
gdb 85916	2.45701	1.30077	1.07998	1.5006	89.02	-0.2252	0.0251	0.2504	1290.6812	0.202923	-388.32253	-388.312198	-388.311254	-388.357264	39.063	
C	 0.2943880166	 1.5740507969	-0.1358942508	-0.394475
C	 0.0062742467	 0.0884053295	 0.0890639565	 0.036184
O	 0.4592031801	-0.6653377414	-1.0350690911	-0.318054
C	 1.316877988	-1.750206319	-0.6263161172	 0.342175
C	 0.6345159157	-3.0810766595	-0.9815528286	-0.404777
C	 2.6551505874	-1.6129142249	-1.3655015882	-0.403905
C	 1.4445931465	-1.5520796134	 0.8644904433	-0.251943
C	 0.7089248509	-0.5261043257	 1.2809964018	 0.313438
C	 0.5251436248	-0.0107062949	 2.6722945008	-0.497251
H	 1.3726419123	 1.7543442883	-0.1848739656	 0.116235
H	-0.1537095765	 1.8990209171	-1.0789340173	 0.125539
H	-0.1289960362	 2.1824291073	 0.6703471646	 0.108862
H	-1.0869687963	-0.0375601329	 0.1911799424	 0.071246
H	 0.4672256618	-3.1410959809	-2.0614076968	 0.118725
H	 1.2540207028	-3.9331757372	-0.6818525459	 0.106643
H	-0.3314776925	-3.1622050372	-0.4760035421	 0.11455
H	 3.1295943165	-0.659226291	-1.1206114235	 0.114262
H	 3.3389516105	-2.423127508	-1.0908449861	 0.106906
H	 2.4932239143	-1.6527706409	-2.4471148961	 0.119461
H	 2.055514603	-2.196374976	 1.4865099368	 0.090949
H	 1.0754277024	-0.6145834616	 3.3983166855	 0.12619
H	 0.8682804834	 1.0268210386	 2.7650562762	 0.13146
H	-0.5343268721	-0.0158551432	 2.9590412815	 0.12758
60.4769	123.7807	176.6039	206.796	214.7363	237.8676	241.7951	287.0161	314.3977	336.8335	356.4147	447.4097	489.2379	571.0405	578.7268	645.8418	786.1622	834.2297	851.2621	881.8119	918.6089	937.8366	979.4216	1007.6164	1013.1205	1034.4577	1085.7611	1114.1943	1118.2034	1145.7715	1192.7508	1214.8963	1258.978	1323.0632	1354.2906	1371.2088	1388.6753	1398.0776	1407.6871	1414.1469	1475.7076	1478.8244	1479.6845	1485.4406	1492.1487	1494.7678	1495.5413	1503.2936	1734.2572	2930.3971	3020.2759	3031.8104	3035.4448	3037.7552	3067.642	3102.3574	3108.0119	3109.796	3114.1464	3117.1445	3118.7791	3121.1142	3197.4914
CC1OC(C)(C)C=C1C	C[C@H]1OC(C)(C)C=C1C	
InChI=1S/C8H14O/c1-6-5-8(3,4)9-7(6)2/h5,7H,1-4H3	InChI=1S/C8H14O/c1-6-5-8(3,4)9-7(6)2/h5,7H,1-4H3/t7-/m1/s1
