18
gdb 39017	2.99976	1.778	1.32646	3.6908	75.26	-0.2405	0.025	0.2655	974.5056	0.15097	-401.933697	-401.926873	-401.925929	-401.964719	27.75	
C	 0.032170217	 1.53993146	-0.1997353806	-0.304705
C	 1.3243974404	 0.7907691742	 0.0037997399	-0.023402
C	 2.0714577062	 0.8733855154	 1.3446142066	-0.184256
N	 1.2025482179	 0.9082884024	 2.5346190828	-0.307291
C	 0.1796650914	 0.1982037354	 2.3867617797	 0.433393
O	-0.9514824046	 0.1295669385	 3.1594160425	-0.272796
C	-1.6923497023	-0.4569107018	 2.0295224003	-0.120198
C	-0.3654040836	-0.6082729819	 1.2409194753	-0.159788
C	 0.0079289615	 0.033120705	-0.0735608716	-0.062693
H	-0.3453728768	 2.13646849	 0.6240063118	 0.134017
H	-0.1659582202	 1.9591638877	-1.179667397	 0.112931
H	 1.9856444021	 0.7139496524	-0.8542781002	 0.088758
H	 2.7755182574	 0.0316775999	 1.4175764725	 0.107067
H	 2.6815547121	 1.7831352232	 1.3595155543	 0.114615
H	-2.2052076019	-1.3737027751	 2.3263882534	 0.121443
H	-2.3990171128	 0.2723589614	 1.6250821038	 0.126411
H	-0.0159836346	-1.6457176749	 1.2657153672	 0.109938
H	-0.1979981893	-0.5365852919	-0.9740143107	 0.086557
146.3301	195.7331	286.7804	314.8835	421.4064	445.4795	503.9296	613.5427	700.0423	734.3175	768.7236	779.9183	838.0235	880.1291	921.8413	949.5384	968.3831	1005.9265	1049.6539	1058.2433	1074.507	1082.3628	1120.7651	1129.9296	1135.9822	1154.1418	1190.3989	1206.4039	1234.3083	1262.9722	1330.715	1338.0094	1362.3133	1374.2518	1408.9	1485.8661	1500.9119	1509.7875	1815.5527	3000.7689	3055.609	3055.8354	3064.3822	3130.3052	3135.1944	3147.3949	3157.5744	3220.0232
C1C2CN=C3OCC3C12	C1[C@H]2C[N][C]3OC[C@H]3[C@@H]12	
InChI=1S/C7H9NO/c1-4-2-8-7-6(3-9-7)5(1)4/h4-6H,1-3H2	InChI=1S/C7H9NO/c1-4-2-8-7-6(3-9-7)5(1)4/h4-6H,1-3H2/t4-,5-,6-/m0/s1
