21
gdb 74849	2.3859	1.78686	1.21789	0.2617	89.06	-0.2074	0.0271	0.2345	1100.8422	0.183464	-349.94764	-349.939517	-349.938572	-349.979806	33.058	
C	 0.0585055185	 1.4893209875	 0.0289477868	-0.505974
C	-0.008873293	-0.0058797218	 0.0068051574	 0.243776
C	-0.0871883172	-0.7864806782	-1.0806490849	-0.193276
C	-0.0392517593	-2.2376496448	-0.7444916357	-0.084224
C	 1.2437990492	-2.7133575933	-0.0870967167	-0.288137
C	 0.0785677165	-2.2832045393	 0.769788424	-0.128445
C	 0.0363754963	-0.8492582109	 1.2489778865	 0.308846
C	 0.7603410055	-0.4162910355	 2.5078425522	-0.310434
C	-0.7425681348	-0.4791801754	 2.4966685743	-0.324381
H	 1.0082322381	 1.8464139966	 0.4469651105	 0.126688
H	-0.0359450138	 1.9003160604	-0.9795667339	 0.125037
H	-0.7391908146	 1.9240415305	 0.6441874373	 0.124039
H	-0.137239569	-0.4187863099	-2.0998560093	 0.084552
H	-0.6359584512	-2.9505169914	-1.3033867214	 0.082066
H	 1.458535393	-3.7768585484	-0.1189204926	 0.103987
H	 2.1149328008	-2.069253821	-0.1503969114	 0.108634
H	-0.4356882112	-3.0398843703	 1.3519638298	 0.080246
H	 1.3062840595	-1.1779873366	 3.0542607794	 0.114298
H	 1.229387509	 0.5619228233	 2.5216993183	 0.109447
H	-1.2964868612	 0.4534028926	 2.5030509807	 0.111129
H	-1.2280173212	-1.2879564343	 3.0335598785	 0.112126
112.9951	180.9374	214.0761	244.2351	255.8608	355.6825	424.1595	448.5863	516.8541	608.7414	646.0171	714.8922	771.1996	803.4821	811.9935	837.058	887.4161	907.3916	915.6028	946.9732	987.3432	998.5694	1020.5012	1043.0258	1057.3892	1066.054	1068.169	1070.1192	1077.6787	1098.9468	1171.7991	1190.5909	1195.9909	1254.6054	1286.6513	1342.89	1360.9699	1396.4021	1413.5862	1461.668	1475.5458	1484.6269	1489.8989	1500.737	1690.5182	3018.2169	3062.9002	3111.4201	3121.1594	3126.7136	3130.5979	3159.294	3167.631	3188.2141	3204.9996	3211.3997	3220.3935
CC1=CC2CC2C11CC1	CC1=C[C@H]2C[C@H]2C21CC2	
InChI=1S/C9H12/c1-6-4-7-5-8(7)9(6)2-3-9/h4,7-8H,2-3,5H2,1H3	InChI=1S/C9H12/c1-6-4-7-5-8(7)9(6)2-3-9/h4,7-8H,2-3,5H2,1H3/t7-,8+/m0/s1
