21
gdb 113249	4.35453	0.80108	0.75981	3.9177	84.35	-0.241	0.0345	0.2755	1567.9043	0.180626	-383.266629	-383.256409	-383.255465	-383.302217	36.993	
C	-0.3244197753	 1.5750546525	-0.3938887539	-0.373364
C	-0.0046823861	 0.1836856142	 0.1476242413	-0.119489
N	-1.2244103368	-0.6177708179	 0.2148455014	-0.117717
C	-1.56990737	-1.4518263904	-0.9346730388	-0.286618
C	-1.1634276915	-2.0712883215	 0.3605500702	 0.318646
C	 0.1497821713	-2.8210897062	 0.4698996917	-0.47481
C	-2.2634999258	-2.5920676467	 1.2916849581	-0.3894
C	-2.6645759027	-3.9657538184	 0.9889594708	 0.2672
N	-2.9660489387	-5.0519874261	 0.7341630281	-0.316121
H	 0.5759455578	 2.1965393785	-0.4144991065	 0.114112
H	-0.7178957065	 1.5149580965	-1.4138592566	 0.120808
H	-1.076065215	 2.0671949073	 0.2292117339	 0.127853
H	 0.7771834088	-0.2799207292	-0.4752685989	 0.086826
H	 0.3995768882	 0.2621359671	 1.163837949	 0.105075
H	-2.6106724135	-1.4365072663	-1.2493645913	 0.118386
H	-0.8520674487	-1.5134899793	-1.7522390876	 0.111271
H	 0.8855141107	-2.4731345377	-0.2568274458	 0.127433
H	 0.5814202373	-2.7139553246	 1.4721269525	 0.123233
H	-0.013282997	-3.8886122273	 0.2922143217	 0.149847
H	-1.9211391375	-2.5498019987	 2.3331427611	 0.147752
H	-3.134800269	-1.9354673258	 1.2166807797	 0.159079
51.6749	73.4009	113.7667	162.8034	199.8141	216.2771	267.2032	309.031	358.0623	383.7585	395.0539	442.7952	450.1327	613.6636	705.7877	786.6086	812.8401	892.0314	911.2325	939.9422	948.1939	972.3249	1016.9971	1069.6554	1096.3464	1104.9216	1122.0769	1161.4197	1194.3337	1217.7114	1286.0496	1309.7164	1319.643	1381.0803	1394.6799	1409.7848	1421.8596	1459.9214	1486.9973	1489.4979	1493.6678	1499.9693	1507.3553	1519.5588	2360.1094	2967.2624	3035.1628	3040.2991	3040.9987	3050.2113	3085.9244	3098.4648	3099.1343	3110.0442	3121.7742	3135.6635	3170.9099
CCN1CC1(C)CC#N	CCN1C[C@]1(C)CC#N	
InChI=1S/C7H12N2/c1-3-9-6-7(9,2)4-5-8/h3-4,6H2,1-2H3	InChI=1S/C7H12N2/c1-3-9-6-7(9,2)4-5-8/h3-4,6H2,1-2H3/t7-,9?/m0/s1
