20
gdb 93166	2.73759	1.48512	1.13512	1.5597	82.4	-0.2401	0.0118	0.2519	1141.6219	0.171977	-403.146843	-403.138436	-403.137492	-403.179706	32.597	
C	 0.0782932664	 1.6065396211	 0.0473138371	-0.384773
C	-0.0176088285	 0.0783512079	-0.0698808192	 0.064091
C	 0.4558795671	-0.3961160609	-1.4736637051	-0.257962
C	 0.4345309724	-1.8920330178	-1.6807015731	-0.065462
C	 1.3693736442	-2.770957397	-1.3145060647	-0.04962
C	 2.6436152235	-2.4544715267	-0.580269972	-0.142056
O	 2.6111770892	-1.1683594765	 0.0415481009	-0.229817
C	 1.7302020014	-1.081709619	 1.0975061148	 0.090951
N	 0.6098031391	-0.5168857829	 1.1049064067	-0.210724
H	 1.117566559	 1.934839406	-0.0585702571	 0.123202
H	-0.5168715823	 2.0902525936	-0.7332923406	 0.111616
H	-0.2873374426	 1.9382870536	 1.0221819023	 0.126776
H	-1.0782266372	-0.1923332904	 0.0226702345	 0.088051
H	-0.2263665031	 0.0643083766	-2.1982704887	 0.091036
H	 1.4502986525	 0.0077911222	-1.6693942982	 0.120545
H	-0.4500082369	-2.2880373217	-2.1755553812	 0.091481
H	 1.2242927979	-3.8253776948	-1.5408346895	 0.089092
H	 2.8490768387	-3.2359166787	 0.1693038508	 0.106684
H	 3.5053586868	-2.4287944982	-1.2577894312	 0.12857
H	 2.1097630023	-1.5435843964	 2.0142152837	 0.108321
67.8582	184.4165	216.5621	241.9132	264.5351	306.1118	347.9978	392.8108	442.4095	505.5994	583.9631	690.9065	727.0913	772.5098	809.867	874.2469	903.7147	935.7034	953.4757	984.8392	1001.1032	1012.5468	1054.2583	1076.1168	1101.9128	1127.1482	1158.3139	1232.6406	1279.4748	1280.5073	1309.8291	1351.0363	1380.346	1392.7811	1400.6997	1415.1172	1421.9893	1484.5012	1485.8761	1494.2947	1500.7254	1721.4818	1762.7097	2977.4907	3006.7704	3035.3139	3039.5922	3052.9515	3084.6493	3107.2187	3113.2984	3123.8775	3136.7518	3159.5065
CC1CC=CCOC=N1	C[C@H]1CC=CCOC=N1	
InChI=1S/C7H11NO/c1-7-4-2-3-5-9-6-8-7/h2-3,6-7H,4-5H2,1H3/b3-2-,8-6-	InChI=1S/C7H11NO/c1-7-4-2-3-5-9-6-8-7/h2-3,6-7H,4-5H2,1H3/b3-2-,8-6-/t7-/m0/s1
