20
gdb 104591	2.27266	1.27491	1.06535	2.1998	75.22	-0.2598	0.0564	0.3162	1255.0401	0.169259	-440.323709	-440.313799	-440.312855	-440.358752	36.637	
C	 1.0302970622	-0.0933717817	-1.17811823	-0.37815
C	-0.0085683496	-0.1513518925	-0.0526335357	-0.25499
C	 0.5564731785	-0.6570390946	 1.2574691818	 0.483139
C	-0.3049996034	-1.3401437989	 2.2748385918	-0.311581
C	 0.7379192002	-2.1267469893	 1.5053303763	-0.322968
O	 1.6381473448	 0.1210184687	 1.7655543755	-0.312555
C	 1.3179525045	 1.3174961613	 2.3340161358	 0.474866
N	 2.4536395409	 1.8981817244	 2.8272980656	-0.56132
O	 0.2062017099	 1.7806627813	 2.4183685771	-0.394937
H	 1.4428419314	-1.0855011638	-1.3900247042	 0.114126
H	 0.5843357881	 0.291050367	-2.1002115569	 0.111404
H	 1.8643077157	 0.5617565485	-0.9098816779	 0.119215
H	-0.4460958634	 0.8373139265	 0.1169109692	 0.129421
H	-0.8321994598	-0.8151063146	-0.3400434116	 0.095246
H	-0.1044141945	-1.1288472162	 3.318186654	 0.125353
H	-1.3532655221	-1.4832459174	 2.037460627	 0.118545
H	 0.4116445152	-2.8154165954	 0.7335570321	 0.113414
H	 1.6298712798	-2.4312819983	 2.0403071477	 0.120349
H	 3.3472957313	 1.5492197162	 2.5257689662	 0.263698
H	 2.3831126601	 2.8697689388	 3.0754178563	 0.267725
66.2219	71.7366	118.4649	176.9998	218.1161	220.5896	314.6186	337.9132	344.4828	406.2195	443.88	515.0879	526.7874	644.7792	740.7452	760.858	784.6216	796.1667	866.6238	908.6343	929.0135	987.3761	1010.7573	1037.0447	1059.0202	1075.7753	1084.0512	1110.1222	1131.6158	1185.7875	1246.343	1292.1515	1337.7824	1365.7734	1393.4208	1408.6977	1456.022	1483.9253	1497.5438	1501.4031	1508.2681	1609.1112	1835.3484	3038.0493	3042.2026	3084.6516	3108.4344	3114.4353	3136.8531	3143.7022	3221.3722	3235.689	3615.1625	3745.4606
CCC1(CC1)OC(N)=O	CCC1(CC1)OC(=O)N	
InChI=1S/C6H11NO2/c1-2-6(3-4-6)9-5(7)8/h2-4H2,1H3,(H2,7,8)	InChI=1S/C6H11NO2/c1-2-6(3-4-6)9-5(7)8/h2-4H2,1H3,(H2,7,8)
