15
gdb 12900	3.35752	1.845	1.5205	5.1322	65.89	-0.2567	0.0274	0.2841	866.3689	0.118585	-362.633623	-362.626284	-362.62534	-362.665136	27.065	
C	-0.0001508072	 1.5661947784	-0.0047087281	-0.50094
C	 0.0030257665	 0.0683473309	 0.0539479509	 0.241342
C	-1.2272876998	-0.8426027833	 0.067977826	-0.139476
O	-0.5624745721	-1.7850248114	 0.9599860702	-0.273592
C	 0.570244375	-0.9396002563	 1.0186043118	 0.064547
C	 1.2151670322	-0.7821427638	-0.34858311	-0.271159
C	 1.1523614033	-1.8080639033	-1.3516297893	 0.309593
N	 1.0863624026	-2.6249987022	-2.1680802629	-0.345667
H	 0.9798233578	 1.9748758018	 0.2595566712	 0.130545
H	-0.2469693728	 1.9214991224	-1.0114400455	 0.139022
H	-0.7364033066	 1.9832809085	 0.6904884313	 0.132751
H	-2.0862592027	-0.3871840059	 0.5715544319	 0.119494
H	-1.5358066381	-1.3058854302	-0.8741610972	 0.136689
H	 1.1224436945	-0.8696019678	 1.9492241083	 0.122602
H	 2.1459367974	-0.2217963678	-0.3330275487	 0.134249
130.6464	142.7143	194.5265	249.766	307.3606	381.8108	389.5592	553.8056	616.4048	647.3356	790.7657	807.4213	891.6492	924.8278	944.5642	988.7953	1011.1917	1040.1817	1065.2648	1097.6942	1127.9646	1165.8791	1237.1932	1263.2482	1289.8224	1348.0759	1418.7218	1462.3517	1486.8151	1496.6937	1510.815	2352.3489	3031.0768	3042.7565	3094.7446	3101.2328	3107.379	3157.5948	3181.8797
CC12COC1C2C#N	C[C@]12CO[C@H]1[C@H]2C#N	
InChI=1S/C6H7NO/c1-6-3-8-5(6)4(6)2-7/h4-5H,3H2,1H3	InChI=1S/C6H7NO/c1-6-3-8-5(6)4(6)2-7/h4-5H,3H2,1H3/t4-,5+,6-/m1/s1
