17
gdb 29922	2.02035	1.91526	0.99553	4.2955	84.58	-0.2238	-0.0166	0.2072	1162.3851	0.13654	-380.935968	-380.926855	-380.925911	-380.970709	31.945	
C	-0.0333848095	 1.4451396004	 0.0550523786	-0.343963
N	-0.0264853549	-0.0050458205	 0.0109106964	-0.067447
C	 0.0489418568	-0.7754490671	-1.1083773323	-0.090389
C	 0.0997760507	-2.1045803902	-0.7378599916	-0.246117
C	 0.0574425662	-2.1620323127	 0.6750727822	 0.190765
C	 0.0770090455	-3.3815247992	 1.5429511874	-0.5145
C	-0.0175368608	-0.8429790451	 1.1151725037	 0.129182
C	-0.0853799269	-0.339523259	 2.4299520999	 0.20509
N	-0.1420637631	 0.0796748046	 3.5109412754	-0.374636
H	 0.9481840436	 1.8397567931	 0.3374145471	 0.152255
H	-0.2993176731	 1.8269396881	-0.9318727043	 0.144188
H	-0.7708558612	 1.7959455639	 0.7806230911	 0.164132
H	 0.0604936231	-0.3169979906	-2.0850651817	 0.13014
H	 0.1518192481	-2.9461241113	-1.4116633947	 0.107506
H	 0.9803615685	-3.9771749631	 1.3714223167	 0.134643
H	 0.0478184218	-3.1131711141	 2.6020181871	 0.144145
H	-0.7811422648	-4.0310522473	 1.3374425091	 0.135005
48.8228	77.8249	128.5974	135.2081	184.8635	259.614	279.7221	392.4916	514.7772	540.1002	578.892	614.3426	664.614	692.344	755.8604	760.5815	823.8863	993.2933	1037.9358	1060.3102	1072.6183	1111.8966	1151.4695	1219.934	1256.9316	1373.9304	1417.6219	1421.6815	1439.8473	1457.8059	1483.215	1484.345	1493.5443	1514.2258	1535.8184	1586.9319	2323.2167	3032.3576	3043.681	3083.9432	3112.7031	3119.1708	3145.7795	3244.0241	3263.3352
CN1C=CC(C)=C1C#N	Cn1ccc(C)c1C#N	
InChI=1S/C7H8N2/c1-6-3-4-9(2)7(6)5-8/h3-4H,1-2H3	InChI=1S/C7H8N2/c1-6-3-4-9(2)7(6)5-8/h3-4H,1-2H3
