21
gdb 76822	2.64413	1.47854	1.17214	1.4907	84.46	-0.2277	0.0162	0.2438	1137.3569	0.18371	-387.077143	-387.068706	-387.067761	-387.10985	33.424	
C	-0.1283388667	 1.5240123906	-0.1686754567	-0.406822
C	-0.0560122805	 0.0107996055	-0.0326040569	-0.061572
C	 1.1583883007	-0.6397632681	-0.8397423524	 0.048967
O	 1.7228883368	 0.0209344024	-1.9383500296	-0.42242
C	 1.8760476097	-0.6650732001	 0.485482425	 0.249888
C	 2.9549733096	-0.2109179793	 1.1168012429	-0.25163
C	 2.5954087765	 0.1169563738	 2.5636480042	-0.233695
C	 1.0365620948	 0.2700798042	 2.5285731625	-0.245571
C	 0.608164024	-0.5475325649	 1.2897979018	-0.050273
H	 0.8197648622	 2.0031382124	 0.1025738077	 0.1076
H	-0.3610003958	 1.8050062495	-1.2004993804	 0.125436
H	-0.9034987685	 1.9432687936	 0.4804350641	 0.118796
H	-1.0253553154	-0.4359624207	-0.2716180438	 0.069246
H	 0.8739844364	-1.6346757775	-1.1971510024	 0.099626
H	 2.1245493165	 0.833983463	-1.6131350189	 0.281733
H	 3.9345101436	-0.0245392939	 0.6909782596	 0.093919
H	 2.9050050316	-0.6817427429	 3.2524935909	 0.10625
H	 3.0924548922	 1.029096224	 2.9125028374	 0.099976
H	 0.5620136171	-0.0695348165	 3.4533676048	 0.094525
H	 0.7800335797	 1.327363765	 2.404000137	 0.103173
H	 0.1541329755	-1.50715364	 1.560712703	 0.072848
99.304	138.6516	220.2199	236.7254	271.0376	276.1025	368.7181	440.3547	497.7678	531.0424	591.2676	661.8099	752.8287	783.1844	796.4866	819.2041	867.5025	883.4453	923.6264	952.8644	993.1546	1006.6918	1034.3322	1062.7998	1104.2098	1117.7461	1142.6359	1152.2267	1175.2892	1215.4908	1232.541	1253.9489	1268.3056	1288.7139	1305.0585	1328.3251	1338.2287	1359.5563	1407.2172	1432.3255	1483.4591	1494.9242	1498.133	1510.8601	1727.3252	3007.0538	3028.2047	3034.2274	3046.7572	3053.4846	3060.1438	3066.5403	3092.8019	3097.4712	3106.1493	3193.7616	3807.0104
CC1C(O)C2=CCCC12	C[C@H]1[C@@H](O)[C]2[CH]CC[C@@H]12	
InChI=1S/C8H12O/c1-5-6-3-2-4-7(6)8(5)9/h4-6,8-9H,2-3H2,1H3	InChI=1S/C8H12O/c1-5-6-3-2-4-7(6)8(5)9/h4-6,8-9H,2-3H2,1H3/t5-,6+,8-/m1/s1
