18
gdb 47162	2.301	1.88838	1.10448	3.3599	78.33	-0.2175	-0.0157	0.2019	1083.6895	0.149164	-401.943052	-401.935394	-401.93445	-401.975555	29.69	
O	 0.0501340849	 0.0465205446	-0.5327146346	-0.311581
C	-0.016669235	 1.1547518756	-0.0623921872	 0.391784
C	-1.3295314231	 1.7419855317	 0.4781126405	-0.301542
C	-1.3143144241	 3.2426829563	 0.8581798888	-0.272018
C	-0.0575429119	 3.6000419963	 1.6305239121	-0.249361
C	 1.0733106932	 3.0679189887	 1.1963675109	 0.341194
C	 2.5067745068	 2.7772773134	 1.5826452198	-0.267551
N	 2.4345384379	 1.5597015675	 0.7089285926	-0.32038
C	 1.192988946	 2.0775857897	 0.0702342993	-0.152544
H	-2.1218841367	 1.5135231774	-0.24134627	 0.127525
H	-1.5544114093	 1.1517033344	 1.375851697	 0.142343
H	-1.3934507103	 3.8589562166	-0.0479292421	 0.116688
H	-2.2068968793	 3.4677691111	 1.4495670984	 0.111207
H	-0.1219054783	 4.2250341977	 2.5158055397	 0.095864
H	 3.2173394146	 3.5406589166	 1.2327195758	 0.105779
H	 2.7144564322	 2.5634149406	 2.6367431249	 0.121941
H	 3.2174559014	 1.4467725501	 0.0749203964	 0.224299
H	 1.3523663211	 2.5523945016	-0.9139830425	 0.096354
55.6348	157.7032	223.1398	267.3489	326.9266	419.2928	450.5089	491.5501	587.5185	621.9834	667.3804	707.93	784.0139	857.0267	901.6439	911.4466	957.9463	975.4942	995.5582	1023.6861	1051.5879	1057.5688	1105.7357	1120.7685	1159.0942	1180.895	1212.8015	1237.8454	1278.1888	1315.4394	1328.9552	1343.4916	1356.6573	1376.7871	1441.6655	1488.0433	1500.9106	1785.8732	1822.3779	2944.1697	2991.9157	3013.1895	3035.7316	3059.9959	3078.4144	3089.9757	3176.128	3537.3253
O=C1CCC=C2CNC12	O=C1CCC=C2CN[C@@H]12	
InChI=1S/C7H9NO/c9-6-3-1-2-5-4-8-7(5)6/h2,7-8H,1,3-4H2	InChI=1S/C7H9NO/c9-6-3-1-2-5-4-8-7(5)6/h2,7-8H,1,3-4H2/t7-/m1/s1
