16
gdb 76435	2.73204	1.13017	1.07735	3.0889	64.16	-0.2668	0.02	0.2868	1171.2335	0.122637	-475.005116	-474.996196	-474.995251	-475.038879	33.149	
O	-0.4712493219	 1.6060382663	 0.1790836564	-0.43577
C	-0.5394124201	 0.3273883518	-0.3749578716	 0.00049
C	-0.2730705877	-0.8136405752	 0.5940581463	-0.00735
O	-0.0549023344	-0.4530243725	 1.9251756552	-0.435509
C	-1.682539416	-0.5536971916	 0.0947808147	 0.327731
O	-2.5339785041	 0.0536952247	 1.0224282625	-0.473922
C	-2.4404796693	-1.4978971596	-0.824077454	-0.409036
C	-1.5941447134	-2.1165975277	-1.840981522	 0.262194
N	-0.9050758743	-2.5953316719	-2.6353749392	-0.311661
H	-1.3582034398	 1.7988963423	 0.519421663	 0.2977
H	-0.1719856591	 0.2571612885	-1.3941148654	 0.129254
H	 0.2716892725	-1.6928427995	 0.2632228869	 0.127201
H	 0.2467112538	 0.4690199055	 1.9021223761	 0.300566
H	-2.1197771955	-0.0927929375	 1.8894552393	 0.298989
H	-2.9106529337	-2.2858516619	-0.2240442192	 0.162965
H	-3.249170257	-0.9491787017	-1.3215112089	 0.166159
59.6379	117.9104	204.1891	215.5069	252.632	289.6077	346.3672	389.8914	418.4294	436.2664	470.5322	586.176	637.2109	678.4135	695.8342	723.8939	806.1688	879.9482	957.9223	1009.0622	1023.6706	1080.9495	1134.5734	1151.8122	1190.108	1231.8264	1247.5441	1322.8187	1339.7992	1373.6537	1376.2658	1383.1012	1452.6606	1468.3164	2364.4267	3038.3398	3076.3212	3157.1129	3164.9806	3667.6543	3697.2858	3712.5907
OC1C(O)C1(O)CC#N	O[C@H]1[C@@H](O)[C@]1(O)CC#N	
InChI=1S/C5H7NO3/c6-2-1-5(9)3(7)4(5)8/h3-4,7-9H,1H2	InChI=1S/C5H7NO3/c6-2-1-5(9)3(7)4(5)8/h3-4,7-9H,1H2/t3-,4+,5-
