19
gdb 55748	4.0972	1.03237	0.94727	5.0541	75.97	-0.2214	0.0264	0.2478	1275.3577	0.15955	-419.162742	-419.153797	-419.152852	-419.199501	32.515	
N	-0.1087187258	 1.3752716756	-0.0117979888	-0.527852
C	 0.0772819696	 0.0231882482	-0.0121724008	 0.427449
O	 1.184585833	-0.478540965	-0.0453911651	-0.354694
C	-1.2158954457	-0.7948325221	 0.0299886968	-0.510473
C	-0.9700589993	-2.2862283143	-0.000995668	 0.362233
C	-0.1894391697	-3.1780794974	 0.993262482	-0.194647
N	-0.6785328536	-4.2097345184	-0.0401738119	-0.149904
C	-2.005365384	-3.4341046338	 0.0222527185	-0.229953
C	-0.2692818668	-3.1480672182	-1.0778599717	-0.195104
H	 0.7030886959	 1.9704237733	-0.0234670956	 0.261645
H	-1.0197169198	 1.7961191379	 0.0330641465	 0.259104
H	-1.7745266647	-0.5241154493	 0.9363726059	 0.122491
H	-1.8499102691	-0.4991176933	-0.8168609216	 0.121863
H	 0.8948121017	-3.0649184329	 1.0280056707	 0.121122
H	-0.61524097	-3.3307696935	 1.9901359839	 0.089319
H	-2.5677603203	-3.6049053631	 0.9456768297	 0.0936
H	-2.6373999646	-3.5786682394	-0.8596896909	 0.093572
H	-0.7705549779	-3.2723230941	-2.0430794231	 0.089408
H	 0.8093332009	-3.0330366703	-1.1925568665	 0.120823
5.7547	61.846	77.207	136.7447	286.8404	312.1785	349.7777	501.1413	577.8294	585.219	592.0651	642.0424	714.6659	774.1664	799.3603	840.8795	896.6253	907.812	945.7268	976.0812	1000.2948	1025.4706	1027.8533	1082.6443	1124.6388	1146.6933	1167.7706	1172.0434	1195.8592	1201.3341	1252.3634	1267.1687	1286.221	1338.3616	1392.2234	1454.0207	1511.5818	1513.0058	1567.024	1616.7397	1793.3008	3013.5479	3034.9089	3046.3393	3049.0918	3053.8363	3100.539	3133.1794	3137.4831	3603.5914	3741.2178
NC(=O)CC12CN(C1)C2	NC(=O)C[C@@]12CN(C1)C2	
InChI=1S/C6H10N2O/c7-5(9)1-6-2-8(3-6)4-6/h1-4H2,(H2,7,9)	InChI=1S/C6H10N2O/c7-5(9)1-6-2-8(3-6)4-6/h1-4H2,(H2,7,9)
