17
gdb 79218	2.70511	1.673	1.34249	4.4556	76.79	-0.2323	0.0065	0.2388	992.2663	0.136553	-380.810285	-380.802765	-380.80182	-380.842058	29.51	
C	-0.0438916864	 1.5197344571	 0.0491394109	-0.345287
N	 0.1032478395	 0.0702716074	-0.0084763819	-0.112667
C	 0.7860178729	-0.5447696221	-1.1400813064	-0.010093
C	 2.3150679641	-0.591401191	-0.8610331579	-0.103544
C	 2.5168865425	 0.0198561504	 0.5214912363	-0.283126
C	 1.1160398844	-0.5973024815	 0.8620834808	 0.217074
C	 0.7369996526	-0.8726260825	 2.2270896689	 0.190917
N	 0.453736938	-1.0952678789	 3.3256070211	-0.342857
C	 1.3653861854	-1.6380076632	-0.3107882622	-0.15232
H	 0.8694776802	 2.0854084741	-0.1869528131	 0.108239
H	-0.8187706714	 1.8152607645	-0.6650502056	 0.130196
H	-0.3853101347	 1.8023786145	 1.0497008219	 0.138605
H	 0.3633081585	-0.5786653513	-2.1359029295	 0.109291
H	 3.0456306499	-0.7133144041	-1.6495006809	 0.100838
H	 3.2990578977	-0.5040062103	 1.0744969046	 0.12688
H	 2.6377370068	 1.100301505	 0.6391859476	 0.108911
H	 1.3127636801	-2.715120198	-0.3521050647	 0.118944
131.2521	161.6975	191.1467	248.276	316.8875	443.5715	500.2517	528.374	575.5948	604.9796	682.4793	756.4123	795.3049	802.2332	847.9544	931.3223	949.791	960.4578	978.9998	1008.5147	1030.1684	1066.2405	1086.2833	1135.1252	1159.4316	1161.0406	1177.2134	1228.7913	1232.0258	1279.7014	1303.0955	1351.8892	1445.0761	1482.5769	1494.481	1516.1392	2356.7785	2992.7561	3062.4433	3076.52	3111.3076	3124.0121	3200.9563	3210.1453	3240.044
CN1C2C3CC1(C#N)C23	CN1[C@H]2[C@H]3C[C@]1(C#N)[C@@H]23	
InChI=1S/C7H8N2/c1-9-6-4-2-7(9,3-8)5(4)6/h4-6H,2H2,1H3	InChI=1S/C7H8N2/c1-9-6-4-2-7(9,3-8)5(4)6/h4-6H,2H2,1H3/t4-,5+,6-,7-/m0/s1
