15
gdb 18689	3.21857	2.33731	1.49533	4.5892	61.	-0.2446	0.0014	0.246	817.1984	0.121326	-399.816918	-399.81031	-399.809366	-399.847834	25.071	
O	 0.0392170297	 0.0045246172	-0.4096044889	-0.368281
C	 0.0081252259	 1.1790075794	-0.0979594753	 0.405056
N	-1.1503324835	 1.8496002113	 0.1894585731	-0.318897
C	-1.2781607043	 3.3044107044	 0.1520388655	-0.17208
C	-0.1334861111	 3.9849089285	 0.9092341235	-0.222408
C	 1.2168115425	 3.3780990673	 0.5557885919	 0.031049
O	 1.6407655896	 2.3063159093	 1.3963697609	-0.237592
C	 1.2732186021	 1.9954515513	 0.0450031325	-0.05941
H	-1.9828587329	 1.2985732865	 0.0338999978	 0.249409
H	-1.2994493182	 3.6656594752	-0.8875675913	 0.112114
H	-2.2380798075	 3.5722783253	 0.6022917853	 0.120178
H	-0.1411182126	 5.0547358059	 0.6799496046	 0.109825
H	-0.2783583938	 3.8753490677	 1.9886072405	 0.133006
H	 2.0160496123	 4.063162552	 0.2758610973	 0.102186
H	 2.0887511917	 1.6529405487	-0.5873695772	 0.115845
92.6491	210.5366	227.9847	396.5179	425.5722	457.97	530.4139	588.1917	700.1876	752.0371	787.1466	825.8323	898.2847	904.2463	978.4776	990.2774	1070.8843	1098.2417	1112.2072	1153.4098	1239.8514	1264.0325	1272.8198	1321.5754	1367.377	1380.8512	1403.1721	1444.3446	1468.4963	1479.3046	1519.8556	1799.9016	2984.8333	3053.1299	3083.2092	3099.8682	3119.1057	3150.7829	3602.1714
O=C1NCCC2OC12	O=C1NCC[C@H]2O[C@@H]12	
InChI=1S/C5H7NO2/c7-5-4-3(8-4)1-2-6-5/h3-4H,1-2H2,(H,6,7)	InChI=1S/C5H7NO2/c7-5-4-3(8-4)1-2-6-5/h3-4H,1-2H2,(H,6,7)/t3-,4-/m1/s1
