17
gdb 63198	2.58417	1.51837	1.20573	5.0158	75.68	-0.2299	-0.0921	0.1377	1076.6455	0.134417	-421.873669	-421.864924	-421.86398	-421.907041	32.383	
C	-0.0453543524	 1.5574561884	 0.0129503728	-0.418205
C	-0.0283420204	 0.0169495072	-0.0143014735	 0.08701
C	-1.4655999984	-0.5383129623	-0.0277238498	-0.418202
C	 0.801841842	-0.5234128225	-1.1599778148	-0.073132
C	 1.86809687	-1.2530842462	-0.7948051716	-0.198379
C	 1.9580144794	-1.3425134979	 0.6729575978	 0.285406
O	 2.7710797955	-1.9069186263	 1.3621597592	-0.29848
C	 0.7396618257	-0.5271177043	 1.2018500707	 0.292048
O	 0.4616108126	-0.3611793482	 2.3577465214	-0.295449
H	 0.9678046379	 1.9702405514	 0.0189516991	 0.127144
H	-0.5693574053	 1.9528854835	-0.8634954433	 0.120177
H	-0.5617181659	 1.9042508569	 0.9123490706	 0.144718
H	-2.0112647033	-0.1748054136	-0.904770764	 0.120177
H	-1.4733824333	-1.6320749791	-0.05099366	 0.127145
H	-1.9952465118	-0.2111702935	 0.8713133796	 0.144719
H	 0.52385328	-0.3150238636	-2.1897257864	 0.123401
H	 2.5828441677	-1.7245964797	-1.4571791577	 0.129902
54.7251	180.028	209.6418	223.5745	232.2152	281.2616	318.5346	325.9074	361.8496	543.1791	552.747	570.6275	686.0853	705.5651	777.9672	854.5576	856.4955	934.1713	958.8863	1011.5955	1015.3206	1027.6075	1095.8636	1154.0845	1167.696	1254.9034	1262.7483	1370.4279	1392.2161	1417.6919	1481.9546	1485.1898	1499.6028	1508.3859	1632.0354	1819.9184	1858.3525	3034.2987	3037.0809	3106.0084	3108.0667	3119.5934	3122.3821	3169.1322	3222.0137
CC1(C)C=CC(=O)C1=O	CC1(C)C=CC(=O)C1=O	
InChI=1S/C7H8O2/c1-7(2)4-3-5(8)6(7)9/h3-4H,1-2H3	InChI=1S/C7H8O2/c1-7(2)4-3-5(8)6(7)9/h3-4H,1-2H3
