19
gdb 65165	2.61574	1.32021	1.16192	3.0111	80.8	-0.2457	0.0137	0.2594	1150.8245	0.158471	-382.03667	-382.02783	-382.026885	-382.070198	33.683	
C	 0.241115539	 1.5774427021	 0.0334603211	-0.490274
C	 0.1254247931	 0.0650400381	 0.0011368504	 0.377928
C	 1.1724102146	-0.7413758846	-0.7231607204	-0.290611
C	 1.137108186	-0.7388614914	 0.7862036873	-0.294654
N	-1.1892977471	-0.5596998697	-0.0170335047	-0.128115
C	-2.3981823964	 0.1819738733	 0.2567627098	-0.24682
C	-2.1385256226	-0.361996385	-1.1203768951	-0.149533
C	-1.8785909772	 0.5464769062	-2.2106105263	 0.294165
N	-1.6720633619	 1.2397893149	-3.1138444026	-0.344402
H	 1.2966210732	 1.8622838463	 0.0379527144	 0.123066
H	-0.2213932158	 2.052995825	-0.8358531351	 0.150094
H	-0.2104529282	 1.9932504805	 0.9413662345	 0.119062
H	 0.8426770312	-1.6412577351	-1.2291986631	 0.120356
H	 1.9642739313	-0.2014078024	-1.229605475	 0.120569
H	 1.90861549	-0.1972049453	 1.3226562925	 0.112301
H	 0.7745434204	-1.6330134375	 1.2782250929	 0.120895
H	-3.1347097126	-0.3108213122	 0.8862944685	 0.131602
H	-2.3472262603	 1.2620780358	 0.3669215442	 0.137106
H	-2.6456301866	-1.269808789	-1.4370241835	 0.137267
55.1142	128.2637	199.9881	234.8834	263.4178	280.1924	335.4665	348.662	418.3335	469.0557	560.6786	615.747	660.9852	780.4687	785.3117	826.6266	869.4976	904.2564	941.0783	959.0262	1008.7965	1028.1661	1042.7929	1067.6028	1082.8944	1115.5058	1125.693	1132.7128	1156.4551	1191.281	1245.2041	1334.8431	1347.9047	1369.8633	1420.4485	1457.4336	1492.4606	1496.6765	1500.2262	1516.3614	2346.6646	3035.1656	3101.4709	3107.5532	3121.0274	3138.1637	3141.5631	3142.6145	3195.2127	3223.5807	3237.2495
CC1(CC1)N1CC1C#N	CC1(CC1)N1C[C@H]1C#N	
InChI=1S/C7H10N2/c1-7(2-3-7)9-5-6(9)4-8/h6H,2-3,5H2,1H3	InChI=1S/C7H10N2/c1-7(2-3-7)9-5-6(9)4-8/h6H,2-3,5H2,1H3/t6-,9?/m1/s1
