17
gdb 52265	5.20032	0.81714	0.73939	2.473	70.45	-0.2543	0.0124	0.2667	1468.9396	0.137511	-455.183144	-455.17467	-455.173726	-455.21809	29.651	
O	 0.0361177843	 0.1763686012	 0.7040112514	-0.320794
C	 0.0325415593	 1.2169479708	 0.0813125576	 0.15541
N	 1.0975128072	 1.7321832458	-0.5911134858	-0.277369
C	 2.4024763022	 1.1027826978	-0.6023330578	-0.173646
C	 3.484083658	 2.0105672005	-0.0295061552	 0.084529
C	 4.9263737189	 1.4595107364	-0.1803441284	-0.203045
N	 5.6060817722	 2.3979043169	-1.0915932621	-0.254101
C	 4.758077303	 3.2990964441	-1.3534173169	 0.120141
O	 3.5155544808	 3.244576396	-0.8088577498	-0.243573
H	-0.8606917769	 1.8655621909	-0.0084966231	 0.079115
H	 1.0032842299	 2.6268063772	-1.0454600972	 0.257533
H	 2.3206404944	 0.1933271547	-0.0016703398	 0.156392
H	 2.6826460211	 0.8142856262	-1.6242081441	 0.118303
H	 3.2331623479	 2.291838783	 0.9968040336	 0.107154
H	 5.4609549803	 1.4157028542	 0.773176174	 0.126699
H	 4.9386254454	 0.4506306993	-0.6085494207	 0.122633
H	 4.9267601421	 4.1563363551	-1.9957321658	 0.144621
34.824	67.8663	82.0811	174.5048	247.091	298.9765	403.1654	443.2015	537.9294	565.7276	722.7037	765.482	851.3012	882.8116	909.7978	961.4888	975.7863	991.3384	1032.7307	1053.3889	1072.4908	1118.7193	1125.3092	1211.7546	1217.2748	1277.0522	1306.1011	1324.8381	1329.7677	1364.5885	1410.2773	1429.6006	1479.9241	1502.5598	1528.8151	1713.9451	1805.6176	2944.3489	3020.3102	3042.5681	3071.1054	3087.5586	3116.5956	3217.7465	3639.1296
O=CNCC1CN=CO1	O=CNC[C@H]1CN=CO1	
InChI=1S/C5H8N2O2/c8-3-6-1-5-2-7-4-9-5/h3-5H,1-2H2,(H,6,8)	InChI=1S/C5H8N2O2/c8-3-6-1-5-2-7-4-9-5/h3-5H,1-2H2,(H,6,8)/t5-/m0/s1
