20
gdb 82912	2.5889	1.57343	1.47969	3.656	77.66	-0.2178	0.065	0.2828	1023.4558	0.172778	-403.120801	-403.113136	-403.112192	-403.152446	31.657	
C	-0.0582263783	 1.4878904317	 0.0466862828	-0.501225
C	 0.1130789742	-0.0070574086	-0.0204812587	 0.355241
N	-0.5502045498	-0.8570527464	 1.0156358129	-0.400662
C	 0.9294703324	-0.7954051296	 0.9425972709	-0.080208
C	 1.5783446311	-1.9746670249	 0.2223491554	-0.246433
C	 1.1393426898	-1.8804080326	-1.2448764837	-0.11403
C	-0.3148188944	-2.0797714149	-1.5946507229	 0.124544
O	-1.2392973875	-2.713169184	-0.7831914351	-0.43334
C	 0.2062021033	-0.6667549262	-1.3839625135	-0.175692
H	 0.7156249018	 1.9948210595	-0.5395106372	 0.130666
H	-1.0317306458	 1.793152668	-0.353070956	 0.13252
H	 0.0126195433	 1.8486528469	 1.0784728692	 0.112712
H	-0.8882304418	-0.2757299041	 1.7782180809	 0.23032
H	 1.4458677441	-0.3271154003	 1.7753759728	 0.088214
H	 2.667085403	-1.8869239355	 0.2914797007	 0.104118
H	 1.294379553	-2.9294839785	 0.6797181605	 0.12024
H	 1.8828912506	-2.1067706825	-2.0027295037	 0.079598
H	-0.4893203508	-2.3382364646	-2.6369318024	 0.093281
H	-1.2390297208	-2.2200877242	 0.0625612063	 0.303292
H	 0.2597876726	 0.0032188607	-2.2355225092	 0.076844
132.6808	212.5301	236.5734	266.757	309.5996	380.8877	460.723	541.2666	575.3122	644.5697	677.4946	710.7474	722.5759	753.5697	789.5755	834.2764	858.5674	919.2984	933.4901	992.9333	998.807	1020.5482	1045.819	1054.9936	1090.9474	1099.6739	1114.719	1120.2236	1143.2494	1215.3029	1235.1916	1256.8655	1301.9181	1316.2402	1346.8629	1377.3881	1388.8401	1416.6962	1443.704	1479.1231	1484.8893	1500.4587	1520.7062	3026.6869	3042.2744	3084.3585	3092.7622	3098.2768	3127.025	3149.4572	3153.9278	3163.2082	3476.4316	3499.6724
CC12NC1CC1C(O)C21	C[C@]12N[C@H]1C[C@H]1[C@@H](O)[C@@H]21	
InChI=1S/C7H11NO/c1-7-4(8-7)2-3-5(7)6(3)9/h3-6,8-9H,2H2,1H3	InChI=1S/C7H11NO/c1-7-4(8-7)2-3-5(7)6(3)9/h3-6,8-9H,2H2,1H3/t3-,4+,5+,6-,7+/m1/s1
