17
gdb 110185	2.41935	1.16859	0.85006	2.1948	69.96	-0.2739	-0.052	0.2219	1337.6303	0.133717	-458.999663	-458.990511	-458.989567	-459.034572	31.834	
C	 0.1975499899	 1.618853217	-0.2314047393	-0.389181
C	 0.4133615841	 0.1061150576	-0.1150699531	-0.207797
C	 0.6194298903	-0.553617456	-1.4781044987	-0.205102
C	 0.6140199254	-2.1055212775	-1.5699656157	 0.022389
O	-0.5305997026	-2.052443416	-2.4781881677	-0.254413
C	-0.6021899362	-0.6786634067	-2.3943510707	 0.463321
O	-1.4053164516	 0.0363313765	-2.8967067217	-0.311458
C	 1.8237636481	-2.7255799789	-2.2281855083	 0.13623
O	 2.6898534931	-3.2936116389	-1.617881437	-0.232329
H	 1.0736668478	 2.1101261309	-0.668036744	 0.121517
H	-0.6639267388	 1.842770163	-0.8663698149	 0.151868
H	 0.0229978502	 2.0599677713	 0.7537931046	 0.123196
H	 1.2881348069	-0.1068946776	 0.5102608364	 0.120094
H	-0.4468880852	-0.3585133272	 0.3817711896	 0.115046
H	 1.4624323629	-0.0949034097	-2.0073061103	 0.122711
H	 0.3634298909	-2.622432963	-0.6412560021	 0.124196
H	 1.859886705	-2.5835477848	-3.3314547972	 0.099713
67.9819	83.9791	104.7208	149.6869	187.993	244.4402	274.9108	362.4936	405.3885	451.2454	526.2034	696.3854	763.1855	782.5662	868.9038	890.3626	970.7112	988.797	1021.0109	1070.1982	1090.9404	1104.1332	1122.4711	1156.178	1217.3096	1241.5307	1280.976	1318.9634	1341.0636	1375.9625	1410.5014	1417.7092	1490.8318	1498.7641	1510.2276	1836.1277	1940.25	2893.3832	3031.1496	3041.4834	3052.544	3071.3213	3103.1943	3110.239	3126.535
CCC1C(OC1=O)C=O	CC[C@H]1[C@@H](OC1=O)C=O	
InChI=1S/C6H8O3/c1-2-4-5(3-7)9-6(4)8/h3-5H,2H2,1H3	InChI=1S/C6H8O3/c1-2-4-5(3-7)9-6(4)8/h3-5H,2H2,1H3/t4-,5-/m0/s1
