15
gdb 57737	2.39752	1.21987	0.84919	8.9769	90.02	-0.1519	-0.0111	0.1407	1305.2119	0.111248	-412.942185	-412.932297	-412.931353	-412.977068	35.786	
N	 0.0321514445	 1.1032846223	 1.3942203367	-0.526073
C	-0.0489065964	-0.0714001365	 0.7223775742	 0.471315
N	 1.1337736788	-0.7436027459	 0.4864771328	-0.557054
N	-1.1874848944	-0.55521476	 0.2747139982	-0.319098
H	-1.170200254	-1.5034044062	-0.0801951616	 0.26437
C	-2.4766609073	 0.0695198302	 0.2302422483	-0.127593
C	-3.5822967384	-0.7756385783	 0.3197954575	 0.250461
C	-4.50857825	-1.5582364831	 0.3380682305	-0.502128
C	-2.5013274875	 1.4487916353	 0.0826698337	 0.181327
N	-2.38408159	 2.6136941338	 0.017307341	-0.437823
H	 0.9287451747	 1.5638246628	 1.3457657758	 0.272532
H	-0.7559534456	 1.7418308657	 1.3022160345	 0.312925
H	 1.7911632161	-0.7091968188	 1.2548452646	 0.273646
H	 1.0392588992	-1.6755231805	 0.1089993607	 0.267663
H	-5.3297477797	-2.2096918308	 0.501770313	 0.175529
53.4434	112.475	130.8755	153.4559	200.7775	296.2157	303.6146	317.1742	397.4113	439.6208	484.4786	516.9772	550.6454	570.4824	586.5231	614.9677	633.6158	664.6137	696.9187	723.2534	833.4063	981.679	1116.0808	1141.5802	1231.3773	1302.6464	1418.9013	1564.3094	1645.2057	1666.3468	1721.0827	2172.3817	2232.7955	3448.2479	3503.2273	3549.6882	3554.0186	3645.1689	3656.404
NC(N)=[NH+][C-](C#C)C#N	NC(=[NH2])[NH]=C(C#C)C#N	
InChI=1S/C5H6N4/c1-2-4(3-6)9-5(7)8/h1,9H,7-8H2	InChI=1S/C5H6N4/c1-2-4(3-6)9-5(7)8/h1,9H,7-8H2
