16
gdb 132741	2.29644	1.82613	1.02463	2.2345	76.34	-0.215	-0.0098	0.2053	1104.3514	0.12496	-442.098508	-442.090311	-442.089366	-442.131176	30.879	
C	-0.014267636	 1.5139714476	-0.0175267781	-0.500353
C	-0.0135902702	 0.0101821565	 0.0065848046	 0.126436
C	-0.0130484468	-0.7277723258	-1.1658221415	 0.199358
F	-0.0043295571	-0.0947842874	-2.3536672872	-0.088178
C	-0.0120539386	-2.1224262856	-1.1713029455	 0.151659
N	-0.0755706268	-2.8341917963	-2.3641808961	-0.598761
C	-0.0012821608	-2.7321413625	 0.0904413928	-0.059967
N	-0.0004844077	-2.0635154248	 1.2408683803	-0.274555
C	-0.0098169087	-0.7313008804	 1.1921651722	-0.075157
H	 0.8660874373	 1.9065969706	-0.5374317295	 0.138448
H	-0.8930485511	 1.905112986	-0.5410238388	 0.140144
H	-0.0163858668	 1.9141270311	 0.9990722602	 0.129877
H	 0.2499547232	-2.3218775178	-3.1708442652	 0.256826
H	 0.3110382175	-3.7656993746	-2.3217052587	 0.253829
H	 0.0051878086	-3.8193023083	 0.1525247025	 0.098339
H	-0.0119311061	-0.2089551483	 2.146042228	 0.102055
90.9905	147.3434	236.7524	262.0547	283.7269	295.4134	321.6828	490.6309	495.7011	529.25	589.1329	596.2392	627.4449	682.4245	770.2656	840.0915	893.2	933.966	984.9824	1049.375	1063.2788	1125.7823	1201.9663	1252.8906	1317.7203	1326.4021	1362.7165	1417.5019	1461.9597	1481.239	1489.4338	1542.8908	1602.8681	1639.9801	1665.2476	3037.8634	3091.9349	3123.8143	3135.9148	3152.5654	3567.2104	3669.0802
CC1=C(F)C(N)=CN=C1	Cc1c(F)c(N)cnc1	
InChI=1S/C6H7FN2/c1-4-2-9-3-5(8)6(4)7/h2-3H,8H2,1H3	InChI=1S/C6H7FN2/c1-4-2-9-3-5(8)6(4)7/h2-3H,8H2,1H3
