19
gdb 31823	4.79161	0.96881	0.81299	0.5162	90.78	-0.1666	0.0119	0.1785	1412.6813	0.161637	-382.130913	-382.1222	-382.121256	-382.163944	33.736	
C	 0.0227057897	 1.4441875999	-0.0964601086	-0.320399
N	-0.153520657	 0.0185246187	 0.0905209041	-0.37139
C	 0.5690181274	-0.6596214278	 1.0792655038	 0.320945
C	 1.1909735807	-0.0019191874	 2.1475377476	-0.184507
C	 1.8532385904	-0.7180496027	 3.1419184841	-0.168019
C	 1.9322382768	-2.1112637863	 3.1060286736	 0.282897
N	 2.6639817372	-2.8290117101	 4.0724137664	-0.595728
C	 1.317136402	-2.7692065936	 2.0328878391	-0.159388
C	 0.6499170735	-2.0603945738	 1.0460155601	-0.182126
H	 1.0745626517	 1.7490551513	-0.224920065	 0.109656
H	-0.5380518086	 1.7558797038	-0.9809600187	 0.11916
H	-0.3820974369	 1.9971355301	 0.7587519395	 0.130585
H	-0.205949716	-0.4946812922	-0.7762954613	 0.22965
H	 1.1594183176	 1.0787560273	 2.2164828284	 0.084185
H	 2.3263661831	-0.1773428707	 3.9571241321	 0.075463
H	 2.7167846674	-2.3561055517	 4.9647008345	 0.238601
H	 2.3278400312	-3.7731978101	 4.2072970002	 0.238479
H	 1.3657343501	-3.85295799	 1.9712616755	 0.07671
H	 0.1733974894	-2.6000526747	 0.2318264745	 0.075225
86.3008	147.0286	208.485	229.2143	235.7688	343.2638	367.7411	415.8354	425.4525	460.9512	532.1003	584.8573	655.6294	683.7127	738.904	773.2828	818.1906	836.7732	853.0691	906.5262	925.7828	1017.9691	1081.2072	1091.1319	1149.3556	1154.8633	1179.4962	1205.8065	1288.655	1302.7875	1342.2977	1363.6465	1444.5985	1468.1944	1483.8525	1513.0292	1528.4324	1556.9353	1624.8704	1652.8907	1674.4957	2966.0114	3054.6296	3113.9748	3151.2459	3159.6941	3169.8687	3201.6231	3542.13	3602.7257	3634.9902
CNC1=CC=C(N)C=C1	CNc1ccc(N)cc1	
InChI=1S/C7H10N2/c1-9-7-4-2-6(8)3-5-7/h2-5,9H,8H2,1H3	InChI=1S/C7H10N2/c1-9-7-4-2-6(8)3-5-7/h2-5,9H,8H2,1H3
