16
gdb 73948	3.08513	1.2496	0.89932	2.1105	79.35	-0.2316	-0.0799	0.1516	1216.4936	0.123973	-437.948102	-437.939393	-437.938449	-437.981827	31.416	
N	 0.113620169	 1.3753109835	 0.0751124582	-0.599905
C	-0.0461578397	 0.0379466536	 0.0254315384	 0.190056
C	-1.1361802353	-0.7847531509	 0.0138349002	 0.124499
C	-0.7431603536	-2.2486314466	-0.0208084962	-0.317001
C	 0.7992568747	-2.2488529202	-0.0114844921	-0.352266
C	 1.2053101505	-0.7837768711	-0.0102987964	 0.378836
O	 2.3167416233	-0.3059263697	-0.0404639114	-0.337191
C	-2.5245986462	-0.3715011325	 0.0304532327	 0.068293
O	-3.4675683663	-1.1399950156	 0.0169686132	-0.284362
H	 1.0595399467	 1.7108396919	-0.0330491209	 0.274828
H	-0.6447091129	 2.0205214104	-0.0525788727	 0.270138
H	-1.1647034518	-2.7852516649	 0.8353584895	 0.128437
H	-1.1500847803	-2.7395654478	-0.9110915337	 0.128129
H	 1.2215829012	-2.7369394965	 0.8728782437	 0.143927
H	 1.2396830587	-2.747840984	-0.8800543835	 0.142425
H	-2.6988702179	 0.7297121902	 0.058774751	 0.041155
78.1649	97.9385	175.5751	177.6431	216.588	290.4529	329.3589	413.529	448.3783	535.3358	551.0736	649.5128	655.0032	666.8462	767.6078	831.9795	882.8234	996.8035	1004.5629	1036.6686	1128.2615	1154.7991	1168.2999	1221.2231	1222.5178	1275.073	1323.473	1408.8339	1446.2284	1459.872	1497.3427	1608.1655	1699.3039	1755.5532	1807.1263	2843.7023	3048.0055	3060.9501	3073.046	3099.5986	3583.2498	3727.3653
NC1=C(CCC1=O)C=O	NC1=C(CCC1=O)C=O	
InChI=1S/C6H7NO2/c7-6-4(3-8)1-2-5(6)9/h3H,1-2,7H2	InChI=1S/C6H7NO2/c7-6-4(3-8)1-2-5(6)9/h3H,1-2,7H2
