13
gdb 27127	3.35842	1.17447	0.91051	2.272	62.18	-0.2186	-0.0162	0.2024	1185.1692	0.089263	-489.918843	-489.910883	-489.909939	-489.952329	27.965	
N	-0.220324687	 1.2668007912	 0.4031997084	-0.603263
C	-0.111789978	-0.0795193071	 0.0909490307	 0.189559
C	-1.0583649561	-0.9719279659	-0.3016863362	 0.293974
O	-2.3619821148	-0.857211914	-0.6552051409	-0.220368
C	-3.2961434091	-1.0869835651	 0.3347125512	 0.165474
O	-4.4599148316	-1.0116650517	 0.1198752141	-0.239591
O	-0.4650806328	-2.207136932	-0.4357767954	-0.161954
C	 0.8175984781	-1.9805405565	-0.1001407234	 0.086219
N	 1.0931906797	-0.7558818519	 0.2192059881	-0.299894
H	 0.6743617085	 1.7350796606	 0.3520013482	 0.262802
H	-0.9241807723	 1.7576428859	-0.1314768598	 0.259018
H	-2.814325119	-1.3280020754	 1.2983636202	 0.108509
H	 1.4863369943	-2.8261702379	-0.1260957152	 0.159515
47.8302	122.6669	152.8821	229.693	277.8094	301.4513	416.9246	458.2189	524.7227	633.1679	666.7863	707.9684	761.7031	828.5417	864.1583	953.5534	1038.4528	1040.8359	1079.4991	1151.6885	1185.3157	1305.0431	1324.2521	1395.0495	1422.7461	1552.6907	1637.0907	1728.3718	1894.204	2995.2602	3279.0909	3552.5373	3651.6333
NC1=C(OC=O)OC=N1	Nc1c(OC=O)ocn1	
InChI=1S/C4H4N2O3/c5-3-4(9-2-7)8-1-6-3/h1-2H,5H2	InChI=1S/C4H4N2O3/c5-3-4(9-2-7)8-1-6-3/h1-2H,5H2
