18
gdb 15112	8.55021	0.76606	0.73644	0.9835	74.97	-0.2497	0.0541	0.3038	1524.8474	0.151484	-347.744465	-347.735573	-347.734629	-347.778834	31.85	
C	-0.089175327	-1.0115739531	-0.5207487021	-0.449468
C	-0.0006090744	 0.1074330293	-0.0914579501	 0.287689
C	 0.140079835	 1.4659565729	 0.4138641994	-0.349783
C	 1.4884506146	 2.0885765358	 0.0364331922	-0.052858
O	 1.5132741771	 3.3961270105	 0.5761771748	-0.247664
C	 2.7019901095	 4.0760666247	 0.3195017318	 0.148008
C	 2.8718515615	 4.7944876444	-0.9957061264	-0.287556
C	 2.620766223	 5.566108501	 0.2860848734	-0.287068
H	-0.1811713011	-2.0012659399	-0.8939023698	 0.195947
H	-0.661413891	 2.1034146072	 0.0219321192	 0.138869
H	 0.0417067014	 1.4793203991	 1.5057692701	 0.140372
H	 2.3110271935	 1.4813328538	 0.4444375931	 0.100474
H	 1.6055916308	 2.1127578323	-1.056543218	 0.104159
H	 3.584770223	 3.6142685843	 0.7642816245	 0.084377
H	 3.8565084801	 4.8326983527	-1.4483840861	 0.113759
H	 2.048308456	 4.7310447049	-1.698201317	 0.119719
H	 1.634642082	 5.9966063615	 0.4168892158	 0.125991
H	 3.4305667759	 6.1389006387	 0.7233250552	 0.115032
52.9634	69.618	99.8077	143.435	212.5114	327.2363	355.3067	407.0686	449.5486	541.7013	622.775	648.0717	756.8547	796.1519	818.4652	831.6752	955.2135	966.5283	994.6254	1048.2575	1066.6058	1073.7107	1090.0101	1103.4015	1130.1143	1193.4237	1203.4894	1227.5798	1245.9901	1299.7443	1306.6003	1378.9278	1433.2574	1452.9732	1477.4027	1497.9717	1526.1779	2241.9897	2985.0389	3021.9293	3035.4681	3073.2558	3089.6493	3135.6444	3142.8895	3220.2272	3235.2123	3507.2539
C#CCCOC1CC1	C#CCCOC1CC1	
InChI=1S/C7H10O/c1-2-3-6-8-7-4-5-7/h1,7H,3-6H2	InChI=1S/C7H10O/c1-2-3-6-8-7-4-5-7/h1,7H,3-6H2
