23
gdb 118715	3.81211	0.86516	0.83077	1.2669	85.95	-0.2482	0.0805	0.3287	1503.8005	0.205355	-388.256633	-388.246948	-388.246004	-388.291111	36.84	
C	 0.0023862467	 1.6559060851	 0.2538096997	-0.475929
C	 0.0023485844	 0.144054072	 0.1030714219	 0.343784
C	-1.3039276957	-0.432013597	-0.4355002648	-0.245016
C	-1.6569259782	 0.0163836909	-1.8516153577	-0.078781
O	-2.8442980725	-0.6676241266	-2.2289408059	-0.420412
C	 1.2225081312	-0.6416222772	-0.3231577356	-0.084073
C	 2.5283699548	-0.0455972456	 0.2194481411	-0.246868
C	 1.9698199255	-0.1844010304	 1.6733303394	-0.24871
C	 0.6709442026	-0.7700385407	 1.105445022	-0.098844
H	 0.9044187248	 2.0297343186	 0.7420782166	 0.118669
H	-0.0698300437	 2.1582183946	-0.7171177318	 0.114556
H	-0.8543155397	 1.9798340257	 0.8566584867	 0.113343
H	-1.2520539334	-1.5269927652	-0.4398907984	 0.103291
H	-2.1340389538	-0.1613701843	 0.2293749965	 0.100353
H	-1.8055046518	 1.1064906964	-1.8835152919	 0.085504
H	-0.8251409178	-0.2201226568	-2.5345355871	 0.085127
H	-3.096213158	-0.3687501234	-3.1073303427	 0.284104
H	 1.165028043	-1.3574597573	-1.1360975626	 0.078396
H	 3.3888146017	-0.6962149509	 0.0485891845	 0.101708
H	 2.7871431405	 0.9607284941	-0.1253000005	 0.09398
H	 2.5330607599	-0.917164437	 2.2554803649	 0.102175
H	 1.8813649844	 0.7289055013	 2.2705800767	 0.09469
H	 0.1230952851	-1.5943646963	 1.548914009	 0.078952
80.0985	95.7038	135.252	178.5397	256.3074	261.9256	278.1504	319.4857	332.7512	362.9991	436.8517	551.2004	689.3401	721.064	788.0942	800.458	847.5211	865.3787	931.8229	956.3158	967.5087	997.3891	1006.7882	1023.1821	1031.7404	1067.3299	1078.6745	1099.359	1108.8986	1130.4386	1198.7238	1221.2209	1224.6823	1243.0154	1260.3784	1260.978	1288.5478	1298.4247	1325.5613	1350.4113	1419.6214	1421.4318	1459.5392	1474.9276	1487.6588	1498.1809	1505.7253	1509.3093	1529.0887	2969.0279	2996.9587	3025.375	3030.6764	3044.2491	3051.7164	3070.9892	3083.4982	3092.8936	3111.1979	3125.2268	3159.3937	3170.7643	3830.5413
CC1(CCO)C2CCC12	C[C@@]1(CCO)[C@H]2CC[C@@H]12	
InChI=1S/C8H14O/c1-8(4-5-9)6-2-3-7(6)8/h6-7,9H,2-5H2,1H3	InChI=1S/C8H14O/c1-8(4-5-9)6-2-3-7(6)8/h6-7,9H,2-5H2,1H3/t6-,7+,8+
