19
gdb 73516	3.1045	1.66288	1.34053	1.0299	82.06	-0.2093	0.0174	0.2267	1004.2911	0.160298	-385.848656	-385.841102	-385.840157	-385.880104	31.04	
O	-0.1112901502	 1.4414466457	-0.2508282309	-0.484737
C	-0.0373832718	 0.0316397903	-0.0630667347	 0.364065
C	 1.1007044904	-0.6008345128	-0.8886567342	-0.300897
C	 2.2731698873	-0.6788096856	 0.1432845199	-0.260812
C	 1.5320075625	-0.9104653842	 1.4636554154	-0.244266
C	 0.2722736887	-0.4982454766	 1.3332278053	 0.27119
C	-1.1282609353	-0.8750505997	 1.6321259193	-0.165143
C	-2.1264913276	 0.1837392923	 1.2296100255	-0.285586
C	-1.4509666629	-0.5639143327	 0.1235487404	-0.099514
H	 0.7422602125	 1.813418962	-0.0041218564	 0.279786
H	 0.8359330615	-1.6181153489	-1.1949574096	 0.104579
H	 1.3262092638	-0.0199332323	-1.7879436295	 0.096379
H	 2.952901596	-1.5069303585	-0.0818887079	 0.105418
H	 2.8933817671	 0.2299076617	 0.1381759333	 0.094863
H	 1.9509136241	-1.4889360879	 2.2790254424	 0.089259
H	-1.4274869305	-1.7373590929	 2.2155026101	 0.096086
H	-3.1602056451	-0.0930504499	 1.4135464583	 0.111958
H	-1.9048220806	 1.2350965659	 1.3686444553	 0.131433
H	-1.9790952896	-1.1999962059	-0.5758763021	 0.095942
159.1433	184.3464	246.2197	284.5672	298.3255	381.5077	457.2775	515.2447	609.8026	650.7264	685.9091	704.5253	789.6338	803.6747	868.2662	871.0453	894.1277	909.4311	941.9671	951.4758	995.1641	1013.6568	1040.7398	1045.9962	1092.6333	1106.4599	1125.7693	1157.5626	1179.8578	1195.9346	1219.7162	1269.807	1275.1711	1285.6084	1310.9669	1346.3499	1370.8796	1475.7872	1482.728	1495.2475	1724.2732	2992.1861	3046.3492	3070.2168	3098.9882	3133.2085	3184.8181	3192.2081	3193.1631	3223.8327	3810.1223
OC12CCC=C1C1CC21	O[C@@]12CC[CH][C]1[C@H]1C[C@@H]21	
InChI=1S/C8H10O/c9-8-3-1-2-6(8)5-4-7(5)8/h2,5,7,9H,1,3-4H2	InChI=1S/C8H10O/c9-8-3-1-2-6(8)5-4-7(5)8/h2,5,7,9H,1,3-4H2/t5-,7-,8+/m1/s1
