20
gdb 62993	2.1388	1.54487	1.21844	4.0115	79.38	-0.2265	-0.0198	0.2067	1128.7871	0.169295	-403.115582	-403.106469	-403.105525	-403.149503	34.508	
C	-0.078807466	 1.5585851156	-0.0731614992	-0.453319
C	 0.0046502918	 0.0360343208	-0.028864216	 0.314843
C	-1.3526903317	-0.596209725	 0.2716994962	-0.447642
C	 0.6950060057	-0.647143361	-1.2275554571	-0.079851
N	 2.0903251685	-0.1610975873	-1.2655493815	-0.342682
C	 1.7180649546	-1.2740952169	-0.3547930596	-0.075943
C	 1.1403716276	-0.6176033603	 0.9057723091	-0.133857
C	 2.046315719	 0.3067730398	 1.6766099554	 0.142226
O	 1.923307996	 0.5325213857	 2.8568337309	-0.266318
H	 0.8724798328	 1.9951830412	-0.3850466886	 0.137638
H	-0.8498681796	 1.8765027448	-0.7843027966	 0.109165
H	-0.3439655934	 1.965301091	 0.9087054619	 0.126113
H	-2.0942004693	-0.2898455333	-0.4754564157	 0.114762
H	-1.2976537519	-1.6899760176	 0.2617948508	 0.115276
H	-1.7179147003	-0.2831641083	 1.2552597768	 0.128078
H	 0.2140877586	-1.024967741	-2.1225694887	 0.092291
H	 2.539447785	-0.5732136278	-2.0822535506	 0.233488
H	 2.2063768642	-2.2377571561	-0.4284602407	 0.100437
H	 0.6859795442	-1.3229595328	 1.6040959867	 0.090204
H	 2.8465276245	 0.7863011284	 1.0759346966	 0.09509
47.313	120.4097	209.7637	237.7416	240.6141	259.8302	283.5658	338.2822	404.4505	462.7581	505.6376	543.6087	631.7245	766.1178	818.0138	836.8553	845.5654	933.4523	954.6023	966.7127	980.4386	1013.4938	1023.3268	1052.9145	1086.0947	1100.9205	1113.4606	1172.5922	1203.5256	1218.9402	1239.6905	1291.5244	1323.2175	1325.4621	1377.4171	1400.5197	1416.6399	1423.0384	1484.3199	1488.5255	1499.7655	1513.2831	1811.1463	2922.1919	3023.9613	3032.4057	3088.6422	3094.1136	3099.2483	3102.8087	3127.3116	3176.6773	3194.7446	3482.7054
CC1(C)C2NC2C1C=O	CC1(C)[C@H]2N[C@H]2[C@H]1C=O	
InChI=1S/C7H11NO/c1-7(2)4(3-9)5-6(7)8-5/h3-6,8H,1-2H3	InChI=1S/C7H11NO/c1-7(2)4(3-9)5-6(7)8-5/h3-6,8H,1-2H3/t4-,5+,6+/m1/s1
