22
gdb 52682	1.98382	1.16589	0.87109	1.5737	91.85	-0.2194	0.0516	0.271	1474.768	0.191303	-367.161655	-367.150663	-367.149719	-367.199626	38.852	
C	-0.6736313654	 1.5102304105	-0.0681910105	-0.500211
C	-0.4473980759	 0.0712151557	-0.04791024	 0.02396
C	-0.2579531468	-1.1193072897	-0.0172289509	 0.103786
C	-0.0845002083	-2.5790604036	-0.0017512581	-0.106215
C	-1.4547744684	-3.2715770305	-0.1198502148	-0.369536
N	 0.7975598414	-3.1566843048	-1.0366063546	-0.093222
C	 1.2610609258	-2.3622545651	-2.1692320944	-0.257728
C	 2.2207513423	-2.8230527837	-1.1247018187	 0.034144
C	 2.9119545337	-1.8572358784	-0.1873369695	-0.424532
H	 0.2647100061	 2.0617588007	-0.1934853907	 0.147833
H	-1.340257491	 1.7986617712	-0.8883645886	 0.148849
H	-1.1335179854	 1.8504372262	 0.8662914855	 0.150092
H	 0.3544054359	-2.862495148	 0.9641394557	 0.105533
H	-1.3224225347	-4.3540335612	-0.0542479488	 0.119992
H	-2.1277589635	-2.9365970437	 0.6743658482	 0.114047
H	-1.9135175487	-3.0356091928	-1.0841149948	 0.123994
H	 1.2101434198	-2.8492967111	-3.1403061526	 0.106
H	 1.017441255	-1.3017075596	-2.1749374419	 0.116536
H	 2.824727288	-3.7002486667	-1.3592414685	 0.08482
H	 2.3182935418	-0.9592267955	-0.0087598629	 0.137685
H	 3.1163133439	-2.3298714084	 0.7806281422	 0.116998
H	 3.8757560843	-1.5543296916	-0.6110045912	 0.117174
12.3652	57.3455	88.9141	127.8417	180.5468	208.4062	234.5259	274.5806	291.9644	308.1804	361.5843	418.6282	489.088	521.7757	582.154	712.3861	748.0949	789.0305	908.3042	927.7706	973.6521	1033.3584	1045.8119	1052.7919	1055.3252	1087.5753	1108.7067	1123.8185	1140.8489	1164.4088	1175.4405	1196.9711	1320.631	1331.9297	1345.2009	1399.285	1401.9217	1415.1805	1422.76	1478.1753	1479.4875	1484.0675	1493.4921	1494.6093	1500.8218	1511.0753	2354.4351	3015.6342	3026.9121	3031.4547	3045.3839	3085.3815	3087.2974	3088.0213	3090.8489	3094.9439	3122.2713	3131.5085	3138.8056	3178.4013
CC#CC(C)N1CC1C	CC#C[C@@H](C)N1C[C@H]1C	
InChI=1S/C8H13N/c1-4-5-7(2)9-6-8(9)3/h7-8H,6H2,1-3H3	InChI=1S/C8H13N/c1-4-5-7(2)9-6-8(9)3/h7-8H,6H2,1-3H3/t7-,8-,9?/m1/s1
