15
gdb 16156	4.57296	1.70321	1.45142	0.6246	60.33	-0.2478	0.0103	0.2581	855.4633	0.119699	-399.786029	-399.779084	-399.77814	-399.817405	26.092	
O	 0.0597967439	 1.4026928144	 0.4014499076	-0.40956
C	 0.0131265667	 0.0857802099	-0.1215752923	-0.159394
C	-1.3544617051	-0.5253893992	-0.0534482605	 0.38193
C	-1.9902430296	-1.0736764135	 1.189425226	-0.341535
C	-1.7661888866	-1.9908192354	 0.0016986575	-0.074527
N	-2.8789107809	-2.1242589252	-0.9127435357	-0.254604
C	-3.087091435	-0.9584934603	-1.3743929699	 0.093646
O	-2.2703542279	 0.0587264926	-0.987961107	-0.257409
H	-0.5415460162	 1.9405107476	-0.124750124	 0.291924
H	 0.3704801871	 0.0535046508	-1.1620839837	 0.101524
H	 0.7001208429	-0.5114981152	 0.4859433521	 0.117311
H	-1.3274806678	-1.2039167596	 2.037904154	 0.129135
H	-3.008788964	-0.7914468907	 1.4335307055	 0.127553
H	-1.0850275928	-2.8303655713	 0.0716450514	 0.108264
H	-3.8666543947	-0.6764902249	-2.0712666811	 0.145743
73.3904	153.7279	267.7833	358.8311	359.6377	401.6769	430.3649	606.0029	704.9197	748.6311	824.1522	880.9882	916.8826	923.0292	940.8062	977.1731	1019.1559	1045.1634	1064.9654	1072.3926	1113.3303	1130.9828	1170.3007	1261.022	1269.9056	1337.794	1377.4442	1386.2811	1431.9774	1468.0056	1486.8903	1669.2205	2993.2149	3085.8273	3133.1976	3184.1207	3226.8793	3231.6348	3814.0768
OCC12CC1N=CO2	OC[C@]12C[C@H]1N=CO2	
InChI=1S/C5H7NO2/c7-2-5-1-4(5)6-3-8-5/h3-4,7H,1-2H2	InChI=1S/C5H7NO2/c7-2-5-1-4(5)6-3-8-5/h3-4,7H,1-2H2/t4-,5-/m1/s1
