23
gdb 68924	2.24548	1.6655	1.19342	1.2596	85.12	-0.2429	0.082	0.3249	1153.5234	0.206684	-388.301568	-388.292596	-388.291652	-388.334387	36.241	
C	 0.009955483	 1.5401227756	 0.0112339454	-0.462484
C	 0.0273343856	 0.0231368353	 0.0129116784	 0.30878
C	 1.3733526078	-0.6608622466	-0.2022632143	-0.395239
C	 0.7144287916	-0.6938910775	 1.1550028986	 0.372894
O	 1.2579694597	 0.1445555765	 2.147053514	-0.469135
C	 0.1466017408	-1.9867360309	 1.7150882366	-0.259648
C	-0.7818116718	-2.7247006915	 0.7424008253	-0.211746
C	-1.8382557905	-1.7610425472	 0.1942785419	-0.185152
C	-1.207648958	-0.6282276325	-0.6312303339	-0.27719
H	 0.8982652998	 1.9514012137	 0.4927782974	 0.126795
H	-0.0393188169	 1.920529637	-1.0160146411	 0.107024
H	-0.8666703152	 1.9215180705	 0.5479779971	 0.111732
H	 1.4028452176	-1.5670739486	-0.8004534533	 0.100824
H	 2.2448147661	-0.0218982078	-0.303763378	 0.102545
H	 2.0672979467	-0.2697841817	 2.4662254016	 0.277775
H	 0.96927896	-2.6403781361	 2.0376056982	 0.080884
H	-0.4175316358	-1.7244390394	 2.6193338567	 0.104276
H	-0.2061252799	-3.1591125566	-0.0855998763	 0.095275
H	-1.2575434905	-3.5648922839	 1.2595057246	 0.093709
H	-2.5712333966	-2.296784161	-0.4190906387	 0.089311
H	-2.3923456767	-1.3323348162	 1.0401321259	 0.096623
H	-1.9623450685	 0.1459587597	-0.8079916057	 0.095437
H	-0.9340865283	-1.0121294309	-1.6227614204	 0.09671
112.0714	163.6641	210.3717	259.7694	277.7637	306.0484	358.0549	365.8991	400.591	432.6375	494.1215	508.9826	558.1893	660.6264	706.0127	818.8984	851.5645	886.9128	898.1623	925.3101	951.1202	955.5252	958.9809	1022.6051	1040.0692	1068.82	1088.2317	1107.0594	1153.2135	1178.4379	1196.4082	1224.8494	1257.3409	1273.7147	1298.7823	1322.8981	1363.5582	1372.1611	1378.4669	1387.5081	1408.4798	1414.078	1476.0555	1487.9643	1489.6435	1493.04	1495.9149	1503.5971	1511.9431	3002.8858	3013.8727	3015.9402	3020.2358	3025.1049	3045.5872	3059.4671	3066.8436	3070.659	3078.6031	3115.4881	3136.2511	3204.5935	3792.208
CC12CC1(O)CCCC2	C[C@@]12C[C@]1(O)CCCC2	
InChI=1S/C8H14O/c1-7-4-2-3-5-8(7,9)6-7/h9H,2-6H2,1H3	InChI=1S/C8H14O/c1-7-4-2-3-5-8(7,9)6-7/h9H,2-6H2,1H3/t7-,8-/m1/s1
