17
gdb 5904	3.9204	1.26234	1.21352	3.6028	74.	-0.2796	0.021	0.3005	1055.6038	0.139371	-326.717834	-326.70864	-326.707696	-326.751103	33.588	
C	 0.051087136	 1.564873721	-0.0095684508	-0.405874
C	 0.0333254967	 0.0222308899	 0.0256354331	 0.069206
C	 0.8242846998	-0.5045933313	 1.2414101467	-0.405877
C	-1.4371833969	-0.5129499994	 0.0491587512	-0.367205
C	-2.1880176914	-0.0844801971	 1.2215486351	 0.307248
C	-2.8049552653	 0.2707788534	 2.1901246315	-0.440898
C	 0.6565269566	-0.4895893264	-1.2061299433	 0.270147
N	 1.1410909933	-0.8936551249	-2.1747094209	-0.340823
H	 1.0776999359	 1.9380351837	-0.0427603091	 0.134146
H	-0.4800305276	 1.9452152612	-0.8864674398	 0.132941
H	-0.4364926963	 1.9537066856	 0.8878544614	 0.139933
H	 0.3508597566	-0.1536193395	 2.1617221114	 0.139923
H	 0.8436883231	-1.5978127513	 1.2552951621	 0.132935
H	 1.8557049524	-0.1443000358	 1.2159746754	 0.134149
H	-1.9483901262	-0.1767613019	-0.8603304544	 0.148383
H	-1.4136730902	-1.6079545956	 0.0051356973	 0.148374
H	-3.3618337165	 0.5773914181	 3.0409974329	 0.203292
83.6803	125.835	190.0605	193.1684	234.0267	263.7726	331.2815	339.2789	361.6383	364.5058	496.7127	573.1949	581.7682	624.393	656.4984	730.3131	867.1247	900.6955	958.0667	980.0889	982.6091	1043.8969	1138.9054	1213.1082	1225.9369	1288.1411	1345.9912	1398.8146	1421.4626	1467.402	1484.3784	1485.3541	1501.1608	1508.8037	2237.5058	2352.9966	3036.073	3047.0762	3050.524	3072.4638	3123.6535	3125.71	3130.8894	3134.4247	3503.3361
CC(C)(CC#C)C#N	CC(C)(CC#C)C#N	
InChI=1S/C7H9N/c1-4-5-7(2,3)6-8/h1H,5H2,2-3H3	InChI=1S/C7H9N/c1-4-5-7(2,3)6-8/h1H,5H2,2-3H3
