18
gdb 15252	3.22624	1.30105	1.10836	2.8409	70.15	-0.2408	-0.0183	0.2225	1128.6634	0.151868	-384.934145	-384.925184	-384.92424	-384.968095	32.033	
C	-0.0617956565	 1.5717605394	-0.2704892432	-0.379435
C	 0.0127681932	 0.1016941668	 0.1606937251	-0.201452
C	-1.3537613114	-0.5574601315	 0.1247853212	-0.040612
C	-1.8578615418	-1.2491605861	-1.0880079747	 0.074614
O	-0.9937787962	-1.2990497888	-2.1807514662	-0.40967
C	-1.5542434019	-2.0862998055	 0.1661696219	-0.190249
C	-0.4052322869	-3.0148738976	 0.1811943585	 0.154991
O	-0.3925567583	-4.05312996	 0.802416692	-0.278142
H	 0.9226550036	 2.0459223847	-0.2146666552	 0.115222
H	-0.4203978818	 1.6570417328	-1.3008332816	 0.130927
H	-0.743115702	 2.141215397	 0.3714700962	 0.112953
H	 0.7055855168	-0.428735728	-0.4965466082	 0.120846
H	 0.4193565543	 0.0315049872	 1.1766888557	 0.105184
H	-2.109500109	-0.0220454997	 0.6947654222	 0.10067
H	-2.9130987132	-1.1496043914	-1.3407077523	 0.100634
H	-1.1868822185	-2.0941235085	-2.6886642228	 0.297747
H	-2.4051077467	-2.4505603234	 0.7324731819	 0.104632
H	 0.4658998464	-2.7118169974	-0.4352317805	 0.081141
62.1462	87.7563	151.9669	189.4674	211.0549	273.2445	286.4921	349.8033	425.6064	449.2456	564.5073	599.3049	741.2596	796.5421	846.4216	886.4137	966.4836	996.9188	1015.1523	1043.0178	1055.6167	1102.0926	1143.0532	1182.0416	1189.742	1237.5925	1282.3052	1305.0313	1329.2141	1344.8795	1400.3206	1411.5619	1445.0551	1470.2646	1487.4251	1498.2576	1506.631	1800.598	2917.1553	3033.9875	3038.6067	3091.6031	3102.8866	3110.1123	3115.0758	3137.5707	3171.4647	3809.2235
CCC1C(O)C1C=O	CC[C@H]1[C@@H](O)[C@H]1C=O	
InChI=1S/C6H10O2/c1-2-4-5(3-7)6(4)8/h3-6,8H,2H2,1H3	InChI=1S/C6H10O2/c1-2-4-5(3-7)6(4)8/h3-6,8H,2H2,1H3/t4-,5+,6-/m1/s1
