21
gdb 97372	3.10641	0.84228	0.72154	2.9474	84.08	-0.2444	0.0202	0.2646	1645.3534	0.18094	-420.376261	-420.366034	-420.36509	-420.412342	36.242	
C	 0.1397075279	 1.4423236286	 0.1380018285	-0.31577
N	 0.4724098215	 0.0411383932	-0.0110491712	-0.207948
C	 0.7114475	-0.6115807702	 1.0353675901	 0.132093
O	 1.0618813764	-1.9141076442	 0.9694513462	-0.222355
C	 1.1763148053	-2.6276633603	 2.2093159827	 0.069747
C	-0.1835834363	-3.1711989447	 2.6426554844	-0.389213
C	 2.1980661806	-3.7319331721	 2.010651744	 0.01109
C	 2.3310477679	-4.4368051957	 0.7140000293	-0.234698
N	 3.3895268704	-3.5192057751	 1.1852550372	-0.331904
H	 0.8650234318	 2.0530139325	-0.4116044128	 0.130145
H	-0.8417515961	 1.6359177313	-0.3093523858	 0.129389
H	 0.1182250558	 1.7905140733	 1.1839096193	 0.096264
H	 0.6782312676	-0.2027087787	 2.0578909312	 0.077032
H	 1.5575385091	-1.9343178824	 2.9745566563	 0.08883
H	-0.8918674307	-2.3570426074	 2.8228546891	 0.121108
H	-0.5936540289	-3.8238761483	 1.8673352538	 0.138382
H	-0.0852124258	-3.7472979148	 3.5680791001	 0.124584
H	 2.3895400354	-4.2880012256	 2.9266297275	 0.093373
H	 2.6079181938	-5.486850092	 0.6948535429	 0.115921
H	 1.7014525107	-4.1069184657	-0.1062187369	 0.13273
H	 3.2813631038	-2.6367531916	 0.6883013642	 0.2412
47.7832	82.0298	97.454	139.9272	203.2808	216.2102	226.7369	262.8681	297.8725	373.9723	428.3094	496.872	497.1751	658.3151	779.898	860.9192	891.6274	939.5365	973.5769	981.4246	986.4211	1042.3097	1080.7905	1091.1293	1120.0861	1140.1637	1142.9431	1153.9556	1164.6643	1218.4661	1243.4567	1280.8788	1309.9006	1353.1802	1372.7834	1406.1764	1417.2167	1428.9903	1450.6207	1480.1071	1488.882	1494.5134	1504.7007	1506.7684	1779.0034	2966.3989	2983.4339	2994.6559	3042.2203	3059.5025	3079.3744	3112.9877	3118.0886	3124.2373	3128.1787	3209.5237	3490.9987
CN=COC(C)C1CN1	CN=CO[C@@H](C)[C@H]1CN1	
InChI=1S/C6H12N2O/c1-5(6-3-8-6)9-4-7-2/h4-6,8H,3H2,1-2H3	InChI=1S/C6H12N2O/c1-5(6-3-8-6)9-4-7-2/h4-6,8H,3H2,1-2H3/t5-,6+/m0/s1
