17
gdb 11721	5.05817	1.39471	1.22894	2.8554	71.82	-0.2451	-0.0276	0.2175	1001.9934	0.14171	-363.834354	-363.8267	-363.825756	-363.866234	28.663	
C	-0.0946572536	 1.5643069339	 0.1172043546	-0.406241
C	 0.0692199897	 0.0554703785	 0.0055107374	 0.037847
C	 1.146597859	-0.5173262108	-0.9898883009	-0.306951
C	 1.7974748762	-1.2504544316	 0.1789435468	 0.265752
N	 2.1748242756	-0.2196164364	 1.1839291243	-0.35326
C	 0.7906550492	-0.6707964456	 1.157469546	-0.111736
C	 2.3360599624	-2.6088881758	 0.2359987362	 0.050402
O	 2.4501113281	-3.3489303724	-0.7125517908	-0.267518
H	 0.8634370256	 2.0380829315	 0.3470441237	 0.138777
H	-0.4690327053	 1.9835613881	-0.8226327509	 0.11792
H	-0.8062649752	 1.828247163	 0.907293267	 0.113323
H	-0.8947931932	-0.4267430504	-0.1799283132	 0.084639
H	 0.7317155626	-1.1985496063	-1.7334651661	 0.127532
H	 1.7888418567	 0.2192484368	-1.4772278992	 0.112701
H	 2.6502106465	-0.6856593764	 1.95825016	 0.236649
H	 0.3443454377	-1.1508975497	 2.0215073173	 0.104561
H	 2.623849108	-2.9315631964	 1.2668817378	 0.055602
99.7993	159.5957	184.1878	231.7833	302.0449	327.7556	413.1244	485.1525	579.9341	651.4783	745.2263	785.8044	837.9634	867.8184	908.1984	943.9368	973.3621	1021.0383	1057.2943	1087.7758	1097.0452	1121.0613	1131.1078	1189.2258	1231.5809	1237.6892	1290.8372	1345.6995	1373.3945	1398.8704	1409.3297	1437.2526	1479.6818	1491.2476	1503.2784	1800.303	2827.333	3033.4606	3066.3522	3078.8922	3096.4845	3121.1032	3143.0148	3177.4761	3458.4465
CC1CC2(NC12)C=O	C[C@H]1C[C@]2(N[C@@H]12)C=O	
InChI=1S/C6H9NO/c1-4-2-6(3-8)5(4)7-6/h3-5,7H,2H2,1H3	InChI=1S/C6H9NO/c1-4-2-6(3-8)5(4)7-6/h3-5,7H,2H2,1H3/t4-,5-,6-/m0/s1
