16
gdb 48642	2.61955	1.58265	1.30675	4.1982	70.28	-0.2378	-0.0437	0.1941	1001.7498	0.124752	-437.872121	-437.864509	-437.863565	-437.90449	28.662	
O	-0.7057613369	 0.8320723936	 0.5850176087	-0.251156
C	 0.1973976666	 0.8885649009	-0.2132709625	 0.052668
C	 1.3607561954	 1.8087355321	-0.0815806821	 0.117026
C	 1.7023812832	 2.6366157357	 1.1932594613	-0.287147
C	 2.5333514522	 3.5185175503	 0.1952174587	-0.165994
C	 3.5517448201	 2.4895502444	-0.3434922891	-0.176059
N	 2.6570998107	 1.3028395109	-0.5833792989	-0.348904
C	 1.3710239442	 3.2353390902	-0.766569326	 0.43833
O	 0.6836731888	 3.8359920141	-1.5257540741	-0.298066
H	 0.2119626764	 0.2651203416	-1.1326403832	 0.09453
H	 0.8418631805	 3.1475830772	 1.6262029088	 0.1418
H	 2.2757178489	 2.1087856848	 1.9593453575	 0.111302
H	 2.8775926525	 4.5259684188	 0.4172079928	 0.101251
H	 4.0264768894	 2.8173886537	-1.2734096742	 0.127182
H	 4.3353822512	 2.2703528537	 0.3882625228	 0.113215
H	 2.9604809268	 0.5290712479	-0.0002390005	 0.230022
77.9973	160.1706	194.9788	216.4733	284.6243	421.2087	446.5175	511.2762	613.3693	670.1032	715.2572	779.3786	801.2938	857.7758	894.6309	914.657	974.1132	985.1537	998.1803	1023.9664	1048.4574	1076.8165	1114.6122	1152.6264	1207.1741	1237.6602	1243.5515	1305.4491	1346.9496	1408.7216	1414.8704	1486.4868	1520.2927	1809.2703	1921.6766	2909.0102	3043.6495	3072.9208	3086.4601	3149.1757	3154.4729	3508.369
O=CC12CC(CN1)C2=O	O=C[C@@]12C[C@@H](CN1)C2=O	
InChI=1S/C6H7NO2/c8-3-6-1-4(2-7-6)5(6)9/h3-4,7H,1-2H2	InChI=1S/C6H7NO2/c8-3-6-1-4(2-7-6)5(6)9/h3-4,7H,1-2H2/t4-,6+/m0/s1
