20
gdb 103516	2.80208	1.38416	1.32538	1.8738	80.21	-0.2309	0.0056	0.2364	1099.0847	0.170398	-403.110425	-403.101635	-403.100691	-403.144041	33.689	
C	 0.1205855758	 1.3699196669	-0.0417615291	-0.241118
O	-0.0024615994	-0.02858804	 0.0784974306	-0.275312
C	-1.3185596847	-0.5720487742	 0.0102081534	 0.396617
C	-2.148721227	-0.1679635999	 1.2393213205	-0.443542
C	-2.066505967	-0.264617631	-1.2905156534	-0.149165
C	-2.4368924892	-1.367623115	-1.9409928267	-0.053919
C	-1.9259760874	-2.5865497375	-1.2437708431	-0.095121
N	-0.4344720908	-2.6072131137	-1.2171027595	-0.325395
C	-1.1855373627	-2.098899651	-0.0546740109	-0.098995
H	 1.1853299693	 1.5952967647	 0.0601976081	 0.127121
H	-0.2160326593	 1.7383557744	-1.0211201963	 0.106271
H	-0.4227327921	 1.9189555823	 0.7412516404	 0.100251
H	-2.4072882107	 0.8944897357	 1.223836552	 0.116046
H	-3.0839056262	-0.7347326193	 1.2663947161	 0.121772
H	-1.5831357896	-0.3738814897	 2.1542949303	 0.119637
H	-2.2649392271	 0.749781001	-1.6157917255	 0.097227
H	-2.990173884	-1.399837717	-2.8725021405	 0.09992
H	-2.4703869997	-3.5243494725	-1.2571293893	 0.088857
H	-0.1242719935	-3.5531033549	-0.9969131737	 0.226477
H	-1.1525238547	-2.6532874093	 0.8775096965	 0.082373
41.6936	140.7439	189.0787	212.6128	245.2395	307.1189	355.4647	379.8243	421.2809	492.4388	585.1209	624.8142	729.9416	772.6786	804.6866	844.9128	868.9301	903.9705	920.1144	940.4262	966.6934	980.8717	1062.6313	1093.1544	1107.2162	1116.2829	1146.2798	1155.2856	1182.0954	1196.8796	1219.0814	1249.2174	1267.665	1332.3602	1387.0558	1396.9674	1416.7357	1475.134	1486.2627	1492.025	1501.7369	1510.6049	1670.3211	2987.8654	3033.6107	3038.7382	3107.7727	3111.2472	3115.0864	3160.1638	3173.4415	3190.1945	3214.859	3469.4631
COC1(C)C=CC2NC12	CO[C@@]1(C)C=C[C@H]2N[C@@H]12	
InChI=1S/C7H11NO/c1-7(9-2)4-3-5-6(7)8-5/h3-6,8H,1-2H3	InChI=1S/C7H11NO/c1-7(9-2)4-3-5-6(7)8-5/h3-6,8H,1-2H3/t5-,6-,7+/m1/s1
