20
gdb 119472	4.33354	0.87816	0.81129	2.1408	76.43	-0.247	0.0689	0.3159	1468.1981	0.170067	-440.225322	-440.21595	-440.215006	-440.260012	34.211	
C	 0.4943531176	 1.3942455439	-0.0592732453	-0.219669
O	 0.8099051309	 0.0245722602	-0.121535973	-0.238609
C	 0.0633329409	-0.6654824876	-1.1036898458	-0.166348
C	 0.4225922789	-2.1163483562	-1.0444134512	 0.33513
C	 0.4861344821	-2.9821749063	 0.2209100801	-0.344341
C	 1.6861723026	-3.7569791457	-0.4337422718	 0.104421
O	 1.5050574698	-5.1245025264	-0.7406216396	-0.434231
C	 1.5710918673	-2.8637818253	-1.668482968	-0.084834
N	 0.2267751174	-2.9339673723	-2.2324657814	-0.37244
H	 0.7066731387	 1.9069793903	-1.0108546363	 0.105301
H	-0.5668940556	 1.5593223088	 0.1870607763	 0.103389
H	 1.1120418384	 1.8377714424	 0.7255216649	 0.125833
H	-1.0187146879	-0.5333803164	-0.9219602759	 0.085783
H	 0.2722670032	-0.2786399798	-2.1134790321	 0.10145
H	 0.7831691247	-2.422402075	 1.1095082123	 0.12036
H	-0.4095403483	-3.5750353695	 0.4369759283	 0.087981
H	 2.621852285	-3.5873108201	 0.1143379945	 0.077718
H	 1.4631562504	-5.6158585173	 0.0860007838	 0.285826
H	 2.3819272828	-2.5216827602	-2.3009133818	 0.091832
H	-0.2160762789	-3.8291001075	-2.0320645377	 0.235448
71.1003	85.5858	99.3155	170.1483	224.0325	261.1632	305.0846	327.1971	396.868	437.4222	469.3893	586.5394	683.0512	757.9951	812.6142	861.5559	939.2757	966.098	985.0621	992.1624	1012.1799	1060.2571	1089.7699	1121.9955	1153.8298	1164.0471	1179.0577	1186.8599	1195.7411	1226.426	1228.2318	1258.4286	1280.8319	1287.6385	1339.7203	1384.3215	1412.8464	1465.9811	1480.8026	1485.3488	1490.1193	1502.8612	1521.266	2941.1885	2969.3835	2997.4076	3012.4	3019.9053	3042.3351	3112.8753	3123.1716	3183.1868	3472.0478	3816.8275
COCC12CC(O)C1N2	COC[C@]12C[C@@H](O)[C@H]1N2	
InChI=1S/C6H11NO2/c1-9-3-6-2-4(8)5(6)7-6/h4-5,7-8H,2-3H2,1H3	InChI=1S/C6H11NO2/c1-9-3-6-2-4(8)5(6)7-6/h4-5,7-8H,2-3H2,1H3/t4-,5-,6-/m1/s1
