20
gdb 26495	3.50754	1.13466	1.05586	1.9079	85.2	-0.2004	0.0488	0.2492	1234.8203	0.172388	-366.039692	-366.031225	-366.030281	-366.073018	33.225	
C	-0.1678658579	 1.4582381879	 0.3379421452	-0.453361
C	 0.0053921522	-0.0226682603	 0.0314507427	 0.258785
C	 1.3750654217	-0.4773480782	-0.4300752624	-0.291016
C	 0.8897289486	-0.8265532671	 0.9567776343	-0.305318
C	-1.1941814332	-0.6823682248	-0.5598147578	 0.211181
C	-2.0402149128	-1.575081522	 0.0628266426	-0.186965
N	-3.03954344	-1.9062557096	-0.8176970088	-0.236068
C	-2.8536244035	-1.2378764368	-2.000994648	-0.07251
C	-1.721285404	-0.4705878327	-1.8722518392	-0.255584
H	 0.7512651903	 1.886633951	 0.7519376431	 0.103899
H	-0.4231237017	 2.0203377957	-0.5671224487	 0.11534
H	-0.973759964	 1.6159324133	 1.0631797886	 0.113883
H	 1.4240541382	-1.2740460255	-1.1637077448	 0.110685
H	 2.153736155	 0.272386876	-0.5267454256	 0.102192
H	 1.3390073067	-0.3134761177	 1.8007644928	 0.102249
H	 0.6262623357	-1.8599411736	 1.1515018696	 0.105781
H	-2.0106038176	-1.9928101032	 1.0563362657	 0.113803
H	-3.7862217191	-2.5505602236	-0.627967266	 0.259112
H	-3.5337662992	-1.3700528551	-2.8271507071	 0.115071
H	-1.3013628554	 0.1706283963	-2.6326251562	 0.08884
42.7527	140.6906	182.1529	242.1643	300.0905	331.3754	393.3775	462.1497	488.7964	524.4644	640.1387	680.258	694.9391	776.8189	790.5415	828.4639	831.0044	867.6007	904.7802	941.4799	948.6535	961.9607	1040.2508	1066.591	1075.2708	1080.8643	1092.4222	1120.2134	1161.775	1191.2157	1199.76	1260.6729	1301.6129	1375.5392	1396.1172	1412.7839	1465.2023	1465.8935	1489.0054	1497.9613	1503.9205	1526.2612	1607.7432	3023.8102	3090.3244	3095.5577	3128.1834	3133.5786	3209.3416	3223.3184	3241.2474	3261.071	3267.865	3689.7001
CC1(CC1)C1=CNC=C1	CC1(CC1)c1c[nH]cc1	
InChI=1S/C8H11N/c1-8(3-4-8)7-2-5-9-6-7/h2,5-6,9H,3-4H2,1H3	InChI=1S/C8H11N/c1-8(3-4-8)7-2-5-9-6-7/h2,5-6,9H,3-4H2,1H3
