13
gdb 18417	3.48907	1.8511	1.57406	5.1266	62.59	-0.2626	-0.0345	0.2282	815.6306	0.095741	-361.462314	-361.455698	-361.454753	-361.493347	24.604	
O	 0.0184181593	 0.0334879326	-0.0863588687	-0.291681
C	 0.0164529677	 1.2191119179	 0.0517538336	 0.42489
C	-1.1127109782	 2.2815075204	 0.1566364673	-0.369792
C	-0.0208964188	 3.3472102336	-0.0293288376	-0.064388
C	 0.9768283571	 3.2726153876	 1.0880298793	-0.181796
C	 0.6177171133	 2.8827498579	 2.4291012483	 0.302279
N	 0.3205921562	 2.5843811423	 3.5060647894	-0.331995
C	 1.0894551785	 2.2761286643	-0.0705435755	-0.187472
H	-1.7863711876	 2.1911563206	-0.6995441107	 0.143777
H	-1.6952250025	 2.3206089939	 1.0797387241	 0.153351
H	-0.0981524819	 4.23041247	-0.6484770523	 0.124195
H	 1.7554320286	 4.0292548623	 1.0567067924	 0.150809
H	 2.0070851183	 2.2174052866	-0.6423450597	 0.127821
90.7166	157.7292	232.6009	372.476	444.0087	491.5469	572.6553	622.7118	659.0065	750.9626	795.4711	856.3611	907.1924	932.3958	960.5623	994.0704	1023.4541	1072.0055	1092.9649	1141.4363	1157.891	1215.8287	1278.9746	1306.0976	1395.5252	1458.2056	1900.9234	2356.7107	3073.3049	3130.6646	3161.5546	3201.6545	3217.7918
O=C1CC2C(C#N)C12	O=C1C[C@H]2[C@@H](C#N)[C@@H]12	
InChI=1S/C6H5NO/c7-2-4-3-1-5(8)6(3)4/h3-4,6H,1H2	InChI=1S/C6H5NO/c7-2-4-3-1-5(8)6(3)4/h3-4,6H,1H2/t3-,4+,6-/m0/s1
