16
gdb 48808	2.22589	1.52642	1.12554	3.0749	77.9	-0.2517	-0.0351	0.2167	1109.8711	0.122704	-400.676385	-400.66812	-400.667176	-400.709433	30.962	
O	-0.1559564516	 0.0312827649	 0.2028293894	-0.263841
C	-0.0167118854	 1.2172238352	 0.0232890413	 0.059357
C	 1.2734467386	 1.9095191804	-0.0046913513	 0.250483
N	 1.4091930477	 3.3549683747	 0.2923791965	-0.349641
C	 1.7220696434	 2.9057774192	-1.0568346596	-0.100027
C	 3.142794134	 2.3340039923	-1.0327799177	-0.231619
C	 2.6767481701	 1.278816437	 0.0502241286	-0.239922
C	 3.3649341404	 1.2411497769	 1.3243157366	 0.338502
C	 3.9510591413	 1.2058780732	 2.3728318576	-0.457362
H	-0.889242404	 1.8885276363	-0.1669680697	 0.061982
H	 0.4749646627	 3.7672615754	 0.2936496144	 0.240029
H	 1.1633022922	 3.2604456949	-1.9146888428	 0.115222
H	 3.4388552416	 1.8585218415	-1.968535612	 0.119428
H	 3.9096519765	 3.0373347	-0.7056214517	 0.12983
H	 2.6325740907	 0.279039124	-0.3898060087	 0.130008
H	 4.4585277317	 1.1768382939	 3.3050726092	 0.197572
84.18	129.0508	144.7327	211.7595	260.506	333.5957	450.2739	473.8468	509.0213	564.8817	621.8819	638.6522	678.0416	753.6269	806.1146	837.7966	906.2507	928.2399	998.8349	1007.7857	1044.4905	1070.2445	1091.5609	1103.3245	1160.6197	1196.9271	1230.2152	1283.1179	1318.7946	1364.3609	1398.4362	1435.7797	1474.4895	1802.6811	2240.8511	2834.298	3079.681	3086.0556	3149.3693	3191.1428	3461.3396	3504.0519
O=CC12NC1CC2C#C	O=C[C@]12N[C@H]1C[C@H]2C#C	
InChI=1S/C7H7NO/c1-2-5-3-6-7(5,4-9)8-6/h1,4-6,8H,3H2	InChI=1S/C7H7NO/c1-2-5-3-6-7(5,4-9)8-6/h1,4-6,8H,3H2/t5-,6+,7-/m1/s1
