16
gdb 44906	2.89727	1.81256	1.5655	2.6074	69.79	-0.257	-0.0074	0.2496	897.2507	0.12734	-437.909222	-437.902725	-437.901781	-437.939965	26.41	
N	-0.0527591732	 1.2693240667	 0.0166007363	-0.547227
C	-0.0180958506	 0.0123258686	-0.0121342164	 0.430413
O	 1.0987490574	-0.7824163858	-0.0412208254	-0.254379
C	 0.6421362651	-2.1506927013	-0.1252045808	 0.173739
C	 0.5636328089	-2.7691556638	 1.2758698885	-0.276899
C	-0.6220171526	-2.2121478137	 2.0274392536	-0.066834
C	-1.4591568696	-1.3511557493	 1.4498041861	-0.055935
C	-1.1956733575	-0.9530846592	 0.0116462218	-0.071238
O	-0.6386223454	-2.0687970025	-0.6986503062	-0.247441
H	 0.8901783509	 1.6618648375	 0.0212230847	 0.227262
H	 1.3089209484	-2.6893672035	-0.8010296292	 0.105337
H	 0.4869903354	-3.860619958	 1.1855478427	 0.123308
H	 1.4989388924	-2.5636938178	 1.8106676282	 0.127931
H	-0.7675653497	-2.5362735518	 3.053662577	 0.103999
H	-2.2951382782	-0.9015849993	 1.9730382566	 0.109786
H	-2.0701632916	-0.5858699167	-0.5209611475	 0.118177
138.8445	209.1844	341.9662	409.5446	424.7055	495.1235	551.1391	656.9095	680.0551	726.6099	756.169	852.4989	877.5803	887.6392	902.2623	919.4278	951.8378	980.1217	1000.104	1014.954	1041.4696	1057.8309	1141.2949	1182.6497	1202.2654	1241.5767	1278.4046	1310.3231	1349.2179	1371.6184	1380.3099	1407.6022	1459.9456	1704.4173	1799.2924	3025.797	3062.2587	3105.7833	3149.7192	3170.015	3203.1151	3474.3447
N=C1OC2CC=CC1O2	[NH][C]1O[C@H]2CC=C[C@@H]1O2	
InChI=1S/C6H7NO2/c7-6-4-2-1-3-5(8-4)9-6/h1-2,4-5,7H,3H2	InChI=1S/C6H7NO2/c7-6-4-2-1-3-5(8-4)9-6/h1-2,4-5,7H,3H2/t4-,5-/m0/s1
