18
gdb 37247	3.65283	1.53218	1.39414	0.4205	74.77	-0.2256	0.0534	0.279	976.0685	0.148317	-401.84611	-401.839151	-401.838207	-401.877202	28.71	
C	 0.1044628342	 1.5497378896	 0.0020545486	-0.331895
C	 1.3417962006	 0.6644006053	 0.0430581837	-0.361591
C	-0.0244930485	 0.0646543135	-0.0479956569	 0.462212
O	-0.5790800159	-0.7032475493	 1.0398328396	-0.326607
C	-1.0498755665	-1.708358521	 0.1060304779	 0.095117
C	-2.4850870054	-1.5287207179	-0.4138843353	-0.042153
C	-2.8292948507	-0.1081445509	-0.57907111	-0.24629
N	-1.9919492397	-0.7289500142	-1.6253151097	-0.160838
C	-0.5715036257	-0.8910951277	-1.09428482	-0.131907
H	-0.1855632459	 2.0354539943	 0.9279763645	 0.127939
H	-0.1058467624	 2.1199560444	-0.8966907824	 0.127052
H	 1.9853984492	 0.6241216639	-0.8299014355	 0.118466
H	 1.8530903929	 0.5698789039	 0.994842894	 0.128338
H	-0.7228741035	-2.7170064812	 0.3607420875	 0.088632
H	-3.2047347512	-2.3334879132	-0.5266213909	 0.095032
H	-3.8269302291	 0.1166843867	-0.9437472264	 0.120929
H	-2.411253849	 0.6288102007	 0.0963766134	 0.143956
H	 0.0934541567	-1.2520206367	-1.8763822619	 0.093608
133.6489	189.9895	258.5769	338.8556	376.6662	503.7866	527.0724	617.3542	709.8469	728.8959	756.4572	788.6428	866.9626	870.0971	890.4507	906.7997	934.4819	942.7151	970.2442	990.3395	1020.233	1038.2851	1052.9919	1062.4005	1071.4952	1108.3509	1144.2385	1187.706	1188.6897	1205.4849	1230.8034	1251.9694	1275.3774	1316.9427	1357.8923	1387.8685	1448.8574	1495.161	1501.5581	3105.4472	3128.2324	3130.6633	3132.4158	3134.0272	3161.4956	3211.8384	3225.1937	3226.1188
C1CC11OC2C3CN3C12	C1CC21O[C@H]1[C@H]3CN3[C@@H]21	
InChI=1S/C7H9NO/c1-2-7(1)6-5(9-7)4-3-8(4)6/h4-6H,1-3H2	InChI=1S/C7H9NO/c1-2-7(1)6-5(9-7)4-3-8(4)6/h4-6H,1-3H2/t4-,5+,6-,8?/m1/s1
