21
gdb 103241	2.69459	1.60117	1.23434	1.2108	81.75	-0.2028	0.072	0.2748	1100.0359	0.181073	-387.001677	-386.992835	-386.99189	-387.034856	34.518	
C	-0.3405075575	 1.250327262	 0.0688049419	-0.254498
O	 0.3323771032	 0.0195472151	-0.1264832745	-0.28322
C	 0.7549423149	-0.599708307	 1.0606461289	 0.405399
C	 1.9959785901	 0.0624636577	 1.6468516392	-0.445635
C	-0.1682097798	-1.1905294808	 2.0960757627	-0.138799
C	-1.3988742797	-1.9920632504	 1.5918655341	-0.07463
C	-1.5809366011	-2.0739837065	 0.0947918034	-0.305743
C	-0.4996936172	-2.8833868826	 0.7560291718	-0.061988
C	 0.7464409788	-2.0891605893	 1.2296388965	-0.131593
H	 0.3230965403	 2.0298629261	 0.4675749697	 0.10952
H	-0.7009799669	 1.5718170727	-0.9113304911	 0.124528
H	-1.1962370913	 1.1367895363	 0.7481240701	 0.117268
H	 1.7906280933	 1.0923201604	 1.9551755288	 0.118039
H	 2.3586505414	-0.4792568111	 2.5242377346	 0.119502
H	 2.7917514758	 0.0825503125	 0.8961001394	 0.126225
H	-0.0543711591	-0.9460193152	 3.1462764335	 0.07928
H	-2.1817758652	-2.2940048246	 2.2757222726	 0.086459
H	-2.44465211	-2.6711773707	-0.1876447574	 0.101939
H	-1.3535473764	-1.259026841	-0.5740183389	 0.139221
H	-0.4833522339	-3.965106396	 0.7205740539	 0.08602
H	 1.6509574903	-2.6040168178	 1.5332693507	 0.082705
79.9303	139.4393	169.8121	197.4434	264.4807	293.1164	337.9776	375.6604	395.0458	572.7393	602.1741	651.834	701.5357	729.5961	755.6684	836.281	872.5181	894.3273	904.2512	980.0758	986.2763	1018.5328	1020.2252	1038.7684	1056.5479	1074.5395	1090.5363	1096.7512	1138.263	1142.9647	1181.0594	1195.449	1225.4748	1260.5398	1273.4261	1286.2728	1342.4785	1402.2498	1414.9778	1471.2994	1480.6769	1482.384	1492.8547	1505.6197	1510.1028	2996.8535	3040.2412	3051.4007	3106.6007	3115.472	3120.7775	3131.0085	3162.0902	3171.6648	3184.9765	3195.8533	3262.7749
COC1(C)C2C3CC3C12	CO[C@@]1(C)[C@H]2[C@H]3C[C@H]3[C@@H]12	
InChI=1S/C8H12O/c1-8(9-2)6-4-3-5(4)7(6)8/h4-7H,3H2,1-2H3	InChI=1S/C8H12O/c1-8(9-2)6-4-3-5(4)7(6)8/h4-7H,3H2,1-2H3/t4-,5+,6-,7+,8-
