18
gdb 78962	2.47966	2.15326	1.5789	0.7913	73.42	-0.2158	0.0687	0.2844	905.6551	0.148034	-401.852039	-401.844836	-401.843892	-401.883134	29.656	
C	-0.0985185439	 1.605492471	-0.0186002525	-0.418125
C	 0.025649553	 0.0978552027	 0.0373308172	-0.004558
N	 1.048769139	-0.5668055362	-0.8590048722	-0.170252
C	 2.3797175191	-0.1196156476	-0.322658573	-0.023881
C	 2.6742001125	-1.3930813485	 0.4106665911	-0.117141
C	 2.1983907631	-0.1757768648	 1.1894395233	-0.117463
C	 0.7203499355	-0.6329395026	 1.2126664628	 0.351296
O	 0.1812476576	-0.840472454	 2.4710089487	-0.481384
C	 1.1843730879	-1.715338848	 0.1611096962	-0.093362
H	 0.8589865771	 2.0896815456	 0.1950973632	 0.123013
H	-0.4343434808	 1.93192117	-1.0081797532	 0.125512
H	-0.8261003754	 1.9578510967	 0.7200482491	 0.119369
H	-0.9388995283	-0.3817956585	-0.1816985697	 0.06671
H	 3.0332510226	 0.5611189993	-0.8522607557	 0.092601
H	 3.5723611357	-1.9899097418	 0.4802033488	 0.096982
H	 2.7246560032	 0.4427500214	 1.9028448574	 0.093588
H	-0.7069972742	-1.1982666445	 2.3659230263	 0.283071
H	 0.7073235266	-2.6694802701	-0.0564986577	 0.074022
183.1349	209.9367	218.7042	294.5402	340.0824	368.1273	553.6493	606.3317	614.7971	714.5325	750.4105	790.9588	815.082	829.337	853.4374	864.7278	908.6793	938.6822	951.4971	977.5523	1004.8417	1043.7426	1047.7939	1069.9552	1101.798	1110.1749	1115.1258	1159.2563	1189.5376	1226.7716	1228.272	1248.7914	1286.8507	1353.319	1375.1246	1402.2792	1419.3929	1488.26	1498.3178	3010.5002	3036.696	3103.6318	3112.2981	3128.3746	3195.5654	3210.7136	3223.6018	3804.054
CC1N2C3C4C3C1(O)C24	C[C@H]1N2[C@@H]3[C@H]4[C@@H]3[C@]1(O)[C@@H]24	
InChI=1S/C7H9NO/c1-2-7(9)4-3-5(4)8(2)6(3)7/h2-6,9H,1H3	InChI=1S/C7H9NO/c1-2-7(9)4-3-5(4)8(2)6(3)7/h2-6,9H,1H3/t2-,3-,4+,5-,6+,7+/m1/s1
