18
gdb 100849	1.99562	1.19189	0.89282	2.1675	73.23	-0.2757	-0.052	0.2237	1357.0683	0.144385	-439.106895	-439.096531	-439.095587	-439.14333	35.658	
C	-0.0605572272	 1.5831304611	-0.0301703611	-0.384786
C	-0.0308560178	 0.052343983	-0.0130916044	-0.216482
C	 0.7379313372	-0.5299053667	-1.2020778438	 0.132099
O	 2.0795258241	-0.086821311	-1.2667260904	-0.434268
C	 0.6870861935	-2.0964826508	-1.2389951415	-0.248895
C	 1.2967939156	-2.5741824701	-2.5699497199	 0.165914
O	 0.6784768332	-2.514081161	-3.5957988051	-0.240374
C	 1.397687908	-2.6591781442	-0.095160636	 0.25723
N	 2.0047796418	-3.0730279535	 0.7976110525	-0.318009
H	 0.9526153324	 1.9927800395	-0.0405577865	 0.132267
H	-0.5792122506	 1.9571646401	-0.9192475908	 0.122918
H	-0.5801828051	 1.9709441794	 0.8502269014	 0.12109
H	 0.4276949149	-0.3080242677	 0.9177496281	 0.116705
H	-1.0530681041	-0.3453477504	-0.0265319899	 0.107307
H	 0.2773912966	-0.1993754739	-2.1393408336	 0.121724
H	 2.5031996876	-0.2770151239	-0.4201511621	 0.297024
H	-0.3601610032	-2.4158903491	-1.2255568723	 0.150671
H	 2.338795053	-2.9463959606	-2.5210980146	 0.117866
44.5861	70.9924	94.4318	134.5313	162.9074	185.3176	223.8333	267.187	345.6717	382.303	410.4381	478.7924	514.713	543.5476	700.2686	781.8286	812.4447	926.5195	972.829	985.0503	1014.7727	1038.3583	1069.733	1108.2929	1141.7223	1218.2142	1249.3603	1268.9435	1329.8829	1355.2033	1384.9533	1409.8874	1418.9747	1429.0137	1484.7802	1496.0769	1508.1649	1837.9328	2352.4674	2944.5903	3020.7761	3042.9723	3054.8499	3068.0582	3075.1344	3110.9169	3126.5258	3779.0353
CCC(O)C(C=O)C#N	CC[C@@H](O)[C@@H](C=O)C#N	
InChI=1S/C6H9NO2/c1-2-6(9)5(3-7)4-8/h4-6,9H,2H2,1H3	InChI=1S/C6H9NO2/c1-2-6(9)5(3-7)4-8/h4-6,9H,2H2,1H3/t5-,6-/m1/s1
