19
gdb 115237	3.94393	0.95761	0.80674	5.6806	72.08	-0.2555	0.0151	0.2707	1388.182	0.15997	-460.202528	-460.19366	-460.192716	-460.236561	32.501	
O	-0.1502841028	 1.4863031032	-0.0066452033	-0.422788
C	-0.0006605612	 0.078813445	-0.1074108682	-0.09641
C	-1.381264205	-0.5557103766	 0.0241082361	-0.001924
C	-1.3384480292	-2.0790386658	-0.103993383	-0.234919
C	-2.7601466478	-2.6340169606	 0.0069282251	-0.341368
C	-3.6114675969	-2.0437320809	 1.1257968919	 0.405985
O	-4.5966218573	-2.590984659	 1.5413831508	-0.324467
O	-3.2880765674	-0.8185619126	 1.6040141127	-0.230754
C	-2.0089110721	-0.2041689904	 1.3697582594	-0.058568
H	 0.7202473557	 1.8914042494	-0.0559707214	 0.292464
H	 0.4386663587	-0.2106650097	-1.0750085097	 0.093499
H	 0.662530523	-0.3107314119	 0.6831850258	 0.08969
H	-2.0146367716	-0.1441820669	-0.7733800752	 0.094699
H	-0.8866421609	-2.3867002425	-1.0534280133	 0.10426
H	-0.7083061757	-2.4933757782	 0.6943720336	 0.106595
H	-3.3127291036	-2.4221117937	-0.9180116838	 0.140419
H	-2.7791026183	-3.7188423195	 0.1315523827	 0.136392
H	-1.3349317906	-0.5081465743	 2.1834454107	 0.1057
H	-2.1794943168	 0.8689993247	 1.457514539	 0.141494
69.6111	106.9722	145.561	177.3432	220.2724	265.9072	350.1407	416.9827	432.7592	491.0229	512.4512	579.5101	706.3848	760.3013	830.3094	895.7907	949.8162	957.7177	1014.7973	1059.446	1081.8389	1105.5587	1117.3972	1146.6874	1189.1657	1198.1843	1244.732	1252.4967	1276.2683	1298.0803	1329.7802	1351.2762	1376.3842	1388.0079	1429.1783	1460.7039	1463.7639	1496.9085	1515.3887	1523.5855	1841.3251	2960.6795	2992.2136	3006.7081	3017.3924	3031.7978	3035.0446	3068.8588	3111.0207	3129.7715	3835.3545
OCC1CCC(=O)OC1	OC[C@H]1CCC(=O)OC1	
InChI=1S/C6H10O3/c7-3-5-1-2-6(8)9-4-5/h5,7H,1-4H2	InChI=1S/C6H10O3/c7-3-5-1-2-6(8)9-4-5/h5,7H,1-4H2/t5-/m1/s1
