16
gdb 124681	3.90629	1.07835	1.01784	2.0721	71.5	-0.2601	-0.038	0.222	1191.7747	0.124534	-434.079902	-434.071583	-434.070639	-434.114151	29.082	
C	-0.1817845185	 1.4211090569	-0.0291744587	-0.39705
C	 0.0187539024	-0.091998305	 0.0400075041	-0.041543
C	 0.722818732	-0.6505031943	-1.2023332059	 0.164709
O	 0.6643010251	-0.1291847565	-2.2818343918	-0.233772
N	 0.742793534	-0.5138420742	 1.2287311486	 0.122697
N	 2.0353663376	-0.2436790041	 1.3849550475	-0.222763
C	 2.32372012	-0.7711484111	 2.575989501	-0.052993
C	 1.1607119278	-1.3523016798	 3.099244846	-0.064658
N	 0.1669708144	-1.1793132204	 2.2253410888	-0.218198
H	 0.7831253446	 1.930464554	 0.0219150431	 0.151445
H	-0.6575960642	 1.675033967	-0.9780679861	 0.148885
H	-0.8098877409	 1.7621140898	 0.7967202319	 0.131724
H	-0.9482158208	-0.604633965	 0.1072436521	 0.146308
H	 1.2727798503	-1.5995267124	-1.0288685114	 0.102435
H	 3.3200502046	-0.7125591913	 2.9837871856	 0.131361
H	 0.9973334916	-1.8709379436	 4.0301573652	 0.131413
38.2809	79.8495	123.0082	199.1839	234.3208	261.1138	396.838	420.4186	574.4032	680.7638	703.8339	747.69	849.4486	858.1578	900.3835	927.6027	981.1203	986.6364	1048.1124	1098.88	1115.073	1134.9985	1187.4985	1261.4991	1297.1972	1309.7319	1379.453	1387.0288	1403.9093	1420.0705	1444.549	1484.9815	1499.3169	1506.4338	1843.6129	2916.4707	3059.5997	3061.8416	3141.9302	3150.5077	3265.6731	3282.8038
CC(C=O)N1N=CC=N1	C[C@@H](C=O)n1nccn1	
InChI=1S/C5H7N3O/c1-5(4-9)8-6-2-3-7-8/h2-5H,1H3	InChI=1S/C5H7N3O/c1-5(4-9)8-6-2-3-7-8/h2-5H,1H3/t5-/m0/s1
