15
gdb 7301	4.57036	1.19234	0.97827	4.4329	62.71	-0.2585	0.0075	0.2661	1121.7264	0.117886	-399.799486	-399.791029	-399.790085	-399.832852	30.464	
N	-0.0137414667	 0.9710464589	-0.074071965	-0.535383
H	-0.2859097697	 0.0186333559	-0.305541916	 0.245819
H	 1.4343390046	 0.7447743088	 1.1787714417	 0.308102
H	-0.2656722519	 1.5448002206	-0.8718056658	 0.255931
C	-0.7207964541	 1.4264734636	 1.1279283156	-0.13718
C	-2.2156987419	 1.0500534725	 1.2182590525	-0.364995
C	-2.9824194285	 1.6036753872	 0.110666249	 0.28184
C	-3.5701901512	 2.0743737172	-0.826736885	-0.429792
C	 0.0350830641	 0.941986081	 2.3826353932	 0.445135
O	 1.3178878861	 0.6407605808	 2.1476193997	-0.370042
O	-0.4704419877	 0.870032065	 3.4706758687	-0.337333
H	-0.6449807552	 2.5208151619	 1.1443545078	 0.136617
H	-2.3110454301	-0.0439300256	 1.2342887572	 0.134077
H	-2.6004929085	 1.4000373716	 2.1809854058	 0.166602
H	-4.1196114094	 2.4861115706	-1.6369867794	 0.200602
71.4721	79.25	129.6775	243.1212	299.7903	343.6546	348.4961	390.2108	456.2339	526.7256	628.0567	629.7498	656.8239	731.4842	841.5898	852.358	876.5897	927.6639	970.5271	1057.7622	1126.195	1149.4835	1216.5902	1254.605	1283.0462	1352.3886	1401.4108	1420.7964	1468.4156	1662.741	1867.524	2237.1109	3024.7144	3047.4045	3090.3517	3490.4137	3504.4763	3508.9409	3578.3124
[NH3+]C(CC#C)C([O-])=O	N[C@@H](CC#C)C(=O)O	
InChI=1S/C5H7NO2/c1-2-3-4(6)5(7)8/h1,4H,3,6H2,(H,7,8)	InChI=1S/C5H7NO2/c1-2-3-4(6)5(7)8/h1,4H,3,6H2,(H,7,8)/t4-/m0/s1
