25
gdb 101675	2.94042	0.69424	0.64665	2.3087	85.74	-0.2554	0.0617	0.3171	1886.2385	0.226602	-426.632039	-426.620414	-426.61947	-426.669931	42.154	
C	 0.3074411287	 1.7617648736	 0.239390695	-0.388704
C	 0.1783918529	 0.2380426318	 0.1407666964	-0.167959
C	 0.8321974826	-0.5376250744	 1.3011653771	 0.05247
C	 0.1225106944	-0.2720610485	 2.6367998635	-0.403007
C	 0.8733892193	-2.0532603838	 1.0187068397	-0.223771
C	 1.8719588602	-2.4914315286	-0.0530275998	 0.086737
O	 3.2171896631	-2.1062673438	 0.2690023147	-0.43691
C	 1.8451823484	-4.000630784	-0.311334122	-0.060364
O	 2.8276748972	-4.3706570755	-1.2533919722	-0.425823
H	 1.3588619093	 2.0638485573	 0.3017804925	 0.11706
H	-0.1245988992	 2.2469416482	-0.6414425815	 0.112369
H	-0.2065164123	 2.1633536687	 1.1178104805	 0.117069
H	-0.8840211722	-0.0389193259	 0.0842835064	 0.090171
H	 0.6253449278	-0.0840584357	-0.8068069169	 0.098503
H	 1.8724255593	-0.1962602475	 1.3895444256	 0.079831
H	-0.9211495904	-0.6081744291	 2.599726938	 0.111347
H	 0.6125228132	-0.8070650016	 3.4574486517	 0.106328
H	 0.1199776727	 0.790667784	 2.8942389028	 0.116459
H	 1.1220082762	-2.5856509635	 1.9494591256	 0.080163
H	-0.1284122795	-2.4037127684	 0.7336309924	 0.098729
H	 1.6729068507	-1.9854182696	-1.0039568698	 0.100884
H	 3.4036049019	-2.4236432504	 1.1612379662	 0.280742
H	 1.9859910989	-4.5312036893	 0.6494868094	 0.068496
H	 0.8708303726	-4.3037080683	-0.7106689818	 0.10558
H	 3.6020747242	-3.8366344456	-1.0315902035	 0.283598
27.9838	63.2088	82.9524	133.1044	156.546	215.6835	238.0872	241.0955	287.1661	321.8026	337.0413	366.4972	415.0693	455.1305	505.5327	516.9209	591.9901	769.0421	798.9217	849.6595	882.8716	932.8798	976.5838	987.6144	1016.0475	1043.9656	1059.1005	1091.6265	1104.3371	1124.2997	1164.8004	1177.7899	1209.1006	1228.5417	1273.6706	1300.7053	1313.8164	1345.2262	1353.9077	1377.8171	1391.8615	1397.4801	1409.8268	1417.1608	1421.7016	1444.3934	1475.2292	1482.39	1495.3206	1501.1881	1505.9612	1506.5948	1510.8888	2925.1024	2990.8831	3006.8495	3017.9056	3026.1948	3034.6893	3037.6997	3053.2103	3060.8554	3072.573	3088.0431	3099.6699	3104.1585	3112.7817	3758.5362	3779.497
CCC(C)CC(O)CO	CC[C@@H](C)C[C@@H](O)CO	
InChI=1S/C7H16O2/c1-3-6(2)4-7(9)5-8/h6-9H,3-5H2,1-2H3	InChI=1S/C7H16O2/c1-3-6(2)4-7(9)5-8/h6-9H,3-5H2,1-2H3/t6-,7-/m1/s1
