21
gdb 58520	2.69096	1.29455	1.22672	2.1427	77.61	-0.2455	0.0596	0.3051	1156.9173	0.181338	-424.194374	-424.185259	-424.184315	-424.227594	36.097	
C	 0.0956579382	 1.525359748	-0.1211700612	-0.418545
C	 0.0579791094	 0.0106547113	 0.1194633658	 0.105178
O	 0.5932096277	-0.3181506556	 1.3929558951	-0.443161
C	-1.3526966277	-0.5817731886	 0.0051014023	 0.377571
O	-2.1400605944	-0.1096503189	 1.1025238939	-0.494767
C	-2.1286431914	-0.5096743676	-1.3556862866	-0.312974
C	-2.2971758508	-2.0347774186	-1.3139747009	-0.041772
C	-0.9481093275	-2.6916793242	-1.2905418883	-0.291319
C	-1.4911066068	-2.108197268	-0.0167881858	-0.060877
H	 1.1172392341	 1.8911258275	 0.0081725443	 0.129788
H	-0.2409224781	 1.7861004971	-1.130220325	 0.114355
H	-0.533322275	 2.058468659	 0.6017599425	 0.09844
H	 0.7063944639	-0.4765403251	-0.6173878834	 0.080909
H	-0.1339236998	-0.1843782407	 2.0156675256	 0.280009
H	-2.3541699483	 0.8157692902	 0.939427253	 0.28029
H	-3.0666397796	 0.0366122629	-1.2312920732	 0.102838
H	-1.5904774543	-0.1094558731	-2.2219130717	 0.092308
H	-3.196284352	-2.5713504702	-1.5890958511	 0.086503
H	-0.9536783526	-3.7762920006	-1.3275430431	 0.115605
H	-0.1032954023	-2.2408009303	-1.8059719637	 0.106865
H	-1.6620460924	-2.7022560144	 0.8715432416	 0.092757
89.6307	158.4892	179.4887	225.8345	289.0188	297.8856	332.6826	350.5596	424.5326	449.1852	482.6582	503.7854	526.7911	700.6561	755.6822	788.3677	829.6211	899.6243	905.1878	939.9792	954.4387	971.8629	1005.9899	1025.0862	1057.9105	1065.1868	1080.1025	1089.8331	1115.8788	1124.1544	1144.9137	1195.3995	1243.2103	1260.2646	1275.2478	1292.6344	1337.0362	1360.3941	1380.4904	1398.9228	1437.2539	1469.0957	1489.3298	1494.6466	1501.7008	3028.7831	3038.773	3049.2336	3095.6454	3105.5494	3110.8289	3120.489	3186.3836	3194.9522	3206.4879	3758.2539	3802.2403
CC(O)C1(O)CC2CC12	C[C@@H](O)[C@@]1(O)C[C@H]2C[C@@H]12	
InChI=1S/C7H12O2/c1-4(8)7(9)3-5-2-6(5)7/h4-6,8-9H,2-3H2,1H3	InChI=1S/C7H12O2/c1-4(8)7(9)3-5-2-6(5)7/h4-6,8-9H,2-3H2,1H3/t4-,5-,6-,7+/m1/s1
