16
gdb 66214	3.50906	1.26544	1.14959	2.4723	66.84	-0.2535	-0.0554	0.1982	1067.5464	0.124118	-475.03451	-475.026427	-475.025483	-475.067336	29.9	
O	 0.0685002749	 1.4960114477	 0.1010208516	-0.465979
C	 0.018403892	 0.0939290275	 0.0349127189	 0.208204
C	 0.7239147604	-0.503850996	 1.2647208477	-0.086529
O	 0.0204970174	-0.1916641172	 2.4661604026	-0.219154
C	-1.3315337418	-0.1952337187	 2.3882927595	 0.143003
N	-2.0735186159	-0.3091620179	 1.3729883321	-0.26973
C	-1.4527401454	-0.4021092155	 0.0613703927	-0.173282
C	 0.6896531571	-0.3902104468	-1.2333624957	 0.111943
O	 1.127593784	 0.3798094922	-2.0535034728	-0.262255
H	 0.4862263875	 1.7828899598	-0.7266937382	 0.295404
H	 0.8070999885	-1.5951627771	 1.1727721492	 0.109485
H	 1.7199151699	-0.0721472602	 1.3772975042	 0.134892
H	-1.7578848932	-0.0686280882	 3.3809054757	 0.131184
H	-2.026491222	 0.2139770603	-0.6376266416	 0.131691
H	-1.5198784367	-1.4401610558	-0.2919040195	 0.108624
H	 0.7389987433	-1.4886521243	-1.3799964564	 0.102498
89.0601	114.8144	155.059	294.2592	306.231	364.5271	376.9715	407.8954	459.4224	496.1464	552.4233	701.5326	817.4893	872.1543	886.1091	947.4901	961.1607	963.3075	992.1021	1014.1692	1080.3098	1147.7944	1176.4524	1207.494	1278.7297	1327.6172	1344.6714	1367.2982	1404.7451	1413.058	1436.3207	1465.1564	1492.7439	1744.222	1808.124	2926.1389	3010.7812	3020.8346	3078.7861	3117.852	3170.355	3689.6936
OC1(COC=NC1)C=O	O[C@]1(COC=NC1)C=O	
InChI=1S/C5H7NO3/c7-2-5(8)1-6-4-9-3-5/h2,4,8H,1,3H2	InChI=1S/C5H7NO3/c7-2-5(8)1-6-4-9-3-5/h2,4,8H,1,3H2/t5-/m0/s1
