20
gdb 8679	2.64168	1.59213	1.28477	4.2867	74.98	-0.2591	0.0326	0.2916	1076.3656	0.175771	-345.203647	-345.193756	-345.192812	-345.237734	35.881	
C	 0.1246857175	 1.5543996084	 0.0518969205	-0.409942
C	-0.0123701675	 0.0311380561	 0.0346464325	-0.193094
C	-1.4743833332	-0.4992349616	-0.0393154533	 0.080326
N	-2.2337264487	-0.0281318087	-1.2095195493	-0.520244
C	-1.4557611221	-2.0504852655	-0.0566442435	-0.183963
C	-2.8330923024	-2.7130891791	-0.0144953272	-0.396595
C	-2.1941989788	-0.0378833881	 1.1667772974	 0.317706
N	-2.7228008187	 0.3325551124	 2.1254177599	-0.355725
H	 1.177886307	 1.8412080069	 0.1183727596	 0.123657
H	-0.2791149103	 2.0090817582	-0.8586342351	 0.109371
H	-0.3962121415	 1.9906165386	 0.9098229147	 0.14553
H	 0.5182375708	-0.3845270832	-0.8315744693	 0.096314
H	 0.4658190935	-0.3909863793	 0.9260764379	 0.114398
H	-2.3179347335	 0.9833686124	-1.1970401876	 0.242479
H	-1.7193779164	-0.2730525023	-2.0518672275	 0.231392
H	-0.9235258034	-2.3449689471	-0.9707219297	 0.096936
H	-0.8424685285	-2.3946020394	 0.7830452642	 0.112133
H	-2.7325913042	-3.8002843378	-0.0824626639	 0.112051
H	-3.3533060478	-2.4812533437	 0.9196956897	 0.139298
H	-3.4567896518	-2.3674519872	-0.8416132402	 0.137972
102.5943	105.4689	158.9793	162.3155	206.9241	229.042	241.6621	274.7195	319.1999	390.9665	400.5821	444.0799	586.2975	617.9912	675.2046	785.0429	795.5643	852.1846	917.427	957.5203	1001.8122	1033.6342	1059.6648	1089.3871	1096.8152	1150.9327	1209.7961	1282.9047	1286.4057	1350.0776	1374.2396	1381.3126	1409.6595	1416.7445	1473.1216	1485.6764	1492.9787	1500.5263	1507.3761	1510.3074	1650.6355	2354.4968	3020.067	3027.7019	3039.6148	3047.735	3064.6325	3075.547	3107.2987	3113.6638	3116.3328	3135.2161	3487.4941	3576.9312
CCC(N)(CC)C#N	CCC(N)(CC)C#N	
InChI=1S/C6H12N2/c1-3-6(8,4-2)5-7/h3-4,8H2,1-2H3	InChI=1S/C6H12N2/c1-3-6(8,4-2)5-7/h3-4,8H2,1-2H3
