19
gdb 39852	3.06406	1.85504	1.5074	1.5848	78.16	-0.2364	0.0807	0.3171	932.3824	0.161622	-385.827495	-385.820968	-385.820024	-385.858045	28.003	
C	-0.0324270552	 1.444622422	-0.0220126091	-0.352411
C	 1.285382401	 0.6923968989	-0.0120607073	-0.354182
C	-0.0177037297	-0.0477399436	 0.0145463245	 0.487359
C	-0.5106834864	-0.9475733454	 1.1449031571	-0.197792
C	 0.320204283	-2.2340582591	 0.8853271469	-0.248708
C	-0.5269193036	-2.3392704134	-0.3949443798	-0.078479
C	-1.7057210246	-1.6339241523	 0.3072472883	 0.114094
O	-2.0156597182	-0.8256278075	-0.8305958847	-0.292426
C	-0.5798576932	-0.9196189632	-1.1000446813	-0.029372
H	-0.3195737467	 1.9761685073	 0.8794088779	 0.112751
H	-0.3400717362	 1.93286929	-0.9411587568	 0.11536
H	 1.8707950492	 0.679753369	-0.9263328748	 0.110958
H	 1.8831384218	 0.7163746047	 0.893766902	 0.111867
H	-0.6413379057	-0.5226071729	 2.1387068391	 0.067252
H	 1.4047485063	-2.1240660147	 0.8092321151	 0.099673
H	 0.0748632927	-3.0466190305	 1.5757736336	 0.097351
H	-0.6294849379	-3.228556604	-1.0141578203	 0.076739
H	-2.5528945038	-2.0934476775	 0.8140486269	 0.084283
H	-0.308685003	-0.7344909479	-2.1389954973	 0.075684
164.2992	244.2435	275.1348	408.5449	456.3689	547.8738	589.6049	717.7029	748.7818	770.2948	793.8279	834.7782	852.6947	855.7868	915.0334	932.9389	940.9993	960.0928	973.3506	983.9606	1006.8861	1030.5337	1040.6598	1057.8971	1074.6522	1079.09	1114.1298	1159.4352	1181.6527	1188.4818	1204.0373	1217.9835	1229.8307	1245.4095	1273.4529	1307.005	1320.4865	1412.4069	1469.1095	1495.6239	1514.2924	3054.4705	3110.1243	3121.4737	3124.9739	3127.0745	3128.3151	3133.0807	3142.5417	3198.5194	3213.9669
C1CC11C2CC3C2OC13	C1CC21[C@@H]1C[C@H]3[C@@H]1O[C@@H]23	
InChI=1S/C8H10O/c1-2-8(1)5-3-4-6(5)9-7(4)8/h4-7H,1-3H2	InChI=1S/C8H10O/c1-2-8(1)5-3-4-6(5)9-7(4)8/h4-7H,1-3H2/t4-,5+,6-,7+/m0/s1
