20
gdb 112440	2.69089	1.24408	0.93758	2.863	77.15	-0.2553	0.0298	0.2852	1289.4981	0.170502	-440.302421	-440.293115	-440.292171	-440.336803	34.096	
C	 0.2112838009	 1.6034476615	 0.3468632196	-0.241588
O	 0.5600883311	 0.2896375048	-0.0342694832	-0.246476
C	 0.6010932012	-0.6225225867	 1.0333801406	 0.111266
C	-0.7587910902	-1.0593826361	 1.6041172696	-0.341348
C	-0.4839416061	-2.4696488556	 2.0716395744	 0.415771
N	-1.1764374988	-3.1231440164	 2.8996863515	-0.543369
O	 0.6512204757	-2.938762401	 1.468036347	-0.248384
C	 1.2059037853	-1.9646168159	 0.5584642973	 0.071599
C	 0.8799349662	-2.3349995425	-0.8824932028	-0.385808
H	 0.9029273543	 2.0005681956	 1.105667736	 0.110214
H	 0.2739589042	 2.224760726	-0.5492193825	 0.132819
H	-0.8113098837	 1.6608376953	 0.7462764234	 0.11521
H	 1.2244015006	-0.2178606326	 1.8471318695	 0.079459
H	-1.1419391348	-0.4462890382	 2.4194408391	 0.1344
H	-1.5079146381	-1.0716579705	 0.8040143355	 0.137531
H	-0.7795766547	-4.0548080918	 3.0372717161	 0.220344
H	 2.288821568	-1.9844565132	 0.7105646814	 0.094267
H	-0.1987719313	-2.3291894368	-1.063360288	 0.123313
H	 1.3436274214	-1.6216966588	-1.5672681181	 0.135998
H	 1.2606495188	-3.3369143269	-1.0973609064	 0.124783
88.9063	98.2627	107.0585	179.2911	207.85	219.8942	303.6309	379.3351	413.7974	469.5431	500.3114	535.6445	639.2431	697.459	811.3343	848.9203	896.1695	927.8156	974.9158	994.4575	1030.0881	1071.1778	1090.2966	1119.671	1147.8006	1174.1287	1176.7446	1187.3204	1231.87	1260.7053	1286.509	1339.0708	1374.577	1387.9008	1397.4914	1411.2234	1472.3337	1481.8106	1487.3368	1490.138	1492.8895	1509.4288	1779.153	2969.6267	2982.8406	3034.0881	3050.3908	3056.3373	3067.9106	3120.9136	3124.0704	3137.0531	3138.4331	3466.5309
COC1CC(=N)OC1C	CO[C@H]1C[C]([NH])O[C@H]1C	
InChI=1S/C6H11NO2/c1-4-5(8-2)3-6(7)9-4/h4-5,7H,3H2,1-2H3	InChI=1S/C6H11NO2/c1-4-5(8-2)3-6(7)9-4/h4-5,7H,3H2,1-2H3/t4-,5-/m0/s1
