15
gdb 44730	2.44724	1.72094	1.19632	6.504	69.47	-0.2616	0.0066	0.2681	1009.5753	0.114105	-416.823377	-416.815913	-416.814968	-416.855811	27.92	
O	-0.1292843746	 0.0328545018	 0.0281764625	-0.340379
C	-0.0568800729	 1.2261243061	-0.0312823293	 0.436999
N	-1.0108916547	 2.226928632	-0.1156122276	-0.321085
C	-0.0677580143	 3.3395909331	-0.0419371987	 0.021736
C	 0.307465905	 3.7976419356	 1.3953693017	-0.257533
C	 1.4946574096	 2.7707107833	 1.4061210343	-0.157185
C	 1.5466703351	 1.8026767903	 2.4897131319	 0.290407
N	 1.5791368338	 1.0580234273	 3.3732831815	-0.322927
C	 1.0800813099	 2.2780094834	-0.0252550869	-0.214959
H	-1.9980694924	 2.1899755018	 0.1006973005	 0.255006
H	-0.1806560583	 4.0980514209	-0.8161813729	 0.101002
H	 0.6498427733	 4.831409099	 1.4656360431	 0.125958
H	-0.4659409912	 3.6238029732	 2.1442861831	 0.130584
H	 2.4554059659	 3.2889504336	 1.3619784205	 0.138164
H	 1.8635559158	 2.1892506585	-0.7737976738	 0.114212
74.3804	105.2995	201.2511	265.6887	379.5388	454.6514	463.8757	528.1651	554.0163	631.1416	719.4678	772.1433	812.1508	871.6064	875.2001	928.3618	1001.0549	1009.9525	1037.8436	1077.4054	1121.2836	1139.7223	1164.0416	1172.7789	1229.2559	1268.062	1275.7141	1329.6655	1346.2342	1368.0548	1474.6409	1904.7103	2357.3969	3081.4553	3085.6964	3115.5861	3145.8795	3154.5409	3588.1924
O=C1NC2CC(C#N)C12	O=C1N[C@H]2C[C@@H](C#N)[C@@H]12	
InChI=1S/C6H6N2O/c7-2-3-1-4-5(3)6(9)8-4/h3-5H,1H2,(H,8,9)	InChI=1S/C6H6N2O/c7-2-3-1-4-5(3)6(9)8-4/h3-5H,1H2,(H,8,9)/t3-,4-,5+/m0/s1
