19
gdb 57060	2.14059	1.45593	1.19672	2.8274	74.72	-0.2606	0.0258	0.2864	1146.5671	0.159619	-419.1936	-419.184216	-419.183272	-419.227936	34.055	
C	-0.5521423727	 1.4378044509	-0.1884287697	-0.440216
C	-0.0235715867	 0.0156938369	-0.0627833314	-0.04555
C	 1.3736306608	-0.3390293994	-0.6212267821	-0.087613
O	 1.7387275541	-1.0043648859	 0.6149213053	-0.298077
C	 0.5421590434	-0.5426681469	 1.2715080464	 0.130498
C	 0.8887610405	 0.3809960509	 2.4511978472	-0.140374
N	 1.5014629877	-0.4500380512	 3.4911906429	-0.504428
C	 1.7575342645	 1.5100652416	 2.0529358939	 0.281019
N	 2.4632951397	 2.3900787167	 1.7972033863	-0.346463
H	 0.1772936728	 2.1837520026	 0.1347399172	 0.153509
H	-0.805246724	 1.651717807	-1.2322651022	 0.124454
H	-1.4665531523	 1.5724648671	 0.3997343852	 0.1198
H	-0.7749831839	-0.6820068864	-0.4430101889	 0.092865
H	 1.4079492401	-1.024315617	-1.4743166575	 0.108522
H	 2.0210159973	 0.5237371917	-0.8176441646	 0.123156
H	-0.0205852746	-1.3764195152	 1.7078744532	 0.099641
H	-0.0450231367	 0.8007042379	 2.8462947999	 0.128952
H	 2.3325969879	-0.8878349257	 3.1002627375	 0.255634
H	 1.8111187623	 0.1269878944	 4.2673542413	 0.244671
70.4884	100.1486	142.6273	176.8982	220.1727	241.8434	266.1601	328.6227	368.7471	396.7207	482.1746	604.0288	656.8545	744.6517	780.07	872.1454	891.046	930.6256	945.1333	979.1768	1004.5156	1029.0067	1107.3756	1124.8144	1142.3187	1164.5662	1168.2793	1200.9834	1281.5792	1285.4296	1316.2003	1350.4944	1380.2213	1381.9333	1394.7404	1420.5842	1498.8023	1508.0482	1526.0619	1658.4617	2341.5942	3029.0994	3034.8155	3037.5182	3041.6984	3062.7455	3085.2284	3095.2503	3132.5181	3489.637	3571.5925
CC1COC1C(N)C#N	C[C@H]1CO[C@H]1[C@@H](N)C#N	
InChI=1S/C6H10N2O/c1-4-3-9-6(4)5(8)2-7/h4-6H,3,8H2,1H3	InChI=1S/C6H10N2O/c1-4-3-9-6(4)5(8)2-7/h4-6H,3,8H2,1H3/t4-,5-,6+/m0/s1
