13
gdb 128624	7.23078	0.93317	0.83088	2.0564	69.97	-0.2604	-0.0392	0.2212	1301.4757	0.088106	-452.702158	-452.694114	-452.69317	-452.73516	28.353	
C	 0.0085348305	 1.3923053213	-0.0318682681	-0.256682
O	 0.0185281686	-0.0460270283	-0.0285470753	-0.254106
C	 0.5964553178	-0.6487671167	-1.0416707453	 0.504247
N	 0.6988479104	-1.9330793426	-1.2039030622	-0.396891
C	 1.3767756152	-1.9945746717	-2.4014492266	 0.218728
N	 1.6757407836	-0.8337890144	-2.9481037694	-0.191233
O	 1.1434896662	 0.086398311	-2.0199683388	-0.211222
C	 1.7394318751	-3.2155027025	-3.0255974385	 0.275947
C	 2.0432191743	-4.2535101644	-3.5482118975	-0.361493
H	 1.0288421658	 1.7838817599	-0.026962269	 0.154806
H	-0.5265629256	 1.7710350157	-0.906293747	 0.154805
H	-0.5105341207	 1.6762488652	 0.882135283	 0.156374
H	 2.3121203586	-5.1714335425	-4.0108141753	 0.206719
79.4908	136.7531	141.4244	170.1131	247.1049	313.692	446.9031	464.6908	563.4356	621.1124	646.7293	680.8038	729.1935	733.7354	784.7294	918.6646	1000.7775	1014.2373	1118.4062	1177.6158	1202.266	1343.9602	1381.0756	1474.1181	1487.9877	1495.4711	1521.9601	1663.5309	2255.3863	3053.0664	3131.6255	3173.1289	3501.0627
COC1=NC(=NO1)C#C	COc1nc(no1)C#C	
InChI=1S/C5H4N2O2/c1-3-4-6-5(8-2)9-7-4/h1H,2H3	InChI=1S/C5H4N2O2/c1-3-4-6-5(8-2)9-7-4/h1H,2H3
