23
gdb 111498	2.33559	1.43551	1.07594	1.3987	84.25	-0.224	0.0791	0.3031	1242.2569	0.206255	-388.285182	-388.276048	-388.275104	-388.318877	35.583	
C	 1.8163182983	-0.012443885	 1.13365705	-0.389511
C	 0.8080728854	 0.4285635693	 0.0679069913	-0.17835
C	 0.9702589294	-0.330014472	-1.2570658868	-0.019244
C	 0.7255969235	-1.8340643492	-1.189153158	-0.073235
C	-0.7055777758	-2.3326199622	-1.0443965734	-0.332736
C	-0.0710616036	-2.1806644495	-2.4043955292	 0.108494
O	-0.3563665729	-1.032336613	-3.1533343655	-0.274375
C	 0.0522895644	 0.1469065813	-2.4351943938	 0.096999
C	-1.1801161486	 0.9756211793	-2.0698834195	-0.394755
H	 1.6878962595	-1.0688837366	 1.3900076818	 0.121755
H	 2.8466952817	 0.1221889728	 0.7849257029	 0.112347
H	 1.6980054422	 0.5693239833	 2.052956613	 0.111453
H	-0.2089888497	 0.291095881	 0.4517632742	 0.097888
H	 0.9264497521	 1.5040463612	-0.1141428563	 0.094604
H	 2.0111652671	-0.1990660656	-1.5816452551	 0.074562
H	 1.5307431436	-2.4697482048	-0.8398571252	 0.088693
H	-0.8358843934	-3.3396952762	-0.6612871552	 0.109845
H	-1.489961292	-1.6415944449	-0.7574888769	 0.115372
H	 0.118989536	-3.0447495731	-3.0312254913	 0.095683
H	 0.6491634108	 0.7414359846	-3.1387673517	 0.080609
H	-1.828035811	 0.4704401347	-1.3489749152	 0.118333
H	-0.8921430707	 1.9455697667	-1.6526470005	 0.112189
H	-1.7650748462	 1.1566070879	-2.9758554395	 0.123379
79.4952	110.2883	181.3385	201.1825	249.3749	258.8794	305.0268	376.3534	428.7848	453.3446	491.6525	666.6701	725.0329	725.6581	781.5433	802.9922	829.6387	891.5734	912.0524	954.1606	982.8735	993.458	1039.9179	1044.1783	1057.9907	1065.3655	1086.1682	1106.6286	1114.2697	1150.5219	1169.7532	1176.9202	1210.0474	1286.53	1296.8048	1317.1811	1345.7683	1366.1906	1385.2614	1391.1006	1397.8799	1410.6636	1414.5445	1479.8762	1482.537	1495.2345	1499.866	1500.6602	1508.0917	2999.8409	3020.8262	3025.7448	3031.1944	3046.6499	3064.6114	3098.585	3106.5286	3115.3431	3125.1718	3133.1605	3167.727	3177.4306	3221.2454
CCC1C2CC2OC1C	CC[C@H]1[C@H]2C[C@H]2O[C@H]1C	
InChI=1S/C8H14O/c1-3-6-5(2)9-8-4-7(6)8/h5-8H,3-4H2,1-2H3	InChI=1S/C8H14O/c1-3-6-5(2)9-8-4-7(6)8/h5-8H,3-4H2,1-2H3/t5-,6+,7+,8+/m0/s1
