12
gdb 7037	6.94377	1.07627	0.94012	7.7406	55.73	-0.2613	-0.0447	0.2167	1121.8489	0.082523	-451.861785	-451.853661	-451.852717	-451.895625	26.643	
O	-0.5060160414	 0.2028671852	 0.3486483384	-0.242882
C	-0.1566244407	 1.3090177381	 0.0529416419	 0.172533
N	 1.1571567337	 1.7582275504	-0.0813980359	-0.401305
C	 2.3234227621	 0.965758426	-0.015064897	 0.54395
O	 2.3396195596	-0.2278875242	-0.0215096053	-0.288084
N	 3.4677685193	 1.788817136	 0.0599849801	-0.401304
C	 4.7932368053	 1.3768853963	-0.0789542891	 0.172532
O	 5.1724737244	 0.2838544916	-0.3864417768	-0.242881
H	-0.8591638492	 2.1447142671	-0.1422083306	 0.090284
H	 1.2573887588	 2.7315248182	-0.3295161901	 0.253437
H	 3.3411984171	 2.7563121403	 0.3185390482	 0.253437
H	 5.472868321	 2.229196255	 0.1252538562	 0.090284
52.3012	54.8761	144.923	205.2214	232.7272	245.3717	345.9908	503.9765	521.6448	567.4278	722.8809	756.8557	870.9359	985.5042	1025.5126	1028.6795	1070.2166	1140.797	1186.3872	1444.0223	1448.9039	1497.0293	1509.9258	1821.789	1853.2564	1912.3345	2926.4545	2928.0843	3604.601	3614.8327
O=CNC(=O)NC=O	O=CNC(=O)NC=O	
InChI=1S/C3H4N2O3/c6-1-4-3(8)5-2-7/h1-2H,(H2,4,5,6,7,8)	InChI=1S/C3H4N2O3/c6-1-4-3(8)5-2-7/h1-2H,(H2,4,5,6,7,8)
