17
gdb 51698	5.15235	0.819	0.73246	2.708	73.35	-0.2677	0.0106	0.2784	1488.2453	0.13654	-455.157723	-455.149211	-455.148267	-455.192399	30.309	
N	 0.0263852372	 1.2247615957	-0.0854528455	-0.435216
C	-0.0148955072	-0.0308822744	-0.1774756596	 0.120176
O	-0.8976954275	-0.7299773344	 0.5698713473	-0.189355
C	-0.9911323919	-2.1282666769	 0.3481773455	 0.089845
C	-1.3373766998	-2.8281238121	 1.6714109498	-0.111388
O	-2.0578752454	-4.0069028366	 1.2992080293	-0.23757
C	-2.5663340794	-3.8866941772	 0.0295620974	 0.418296
N	-3.2523236392	-4.7682253269	-0.5525519695	-0.534137
C	-2.1635755487	-2.5472487515	-0.5458078514	-0.327936
H	 0.7536504504	 1.5963636932	-0.6926437625	 0.234459
H	 0.6171377869	-0.665734875	-0.8139672154	 0.091501
H	-0.0419894483	-2.5089909026	-0.0488582102	 0.101087
H	-0.464190633	-3.1274862417	 2.2543915853	 0.127145
H	-1.9687995839	-2.170536741	 2.2803552637	 0.134314
H	-3.3973788851	-5.5737318476	 0.0590177312	 0.226103
H	-2.9814840629	-1.8289668852	-0.4191282842	 0.152709
H	-1.9338148623	-2.6201707359	-1.6086465311	 0.139968
36.3184	79.3417	107.55	152.7451	245.7021	335.6281	381.7533	479.3891	505.6661	558.0697	662.3631	718.6858	819.4746	852.0126	896.2582	902.2048	922.7407	1007.9386	1019.6709	1041.7379	1076.8804	1102.3426	1116.1027	1152.1486	1185.3773	1239.2166	1266.7783	1279.9964	1292.1638	1339.286	1374.024	1410.1527	1434.8889	1472.1187	1521.3689	1749.4725	1788.2205	3018.9721	3032.4547	3045.0389	3060.547	3116.077	3140.0172	3472.3237	3522.868
N=COC1COC(=N)C1	[NH][CH]O[C@H]1CO[C]([NH])C1	
InChI=1S/C5H8N2O2/c6-3-9-4-1-5(7)8-2-4/h3-4,6-7H,1-2H2	InChI=1S/C5H8N2O2/c6-3-9-4-1-5(7)8-2-4/h3-4,6-7H,1-2H2/t4-/m1/s1
