27
gdb 117976	2.51674	0.84779	0.76501	1.3326	92.12	-0.2613	0.0742	0.3355	1685.8492	0.248969	-390.697119	-390.685027	-390.684083	-390.734264	44.946	
C	-0.0060512016	 1.6268247579	-0.1075810968	-0.418496
C	-0.0137210541	 0.0986381525	 0.084289834	 0.035544
C	 0.7828984321	-0.2750021408	 1.3540516614	-0.185523
C	 2.2954521848	-0.2290823716	 1.1627148656	-0.082293
O	 2.8971450264	-0.5743681264	 2.403103647	-0.422505
C	-1.4495715903	-0.5295741401	 0.0480156663	 0.263105
C	-2.2209059511	-0.0177219339	-1.1857469015	-0.412424
C	-1.3396203886	-2.0630823284	-0.0824840628	-0.412196
C	-2.2566204387	-0.1888095065	 1.3158712447	-0.407717
H	 1.0109230372	 2.0228428295	-0.0297078445	 0.110934
H	-0.3913751317	 1.9230066421	-1.0859707431	 0.114671
H	-0.6062809154	 2.1309817701	 0.6578258947	 0.116635
H	 0.5163360039	-0.33630271	-0.7769923195	 0.060516
H	 0.5216048743	 0.4003673196	 2.1773751349	 0.103021
H	 0.5381582484	-1.2849366186	 1.6951811853	 0.104534
H	 2.5866651233	-0.9378499225	 0.3695563085	 0.08273
H	 2.617812623	 0.7719136238	 0.8364160379	 0.084852
H	 3.8516946689	-0.5324966277	 2.2954146045	 0.283765
H	-1.6461943118	-0.1705797789	-2.1067061986	 0.105028
H	-3.1670031617	-0.5591123028	-1.2929910219	 0.105684
H	-2.4606586974	 1.0464106748	-1.1112006632	 0.111816
H	-0.828672319	-2.5218902473	 0.7684415289	 0.114509
H	-2.3360459842	-2.5142079735	-0.1432507718	 0.10711
H	-0.7942415107	-2.342506977	-0.9912307228	 0.105583
H	-2.3605955562	 0.8921852607	 1.4538967587	 0.109721
H	-3.2667340734	-0.6071693918	 1.2473372392	 0.106379
H	-1.7919689463	-0.5993374331	 2.2172436348	 0.115017
57.5196	63.9877	93.7378	167.0259	198.5308	220.435	247.9292	266.3726	277.0618	298.2677	299.4731	315.8666	372.47	377.9988	395.5138	452.5767	500.7173	535.512	726.0161	790.8563	854.2762	925.0887	929.1821	934.9158	957.0808	974.5128	1006.5055	1015.3831	1037.3874	1060.3819	1089.5597	1123.0374	1173.8739	1203.6059	1235.2633	1243.0102	1255.0181	1269.5202	1313.1886	1322.745	1358.0073	1375.674	1397.2886	1401.4093	1414.8843	1434.6288	1460.0731	1478.5554	1483.7794	1486.3078	1492.5859	1500.2496	1508.525	1509.9243	1513.2911	1523.4032	1528.0905	2959.3668	2980.5088	2991.9458	3024.3247	3028.1647	3034.8483	3038.6939	3043.9138	3086.6016	3088.9447	3091.31	3096.5887	3099.6503	3104.5154	3108.0322	3110.1606	3119.4863	3829.7041
CC(CCO)C(C)(C)C	C[C@@H](CCO)C(C)(C)C	
InChI=1S/C8H18O/c1-7(5-6-9)8(2,3)4/h7,9H,5-6H2,1-4H3	InChI=1S/C8H18O/c1-7(5-6-9)8(2,3)4/h7,9H,5-6H2,1-4H3/t7-/m0/s1
