19
gdb 65310	2.88076	1.20746	1.06311	2.7469	77.14	-0.2535	-0.0362	0.2173	1212.4664	0.156511	-423.015057	-423.005879	-423.004934	-423.049297	33.667	
C	-0.0818717361	 1.5787483934	 0.1171220744	-0.472058
C	-0.0635205534	 0.0729852807	 0.098819448	 0.150263
O	 1.1692702588	-0.5765332564	-0.2966542742	-0.311294
C	 0.763923334	-0.7240829036	 1.0416161057	 0.414834
C	 1.541841427	-0.2173358389	 2.2618362428	-0.310651
C	 0.9509869926	-1.4157006544	 3.0643643238	-0.214687
C	 0.4732107004	-2.0649846466	 1.7312676547	-0.318495
C	-1.2691812431	-0.6071916135	-0.4742861323	 0.125766
O	-2.3292180718	-0.0626636013	-0.6551525224	-0.254432
H	 0.8208039105	 1.9752126941	 0.5848498728	 0.128085
H	-0.1467970988	 1.9695610741	-0.9026468919	 0.139534
H	-0.960179797	 1.9347549927	 0.6624340376	 0.141873
H	 2.6205123831	-0.30234237	 2.101312399	 0.122175
H	 1.3183740742	 0.7895205077	 2.6213602263	 0.11289
H	 1.6571790474	-1.9952221676	 3.6602030569	 0.110869
H	 0.1171874878	-1.1161182328	 3.7026158625	 0.114223
H	-0.5469816136	-2.4522633954	 1.6971500964	 0.114406
H	 1.1556127345	-2.840602834	 1.3712878072	 0.121548
H	-1.0977264065	-1.6748830983	-0.7309448172	 0.085154
69.6627	96.5739	140.2437	160.4531	204.1832	260.9465	279.49	415.8061	449.2154	455.8983	509.4216	579.1117	707.0473	756.5056	778.1717	829.0157	893.2304	918.5084	931.6072	976.8138	997.0963	1030.259	1077.2039	1112.0136	1128.0726	1144.6648	1203.8799	1235.149	1244.8823	1258.7935	1275.2297	1286.6455	1392.5467	1409.5289	1454.3178	1466.8173	1479.0706	1480.6855	1493.9404	1510.5288	1820.0471	2904.2805	3052.9594	3060.4572	3064.024	3078.8736	3110.7899	3116.2043	3119.3429	3137.1906	3143.192
CC1(OC11CCC1)C=O	C[C@]1(OC21CCC2)C=O	
InChI=1S/C7H10O2/c1-6(5-8)7(9-6)3-2-4-7/h5H,2-4H2,1H3	InChI=1S/C7H10O2/c1-6(5-8)7(9-6)3-2-4-7/h5H,2-4H2,1H3/t6-/m0/s1
