19
gdb 30734	3.09854	1.22166	0.90135	1.0631	81.24	-0.1641	0.0529	0.2171	1306.1088	0.159167	-419.226451	-419.216586	-419.215642	-419.261274	35.762	
C	-0.1249614283	 1.4239994511	-0.1734339102	-0.328772
N	-0.0836545845	 0.0875226864	 0.4156041288	-0.388809
C	-1.1773198057	-0.7433460011	 0.2363023221	 0.341687
C	-1.2847245693	-2.0945708209	 0.0521493261	 0.103524
C	-0.1914552681	-3.0994608965	-0.1314685463	-0.530703
C	-2.7051379144	-2.35733779	 0.0423913629	 0.148552
N	-3.2655974665	-3.6213741729	-0.205980704	-0.607276
C	-3.3333119946	-1.1638516958	 0.20578273	-0.126775
O	-2.3897492063	-0.1561307742	 0.3206806455	-0.191442
H	 0.7888858796	 1.9556220517	 0.1023092173	 0.121092
H	-0.2168328697	 1.4203991899	-1.2703186838	 0.112579
H	-0.9751548353	 1.9720273009	 0.2365669504	 0.151319
H	 0.7798357132	-0.4017037859	 0.2270516261	 0.237865
H	 0.0560741731	-3.6441987906	 0.7902147732	 0.119682
H	-0.4732218198	-3.8461366888	-0.8826823028	 0.13429
H	 0.7356043092	-2.6292713474	-0.4798625426	 0.109358
H	-2.817648737	-4.3536180245	 0.3320374495	 0.241403
H	-4.2609566471	-3.6466720894	-0.0239822621	 0.23984
H	-4.3616437884	-0.8491894818	 0.2276565097	 0.112585
54.1018	125.7057	127.9929	176.0707	203.2458	233.9182	241.8416	290.967	333.2535	383.2278	521.4948	548.662	569.0536	631.2445	652.4091	707.5864	733.9166	769.723	791.1426	926.7612	1050.253	1061.5226	1080.7337	1097.7207	1150.136	1163.5532	1189.8475	1212.4213	1292.4277	1365.8884	1418.5509	1444.6527	1461.6957	1480.3325	1488.1734	1497.8896	1506.6849	1518.2613	1628.4713	1658.318	1696.186	2986.8949	3002.8253	3053.2341	3082.9288	3094.1508	3138.1208	3289.4274	3524.3343	3594.2667	3613.8809
CNC1=C(C)C(N)=CO1	CNc1c(C)c(N)co1	
InChI=1S/C6H10N2O/c1-4-5(7)3-9-6(4)8-2/h3,8H,7H2,1-2H3	InChI=1S/C6H10N2O/c1-4-5(7)3-9-6(4)8-2/h3,8H,7H2,1-2H3
