16
gdb 15796	3.31883	1.40311	1.09627	4.098	62.4	-0.2751	0.0022	0.2773	1070.5204	0.128058	-420.873587	-420.865091	-420.864147	-420.907952	29.11	
C	 0.4258282826	 1.5801344058	 0.0463344169	-0.392086
C	 0.0866639944	 0.0978751144	-0.0829124171	 0.067788
O	 0.6986259226	-0.4166007346	-1.2771368017	-0.184989
C	-0.0959694895	-0.7553936958	-2.3099277853	 0.1713
O	 0.3287230711	-1.1859529469	-3.3387445141	-0.273141
C	 0.5732571688	-0.6932909045	 1.116749451	 0.084396
C	 1.2997405022	-1.9632418363	 1.0143169643	-0.176938
O	 1.9794440375	-0.7413683855	 1.3246459339	-0.229742
H	 1.5096970461	 1.7036508334	 0.1050279672	 0.157629
H	 0.0499939323	 2.1392384087	-0.8144808563	 0.126489
H	-0.0232814426	 1.9960254388	 0.953457356	 0.124613
H	-1.0026294803	-0.036300387	-0.1546183826	 0.088764
H	-1.1711684012	-0.5924186518	-2.0962487412	 0.078455
H	-0.0093111078	-0.4981041275	 2.0197842082	 0.099233
H	 1.2357045721	-2.6814102318	 1.8303170891	 0.118042
H	 1.5208642119	-2.3741129993	 0.0332438119	 0.140186
32.1536	75.5427	140.2642	196.4127	228.8533	237.6239	327.4437	383.5575	492.1718	572.7064	681.6508	786.2471	871.8239	917.8064	961.1036	999.6818	1041.6609	1049.3454	1088.4986	1132.3302	1141.4155	1171.8642	1180.0869	1201.9285	1295.8837	1339.9062	1378.0142	1406.0962	1433.1937	1438.2668	1485.7634	1497.5858	1524.8246	1867.2453	2938.6431	3001.3019	3048.0002	3087.1774	3099.5482	3121.1645	3139.158	3196.9708
CC(OC=O)C1CO1	C[C@@H](OC=O)[C@H]1CO1	
InChI=1S/C5H8O3/c1-4(8-3-6)5-2-7-5/h3-5H,2H2,1H3	InChI=1S/C5H8O3/c1-4(8-3-6)5-2-7-5/h3-5H,2H2,1H3/t4-,5-/m1/s1
