17
gdb 9524	2.79468	1.83621	1.5386	2.8779	63.7	-0.2431	0.0073	0.2504	914.2378	0.142064	-401.021617	-401.013236	-401.012292	-401.054369	30.417	
C	-0.0949598291	 1.5993837855	-0.0196631528	-0.407017
C	 0.1016329353	 0.0790629165	 0.0233150451	-0.215063
C	 0.7740588284	-0.4973070573	-1.2284178381	 0.110463
N	 2.1273483797	 0.0047765877	-1.3751692681	-0.555584
C	 0.6385613922	-2.0298752294	-1.3909323897	-0.111583
O	-0.2785160051	-1.850616135	-2.5169961769	-0.246149
C	-0.1541411965	-0.4826766052	-2.4730084533	 0.416037
O	-0.6334288407	 0.314345339	-3.2161442336	-0.334698
H	 0.8601515336	 2.134466158	 0.0002536553	 0.119561
H	-0.6385790849	 1.901285669	-0.919474573	 0.149981
H	-0.6650250815	 1.9337552563	 0.8517388741	 0.122125
H	 0.7139711445	-0.2008404607	 0.8885326042	 0.113378
H	-0.8724541293	-0.4087446142	 0.1454377118	 0.110027
H	 2.5366971423	-0.3100809673	-2.2504261874	 0.237368
H	 2.1218276773	 1.0192936731	-1.4126532382	 0.244069
H	 1.5491384692	-2.5436150845	-1.7075366829	 0.122286
H	 0.1545411447	-2.5697675616	-0.5747305466	 0.124798
97.2345	117.811	158.7749	233.4735	243.8738	273.1825	316.8142	373.6014	420.1703	562.8024	702.0465	737.0698	771.6976	804.6509	848.9685	926.2362	954.7076	965.9305	1006.2544	1063.6942	1070.5081	1104.2681	1153.4604	1168.2309	1252.9241	1308.5834	1311.1896	1360.9537	1394.3875	1416.0993	1478.9552	1501.9195	1510.5432	1516.2731	1664.1792	1920.8665	3031.6659	3041.1883	3069.0181	3071.4286	3106.1991	3122.7838	3131.9455	3496.8839	3575.4176
CCC1(N)COC1=O	CC[C@@]1(N)COC1=O	
InChI=1S/C5H9NO2/c1-2-5(6)3-8-4(5)7/h2-3,6H2,1H3	InChI=1S/C5H9NO2/c1-2-5(6)3-8-4(5)7/h2-3,6H2,1H3/t5-/m1/s1
