21
gdb 41778	2.85146	1.54955	1.12983	1.6062	83.08	-0.2382	0.008	0.2462	1121.9636	0.185338	-387.073553	-387.065796	-387.064851	-387.105612	31.15	
C	 0.0861593421	 1.6068127724	 0.2585450732	-0.243497
C	 1.5234578539	 1.5793202668	-0.3271949372	-0.23262
C	 1.2531651868	 0.1380473544	-0.8599587847	-0.025815
C	 2.3376214878	-0.8819572125	-0.6764817402	-0.053749
C	 2.1416768964	-2.1234349205	-0.2321298494	-0.099996
C	 0.7662621643	-2.6691763235	 0.0910947208	-0.111327
O	 0.1473180113	-2.1133068958	 1.2481530268	-0.262389
C	 0.1979697477	-0.7006955929	 1.3650579609	-0.057353
C	-0.0163014517	 0.0676982458	 0.0629952811	-0.043558
H	-0.0215751074	 1.9749918292	 1.2831311026	 0.098564
H	-0.615507186	 2.1530220304	-0.3767226175	 0.102942
H	 1.7760618893	 2.340501634	-1.0689715166	 0.098555
H	 2.2914598862	 1.5899231634	 0.4513337714	 0.105091
H	 0.956374626	 0.1874431856	-1.9157460329	 0.083214
H	 3.3491751437	-0.5472211008	-0.904374611	 0.087273
H	 2.9910030449	-2.7863946622	-0.0919856862	 0.089816
H	 0.1074669541	-2.5365114099	-0.7813521486	 0.094239
H	 0.8187379594	-3.7431452526	 0.2889961626	 0.105783
H	-0.5941525307	-0.4426142967	 2.0776387628	 0.102766
H	 1.1533781544	-0.3889961129	 1.8160682354	 0.087423
H	-0.9304781226	-0.2859145016	-0.4224392035	 0.074636
104.7662	176.325	228.9481	275.3838	301.6396	331.983	396.6253	509.481	571.5238	657.8001	720.0565	731.5569	781.2665	832.2233	879.9628	913.8688	951.667	961.4714	968.5699	991.1672	1001.0463	1025.7391	1050.1169	1078.149	1117.4752	1141.372	1149.2839	1211.6984	1224.3602	1249.6062	1259.4315	1265.6808	1280.2015	1290.2907	1308.6765	1339.5964	1347.0555	1392.9722	1414.4804	1425.813	1481.7387	1497.2227	1505.2615	1508.1018	1710.1808	2973.822	2980.5888	3012.8504	3050.7559	3051.2452	3060.0057	3067.544	3084.959	3097.5965	3116.8766	3128.0334	3167.9678
C1CC2C=CCOCC12	C1C[C@H]2C=CCOC[C@@H]12	
InChI=1S/C8H12O/c1-2-7-3-4-8(7)6-9-5-1/h1-2,7-8H,3-6H2	InChI=1S/C8H12O/c1-2-7-3-4-8(7)6-9-5-1/h1-2,7-8H,3-6H2/t7-,8-/m1/s1
