23
gdb 64360	1.86531	1.76985	1.47201	1.9805	80.38	-0.241	0.0661	0.3072	1098.176	0.203962	-425.443336	-425.433357	-425.432413	-425.477074	39.074	
C	 0.3651243451	 1.5153733652	-0.31459689	-0.454393
C	-0.0517078563	 0.078047461	 0.0114575114	 0.374845
O	-1.456032239	 0.0147791912	 0.2348570541	-0.480787
C	 0.437277131	-0.8983544268	-1.0916761112	-0.3058
C	 1.7865245626	-1.4207336066	-0.5533073031	-0.076856
O	 1.9566686376	-0.8608336216	 0.7491278418	-0.295377
C	 0.673703224	-0.4963330491	 1.2701409939	 0.354049
C	 0.9087341187	 0.5087673785	 2.3936431951	-0.441308
C	-0.0574799862	-1.7311173273	 1.8246122217	-0.422516
H	 1.4515634499	 1.5995852536	-0.4078763924	 0.133297
H	-0.0745314901	 1.8223717966	-1.2716713576	 0.10029
H	 0.0236364381	 2.2115796592	 0.4551709889	 0.124329
H	-1.8934664793	 0.4811268266	-0.4843882424	 0.276902
H	-0.2943127486	-1.7016801988	-1.2034270729	 0.111055
H	 0.5403805889	-0.4036736476	-2.0612870747	 0.094704
H	 1.8026740283	-2.5183674617	-0.5073848404	 0.095364
H	 2.6403506704	-1.1015043554	-1.1593884744	 0.102622
H	 1.5620954606	 1.321297982	 2.0707028544	 0.118384
H	-0.0443885013	 0.9286464468	 2.7288658643	 0.122784
H	 1.3835879396	 0.0142322271	 3.2456989464	 0.117262
H	 0.562677239	-2.1930676042	 2.5981278192	 0.112107
H	-1.019139614	-1.4495342576	 2.2582305528	 0.129511
H	-0.2513346191	-2.4792887112	 1.0515571149	 0.109533
94.6299	140.0281	210.8452	236.5413	252.4266	268.9106	291.5471	304.3355	338.699	361.308	369.4124	420.8968	495.5288	512.4105	579.5868	658.3857	702.3446	803.7849	856.7188	891.2083	937.8191	950.208	974.2358	989.0797	995.4688	1007.3568	1060.3933	1109.8029	1161.2575	1189.1359	1197.9977	1214.5081	1234.4158	1245.5708	1283.5018	1292.406	1382.4677	1387.6905	1396.5915	1403.622	1415.8454	1476.6951	1480.5913	1491.3796	1496.0061	1501.6971	1503.9287	1518.8749	1530.9029	3003.3788	3026.7641	3045.9156	3050.7735	3059.807	3066.2827	3095.9187	3109.9751	3114.8109	3118.8927	3128.6145	3134.6115	3136.8937	3817.3949
CC1(O)CCOC1(C)C	C[C@@]1(O)CCOC1(C)C	
InChI=1S/C7H14O2/c1-6(2)7(3,8)4-5-9-6/h8H,4-5H2,1-3H3	InChI=1S/C7H14O2/c1-6(2)7(3,8)4-5-9-6/h8H,4-5H2,1-3H3/t7-/m1/s1
