16
gdb 36750	7.32399	0.58677	0.54702	3.2667	80.5	-0.239	0.0173	0.2563	1892.8476	0.122105	-396.901942	-396.891837	-396.890893	-396.93877	34.123	
C	 0.4205989348	-1.2553946366	 0.1744299153	-0.406822
C	 0.2892501786	-0.0693307136	 0.3099764962	 0.253579
C	 0.1299984651	 1.3714020341	 0.452849798	-0.265423
N	 0.8153281443	 2.0800961012	-0.6203243736	-0.316075
C	 0.8137035866	 3.43490571	-0.6843183926	 0.124084
N	 0.2934453198	 4.1477354113	 0.2397183612	-0.269808
C	 0.3504573213	 5.5923370394	 0.1545504246	-0.240465
C	 0.9861732142	 6.1591538309	-1.0502317738	 0.233166
N	 1.4936554005	 6.5473111211	-2.013866395	-0.318616
H	 0.532304962	-2.3064784913	 0.069802792	 0.205858
H	-0.9365388357	 1.6385217288	 0.4666760118	 0.147502
H	 0.5332049237	 1.7109944255	 1.4148925516	 0.156821
H	 1.0999975808	 1.5522572208	-1.4266576222	 0.261812
H	 1.3047678705	 3.8351124991	-1.5783758457	 0.124823
H	-0.6674576125	 5.9992106127	 0.216858081	 0.154749
H	 0.8820131559	 5.9893094367	 1.0297993912	 0.154814
23.2718	56.6493	84.5816	143.5108	183.7045	204.0689	215.2244	327.7579	344.1717	372.9893	439.3992	502.9707	592.2269	618.4099	679.8994	766.7646	896.211	955.0425	969.2653	1002.3755	1017.9539	1028.9024	1092.7193	1240.5555	1260.9636	1263.759	1342.7081	1373.504	1417.1805	1471.7371	1498.3828	1517.6658	1741.2458	2248.2913	2347.3629	3005.9385	3019.7085	3040.6435	3043.4221	3065.2352	3504.3479	3677.3474
C#CCNC=NCC#N	C#CCNC=NCC#N	
InChI=1S/C6H7N3/c1-2-4-8-6-9-5-3-7/h1,6H,4-5H2,(H,8,9)	InChI=1S/C6H7N3/c1-2-4-8-6-9-5-3-7/h1,6H,4-5H2,(H,8,9)
