14
gdb 8851	3.86492	1.34071	1.12922	3.6343	56.01	-0.2753	-0.0527	0.2226	1039.7383	0.104018	-456.843478	-456.83475	-456.833805	-456.877672	29.146	
C	-0.0716368618	 1.3410975927	 0.1166741491	-0.243973
O	-0.0162832813	-0.0800043291	-0.0891792095	-0.236031
C	 0.6893828321	-0.4801085631	-1.1662822008	 0.389263
O	 1.2477589693	 0.2474339911	-1.9357165395	-0.327342
C	 0.6750674228	-2.0206077317	-1.2330246671	-0.049041
O	 1.1379802132	-2.4999786467	-2.4455811117	-0.403692
C	 1.5040059288	-2.5598519303	-0.0700166458	 0.129455
O	 2.4639096814	-3.2593229239	-0.273349974	-0.247464
H	 0.9340640991	 1.7503735472	 0.2384002792	 0.147364
H	-0.5519055533	 1.829458866	-0.7343228952	 0.149695
H	-0.6583352876	 1.4867546907	 1.0231655186	 0.139483
H	-0.3676324826	-2.3276145063	-1.0502528308	 0.130049
H	 1.9734495131	-2.9543084153	-2.2523412711	 0.30149
H	 1.1801438667	-2.2663259012	 0.9451648485	 0.120744
53.2507	94.0923	108.5281	157.224	195.7308	297.866	314.6269	334.7883	415.8503	444.8918	640.7756	726.7888	774.4217	835.1169	929.2681	1008.2939	1026.9418	1173.8923	1178.8511	1204.8494	1219.8915	1227.3383	1341.7545	1388.3981	1426.3827	1472.2722	1481.9104	1496.8818	1810.7185	1859.8336	2973.154	2991.7429	3056.5678	3134.1993	3165.7758	3695.575
COC(=O)C(O)C=O	COC(=O)[C@@H](O)C=O	
InChI=1S/C4H6O4/c1-8-4(7)3(6)2-5/h2-3,6H,1H3	InChI=1S/C4H6O4/c1-8-4(7)3(6)2-5/h2-3,6H,1H3/t3-/m0/s1
