18
gdb 112367	2.193	1.44698	0.92015	1.7775	74.23	-0.2588	-0.0419	0.2169	1265.9025	0.146589	-439.13204	-439.123137	-439.122193	-439.166678	32.296	
C	-0.1457220909	 1.583483879	 0.0489765061	-0.393453
C	-0.1814048818	 0.0576573827	-0.0541591495	-0.177065
C	 0.7577600714	-0.489639701	-1.1277171164	-0.004339
O	 2.1292576826	-0.1888997811	-0.8269651589	-0.248475
C	 2.9258330251	-1.3066074066	-0.7889897953	 0.404768
N	 4.1595615133	-1.288294359	-0.5338840845	-0.527901
C	 2.1094285246	-2.5375240075	-1.0946954772	-0.43409
C	 0.6924150913	-2.015315549	-1.2567626704	 0.385109
O	-0.3126377782	-2.6470163647	-1.4423411688	-0.306373
H	 0.8633559618	 1.9345769204	 0.2814478725	 0.13621
H	-0.4566816691	 2.0501887967	-0.8920505992	 0.11929
H	-0.8187229639	 1.9351022245	 0.8360549439	 0.121118
H	 0.0870751017	-0.3945309112	 0.9083112054	 0.107479
H	-1.1877646679	-0.2969601047	-0.3023295696	 0.12846
H	 0.5145763092	-0.0397830873	-2.1009525017	 0.118299
H	 4.4762084954	-0.3318837861	-0.362958254	 0.22536
H	 2.4474331341	-3.0228544878	-2.0158650635	 0.172651
H	 2.1750260112	-3.2848000574	-0.299621619	 0.172951
53.4807	73.3154	102.6942	163.411	237.0745	302.0682	391.7633	400.4855	473.7313	540.2951	586.0307	590.0873	661.4719	770.8032	800.8201	867.9572	897.4177	925.3603	941.8515	985.4469	1049.0301	1078.1877	1116.0124	1124.2796	1159.0759	1174.6265	1240.8729	1280.5534	1283.134	1303.9724	1372.0242	1382.6667	1412.7749	1418.8541	1476.9845	1496.7489	1507.9887	1783.0314	1864.1326	3010.5201	3036.535	3040.5246	3070.4178	3081.71	3108.9386	3113.1026	3122.8417	3469.9919
CCC1OC(=N)CC1=O	CC[C@H]1O[C]([NH])CC1=O	
InChI=1S/C6H9NO2/c1-2-5-4(8)3-6(7)9-5/h5,7H,2-3H2,1H3	InChI=1S/C6H9NO2/c1-2-5-4(8)3-6(7)9-5/h5,7H,2-3H2,1H3/t5-/m1/s1
