21
gdb 38914	3.02293	1.64262	1.20161	0.1758	89.85	-0.2115	0.0224	0.2338	1081.0067	0.185772	-349.949302	-349.942042	-349.941098	-349.980591	30.56	
C	 0.0371898273	 1.4651309723	 0.1033219264	-0.350094
C	 1.3622783024	 0.782188419	-0.0591669611	-0.1003
C	 1.7751007276	 0.0981177378	 1.2492257709	-0.257402
C	 0.4463833825	-0.7294267282	 1.2278568209	-0.052107
C	 0.6061790628	-2.2336286438	 0.9968595361	-0.225354
C	-0.6370223411	-2.8257512403	 0.3049854016	-0.268611
C	-1.0060343659	-2.0524702498	-0.941188244	-0.073829
C	-0.664970318	-0.7720482409	-1.1220601283	-0.171429
C	 0.0392536523	-0.0289166252	-0.0760465268	 0.39826
H	-0.2485255194	 1.9021471734	 1.0593096973	 0.101278
H	-0.3038207358	 2.0296876423	-0.7599755354	 0.109229
H	 2.0214800093	 1.0138209156	-0.8876009859	 0.084696
H	 2.6571708022	-0.5394303766	 1.1485406638	 0.100575
H	 1.9259199319	 0.7662497983	 2.1043707158	 0.092407
H	-0.2342665247	-0.5449191059	 2.0684783536	 0.057874
H	 1.4713367234	-2.4037240302	 0.3436181372	 0.097748
H	 0.8111322974	-2.7528899901	 1.9398125211	 0.089749
H	-0.4509151941	-3.875101936	 0.0460916307	 0.09893
H	-1.4871779064	-2.8431097976	 1.0033347212	 0.106833
H	-1.5618092088	-2.5792409179	-1.7122876573	 0.082877
H	-0.9247817948	-0.2517223562	-2.0411010878	 0.078667
130.0896	197.8157	268.6884	357.9156	395.5749	441.3761	454.6822	491.3611	616.4544	699.8445	729.4011	747.0392	818.1798	840.6541	871.845	884.9492	896.8273	944.8824	974.4984	988.8789	995.3712	1007.443	1032.1795	1038.9391	1067.487	1091.3146	1120.5937	1150.9451	1177.461	1206.4196	1232.894	1246.5135	1263.1264	1277.5296	1306.6187	1339.344	1351.358	1365.0478	1384.7114	1441.8251	1478.6164	1482.1668	1489.4197	1499.6134	1695.5181	2996.17	3015.9043	3023.6436	3039.3055	3047.1389	3069.4693	3088.5534	3097.4956	3143.7299	3168.421	3174.3899	3186.8392
C1C2CC3CCC=CC123	C1[C@H]2C[C@@H]3CCC=C[C@]123	
InChI=1S/C9H12/c1-2-4-9-6-8(9)5-7(9)3-1/h2,4,7-8H,1,3,5-6H2	InChI=1S/C9H12/c1-2-4-9-6-8(9)5-7(9)3-1/h2,4,7-8H,1,3,5-6H2/t7-,8+,9+/m0/s1
