17
gdb 42474	4.10585	0.83261	0.79247	2.7857	75.02	-0.2329	-0.0904	0.1425	1454.9108	0.134595	-417.994067	-417.984799	-417.983855	-418.029385	32.725	
O	 0.6698151445	 0.0016985953	 0.2743029076	-0.26981
C	 0.3892328504	 1.1452826848	 0.0179343902	 0.28907
C	 1.2622287741	 2.0921304624	-0.8003604296	-0.267639
N	 2.5674835973	 1.5850490033	-1.1416137279	-0.286192
C	 3.6057406262	 1.8357881214	-0.1703104578	 0.04818
C	 3.732993586	 1.087699207	 1.1443054241	-0.280196
C	 4.7052973447	 0.8368725203	 0.0110504095	-0.285059
C	-0.9080786037	 1.7164866594	 0.4412057748	 0.226592
N	-1.9053125518	 2.2051919601	 0.7642967381	-0.2884
H	 0.6749480805	 2.3236261071	-1.7049248706	 0.148328
H	 1.3490635856	 3.0426896601	-0.2609436044	 0.150378
H	 2.5128585644	 0.5983439382	-1.3680112397	 0.232186
H	 3.8992591029	 2.8830093277	-0.1550720002	 0.098635
H	 4.0846055262	 1.630208014	 2.0155635117	 0.112353
H	 3.00705955	 0.3108418415	 1.3517948007	 0.13377
H	 4.6191795225	-0.1069683394	-0.5186433527	 0.11781
H	 5.7232625703	 1.1989915768	 0.0979872863	 0.119995
46.0567	61.0349	93.0919	148.6532	237.4696	252.3968	276.8377	379.8176	415.5809	541.5006	561.5815	592.5659	663.9343	759.0202	807.315	812.7466	861.3822	936.2804	968.6284	1015.9397	1052.2395	1057.6328	1080.9287	1132.5984	1165.6896	1181.627	1197.4181	1244.4879	1303.8835	1347.6959	1391.5185	1438.6181	1463.0931	1497.121	1521.5743	1796.1266	2332.7097	2980.7784	3068.8091	3129.4913	3131.3681	3139.057	3213.1278	3234.935	3545.8912
O=C(CNC1CC1)C#N	O=C(CNC1CC1)C#N	
InChI=1S/C6H8N2O/c7-3-6(9)4-8-5-1-2-5/h5,8H,1-2,4H2	InChI=1S/C6H8N2O/c7-3-6(9)4-8-5-1-2-5/h5,8H,1-2,4H2
