19
gdb 8581	4.01895	1.89303	1.65002	1.2964	71.39	-0.2079	0.0894	0.2973	861.636	0.167791	-365.038111	-365.031242	-365.030298	-365.068777	27.496	
C	-0.0549485415	 1.4564811459	 0.0727568247	-0.313224
N	-0.0482198035	 0.0110830871	 0.0861344425	-0.071317
C	-1.3744025814	-0.5863669273	-0.065380984	-0.142062
C	-1.2832760084	-2.0780029154	 0.2462920706	 0.073896
C	 0.1027662551	-2.6445371771	-0.1269640925	-0.242742
C	 0.4516616662	-2.0605607044	 1.2581852354	 0.073896
C	 0.745400129	-0.5650555232	 1.17098203	-0.142062
O	-0.9431130336	-2.202079585	 1.6586180738	-0.296978
H	 0.9736925353	 1.8335222243	 0.0611893211	 0.114811
H	-0.5568672421	 1.8181351159	-0.8314998922	 0.114811
H	-0.5688435836	 1.9028198554	 0.9461621445	 0.093102
H	-2.1270107027	-0.1483756799	 0.6164478886	 0.08773
H	-1.7208790072	-0.4177838452	-1.0943259295	 0.096186
H	-2.1920655992	-2.6248934679	-0.0158452324	 0.076527
H	 0.109067069	-3.7351239457	-0.118970068	 0.105647
H	 0.6108565293	-2.2457849465	-1.004981603	 0.111335
H	 1.1353476296	-2.5914411898	 1.9248508676	 0.076527
H	 1.8089449758	-0.3822979287	 0.9644240624	 0.096186
H	 0.5158673486	-0.1218047527	 2.1578911073	 0.08773
138.0884	232.3617	313.9027	326.0388	342.8068	387.355	432.7426	568.6011	605.1715	790.3696	850.5602	857.6663	885.1302	886.7046	938.7725	981.2444	999.8059	1052.8583	1074.6061	1075.2559	1084.9979	1112.5288	1148.6839	1195.8692	1206.8534	1232.7135	1252.3674	1260.0861	1287.987	1339.8748	1343.2902	1360.185	1377.1702	1404.2239	1458.4076	1479.0216	1481.7525	1487.2104	1508.9467	1509.7409	2919.272	2927.3382	2938.282	3021.6303	3023.5638	3047.2908	3079.9496	3084.5099	3091.6335	3093.4999	3152.8298
CN1CC2CC(C1)O2	CN1C[C@H]2C[C@@H](C1)O2	
InChI=1S/C6H11NO/c1-7-3-5-2-6(4-7)8-5/h5-6H,2-4H2,1H3	InChI=1S/C6H11NO/c1-7-3-5-2-6(4-7)8-5/h5-6H,2-4H2,1H3/t5-,6+
