15
gdb 19451	5.40627	1.59576	1.58023	3.9934	69.71	-0.2495	-0.0176	0.232	831.9814	0.12122	-325.505419	-325.499301	-325.498357	-325.535499	24.468	
N	-0.094931337	-1.1640733961	-0.1158958529	-0.330883
C	-0.0505844508	-0.0098511163	-0.0515517467	 0.261432
C	-0.0072053826	 1.4434354053	 0.0176526353	-0.128536
C	 0.0000733341	 2.0741119815	 1.4722329585	-0.068718
C	 1.5178243637	 1.6888242736	 1.5200710732	-0.225585
C	 1.435486525	 2.100840199	 0.0108364629	-0.068724
C	 1.0337269464	 3.5755625695	 0.1428921336	-0.093119
C	 0.097910267	 3.5581480027	 1.0957727555	-0.093108
H	-0.7277551051	 1.871148024	-0.6822653963	 0.118016
H	-0.7152583953	 1.7576561774	 2.2287638678	 0.085095
H	 2.1607571397	 2.2921954637	 2.1626138196	 0.105646
H	 1.6936317161	 0.6209124961	 1.6732294389	 0.128723
H	 2.1846049121	 1.8116518881	-0.723584701	 0.085093
H	 1.4361616865	 4.3978989497	-0.430294027	 0.112333
H	-0.4827801496	 4.3621872318	 1.5236194687	 0.112334
160.6655	167.3662	403.5716	469.6645	504.5761	522.7254	564.5921	702.3984	719.8977	838.341	841.1729	890.6865	904.3586	916.2275	926.1334	940.1436	987.5417	1025.9156	1054.4679	1078.3156	1107.1698	1140.0476	1189.9725	1224.1929	1228.7953	1249.5405	1249.6797	1320.3352	1332.0815	1503.8409	1625.4169	2346.0525	3070.1753	3096.9709	3139.8156	3141.0571	3142.4754	3228.4069	3254.6355
N#CC1C2CC1C=C2	N#C[C@H]1[C@H]2C[C@@H]1C=C2	
InChI=1S/C7H7N/c8-4-7-5-1-2-6(7)3-5/h1-2,5-7H,3H2	InChI=1S/C7H7N/c8-4-7-5-1-2-6(7)3-5/h1-2,5-7H,3H2/t5-,6+,7+
