20
gdb 30012	2.98913	1.55695	1.05443	1.9107	87.13	-0.1855	0.0497	0.2352	1159.8974	0.17395	-366.059045	-366.050826	-366.049882	-366.092235	31.14	
C	-0.0009193863	 1.4432251621	 0.0439014882	-0.342277
N	-0.0412660194	-0.0022809841	 0.0252608041	-0.109854
C	-0.0180222042	-0.7952142141	-1.1073016556	-0.094364
C	 0.0007945242	-2.1236530109	-0.7322111385	-0.360596
C	-0.0152158482	-2.1366063356	 0.688311714	 0.283536
C	-0.0381256589	-0.8337623936	 1.1135210244	 0.297615
C	 0.0100965423	-0.6609768685	 2.5977021914	-0.349872
C	-0.280685459	-2.1272144289	 3.0615117861	-0.19005
C	 0.0440140324	-3.0764517393	 1.8604171062	-0.342384
H	 1.0040788488	 1.8217683459	 0.2667795197	 0.133869
H	-0.3059657271	 1.8264514472	-0.932162911	 0.138544
H	-0.6914958663	 1.8332799225	 0.7972460124	 0.138286
H	-0.0336357101	-0.3395996069	-2.0856030653	 0.108067
H	 0.0060799899	-2.964295869	-1.4096956889	 0.089546
H	 0.9948339468	-0.3161117224	 2.9457760427	 0.102247
H	-0.7265400729	 0.0435666139	 3.0025591884	 0.098829
H	 0.2758689022	-2.3899872735	 3.9651072297	 0.093762
H	-1.3446025983	-2.2120628815	 3.3029725155	 0.106762
H	-0.6673249044	-3.9082400045	 1.807864723	 0.09871
H	 1.0399655685	-3.5278886589	 1.9696039635	 0.099625
57.1163	130.3639	151.0438	217.5077	247.5967	265.3906	487.3879	567.0174	606.9279	614.5173	655.7417	696.7135	719.82	777.7234	792.0035	841.3864	899.9513	908.9822	994.5115	1029.8728	1050.4471	1061.0563	1103.5008	1146.5112	1154.3748	1195.1248	1207.675	1220.6993	1248.0377	1303.7862	1310.2251	1335.2238	1378.2802	1427.6699	1455.2569	1480.9766	1485.7769	1486.9444	1497.7213	1509.7352	1517.9239	1539.4389	1602.453	2992.6102	3004.963	3024.755	3034.4576	3047.4634	3060.5746	3088.6701	3100.2521	3129.539	3235.674	3256.0341
CN1C=CC2=C1CCC2	Cn1ccc2c1CCC2	
InChI=1S/C8H11N/c1-9-6-5-7-3-2-4-8(7)9/h5-6H,2-4H2,1H3	InChI=1S/C8H11N/c1-9-6-5-7-3-2-4-8(7)9/h5-6H,2-4H2,1H3
