17
gdb 44122	2.35747	1.65505	1.32428	2.8906	77.05	-0.2405	-0.0164	0.2241	1018.3226	0.135446	-384.679224	-384.671298	-384.670354	-384.711896	30.815	
O	-0.0184090871	 0.4899813105	-0.9822178259	-0.305735
C	-0.0214617098	 1.4412245529	-0.2489617135	 0.402436
C	-1.279614718	 2.1203899104	 0.3252191412	-0.343565
C	-0.7876824197	 3.3425606461	 1.0693442674	-0.066211
C	 0.727969329	 3.3633609511	 1.0486705595	-0.066212
C	 1.2327734197	 2.1548693909	 0.2909486169	-0.343565
C	-0.0552226205	 4.4129225923	 0.2658075519	-0.214616
C	-0.0748012513	 4.4155225878	-1.1669310486	 0.323063
C	-0.09103103	 4.4023773189	-2.3703150385	-0.44899
H	-1.9789418554	 2.3352655633	-0.4881249351	 0.144244
H	-1.7746973156	 1.4142409765	 1.0020237717	 0.130627
H	-1.3327594031	 3.6799103422	 1.9428114062	 0.097544
H	 1.2872021187	 3.7158644775	 1.907075188	 0.097544
H	 1.7653189903	 1.4628235297	 0.9537345159	 0.130627
H	 1.9034993657	 2.3885487761	-0.5410845755	 0.144244
H	-0.0625756461	 5.3998031202	 0.7197172388	 0.116025
H	-0.1054048466	 4.3950562635	-3.4320964605	 0.202539
63.3481	131.647	143.8319	312.3114	336.7654	457.8628	461.2295	527.2739	559.8878	596.1881	624.7457	662.1983	701.8766	750.2996	766.3748	789.508	818.8554	906.4936	965.1894	985.2266	1021.2652	1043.8961	1070.9538	1102.7222	1138.2697	1166.1838	1189.7075	1218.4716	1278.8267	1281.1527	1346.8936	1358.8831	1400.6239	1441.9774	1450.6123	1852.2415	2231.8477	3047.1788	3049.6877	3095.3357	3095.6809	3145.7289	3175.5079	3185.7897	3503.1619
O=C1CC2C(C1)C2C#C	O=C1C[C@H]2[C@@H](C1)[C@H]2C#C	
InChI=1S/C8H8O/c1-2-6-7-3-5(9)4-8(6)7/h1,6-8H,3-4H2	InChI=1S/C8H8O/c1-2-6-7-3-5(9)4-8(6)7/h1,6-8H,3-4H2/t6-,7+,8-
