16
gdb 131844	5.75951	0.79365	0.71441	4.5577	70.46	-0.2302	-0.0081	0.222	1509.1321	0.124539	-471.181503	-471.172968	-471.172024	-471.216297	30.385	
O	-0.2375820623	 1.5219782864	 0.0349075052	-0.424058
C	 0.0019090748	 0.1481983702	 0.2604904016	-0.048832
C	-1.2187961662	-0.6925086966	-0.1112151192	-0.155007
N	-1.5726428021	-0.3792891858	-1.4936428947	-0.431701
C	-2.381703491	-1.1267370549	-2.1033251648	 0.573793
N	-2.8269465652	-0.9859700967	-3.4113246157	-0.372476
C	-3.6763312935	-2.019451181	-3.669345516	 0.084203
N	-3.8374564977	-2.8098637261	-2.6656506408	-0.120163
O	-3.0148444238	-2.2527245761	-1.6390127028	-0.250268
H	-0.6436562893	 1.5599661042	-0.8412440337	 0.284938
H	 0.8718822169	-0.206803723	-0.3169515507	 0.080183
H	 0.2340247417	 0.026656656	 1.323982266	 0.099904
H	-1.0048583371	-1.7610937811	 0.0312364381	 0.10455
H	-2.0519400423	-0.4320290436	 0.5565114158	 0.112367
H	-2.5313326487	-0.2513754151	-4.0290732119	 0.289879
H	-4.1721514442	-2.1680885169	-4.6167309864	 0.172689
21.831	100.0823	133.9531	173.4414	233.1388	314.378	396.697	464.7197	494.3962	505.9291	609.5373	720.0337	730.0895	874.5093	883.0346	888.9857	901.5798	945.4901	967.0785	1072.178	1096.2349	1112.36	1129.4607	1192.4746	1230.1607	1261.1747	1314.5169	1378.2109	1385.9915	1440.0635	1444.754	1476.934	1507.5734	1651.0494	1815.1019	2965.1066	2997.3198	3038.8759	3071.9551	3267.1202	3699.8032	3759.1744
OCCN=C1NC=NO1	OCCN=c1[nH]cno1	
InChI=1S/C4H7N3O2/c8-2-1-5-4-6-3-7-9-4/h3,8H,1-2H2,(H,5,6,7)	InChI=1S/C4H7N3O2/c8-2-1-5-4-6-3-7-9-4/h3,8H,1-2H2,(H,5,6,7)
