19
gdb 30778	2.99587	1.3129	0.96377	2.6462	79.96	-0.177	0.0416	0.2187	1246.8033	0.160822	-415.410994	-415.40126	-415.400316	-415.446159	34.537	
C	 0.3184333961	 0.6722383775	-0.6700790693	-0.325126
N	-0.3523939159	 0.3023280291	 0.5741807274	-0.375383
C	 0.340468564	-0.5605326938	 1.4354438127	 0.255178
C	 0.7992174551	-1.8360336961	 1.1762660563	 0.151337
N	 0.7082463109	-2.7086913107	 0.0736665979	-0.618914
N	 1.3470696209	-2.2715439447	 2.3820217582	-0.001368
C	 1.9887942388	-3.5485583312	 2.6067199292	-0.333794
C	 1.1864075902	-1.2611156449	 3.270995137	-0.014263
N	 0.5831034898	-0.2150884475	 2.7399305939	-0.342119
H	 0.4612223899	-0.2155901622	-1.2936685828	 0.109849
H	-0.3179386996	 1.3655202697	-1.2273696197	 0.119071
H	 1.3041287859	 1.1418768544	-0.5222549091	 0.106835
H	-0.6210292308	 1.1237963111	 1.1024261303	 0.233536
H	-0.2022846867	-2.6422574779	-0.3679976062	 0.2509
H	 1.4114135261	-2.536280342	-0.638806577	 0.240518
H	 3.0348791159	-3.5398802947	 2.2792453936	 0.13204
H	 1.9561050896	-3.7847887399	 3.6723443151	 0.136503
H	 1.4592323716	-4.31994039	 2.0444498781	 0.156607
H	 1.5360365881	-1.3353320962	 4.2904175142	 0.118593
50.624	71.2455	120.5677	184.7339	198.2274	239.0776	258.7385	281.9175	309.7356	409.5404	524.4137	583.2686	637.047	729.4669	736.5853	750.4091	782.3183	788.1201	831.8856	1024.6155	1076.5929	1107.1378	1144.1657	1153.0363	1157.9503	1214.4528	1234.2552	1281.163	1323.064	1412.5329	1424.0239	1444.0036	1457.5904	1481.1518	1486.7191	1500.1441	1516.0849	1529.5482	1545.1415	1640.1394	1664.1943	2974.3798	3033.1098	3069.9823	3106.0548	3109.1071	3145.5259	3240.6192	3486.3085	3558.4742	3563.5952
CNC1=C(N)N(C)C=N1	CNc1c(N)n(C)cn1	
InChI=1S/C5H10N4/c1-7-5-4(6)9(2)3-8-5/h3,7H,6H2,1-2H3	InChI=1S/C5H10N4/c1-7-5-4(6)9(2)3-8-5/h3,7H,6H2,1-2H3
