17
gdb 126697	2.08113	1.84963	1.0583	1.7686	71.26	-0.1916	0.0496	0.2413	1120.0322	0.137199	-451.345011	-451.336221	-451.335277	-451.378838	32.516	
C	-0.0271274028	 1.5793130193	 0.0832391712	-0.381441
C	-0.0566594928	 0.0577790862	-0.0672933166	-0.152141
N	-1.4081271652	-0.4814601668	-0.0427576276	-0.125327
C	-2.1353219894	-0.7331243626	 1.1269110511	 0.432861
N	-1.6679148287	-0.5402849367	 2.3007777078	-0.613466
N	-3.3646704232	-1.1578100656	 0.6389070564	-0.330549
N	-3.3488744976	-1.3341019897	-0.7606790433	-0.350933
C	-2.1883168423	-0.8791817054	-1.0922167729	 0.481229
O	-1.7154906967	-0.7678292056	-2.3383883526	-0.418412
H	 1.0076881503	 1.9351655309	 0.0778127422	 0.118389
H	-0.5622602787	 2.0660393591	-0.7375867469	 0.122257
H	-0.4883843036	 1.8709839339	 1.0296181067	 0.153036
H	 0.4027973433	-0.2557152968	-1.0076479209	 0.127687
H	 0.4839235917	-0.4131440408	 0.7583428196	 0.14378
H	-2.3466255688	-0.7870544458	 3.0163816477	 0.2093
H	-3.9533978735	-1.78988573	 1.1551088707	 0.263638
H	-2.4045453721	-1.0942610736	-2.9319043325	 0.320092
50.138	101.9046	170.7591	211.3624	298.3162	327.2538	348.6191	393.684	405.5565	441.967	566.3777	624.946	678.7537	706.2469	732.4558	740.4399	780.0843	802.3644	972.1531	1033.8339	1062.0396	1076.7977	1108.45	1201.4208	1241.6579	1256.2174	1348.1134	1376.7414	1393.2715	1398.003	1412.2471	1473.0904	1490.9966	1506.3454	1578.8195	1697.9818	1746.4078	3044.6939	3068.0863	3110.8026	3119.7847	3139.8961	3525.8272	3662.9161	3795.7331
CCN1C(=N)NN=C1O	CCN1[C@@H]([NH])NN=C1O	
InChI=1S/C4H8N4O/c1-2-8-3(5)6-7-4(8)9/h2H2,1H3,(H2,5,6)(H,7,9)	InChI=1S/C4H9N4O/c1-2-8-3(5)6-7-4(8)9/h3,5-6H,2H2,1H3,(H,7,9)/t3-/m0/s1
