14
gdb 9585	4.28362	1.34788	1.25768	2.0877	68.34	-0.2435	-0.0428	0.2006	974.5579	0.104022	-382.499569	-382.491544	-382.4906	-382.531861	29.604	
O	 0.0588148651	 1.3936367018	 0.0991751774	-0.450286
C	 0.0269419494	 0.0193771576	 0.070318522	 0.357461
C	-0.4492980854	-0.7045409022	 1.2944773654	-0.340464
C	-1.3552414905	-0.7173654962	 0.0837627373	-0.302579
C	-2.5437213064	 0.0722935784	 0.0372246239	 0.343203
C	-3.5501257367	 0.7278287989	-0.0185693924	-0.42581
C	 1.0326356676	-0.5946921503	-0.8228415383	 0.100035
O	 1.7505438581	 0.0803681777	-1.5253871807	-0.284492
H	 0.620111364	 1.6507252111	-0.6495622564	 0.300183
H	 0.0331702543	-1.6335832681	 1.5791046467	 0.13003
H	-0.737698231	-0.0574550934	 2.1141827537	 0.154384
H	-1.39262661	-1.6493145719	-0.4739934822	 0.124645
H	-4.4359311317	 1.3114433128	-0.0635073153	 0.201406
H	 1.0691446231	-1.7034106963	-0.8314104812	 0.092282
83.5784	129.3478	195.9933	271.3585	302.399	336.789	375.902	439.6344	516.1901	553.3764	592.668	645.9072	656.6999	727.6695	812.5734	869.5127	912.621	1004.2408	1037.0577	1061.1939	1087.0527	1130.4147	1199.506	1342.8632	1362.2047	1396.1271	1450.332	1485.256	1791.7032	2240.1261	2925.146	3137.5071	3141.0315	3238.4134	3504.9008	3703.2327
OC1(CC1C#C)C=O	O[C@]1(C[C@H]1C#C)C=O	
InChI=1S/C6H6O2/c1-2-5-3-6(5,8)4-7/h1,4-5,8H,3H2	InChI=1S/C6H6O2/c1-2-5-3-6(5,8)4-7/h1,4-5,8H,3H2/t5-,6-/m1/s1
