23
gdb 118764	2.66749	1.01197	0.85981	1.9846	82.83	-0.2475	0.0787	0.3262	1479.8141	0.203661	-425.410834	-425.400505	-425.399561	-425.446331	38.358	
C	 0.4189103976	 1.2872713631	 0.0600728334	-0.22651
O	 0.2721591147	-0.1124062055	 0.0004284689	-0.253813
C	 0.7671048031	-0.7824981206	 1.1457516344	-0.12432
C	 0.4168314817	-2.255688411	 0.9853162926	 0.429916
O	-0.9813077858	-2.3845199699	 0.8297329124	-0.488428
C	 1.2945698461	-3.0242158856	-0.0545529364	-0.299389
C	 2.0018692688	-3.7826808581	 1.1103546693	 0.047563
C	 3.4601420709	-3.410643004	 1.3573260805	-0.398264
C	 0.9687293624	-3.169279238	 2.1053339934	-0.300446
H	 1.4776208098	 1.580941572	 0.128275328	 0.108346
H	-0.0036496875	 1.7012772391	-0.8586512616	 0.129414
H	-0.1130652437	 1.7155376909	 0.9236405409	 0.109028
H	 1.8543475464	-0.6349208868	 1.2425969626	 0.089051
H	 0.2866003322	-0.3889962437	 2.0570991228	 0.091247
H	-1.2417389983	-1.6952278659	 0.2049362254	 0.280463
H	 0.6766825708	-3.6708235905	-0.6807439086	 0.101677
H	 1.9332465737	-2.4111479406	-0.6968075299	 0.09363
H	 1.921065498	-4.8700678762	 1.0275455352	 0.071444
H	 3.5909433639	-2.326095371	 1.4502993568	 0.111302
H	 3.8340247278	-3.8672441842	 2.2807003688	 0.112748
H	 4.0988751609	-3.7489444652	 0.5338190993	 0.113825
H	 1.3810001227	-2.662247407	 2.9842082915	 0.089058
H	 0.202969704	-3.8744053014	 2.4346372505	 0.112455
54.7942	88.7849	117.1893	158.7927	234.8944	240.8311	257.6212	296.2751	350.8745	361.1343	387.4342	440.2221	464.8036	499.4171	694.8644	789.5847	823.6248	846.6258	901.574	923.6232	940.2412	951.5946	989.7256	1046.2298	1052.6683	1091.7804	1140.6243	1154.0685	1164.9663	1191.5231	1212.8183	1222.8468	1225.3081	1257.7432	1271.5577	1287.549	1309.4186	1367.0426	1377.1111	1410.1066	1429.0141	1461.9988	1477.9252	1484.4994	1486.8339	1494.6557	1496.37	1499.5263	1519.1302	2960.8715	2978.4943	3002.4847	3021.812	3023.9854	3045.8394	3053.5207	3060.6552	3089.2201	3091.1316	3114.9787	3116.9654	3120.4473	3768.5432
COCC1(O)CC(C)C1	COC[C@@]1(O)C[C@@H](C)C1	
InChI=1S/C7H14O2/c1-6-3-7(8,4-6)5-9-2/h6,8H,3-5H2,1-2H3	InChI=1S/C7H14O2/c1-6-3-7(8,4-6)5-9-2/h6,8H,3-5H2,1-2H3/t6-,7-
