15
gdb 42902	2.84593	1.55979	1.23319	2.802	65.07	-0.2505	-0.0418	0.2087	998.1948	0.111548	-457.69918	-457.691699	-457.690755	-457.731755	27.327	
O	-0.1554334952	 0.0237980899	-0.2009587677	-0.297598
C	-0.1235570128	 1.2053112003	-0.0324765008	 0.364726
C	-1.1614862708	 2.3259156205	-0.0204397835	-0.113256
O	-0.8270977583	 3.1238325968	 1.137134914	-0.230796
C	-0.0510325874	 3.3160108843	-0.0394870778	-0.073852
C	 1.0380556354	 2.2407162	 0.0098017287	 0.154241
C	 2.1797909826	 2.2571456734	 1.039157909	-0.125538
O	 3.1790864164	 2.2263014202	-0.0018676584	-0.270692
C	 2.1754735237	 2.124766269	-1.0278024123	-0.1411
H	-2.1783943058	 2.374728197	-0.3898052775	 0.131316
H	-0.0336901317	 4.2980810571	-0.4966397577	 0.130484
H	 2.2415528172	 3.1607547063	 1.6563335446	 0.117051
H	 2.2301413855	 1.3706318035	 1.6825646153	 0.121721
H	 2.211090678	 1.1608885321	-1.5500846538	 0.124012
H	 2.2383880432	 2.9407434498	-1.7587215919	 0.10928
81.6342	108.6727	175.1489	234.3554	254.0428	389.4512	515.7907	603.155	654.5761	754.7641	823.5519	844.9515	852.474	868.8553	939.1576	974.6304	980.4498	1006.3925	1043.016	1056.6731	1086.1278	1143.8284	1160.4036	1180.4711	1198.6237	1218.5032	1300.8273	1307.7165	1338.3398	1374.7882	1501.3702	1525.8508	1897.3798	3010.2608	3024.7083	3060.2615	3070.8309	3194.1201	3207.5994
O=C1C2OC2C11COC1	O=C1[C@H]2O[C@H]2C21COC2	
InChI=1S/C6H6O3/c7-4-3-5(9-3)6(4)1-8-2-6/h3,5H,1-2H2	InChI=1S/C6H6O3/c7-4-3-5(9-3)6(4)1-8-2-6/h3,5H,1-2H2/t3-,5-/m1/s1
