18
gdb 43996	3.55734	1.45504	1.36162	2.6571	76.03	-0.2342	0.0236	0.2577	1004.7979	0.149361	-401.925055	-401.917941	-401.916996	-401.956482	29.076	
N	-0.0023302539	 1.1887985619	 0.4851005306	-0.52307
C	-0.0045620787	 0.0222140665	 0.01386135	 0.379138
C	-1.2606898032	-0.8429800968	-0.2162621994	-0.39001
C	-0.7345602856	-2.0638704695	-0.927708435	 0.207622
C	 0.0079211189	-1.8918143403	-2.2384018331	-0.379743
C	 0.7693829156	-1.8860777019	-0.9525183	 0.352219
C	 1.0082972982	-3.2605045764	-0.3250562929	-0.28874
C	-0.5464959166	-3.4917737974	-0.3674587557	-0.285132
O	 1.1383911949	-0.6576040874	-0.3893913771	-0.270319
H	 0.9466599145	 1.5618189447	 0.5336771384	 0.22778
H	-1.6990440011	-1.0956998025	 0.7544147702	 0.136178
H	-2.0064521133	-0.2582098468	-0.76072093	 0.140512
H	 0.0893012425	-2.7332574167	-2.9211106361	 0.117614
H	-0.0894118416	-0.9255773971	-2.7213987017	 0.130436
H	 1.6497920221	-3.9505040098	-0.8807007398	 0.105154
H	 1.3796858011	-3.1768871429	 0.697905902	 0.120872
H	-0.980379592	-3.6244600731	 0.6256805787	 0.112148
H	-0.9031133816	-4.2991211845	-1.013520099	 0.107343
85.702	197.6573	303.107	340.586	406.7064	442.43	525.2728	587.2537	602.3252	651.0856	739.2252	758.1053	806.3988	835.257	849.3087	886.526	917.1268	930.2348	946.3867	963.6241	997.7365	1032.8544	1072.0677	1093.2487	1123.1803	1191.4468	1219.5455	1236.2793	1241.4064	1253.591	1273.6185	1308.5691	1342.6967	1375.1672	1467.9551	1473.818	1475.5286	1498.8266	1777.4906	3054.1503	3060.3778	3062.5489	3101.6986	3108.5228	3119.0386	3128.255	3215.5841	3482.1892
N=C1CC23CC2(CC3)O1	[NH][C]1C[C@@]23C[C@@]2(CC3)O1	
InChI=1S/C7H9NO/c8-5-3-6-1-2-7(6,4-6)9-5/h8H,1-4H2	InChI=1S/C7H9NO/c8-5-3-6-1-2-7(6,4-6)9-5/h8H,1-4H2/t6-,7+/m0/s1
