13
gdb 24516	4.03338	1.77114	1.23071	3.3393	71.7	-0.2543	-0.0474	0.2069	910.7487	0.09408	-415.690475	-415.684897	-415.683953	-415.720375	22.401	
O	-0.0643845911	 1.3427450214	 0.0098606146	-0.207664
C	 1.2570566999	 1.7078805179	-0.0006215209	 0.069179
N	 2.1218360821	 0.7564399744	-0.0141186947	-0.306543
C	 1.3373497574	-0.4014041203	-0.013014792	 0.291961
C	-0.0125361771	-0.0213561953	 0.0018692664	 0.34224
C	-1.029351432	-0.9540979973	 0.0063746452	-0.24958
C	-0.5893020485	-2.2774239375	-0.0050762683	-0.094561
C	 0.7829045882	-2.5712324156	-0.0196985061	-0.03209
N	 1.7604890286	-1.6599590072	-0.0239540046	-0.326859
H	 1.442146644	 2.7716111083	 0.0034644918	 0.160939
H	-2.0784857962	-0.6846721914	 0.0178027127	 0.127274
H	-1.3061278049	-3.0904103566	-0.0027581293	 0.11126
H	 1.1030574098	-3.6097745809	-0.0284521248	 0.114444
237.8674	262.8667	439.3745	456.8487	556.7464	607.2242	639.4064	649.5675	794.6092	809.5982	835.0506	889.1283	893.8275	930.207	954.25	983.7523	1052.1657	1083.4055	1128.5832	1181.1843	1278.973	1292.3272	1345.2352	1367.2065	1427.0956	1510.2363	1565.9292	1624.473	1653.3915	3164.0171	3198.0571	3213.3046	3270.3374
O1C=NC2=C1C=CC=N2	o1cnc2c1cccn2	
InChI=1S/C6H4N2O/c1-2-5-6(7-3-1)8-4-9-5/h1-4H	InChI=1S/C6H4N2O/c1-2-5-6(7-3-1)8-4-9-5/h1-4H
