19
gdb 77565	2.45824	1.49056	1.31484	2.5572	70.67	-0.2468	0.0729	0.3197	1081.1546	0.156475	-460.13293	-460.123742	-460.122798	-460.166057	35.458	
C	-0.0936525257	 1.468380787	 0.0429186256	-0.516935
C	 0.1834020211	 0.0050797244	-0.0618765955	 0.393098
O	-0.7528416933	-0.9235675554	 0.522847877	-0.310132
C	 0.6331155006	-1.0124081228	 0.9098359872	-0.106659
C	 1.3859019713	-1.812956354	-0.1731767156	 0.388654
C	 2.8969921862	-1.7114069494	-0.0220721551	-0.440366
O	 1.0033695269	-3.1459012725	-0.3657063741	-0.480411
C	 0.7760022178	-0.802510017	-1.2360293746	-0.025718
O	-0.1790560926	-1.3822358069	-2.0945114952	-0.44729
H	 0.8078996225	 2.0482227898	-0.1790127099	 0.130094
H	-0.8697768807	 1.7686320336	-0.6696204158	 0.137683
H	-0.4357954219	 1.721764343	 1.0497051221	 0.139087
H	 0.8449559364	-0.9182278031	 1.9700110936	 0.105046
H	 3.234458172	-2.3238928113	 0.8198689909	 0.129226
H	 3.3876445369	-2.0789227179	-0.9279900928	 0.126681
H	 3.2157926249	-0.6785240114	 0.1552932878	 0.110218
H	 0.4264876149	-3.1444332903	-1.1433445899	 0.282998
H	 1.5233865895	-0.2919317635	-1.847166445	 0.087208
H	-0.9652895569	-1.5112877823	-1.5424311609	 0.297518
111.7351	191.7919	205.2328	225.8544	244.0077	258.739	296.6852	323.2849	348.0703	369.7261	530.159	567.7649	594.2121	619.9606	658.7245	734.4756	825.4807	845.1872	878.2387	912.7855	954.7677	1000.1052	1032.1863	1091.9966	1102.3719	1115.5981	1138.8874	1185.1456	1199.374	1255.4226	1275.4072	1320.0359	1383.0076	1401.3351	1411.1643	1422.3234	1471.406	1482.4938	1483.6638	1493.1545	1495.8327	3034.0059	3036.8304	3094.9668	3100.3455	3105.7989	3114.8665	3123.1243	3173.9668	3714.6194	3728.1839
CC12OC1C(C)(O)C2O	C[C@]12O[C@H]1[C@@](C)(O)[C@H]2O	
InChI=1S/C6H10O3/c1-5(8)3(7)6(2)4(5)9-6/h3-4,7-8H,1-2H3	InChI=1S/C6H10O3/c1-5(8)3(7)6(2)4(5)9-6/h3-4,7-8H,1-2H3/t3-,4+,5+,6-/m1/s1
