23
gdb 91422	2.35361	1.73761	1.29343	1.3097	84.4	-0.2324	0.0791	0.3115	1102.1456	0.20748	-388.282408	-388.274002	-388.273058	-388.315005	34.252	
C	 0.7007931462	 1.4143174824	-0.4128676254	-0.39148
C	 0.0316745358	 0.1142015354	 0.0468618675	 0.12611
O	-0.1007672215	-0.7397202176	-1.1081992492	-0.294076
C	 0.6880072527	-1.9130814943	-1.1266167613	 0.140993
C	 0.3794852856	-2.8017627713	 0.1058701948	-0.249415
C	 1.39662149	-1.8948355494	 0.8515314772	-0.009073
C	 2.100566037	-1.6905660136	-0.5211029449	-0.259401
C	 0.6814805853	-0.602773128	 1.2872682322	-0.003783
C	 1.5988318295	 0.2986590115	 2.1231932385	-0.412875
H	 1.7521596653	 1.2750629119	-0.6775877639	 0.117672
H	 0.1773802278	 1.773876133	-1.3028693842	 0.122177
H	 0.6395571649	 2.1905691786	 0.3555374065	 0.108947
H	-0.9986568664	 0.3710502555	 0.3218720635	 0.079919
H	 0.5880113369	-2.3270291156	-2.1322269411	 0.070167
H	-0.6562298685	-2.8184559301	 0.4563383385	 0.091548
H	 0.7491206068	-3.8229650601	-0.0210728905	 0.093193
H	 1.9703640838	-2.3227610398	 1.6781963273	 0.055397
H	 2.7655166615	-2.5244992513	-0.7613627567	 0.098348
H	 2.6137357448	-0.7498526789	-0.7300122231	 0.096059
H	-0.1431566166	-0.912733154	 1.9425800402	 0.075894
H	 2.4860558558	 0.6143279289	 1.5657704108	 0.118619
H	 1.0832324587	 1.1995966862	 2.4696398325	 0.114297
H	 1.9419261445	-0.2446987093	 3.0098813012	 0.110762
67.0476	193.1115	243.4127	280.5361	307.9793	332.1778	374.93	425.2456	441.6583	459.1461	521.2512	651.24	711.5893	803.5612	807.3351	856.7951	892.2129	901.2519	928.9871	966.0547	976.8587	1008.3661	1024.5909	1049.1328	1058.9151	1072.9148	1102.8829	1124.2568	1143.4988	1159.874	1189.092	1213.5704	1241.612	1260.162	1277.0797	1314.9971	1351.5476	1354.5072	1376.4434	1382.0349	1392.084	1407.4919	1415.6944	1468.8936	1483.4479	1490.3267	1498.9893	1508.1161	1510.5051	2999.3675	3023.7037	3034.5819	3045.3291	3049.7121	3058.8398	3069.642	3089.0806	3098.6857	3107.7347	3111.2231	3116.7632	3118.1159	3127.021
CC1OC2CC(C2)C1C	C[C@H]1O[C@@H]2C[C@@H](C2)[C@H]1C	
InChI=1S/C8H14O/c1-5-6(2)9-8-3-7(5)4-8/h5-8H,3-4H2,1-2H3	InChI=1S/C8H14O/c1-5-6(2)9-8-3-7(5)4-8/h5-8H,3-4H2,1-2H3/t5-,6+,7-,8+/m0/s1
