23
gdb 94569	3.07024	1.08588	0.87372	1.7544	85.53	-0.2388	0.0809	0.3197	1399.3479	0.206171	-388.26466	-388.2554	-388.254456	-388.2995	34.577	
C	-0.4601600847	 1.4258543136	-0.0471072557	-0.404786
C	 0.1736922988	 0.0499100684	-0.0857251148	 0.150373
O	 1.4746706272	 0.0572443034	-0.7229564285	-0.29251
C	 2.0464387665	-0.737648929	 0.3333296829	-0.086509
C	 0.7698263744	-0.6078036547	 1.1959061609	-0.078933
C	 0.908085019	 0.2337314957	 2.4488247362	 0.056655
C	-0.3381207161	 0.4858391151	 3.3483411371	-0.235935
C	 0.5701531036	 0.3101004547	 4.5943068155	-0.211967
C	 1.6102563804	-0.400885595	 3.6873800554	-0.238588
H	 0.1667755923	 2.1465343609	 0.4841658815	 0.120263
H	-0.6021711839	 1.7914377315	-1.0692876654	 0.125397
H	-1.4412283548	 1.3860609433	 0.4379848623	 0.116643
H	-0.4984332427	-0.6429468668	-0.6149366711	 0.06602
H	 2.2799599633	-1.757793942	-0.0000915596	 0.092254
H	 2.9573436852	-0.2824005179	 0.7422596165	 0.097562
H	 0.3001908819	-1.5632668955	 1.4506361389	 0.063841
H	 1.391152576	 1.1877146887	 2.2082461768	 0.07332
H	-0.8710000775	 1.4322994949	 3.2295962048	 0.097209
H	-1.0614029601	-0.3320757888	 3.2593793466	 0.096327
H	 0.9430432261	 1.2702220481	 4.9623619628	 0.102889
H	 0.168254415	-0.2510116052	 5.4410282815	 0.096767
H	 1.4782577454	-1.4882472956	 3.7016605188	 0.097103
H	 2.6683647244	-0.1787719078	 3.8460399065	 0.096607
51.6934	78.9481	123.8303	146.3577	208.7543	236.4685	333.5904	354.2676	408.2892	509.2431	633.3187	738.5702	767.4236	785.8923	875.6013	888.0956	893.4799	922.4299	935.7604	955.7987	985.6687	1003.1986	1029.6934	1035.1704	1074.6001	1096.7793	1109.0567	1157.1253	1165.4467	1201.2177	1212.8768	1240.6417	1249.8125	1258.0496	1265.7914	1272.8731	1291.6659	1296.3442	1322.4754	1359.605	1388.035	1404.9613	1413.9101	1478.869	1481.1552	1487.0292	1493.7474	1510.4437	1527.2861	2975.9114	3001.8985	3033.0819	3038.6837	3041.2971	3043.2773	3047.403	3057.9565	3059.901	3096.098	3100.4203	3105.6657	3116.818	3118.8114
CC1OCC1C1CCC1	C[C@H]1OC[C@H]1C1CCC1	
InChI=1S/C8H14O/c1-6-8(5-9-6)7-3-2-4-7/h6-8H,2-5H2,1H3	InChI=1S/C8H14O/c1-6-8(5-9-6)7-3-2-4-7/h6-8H,2-5H2,1H3/t6-,8-/m1/s1
