19
gdb 46981	2.66798	1.78246	1.4442	3.6246	75.54	-0.2418	0.0298	0.2717	973.3454	0.164147	-419.22535	-419.218173	-419.217229	-419.257058	28.706	
N	-0.0845947304	 1.2775570375	-0.236777937	-0.524648
C	-0.0061332004	 0.0479198253	 0.0476422504	 0.435593
O	 1.1932674988	-0.570947215	 0.2629534379	-0.269671
C	 1.2316691611	-1.8306338568	 0.9596661773	-0.055382
C	-0.0483361615	-2.639521338	 0.7794800282	-0.022139
C	-0.3322459553	-2.975371154	-0.713483051	-0.223757
C	-1.1980994796	-1.780517354	-1.1944606656	-0.223424
C	-1.2294171202	-0.8436747808	 0.0493313431	-0.082967
N	-1.1328201581	-1.7410072057	 1.2168468192	-0.310005
H	 0.8470017155	 1.699440036	-0.224908881	 0.216475
H	 2.1028459436	-2.3619083782	 0.5653847668	 0.111161
H	 1.3879107096	-1.6271794949	 2.0252040269	 0.116354
H	 0.0085938983	-3.5247686636	 1.4183575068	 0.079028
H	 0.5890246669	-3.0828259988	-1.2923657948	 0.109308
H	-0.8765965	-3.9200598646	-0.7933007149	 0.101079
H	-0.7941160881	-1.2844481775	-2.0797647574	 0.121851
H	-2.2172747041	-2.0986184035	-1.4329067426	 0.10017
H	-2.1100060401	-0.2053950602	 0.0975743863	 0.100512
H	-2.0012694858	-2.2638601331	 1.2987198514	 0.220462
91.5305	144.3201	225.5431	349.5628	413.4863	435.6837	474.5171	606.976	682.0915	730.1562	794.7581	807.6895	826.8621	837.2835	882.5488	911.4606	930.2497	963.2969	975.1531	1011.9885	1031.7052	1040.4979	1074.357	1098.2585	1152.3031	1170.6129	1222.7077	1226.8618	1248.4651	1278.5626	1284.8863	1305.4946	1322.6737	1345.3077	1389.4928	1428.6075	1451.9543	1486.6337	1504.0597	1507.4097	1759.5923	3036.9874	3053.8851	3063.36	3082.1297	3092.3318	3097.444	3116.2319	3137.332	3456.3502	3490.6457
N=C1OCC2CCC1N2	[NH][C]1OC[C@@H]2CC[C@H]1N2	
InChI=1S/C6H10N2O/c7-6-5-2-1-4(8-5)3-9-6/h4-5,7-8H,1-3H2	InChI=1S/C6H10N2O/c7-6-5-2-1-4(8-5)3-9-6/h4-5,7-8H,1-3H2/t4-,5+/m0/s1
