14
gdb 7704	3.4114	1.93022	1.31286	3.732	65.56	-0.2501	-0.064	0.1861	880.9817	0.107315	-382.594998	-382.588168	-382.587224	-382.626399	25.411	
O	-0.0633904444	-0.1060606917	 0.0044488668	-0.294105
C	-0.0353979186	 1.097547683	-0.0494260099	 0.378005
C	-1.3043045883	 1.9444138472	-0.0087190697	-0.361098
C	-1.2452412597	 3.1209851644	-0.942484477	-0.051994
C	-0.1214622511	 3.5824382149	-1.5053897122	-0.148313
C	 1.2012675461	 2.9737638641	-1.257867034	 0.371055
O	 2.1979338003	 3.3102609456	-1.8584794266	-0.319067
C	 1.2513881582	 1.8927445598	-0.1713185452	-0.409084
H	-2.163911852	 1.3023767014	-0.2239177839	 0.145127
H	-1.4416909503	 2.3025112479	 1.0238987515	 0.148731
H	-2.1948906164	 3.5974376695	-1.1731121326	 0.123182
H	-0.1318609909	 4.4191461443	-2.1960074676	 0.117709
H	 1.3981977436	 2.4243695858	 0.7813528314	 0.149689
H	 2.1062561735	 1.2344730839	-0.3299015008	 0.150162
95.5208	100.7964	305.9558	376.1626	412.3627	455.0912	515.9418	558.6574	585.6371	689.456	729.5103	819.8077	875.5931	929.1631	959.2661	999.1042	1026.2084	1087.5324	1145.5486	1193.149	1215.2569	1255.7794	1278.9946	1327.6658	1402.5147	1429.7107	1442.0281	1681.1711	1783.6909	1834.8226	2998.9951	3013.1782	3086.1985	3136.9386	3161.4607	3196.8342
O=C1CC=CC(=O)C1	O=C1CC=CC(=O)C1	
InChI=1S/C6H6O2/c7-5-2-1-3-6(8)4-5/h1-2H,3-4H2	InChI=1S/C6H6O2/c7-5-2-1-3-6(8)4-5/h1-2H,3-4H2
