29
gdb 102640	1.75907	0.91747	0.73154	0.1022	99.76	-0.2923	0.0844	0.3767	1824.8601	0.272898	-354.778939	-354.766516	-354.765572	-354.817399	45.312	
C	 0.2785116732	 1.5278012523	 0.0177995915	-0.388558
C	 0.2169717667	-0.0017459937	 0.0929193431	-0.180568
C	-1.2003632161	-0.5835639662	 0.2803531915	 0.050238
C	-2.024593507	-0.4717736827	-1.0199045519	-0.180541
C	-3.5383831987	-0.6183517095	-0.8314070914	-0.387172
C	-1.1320556834	-2.0475742038	 0.7666952844	-0.185805
C	-0.762084523	-2.2611691519	 2.248538661	 0.037266
C	-1.8884671018	-1.8210534576	 3.1951244947	-0.380027
C	-0.3973058919	-3.7306664596	 2.5029456772	-0.38779
H	 1.3092624629	 1.8733869419	-0.1109776092	 0.110164
H	-0.3050597091	 1.9254487771	-0.8185987365	 0.117292
H	-0.1107016769	 1.9818908506	 0.9361602381	 0.112524
H	 0.6565379821	-0.43488535	-0.8166491556	 0.090321
H	 0.8570516531	-0.3321225801	 0.9194167808	 0.092982
H	-1.7097862952	 0.0193545707	 1.0462014265	 0.063176
H	-1.8291958496	 0.4980198174	-1.4916059724	 0.091037
H	-1.664631558	-1.2289174549	-1.7306175559	 0.090158
H	-3.8099282159	-1.5847362361	-0.3948668992	 0.116851
H	-3.9284214221	 0.1628761481	-0.1692715604	 0.112746
H	-4.0632717241	-0.533597568	-1.7883502608	 0.11008
H	-2.0947647188	-2.544149172	 0.5885169906	 0.085317
H	-0.4036824539	-2.5775260397	 0.1364872087	 0.08347
H	 0.1258787944	-1.6560530899	 2.4782924071	 0.072335
H	-1.5981451774	-1.960925906	 4.2418268035	 0.108188
H	-2.1520935159	-0.7671914914	 3.0651408846	 0.112614
H	-2.794870577	-2.4140192044	 3.0211715058	 0.109475
H	 0.4484054897	-4.0456243953	 1.8826156652	 0.107886
H	-0.1269861936	-3.8981288475	 3.5510136852	 0.106449
H	-1.2429510328	-4.3894610376	 2.2704329336	 0.109893
32.5521	76.1608	85.3454	89.555	165.9246	195.9732	211.7728	236.445	244.4819	259.3198	280.0709	336.5141	359.8764	412.4976	445.9083	454.0571	505.116	754.3467	774.5082	806.6696	840.8083	886.4723	924.4236	933.6918	944.5399	965.8557	999.5705	1020.8253	1046.1091	1054.0959	1066.1322	1101.6521	1167.9154	1181.5177	1184.1533	1194.0324	1256.9695	1273.6253	1304.1103	1319.3078	1332.78	1347.9671	1367.8295	1374.671	1389.5565	1395.5895	1401.5953	1411.5415	1413.758	1422.2762	1478.6689	1483.3882	1487.61	1488.5405	1495.1405	1499.9917	1503.252	1504.4412	1505.7487	1508.2771	1510.2622	2993.7442	3002.6683	3007.0957	3009.9097	3019.2367	3022.1723	3027.0912	3030.4384	3031.1797	3045.3561	3051.7105	3057.0614	3085.7075	3092.2734	3095.8867	3096.5361	3097.0578	3100.7719	3103.3683	3103.4366
CCC(CC)CC(C)C	CCC(CC)CC(C)C	
InChI=1S/C9H20/c1-5-9(6-2)7-8(3)4/h8-9H,5-7H2,1-4H3	InChI=1S/C9H20/c1-5-9(6-2)7-8(3)4/h8-9H,5-7H2,1-4H3
