15
gdb 28241	4.82202	1.28689	1.03264	2.613	68.7	-0.182	0.0275	0.2095	1096.82	0.115438	-453.961206	-453.953965	-453.953021	-453.992908	27.489	
N	 0.03780733	 1.3034030696	 0.0604235067	-0.582551
C	-0.0423095995	-0.062535889	 0.0216037445	 0.433942
N	-1.1351145441	-0.7841042161	-0.0320373493	-0.426798
C	-0.6216908032	-2.0507201076	 0.0944556931	 0.375801
C	 0.7100204711	-2.0617995696	 0.2337775854	 0.13146
C	 1.2679448813	-3.4259157952	 0.0431159706	-0.361278
C	-0.1019823531	-4.1944713939	 0.1959010565	-0.087021
O	-1.2099990091	-3.2622620496	-0.0234149217	-0.278913
O	 1.1310226754	-0.7380951913	 0.1475208294	-0.225002
H	 0.8889412963	 1.692364008	-0.3181172298	 0.266159
H	-0.8022182478	 1.7574381322	-0.2658549704	 0.273963
H	 1.7250166125	-3.5843177742	-0.9446708238	 0.113556
H	 1.981286146	-3.77507258	 0.7972113022	 0.117632
H	-0.2200975177	-5.0127691003	-0.5155378748	 0.124798
H	-0.198865308	-4.5816721829	 1.2149984715	 0.124252
117.1618	150.4839	258.0679	290.078	331.9999	337.7973	526.5229	548.7909	593.5722	688.6933	721.9465	744.3015	756.676	841.771	858.1585	912.4693	970.3827	979.5697	1074.0255	1115.309	1134.3149	1184.1786	1240.4956	1262.913	1319.2943	1357.5947	1412.4487	1459.6603	1501.9915	1518.1136	1589.3035	1667.7598	1713.1825	2990.4505	3046.9671	3062.2393	3128.94	3576.2807	3687.4085
NC1=NC2=C(CCO2)O1	Nc1nc2c(CCO2)o1	
InChI=1S/C5H6N2O2/c6-5-7-4-3(9-5)1-2-8-4/h1-2H2,(H2,6,7)	InChI=1S/C5H6N2O2/c6-5-7-4-3(9-5)1-2-8-4/h1-2H2,(H2,6,7)
