17
gdb 54705	3.40308	1.47198	1.32546	2.6182	70.54	-0.2376	0.0314	0.2689	989.8856	0.137397	-417.970712	-417.963139	-417.962195	-418.003315	29.282	
N	 0.543497982	 0.1270082338	 0.6874709935	-0.523964
C	-0.1949093627	 0.4276961605	-0.4136536256	 0.37491
O	 0.1027190185	 1.2794315635	-1.2301557534	-0.375855
C	-1.4696654418	-0.3951126721	-0.5368352066	-0.037179
C	-1.7765445179	-1.1522830026	-1.8403994417	-0.085186
C	-0.5302333419	-2.0616195685	-2.0116309925	-0.248846
C	-0.9785517995	-2.725350258	-0.7112072918	-0.033877
C	-2.3718071184	-2.2578246648	-0.8785191552	-0.054981
N	-1.5532653463	-1.6850660862	 0.2294276186	-0.180468
H	 1.3753554939	 0.6590065622	 0.882707771	 0.259576
H	 0.2328063961	-0.5825681639	 1.3305720986	 0.273992
H	-2.3145701893	 0.2278560396	-0.2252214595	 0.111278
H	-2.2512564296	-0.6723882501	-2.691484737	 0.087355
H	-0.6526226761	-2.7523109451	-2.8495019544	 0.110039
H	 0.4496561712	-1.5789426675	-2.0662210108	 0.12008
H	-0.611259206	-3.6251074693	-0.2359967874	 0.099898
H	-3.3417198322	-2.7174492917	-0.7444332858	 0.103228
42.8771	150.8273	173.2017	281.7081	384.9724	403.6369	502.0976	543.5375	638.5624	686.6813	711.0455	772.9209	794.1313	835.5804	860.1202	911.5502	937.616	964.514	984.1528	1012.4389	1027.3542	1040.2646	1068.542	1099.2203	1119.8886	1137.6719	1165.5025	1205.8706	1233.3921	1250.1227	1283.8419	1324.2712	1338.7578	1386.9957	1501.2267	1604.5842	1796.9009	3059.1813	3061.6251	3115.6294	3160.0519	3201.7816	3215.8743	3589.461	3730.0569
NC(=O)C1C2CC3C2N13	NC(=O)[C@H]1[C@H]2C[C@@H]3[C@H]2N13	
InChI=1S/C6H8N2O/c7-6(9)5-2-1-3-4(2)8(3)5/h2-5H,1H2,(H2,7,9)	InChI=1S/C6H8N2O/c7-6(9)5-2-1-3-4(2)8(3)5/h2-5H,1H2,(H2,7,9)/t2-,3+,4-,5+,8?/m0/s1
