17
gdb 49543	3.30454	1.21552	1.02482	3.1748	74.15	-0.2498	-0.0406	0.2092	1157.9784	0.13489	-421.781706	-421.773709	-421.772765	-421.814862	29.331	
O	-0.6148737475	 0.7670331502	 0.7707163547	-0.245114
C	 0.1448925013	 0.9784622287	-0.142549053	 0.115827
C	 1.3050702603	 1.9324211888	-0.1177799444	-0.06122
C	 1.100797156	 3.4070263654	-0.6322249678	-0.088498
C	 0.3175053847	 3.69365067	 0.6792372878	-0.237222
C	 1.5616693843	 2.8546006762	 1.1129374042	-0.058392
C	 2.3997444046	 3.7821344766	 0.1819376817	-0.070182
C	 3.7540641224	 3.3885633351	-0.3357156529	 0.117896
O	 4.3150850755	 2.3409324715	-0.123682808	-0.245863
H	 0.036154091	 0.4311427538	-1.1083665373	 0.077574
H	 2.1818649627	 1.4279682908	-0.5313920934	 0.114602
H	 0.8580150731	 3.7223468322	-1.6476231576	 0.089259
H	 0.2988066439	 4.736490394	 1.0051576355	 0.096894
H	-0.6529861963	 3.2160276243	 0.7955591934	 0.132235
H	 1.8291945212	 2.5320170687	 2.1174564127	 0.095666
H	 2.4207707353	 4.8409129185	 0.4666845739	 0.087279
H	 4.2404243775	 4.1734305152	-0.9609343795	 0.079257
84.4299	91.7869	175.9032	185.594	257.1551	284.6064	410.2499	487.3898	692.7744	711.7697	763.8872	776.082	809.6334	874.2488	903.6082	912.3694	999.318	1016.6359	1021.8197	1029.3935	1053.6624	1088.2887	1092.4391	1131.5843	1134.3675	1188.9995	1192.842	1219.8746	1235.937	1250.0678	1386.9735	1394.2057	1425.8822	1429.9075	1527.8911	1814.9179	1818.4027	2856.5215	2859.5647	3041.1835	3073.53	3090.6399	3109.7269	3136.9567	3167.0519
O=CC1C2CC1C2C=O	O=C[C@H]1[C@H]2C[C@@H]1[C@H]2C=O	
InChI=1S/C7H8O2/c8-2-6-4-1-5(6)7(4)3-9/h2-7H,1H2	InChI=1S/C7H8O2/c8-2-6-4-1-5(6)7(4)3-9/h2-7H,1H2/t4-,5+,6-,7-
