16
gdb 28702	5.59243	0.84025	0.75539	3.6934	75.48	-0.2069	-0.0057	0.2012	1459.5727	0.123791	-437.945444	-437.936779	-437.935835	-437.979523	30.891	
C	 0.0875153637	 1.5820432262	-0.257678062	-0.503383
C	 0.027274606	 0.1011461803	-0.0853426431	 0.303899
C	-0.3751276464	-0.8965844035	-0.9420688541	-0.205847
C	-0.2142514319	-2.153979028	-0.2834618525	-0.26101
C	 0.2770695837	-1.8677213643	 0.9630420645	 0.355383
N	 0.419517109	-0.5117920278	 1.0889662947	-0.34765
O	 0.6485293988	-2.6636685211	 2.0146935394	-0.218314
C	-0.2866979757	-3.5358566201	 2.5003015875	 0.155803
O	-0.0277374166	-4.3232787473	 3.3535104107	-0.255668
H	 1.108829426	 1.9699545174	-0.1564016714	 0.130631
H	-0.2700965652	 1.8508098151	-1.2540861504	 0.141416
H	-0.5372666523	 2.1114067582	 0.4725668041	 0.129138
H	-0.7409836738	-0.7445229148	-1.9461028225	 0.098106
H	-0.4096062455	-3.1369914258	-0.6809041669	 0.108059
H	 0.7808747116	-0.0552054582	 1.9092637745	 0.267732
H	-1.2626332913	-3.4063008862	 2.0009196074	 0.101706
55.3687	105.4269	126.7269	161.0496	227.7627	282.6464	382.8816	441.0542	457.4918	496.4128	636.5487	654.1325	675.6863	777.531	816.3595	823.8059	988.672	998.4481	1031.8132	1045.5646	1063.5158	1063.8957	1113.2381	1208.7382	1265.0373	1291.2852	1399.942	1418.8346	1425.6417	1469.8373	1479.3693	1499.994	1552.805	1637.7709	1877.2918	2995.6176	3017.882	3062.3943	3124.9688	3246.6337	3264.3891	3673.3751
CC1=CC=C(N1)OC=O	Cc1ccc([nH]1)OC=O	
InChI=1S/C6H7NO2/c1-5-2-3-6(7-5)9-4-8/h2-4,7H,1H3	InChI=1S/C6H7NO2/c1-5-2-3-6(7-5)9-4-8/h2-4,7H,1H3
