14
gdb 35017	2.86708	1.33171	1.08938	2.6476	74.49	-0.2629	-0.0061	0.2568	1091.7788	0.09987	-399.476766	-399.468915	-399.467971	-399.509282	29.21	
C	 0.0355513471	-1.1994492332	-0.0099615249	-0.408767
C	 0.0351933071	 0.0018891891	 0.028100957	 0.333017
C	 0.0426271646	 1.4333038874	 0.0682747752	-0.319202
C	 0.5286872757	 2.2284007486	 1.2522080153	 0.065554
O	 1.5304433124	 1.553356643	 1.9801806117	-0.268699
C	 2.4210514242	 1.569383158	 0.8310444272	-0.139398
C	 1.3507388569	 2.2470642909	-0.0321098461	 0.111335
C	 1.5618656129	 3.2494512147	-1.0164288351	 0.196194
N	 1.7362449376	 4.0650964155	-1.8194244576	-0.343074
H	 0.0262864551	-2.2612635101	-0.03788758	 0.208384
H	-0.7673356736	 1.9287744508	-0.462091965	 0.145723
H	-0.0510002013	 2.9984261549	 1.748057537	 0.140299
H	 3.2816049923	 2.2149110239	 1.0234722414	 0.139509
H	 2.735898869	 0.5668285866	 0.529678274	 0.139124
101.7615	135.4976	170.9165	202.6235	332.2524	356.3224	473.6953	511.4888	547.1151	597.5123	620.9325	645.925	672.0309	777.4044	829.6445	906.1741	934.2705	990.6625	1021.2706	1041.9615	1072.7883	1087.7026	1160.4341	1202.748	1256.0898	1281.603	1352.6668	1438.1519	1504.7387	2241.9332	2346.9635	3060.1587	3123.4084	3146.5729	3191.5181	3500.9491
C#CC1C2OCC12C#N	C#C[C@H]1[C@H]2OC[C@@]12C#N	
InChI=1S/C7H5NO/c1-2-5-6-7(5,3-8)4-9-6/h1,5-6H,4H2	InChI=1S/C7H5NO/c1-2-5-6-7(5,3-8)4-9-6/h1,5-6H,4H2/t5-,6+,7-/m0/s1
