18
gdb 30404	2.49565	1.53537	0.96187	1.9367	85.76	-0.2102	-0.0219	0.1883	1211.8885	0.14794	-401.978276	-401.969669	-401.968725	-402.011527	31.95	
C	-0.149783661	 1.39613335	 0.0145377444	-0.321657
N	-0.1129984214	-0.0539692639	-0.0475064841	-0.309433
C	 0.5816300514	-0.613041668	-0.975789133	 0.236901
C	 1.3702359859	 0.0441764849	-2.0178728264	-0.246167
C	 2.0497153722	-0.6708628123	-2.9271359911	 0.059776
O	 2.0685673271	-2.0205309254	-2.9639869353	-0.20125
C	 1.3462475247	-2.6783885563	-2.0098987038	-0.021065
C	 0.6256859594	-2.0806129564	-1.0471639859	 0.167485
C	-0.1404890273	-2.8800309442	-0.0362444149	-0.472728
H	 0.8459699385	 1.8400090743	 0.1689360769	 0.109062
H	-0.570821687	 1.8495702936	-0.8962370873	 0.109074
H	-0.7791442624	 1.7028775417	 0.8543814387	 0.117094
H	 1.4196072315	 1.1234031077	-2.0739781437	 0.112634
H	 2.6513774138	-0.2491321054	-3.7229851335	 0.136424
H	 1.4331876484	-3.7501075529	-2.1347613843	 0.129786
H	-0.0227417725	-3.9548054809	-0.1991806129	 0.107825
H	 0.1918943356	-2.6307565916	 0.9762576174	 0.143165
H	-1.2039056069	-2.6243240448	-0.0763092312	 0.143074
99.8931	126.5804	168.5968	201.6398	216.1041	296.8719	308.775	466.0454	482.5129	482.6852	516.5042	604.6221	744.291	752.8212	833.5305	838.5877	879.4676	955.4574	992.6131	1026.1388	1052.7335	1064.4847	1097.6569	1130.3364	1165.7602	1175.9683	1268.9752	1341.9273	1412.3161	1414.8056	1425.2702	1435.6565	1462.0347	1481.3838	1490.7529	1505.9923	1636.3349	1668.6552	1716.7218	2969.6999	3016.6154	3040.313	3092.1977	3100.8211	3119.9133	3208.6233	3219.6697	3228.7591
CN=C1C=COC=C1C	CN=c1ccocc1C	
InChI=1S/C7H9NO/c1-6-5-9-4-3-7(6)8-2/h3-5H,1-2H3	InChI=1S/C7H9NO/c1-6-5-9-4-3-7(6)8-2/h3-5H,1-2H3
