16
gdb 129957	2.93598	1.49075	1.04731	3.0225	72.27	-0.2099	0.0058	0.2157	1107.3485	0.125745	-434.018941	-434.011088	-434.010144	-434.051673	29.527	
N	 0.189295515	 1.3081301569	 0.3795522361	-0.616839
C	 0.0203546464	-0.0442584562	 0.0711336455	 0.056199
C	-1.0839862654	-0.8243880961	-0.0559742664	 0.009445
O	-0.7271973849	-2.1087474538	-0.3029104787	-0.18301
N	 0.65535677	-2.1947716443	-0.3396191163	-0.220117
C	 1.0911267995	-0.976023889	-0.117723684	 0.393158
N	 2.4397097149	-0.613956747	-0.1405674091	-0.171266
C	 3.1746157924	-0.6072502311	 1.1379228776	-0.229522
C	 3.4364989531	-1.6517238945	 0.1111891198	-0.219061
H	 1.0336584382	 1.6762123363	-0.0427511679	 0.256419
H	-0.6015458133	 1.882628469	 0.1198511382	 0.248345
H	-2.1433231633	-0.6294205415	-0.0082178009	 0.136654
H	 3.8624852654	 0.2221752005	 1.267540374	 0.124095
H	 2.6265056297	-0.9041099235	 2.0276249963	 0.135965
H	 3.0676689182	-2.653992208	 0.3028391545	 0.154205
H	 4.3237326341	-1.5888634279	-0.5107099886	 0.125328
64.0424	159.7395	176.0397	248.0831	290.8131	318.2983	439.5998	541.1947	574.7347	585.4026	707.6154	744.8303	759.8109	798.7139	824.4475	887.9692	908.3335	938.4244	973.74	1045.5155	1111.741	1121.3208	1134.9705	1138.9674	1177.3156	1184.4376	1221.9417	1303.0478	1352.1221	1468.1815	1489.8996	1515.5163	1548.7577	1642.8214	1693.1442	3118.3954	3129.2103	3207.801	3224.4643	3268.6333	3530.2682	3625.2723
NC1=CON=C1N1CC1	Nc1conc1N1CC1	
InChI=1S/C5H7N3O/c6-4-3-9-7-5(4)8-1-2-8/h3H,1-2,6H2	InChI=1S/C5H7N3O/c6-4-3-9-7-5(4)8-1-2-8/h3H,1-2,6H2
