22
gdb 120733	3.12306	0.73186	0.66424	3.1311	79.62	-0.2457	0.0711	0.3168	1768.0958	0.192219	-441.449799	-441.438889	-441.437944	-441.48699	38.877	
C	-0.0646427672	 1.4087364003	-0.4956973209	-0.408202
C	 0.0532434616	 0.0549732618	 0.2044475782	 0.143686
O	 0.6666466083	 0.1717792638	 1.4866296196	-0.432776
C	-1.2953780088	-0.6299777622	 0.3143547426	-0.048751
N	-1.7806341507	-1.3525977042	-0.8730041725	-0.343146
C	-1.4892111111	-2.1023515	 0.3674613994	-0.023212
C	-0.3760402994	-3.1221103409	 0.3187410793	-0.180812
C	-0.836747945	-4.4304104701	-0.3145631821	-0.070575
O	 0.2568544461	-5.3350906707	-0.289939866	-0.421985
H	 0.9146028547	 1.8902203348	-0.5627521873	 0.122688
H	-0.4696476436	 1.2852983774	-1.5045100194	 0.131203
H	-0.7373165537	 2.0765596742	 0.0587271982	 0.098672
H	 0.7261686693	-0.58403607	-0.3736042558	 0.098032
H	 0.1434607036	 0.7919483312	 2.0064046968	 0.274239
H	-2.0291468858	-0.0389992864	 0.8679899706	 0.067167
H	-2.7809125004	-1.2202219383	-0.9915808296	 0.229356
H	-2.3554535671	-2.4266101502	 0.9459359037	 0.078186
H	 0.4713163331	-2.7411463913	-0.2567873344	 0.115392
H	-0.0139850016	-3.3228764881	 1.3338382709	 0.112822
H	-1.6986456363	-4.8334276467	 0.244536597	 0.075476
H	-1.1755086772	-4.2334205266	-1.3432401303	 0.098234
H	-0.0105203089	-6.1418167678	-0.7394021581	 0.284306
33.4969	68.1816	86.446	118.8011	177.4192	235.4994	251.7839	257.7742	264.049	326.4257	369.6297	409.026	466.7727	515.6414	587.1362	785.3895	811.266	847.7825	889.9957	933.7364	958.0523	1012.264	1020.492	1034.6986	1058.682	1080.5838	1106.9275	1113.7072	1158.282	1200.0298	1227.7901	1236.4261	1266.6993	1271.1438	1295.459	1312.5827	1323.9169	1341.6175	1398.2735	1409.8872	1428.3582	1460.5325	1479.6015	1485.8947	1494.3204	1498.421	1529.5507	2953.511	2998.9822	3020.8544	3049.5158	3067.159	3079.8389	3090.808	3099.6452	3112.2844	3123.3843	3507.2872	3798.927	3831.819
CC(O)C1NC1CCO	C[C@@H](O)[C@H]1N[C@H]1CCO	
InChI=1S/C6H13NO2/c1-4(9)6-5(7-6)2-3-8/h4-9H,2-3H2,1H3	InChI=1S/C6H13NO2/c1-4(9)6-5(7-6)2-3-8/h4-9H,2-3H2,1H3/t4-,5+,6-/m1/s1
