16
gdb 75696	2.28535	2.11273	1.19399	2.0865	71.75	-0.2607	-0.0182	0.2425	1002.2029	0.126141	-434.09571	-434.088022	-434.087078	-434.12789	28.825	
C	-0.0404575369	 1.4400107587	-0.0256984299	-0.366878
N	-0.0263813731	-0.0065632095	 0.0098240956	-0.135424
C	-1.1662635488	-0.8123356164	 0.0106795098	 0.386411
N	-2.392474276	-0.491732851	 0.0675796314	-0.55297
C	-0.6467653303	-2.2128927772	-0.021376351	-0.091907
C	 0.2107331789	-2.6058636849	-1.1719555287	-0.250549
N	 0.8235617404	-2.1448453227	 0.0938534206	-0.155295
C	 1.1568921492	-0.7483999102	 0.0337285472	 0.420595
O	 2.2687487453	-0.295287285	 0.0150403085	-0.358333
H	 0.9969763845	 1.7748679163	-0.0530423173	 0.175852
H	-0.566044958	 1.8023764521	-0.9154461368	 0.141518
H	-0.5290887509	 1.8472953119	 0.8659651302	 0.143177
H	-2.523323882	 0.5195648239	 0.1116456104	 0.220779
H	-1.1658217302	-2.962343553	 0.5634152904	 0.135363
H	 0.3594998467	-3.6592185094	-1.3840667442	 0.145232
H	 0.2622024313	-1.9443984238	-2.0321743662	 0.142427
118.6978	158.5717	180.9202	220.6692	289.9721	339.7451	380.2178	541.7637	601.8686	649.9998	718.8115	726.0947	798.7446	825.2509	859.4944	868.6787	965.7521	999.711	1045.2403	1073.9193	1099.6067	1123.3959	1157.9918	1166.4807	1242.38	1263.991	1296.4777	1350.3738	1416.7708	1457.7267	1494.1287	1505.7808	1514.9846	1753.1878	1864.5494	3033.7816	3092.9155	3123.1129	3155.72	3196.9616	3219.5	3475.4765
CN1C(=N)C2CN2C1=O	CN1[C]([NH])[C@H]2CN2C1=O	
InChI=1S/C5H7N3O/c1-7-4(6)3-2-8(3)5(7)9/h3,6H,2H2,1H3	InChI=1S/C5H7N3O/c1-7-4(6)3-2-8(3)5(7)9/h3,6H,2H2,1H3/t3-,8?/m1/s1
