21
gdb 41822	2.29505	1.94268	1.45805	0.9347	76.96	-0.2396	0.073	0.3126	995.0731	0.186598	-424.237547	-424.23019	-424.229246	-424.269223	29.909	
C	 0.2292648125	 1.6882016984	 0.1381448428	-0.078337
O	 1.4855815397	 2.0140267141	-0.451609901	-0.277539
C	 2.0418416073	 0.8605940881	-1.1014117331	 0.118849
C	 0.8977088635	-0.1702350535	-1.1622743502	-0.241133
C	 0.1016022024	 0.1560632547	 0.1132407146	-0.048143
C	 0.6669462832	-0.5692348755	 1.3621324217	-0.091583
O	 2.0150382145	-0.986722881	 1.2778304177	-0.243313
C	 2.974536197	 0.0526207835	 1.1423057852	-0.075337
C	 3.2726765578	 0.3868440857	-0.3203787851	-0.207922
H	 0.194447698	 2.1024915306	 1.153439406	 0.097163
H	-0.5812425324	 2.152973801	-0.4433245524	 0.090538
H	 2.3533853025	 1.1637468106	-2.1080752531	 0.072275
H	 0.2799373863	 0.0083058167	-2.0475786506	 0.098583
H	 1.2602191272	-1.1988283173	-1.1923010427	 0.114841
H	-0.9521817129	-0.1239121061	 0.019019018	 0.074649
H	 0.5195224838	 0.0654700763	 2.2521987313	 0.087452
H	 0.1051449208	-1.4947863378	 1.5224131856	 0.106441
H	 2.6418234631	 0.9561843515	 1.6728548384	 0.102121
H	 3.887248675	-0.3029088577	 1.6326240861	 0.101711
H	 3.6997242859	-0.4926224023	-0.8177343319	 0.098107
H	 4.0331542545	 1.1770674401	-0.3457380075	 0.100578
93.5775	191.8734	274.1416	331.7267	363.4513	380.3443	406.9557	507.4526	591.4095	727.2256	767.2358	783.6162	816.4484	858.3492	890.5249	901.3774	942.717	957.2179	1006.9514	1017.1175	1040.1851	1057.1092	1092.3596	1118.8746	1129.0418	1164.7785	1189.819	1207.0294	1233.9189	1251.4657	1298.6595	1317.6141	1332.2204	1338.5199	1357.4225	1365.7429	1381.5196	1398.0712	1410.7121	1426.4023	1465.8432	1484.4439	1488.9196	1504.2298	1527.2773	2963.599	2984.6285	3006.0758	3021.4343	3035.0946	3041.8323	3052.7555	3064.5781	3066.4778	3074.773	3078.5062	3125.5927
C1OC2CC1COCC2	C1O[C@@H]2C[C@H]1COCC2	
InChI=1S/C7H12O2/c1-2-8-4-6-3-7(1)9-5-6/h6-7H,1-5H2	InChI=1S/C7H12O2/c1-2-8-4-6-3-7(1)9-5-6/h6-7H,1-5H2/t6-,7-/m0/s1
