17
gdb 5265	6.53185	1.01492	0.93674	2.5457	70.67	-0.2017	0.0484	0.2501	1219.7543	0.143562	-363.892741	-363.884709	-363.883765	-363.925918	29.297	
O	-0.0731821224	 1.46860297	 0.0576623358	-0.420443
C	 0.0241929969	 0.0523631546	 0.1047001391	-0.058431
C	-1.3793732082	-0.52278826	-0.0942254957	-0.302838
C	-1.4031137526	-2.0221983189	-0.0437981823	 0.269911
C	-1.5345633056	-2.876891737	-1.1168071114	-0.182867
N	-1.4795162377	-4.166359595	-0.6497591517	-0.230893
C	-1.3166010544	-4.1578563399	 0.7116494062	-0.075013
C	-1.263941656	-2.8453831686	 1.1160300547	-0.239457
H	 0.8073260118	 1.8338790491	 0.1823628356	 0.283442
H	 0.6907096827	-0.3330750123	-0.6830193779	 0.084146
H	 0.4295202554	-0.290253076	 1.0698880961	 0.08591
H	-2.0310467026	-0.0964960552	 0.6779057713	 0.108095
H	-1.7618555758	-0.1670266547	-1.0571725124	 0.102396
H	-1.6667579347	-2.6689908617	-2.1670056515	 0.113063
H	-1.5677484915	-4.990505605	-1.2169581342	 0.25974
H	-1.2578617621	-5.0778060259	 1.2708310367	 0.115105
H	-1.1461068432	-2.5025032535	 2.1333468915	 0.088134
50.5722	94.8926	120.631	256.1922	319.544	345.4398	368.3695	465.753	640.2917	655.4401	685.9438	734.6677	775.3293	797.8842	830.6725	905.5145	972.0149	1010.4288	1049.8515	1074.4472	1084.5693	1094.1131	1163.0701	1211.172	1237.6274	1281.8577	1286.6676	1313.566	1348.567	1414.1377	1452.6916	1465.9419	1488.6596	1522.7494	1525.2568	1611.0478	2969.0201	2997.4642	3033.0241	3077.881	3238.2685	3256.197	3268.128	3689.4999	3831.3108
OCCC1=CNC=C1	OCCc1c[nH]cc1	
InChI=1S/C6H9NO/c8-4-2-6-1-3-7-5-6/h1,3,5,7-8H,2,4H2	InChI=1S/C6H9NO/c8-4-2-6-1-3-7-5-6/h1,3,5,7-8H,2,4H2
