17
gdb 47755	2.00589	1.7805	1.31253	2.7457	75.1	-0.2348	0.0124	0.2472	1042.2497	0.137354	-417.965389	-417.957055	-417.956111	-417.998645	31.278	
N	 0.2451608265	 0.8798853965	-1.2736456034	-0.524877
C	 0.0420990812	 0.0202455611	-0.3693251068	 0.403721
O	 1.021953466	-0.4327543746	 0.4598303514	-0.243276
C	 0.6005750537	-1.28656865	 1.532651878	-0.103968
C	-0.2004700734	-2.4905088366	 1.0143695793	-0.164795
N	-1.131615446	-2.1254666529	-0.0672400833	-0.285118
C	-1.3130779142	-0.6736034815	-0.2225185483	-0.27645
C	-2.116738612	-0.1029176914	 0.8621713159	 0.37878
C	-2.7759522463	 0.3802128814	 1.7428993622	-0.475075
H	 1.2157438505	 1.2011269568	-1.2462952016	 0.220076
H	 1.5158616565	-1.6074437199	 2.034138651	 0.121735
H	 0.0050167722	-0.703859755	 2.2417467902	 0.135909
H	 0.4813071563	-3.2611369703	 0.6420123989	 0.113691
H	-0.7486006723	-2.9240212146	 1.8609154823	 0.118038
H	-0.7791697208	-2.4791494052	-0.9485515155	 0.234889
H	-1.8395195505	-0.4965305271	-1.1641298381	 0.14194
H	-3.3663166373	 0.8083517633	 2.515154468	 0.204781
66.1093	105.1073	145.8063	220.9431	280.71	368.6603	420.9937	444.6673	532.2823	568.5734	631.5344	657.2567	681.7547	719.807	793.6289	829.1639	874.6358	903.7725	908.9989	945.5016	1042.4673	1055.468	1133.2917	1144.0137	1159.7981	1254.1276	1274.9184	1281.1606	1323.4174	1339.125	1399.4713	1420.8593	1489.7742	1504.251	1514.3565	1753.3099	2237.6654	3020.6629	3060.2689	3076.1792	3083.2561	3118.4888	3456.5096	3501.2985	3547.3223
N=C1OCCNC1C#C	[NH][C]1OCCN[C@H]1C#C	
InChI=1S/C6H8N2O/c1-2-5-6(7)9-4-3-8-5/h1,5,7-8H,3-4H2	InChI=1S/C6H8N2O/c1-2-5-6(7)9-4-3-8-5/h1,5,7-8H,3-4H2/t5-/m0/s1
