21
gdb 84030	2.64077	1.46636	1.20352	1.8637	78.4	-0.2387	0.0815	0.3202	1128.0318	0.184476	-424.212641	-424.204415	-424.203471	-424.245215	32.33	
C	 0.0208968462	 1.5785360312	 0.1185378799	-0.405488
C	 0.0448434008	 0.0706393545	-0.0064744725	-0.063512
C	 0.6594787959	-0.6406277047	-1.2063223171	-0.075621
C	 1.3113785876	 0.0968821954	-2.3673142366	-0.230457
C	 2.7575348356	-0.3413772511	-2.6265935411	-0.069877
O	 3.6768909666	 0.1780967913	-1.6743508296	-0.227285
C	 3.6084167041	-0.3767111045	-0.3950024042	 0.021936
O	 2.4973828234	 0.0538684448	 0.3601795041	-0.239839
C	 1.3314141319	-0.6926195559	 0.1480227271	 0.07839
H	 0.9893130658	 2.0163072237	-0.1290732782	 0.140348
H	-0.7414781598	 2.0199263596	-0.5325625555	 0.112168
H	-0.2119463502	 1.8683420293	 1.1485081067	 0.117978
H	-0.829491492	-0.4211688629	 0.412160315	 0.084098
H	 0.1659328059	-1.5645930428	-1.4976736144	 0.082898
H	 0.7236384277	-0.0789842755	-3.2766947123	 0.097866
H	 1.3154077464	 1.1784824148	-2.2054833561	 0.115804
H	 2.8258744451	-1.4415886505	-2.6546658111	 0.086133
H	 3.0997098255	 0.0407222867	-3.5937642447	 0.105083
H	 3.6168939264	-1.4794892396	-0.4504927362	 0.074053
H	 4.4929875125	-0.0160271925	 0.1353588111	 0.112139
H	 1.3166351146	-1.6354782514	 0.6954211155	 0.083183
101.5315	154.9447	196.7739	259.6935	274.1312	321.2227	375.6268	418.0894	493.5907	533.0911	609.0708	668.7861	758.2186	763.005	836.265	873.6181	957.6585	964.1243	983.9132	1000.3823	1031.0061	1067.7084	1088.1013	1118.0832	1124.6924	1153.3336	1160.4411	1165.3164	1207.5477	1254.6977	1268.0643	1295.6954	1342.2639	1350.5919	1367.731	1391.0618	1408.8382	1416.0821	1438.2215	1455.6754	1475.1962	1489.4156	1496.7422	1503.7099	1509.3538	2950.1365	2972.7508	3034.3004	3037.4247	3074.835	3089.8781	3092.5306	3093.1082	3103.6216	3125.3505	3132.6837	3145.7513
CC1C2CCOCOC12	C[C@H]1[C@H]2CCOCO[C@@H]12	
InChI=1S/C7H12O2/c1-5-6-2-3-8-4-9-7(5)6/h5-7H,2-4H2,1H3	InChI=1S/C7H12O2/c1-5-6-2-3-8-4-9-7(5)6/h5-7H,2-4H2,1H3/t5-,6+,7-/m0/s1
