18
gdb 53005	4.23211	0.93421	0.86344	1.2086	88.25	-0.2179	0.0088	0.2266	1413.0337	0.147266	-364.767425	-364.758798	-364.757853	-364.801885	31.871	
C	-0.0411536483	 1.4624698026	 0.0495484816	-0.507158
C	-0.0160511551	 0.0080497703	 0.0107990527	 0.239763
C	-0.0095504595	-1.1961393109	-0.0194611034	-0.143379
C	 0.0451269478	-2.6307314104	-0.0567889022	 0.137392
C	-0.4848226612	-3.4200713652	-1.2196551052	-0.263906
N	-1.2202980484	-3.4366366734	 0.0409019863	-0.136982
C	-0.9124404762	-4.5911652947	 0.9144316277	-0.21261
C	 0.5521734741	-4.4719792326	 1.2723941809	-0.095289
C	 1.0735754225	-3.3645077401	 0.7500025211	-0.141264
H	 0.6869413723	 1.8529288934	 0.7691602813	 0.148335
H	 0.1943449209	 1.8949541963	-0.9293428983	 0.147299
H	-1.0292136003	 1.8315621274	 0.3463286413	 0.152135
H	-0.9948088522	-2.9009444645	-2.0264958397	 0.119814
H	 0.08568906	-4.2995795404	-1.5130804265	 0.110659
H	-1.5547757913	-4.549587981	 1.8039942476	 0.118489
H	-1.1509660699	-5.5277476661	 0.3937845465	 0.11496
H	 1.0829931699	-5.2110751726	 1.8608528475	 0.103511
H	 2.0881773848	-3.0043109783	 0.8586169708	 0.108231
29.2183	90.9031	99.0413	253.1057	277.3074	317.7804	389.0774	433.2488	494.6854	522.4203	562.3371	722.0235	743.1104	751.0877	814.2031	876.0441	925.9112	938.1782	954.8654	998.1157	1024.4263	1051.783	1053.589	1068.7283	1115.7754	1121.4923	1160.0684	1217.1147	1242.5611	1325.7594	1337.1595	1373.6636	1414.8076	1476.8244	1478.6953	1481.6004	1495.2651	1673.6003	2370.4403	3013.4893	3025.9245	3044.0311	3085.739	3088.1309	3091.8788	3187.8028	3198.9056	3230.2894
CC#CC12CN1CC=C2	CC#C[C@]12CN1CC=C2	
InChI=1S/C8H9N/c1-2-4-8-5-3-6-9(8)7-8/h3,5H,6-7H2,1H3	InChI=1S/C8H9N/c1-2-4-8-5-3-6-9(8)7-8/h3,5H,6-7H2,1H3/t8-,9?/m0/s1
