15
gdb 29914	3.40957	1.31487	0.95469	5.4959	76.12	-0.211	0.0096	0.2206	1160.3477	0.113554	-416.864228	-416.855713	-416.854769	-416.897867	30.561	
C	 0.0094014493	 1.4586440954	 0.0159656015	-0.344674
N	-0.0119470855	 0.0078791522	-0.0100513858	-0.058299
C	-0.057438051	-0.792053109	-1.1489662089	-0.088959
C	-0.0118219683	-2.1001582723	-0.7680912833	-0.279869
C	 0.070488119	-2.1240242452	 0.6663312689	 0.048351
C	 0.1346144974	-3.2114640771	 1.5592657433	 0.170428
N	 0.1895706991	-4.0650703927	 2.3446267845	-0.377753
C	 0.0705667592	-0.7966012279	 1.0775431123	 0.321029
O	 0.1360341995	-0.2439287056	 2.3014971426	-0.429988
H	 1.0237811837	 1.8460195125	-0.1269379455	 0.148227
H	-0.6336790784	 1.8436514008	-0.7782045003	 0.146841
H	-0.3669834688	 1.8062939696	 0.9784684919	 0.165483
H	-0.1230472402	-0.3376290736	-2.1235040554	 0.130598
H	-0.0405841388	-2.9626509593	-1.4135930925	 0.122376
H	 0.1569722336	-0.9539153577	 2.9555701067	 0.326208
58.2685	111.2485	123.5854	205.8138	289.4198	294.0174	359.9712	434.3768	515.97	529.5049	594.5079	614.0968	660.9794	728.3785	731.2973	766.976	811.4974	1009.2246	1059.5064	1110.831	1151.7794	1204.7111	1240.7097	1303.6555	1364.9941	1390.5081	1455.3195	1490.7136	1508.5463	1550.2933	1592.3645	1599.2422	2322.5921	3044.1933	3115.4975	3156.1103	3264.5278	3283.6088	3795.7054
CN1C=CC(C#N)=C1O	Cn1ccc(C#N)c1O	
InChI=1S/C6H6N2O/c1-8-3-2-5(4-7)6(8)9/h2-3,9H,1H3	InChI=1S/C6H6N2O/c1-8-3-2-5(4-7)6(8)9/h2-3,9H,1H3
