22
gdb 116397	2.52579	1.35818	0.97712	3.6415	83.24	-0.2297	0.0362	0.2659	1287.1319	0.196211	-404.407083	-404.397885	-404.396941	-404.441753	34.3	
C	 0.074753423	 1.562690371	 0.0412864005	-0.375579
C	-0.0294379471	 0.0358187967	 0.024824108	-0.150211
N	-1.4121376181	-0.4408307585	-0.0101770959	-0.088248
C	-2.0457618234	-0.694312493	 1.2826412403	-0.14371
C	-3.55946626	-0.8608309129	 1.1869619973	-0.215331
C	-3.906011583	-1.8233334707	 0.0523298876	-0.212051
C	-3.4003146384	-1.2353835742	-1.2659376253	-0.297926
C	-1.9699649513	-0.7021665642	-1.2348369614	 0.401088
O	-1.3638949094	-0.4945309837	-2.2755420278	-0.399255
H	 1.1231084609	 1.8725042936	 0.1007152346	 0.115025
H	-0.3542614768	 1.9764987995	-0.8748698857	 0.142313
H	-0.4522385843	 1.9958245302	 0.898293434	 0.110251
H	 0.4743950171	-0.3578982096	-0.859478592	 0.139606
H	 0.4500054055	-0.3924797562	 0.9130573411	 0.094614
H	-1.6036505282	-1.5976531645	 1.7333291955	 0.104222
H	-1.8023929716	 0.1381001147	 1.9542874939	 0.108768
H	-3.9353808052	-1.2182079722	 2.1510047722	 0.102448
H	-4.0281505226	 0.1130882455	 0.9977349235	 0.106272
H	-3.4324822687	-2.7959494637	 0.2392400249	 0.103319
H	-4.984785379	-2.0033062847	 0.0015438594	 0.100332
H	-3.4418587852	-1.9545397172	-2.0879410219	 0.127774
H	-4.0359797741	-0.3927580258	-1.568215753	 0.126281
42.3306	92.6287	111.5189	170.4462	230.5575	312.8902	353.9807	370.1691	456.7597	472.8703	507.4008	574.6484	655.9144	699.2587	780.9094	835.093	878.9632	901.4503	938.0161	966.8299	988.5898	1068.6195	1086.5247	1104.5849	1111.6618	1153.8659	1183.2128	1195.2672	1246.0373	1280.4418	1296.5078	1319.6493	1354.7748	1368.7313	1380.8808	1386.5976	1393.6179	1407.6649	1455.8998	1466.9808	1486.2678	1490.0484	1491.4479	1502.0843	1504.6541	1530.7158	1747.7902	2970.5371	3022.5632	3026.8753	3033.3185	3035.2109	3035.4047	3043.5286	3074.3135	3082.5417	3096.7056	3101.3897	3118.7073	3129.6054
CCN1CCCCC1=O	CCN1CCCCC1=O	
InChI=1S/C7H13NO/c1-2-8-6-4-3-5-7(8)9/h2-6H2,1H3	InChI=1S/C7H13NO/c1-2-8-6-4-3-5-7(8)9/h2-6H2,1H3
