14
gdb 131638	2.2404	1.50019	0.92009	4.348	74.64	-0.2455	-0.0455	0.2	1186.7793	0.09972	-436.636988	-436.628652	-436.627708	-436.67084	29.799	
O	 0.026264734	 1.2981704936	 0.5742699671	-0.415428
C	 0.0043517688	 0.0845293643	-0.1641143666	-0.22149
C	-1.3735703054	-0.481531363	-0.0758377863	 0.067074
C	-1.7639281056	-1.7883504993	 0.0359896255	 0.237231
O	-3.1178430696	-1.8631798747	 0.0604781105	-0.216859
N	-3.6401358407	-0.5841906646	-0.023964207	-0.126303
C	-2.6084930509	 0.2190815394	-0.1059714877	-0.032326
C	-1.0285861473	-2.9847451461	 0.1250971844	 0.242338
C	-0.3796319613	-3.995691033	 0.2017242068	-0.405376
H	 0.8764635853	 1.7224046671	 0.4239416736	 0.294181
H	 0.2647344932	 0.2652175914	-1.2199291719	 0.110241
H	 0.7263338605	-0.649076629	 0.2243702027	 0.111996
H	-2.7643947556	 1.2858926568	-0.1704891914	 0.147477
H	 0.1861678446	-4.8921551328	 0.2715043504	 0.207245
40.7317	122.4768	165.5662	187.3623	250.2404	298.6854	392.1446	453.5692	550.9726	594.7152	603.1279	646.8147	691.8966	706.3418	749.4664	915.2212	945.8636	964.434	1025.284	1063.701	1151.5548	1187.654	1225.6852	1244.1225	1267.1026	1413.777	1463.4987	1495.4552	1516.1927	1647.0432	2236.7191	2964.825	3004.67	3257.1055	3499.0052	3829.0832
OCC1=C(ON=C1)C#C	OCc1c(onc1)C#C	
InChI=1S/C6H5NO2/c1-2-6-5(4-8)3-7-9-6/h1,3,8H,4H2	InChI=1S/C6H5NO2/c1-2-6-5(4-8)3-7-9-6/h1,3,8H,4H2
