13
gdb 23707	5.89515	1.52518	1.22084	1.7943	62.96	-0.2623	-0.0557	0.2066	911.5635	0.096076	-402.80538	-402.798752	-402.797808	-402.836621	24.076	
C	 0.0125015811	 1.5017470632	 0.0015506438	-0.470906
C	 0.0105280633	-0.0014977036	 0.0138553435	 0.31663
N	 0.1662921355	-0.6350357657	-1.16087951	-0.274675
C	 0.1647322073	-1.9610975465	-1.1514540131	-0.138566
C	 0.0056281222	-2.6604883347	 0.0461269118	 0.310011
F	 0.0078981473	-3.9879865105	 0.0267078977	-0.064759
N	-0.1483635519	-2.0753637025	 1.2074185104	-0.284213
C	-0.145550362	-0.7375933471	 1.1885532397	-0.064044
H	 0.9546755455	 1.8808066465	-0.4065439292	 0.14588
H	-0.7904792997	 1.8811887914	-0.6381088362	 0.14588
H	-0.1207208427	 1.9100751543	 1.0062425078	 0.126365
H	 0.2895187186	-2.4885291584	-2.0926130223	 0.131755
H	-0.2724980846	-0.2392236463	 2.1459086563	 0.120642
75.8174	132.3662	312.2995	358.9596	438.5993	442.1503	514.2517	548.6132	654.3139	760.4518	784.7275	895.6396	918.4825	959.4165	1008.8926	1044.9617	1064.1358	1242.63	1272.7469	1299.315	1335.7107	1378.8378	1414.3625	1475.7954	1489.6188	1515.5109	1597.0934	1622.3745	3043.2832	3104.2945	3127.076	3164.8665	3174.734
CC1=NC=C(F)N=C1	Cc1ncc(F)nc1	
InChI=1S/C5H5FN2/c1-4-2-8-5(6)3-7-4/h2-3H,1H3	InChI=1S/C5H5FN2/c1-4-2-8-5(6)3-7-4/h2-3H,1H3
