23
gdb 100269	1.84958	1.38266	1.22022	2.5949	81.7	-0.239	-0.0105	0.2285	1254.5252	0.201017	-425.445893	-425.434344	-425.4334	-425.482701	41.306	
C	 0.3842403779	 1.4166662702	 0.0419377494	-0.399197
C	 0.118944003	-0.0880124116	-0.0552632708	-0.200881
C	-1.3758505096	-0.4709678573	 0.0129141879	 0.261528
C	-1.5453351013	-2.0011303098	-0.0268526659	-0.436465
O	-2.0343123845	 0.114239348	 1.1377190489	-0.28331
C	-1.6429724858	-0.3221325499	 2.4217867721	-0.249986
C	-2.0933577143	 0.0944683116	-1.2389942839	 0.372011
C	-3.3412896592	 0.9244421457	-1.0404408468	-0.473038
O	-1.6508879126	-0.1560315178	-2.3373859885	-0.325531
H	 1.4588833372	 1.6204859866	 0.0266103669	 0.113354
H	-0.0635672602	 1.9526981269	-0.801280892	 0.125791
H	-0.0293458864	 1.8373923127	 0.9626086459	 0.123213
H	 0.4997345442	-0.4751438342	-1.0046842217	 0.125102
H	 0.657258511	-0.6183073146	 0.7389652625	 0.089896
H	-0.9558709644	-2.4891147091	 0.7544264432	 0.11614
H	-2.5957109909	-2.278561603	 0.1070888761	 0.12017
H	-1.2066915068	-2.3744539915	-0.9955203482	 0.144724
H	-1.853432479	-1.3872460048	 2.5859574268	 0.111991
H	-0.5781893161	-0.1425151173	 2.623160065	 0.111782
H	-2.2309564604	 0.2594866441	 3.1363686352	 0.128948
H	-3.1074711527	 1.8157065857	-0.4505494351	 0.150071
H	-3.7450074514	 1.203620661	-2.0142644203	 0.129972
H	-4.0828625778	 0.3668689584	-0.4606066666	 0.143714
39.947	84.9549	102.8036	165.7821	172.137	199.2291	207.2201	236.7956	253.072	288.233	332.1358	347.3457	397.3208	461.6313	480.5084	567.8862	615.3954	669.8299	767.0313	853.7212	896.2578	964.4728	995.6991	1005.1292	1047.1847	1064.4142	1112.2505	1143.2875	1163.9115	1181.0009	1199.3171	1218.6796	1269.8599	1325.7793	1364.0687	1379.7106	1393.4244	1411.0938	1452.7684	1463.2255	1469.0466	1478.2968	1493.6191	1496.297	1497.6868	1504.2327	1506.2894	1514.2216	1804.2568	3000.697	3036.9739	3041.2999	3043.9328	3050.8023	3054.9513	3090.537	3107.4004	3110.1954	3113.0855	3114.934	3119.3311	3136.2926	3157.2519
CCC(C)(OC)C(C)=O	CC[C@@](C)(OC)C(=O)C	
InChI=1S/C7H14O2/c1-5-7(3,9-4)6(2)8/h5H2,1-4H3	InChI=1S/C7H14O2/c1-5-7(3,9-4)6(2)8/h5H2,1-4H3/t7-/m1/s1
