21
gdb 68384	2.52421	1.9062	1.41379	1.7258	80.79	-0.2593	0.0879	0.3472	1004.6716	0.184613	-387.079173	-387.071739	-387.070794	-387.110367	31.298	
C	-0.0908905742	 1.5187313355	 0.0020873508	-0.498145
C	 0.0296558365	 0.0043757101	-0.0034196843	 0.310478
C	 0.9492901002	-0.7022481017	-1.0529019175	-0.254415
C	 1.1843970259	-1.7971692543	 0.0296115177	-0.025992
C	 0.8920006067	-0.6961652933	 1.0870475036	-0.256572
C	 0.0541470919	-2.8410247216	-0.0011561847	-0.240587
C	-1.3087906957	-2.1691775217	-0.0894431224	 0.042021
O	-1.7693753927	-1.4392441582	 1.0594294079	-0.258399
C	-1.3280472212	-0.7000480886	-0.0849291254	 0.014464
H	 0.8965714424	 1.990630184	 0.0330829059	 0.110544
H	-0.6064232232	 1.8821237946	-0.8949996702	 0.112391
H	-0.6575812395	 1.866383937	 0.8736589947	 0.123453
H	 0.5045430986	-1.0008428716	-2.0081500188	 0.085445
H	 1.8568615221	-0.1215971742	-1.2415022156	 0.093672
H	 2.1628180291	-2.2823680156	 0.0554650443	 0.060196
H	 1.7854719736	-0.1042424293	 1.3058785865	 0.088133
H	 0.3959980745	-0.9839772814	 2.0143720232	 0.112369
H	 0.1750068706	-3.4879208433	-0.8792885342	 0.099112
H	 0.0969248903	-3.4911156599	 0.8814535318	 0.109709
H	-2.098823345	-2.7208683077	-0.5974441185	 0.089305
H	-2.1204697509	-0.1621937489	-0.6062691047	 0.082818
197.7324	218.9801	258.3266	307.015	344.3258	403.4708	419.4364	459.5005	530.8353	616.333	671.9016	780.64	834.6481	841.3248	849.0775	877.4144	889.7335	912.9476	938.1673	976.6782	1009.7123	1013.8971	1027.6421	1071.9221	1101.9844	1120.6745	1136.4626	1142.7099	1203.7423	1216.2492	1234.8457	1271.6563	1279.0873	1287.6588	1300.5481	1316.2275	1367.5669	1388.1855	1410.6072	1451.1344	1472.955	1474.4243	1492.2418	1493.5469	1508.7023	3020.4837	3023.1203	3039.6207	3059.0727	3061.4398	3077.5026	3084.1711	3094.7816	3099.2717	3102.2096	3118.2873	3132.8135
CC12CC(C1)CC1OC21	C[C@@]12C[C@@H](C1)C[C@H]1O[C@@H]21	
InChI=1S/C8H12O/c1-8-3-5(4-8)2-6-7(8)9-6/h5-7H,2-4H2,1H3	InChI=1S/C8H12O/c1-8-3-5(4-8)2-6-7(8)9-6/h5-7H,2-4H2,1H3/t5-,6-,7-,8+/m1/s1
