19
gdb 84358	2.50543	1.48466	1.20371	3.1888	77.32	-0.2357	-0.0234	0.2123	1123.9283	0.156569	-423.056118	-423.04639	-423.045446	-423.091173	35.449	
C	-0.1188943998	 1.6055095814	 0.024401093	-0.394023
C	 0.0226894217	 0.0758771193	-0.0282895749	-0.153266
C	 0.7806869183	-0.4674195119	-1.2134216713	-0.08557
C	 1.8217217775	-1.2286489739	-0.8748961813	-0.115808
C	 1.9955480994	-1.3667837244	 0.61918364	 0.232082
C	 1.8438023701	-2.7961034401	 1.145471821	-0.450665
O	 3.2111424714	-0.7831949587	 1.084674049	-0.460147
C	 0.8374163932	-0.4719482865	 1.1545719503	 0.392696
O	 0.6304222593	-0.2504763686	 2.3165199544	-0.318524
H	 0.8590074863	 2.090241673	-0.0516172922	 0.129654
H	-0.7448511591	 1.967276361	-0.7968818274	 0.115354
H	-0.5774976217	 1.90365605	 0.9707966609	 0.139902
H	-0.9848442199	-0.3617529387	 0.0338725749	 0.107616
H	 0.4877200263	-0.237418852	-2.2326964325	 0.102093
H	 2.5005323723	-1.7076719895	-1.5729742004	 0.095733
H	 2.6561015137	-3.429860191	 0.7681435845	 0.108436
H	 1.8769424049	-2.7831047547	 2.238452641	 0.147144
H	 0.899058071	-3.2454548053	 0.8254455629	 0.126254
H	 3.898719965	-1.4562871094	 1.044852598	 0.28104
30.6805	86.7581	168.8347	205.0182	214.9608	247.8108	248.1615	302.3169	342.6848	359.8757	534.0129	545.5935	588.9063	675.042	694.8751	762.3204	786.1957	885.3315	898.4938	952.659	985.6766	991.6357	1050.5796	1078.566	1097.6706	1129.4509	1144.9824	1159.579	1213.475	1283.4408	1308.9305	1350.2529	1386.4518	1397.5976	1410.6858	1486.3468	1491.8819	1493.6352	1500.7536	1677.2838	1858.2873	2998.3014	3023.5115	3040.9313	3095.6201	3112.6773	3124.363	3125.527	3172.6124	3196.3861	3808.3004
CC1C=CC(C)(O)C1=O	C[C@H]1C=C[C@@](C)(O)C1=O	
InChI=1S/C7H10O2/c1-5-3-4-7(2,9)6(5)8/h3-5,9H,1-2H3	InChI=1S/C7H10O2/c1-5-3-4-7(2,9)6(5)8/h3-5,9H,1-2H3/t5-,7+/m0/s1
