19
gdb 56673	2.48906	1.27213	1.13127	2.6205	74.9	-0.2554	0.0265	0.282	1172.4155	0.158826	-419.194841	-419.185383	-419.184439	-419.22912	34.625	
C	 0.09470141	 1.4791078712	 0.1857615212	-0.400186
C	-0.0039059163	-0.0397146071	-0.0522412535	-0.165792
C	-1.4069489474	-0.4737321133	-0.0433100294	 0.267372
N	-2.5117550087	-0.8135271347	-0.075807554	-0.330438
C	 0.6632738254	-0.5055500663	-1.3713296881	 0.260747
N	 0.0718900517	 0.1809089825	-2.496839941	-0.572376
C	 2.2084778327	-0.4606026695	-1.2924518691	-0.115356
O	 2.2763746007	-1.8739298086	-1.0323225953	-0.271907
C	 0.8918430445	-2.0494107572	-1.3930078307	-0.127164
H	 1.144382987	 1.7798921215	 0.2357902797	 0.127525
H	-0.3796252118	 2.0260844646	-0.6299000193	 0.153975
H	-0.3854809872	 1.7523792298	 1.1281955819	 0.134823
H	 0.5010069052	-0.5677559295	 0.7657308634	 0.137651
H	 0.479519166	-0.1432368298	-3.3679044815	 0.234847
H	-0.9269897374	-0.0028983721	-2.5474801953	 0.246846
H	 2.67505107	-0.1885266712	-2.2500092697	 0.099475
H	 2.6671123359	 0.1316154589	-0.4932596851	 0.10974
H	 0.3459430845	-2.6640301173	-0.6684509322	 0.116014
H	 0.7779935553	-2.4847868418	-2.3959450819	 0.094202
76.196	101.1014	135.7089	192.7069	233.1665	239.4838	297.1719	313.4298	361.621	403.4257	459.7449	532.218	579.399	728.6059	778.9291	849.7715	861.4073	908.2977	964.509	1001.4311	1011.627	1025.4585	1033.6892	1083.8605	1115.8882	1140.4095	1149.7071	1168.0087	1236.5414	1299.2659	1323.7781	1333.9454	1351.8528	1393.1782	1409.9446	1490.3408	1496.5166	1506.9922	1531.6981	1660.0256	2350.2304	2995.2689	3006.5604	3044.0739	3058.6477	3066.6219	3067.9818	3129.4108	3153.878	3490.2244	3572.5487
CC(C#N)C1(N)COC1	C[C@@H](C#N)C1(N)COC1	
InChI=1S/C6H10N2O/c1-5(2-7)6(8)3-9-4-6/h5H,3-4,8H2,1H3	InChI=1S/C6H10N2O/c1-5(2-7)6(8)3-9-4-6/h5H,3-4,8H2,1H3/t5-/m0/s1
