18
gdb 46076	4.33593	1.00015	0.84926	4.9949	72.61	-0.2587	0.0543	0.313	1336.9042	0.149555	-439.126081	-439.118044	-439.117099	-439.159393	30.108	
O	-0.1386486697	-0.0583182426	 0.1274182199	-0.390096
C	-0.0879305278	 1.1389113233	 0.0879024501	 0.466271
N	-1.0757024864	 2.0432057462	 0.4280306224	-0.364703
C	-0.7558965427	 3.3692980157	-0.0619175737	-0.205675
C	 0.7812850124	 3.2581922592	-0.1658015459	 0.122927
O	 1.0166853572	 1.8409563855	-0.3064149299	-0.252792
C	 1.3989671964	 4.0082935887	-1.3072871525	 0.006803
C	 1.8139658804	 5.4478497724	-1.1037939921	-0.273685
C	 2.8587835524	 4.3761146795	-1.2658192403	-0.267577
H	-2.0203116483	 1.6945165277	 0.4506106074	 0.260551
H	-1.20509255	 3.5793070336	-1.0436194354	 0.109009
H	-1.0602407396	 4.1561533889	 0.6333058166	 0.12262
H	 1.2413805224	 3.574601998	 0.7802605377	 0.089943
H	 0.9866787502	 3.7486885587	-2.278330495	 0.093959
H	 1.6497147854	 6.1430752994	-1.9187744197	 0.120069
H	 1.680570139	 5.8818340629	-0.1181267873	 0.115809
H	 3.4276932267	 4.0823084515	-0.3903382019	 0.124198
H	 3.4170836221	 4.3337494416	-2.1936010105	 0.122367
70.3425	88.5734	157.9566	206.9947	283.0929	387.993	407.5173	502.4248	550.5084	674.7645	731.3208	773.7465	778.9118	833.993	863.9111	913.6965	928.7784	971.212	990.4507	1054.6777	1065.6505	1082.2771	1088.48	1094.9963	1133.0144	1193.9378	1197.2714	1214.6689	1228.0956	1240.0088	1317.0566	1346.2879	1376.7491	1431.3876	1448.5194	1471.2385	1508.1244	1530.0514	1892.2919	2995.9176	3013.5486	3084.5796	3134.2972	3141.0868	3150.0228	3214.7318	3230.2283	3651.5428
O=C1NCC(O1)C1CC1	O=C1NC[C@@H](O1)C1CC1	
InChI=1S/C6H9NO2/c8-6-7-3-5(9-6)4-1-2-4/h4-5H,1-3H2,(H,7,8)	InChI=1S/C6H9NO2/c8-6-7-3-5(9-6)4-1-2-4/h4-5H,1-3H2,(H,7,8)/t5-/m1/s1
