17
gdb 9045	4.6602	0.90382	0.78953	3.7196	74.94	-0.2725	0.0259	0.2983	1392.1979	0.140176	-326.715217	-326.70598	-326.705036	-326.749643	32.549	
C	-0.0738625463	 1.5798818379	 0.131788271	-0.393842
C	 0.0363367102	 0.0462897808	 0.0154984543	-0.142356
C	 0.7424979901	-0.4326707676	-1.2755298289	-0.176257
C	-0.0460824846	-0.092448211	-2.5566544397	-0.373607
C	 0.5987269634	-0.6175687641	-3.7535089212	 0.285807
C	 1.1519943181	-1.0581897662	-4.7248724952	-0.419547
C	 0.7371142857	-0.4954315198	 1.1852888136	 0.262843
N	 1.2993222701	-0.9168142399	 2.1030272304	-0.319466
H	 0.9164029072	 2.0422364407	 0.0873099917	 0.14014
H	-0.6825865814	 1.9838378441	-0.6804011362	 0.130287
H	-0.5405826744	 1.8641488025	 1.0778192215	 0.141911
H	-0.9764887788	-0.3789051482	 0.0315915119	 0.127626
H	 1.7415549095	 0.0120973455	-1.3295997046	 0.130027
H	 0.8834645279	-1.5160746511	-1.2252210818	 0.134708
H	-1.0629876248	-0.5005843108	-2.4791676662	 0.133718
H	-0.1590516472	 0.9933697874	-2.6575971178	 0.138332
H	 1.6315853653	-1.4440966902	-5.5900997629	 0.199675
60.8267	90.7192	98.5313	192.0465	205.225	246.7803	304.2302	344.3952	385.2422	463.3517	559.488	591.8666	625.1093	647.014	764.0802	822.6056	923.3341	955.3826	962.0859	1034.1489	1075.0925	1110.0967	1139.6551	1220.4496	1273.8779	1309.765	1340.4693	1343.6586	1387.217	1415.5503	1472.8641	1491.5505	1495.731	1503.2693	2242.3409	2357.1351	3017.3484	3020.9768	3050.7483	3056.9907	3058.1566	3104.716	3127.6054	3131.9557	3506.6419
CC(CCC#C)C#N	C[C@@H](CCC#C)C#N	
InChI=1S/C7H9N/c1-3-4-5-7(2)6-8/h1,7H,4-5H2,2H3	InChI=1S/C7H9N/c1-3-4-5-7(2)6-8/h1,7H,4-5H2,2H3/t7-/m0/s1
