17
gdb 21071	3.34162	2.01772	1.28322	2.0682	72.02	-0.1955	0.032	0.2274	945.0853	0.143088	-360.064595	-360.055961	-360.055016	-360.097834	30.426	
C	 0.0278194942	 1.4093432662	-0.0323383354	-0.326893
N	 0.0175135423	-0.033765099	 0.0421234307	-0.012606
N	-0.0036820413	-0.7581322617	-1.0942091211	-0.278649
C	 0.002843274	-2.0260215421	-0.6870970745	-0.062581
C	 0.0143866808	-2.1235424191	 0.7203240504	 0.061834
N	-0.0281268851	-3.2747489793	 1.5452889468	-0.61284
C	 0.0140487317	-0.8098054516	 1.1651833757	 0.340959
C	 0.0008865539	-0.2716195312	 2.5554758008	-0.515395
H	 0.9188422918	 1.824826368	 0.4505529149	 0.132717
H	 0.0326245358	 1.6755124122	-1.0887285035	 0.160448
H	-0.8604962713	 1.8393294334	 0.4432126144	 0.134282
H	-0.0098703941	-2.8259179774	-1.4143955544	 0.096267
H	-0.1991377402	-4.1080578843	 0.9953793553	 0.238189
H	 0.8414864805	-3.417678278	 2.0481166483	 0.239474
H	 0.9706247291	 0.1409551977	 2.8629538697	 0.127913
H	-0.7439923959	 0.5222675182	 2.681347945	 0.129668
H	-0.2520810763	-1.0813706919	 3.2450919669	 0.147215
79.4691	108.203	145.7907	156.3956	244.222	253.7722	288.8078	332.4238	499.8794	592.5428	647.1776	681.7576	718.5572	775.4583	826.9931	852.2961	954.6	1040.2792	1062.6846	1109.0671	1149.2129	1167.5287	1219.666	1253.158	1349.897	1405.975	1411.4976	1425.4608	1455.541	1481.0536	1488.4072	1493.3745	1504.2448	1534.8955	1629.1059	1657.8171	3016.7017	3030.9753	3068.1136	3085.0546	3116.7354	3163.2514	3230.9192	3506.4364	3592.9115
CN1N=CC(N)=C1C	Cn1ncc(N)c1C	
InChI=1S/C5H9N3/c1-4-5(6)3-7-8(4)2/h3H,6H2,1-2H3	InChI=1S/C5H9N3/c1-4-5(6)3-7-8(4)2/h3H,6H2,1-2H3
