25
gdb 100068	3.92781	0.68757	0.68054	0.1428	98.22	-0.2404	0.0566	0.297	1853.5777	0.225172	-352.350679	-352.338582	-352.337638	-352.389135	43.277	
C	 0.2617890201	 1.5045852179	 0.0075211352	-0.407907
C	-0.0242327097	-0.0010706447	 0.0022670124	-0.172807
C	-1.5145548335	-0.4245552303	 0.0142459865	 0.2703
C	-2.2199785235	 0.082024362	 1.2837239835	-0.409408
C	-2.2440587184	 0.0954923986	-1.2360307344	-0.409408
C	-1.5275425038	-1.9847134056	 0.0060324746	-0.378065
C	-2.8520650589	-2.5972811781	 0.0153977437	 0.030147
C	-3.9465927516	-3.1011522911	 0.0231457894	 0.107143
C	-5.2630862141	-3.7246891084	 0.0323558538	-0.499769
H	 1.3416041509	 1.6842144051	-0.001774122	 0.112311
H	-0.1591466068	 2.0044930119	-0.870003452	 0.118265
H	-0.1423694388	 1.9951399678	 0.898114185	 0.118264
H	 0.4521285714	-0.4468283545	-0.8815554703	 0.088218
H	 0.4688666819	-0.4561344465	 0.8720552073	 0.088219
H	-2.2731864713	 1.1744562227	 1.304315328	 0.109706
H	-3.2420891033	-0.3038365356	 1.3357888536	 0.123736
H	-1.6916407125	-0.2457404632	 2.1866711105	 0.103915
H	-1.733110261	-0.2225513893	-2.152362678	 0.103915
H	-3.2670193016	-0.2898892652	-1.272671681	 0.123736
H	-2.2975314546	 1.1880769751	-1.2439231	 0.109706
H	-0.9759669993	-2.3325375313	-0.8780803154	 0.116865
H	-0.9592309052	-2.3419098661	 0.8756903774	 0.116865
H	-5.1846208653	-4.817713671	 0.0245042139	 0.146143
H	-5.8343133004	-3.4424421623	 0.9238526053	 0.144954
H	-5.8520878206	-3.431024558	-0.8437542769	 0.144955
20.0174	60.1269	81.3448	90.4635	203.9972	216.0343	217.2969	265.2667	273.6152	280.1653	321.6757	338.2331	381.0686	390.2386	404.6606	422.9397	558.0252	732.1991	773.1809	784.6438	871.5567	891.3287	948.0486	956.8163	999.1728	1030.2686	1053.6257	1054.7692	1072.3448	1079.7979	1168.331	1186.0395	1204.9831	1248.2937	1269.1089	1337.0117	1346.9359	1370.6911	1396.6997	1409.8875	1415.6557	1421.3499	1463.6333	1479.3563	1480.2648	1480.803	1484.72	1489.2617	1507.5627	1508.336	1508.6144	1513.0844	2367.1367	3001.2828	3007.2967	3024.6074	3027.3931	3032.7672	3033.1922	3040.4777	3040.8116	3084.0987	3084.1172	3094.9708	3097.0411	3103.3463	3107.7273	3114.3057	3114.8718
CCC(C)(C)CC#CC	CCC(C)(C)CC#CC	
InChI=1S/C9H16/c1-5-7-8-9(3,4)6-2/h6,8H2,1-4H3	InChI=1S/C9H16/c1-5-7-8-9(3,4)6-2/h6,8H2,1-4H3
