19
gdb 60156	4.1445	0.76979	0.75811	3.9699	72.65	-0.2705	0.0153	0.2858	1560.3703	0.157569	-460.196556	-460.18713	-460.186186	-460.231524	34.27	
C	-0.2652902968	 1.5887674951	 0.0371842265	-0.402719
C	-0.0064509703	 0.083104423	 0.0126490089	 0.124112
O	-1.2071165971	-0.6540226893	 0.2456102412	-0.436833
C	 0.5216829406	-0.3929513305	-1.3420787064	-0.200413
C	 0.8716862334	-1.8664163172	-1.348256802	 0.136604
C	 1.641075304	-2.4279417587	-2.5575248613	-0.445298
C	 2.756469144	-2.6607571677	-1.5378350277	 0.447909
O	 3.8596185531	-3.1028515849	-1.5199462416	-0.317733
O	 2.0398955627	-2.1533279779	-0.4852535396	-0.256291
H	 0.6577272583	 2.1511764333	-0.1375698813	 0.119615
H	-0.9955945789	 1.8643174448	-0.7303386563	 0.124068
H	-0.6624595054	 1.8966256501	 1.0107574112	 0.108869
H	 0.7438122646	-0.1692538945	 0.7777229409	 0.091298
H	-1.5045091722	-0.4675937126	 1.1412552405	 0.285924
H	-0.2499263757	-0.2147287498	-2.1020198349	 0.113839
H	 1.4053531947	 0.192942282	-1.6196178452	 0.104237
H	 0.0281341623	-2.4706633334	-1.0119575151	 0.118742
H	 1.2478074554	-3.3401259777	-3.0087174091	 0.144426
H	 1.8932575632	-1.7101303439	-3.3409612487	 0.139644
61.4056	70.0484	121.4184	156.5042	240.3182	269.7201	298.3711	330.663	434.9842	461.894	486.5497	523.4756	538.1074	726.4808	832.9428	843.2804	866.3898	917.9846	946.5861	969.14	1021.5079	1068.8607	1094.1593	1099.8631	1114.6029	1138.9116	1172.8061	1221.7397	1225.701	1283.1084	1305.6472	1341.7604	1376.9368	1407.0769	1408.9852	1429.3988	1457.3661	1458.0358	1493.6952	1498.364	1937.5276	2989.8442	3028.2938	3032.8062	3077.512	3085.946	3098.7474	3112.0999	3115.7022	3144.5783	3826.7607
CC(O)CC1CC(=O)O1	C[C@@H](O)C[C@H]1CC(=O)O1	
InChI=1S/C6H10O3/c1-4(7)2-5-3-6(8)9-5/h4-5,7H,2-3H2,1H3	InChI=1S/C6H10O3/c1-4(7)2-5-3-6(8)9-5/h4-5,7H,2-3H2,1H3/t4-,5+/m1/s1
