18
gdb 67664	3.05911	1.8804	1.63763	1.4197	73.67	-0.2128	0.0732	0.286	882.5863	0.150131	-401.881736	-401.875234	-401.874289	-401.912112	27.821	
O	-0.1060355814	 1.3836633136	 0.1161922719	-0.467085
C	 0.0289347542	 0.0097027902	 0.0776082662	 0.38522
C	-0.0491441945	-0.7724158577	-1.2284102407	-0.143587
C	 0.7772896403	-2.0439849728	-1.37704912	-0.192769
N	 0.8881106303	-2.5932599238	-0.012803395	-0.13166
C	 1.8373464984	-1.722475685	 0.773558803	-0.191308
C	 0.6675591625	-0.8384048993	 1.2107243508	-0.117932
C	-0.2925011537	-1.9713812668	 0.7628223375	-0.008484
C	-1.0775916284	-1.0061644337	-0.1459747423	-0.141363
H	 0.6717602958	 1.7808417549	-0.2914375876	 0.285353
H	-0.3542530993	-0.1882778785	-2.0909398219	 0.087696
H	 0.2502534966	-2.7531591068	-2.0281565182	 0.099878
H	 1.7787048003	-1.8930471583	-1.7931386217	 0.099772
H	 2.2777454161	-2.2957199271	 1.5957166381	 0.102817
H	 2.6433843231	-1.2736477188	 0.1819956784	 0.090024
H	 0.6144897463	-0.3680479259	 2.1941845985	 0.072441
H	-0.8033489463	-2.6551621964	 1.4368990218	 0.076688
H	-2.1482762602	-0.9004933577	-0.2574809489	 0.094299
217.5915	258.2559	300.6452	361.3454	453.0781	492.5845	582.9996	651.0485	679.5026	704.9737	801.312	806.3174	853.7059	859.471	897.5347	917.3203	918.6908	954.4716	972.1091	983.678	1016.001	1043.4875	1073.2805	1113.9566	1157.1765	1161.1393	1187.2658	1201.5408	1225.8975	1234.9599	1255.7597	1263.3394	1281.2753	1303.0657	1317.185	1346.2463	1449.6825	1496.3239	1510.4361	3018.5762	3028.0466	3070.6915	3079.0196	3097.4677	3137.6244	3168.9909	3205.4629	3789.5436
OC12C3CN4CC1C4C23	O[C@@]12[C@H]3CN4C[C@@H]1[C@H]4[C@@H]23	
InChI=1S/C7H9NO/c9-7-3-1-8-2-4(7)6(8)5(3)7/h3-6,9H,1-2H2	InChI=1S/C7H9NO/c9-7-3-1-8-2-4(7)6(8)5(3)7/h3-6,9H,1-2H2/t3-,4+,5-,6-,7-/m0/s1
