19
gdb 99856	2.08286	1.2938	1.2086	4.6677	71.61	-0.2479	0.0145	0.2624	1186.937	0.156657	-456.340498	-456.329841	-456.328897	-456.375555	38.803	
C	 0.0488796735	 1.5388895402	-0.0592277858	-0.417706
C	-0.0024007499	 0.0199710498	 0.0788764799	 0.080918
O	 0.6803461234	-0.4430103063	 1.2295731613	-0.427635
C	-1.4578741628	-0.5493880118	 0.041109857	 0.182948
O	-2.1621337779	-0.082496872	-1.1093627985	-0.459222
C	-1.4475763343	-2.0892643923	 0.0704337355	-0.182414
N	-2.80823786	-2.5946831932	 0.1260360027	-0.50209
C	-2.1786553274	-0.0261400799	 1.2184498387	 0.320087
N	-2.6284142617	 0.4176423202	 2.1856066182	-0.347571
H	 1.0908391761	 1.8672056734	-0.0818643652	 0.12808
H	-0.451461937	 1.8689387098	-0.9722547238	 0.129833
H	-0.4503642383	 2.0210373746	 0.7882441996	 0.139552
H	 0.5238644464	-0.4432640804	-0.7668497994	 0.086213
H	 0.3161271605	 0.0190667256	 1.9952650646	 0.296332
H	-1.668190605	-0.3825829269	-1.8821519253	 0.289268
H	-0.862908935	-2.4093416491	-0.814466171	 0.073699
H	-0.8934313116	-2.4192019188	 0.9522967919	 0.13953
H	-3.3222093043	-2.3032921654	-0.6985081555	 0.234724
H	-2.8167222947	-3.6074107975	 0.1572661451	 0.235455
82.3129	121.2135	147.6178	159.463	203.1513	225.5461	253.5235	282.9354	303.0288	333.0174	378.6181	382.6661	434.9182	447.5323	493.6124	603.7643	670.7558	687.4537	833.6793	895.7733	916.3774	1000.761	1026.2313	1065.7908	1094.9284	1123.0464	1128.052	1159.4516	1207.817	1289.0739	1304.2057	1332.6938	1401.4885	1409.5386	1416.4435	1427.3609	1489.2294	1496.9296	1507.0557	1647.0143	2359.915	2906.5718	3020.9757	3045.4484	3106.1877	3118.0453	3138.0362	3515.1974	3600.1673	3780.0891	3789.6284
CC(O)C(O)(CN)C#N	C[C@@H](O)[C@@](O)(CN)C#N	
InChI=1S/C5H10N2O2/c1-4(8)5(9,2-6)3-7/h4,8-9H,2,6H2,1H3	InChI=1S/C5H10N2O2/c1-4(8)5(9,2-6)3-7/h4,8-9H,2,6H2,1H3/t4-,5-/m1/s1
