18
gdb 19061	5.18556	1.64832	1.63618	1.6273	70.97	-0.2488	0.0903	0.339	871.935	0.155632	-347.759105	-347.752686	-347.751742	-347.78926	26.477	
C	-0.0473400551	 1.4740957288	 0.0028508902	-0.427845
C	 0.0100933314	-0.0378169388	 0.0213152879	-0.005631
C	 1.331695179	-0.7147837478	-0.2515089276	-0.068444
C	 0.7427035433	-0.7200078778	 1.1514669743	-0.068438
C	 0.537784917	-2.2456071487	 1.2920151248	 0.0475
C	 1.8958183514	-2.8191762945	 0.8026103078	-0.215953
C	 1.2925615977	-2.2389113056	-0.5058723699	 0.047502
O	-0.0223291793	-2.6267272457	-0.0019359364	-0.287405
H	 0.8759276232	 1.9168758627	 0.3919172482	 0.110617
H	-0.1921442695	 1.8499846303	-1.0158643283	 0.118536
H	-0.8767146724	 1.8439033538	 0.6155690037	 0.118536
H	-0.8750076733	-0.5409919009	-0.3521421941	 0.103889
H	 2.209144868	-0.1407366108	-0.5256386535	 0.08435
H	 1.160005859	-0.1500400025	 1.9734102462	 0.084349
H	-0.0132090358	-2.6379145032	 2.146683903	 0.08033
H	 2.822442916	-2.3898389711	 1.1932184536	 0.09195
H	 1.9148416784	-3.9105822672	 0.8065308518	 0.105825
H	 1.517798471	-2.624332611	-1.5001947317	 0.080331
209.0523	214.3131	254.4525	384.1404	413.6663	471.6712	641.9421	705.4857	784.8254	806.2137	825.9608	854.4452	862.5192	922.1641	929.7219	939.0657	955.1946	1003.2494	1026.6037	1065.0598	1073.7075	1087.6204	1097.8141	1131.8241	1150.6154	1177.9029	1201.3359	1223.135	1255.973	1262.3572	1277.199	1285.7571	1313.0441	1416.915	1422.7622	1483.8231	1495.5742	1501.4745	3027.1683	3060.9115	3091.7244	3093.1308	3120.8713	3123.2004	3136.9277	3172.3824	3174.9688	3184.7366
CC1C2C1C1CC2O1	C[C@H]1[C@H]2[C@@H]1[C@@H]1C[C@H]2O1	
InChI=1S/C7H10O/c1-3-6-4-2-5(8-4)7(3)6/h3-7H,2H2,1H3	InChI=1S/C7H10O/c1-3-6-4-2-5(8-4)7(3)6/h3-7H,2H2,1H3/t3-,4+,5-,6+,7-
