19
gdb 54143	2.43128	1.40621	1.11151	2.7033	73.81	-0.238	-0.0135	0.2245	1164.2788	0.155087	-460.171962	-460.162062	-460.161118	-460.20613	37.478	
C	-0.0638908395	 1.4910959875	 0.1350300104	-0.471651
C	 0.0431589453	 0.0122346633	-0.168114222	 0.335981
O	 1.1028365602	-0.5199019223	-0.4407793326	-0.332256
C	-1.2257726805	-0.7749189093	-0.1151636141	 0.238917
O	-2.3772301868	 0.0016346542	-0.001460826	-0.479567
C	-1.3011894542	-2.0920883265	-0.8815625108	-0.367653
C	-1.2657517589	-2.1480952781	 0.6072941927	 0.345243
C	-0.1021582309	-2.7253597301	 1.368409624	-0.486259
O	-2.5299932142	-2.3880952676	 1.1864714977	-0.4592
H	 0.9314469815	 1.9357418776	 0.1159598723	 0.131592
H	-0.7123325322	 1.9785114533	-0.6000708323	 0.153571
H	-0.5388200052	 1.6491415103	 1.1083720666	 0.137901
H	-3.0100041772	-0.5395074518	 0.4946067302	 0.28469
H	-2.247817703	-2.2982812533	-1.3687885335	 0.126616
H	-0.4029164483	-2.3867538312	-1.4123439522	 0.141856
H	 0.8392808383	-2.4538552587	 0.8904689386	 0.171928
H	-0.0801337688	-2.3491188692	 2.3996310868	 0.107688
H	-0.1849847248	-3.8167026544	 1.4046437567	 0.129203
H	-2.4427285306	-2.2603126937	 2.1385932075	 0.291402
72.5059	145.3066	160.5322	188.9378	239.2954	274.7842	301.2417	312.0902	359.976	383.4539	434.6009	470.414	508.0122	548.1015	577.7816	604.7663	671.8385	737.576	820.2213	888.8159	936.4793	963.0154	994.3733	1044.9425	1062.8506	1083.1801	1106.5323	1170.4574	1239.6816	1259.594	1293.6991	1381.5648	1391.4253	1413.8359	1423.3429	1454.9901	1460.1799	1467.8374	1496.4984	1506.8981	1774.6915	3021.3779	3047.6037	3085.805	3109.4445	3135.8237	3153.9846	3158.162	3238.4583	3707.9889	3790.4694
CC(=O)C1(O)CC1(C)O	CC(=O)[C@@]1(O)C[C@]1(C)O	
InChI=1S/C6H10O3/c1-4(7)6(9)3-5(6,2)8/h8-9H,3H2,1-2H3	InChI=1S/C6H10O3/c1-4(7)6(9)3-5(6,2)8/h8-9H,3H2,1-2H3/t5-,6-/m0/s1
