15
gdb 55330	2.18202	1.57554	1.10433	5.8158	65.13	-0.2651	-0.0092	0.2559	1088.7643	0.112074	-453.95627	-453.94737	-453.946426	-453.991299	30.86	
N	 0.1443341683	 1.183455433	-0.4578977402	-0.529889
C	-0.1154172125	 0.1761813759	 0.4203684472	 0.390905
O	 0.5118286255	 0.0019247377	 1.4446941784	-0.353767
C	-1.298425665	-0.7201808023	 0.0866736776	-0.149714
C	-1.8297469269	-0.9787326761	-1.3398830589	-0.110889
O	-1.7910402123	-2.4068446549	-1.1267128944	-0.264838
C	-1.0662716565	-2.2595226461	 0.1119659698	-0.017714
C	 0.3227004768	-2.7176099611	-0.0173521653	 0.309844
N	 1.4015805337	-3.1065435469	-0.1557980334	-0.325593
H	 0.9438735047	 1.7693128864	-0.2765263877	 0.27239
H	-0.3130444701	 1.2621054401	-1.3486130111	 0.264214
H	-2.1031983974	-0.4592049984	 0.7776263331	 0.138764
H	-2.8413559444	-0.6282971925	-1.5642345639	 0.125058
H	-1.1507827907	-0.6803985451	-2.1501778297	 0.111279
H	-1.5457591631	-2.8016433396	 0.9321968583	 0.139948
27.2437	81.7036	112.3519	199.681	212.807	231.3617	306.1594	440.3229	454.7728	530.9949	564.3178	617.9129	688.5488	773.6282	827.774	904.6167	966.2269	1022.3936	1035.544	1052.7766	1093.1113	1104.3648	1173.14	1213.5205	1253.8299	1308.4297	1353.0052	1359.8567	1384.8545	1521.9413	1618.3943	1799.8987	2360.0625	3009.8448	3070.732	3080.4807	3098.334	3602.0075	3737.8386
NC(=O)C1COC1C#N	NC(=O)[C@H]1CO[C@H]1C#N	
InChI=1S/C5H6N2O2/c6-1-4-3(2-9-4)5(7)8/h3-4H,2H2,(H2,7,8)	InChI=1S/C5H6N2O2/c6-1-4-3(2-9-4)5(7)8/h3-4H,2H2,(H2,7,8)/t3-,4-/m0/s1
