19
gdb 73012	2.85724	1.50372	1.23484	1.1286	75.9	-0.2114	0.0647	0.2761	1079.9808	0.158415	-422.960929	-422.952602	-422.951658	-422.993815	31.551	
C	 0.0825903586	 1.485154453	 0.0630593466	-0.498664
C	 0.0035024565	-0.0013528975	 0.1305236367	 0.36518
O	-0.7163824078	-0.7106834003	-0.8911775075	-0.319742
C	-1.2361303327	-1.6501127497	 0.0908815999	-0.093009
C	-0.4142035474	-1.0213880464	 1.2027825884	-0.282636
C	 1.0144545181	-0.9165760697	 0.7357818997	 0.421109
C	 2.0016067684	-1.9025161143	 0.1239566398	-0.363552
C	 3.0053064729	-1.232159479	 1.0884131512	-0.07894
O	 1.9741073838	-0.3763561872	 1.6458536488	-0.323909
H	 0.7220042561	 1.8529516198	 0.8697042193	 0.144065
H	 0.5245692967	 1.7940930449	-0.8914325093	 0.129763
H	-0.9053261528	 1.9485175078	 0.1455737343	 0.124577
H	-2.3184297621	-1.5223623996	 0.2093229882	 0.110234
H	-1.0179851204	-2.6915469469	-0.1768949123	 0.102248
H	-0.6927912043	-0.8929238727	 2.2407051978	 0.105903
H	 1.7977993459	-2.9551957351	 0.3305161757	 0.113591
H	 2.1930688131	-1.7702817677	-0.9415869026	 0.124699
H	 3.44336725	-1.8791914696	 1.8553145563	 0.109593
H	 3.7985177274	-0.6455489696	 0.6118290491	 0.109489
90.2658	154.3707	178.0203	202.2645	217.3938	271.3262	360.499	448.7016	503.202	566.7927	678.3753	747.9284	794.9597	845.8672	882.8085	920.963	933.169	968.9161	969.469	988.3646	1008.8483	1060.8215	1101.9424	1110.9304	1127.4197	1154.2724	1163.9583	1193.5458	1203.1346	1213.6061	1250.4713	1275.1945	1339.3968	1349.6671	1403.7962	1472.8949	1478.2775	1490.2444	1504.7781	1521.8051	1533.5972	3016.0161	3032.1057	3033.2105	3061.4499	3075.1621	3080.077	3095.1272	3127.1883	3134.216	3199.1184
CC12OCC1C21CCO1	C[C@]12OC[C@H]1[C@]12CCO1	
InChI=1S/C7H10O2/c1-6-5(4-9-6)7(6)2-3-8-7/h5H,2-4H2,1H3	InChI=1S/C7H10O2/c1-6-5(4-9-6)7(6)2-3-8-7/h5H,2-4H2,1H3/t5-,6+,7+/m1/s1
