20
gdb 100212	2.60731	1.11337	0.95904	3.8784	84.58	-0.2733	0.0318	0.3051	1330.9763	0.167777	-366.004249	-365.993672	-365.992728	-366.039572	38.517	
C	 0.1503396237	 1.5426179788	 0.0509463426	-0.413615
C	-0.0262044539	 0.0235191884	-0.0019479315	-0.185523
C	-1.496708529	-0.4807066732	-0.012950304	 0.067629
C	-2.2665704107	 0.0241319021	-1.2508994747	-0.412838
C	-1.469365608	-2.0431390907	 0.0077570081	-0.382907
C	-2.7819818445	-2.67275815	 0.0225335554	 0.303584
C	-3.8688559913	-3.1847471741	 0.0348576045	-0.424957
C	-2.1709706881	-0.0031891152	 1.2060161942	 0.297747
N	-2.6778121382	 0.3905184445	 2.1674216464	-0.350163
H	 1.2128271375	 1.7937887055	 0.1176697911	 0.122441
H	-0.2471315049	 2.0334239546	-0.8419972808	 0.123451
H	-0.3507529958	 1.9691777675	 0.9249539687	 0.147117
H	 0.4575530316	-0.3779840499	-0.9009145265	 0.103609
H	 0.4827832525	-0.4298281342	 0.8565630505	 0.113697
H	-1.7371170528	-0.2810890908	-2.1595063333	 0.119885
H	-3.2717750576	-0.4011677839	-1.2760365062	 0.150355
H	-2.3532372013	 1.112241602	-1.2489929645	 0.137183
H	-0.910799407	-2.3711872685	-0.8779363722	 0.135483
H	-0.8939234959	-2.3732158101	 0.8804381212	 0.145158
H	-4.8276856262	-3.6407814629	 0.0579611509	 0.202664
70.6992	94.8688	121.784	159.5978	190.6283	226.0845	264.2903	269.2773	335.8734	345.9778	369.1743	390.6761	472.4288	580.0427	627.6439	633.1792	656.3826	702.285	790.7303	867.3777	904.162	943.2916	982.2398	1018.6621	1037.968	1081.7502	1156.3569	1180.9755	1197.4935	1265.2936	1330.973	1343.1436	1371.6137	1412.6231	1417.8085	1463.3531	1481.4092	1491.6662	1498.7522	1506.4531	1510.6245	2241.8592	2352.126	3024.1427	3029.5825	3044.869	3048.0326	3062.8306	3069.087	3113.5942	3119.7134	3125.1025	3143.7344	3505.1358
CCC(C)(CC#C)C#N	CC[C@@](C)(CC#C)C#N	
InChI=1S/C8H11N/c1-4-6-8(3,5-2)7-9/h1H,5-6H2,2-3H3	InChI=1S/C8H11N/c1-4-6-8(3,5-2)7-9/h1H,5-6H2,2-3H3/t8-/m0/s1
