22
gdb 13818	3.7233	1.11617	0.99829	1.7018	78.94	-0.2558	0.0878	0.3436	1308.9192	0.198037	-350.201297	-350.191409	-350.190464	-350.236365	35.691	
C	 0.0325337456	 1.5181741933	 0.5082078365	-0.374795
C	-0.0168659759	 0.0433462844	 0.9275821673	-0.214435
C	-1.3225031318	-0.6056457955	 0.533089163	 0.072482
O	-1.5197832879	-0.893217405	-0.8597497708	-0.276379
C	-1.4885866824	-1.9907252113	 0.0603511639	 0.072056
C	-0.3813925415	-3.0125604928	-0.0973135845	-0.000044
C	-0.2833943858	-3.886817593	 1.1610463198	-0.392198
C	-0.6250801707	-3.8552545149	-1.3581617921	-0.388291
H	 0.9804466629	 1.9800736433	 0.7994442719	 0.112232
H	-0.0747902927	 1.6108515768	-0.5765548911	 0.134738
H	-0.776604447	 2.090600622	 0.9749279762	 0.114701
H	 0.8211430755	-0.495011967	 0.4759039752	 0.106248
H	 0.0976278446	-0.040353995	 2.0164331292	 0.099048
H	-2.1977637967	-0.145097532	 1.0008172778	 0.080949
H	-2.4721999589	-2.4434410325	 0.2232009821	 0.07847
H	 0.5652753579	-2.4773996523	-0.2285963344	 0.077967
H	-1.221644457	-4.4252338052	 1.3401609932	 0.114966
H	 0.5096932477	-4.6336346442	 1.0553136292	 0.115401
H	-0.0676138467	-3.287680904	 2.0515317306	 0.115362
H	 0.1876441143	-4.5719901108	-1.5139756935	 0.109292
H	-1.5594028753	-4.4236056103	-1.2764054524	 0.110913
H	-0.6954437681	-3.2160313339	-2.242718127	 0.131315
47.5196	68.1822	137.5126	179.7961	215.5549	233.1616	241.5131	274.8649	334.1806	380.0452	441.5047	499.022	580.1144	752.8907	783.959	833.9237	880.58	928.4757	943.9514	953.6292	975.9099	1025.5389	1046.7666	1095.2137	1139.362	1146.3324	1184.5078	1187.9204	1208.5292	1290.5768	1302.44	1315.718	1338.3863	1350.603	1397.3685	1406.2523	1412.3108	1424.9639	1473.2926	1488.466	1490.1797	1492.5099	1498.8919	1502.9535	1508.5507	1516.3176	3026.0976	3026.3845	3029.5079	3036.0843	3042.0003	3053.4785	3064.8824	3086.1258	3090.7971	3098.2988	3104.4042	3108.0297	3114.8963	3116.8402
CCC1OC1C(C)C	CC[C@H]1O[C@H]1C(C)C	
InChI=1S/C7H14O/c1-4-6-7(8-6)5(2)3/h5-7H,4H2,1-3H3	InChI=1S/C7H14O/c1-4-6-7(8-6)5(2)3/h5-7H,4H2,1-3H3/t6-,7+/m1/s1
