15
gdb 13579	4.33799	1.32684	1.24292	1.7163	72.06	-0.2366	-0.0681	0.1685	1010.5997	0.116554	-362.603532	-362.595311	-362.594366	-362.636419	29.527	
C	-0.7535608929	 1.0719883386	 0.366865702	-0.328552
N	 0.0253802596	-0.1484248493	 0.1709028064	-0.078189
C	 1.2732734978	-0.0666088313	-0.541731638	-0.234005
C	 1.2728526156	-0.3718872644	 0.9314429775	-0.111915
C	 1.8245450921	 0.6636441867	 1.8590360993	 0.246176
O	 1.8603726214	 1.8543171028	 1.6075142989	-0.318037
C	 2.3191593192	 0.1442107129	 3.1232082041	 0.239221
C	 2.7394631891	-0.2990456998	 4.1607263089	-0.396165
H	-0.149362263	 1.9736352711	 0.5162311203	 0.147982
H	-1.3835198608	 1.2030040332	-0.5181841527	 0.126285
H	-1.4084892522	 0.9366943194	 1.2328884831	 0.125931
H	 1.4878876261	-0.8731984564	-1.2382274627	 0.12253
H	 1.6488101513	 0.9172960385	-0.8179844202	 0.136355
H	 1.3999793458	-1.3968958821	 1.2673136234	 0.105832
H	 3.1126003109	-0.6727911099	 5.0834065596	 0.216553
52.0091	142.8094	182.2842	235.0579	239.2228	274.7268	362.7607	412.0253	486.8596	605.2542	646.7254	700.7903	717.0009	759.3012	828.5205	877.526	1004.1357	1025.415	1078.648	1108.079	1126.9101	1145.2616	1169.1142	1214.5717	1327.3004	1392.5983	1443.5663	1485.556	1494.3063	1509.0039	1737.5243	2210.5165	3026.9633	3094.6903	3099.9685	3109.2553	3152.7227	3188.2209	3493.9212
CN1CC1C(=O)C#C	CN1C[C@H]1C(=O)C#C	
InChI=1S/C6H7NO/c1-3-6(8)5-4-7(5)2/h1,5H,4H2,2H3	InChI=1S/C6H7NO/c1-3-6(8)5-4-7(5)2/h1,5H,4H2,2H3/t5-,7?/m0/s1
