24
gdb 6800	6.0948	0.62734	0.59422	1.3589	82.92	-0.2607	0.0739	0.3346	1972.2504	0.221395	-351.421494	-351.410726	-351.409782	-351.45773	38.531	
C	 0.0440444719	 1.5941375087	-0.0162984044	-0.379209
C	 0.0178989228	 0.0634448345	-0.004027739	-0.161811
C	-1.4000083363	-0.5176770628	 0.0226817031	-0.161874
C	-1.4303691888	-2.0490155456	 0.0236159879	-0.173192
C	-2.8459105992	-2.6326986529	 0.0594293677	-0.193652
C	-2.8799531184	-4.1644095932	-0.0245655919	 0.13707
C	-4.2982183717	-4.7239360804	 0.0927678914	-0.401116
O	-2.2385942025	-4.6395523198	-1.2087079297	-0.428112
H	 1.0690920719	 1.9777071275	-0.0347948203	 0.109809
H	-0.4758647995	 1.9921370638	-0.8950672295	 0.111644
H	-0.449081693	 2.0060424471	 0.8715051733	 0.111797
H	 0.5479438785	-0.3202558082	-0.8858658747	 0.094483
H	 0.5758120134	-0.3058969538	 0.8667325113	 0.093367
H	-1.9300527641	-0.1380634289	 0.908048268	 0.087667
H	-1.9607931029	-0.1424815461	-0.8454498811	 0.087165
H	-0.9142389083	-2.4339554443	-0.8634915258	 0.106266
H	-0.8651631953	-2.4238442837	 0.8885606704	 0.089265
H	-3.3595524929	-2.3160052407	 0.9771647363	 0.091258
H	-3.4378730706	-2.2241366751	-0.7745940098	 0.078899
H	-2.2682135254	-4.5736674866	 0.7900366517	 0.086058
H	-4.9391487265	-4.3267011707	-0.7049172479	 0.103897
H	-4.2854364782	-5.8140047734	 0.0084916578	 0.122224
H	-4.7553092753	-4.4532286773	 1.0501823333	 0.114313
H	-2.7647726695	-4.3424967181	-1.9598532981	 0.273785
58.8463	69.7562	96.2552	139.2653	150.6062	226.8922	246.8822	249.2114	278.8196	299.558	385.5306	425.9478	482.001	513.9423	734.1052	760.3816	830.1317	854.3284	903.979	939.0878	952.4397	1005.4136	1024.004	1053.0766	1068.6692	1080.7791	1110.5224	1143.3937	1173.7055	1226.3094	1257.7267	1282.4972	1318.2959	1321.4961	1330.7229	1346.2462	1368.114	1396.2884	1399.8661	1405.3914	1414.0825	1421.816	1475.4777	1484.5527	1490.2646	1493.3929	1496.4829	1500.1068	1504.904	1514.9662	2987.8167	2998.4444	3010.9261	3017.2209	3020.9498	3024.4712	3027.8286	3028.4879	3039.8552	3049.3158	3073.6302	3092.2995	3093.9499	3099.4844	3117.2943	3792.5959
CCCCCC(C)O	CCCCC[C@@H](C)O	
InChI=1S/C7H16O/c1-3-4-5-6-7(2)8/h7-8H,3-6H2,1-2H3	InChI=1S/C7H16O/c1-3-4-5-6-7(2)8/h7-8H,3-6H2,1-2H3/t7-/m1/s1
