21
gdb 95244	2.77194	1.47428	1.1354	0.3238	78.47	-0.2286	0.0828	0.3114	1147.8601	0.183625	-424.20594	-424.197663	-424.196719	-424.238523	32.879	
C	-0.3055627086	 1.4698315494	 0.0474241888	-0.400385
C	-0.0031592469	-0.0235205885	-0.028772057	 0.112883
C	 0.6975376759	-0.3777043199	-1.3469506942	-0.080393
O	 0.8055570562	-1.7636502484	-1.5941985585	-0.257112
C	 1.7032038075	-2.5251712786	-0.8382453522	 0.127439
C	 2.8867699094	-1.9976038271	-0.0674022038	-0.346281
C	 1.6965907258	-2.5987328347	 0.6640859097	-0.059748
C	 0.8086802328	-1.6953137069	 1.5025475619	-0.107966
O	 0.7980469808	-0.3378566633	 1.1055949512	-0.257054
H	 0.6192311368	 2.0519979686	-0.0192625776	 0.124588
H	-0.9689207809	 1.7775506173	-0.7660430462	 0.116089
H	-0.7860518322	 1.7059817225	 0.9996089092	 0.126539
H	-0.9407280231	-0.6011684527	 0.0202716456	 0.073685
H	 0.1035358547	 0.0121520029	-2.1805914995	 0.104999
H	 1.6814669185	 0.1124144461	-1.3775887817	 0.099493
H	 1.856764635	-3.4639335049	-1.3612733099	 0.098876
H	 3.8201031239	-2.5469059403	-0.1240628341	 0.109435
H	 3.0017527306	-0.9268718363	 0.0465695686	 0.13144
H	 1.8151862093	-3.5892138852	 1.0981953097	 0.082938
H	-0.2200210927	-2.0926942386	 1.514916534	 0.093001
H	 1.1725182473	-1.6930711415	 2.536466506	 0.107533
81.73	200.4726	222.411	245.4203	290.0923	319.2699	353.2679	431.9308	477.84	489.4141	587.0642	659.3637	738.9708	771.1755	816.9894	843.6417	895.8643	935.3325	946.6016	1007.5371	1053.2522	1054.6253	1075.4688	1087.4065	1127.4968	1133.0966	1149.3197	1162.3829	1169.0081	1187.7456	1262.3703	1291.5943	1311.4052	1332.4583	1376.2161	1385.5639	1396.9025	1409.3118	1419.9867	1422.6513	1482.2496	1488.3395	1491.0915	1491.6786	1501.9188	2965.7004	2974.3823	3005.3947	3043.8149	3055.1639	3073.8039	3115.0387	3128.5302	3128.7158	3142.1602	3158.7125	3232.8057
CC1COC2CC2CO1	C[C@H]1CO[C@H]2C[C@H]2CO1	
InChI=1S/C7H12O2/c1-5-3-9-7-2-6(7)4-8-5/h5-7H,2-4H2,1H3	InChI=1S/C7H12O2/c1-5-3-9-7-2-6(7)4-8-5/h5-7H,2-4H2,1H3/t5-,6-,7-/m0/s1
