17
gdb 97094	2.47035	1.22903	1.11033	3.9185	76.17	-0.27	-0.0004	0.2696	1203.5419	0.134593	-418.014864	-418.005412	-418.004467	-418.049555	32.884	
C	-0.1114621998	 1.4075276723	-0.0658753433	-0.344786
N	-0.2007502741	-0.036464428	-0.2361298274	-0.316829
C	 0.5913320799	-0.624585996	-0.9938934947	 0.462047
O	 1.6407060109	-0.1697141265	-1.7739553193	-0.265047
C	 1.9359679573	-1.5101429993	-2.2547191821	-0.105152
C	 0.7941035085	-2.0973620696	-1.3700941556	-0.034152
C	 1.2222476046	-2.9959701573	-0.2032747435	-0.444621
C	-0.3082499317	-2.6834845794	-2.1248628062	 0.259142
N	-1.1667343166	-3.1624013758	-2.7323430377	-0.331802
H	 0.7021661473	 1.8753410844	-0.6314284167	 0.130997
H	-1.0610653565	 1.857684353	-0.3730885625	 0.140349
H	 0.0206483978	 1.6307531531	 0.9977932744	 0.134924
H	 1.7905987224	-1.5872651397	-3.3334729051	 0.144508
H	 2.9437684177	-1.8224273242	-1.9712277377	 0.130589
H	 2.0646915078	-2.5423446753	 0.3254787617	 0.135429
H	 0.394591075	-3.1115460888	 0.4998013238	 0.162608
H	 1.5186657393	-3.9845096228	-0.5637733282	 0.141795
86.1065	91.6879	108.5074	160.3561	194.3471	214.3219	244.4683	287.6419	354.3688	428.935	545.0358	593.4337	653.5199	711.1813	760.3977	892.0413	930.7302	977.6677	992.9135	1042.4565	1096.5221	1131.7644	1149.0813	1154.6344	1174.3456	1205.9868	1254.7784	1346.6327	1412.9425	1439.4978	1486.9948	1492.6256	1494.164	1497.0872	1514.234	1858.649	2359.73	3023.6209	3050.5807	3069.4333	3094.7326	3096.3937	3128.2919	3136.395	3140.1445
CN=C1OCC1(C)C#N	CN=C1OC[C@]1(C)C#N	
InChI=1S/C6H8N2O/c1-6(3-7)4-9-5(6)8-2/h4H2,1-2H3	InChI=1S/C6H8N2O/c1-6(3-7)4-9-5(6)8-2/h4H2,1-2H3/t6-/m0/s1
