18
gdb 81738	3.15035	1.27186	1.06791	2.0239	79.72	-0.2331	0.0255	0.2586	1157.3107	0.146457	-401.873249	-401.864433	-401.863489	-401.906395	33.954	
C	-0.1809780863	 1.5545485409	 0.0203289602	-0.414485
C	-0.0272008076	 0.0447381182	-0.051561172	-0.094565
C	 1.1034783735	-0.5646798679	-0.9879497472	 0.133995
O	 1.9726229465	 0.3166468693	-1.6387253344	-0.430402
C	 1.6734180209	-1.2971897476	 0.2343332216	-0.158964
N	 2.0599267794	-0.2100153446	 1.1552337467	-0.395491
C	 0.6389357503	-0.6840953056	 1.1324829842	 0.236123
C	 0.0168378082	-1.2132368561	 2.2951891975	 0.139654
C	-0.5349682177	-1.6445345071	 3.2743754079	-0.393346
H	 0.7486272954	 2.0306607776	 0.3414129189	 0.12593
H	-0.4496701915	 1.9599120713	-0.9598467768	 0.125084
H	-0.9664519296	 1.8318165786	 0.7308502124	 0.118803
H	-0.9824405785	-0.4351068049	-0.2834823243	 0.083051
H	 0.6905206152	-1.2330486112	-1.7457774984	 0.092811
H	 2.4637376136	 0.7655903141	-0.9372797167	 0.29388
H	 2.1414003661	-2.2725543425	 0.2916745032	 0.106178
H	 2.5074131582	-0.6287109879	 1.9690454785	 0.242823
H	-1.0199981261	-2.0300214648	 4.1367220588	 0.188921
100.3301	131.7498	169.981	201.2591	223.6318	288.3969	377.8262	461.9386	493.9881	527.2553	579.2322	587.2972	604.6632	656.6976	662.3435	689.8036	786.2733	854.2333	894.6206	930.9148	982.2921	1017.5725	1026.6503	1091.6277	1113.5699	1131.2844	1150.8533	1201.5744	1223.656	1271.3758	1289.2297	1338.7745	1358.2951	1403.0174	1411.3482	1447.7805	1488.1629	1502.4977	2232.5195	3041.449	3066.7541	3099.2431	3107.211	3124.2948	3191.3714	3493.4089	3502.1181	3756.627
CC1C(O)C2NC12C#C	C[C@H]1[C@@H](O)[C@H]2N[C@@]12C#C	
InChI=1S/C7H9NO/c1-3-7-4(2)5(9)6(7)8-7/h1,4-6,8-9H,2H3	InChI=1S/C7H9NO/c1-3-7-4(2)5(9)6(7)8-7/h1,4-6,8-9H,2H3/t4-,5+,6+,7-/m0/s1
