21
gdb 111846	2.07923	1.58823	1.34183	2.9081	77.55	-0.2389	0.0731	0.312	1110.1068	0.183041	-424.214099	-424.205082	-424.204138	-424.24814	34.036	
C	 0.3183035351	 1.4096597083	-0.1653785779	-0.46425
C	 0.2768161453	-0.0749037055	 0.0641972526	 0.408949
O	-0.8264286637	-0.7217684749	-0.5580070675	-0.310385
C	-1.5358147715	-1.5016819799	 0.4150211117	-0.079602
C	-0.5516187839	-1.7991968652	 1.5712328667	-0.264154
C	 0.5693583997	-0.7876120139	 1.3516114514	-0.132745
C	 1.5030054444	-0.9493963004	 0.1474164131	-0.107104
C	 1.5817474847	-2.208680611	-0.6994327386	-0.085322
O	 1.3747140573	-1.9443617874	-2.0775958089	-0.427359
H	 1.1855545807	 1.8504314274	 0.3346524051	 0.118838
H	 0.3945323935	 1.6343154946	-1.2343617688	 0.131302
H	-0.5862316713	 1.8920817814	 0.2202056663	 0.119221
H	-2.4044137303	-0.9321581879	 0.7745821502	 0.101316
H	-1.9032765291	-2.4029722671	-0.0841801298	 0.111329
H	-1.0264349927	-1.637858197	 2.5427648453	 0.1089
H	-0.2013187306	-2.8354801796	 1.5529776487	 0.114539
H	 0.9491502382	-0.246330662	 2.2107418403	 0.090504
H	 2.4397408414	-0.4051409648	 0.2373719833	 0.087893
H	 2.580737056	-2.6485189001	-0.6168998454	 0.105839
H	 0.8745714265	-2.9689455192	-0.3382407269	 0.081565
H	 0.4858217502	-1.5709064461	-2.1314205309	 0.290725
66.9771	79.2511	148.2795	205.8881	211.0794	256.2048	331.0971	384.285	495.1424	539.0437	569.2391	632.5408	681.338	756.0926	795.6498	833.5888	865.9804	913.9672	935.8578	962.0448	994.6253	1035.1083	1064.5165	1068.7427	1082.2958	1113.6991	1130.3953	1140.231	1186.4758	1223.5666	1238.9732	1249.4886	1276.1733	1309.934	1336.692	1385.8032	1393.4082	1413.1462	1439.3569	1458.2213	1479.2599	1497.2773	1499.0917	1508.1384	1525.1191	2996.6325	3002.1576	3033.1748	3054.7107	3071.9192	3079.3695	3098.1888	3098.9425	3113.29	3138.7084	3171.806	3773.5087
CC12OCCC1C2CO	C[C@]12OCC[C@H]1[C@H]2CO	
InChI=1S/C7H12O2/c1-7-5(2-3-9-7)6(7)4-8/h5-6,8H,2-4H2,1H3	InChI=1S/C7H12O2/c1-7-5(2-3-9-7)6(7)4-8/h5-6,8H,2-4H2,1H3/t5-,6+,7-/m0/s1
