19
gdb 103521	2.38149	1.44265	1.17915	1.8507	76.63	-0.2393	-0.0185	0.2208	1130.0999	0.157732	-423.053809	-423.044499	-423.043555	-423.087917	34.402	
C	-0.0376314275	 1.5636221442	-0.0007497256	-0.425958
C	-0.0309516929	 0.021771338	-0.0520719111	 0.114992
C	-1.473216261	-0.5124898603	-0.0257608342	-0.094209
O	-2.1420184468	-0.0283290948	-1.1808271475	-0.429704
C	 0.7741193277	-0.5282673158	-1.2070129781	-0.087429
C	 1.8379436193	-1.2328092903	-0.8190708857	-0.093994
C	 1.9646827025	-1.3138705221	 0.6782853787	-0.376933
C	 0.7314905462	-0.5430378227	 1.1693531054	 0.366099
O	 0.3939983946	-0.3995019553	 2.3164416316	-0.324783
H	 0.9785092875	 1.9636051038	-0.0634928054	 0.114116
H	-0.6222880112	 1.9619653867	-0.8326856457	 0.137554
H	-0.4851489775	 1.9022991803	 0.9387609753	 0.130059
H	-1.4571919543	-1.6134026269	-0.0120412433	 0.087345
H	-1.9562483607	-0.1702495637	 0.9008517101	 0.106789
H	-3.0523203814	-0.3364018728	-1.1529329997	 0.2908
H	 0.483159296	-0.3446391301	-2.2342972345	 0.111021
H	 2.5477580526	-1.7049068066	-1.4887323824	 0.100615
H	 1.9509788397	-2.3370086744	 1.0754268816	 0.136163
H	 2.8791144572	-0.8505444172	 1.0723192606	 0.137458
62.4122	111.6811	164.4076	214.0663	221.1911	242.5672	254.608	336.2902	347.0943	474.4427	549.3485	593.4385	609.0984	693.8338	746.2112	774.7839	881.1291	933.2338	955.102	974.7125	977.3157	994.3236	1055.7836	1086.8859	1125.2727	1131.6281	1166.4485	1192.1965	1214.0222	1275.6346	1278.4073	1298.8294	1377.3748	1397.9372	1443.2133	1449.2	1492.0092	1498.6179	1519.3495	1678.9479	1841.4441	2975.467	3020.3075	3024.5422	3042.1858	3051.6876	3113.612	3133.7103	3190.3215	3215.9845	3834.0467
CC1(CO)C=CCC1=O	C[C@@]1(CO)C=CCC1=O	
InChI=1S/C7H10O2/c1-7(5-8)4-2-3-6(7)9/h2,4,8H,3,5H2,1H3	InChI=1S/C7H10O2/c1-7(5-8)4-2-3-6(7)9/h2,4,8H,3,5H2,1H3/t7-/m0/s1
