18
gdb 40085	4.0723	1.26507	1.08096	2.1804	80.15	-0.2271	-0.0082	0.2188	1128.597	0.148956	-401.882149	-401.874757	-401.873812	-401.913991	29.147	
C	-0.091402495	 1.4726086294	-0.1508631456	-0.306497
N	 1.2056038474	 0.8192440717	 0.1251068495	-0.362341
C	-0.0091190601	 0.0064979205	-0.0139789655	 0.253807
C	-0.467860261	-0.9793063721	 1.095735735	-0.329967
C	-0.2233043503	-2.1429801706	 0.0594108356	 0.09327
O	-1.198978763	-3.1020785298	-0.2948142751	-0.281061
C	-1.5199337423	-2.8889505307	-1.6834142043	-0.105407
C	-1.0680067063	-1.4664824445	-1.992579011	-0.254917
C	-0.2665575609	-1.0882777478	-1.0032186845	 0.174699
H	-0.482153336	 2.0687129057	 0.6695921082	 0.124359
H	-0.2736621606	 1.885813808	-1.1398360622	 0.115006
H	 1.7539138206	 0.7673587109	-0.7304784369	 0.235755
H	 0.1350574182	-0.9886329011	 2.0058775347	 0.115537
H	-1.52937613	-0.8710944733	 1.3284943772	 0.116809
H	 0.7506170876	-2.6210300163	 0.2347199993	 0.0842
H	-1.0283931428	-3.653439302	-2.3073168546	 0.104893
H	-2.6033681045	-3.0038113718	-1.8152393455	 0.115121
H	-1.4853520409	-0.8757846461	-2.7980798343	 0.106734
112.9957	141.5005	238.195	272.5905	341.1884	383.2696	466.3926	508.3695	701.3081	727.024	780.2286	797.1079	833.727	844.516	906.1153	921.5637	942.351	968.5951	972.7938	1017.5081	1023.5398	1038.3672	1079.6233	1114.4595	1129.2493	1139.9024	1182.6789	1198.1927	1234.1601	1254.5529	1268.4778	1290.0841	1342.6679	1369.3803	1411.9172	1461.2643	1509.3741	1514.729	1721.3995	2967.7693	3003.0596	3037.1813	3070.2968	3104.6624	3140.2898	3189.6189	3213.9755	3495.6939
C1NC11CC2OCC=C12	C1N[C@]21C[C@H]1OC[CH][C]21	
InChI=1S/C7H9NO/c1-2-9-6-3-7(4-8-7)5(1)6/h1,6,8H,2-4H2	InChI=1S/C7H9NO/c1-2-9-6-3-7(4-8-7)5(1)6/h1,6,8H,2-4H2/t6-,7+/m1/s1
