21
gdb 40643	3.19804	1.16061	1.1445	1.4256	82.53	-0.2435	0.0824	0.3259	1209.0817	0.184738	-387.064842	-387.056875	-387.055931	-387.097666	31.278	
C	-0.2936580494	 1.3537184897	-0.2755023385	-0.272745
C	 1.11036728	 1.4303714285	 0.2696342984	-0.272765
C	 0.448157923	 0.0859066545	 0.0782251641	 0.01126
C	 0.0260987014	-0.7080947055	 1.276862986	-0.028036
C	-0.6895061735	-2.0405215261	 1.2102193134	-0.092073
C	-0.5815675257	-2.8404427591	-0.0745618794	-0.095571
O	 0.802162391	-2.8574263402	-0.422452318	-0.253589
C	 1.5818493475	-2.7230986078	 0.7650055722	-0.095579
C	 0.7213781585	-1.9639743492	 1.7577399125	-0.092086
H	-1.1055489165	 1.6635867243	 0.3748647593	 0.10664
H	-0.4561178785	 1.5804550479	-1.3235262937	 0.109342
H	 1.9134591655	 1.7098340462	-0.4034934247	 0.109342
H	 1.2388263088	 1.791575526	 1.2851107565	 0.106639
H	 0.8047767834	-0.5043342134	-0.7573092974	 0.108581
H	-0.3248118645	-0.0785525197	 2.0931078243	 0.077733
H	-1.5434988248	-2.222068679	 1.8529501641	 0.085358
H	-0.9616559622	-3.8617673929	 0.0894833896	 0.091754
H	-1.1200262324	-2.4078819768	-0.924992531	 0.10934
H	 1.8464015015	-3.7094532436	 1.1792506366	 0.091756
H	 2.5085051645	-2.2110989047	 0.4831459652	 0.109337
H	 0.9326596724	-2.0877255989	 2.8138705204	 0.085359
69.6417	143.8211	160.5822	233.9058	288.2613	304.232	470.2537	504.3773	704.6102	708.6384	765.9251	770.5038	813.0403	836.8889	883.0881	918.3523	919.3743	931.3743	985.3035	987.0374	1008.6345	1020.0157	1059.2538	1074.5963	1085.1846	1089.1195	1123.9288	1127.9184	1134.5328	1156.1611	1204.091	1223.015	1224.8509	1242.7112	1256.5043	1316.756	1325.4794	1358.3981	1361.6515	1415.9341	1469.7076	1470.8785	1507.6635	1511.8533	1523.7423	2970.6781	2976.5463	3059.7894	3062.6892	3115.6386	3126.2357	3131.2472	3168.277	3178.2931	3185.2044	3203.8339	3220.2949
C1CC1C1C2COCC12	C1CC1[C@H]1[C@H]2COC[C@@H]12	
InChI=1S/C8H12O/c1-2-5(1)8-6-3-9-4-7(6)8/h5-8H,1-4H2	InChI=1S/C8H12O/c1-2-5(1)8-6-3-9-4-7(6)8/h5-8H,1-4H2/t6-,7+,8-
