18
gdb 121206	2.49075	1.01034	0.78016	2.8487	72.4	-0.2672	0.0125	0.2797	1440.8112	0.147003	-439.070627	-439.061206	-439.060262	-439.10624	32.779	
O	 0.1663428525	 1.3539741015	 0.0922075708	-0.41668
C	 0.0585301962	-0.0572896987	 0.026710209	-0.069341
C	-1.3982043157	-0.5293612422	-0.0463232823	-0.222993
C	-1.5000987455	-2.0353567768	-0.1801881247	 0.130536
O	-0.9796657465	-2.7426092036	 0.9707801019	-0.28198
C	-2.2189335653	-3.4283851174	 1.2011259713	-0.073073
C	-2.8957515295	-2.7223829088	-0.0065639003	-0.242524
C	-4.0332929882	-1.8712816004	 0.2915315137	 0.289079
N	-4.9362961446	-1.1933429851	 0.5403287016	-0.327986
H	-0.2032381739	 1.6409160114	 0.9333533831	 0.284448
H	 0.5925977492	-0.3529971658	-0.8835133363	 0.111302
H	 0.5614986692	-0.5455320099	 0.8733844653	 0.112676
H	-1.9376271267	-0.2072694606	 0.8531336468	 0.109498
H	-1.8888436493	-0.0553614031	-0.9049923335	 0.121103
H	-0.9949995055	-2.3739808202	-1.0950421357	 0.091906
H	-2.1229326566	-4.5143465115	 1.0921487618	 0.119082
H	-2.6509861298	-3.1955053389	 2.1796548526	 0.129159
H	-3.15482516	-3.3950865199	-0.826020395	 0.135787
49.3577	89.6217	91.3204	105.8641	185.7437	232.0213	299.0722	335.2045	373.128	486.5207	525.0122	592.0877	754.6913	791.865	840.8226	887.6268	930.1493	1010.1243	1018.4112	1063.4877	1074.2407	1083.9257	1098.6583	1136.6295	1167.6491	1177.3732	1218.7782	1256.5869	1302.2858	1315.4393	1348.8908	1361.6458	1385.8222	1414.7849	1422.7608	1471.8828	1514.1393	1527.6677	2355.873	3006.7083	3010.6285	3030.6253	3033.8066	3060.7646	3082.6282	3085.3174	3101.8676	3817.1969
OCCC1OCC1C#N	OCC[C@H]1OC[C@H]1C#N	
InChI=1S/C6H9NO2/c7-3-5-4-9-6(5)1-2-8/h5-6,8H,1-2,4H2	InChI=1S/C6H9NO2/c7-3-5-4-9-6(5)1-2-8/h5-6,8H,1-2,4H2/t5-,6-/m1/s1
