17
gdb 84322	2.81695	1.45014	1.01623	1.4521	79.65	-0.2566	-0.0431	0.2135	1151.6904	0.137942	-418.075441	-418.067382	-418.066438	-418.108473	30.576	
C	-0.4163251203	 1.4677808642	 0.0314210556	-0.389816
C	 0.0554632202	-0.001696579	-0.0258219968	-0.19899
C	 0.8190659849	-0.303405763	-1.2816413399	-0.065298
C	 2.0491296728	-0.8174736476	-1.2958836344	-0.092628
C	 2.7687356647	-1.1533656755	-0.0652022171	 0.387046
N	 3.9442215864	-1.6515037908	-0.121578411	-0.518614
N	 2.0701377784	-0.8866178034	 1.1195790665	-0.412037
C	 0.8044503508	-0.348256919	 1.2591201692	 0.429293
O	 0.3273312415	-0.1641335646	 2.3587774325	-0.365791
H	 0.4367272409	 2.1517888787	-0.0076654166	 0.128787
H	-1.0719971194	 1.6908561322	-0.8149351712	 0.119706
H	-0.9612465233	 1.6405141767	 0.9610185311	 0.151534
H	-0.848700628	-0.6281498087	-0.00610022	 0.129743
H	 0.3165890343	-0.0696574162	-2.2168739968	 0.112974
H	 2.5894209173	-1.0229580261	-2.2114275077	 0.124052
H	 4.3233129012	-1.8369919367	 0.8093731297	 0.209817
H	 2.5259013476	-1.0981239713	 1.9983881467	 0.250224
49.2011	135.181	229.3071	246.7394	276.5204	372.5663	413.4959	480.3144	529.6711	541.7913	636.0945	679.3442	704.026	748.7437	818.885	841.0787	878.1745	915.4337	963.309	1015.5984	1037.0973	1084.0995	1113.1529	1145.1586	1181.1369	1289.3447	1291.2069	1346.1194	1381.9574	1406.1498	1416.6758	1439.2179	1493.6045	1503.8619	1685.0433	1734.384	1798.6208	3002.2937	3046.7842	3116.8243	3145.126	3161.9774	3221.0545	3451.631	3581.7559
CC1C=CC(=N)NC1=O	C[C@H]1[CH]C=C([NH])NC1=O	
InChI=1S/C6H8N2O/c1-4-2-3-5(7)8-6(4)9/h2-4H,1H3,(H2,7,8,9)	InChI=1S/C6H8N2O/c1-4-2-3-5(7)8-6(4)9/h2-4H,1H3,(H2,7,8,9)/t4-/m0/s1
