15
gdb 46673	2.9054	1.82583	1.37479	2.4912	65.66	-0.2493	-0.0439	0.2055	913.7504	0.11233	-457.662544	-457.655871	-457.654926	-457.693615	26.443	
O	 0.0168734198	 0.014045318	 0.0273345772	-0.288809
C	 0.0395691476	 1.2104002291	 0.0094206117	 0.249603
C	-1.2231202168	 2.1525548144	 0.0642938528	-0.179278
O	-0.8204482057	 3.5209673484	-0.1548553694	-0.280143
C	 0.4409122722	 3.4181469866	-0.7889142922	 0.081996
C	 1.823614129	 3.8904088987	-0.2291038453	-0.020238
C	 1.5229979283	 3.180421322	 1.0924555162	-0.262721
C	 1.1163420722	 2.2473215173	-0.1034192906	 0.311794
O	 2.3829428052	 2.5980508775	-0.7750868755	-0.366378
H	-1.9122290431	 1.8173512402	-0.7223192518	 0.144708
H	-1.733687188	 2.0759874189	 1.0287255738	 0.146993
H	 0.382469794	 3.3836667589	-1.8812963572	 0.100008
H	 2.4104533445	 4.7830868265	-0.4452258217	 0.10788
H	 2.3936614422	 2.8313208307	 1.6463032385	 0.124199
H	 0.7261396186	 3.5805436228	 1.7176219435	 0.130386
125.2952	182.8361	296.8879	331.8551	472.1253	533.4711	557.639	575.3205	602.8871	678.6107	730.3	839.8738	896.6612	929.4167	930.2483	956.4415	1000.5344	1013.6906	1038.3776	1046.8831	1081.9178	1118.2016	1161.0687	1192.4352	1200.7377	1218.6634	1235.8865	1282.75	1316.1337	1350.1602	1469.2563	1476.3292	1871.4048	3025.2615	3071.3758	3094.795	3096.3493	3124.6063	3180.6605
O=C1COC2C3CC12O3	O=C1CO[C@H]2[C@H]3C[C@@]12O3	
InChI=1S/C6H6O3/c7-4-2-8-5-3-1-6(4,5)9-3/h3,5H,1-2H2	InChI=1S/C6H6O3/c7-4-2-8-5-3-1-6(4,5)9-3/h3,5H,1-2H2/t3-,5+,6-/m1/s1
