19
gdb 33660	2.98425	1.43336	1.3561	0.8806	86.76	-0.2257	0.0441	0.2698	1052.3175	0.160988	-348.711291	-348.703836	-348.702892	-348.742872	30.643	
C	-0.0296968348	-1.1959860102	 0.0575918781	-0.381319
C	-0.0251583627	 0.0083685721	 0.0266871769	 0.064228
C	 0.0058932512	 1.4235763099	-0.0086783889	 0.275273
C	-0.7205091205	 2.4839506487	 0.8335541624	-0.125968
C	 0.5875216743	 3.237813618	 1.0656015768	-0.235191
C	 1.2527264433	 2.3704572931	-0.0515201192	-0.10365
C	 1.1779196156	 3.0659989789	-1.4149624059	-0.212186
C	-0.3430200547	 3.3090217845	-1.6271056466	-0.236875
C	-1.013569977	 2.3488402935	-0.6455089268	-0.092671
H	-0.0381024656	-2.2568877931	 0.0838548482	 0.174357
H	-1.4960671462	 2.3112757525	 1.570670432	 0.094646
H	 0.5866340172	 4.3238092099	 0.9165177752	 0.090587
H	 1.0036967042	 3.0161568845	 2.0512574618	 0.106529
H	 2.2193489367	 1.932664111	 0.1934503125	 0.078036
H	 1.7611919461	 3.9921594561	-1.4404675797	 0.096331
H	 1.5721217413	 2.404264808	-2.1940848726	 0.104524
H	-0.6220220543	 4.3484120495	-1.4227458617	 0.103819
H	-0.6477819127	 3.0941008035	-2.655197093	 0.103688
H	-1.9824699814	 1.9264374794	-0.8862333995	 0.095842
126.0445	150.5348	217.4583	347.2743	389.0138	492.1677	514.4732	526.1638	552.855	618.5493	643.5373	713.5086	719.4748	814.7411	838.3183	862.9093	889.2311	911.746	926.3643	980.4186	1008.9392	1024.1445	1046.1675	1062.6449	1099.6219	1120.4244	1145.2611	1154.5855	1204.1726	1235.7583	1254.922	1281.7994	1286.7041	1306.3347	1328.2361	1347.946	1429.2269	1483.5635	1492.5998	1508.9648	2228.1316	3032.9859	3038.1069	3045.9343	3077.4305	3093.4825	3098.9255	3125.5732	3175.9018	3187.275	3504.8969
C#CC12C3CC1CCC23	C#C[C@@]12[C@H]3C[C@@H]1CC[C@@H]23	
InChI=1S/C9H10/c1-2-9-6-3-4-7(9)8(9)5-6/h1,6-8H,3-5H2	InChI=1S/C9H10/c1-2-9-6-3-4-7(9)8(9)5-6/h1,6-8H,3-5H2/t6-,7+,8-,9+/m0/s1
