18
gdb 98221	2.46526	1.18426	0.89556	0.8084	69.62	-0.2503	-0.0327	0.2176	1323.1853	0.145426	-476.284933	-476.274997	-476.274053	-476.320483	35.69	
C	 0.5219045582	 1.8716150877	-0.5063612235	-0.382426
C	 0.2709830296	 0.4004408267	-0.1831609842	-0.291416
C	 0.6111142629	-0.535049499	-1.3118750671	 0.358892
O	 0.8846512916	-0.1712159414	-2.4379306297	-0.329684
C	 0.5839066995	-2.0560978605	-1.053667672	-0.050123
O	 0.7253213463	-2.7343625035	-2.2725012701	-0.440826
C	 1.6776090791	-2.4504726477	-0.0261559021	 0.349185
N	 2.6239870937	-3.2601082863	-0.5462497056	-0.500195
O	 1.6523530146	-2.0466297332	 1.1222960774	-0.364864
H	 1.5813911662	 2.0533473105	-0.7066437544	 0.130521
H	-0.0371070381	 2.182895354	-1.3922783712	 0.132295
H	 0.2205533365	 2.5018759069	 0.334342031	 0.117579
H	 0.8132768498	 0.056180486	 0.7050377307	 0.173602
H	-0.7882093148	 0.2234847879	 0.0564877564	 0.130868
H	-0.3726115376	-2.308095951	-0.5744780209	 0.12499
H	 0.8882606319	-2.0257105835	-2.9231561038	 0.29785
H	 2.5003530017	-3.606527195	-1.4838554216	 0.27755
H	 3.3417440486	-3.6251540284	 0.0567210008	 0.266203
51.8289	70.7093	94.1033	169.8222	202.7587	223.241	315.6314	352.3057	369.0881	388.2063	460.4345	530.3773	554.7113	587.3932	640.1946	688.8233	725.8389	772.8608	882.1173	906.5315	989.1463	1038.4067	1090.1837	1098.3131	1121.6514	1159.8066	1216.0478	1282.9623	1312.3098	1356.1459	1390.9543	1415.4289	1424.6298	1452.3835	1494.6284	1500.312	1582.3658	1785.3101	1795.8266	3012.9967	3022.5079	3052.2947	3074.8905	3122.7087	3128.1393	3591.6475	3600.4529	3735.1847
CCC(=O)C(O)C(N)=O	CCC(=O)[C@@H](O)C(=O)N	
InChI=1S/C5H9NO3/c1-2-3(7)4(8)5(6)9/h4,8H,2H2,1H3,(H2,6,9)	InChI=1S/C5H9NO3/c1-2-3(7)4(8)5(6)9/h4,8H,2H2,1H3,(H2,6,9)/t4-/m1/s1
