15
gdb 67923	2.07804	1.7969	1.1841	5.3466	72.38	-0.2787	-0.0122	0.2665	1054.2991	0.111865	-416.795421	-416.787372	-416.786428	-416.828108	29.86	
C	-0.0948570376	 1.4868053235	 0.0527741205	-0.493327
C	 0.0474510286	 0.0044577188	 0.0884033994	 0.436876
O	-1.1571041303	-0.7936382425	-0.0337558265	-0.2905
C	-0.6742691036	-1.6822470207	 0.9363063137	 0.457266
N	-1.2253904288	-2.6442943486	 1.5098607538	-0.544497
C	 0.6464941187	-0.9939183816	 1.0532478949	-0.263708
C	 1.2242584887	-0.8170348671	-0.3682457662	-0.264143
C	 1.134912549	-1.827947878	-1.3885263979	 0.319158
N	 1.0758210324	-2.6299383489	-2.2188236506	-0.330457
H	 0.8691532542	 1.9676819159	 0.2384843255	 0.138914
H	-0.4565198649	 1.8101106935	-0.9285023433	 0.15514
H	-0.807976301	 1.8204706776	 0.8116112742	 0.149895
H	-2.177009217	-2.7922864441	 1.1704308893	 0.242826
H	 1.2613409798	-0.8894214411	 1.9350249333	 0.137744
H	 2.1676486218	-0.2770917765	-0.3614771501	 0.148812
99.7163	140.0026	170.3216	199.585	290.7408	324.2497	396.2213	449.6816	517.1462	582.7593	670.816	709.7157	715.2216	819.5267	874.0886	899.9393	906.5187	940.4523	971.5376	983.3325	1059.0647	1086.6508	1112.6493	1157.6868	1198.7045	1289.7026	1312.9047	1410.7574	1467.494	1474.4525	1495.3161	1847.2044	2361.4909	3045.3056	3115.9262	3128.2632	3156.0499	3233.8053	3487.9535
CC12OC(=N)C1C2C#N	C[C@]12O[C]([NH])[C@H]1[C@H]2C#N	
InChI=1S/C6H6N2O/c1-6-3(2-7)4(6)5(8)9-6/h3-4,8H,1H3	InChI=1S/C6H6N2O/c1-6-3(2-7)4(6)5(8)9-6/h3-4,8H,1H3/t3-,4-,6-/m1/s1
