13
gdb 131925	4.4739	1.13065	0.90394	7.7886	66.56	-0.2302	-0.063	0.1672	1175.3285	0.090832	-486.021089	-486.013578	-486.012633	-486.053461	27.57	
N	-0.0375827789	 0.9979862784	 0.1596054141	-0.597486
H	-0.141852799	-0.0077330225	 0.1188160862	 0.275174
H	 0.6472093735	 1.3148133233	-0.5151830934	 0.257116
C	-1.2727818773	 1.6148933043	 0.0636076288	 0.423198
N	-1.4015645008	 2.9829015324	 0.0221446715	-0.292606
C	-2.7480798902	 3.2702233218	 0.0154233366	-0.130971
C	-3.344291191	 2.041251155	 0.0585869524	 0.356517
N	-2.4381669434	 1.015760655	 0.080433921	-0.339291
N	-4.7676054578	 1.8189402589	 0.0685830306	 0.338649
O	-5.475283032	 2.8259972627	 0.0217390028	-0.390971
O	-5.173049583	 0.6685039647	 0.1224410126	-0.347479
H	-0.6533215098	 3.6550461788	 0.0705391402	 0.276725
H	-3.1459782705	 4.2677498873	-0.0240600034	 0.171425
77.0831	169.1762	197.6191	249.9054	328.9481	390.3846	431.2852	522.3657	562.8457	625.1456	682.558	734.2709	749.6055	778.4318	813.0834	840.117	997.2396	1006.0333	1097.2448	1137.1589	1244.7236	1325.274	1380.4212	1410.8073	1487.0599	1573.024	1610.5307	1632.9222	1666.2348	3311.489	3542.1992	3639.2805	3656.2061
[NH2+]=C1NC=C([N-]1)N(=O)=O	Nc1[nH]cc(n1)N(=O)=O	
InChI=1S/C3H3N4O2/c4-3-5-1-2(6-3)7(8)9/h1H,(H2-,4,5,6)/q-1/p+1	InChI=1S/C3H4N4O2/c4-3-5-1-2(6-3)7(8)9/h1H,(H3,4,5,6)
