22
gdb 6410	4.17422	0.89703	0.87832	2.3526	74.72	-0.2554	0.0605	0.3159	1434.0297	0.198244	-387.345208	-387.335001	-387.334057	-387.380554	37.205	
C	 0.9036494801	-0.3140235531	-1.1026670646	-0.387535
C	 0.0249999505	-0.0161671501	 0.1200241036	 0.049429
C	-0.0002894844	 1.4893847262	 0.4148534528	-0.392325
C	-1.4086909652	-0.555245192	-0.0479242536	-0.206944
C	-1.5305933596	-2.0781338406	-0.0927905688	 0.087655
O	-0.9893409681	-2.7019575228	 1.0817582096	-0.437598
C	-2.972365986	-2.5584394455	-0.2806205354	-0.060407
O	-3.0437038511	-3.9669252821	-0.2481357083	-0.4257
H	 1.9135725426	 0.0837595234	-0.9600084344	 0.112491
H	 0.9981816509	-1.3873622118	-1.290150042	 0.121099
H	 0.4892158901	 0.150591779	-2.0058536094	 0.109709
H	 0.4658100265	-0.5287302952	 0.9845218723	 0.081415
H	-0.5886147152	 1.7140642251	 1.3111208612	 0.106458
H	 1.0112798909	 1.8777195296	 0.5723238557	 0.111881
H	-0.4418391578	 2.046633436	-0.4203568425	 0.111751
H	-2.0317603656	-0.1851926943	 0.7808619422	 0.081656
H	-1.8520653407	-0.1406833027	-0.9642525788	 0.098606
H	-0.9313051724	-2.4904780167	-0.9118451459	 0.099911
H	-1.3962227469	-2.2793791384	 1.8481356656	 0.280894
H	-3.6080064531	-2.1032777609	 0.5024975275	 0.068387
H	-3.3629290232	-2.2279131298	-1.2495933842	 0.105503
H	-2.4311805626	-4.2328197933	 0.4506368473	 0.283664
42.2242	83.1733	129.1482	158.548	223.5216	244.5322	266.5802	311.7064	340.1195	369.2724	416.327	426.4279	475.4209	520.7592	593.409	818.4324	844.6833	878.0133	931.7419	958.0774	966.8558	999.3928	1053.7388	1090.6225	1103.2319	1120.4157	1166.3623	1191.8829	1208.4413	1237.4162	1276.3268	1317.4071	1342.5388	1373.3482	1381.402	1391.8683	1404.6086	1422.6558	1425.2606	1443.9727	1475.2852	1487.8497	1495.7064	1505.7986	1507.8653	1511.5644	2925.7212	2989.9517	3021.4541	3021.9037	3028.5477	3038.923	3058.482	3072.1438	3086.8341	3093.9487	3098.2236	3109.2296	3758.5462	3781.2503
CC(C)CC(O)CO	CC(C)C[C@@H](O)CO	
InChI=1S/C6H14O2/c1-5(2)3-6(8)4-7/h5-8H,3-4H2,1-2H3	InChI=1S/C6H14O2/c1-5(2)3-6(8)4-7/h5-8H,3-4H2,1-2H3/t6-/m1/s1
