18
gdb 85331	2.18628	1.99521	1.31298	3.55	72.01	-0.2381	0.0196	0.2577	1001.276	0.149486	-439.105248	-439.097458	-439.096514	-439.137713	29.911	
O	-0.1734601494	 1.2642512041	 0.9601100192	-0.429617
C	 0.0126990818	 0.153024821	 0.0972498096	 0.086302
C	 0.8732386184	-0.9386176573	 0.7665516882	-0.363468
C	-0.1374964519	-1.6354811576	 1.7005127125	 0.372083
O	 0.0547930773	-2.0767478965	 2.8086221549	-0.35963
N	-1.3396763409	-1.5996803252	 1.0241456405	-0.085201
C	-2.6311008019	-1.1474777628	 1.5929875275	-0.176464
C	-2.6600482386	 0.008028055	 0.546539044	-0.254681
C	-1.3444610585	-0.5790913026	-0.0418343761	 0.024838
H	 0.6918343569	 1.5845433494	 1.2333517562	 0.289937
H	 0.4083586085	 0.4761074322	-0.8747208537	 0.069975
H	 1.255389621	-1.6490081267	 0.0241739322	 0.127136
H	 1.7217806428	-0.5495971115	 1.3333079465	 0.119711
H	-3.4262759975	-1.8903010887	 1.4871488258	 0.116302
H	-2.5468887001	-0.8571308349	 2.6435043239	 0.132891
H	-3.5118354745	 0.0036582111	-0.1345561083	 0.107282
H	-2.5326423282	 0.9996160499	 0.9771106224	 0.140202
H	-1.4452714753	-1.0070113589	-1.0456053554	 0.082403
80.8111	125.1031	204.313	269.8469	279.5264	390.1041	405.8943	504.8729	587.4107	655.7449	679.1041	744.292	758.9	811.4602	876.5643	925.2976	937.581	976.3557	1003.4351	1027.8878	1054.4265	1100.0231	1118.6387	1168.6717	1189.9329	1210.5515	1223.8373	1258.6666	1262.4392	1277.2471	1296.4809	1318.3691	1357.985	1372.5249	1411.3851	1457.7141	1481.9175	1516.7943	1828.8673	3008.9736	3038.652	3051.8935	3057.7963	3095.5086	3108.0524	3116.987	3164.3908	3823.699
OC1CC(=O)N2CCC12	O[C@H]1CC(=O)N2CC[C@@H]12	
InChI=1S/C6H9NO2/c8-5-3-6(9)7-2-1-4(5)7/h4-5,8H,1-3H2	InChI=1S/C6H9NO2/c8-5-3-6(9)7-2-1-4(5)7/h4-5,8H,1-3H2/t4-,5-/m0/s1
