15
gdb 15764	4.39813	1.14881	0.94261	3.7177	73.78	-0.2497	-0.0328	0.217	1220.8836	0.117127	-362.633043	-362.624331	-362.623387	-362.668506	29.022	
C	 0.0237802198	 1.4088177458	 0.0427707825	-0.503332
C	 0.0682781983	-0.0410207462	-0.0397305807	 0.079099
C	 0.0940191551	-1.2444654563	-0.1095616975	 0.047884
C	 0.0758726036	-2.6914751957	-0.1560870779	 0.199501
O	-0.9021529322	-3.3551485743	 0.1162212307	-0.321464
N	 1.270837004	-3.2508317779	-0.6112641902	-0.07089
C	 2.5413540011	-3.1426891293	 0.0820163086	-0.225473
C	 1.8216606495	-4.4553038596	-0.0361125025	-0.219992
H	 0.9912656267	 1.8558632984	-0.2080215417	 0.156069
H	-0.724834818	 1.8127193768	-0.6474339578	 0.163733
H	-0.2490757062	 1.7332152552	 1.0528367303	 0.161185
H	 3.406658821	-2.9354321135	-0.541166947	 0.12881
H	 2.5450506655	-2.6546860242	 1.0534060926	 0.134168
H	 1.3246428304	-4.8490596629	 0.8461940943	 0.141062
H	 2.1729223913	-5.2011624562	-0.7430982436	 0.129641
16.163	66.5802	96.391	147.1628	226.2684	239.4488	334.777	398.0952	471.42	553.0793	685.7528	774.0874	816.2824	879.5691	973.0637	1034.4805	1046.1405	1047.2845	1054.9045	1126.5617	1132.458	1166.8553	1173.2862	1222.8823	1388.4577	1410.8252	1471.4118	1473.9743	1495.8799	1522.9758	1756.1356	2351.6281	3032.0654	3095.5766	3098.5782	3109.8066	3117.6987	3194.7574	3209.8438
CC#CC(=O)N1CC1	CC#CC(=O)N1CC1	
InChI=1S/C6H7NO/c1-2-3-6(8)7-4-5-7/h4-5H2,1H3	InChI=1S/C6H7NO/c1-2-3-6(8)7-4-5-7/h4-5H2,1H3
