18
gdb 35930	2.3785	1.51006	1.27948	2.1543	78.07	-0.242	0.0126	0.2546	1075.5134	0.148095	-401.915953	-401.907573	-401.906629	-401.949221	31.663	
C	-0.2314619015	-1.2984458684	-0.1128312738	-0.482339
C	-0.119451836	-0.1033709661	-0.0578829842	 0.345571
C	 0.0038723898	 1.3566854212	-0.0030597967	-0.043089
C	-0.6730115335	 1.9552826075	 1.2378755598	-0.216752
C	-0.1165342033	 1.4341771917	 2.5610850926	-0.218324
C	 1.3079602901	 1.913751812	 2.8569652761	-0.143091
N	 2.3827419789	 1.4773733586	 1.9826817372	-0.236308
C	 2.3520063036	 1.4549016903	 0.7268223698	 0.12449
O	 1.3731662727	 1.7554321696	-0.1870041526	-0.237512
H	-0.3242319005	-2.3553739231	-0.166209557	 0.206327
H	-0.4852809488	 1.7732719754	-0.8903310741	 0.124237
H	-0.5689900277	 3.0457569086	 1.180447794	 0.106419
H	-1.7421029016	 1.7274926466	 1.1601950412	 0.11283
H	-0.7609648959	 1.7722819457	 3.3810806076	 0.099033
H	-0.1455415848	 0.3386578614	 2.5671505685	 0.121194
H	 1.3187642386	 3.0148112578	 2.8660878345	 0.110798
H	 1.5771906325	 1.6024682956	 3.8721052397	 0.107893
H	 3.2657557974	 1.2175104057	 0.1806626473	 0.118623
67.7224	89.8953	168.94	232.3819	318.5448	337.0064	365.7276	439.7111	515.5098	572.8911	626.1893	636.3502	678.468	731.2074	815.5363	841.7133	854.5133	938.1244	944.9784	966.2239	1002.2562	1051.3964	1094.0079	1117.8088	1124.2465	1203.2031	1261.9949	1300.6891	1330.404	1370.6874	1378.3589	1385.5219	1409.6039	1432.135	1470.253	1482.5523	1491.9118	1766.1591	2234.9395	2992.3186	3029.5042	3034.9308	3053.0118	3057.9725	3074.4028	3082.8121	3130.0633	3501.4681
C#CC1CCCN=CO1	C#C[C@H]1CCCN=CO1	
InChI=1S/C7H9NO/c1-2-7-4-3-5-8-6-9-7/h1,6-7H,3-5H2	InChI=1S/C7H9NO/c1-2-7-4-3-5-8-6-9-7/h1,6-7H,3-5H2/t7-/m0/s1
