22
gdb 121478	4.91964	0.63767	0.59758	2.6709	90.81	-0.2237	0.027	0.2508	1961.4474	0.191666	-404.338771	-404.328365	-404.327421	-404.375054	37.767	
C	-0.1122228513	 1.5054057019	 0.0922168152	-0.383863
C	-0.1107780369	 0.0262932268	-0.2467683767	-0.051977
O	-1.3486247903	-0.5277615939	 0.2023447148	-0.207693
C	-1.5159076534	-1.8498087176	-0.0222450411	 0.098838
N	-2.5789367053	-2.4173935363	 0.3423432372	-0.275102
C	-2.7862618313	-3.8128026833	 0.119468515	 0.405044
C	-1.7156223417	-4.6391293685	-0.5674959232	-0.474121
C	-3.6164140871	-4.4815768901	 1.1996749644	-0.293916
C	-4.2375174198	-4.1759875184	-0.1359218436	-0.293916
H	 0.8230652958	 1.9674742862	-0.2371549957	 0.118846
H	-0.9451744008	 2.0118627693	-0.4026612484	 0.135118
H	-0.213214891	 1.6519426027	 1.17089186	 0.135118
H	-0.0054569574	-0.1248774994	-1.330393123	 0.104729
H	 0.7279085646	-0.4854578069	 0.2460843208	 0.104728
H	-0.6679154251	-2.3297536485	-0.5265207216	 0.07467
H	-0.7748905277	-4.6311477023	-0.0039008137	 0.115649
H	-2.0372476699	-5.680171503	-0.6560221614	 0.115123
H	-1.5076103133	-4.2708139468	-1.5793034115	 0.115648
H	-3.3891605339	-5.5141196162	 1.4423644501	 0.106505
H	-3.9008622952	-3.8629138173	 2.0417503274	 0.122033
H	-4.9385777092	-3.3523570119	-0.1897011451	 0.122033
H	-4.4388672397	-4.9976502665	-0.81490359	 0.106506
39.758	61.3573	110.8702	137.6255	224.4594	250.3119	253.0369	286.7213	299.9768	336.5635	396.6899	505.0837	507.167	531.6351	754.4941	783.198	817.6752	839.9695	909.3802	937.0353	942.2492	980.2685	984.0431	1041.0609	1063.5181	1073.254	1076.8401	1116.7465	1146.5138	1183.3355	1194.4354	1227.5634	1300.9996	1308.7257	1325.8861	1392.1946	1408.2257	1416.4081	1436.6667	1455.1728	1483.4445	1490.6468	1490.7953	1499.199	1508.5719	1524.3997	1766.2742	2993.0784	3019.5178	3031.7434	3039.7521	3048.7143	3077.2833	3110.0098	3123.4325	3128.6934	3135.3413	3139.7985	3225.0644	3238.5689
CCOC=NC1(C)CC1	CCOC=NC1(C)CC1	
InChI=1S/C7H13NO/c1-3-9-6-8-7(2)4-5-7/h6H,3-5H2,1-2H3	InChI=1S/C7H13NO/c1-3-9-6-8-7(2)4-5-7/h6H,3-5H2,1-2H3
