20
gdb 59150	3.08477	1.25314	1.14665	2.7418	77.96	-0.2085	0.0691	0.2775	1159.7495	0.170277	-403.04637	-403.03782	-403.036876	-403.079603	33.694	
C	 0.2520260427	 1.133304342	-0.4598012173	-0.396694
C	 0.1608527713	-0.1320635613	 0.3907140549	 0.105845
O	 0.3587347033	 0.1612834165	 1.777745674	-0.442197
C	-1.1873816844	-0.8443299389	 0.2200590445	-0.010287
C	-1.9935159664	-1.2233856254	-1.00555639	-0.106225
C	-1.2082124115	-1.9402714354	-2.1366571501	-0.056742
N	 0.2315844483	-1.9784090949	-1.7822135303	-0.329967
C	-0.7208473455	-2.9587193289	-1.1901889862	-0.055876
C	-1.5038550345	-2.2949395796	-0.0202342221	-0.096469
H	 1.1852434617	 1.6627995505	-0.246692554	 0.114051
H	 0.2202238414	 0.8846143759	-1.5231900495	 0.129253
H	-0.584860572	 1.8113626372	-0.2453321758	 0.093003
H	 0.9741035567	-0.8044405092	 0.1298032805	 0.111678
H	-0.2390352072	 0.8798095436	 2.0129701428	 0.268199
H	-1.8836437114	-0.4562433657	 0.9673473477	 0.078378
H	-3.0074074114	-0.8709182186	-1.1505738965	 0.086689
H	-1.5378562267	-2.0324128761	-3.16322848	 0.093604
H	 0.7132146283	-2.461651854	-2.5406545899	 0.22871
H	-0.5749147628	-4.0232663541	-1.3169910898	 0.095004
H	-2.0949171	-2.8850264037	 0.6690654371	 0.090041
52.1226	141.6886	196.7573	241.2588	291.4569	317.1065	365.3962	385.127	459.6658	564.1634	652.6493	707.0487	720.7357	740.9657	829.9036	844.2994	873.7683	878.8684	909.5088	926.6186	956.7403	993.9025	998.5698	1039.7128	1050.4776	1068.797	1077.7643	1117.4355	1124.1577	1134.9774	1201.7484	1250.6699	1254.5223	1272.3809	1314.5697	1338.6018	1348.4872	1377.1413	1392.0469	1411.9797	1438.5968	1489.9693	1495.8818	3019.3883	3079.047	3091.7445	3129.1602	3154.3086	3177.8617	3188.529	3193.7784	3207.0507	3464.4384	3789.5593
CC(O)C1C2C3NC3C12	C[C@@H](O)[C@H]1[C@H]2[C@H]3N[C@H]3[C@@H]12	
InChI=1S/C7H11NO/c1-2(9)3-4-5(3)7-6(4)8-7/h2-9H,1H3	InChI=1S/C7H11NO/c1-2(9)3-4-5(3)7-6(4)8-7/h2-9H,1H3/t2-,3-,4+,5-,6+,7-/m1/s1
