23
gdb 87138	2.67148	1.20742	1.12719	1.3751	85.52	-0.2415	0.0676	0.3091	1264.3673	0.203446	-388.268881	-388.258749	-388.257805	-388.303484	39.134	
C	 0.0042538278	 1.3266517268	-0.4260580899	-0.421328
C	 0.342565982	-0.1264882502	-0.1818630686	-0.048669
C	 1.761774407	-0.5446686851	 0.157996896	-0.355468
C	 0.6901685077	-0.6411523724	 1.2027588421	 0.331861
O	 0.8429786532	 0.321678814	 2.2235644287	-0.472154
C	 0.1307993032	-1.9534676613	 1.695082367	 0.329883
C	-1.2744897992	-1.8413228422	 2.2635438751	-0.480273
C	 0.4936714819	-3.2456669907	 1.003207229	-0.315032
C	 1.0787594807	-2.9247712927	 2.3570337518	-0.296291
H	 0.5247404207	 1.9693985336	 0.2885824615	 0.127646
H	 0.2949397451	 1.6360293187	-1.4358858791	 0.116566
H	-1.0719391222	 1.5101998999	-0.3236152089	 0.108313
H	-0.2055576783	-0.834651519	-0.7991092522	 0.082832
H	 2.1715728207	-1.441263566	-0.2919374538	 0.109358
H	 2.4828357586	 0.2506320965	 0.3147495584	 0.118452
H	-0.0352980462	 0.6075478546	 2.4971712202	 0.281166
H	-1.9798508512	-1.4706681687	 1.5103480835	 0.115988
H	-1.6377340257	-2.8126980485	 2.6118810674	 0.115846
H	-1.3049766728	-1.1612150159	 3.1232233231	 0.109597
H	-0.2755475012	-4.0089709255	 0.9454388106	 0.105762
H	 1.1530282715	-3.2266478939	 0.1432778899	 0.111733
H	 2.1264081348	-2.6486310951	 2.4006523701	 0.118074
H	 0.726622452	-3.483614597	 3.2177604181	 0.10614
46.706	137.1325	181.0762	201.5557	224.6556	270.9558	283.5122	290.3589	309.8994	347.017	430.1568	453.9609	488.0593	570.3889	616.1466	777.4807	796.2191	830.1589	873.7167	885.6191	916.6212	931.2887	951.4188	961.868	1005.2575	1037.0002	1051.6767	1069.6206	1078.8143	1095.4999	1122.4636	1128.8884	1183.0638	1186.2261	1199.1227	1249.1905	1297.6807	1346.1637	1355.6687	1402.6327	1411.2367	1425.4667	1466.1847	1487.0917	1493.61	1499.1165	1503.0097	1505.5554	1511.9163	3020.0476	3027.0118	3078.5083	3082.477	3101.0174	3113.4979	3130.2946	3134.0347	3136.2502	3136.6203	3207.9854	3221.304	3223.8366	3801.545
CC1CC1(O)C1(C)CC1	C[C@H]1C[C@]1(O)C1(C)CC1	
InChI=1S/C8H14O/c1-6-5-8(6,9)7(2)3-4-7/h6,9H,3-5H2,1-2H3	InChI=1S/C8H14O/c1-6-5-8(6,9)7(2)3-4-7/h6,9H,3-5H2,1-2H3/t6-,8+/m0/s1
