17
gdb 94426	2.6808	1.45568	1.20762	1.7086	69.47	-0.2436	0.0129	0.2565	1064.9673	0.136835	-455.108755	-455.100588	-455.099644	-455.141829	30.585	
O	 0.1988525704	 1.3364668109	-0.1815423569	-0.427647
C	 0.1015946122	-0.047356594	 0.0355627827	 0.08753
C	 0.1776539181	-0.5223015905	 1.5086272975	-0.211646
N	-1.3055208334	-0.6316058469	 1.516585802	-0.368723
C	-1.3555368342	-0.6153084051	 0.0551821928	 0.162523
C	-2.4929005544	 0.0152759149	-0.7664965457	-0.146968
O	-2.5951215597	-1.2153904588	-1.5605105605	-0.262353
C	-1.6644694789	-1.8519579168	-0.7682961427	 0.371609
N	-1.265737825	-3.0413303162	-0.7442445389	-0.55313
H	-0.3108070471	 1.7839719867	 0.5039979864	 0.292206
H	 0.7812696477	-0.524420461	-0.6701772258	 0.113898
H	 0.7064525998	-1.476345657	 1.6139592737	 0.122885
H	 0.5829763581	 0.1997136035	 2.2262196683	 0.101831
H	-1.685453953	-1.4669914068	 1.9495451888	 0.2331
H	-3.4168547109	 0.2026912026	-0.2137930858	 0.123104
H	-2.2195480391	 0.8707187832	-1.3877502831	 0.131377
H	-1.7270544806	-3.6117608189	-1.4549841228	 0.230404
76.3019	112.5552	157.7966	217.7633	268.7995	363.9424	411.9432	419.7118	535.0884	573.5741	672.7365	700.9405	782.7503	851.2881	863.4976	878.8923	938.1894	962.558	994.614	1004.9138	1040.9709	1059.131	1125.7284	1144.9736	1161.49	1171.2382	1224.9547	1239.567	1254.1636	1302.5583	1313.4331	1352.526	1395.1611	1433.8697	1507.2237	1508.7206	1814.5743	3026.8833	3064.7183	3076.6058	3123.6175	3132.3714	3475.8801	3529.4076	3795.9607
OC1CNC11COC1=N	O[C@H]1CN[C@]21CO[C]2[NH]	
InChI=1S/C5H8N2O2/c6-4-5(2-9-4)3(8)1-7-5/h3,6-8H,1-2H2	InChI=1S/C5H8N2O2/c6-4-5(2-9-4)3(8)1-7-5/h3,6-8H,1-2H2/t3-,5-/m0/s1
