21
gdb 84866	2.41888	1.56396	1.20381	1.3435	85.19	-0.2334	0.0073	0.2408	1135.0188	0.183093	-387.092855	-387.083863	-387.082919	-387.126191	34.867	
C	-0.0456969142	 1.5738323128	 0.0079072337	-0.40048
C	 0.0513003373	 0.0360663418	-0.008733474	-0.027303
C	 0.6898541973	-0.4224017376	-1.3005205964	-0.01208
C	 1.5906586186	-1.3733248986	-1.5459148145	-0.071576
C	 2.2588813405	-2.3377396489	-0.5931295801	-0.304175
C	 1.4299734314	-2.7861259498	 0.5879369268	-0.04336
C	 0.7411796196	-1.9806697892	 1.3938772928	-0.110384
C	 0.7280622669	-0.4726326735	 1.2762930918	 0.068099
O	 2.0485927978	 0.0792520821	 1.3077949346	-0.434525
H	 0.9512597156	 2.02060055	 0.0135149779	 0.139479
H	-0.5840156532	 1.938552163	-0.8726148832	 0.106824
H	-0.5811353383	 1.9213807299	 0.8977541144	 0.104601
H	-0.976495242	-0.3576188361	 0.0176503167	 0.083016
H	 0.3446800319	 0.1466570402	-2.1637883102	 0.076167
H	 1.9149954127	-1.4827214731	-2.5793674804	 0.082201
H	 2.5690791427	-3.2204054362	-1.162382402	 0.099246
H	 3.1913814861	-1.8809431772	-0.228247356	 0.130287
H	 1.4077064503	-3.8566760362	 0.7799040308	 0.091289
H	 0.1591363985	-2.4112803437	 2.205269953	 0.083115
H	 0.1488795694	-0.0676783418	 2.1220714035	 0.059676
H	 2.5090057611	-0.3259775479	 2.0493670708	 0.279884
70.2659	137.479	211.6734	224.5025	262.2015	292.4731	309.251	336.559	399.0607	455.2155	533.4088	591.2353	671.5566	691.5237	767.8352	804.4123	857.0698	874.6218	897.5031	975.7561	983.2398	994.5914	1004.7774	1011.4614	1049.3201	1062.8758	1104.3561	1163.4315	1219.0496	1223.3172	1245.723	1281.2112	1308.8371	1362.0889	1378.5093	1388.3216	1393.7265	1399.9615	1418.9849	1444.007	1462.0095	1494.4511	1503.7351	1724.7318	1739.4894	2959.287	2985.6134	2996.9514	3036.3026	3058.4219	3099.6744	3113.5495	3128.5331	3138.2932	3142.8514	3163.3621	3819.8202
CC1C=CCC=CC1O	C[C@H]1C=CCC=C[C@H]1O	
InChI=1S/C8H12O/c1-7-5-3-2-4-6-8(7)9/h3-9H,2H2,1H3	InChI=1S/C8H12O/c1-7-5-3-2-4-6-8(7)9/h3-9H,2H2,1H3/t7-,8+/m0/s1
