17
gdb 44777	2.41787	2.14811	1.55821	4.0585	72.4	-0.2283	-0.0156	0.2127	897.2515	0.136909	-421.728838	-421.722135	-421.72119	-421.759648	27.729	
O	 0.0270668515	 0.0983170922	 0.1140865803	-0.328988
C	-0.0308218131	 1.2944803597	 0.0582592176	 0.377654
C	-1.2500624129	 2.2240298846	 0.1772420264	-0.322275
C	-0.4982247204	 3.5401591148	-0.0346701913	-0.095315
C	 0.7738483829	 3.3524362623	 0.9385844812	-0.332672
C	 1.1142784183	 2.2937986037	-0.1882143213	 0.309877
O	 2.1095797981	 1.7917922473	-1.1080960629	-0.343255
C	 1.1895092072	 2.2406683228	-2.1920564594	-0.172119
C	 0.5690533488	 3.2657726331	-1.1797549984	-0.041799
H	-1.9917432415	 1.996200295	-0.5946349213	 0.129866
H	-1.7351068927	 2.1487727546	 1.1549334304	 0.129517
H	-1.0656165172	 4.4687811768	-0.0122734839	 0.089166
H	 1.4397096839	 4.2145607345	 0.9287718506	 0.12895
H	 0.5814926651	 3.0128253623	 1.9605171152	 0.115244
H	 1.7447726653	 2.6621522492	-3.0320325782	 0.123218
H	 0.5552473011	 1.4096484874	-2.5145650724	 0.13231
H	 1.2235088056	 4.1398097496	-1.2138099227	 0.100622
133.7693	241.4111	312.618	377.0031	414.6506	515.5579	550.3538	598.5239	618.6413	678.6042	721.5171	760.3886	827.6038	861.6074	891.8294	935.1585	959.5908	993.0367	1011.2302	1028.7285	1052.6775	1076.7039	1104.3998	1127.7658	1141.4391	1159.0577	1183.6414	1210.8158	1224.7343	1264.8949	1282.6168	1316.46	1414.672	1459.763	1500.2573	1504.4261	1874.74	3055.9408	3056.9026	3062.17	3069.9779	3104.1272	3130.8213	3132.838	3152.533
O=C1CC2CC11OCC21	O=C1C[C@H]2C[C@]31OC[C@@H]23	
InChI=1S/C7H8O2/c8-6-1-4-2-7(6)5(4)3-9-7/h4-5H,1-3H2	InChI=1S/C7H8O2/c8-6-1-4-2-7(6)5(4)3-9-7/h4-5H,1-3H2/t4-,5-,7-/m0/s1
