15
gdb 125731	3.04544	1.46324	1.00051	3.4849	71.79	-0.2588	-0.0948	0.1641	1138.3206	0.110764	-453.96121	-453.952853	-453.951909	-453.994344	30.202	
C	-0.13626349	 1.5317845197	 0.0637655984	-0.452948
C	 0.0488125568	 0.0475321453	-0.0221611749	 0.382983
N	 0.0845129143	-0.4701422113	-1.2039800975	-0.114034
O	 0.2579666727	-1.8567714255	-1.2695627304	-0.246966
C	 0.3840619838	-2.6345375301	-0.1545853671	 0.412112
O	 0.5310706504	-3.822457088	-0.2667814752	-0.317905
C	 0.3245265521	-1.9050733837	 1.1384472379	 0.193334
C	 0.4589079237	-2.7229872808	 2.3792056089	-0.47047
N	 0.1646593042	-0.6283205633	 1.1886105344	-0.310501
H	 0.7083196927	 1.9804279284	 0.5961442428	 0.149394
H	-0.2157694909	 1.9673581691	-0.9321305289	 0.152756
H	-1.0389535668	 1.7600345689	 0.639172495	 0.14939
H	 1.4079831737	-3.2694953411	 2.3670534139	 0.162857
H	 0.4019560291	-2.0828528942	 3.2593408052	 0.147156
H	-0.3266129958	-3.4855519434	 2.4123359376	 0.162843
78.9711	137.2492	168.3975	199.2754	269.8303	326.3049	331.0029	390.3291	494.4151	512.4976	569.2922	625.4273	660.0375	785.5182	788.3706	930.9703	967.2129	1033.0823	1039.8919	1053.4489	1068.3149	1135.8404	1307.4273	1331.3189	1404.0706	1417.0373	1455.6211	1461.8815	1468.4112	1473.3192	1600.2469	1677.6343	1829.0717	3046.1311	3049.0533	3100.6079	3108.478	3161.0233	3162.6798
CC1=NOC(=O)C(C)=N1	Cc1noc(=O)c(C)n1	
InChI=1S/C5H6N2O2/c1-3-5(8)9-7-4(2)6-3/h1-2H3	InChI=1S/C5H6N2O2/c1-3-5(8)9-7-4(2)6-3/h1-2H3
