18
gdb 53106	2.16251	1.16797	0.91778	3.4972	83.26	-0.2405	0.0055	0.246	1364.3871	0.144686	-401.921737	-401.911554	-401.91061	-401.958318	34.751	
C	-0.2356825402	 1.3481446484	-0.28415502	-0.501304
C	-0.0825931106	-0.0888298865	-0.1187243945	 0.072515
C	 0.0295980973	-1.2819590192	 0.0010236706	 0.131555
C	 0.2080670551	-2.7016796421	 0.124242784	-0.236925
C	-0.4132630263	-3.4795414258	 1.2795843014	-0.010654
C	-1.2259740039	-2.7879195841	 2.3469983679	-0.41864
N	-0.9044830916	-3.6207300552	-0.0722525122	-0.07461
C	-2.1622314521	-3.3376717869	-0.5670207376	 0.155292
O	-2.3941531643	-2.671172936	-1.5446567533	-0.293889
H	 0.625669417	 1.7779479397	-0.8067903798	 0.153376
H	-1.130999802	 1.5797606708	-0.8711226477	 0.161552
H	-0.3268459798	 1.856250083	 0.6820999552	 0.14873
H	 1.1529224355	-3.0782436903	-0.2639691716	 0.122344
H	 0.1596794986	-4.3395695907	 1.6258132446	 0.104927
H	-1.7068039858	-1.8878268694	 1.956361608	 0.143773
H	-1.9971436016	-3.4552191751	 2.744839187	 0.129575
H	-0.576790033	-2.4964214572	 3.1787729065	 0.13296
H	-2.9468461423	-3.8750283134	 0.0025171114	 0.079422
30.5722	66.3716	93.1442	130.176	172.0662	205.0995	233.1554	260.4604	331.0249	383.8588	434.9245	498.4533	572.414	630.5037	725.4131	803.855	915.044	959.0108	1010.7737	1027.6605	1050.5149	1053.8928	1073.8059	1108.2963	1152.6681	1183.7321	1212.4591	1361.3306	1381.8509	1412.8587	1414.104	1423.6508	1437.5737	1475.4013	1476.6115	1485.6201	1497.8551	1802.7918	2371.0859	2931.4059	3029.5954	3041.3536	3090.9742	3094.6483	3104.6983	3104.983	3119.4582	3132.7832
CC#CC1C(C)N1C=O	CC#C[C@H]1[C@@H](C)N1C=O	
InChI=1S/C7H9NO/c1-3-4-7-6(2)8(7)5-9/h5-7H,1-2H3	InChI=1S/C7H9NO/c1-3-4-7-6(2)8(7)5-9/h5-7H,1-2H3/t6-,7+,8?/m1/s1
