19
gdb 13559	2.75442	1.65659	1.1541	2.5356	72.55	-0.2306	-0.0239	0.2067	1071.7604	0.162918	-365.038145	-365.028891	-365.027946	-365.07264	32.625	
C	 1.056518262	-1.769313005	 1.2175401372	-0.41183
C	 0.0569696348	-1.294689696	 0.1454747235	-0.095298
C	-0.6972535578	-0.0836696067	 0.668211663	 0.173088
O	-1.8821310877	-0.0385244948	 0.8737489213	-0.252384
C	 0.7977521798	-0.9168240959	-1.1318461604	 0.013819
C	 1.0639111616	-1.9294685477	-2.1950078338	-0.260224
N	 0.1644992429	-0.8109567185	-2.4450338281	-0.085481
C	-1.2549135369	-1.1011338311	-2.6044320859	-0.321693
H	 1.6236791876	-2.629488463	 0.8512857388	 0.131548
H	 1.7726967494	-0.9779173293	 1.4658648637	 0.12483
H	 0.5409044462	-2.0602429046	 2.1372372543	 0.131133
H	-0.6800628166	-2.0785597975	-0.0451432167	 0.096431
H	-0.0454916715	 0.8021686821	 0.8639597971	 0.07226
H	 1.5527792184	-0.1458673537	-0.9692741519	 0.09165
H	 2.0009745334	-1.9310581172	-2.7462825717	 0.117122
H	 0.6201599508	-2.9154963325	-2.0526931193	 0.106388
H	-1.6078332194	-1.9869506522	-2.0545499922	 0.105858
H	-1.8437429828	-0.2396673314	-2.2764058113	 0.137287
H	-1.4543276745	-1.2665850052	-3.6677264777	 0.125497
54.8777	59.0452	148.9452	201.5979	212.7958	220.8247	289.7727	317.8321	355.395	442.5873	517.3717	535.8013	750.4128	832.0801	890.9365	920.6973	953.1126	979.5014	1034.6961	1077.4216	1104.5757	1127.2864	1130.8795	1154.1938	1164.8351	1193.9302	1204.4405	1264.6501	1308.3345	1340.7339	1400.3559	1419.6912	1429.1067	1453.0062	1486.1476	1496.2876	1497.3119	1501.6275	1512.6932	1834.6559	2841.555	2981.2246	3035.1251	3072.3452	3079.5504	3082.1014	3092.0262	3108.9253	3111.8536	3119.2191	3168.2146
CC(C=O)C1CN1C	C[C@@H](C=O)[C@H]1CN1C	
InChI=1S/C6H11NO/c1-5(4-8)6-3-7(6)2/h4-6H,3H2,1-2H3	InChI=1S/C6H11NO/c1-5(4-8)6-3-7(6)2/h4-6H,3H2,1-2H3/t5-,6+,7?/m0/s1
