17
gdb 43416	2.42359	1.94392	1.1823	5.7256	76.87	-0.2156	-0.0124	0.2032	1018.0706	0.138999	-418.016543	-418.009187	-418.008242	-418.048131	29.006	
O	-0.1257437373	 0.0531169775	 0.674222377	-0.366162
C	-0.0567877193	 1.1566216951	 0.1690268267	 0.311045
C	-1.2239282819	 1.845306156	-0.4090876257	-0.188493
C	-1.4608646419	 3.1717676107	-0.5213632249	 0.01169
N	-0.6812524438	 4.2239682187	-0.1152587234	-0.288133
C	 0.3875910041	 4.0246006208	 0.8528930516	-0.216804
C	 1.4860819517	 3.1750144892	 0.2583878379	 0.006366
C	 2.118480848	 2.071011994	 1.060950344	-0.256621
N	 1.1894996205	 1.7888224548	-0.0050715546	-0.076598
H	-2.0238219981	 1.1750383943	-0.6998896631	 0.107989
H	-2.3970183026	 3.4875044538	-0.9746449376	 0.114873
H	-1.1446022303	 5.1167529047	-0.0824254575	 0.249918
H	 0.774831634	 5.0052068775	 1.1435292068	 0.116391
H	-0.000408779	 3.5276351548	 1.7568560877	 0.118348
H	 2.0763135042	 3.6684702708	-0.5125172629	 0.101447
H	 3.1562969059	 1.8008858658	 0.8862649796	 0.125668
H	 1.7684923058	 1.9184432815	 2.0799941386	 0.129076
124.2514	197.2587	254.6673	297.5264	364.7851	387.4077	432.1248	489.0271	520.0918	625.0193	679.7147	722.4474	803.1971	837.4211	854.5281	948.9004	958.109	975.4322	983.6004	1043.1627	1096.0757	1102.3288	1129.6634	1145.4987	1175.5386	1231.578	1279.2834	1317.2675	1350.9825	1369.9374	1427.2148	1442.5538	1478.1131	1514.3798	1522.3463	1682.4609	1758.2548	2978.7077	3088.1246	3102.8484	3118.3567	3164.2317	3190.0454	3206.3666	3642.4915
O=C1C=CNCC2CN12	O=C1C=CNC[C@H]2CN12	
InChI=1S/C6H8N2O/c9-6-1-2-7-3-5-4-8(5)6/h1-2,5,7H,3-4H2	InChI=1S/C6H8N2O/c9-6-1-2-7-3-5-4-8(5)6/h1-2,5,7H,3-4H2/t5-,8?/m0/s1
