17
gdb 71105	2.51794	1.74908	1.41219	3.3138	74.46	-0.248	-0.0316	0.2164	967.9336	0.135708	-421.790969	-421.783295	-421.78235	-421.82325	29.823	
O	 0.0876344252	 1.4145915853	 0.0583995945	-0.48027
C	 0.0196270118	 0.038638172	 0.0204277455	 0.339027
C	 0.3959691396	-0.7637928297	-1.2632201425	-0.277262
C	-0.5764354882	-1.8307343053	-0.7500262709	-0.124961
C	-0.4584469234	-1.8780138564	 0.7561502747	-0.124971
C	 0.5873245254	-0.8405268803	 1.1771732451	-0.277254
C	-1.3133859916	-0.7845636107	 0.0990097963	 0.235519
C	-2.6790862687	-0.336277754	 0.2199805665	-0.014571
O	-2.967489938	 0.8472443812	 0.279428918	-0.299665
H	-0.8210935325	 1.7354603372	 0.1394829943	 0.303083
H	 0.0103503112	-0.2706765491	-2.158190007	 0.112949
H	 1.4458927072	-1.0420893006	-1.4013316478	 0.100091
H	-1.0413750848	-2.634942287	-1.3057101054	 0.10617
H	-0.8351854277	-2.7175474379	 1.3261994882	 0.106168
H	 1.6445524131	-1.1218369135	 1.1324294296	 0.1001
H	 0.3482515342	-0.406104998	 2.1502885749	 0.112943
H	-3.4654648129	-1.1201769332	 0.2569664558	 0.082905
68.7418	129.4346	249.4668	303.6802	335.659	403.6626	450.0153	481.6896	484.8687	622.9173	699.5502	702.4222	822.3232	844.5524	858.4059	896.1476	920.1899	960.4181	1003.0234	1003.0601	1043.8942	1076.1053	1097.6663	1116.3052	1119.6559	1162.6931	1202.0712	1229.0818	1269.1978	1298.4376	1330.5546	1389.0601	1400.8068	1462.7585	1488.1182	1507.9074	1742.2496	2900.146	3044.6798	3050.6215	3118.9348	3121.3972	3197.0394	3207.0168	3752.1375
OC12CC3C(C1)C23C=O	O[C@@]12C[C@H]3[C@@H](C1)[C@@]23C=O	
InChI=1S/C7H8O2/c8-3-7-4-1-6(7,9)2-5(4)7/h3-5,9H,1-2H2	InChI=1S/C7H8O2/c8-3-7-4-1-6(7,9)2-5(4)7/h3-5,9H,1-2H2/t4-,5+,6-,7-
