25
gdb 101192	2.83107	1.02165	0.91966	0.2479	92.36	-0.246	0.0843	0.3303	1457.5401	0.228982	-352.334709	-352.324843	-352.323899	-352.369698	37.737	
C	 0.1510326913	 1.5431119735	-0.065003922	-0.392887
C	 0.2679752944	 0.0209966664	 0.0625721478	-0.160929
C	 0.6405218538	-0.4855377367	 1.469840111	 0.009624
C	-0.4295903261	-0.1554248544	 2.5217827127	-0.394371
C	 0.8846443395	-1.9861988651	 1.4317382257	 0.026231
C	 2.1310040007	-2.671336534	 0.9367668359	-0.085618
C	 3.4050035238	-1.9158976257	 1.3431515316	-0.228775
C	 2.9752909387	-2.022083166	 2.8419510707	-0.228687
C	 1.7087142568	-2.776997054	 2.4127414086	-0.089354
H	 1.0793795306	 2.0383416728	 0.2424676067	 0.111065
H	-0.0513707697	 1.8346915778	-1.1005890588	 0.109844
H	-0.6583910809	 1.9458376454	 0.5516474247	 0.116742
H	-0.6786800965	-0.4461577435	-0.2439743698	 0.087531
H	 1.0249183321	-0.3415605365	-0.6439825229	 0.096865
H	 1.568720142	 0.0195505508	 1.7660344846	 0.070021
H	-0.1427169011	-0.5461611454	 3.5031756794	 0.115186
H	-0.5865349324	 0.9223103671	 2.6243480577	 0.110129
H	-1.3920555979	-0.6086696332	 2.25373908	 0.107582
H	-0.0096597198	-2.5378023514	 1.1378226434	 0.075478
H	 2.0884174319	-3.4308728733	 0.1644223352	 0.077581
H	 4.3123979895	-2.4885355726	 1.1390034419	 0.100006
H	 3.5355918338	-0.9113895391	 0.9271885185	 0.094389
H	 3.6599394807	-2.6486243495	 3.4177856145	 0.09996
H	 2.8274245147	-1.0857415837	 3.3900705816	 0.094983
H	 1.2945767501	-3.6296835496	 2.9386906714	 0.077403
55.5883	80.9804	140.2245	170.5234	213.3645	246.9919	260.8556	292.0814	378.1699	411.8132	475.0372	548.0165	737.1666	758.397	781.4579	788.3725	798.1882	846.0321	897.0591	944.2533	953.6255	959.6392	976.0691	991.7752	1015.0085	1023.6346	1042.6378	1077.8844	1086.287	1123.5829	1139.3719	1149.406	1185.7763	1223.4098	1224.4348	1243.8945	1263.8472	1285.0464	1305.7556	1306.0958	1344.6985	1359.0538	1377.4854	1405.8957	1413.5664	1454.1502	1482.1177	1484.9344	1495.5593	1499.0486	1505.8503	1505.941	1510.6668	3007.2674	3022.8555	3028.0086	3031.2784	3041.2859	3047.8962	3050.5274	3091.3286	3091.9604	3094.7761	3099.5598	3102.0982	3109.5292	3110.6622	3164.8863	3176.869
CCC(C)C1C2CCC12	CC[C@@H](C)[C@H]1[C@H]2CC[C@@H]12	
InChI=1S/C9H16/c1-3-6(2)9-7-4-5-8(7)9/h6-9H,3-5H2,1-2H3	InChI=1S/C9H16/c1-3-6(2)9-7-4-5-8(7)9/h6-9H,3-5H2,1-2H3/t6-,7-,8+,9-/m1/s1
