20
gdb 57257	2.18115	1.44212	1.2908	3.2773	78.49	-0.2704	0.0332	0.3036	1127.3924	0.16858	-403.153581	-403.14375	-403.142805	-403.187605	37.534	
C	 0.2813744329	 1.479551968	 0.0403212851	-0.404132
C	 0.0556409724	-0.0493723593	-0.0154669072	 0.027197
C	 0.4830413621	-0.6996381474	 1.3161010861	-0.435479
C	-1.3833147653	-0.3118402072	-0.2191169003	 0.258747
N	-2.5011364534	-0.5312141026	-0.4187417877	-0.350887
C	 0.7710994983	-0.6199419346	-1.2624405933	 0.433079
O	 0.2850699264	-0.0702293569	-2.4575604936	-0.471531
C	 2.248512079	-0.8571850309	-1.277592687	-0.319654
C	 1.2891105136	-2.0327838734	-1.334976981	-0.331361
H	 1.3378280013	 1.6785225016	 0.2423092939	 0.123351
H	 0.0178859056	 1.9382811138	-0.9134352057	 0.149276
H	-0.3171069933	 1.9338836485	 0.8340891066	 0.126084
H	-0.0552230928	-0.2316212581	 2.1442401647	 0.138121
H	 0.2656257273	-1.7692875652	 1.337698385	 0.139466
H	 1.5525827766	-0.5500907384	 1.4852891578	 0.128956
H	-0.6088799182	-0.4076822829	-2.5980389482	 0.295984
H	 2.7603512362	-0.5778298137	-2.1907901015	 0.133006
H	 2.8216899567	-0.7082671204	-0.3702343008	 0.117123
H	 1.221405993	-2.6815381787	-0.4700341028	 0.11851
H	 1.1706619114	-2.5330530122	-2.2891246404	 0.124143
66.508	135.4036	186.1617	223.3789	242.6981	262.3609	287.8958	342.6282	358.2688	392.8702	406.1144	422.9587	505.6711	551.556	592.3958	641.483	769.5239	801.3464	895.2838	908.843	946.0168	951.6343	965.9183	989.5084	1035.2198	1055.4566	1082.7871	1165.4256	1182.389	1187.2218	1229.5157	1270.7635	1293.0774	1381.3143	1395.7846	1420.9533	1450.5979	1481.6175	1488.8296	1500.5446	1501.3609	1513.5133	2345.3675	3050.4867	3054.4276	3121.7567	3125.9765	3135.8334	3145.372	3147.0537	3150.3295	3227.3124	3240.4355	3771.0855
CC(C)(C#N)C1(O)CC1	CC(C)(C#N)C1(O)CC1	
InChI=1S/C7H11NO/c1-6(2,5-8)7(9)3-4-7/h9H,3-4H2,1-2H3	InChI=1S/C7H11NO/c1-6(2,5-8)7(9)3-4-7/h9H,3-4H2,1-2H3
