20
gdb 56173	3.6325	0.74609	0.72808	1.8163	75.86	-0.2459	0.032	0.278	1630.2346	0.168455	-440.308078	-440.297568	-440.296624	-440.345467	36.93	
C	 0.2115141762	 1.5036677971	-0.5542961671	-0.462761
C	 0.0031741754	 0.0617996118	-0.141371135	 0.420962
C	-1.4024818553	-0.4981086366	-0.2602846279	-0.250427
C	-2.3770388053	 0.1120608281	 0.7537001248	-0.307886
C	-3.8009658383	-0.4006402351	 0.5473210223	 0.407509
N	-4.5771811899	-0.4059131292	 1.6702463138	-0.524509
O	-4.2264079745	-0.7465508968	-0.5383423201	-0.360718
C	 1.1467519385	-0.8625465712	-0.1749107592	-0.230473
O	 0.6886176655	-0.3212428513	 1.0668043886	-0.283332
H	 1.2526686439	 1.7981675888	-0.4027170918	 0.127042
H	-0.0422344576	 1.6432038402	-1.6105527182	 0.125208
H	-0.4167822156	 2.1813165241	 0.032688413	 0.124261
H	-1.7929387447	-0.3340759654	-1.2693938773	 0.126196
H	-1.368427329	-1.5817193661	-0.109849479	 0.107225
H	-2.0308261552	-0.085821266	 1.7739235741	 0.116323
H	-2.4149698601	 1.2034158412	 0.6431224571	 0.129327
H	-4.2082315165	-0.1966327961	 2.5806341238	 0.25818
H	-5.5246285079	-0.7378113754	 1.5937975238	 0.259465
H	 0.9765857964	-1.929883401	-0.3123287072	 0.11036
H	 2.1211275138	-0.5059171211	-0.5080605584	 0.10805
23.3208	57.3651	76.1477	126.2896	136.8155	195.2682	225.6414	345.9186	353.1947	391.2047	437.9029	496.4848	536.8535	596.0958	670.5952	733.5054	780.1392	830.7789	886.1445	912.0428	933.7288	979.4674	1054.8902	1059.8223	1085.3589	1114.6867	1134.9454	1159.4202	1185.1397	1256.951	1278.915	1320.7982	1343.3835	1400.0224	1410.8165	1427.1284	1463.0323	1478.427	1488.7691	1499.0635	1531.9267	1617.0593	1795.3721	3031.3633	3039.3138	3055.5212	3073.6426	3076.2502	3101.4547	3103.7768	3124.522	3160.8223	3603.8314	3741.7791
CC1(CCC(N)=O)CO1	C[C@@]1(CCC(=O)N)CO1	
InChI=1S/C6H11NO2/c1-6(4-9-6)3-2-5(7)8/h2-4H2,1H3,(H2,7,8)	InChI=1S/C6H11NO2/c1-6(4-9-6)3-2-5(7)8/h2-4H2,1H3,(H2,7,8)/t6-/m1/s1
