18
gdb 78018	2.87596	1.28532	1.0552	2.7836	74.67	-0.2443	-0.0282	0.2161	1162.6993	0.145972	-439.041669	-439.032798	-439.031854	-439.075059	32.971	
C	-0.2013970574	 1.5248164068	 0.0256756621	-0.321301
N	 0.103729621	 0.0973933681	 0.1021822048	-0.122768
C	 1.353843601	-0.4843011801	-0.2747093167	-0.109954
C	 2.6069665981	 0.2861036408	 0.170065526	 0.114522
O	 2.841280951	 1.4705124426	-0.5577623115	-0.427448
C	 2.058759985	 0.3618897592	 1.6346472194	-0.365783
C	 0.8575472921	-0.4821761169	 1.1906079899	 0.223773
C	 0.3007687014	-1.6439732507	 1.9082333383	 0.084304
O	 0.7089309879	-2.0397456613	 2.9741756344	-0.269219
H	 0.6359608356	 2.186771619	 0.2636454531	 0.13139
H	-0.5247655304	 1.7430395757	-0.9959007169	 0.132334
H	-1.0365410775	 1.7318992662	 0.7011882822	 0.12392
H	 1.3494061509	-1.3001959085	-0.9906661814	 0.106584
H	 3.4770809104	-0.3826101298	 0.1298768287	 0.088731
H	 3.6645876537	 1.8596811811	-0.2451695743	 0.28945
H	 2.6843334522	-0.1603233524	 2.3594105776	 0.130682
H	 1.8224290348	 1.3604394125	 2.0089436408	 0.108765
H	-0.5328375699	-2.1408033521	 1.3663312338	 0.082021
96.2571	143.9299	174.1123	203.0703	240.2102	276.1356	277.5515	323.0233	417.8712	462.8956	518.9426	629.3308	694.9501	714.2468	765.0373	862.8108	918.5526	963.4787	981.4443	1003.4357	1044.4736	1060.8987	1115.981	1152.8905	1163.761	1191.0934	1198.7224	1224.3229	1264.9566	1292.5964	1324.5851	1380.8566	1420.9711	1430.8705	1461.9517	1481.441	1495.047	1513.8504	1804.8812	2904.0423	3013.887	3039.5305	3075.9769	3113.877	3116.7504	3139.7338	3164.9859	3813.9373
CN1C2C(O)CC12C=O	CN1[C@H]2[C@@H](O)C[C@@]12C=O	
InChI=1S/C6H9NO2/c1-7-5-4(9)2-6(5,7)3-8/h3-5,9H,2H2,1H3	InChI=1S/C6H9NO2/c1-7-5-4(9)2-6(5,7)3-8/h3-5,9H,2H2,1H3/t4-,5-,6-,7?/m0/s1
