20
gdb 96863	2.87534	1.34752	1.01954	2.8357	82.97	-0.2376	0.031	0.2686	1231.1116	0.17117	-403.162276	-403.15349	-403.152545	-403.195797	33.077	
C	 0.1281839383	 1.4128104754	 0.0646670982	-0.328199
N	 0.2215443751	-0.0378432776	 0.0728199025	-0.340537
C	 0.5374475074	-0.6423753979	-0.9860104934	 0.44711
O	 0.8590217346	-0.0350719217	-2.1817357651	-0.273201
C	 0.7559097902	-0.970456282	-3.2788449578	 0.108092
C	 1.8366158273	-0.6563350241	-4.3005695983	-0.397681
C	 0.8082164973	-2.3489876815	-2.6341538526	-0.064085
C	 1.9512795073	-2.6138243518	-1.7008062545	-0.29438
C	 0.6264764995	-2.1166921238	-1.1518695511	-0.136752
H	 1.0287286039	 1.8441147242	 0.5200015636	 0.122495
H	 0.0146692772	 1.8463175782	-0.936134416	 0.116881
H	-0.7194872961	 1.7176381201	 0.6869346538	 0.117541
H	-0.2328434598	-0.8325194556	-3.7392774561	 0.087305
H	 2.8330414829	-0.8022026238	-3.8750221674	 0.125969
H	 1.7308172178	-1.3127496389	-5.1700007279	 0.119793
H	 1.7522359504	 0.3796118568	-4.6397955119	 0.130407
H	 0.3256465571	-3.1716660193	-3.1472178995	 0.098136
H	 2.1972116168	-3.6500536428	-1.4995195389	 0.12109
H	 2.7987037023	-1.9366125419	-1.6877679641	 0.127992
H	 0.0337867406	-2.744188442	-0.5014889636	 0.112023
88.0289	115.501	154.9905	197.2636	222.022	251.9024	326.8915	387.6148	466.294	505.5002	631.2138	681.4125	729.6271	789.4507	803.6009	844.3542	924.5111	942.1105	957.0419	990.0233	1042.9289	1050.9519	1072.3111	1086.1913	1100.9825	1118.1493	1126.5192	1156.2623	1161.713	1197.6392	1218.7058	1340.4527	1354.0266	1379.8487	1385.8358	1411.9364	1438.3359	1481.7601	1487.1427	1493.0534	1496.0332	1497.7598	1800.9297	3000.9562	3011.4081	3045.032	3067.8194	3088.2313	3117.5673	3126.0595	3136.0429	3187.7697	3217.9502	3227.3897
CN=C1OC(C)C2CC12	CN=C1O[C@@H](C)[C@H]2C[C@@H]12	
InChI=1S/C7H11NO/c1-4-5-3-6(5)7(8-2)9-4/h4-6H,3H2,1-2H3	InChI=1S/C7H11NO/c1-4-5-3-6(5)7(8-2)9-4/h4-6H,3H2,1-2H3/t4-,5+,6+/m0/s1
