21
gdb 31505	3.04457	1.07748	0.84961	0.3621	88.57	-0.197	0.0304	0.2273	1451.1966	0.181134	-387.147632	-387.137548	-387.136604	-387.18311	36.187	
C	 0.3202215718	 1.4448147054	-0.2291761075	-0.370068
C	-0.0728048356	-0.0062661605	 0.0988286285	-0.293209
C	 0.5316513855	-0.5139657914	 1.3623897527	 0.370248
C	 0.0204583065	-0.927783692	 2.550278073	-0.380377
C	 1.1332739404	-1.2946178198	 3.3885347774	 0.189973
C	 1.0528155597	-1.8124302309	 4.7915578482	-0.505463
C	 2.2489690834	-1.0716922674	 2.6377242633	 0.252413
C	 3.7070732858	-1.2349808441	 2.8795176252	-0.494807
O	 1.8950088606	-0.5964523657	 1.4020781653	-0.22387
H	 1.405907963	 1.5397952135	-0.3177875766	 0.130266
H	-0.1292661354	 1.7649871937	-1.1741481551	 0.110062
H	-0.0138920268	 2.1270182792	 0.5585034453	 0.119675
H	-1.1605396319	-0.0904114294	 0.190040975	 0.110724
H	 0.2223121237	-0.6554312767	-0.7364136539	 0.11287
H	-1.0266886378	-0.9732092125	 2.8105860897	 0.098729
H	 0.4774688548	-2.7443350858	 4.8433491303	 0.126822
H	 2.0439548778	-2.0150366471	 5.2062870803	 0.120449
H	 0.5579218131	-1.0949899551	 5.4567814803	 0.126651
H	 4.1577909697	-1.9375105455	 2.168482782	 0.133933
H	 4.2417100483	-0.283001755	 2.7787057074	 0.13366
H	 3.8841063333	-1.6157286429	 3.8876457995	 0.131317
54.3307	94.1676	116.2835	126.8851	191.519	222.345	251.718	265.9124	293.3906	390.8813	460.6434	580.0734	632.805	649.0389	687.9377	768.3514	785.726	800.3809	951.1494	964.2378	988.0838	1026.4848	1057.5824	1066.2953	1076.816	1087.8859	1150.006	1181.1171	1245.2758	1264.268	1307.8664	1355.8194	1397.2241	1405.734	1424.8402	1431.2771	1471.875	1474.4021	1482.7534	1491.466	1495.799	1497.9114	1507.16	1616.5938	1683.3526	3017.7189	3023.8208	3025.7365	3039.6179	3071.1546	3071.4453	3076.0139	3108.2647	3110.0587	3120.8687	3127.5119	3240.8722
CCC1=CC(C)=C(C)O1	CCc1cc(C)c(C)o1	
InChI=1S/C8H12O/c1-4-8-5-6(2)7(3)9-8/h5H,4H2,1-3H3	InChI=1S/C8H12O/c1-4-8-5-6(2)7(3)9-8/h5H,4H2,1-3H3
