20
gdb 67126	2.52952	1.74873	1.59024	1.4171	85.1	-0.2223	-0.0087	0.2136	986.069	0.172319	-365.936786	-365.92915	-365.928206	-365.968261	31.256	
C	 0.0202198682	 1.594613873	-0.0993231815	-0.503802
C	 0.0973407292	 0.1080450791	 0.0726283412	 0.273873
C	 0.9310280544	-0.8644280742	-0.6551038233	-0.03341
C	 1.902924078	-1.7468493812	 0.1459969028	-0.228258
C	 1.9512131884	-1.2682045759	 1.6359869477	-0.253898
C	 0.503565807	-1.3705606328	 2.0469187175	-0.129123
C	-0.3653694029	-0.7257905143	 1.2640830401	 0.07217
C	-1.3872643336	-1.3982318543	 0.3741740079	-0.193383
N	-0.6048932233	-0.8770225076	-0.8263560196	-0.206109
H	 0.7733572418	 2.1010578105	 0.5148756326	 0.122204
H	 0.193393612	 1.8638209113	-1.1455774832	 0.127464
H	-0.9628385653	 1.9777055594	 0.1950274522	 0.123845
H	 1.3175875296	-0.5489609308	-1.6212896263	 0.096924
H	 1.6233808549	-2.8058586677	 0.1149979635	 0.110588
H	 2.8910406469	-1.6716293845	-0.3239922472	 0.100062
H	 2.6084449583	-1.8980318736	 2.2402210243	 0.099509
H	 2.3421785357	-0.2460818311	 1.6718174413	 0.112789
H	 0.1869634239	-2.252390978	 2.6006449904	 0.090908
H	-1.4907674089	-2.4853431456	 0.4545941698	 0.102949
H	-2.3765601042	-0.9355475617	 0.3051609397	 0.114698
177.6201	182.4599	214.6325	259.6785	319.6424	422.9392	464.873	471.7218	533.4066	597.601	649.6281	717.2922	760.1708	824.5221	836.6537	873.3019	879.9251	907.8611	944.4845	958.7615	1021.5313	1039.4779	1065.7216	1075.8963	1106.3033	1126.1366	1140.3155	1182.3189	1205.6005	1241.3163	1269.7244	1295.9216	1318.6892	1334.6447	1347.4999	1404.987	1432.9559	1480.2715	1484.1439	1486.799	1492.3021	1505.2574	1690.7808	3028.5372	3030.2423	3038.1862	3049.4045	3070.244	3090.4257	3091.9332	3104.2667	3109.6099	3137.4073	3143.1706
CC12C3CCC=C1CN23	C[C@@]12[C@H]3CC[CH][C]1CN23	
InChI=1S/C8H11N/c1-8-6-3-2-4-7(8)9(8)5-6/h3,7H,2,4-5H2,1H3	InChI=1S/C8H11N/c1-8-6-3-2-4-7(8)9(8)5-6/h3,7H,2,4-5H2,1H3/t7-,8+,9?/m1/s1
