18
gdb 52866	2.59164	1.09116	0.82458	4.3435	82.97	-0.2346	-0.0201	0.2145	1418.4939	0.144502	-401.91801	-401.907751	-401.906807	-401.955226	35.439	
C	-0.0952199965	 1.3217482313	-0.2325582948	-0.505867
C	-0.0913096741	-0.1311586709	-0.1477569749	 0.19917
C	-0.0872747227	-1.3348938071	-0.074188287	-0.117458
C	-0.0830244757	-2.7702890467	-0.0020502202	 0.054279
C	-0.4615289071	-3.4304872361	 1.2936622791	-0.257825
N	-1.4001262362	-3.4726485104	 0.1829361988	-0.333154
C	 0.8551484109	-3.5575859171	-0.9136034177	 0.351849
C	 1.5499579134	-2.7969403973	-2.0195608724	-0.506773
O	 1.0147403002	-4.7407318657	-0.7342086431	-0.291544
H	 0.5236604661	 1.6687448744	-1.0672829299	 0.153666
H	-1.108337403	 1.7077033215	-0.3905025434	 0.153224
H	 0.2962953678	 1.7778022143	 0.6834167865	 0.152887
H	 0.0146790439	-4.3808357135	 1.5118805865	 0.148776
H	-0.6589525313	-2.7765776044	 2.1376850616	 0.122548
H	-2.1109269324	-2.7538908582	 0.3069995168	 0.241314
H	 2.1846560822	-2.0112491769	-1.5963728633	 0.147764
H	 2.1515509097	-3.4859768009	-2.612694761	 0.139895
H	 0.8135512248	-2.2921973462	-2.6541126815	 0.147251
22.8605	37.9323	84.684	129.2872	167.2811	240.1787	282.0801	304.1795	313.6178	378.9187	447.1997	521.6651	536.3778	615.7897	621.2626	790.4732	824.0131	898.7488	975.8207	986.6906	1022.1073	1050.9879	1052.8183	1054.2296	1104.3641	1150.3243	1181.7253	1277.152	1330.5097	1347.2241	1384.415	1414.7656	1457.3097	1469.5536	1475.4049	1477.8934	1481.6975	1813.8765	2359.5755	3027.7118	3042.8602	3088.8976	3090.4999	3103.9451	3120.2032	3157.7708	3221.7843	3490.5601
CC#CC1(CN1)C(C)=O	CC#C[C@]1(CN1)C(=O)C	
InChI=1S/C7H9NO/c1-3-4-7(5-8-7)6(2)9/h8H,5H2,1-2H3	InChI=1S/C7H9NO/c1-3-4-7(5-8-7)6(2)9/h8H,5H2,1-2H3/t7-/m0/s1
