15
gdb 133226	3.0911	1.43649	0.98687	4.8597	76.83	-0.2068	-0.0327	0.1741	1126.991	0.113329	-458.099491	-458.091559	-458.090615	-458.133285	28.874	
C	 0.0729743187	 1.429105363	 0.043618839	-0.316125
N	-0.0040733353	-0.0207095057	-0.010390775	-0.011877
C	-1.1719312935	-0.712601508	-0.146327354	 0.035261
C	-1.2078836397	-2.0665059495	-0.1572313272	-0.185153
C	 0.0105585219	-2.8343419412	-0.0178333491	 0.164006
N	 0.0546034597	-4.1209720802	-0.0197990567	-0.555188
C	 1.1669629279	-1.9383849963	 0.1230051356	 0.278449
F	 2.3492605851	-2.5288656347	 0.2592120076	-0.062431
N	 1.181533421	-0.6567891283	 0.1309598367	-0.270733
H	 0.7847229725	 1.7926800574	-0.7019218095	 0.155267
H	-0.9131268005	 1.8444865134	-0.1677092315	 0.141565
H	 0.3995851425	 1.762589656	 1.0336498909	 0.150931
H	-2.0600728418	-0.1011022539	-0.2472968663	 0.135894
H	-2.1460962221	-2.5927654768	-0.2720533383	 0.123634
H	 1.0195913436	-4.4346165951	 0.0917251078	 0.216501
22.9209	108.1593	177.7087	319.3607	330.6915	332.3726	443.8731	469.9596	525.7249	548.8307	596.6951	708.8747	733.1229	823.1877	827.1591	877.4138	953.9801	968.3658	1065.5323	1116.411	1152.7139	1177.4318	1259.3089	1334.8481	1363.4012	1391.4162	1459.158	1472.655	1480.59	1521.2628	1638.585	1642.5493	1686.482	3043.9128	3109.7174	3149.7333	3207.8831	3229.9545	3473.854
CN1C=CC(=N)C(F)=N1	CN1CC=C([NH])C(=N1)F	
InChI=1S/C5H6FN3/c1-9-3-2-4(7)5(6)8-9/h2-3,7H,1H3	InChI=1S/C5H7FN3/c1-9-3-2-4(7)5(6)8-9/h2,7H,3H2,1H3
