17
gdb 24415	3.52953	1.55038	1.1183	4.0421	74.09	-0.2127	0.0306	0.2434	1044.9371	0.140406	-418.05093	-418.044029	-418.043084	-418.082198	27.289	
C	-0.0034809505	 1.4072222793	 0.0137697869	-0.06414
C	 1.4348820676	 1.9711570752	 0.0215841103	-0.349753
C	 2.1722781641	 1.2262805218	-1.0373402845	 0.275389
C	 1.7389178871	 0.0714440512	-1.6260691754	 0.219854
C	 0.4516565202	-0.5764372296	-1.2210690822	-0.190385
O	-0.0221652058	-0.0085425076	-0.0019900393	-0.248732
N	 2.624821762	-0.3650913107	-2.5838375436	-0.3267
C	 3.5956927503	 0.5201033549	-2.5694323536	-0.008336
N	 3.375472327	 1.5086705415	-1.6491467329	-0.347278
H	-0.5410608841	 1.707817606	 0.9171850884	 0.108386
H	-0.5444749733	 1.8098922391	-0.8579888996	 0.093421
H	 1.4034792154	 3.0522111875	-0.1671829669	 0.103242
H	 1.8889510733	 1.829056333	 1.0114241795	 0.118425
H	-0.3113802565	-0.4740065182	-2.0118765694	 0.10054
H	 0.5821371632	-1.6460425785	-1.0295006206	 0.126245
H	 4.4782095148	 0.5029603862	-3.1913653782	 0.127699
H	 3.9783176852	 2.291503339	-1.4586145688	 0.262122
115.4752	216.7704	278.0855	329.3328	372.5839	461.1125	503.851	523.2137	657.0075	691.7158	706.3591	754.4401	797.9857	862.3429	938.2118	964.1388	972.5891	1029.5279	1083.7744	1106.1016	1117.2375	1163.9555	1206.9784	1225.8021	1254.7077	1289.1473	1307.4704	1338.5873	1382.9762	1396.5806	1417.2716	1464.1352	1479.4633	1490.8846	1500.4157	1521.8178	1640.9211	2956.18	2974.875	3010.1293	3045.5746	3075.9185	3090.6443	3251.77	3663.111
C1CC2=C(CO1)N=CN2	C1Cc2c(CO1)nc[nH]2	
InChI=1S/C6H8N2O/c1-2-9-3-6-5(1)7-4-8-6/h4H,1-3H2,(H,7,8)	InChI=1S/C6H8N2O/c1-2-9-3-6-5(1)7-4-8-6/h4H,1-3H2,(H,7,8)
