23
gdb 121383	4.03466	0.84055	0.73458	1.0856	89.21	-0.234	0.0307	0.2647	1623.2725	0.206853	-388.301273	-388.291882	-388.290938	-388.335879	35.102	
C	-0.0060242152	 1.4031747601	-0.0040728826	-0.226452
O	 0.0132830394	-0.0027733173	 0.0133853416	-0.233812
C	-1.278082432	-0.5734435857	 0.023429026	-0.069101
C	-1.1477120013	-2.0978596294	-0.0190865236	-0.035569
C	-2.5144144587	-2.7711340503	 0.1863091473	-0.211344
C	-2.4477104391	-4.2695934515	-0.131017916	-0.21354
C	-2.0413288695	-4.504837842	-1.5931980858	-0.236026
C	-0.9060108119	-3.6062481982	-2.0113327136	-0.070665
C	-0.4985370638	-2.5521647273	-1.3052055848	-0.03912
H	 1.0315719655	 1.7463765428	-0.0104599914	 0.125584
H	-0.5157445143	 1.7952522031	-0.8987423587	 0.103111
H	-0.5109775109	 1.8166497702	 0.8838260883	 0.101683
H	-1.8240539834	-0.2658859594	 0.9325474069	 0.080488
H	-1.8614875978	-0.2191616041	-0.844496813	 0.083763
H	-0.48761293	-2.3670948535	 0.8198871693	 0.088161
H	-2.8618702272	-2.6090867419	 1.2130370611	 0.090557
H	-3.253118248	-2.2963876633	-0.474953233	 0.09399
H	-1.7091255995	-4.7421928831	 0.5291396341	 0.099605
H	-3.409753777	-4.7494210443	 0.0783528099	 0.089377
H	-1.7599947155	-5.5548880593	-1.7442642271	 0.099725
H	-2.903441634	-4.3377599487	-2.25689527	 0.104024
H	-0.4027994548	-3.8529723104	-2.9439535206	 0.08023
H	 0.3393757892	-1.9518146766	-1.6479626043	 0.09533
68.7793	95.9643	111.4895	168.2621	232.6115	272.4799	289.7772	331.4321	377.5388	461.0227	529.2295	545.1526	695.1515	743.5395	812.2657	867.172	881.0074	918.08	974.7581	985.6469	1000.6311	1018.8961	1073.4848	1083.1352	1110.5204	1117.5297	1154.7685	1166.5307	1185.7636	1205.7923	1234.9196	1248.8703	1258.2451	1277.7762	1310.705	1347.3247	1369.1483	1376.2443	1380.2702	1413.1539	1422.4327	1475.6887	1479.6364	1485.1393	1489.5064	1496.8004	1502.5129	1525.9571	1722.1461	2940.8187	2968.2339	2968.9232	2990.3401	2992.7569	3009.9252	3010.2947	3021.583	3038.6332	3061.4353	3070.9158	3111.2435	3142.0294	3175.798
COCC1CCCC=C1	COC[C@H]1CCCC=C1	
InChI=1S/C8H14O/c1-9-7-8-5-3-2-4-6-8/h3,5,8H,2,4,6-7H2,1H3	InChI=1S/C8H14O/c1-9-7-8-5-3-2-4-6-8/h3,5,8H,2,4,6-7H2,1H3/t8-/m1/s1
