16
gdb 54207	3.01642	1.42821	1.1997	3.2149	63.68	-0.261	0.0062	0.2671	1031.2308	0.124559	-475.011521	-475.003711	-475.002767	-475.044005	29.964	
N	 0.0527910787	 0.9380885156	 0.0379154605	-0.598274
H	 0.51204968	 0.0603384699	 0.2658450249	 0.256019
H	 0.427096912	 2.8219001524	-0.0849613028	 0.307656
H	-0.5463569149	 0.7598151579	-0.7636491292	 0.246558
C	-0.7357979559	 1.3694539495	 1.1857391585	 0.119822
C	-2.0030614531	 0.5562204372	 1.6600737492	-0.313366
C	-1.2554357174	 0.2335435321	 2.9539290298	 0.052955
O	-0.0233108943	-0.4203292681	 2.5919698605	-0.258238
C	-0.0778177826	 1.0049255754	 2.5447665451	 0.002902
C	-0.9921746181	 2.8831918738	 1.1112401769	 0.405765
O	-0.1267058466	 3.5258406085	 0.3167157357	-0.372565
O	-1.8494520824	 3.4456839677	 1.7395055661	-0.344372
H	-2.8549393246	 1.2196053593	 1.8128985824	 0.148755
H	-2.2757828702	-0.3049487825	 1.0457615545	 0.104761
H	-1.6448480261	 0.0332968005	 3.943811739	 0.11947
H	 0.6610136456	 1.5655671908	 3.1050569089	 0.122152
77.3709	137.5284	198.6859	294.2193	351.6628	372.0124	397.9458	443.89	498.3978	630.2523	702.53	744.254	785.6732	839.1535	851.3433	865.5787	884.1888	921.874	941.7815	984.514	1007.0983	1053.5246	1105.4789	1133.0817	1196.2569	1216.6939	1231.0155	1257.4093	1279.5878	1313.5564	1384.8468	1419.8496	1456.3183	1657.4577	1861.6625	3073.0981	3150.5023	3191.402	3211.3926	3485.0759	3503.4566	3563.4847
[NH3+]C1(CC2OC12)C([O-])=O	N[C@]1(C[C@H]2O[C@@H]12)C(=O)O	
InChI=1S/C5H7NO3/c6-5(4(7)8)1-2-3(5)9-2/h2-3H,1,6H2,(H,7,8)	InChI=1S/C5H7NO3/c6-5(4(7)8)1-2-3(5)9-2/h2-3H,1,6H2,(H,7,8)/t2-,3-,5+/m1/s1
