17
gdb 100456	4.17364	0.60599	0.55549	5.2904	76.28	-0.2467	-0.0364	0.2103	1931.9436	0.135586	-455.126326	-455.116168	-455.115224	-455.163263	35.331	
N	-0.5683878104	 1.5798353867	 0.0703868545	-0.509949
C	-0.2244219138	 0.1596906171	 0.1804630856	-0.181757
C	-1.5252827875	-0.6419665384	 0.4235707749	-0.147126
N	-2.1352885396	-0.1975336544	 1.6778331186	-0.513771
H	-1.7008831542	-0.6617026396	 2.4694591835	 0.234172
H	-1.1554145685	 1.7966899313	 0.8729759876	 0.243588
H	-3.1184250932	-0.4431247878	 1.6999133217	 0.240074
C	 0.4443618068	-0.3130216081	-1.0302912682	 0.14752
C	 0.999668267	-0.7263018788	-2.0181971755	-0.063957
C	 1.6629135067	-1.2217340102	-3.2062207335	 0.334862
O	 2.1840851053	-2.2982239134	-3.3014890795	-0.296936
O	 1.655012647	-0.3517907405	-4.2470194282	-0.35849
H	 0.2684375394	 2.1500417905	 0.1373933669	 0.230002
H	 1.1837088774	 0.4504619229	-3.9867869671	 0.311753
H	 0.4507894916	-0.0633539948	 1.028608091	 0.094344
H	-2.2129980537	-0.4141502413	-0.395909169	 0.12903
H	-1.2941391103	-1.7154503912	 0.3836324868	 0.106642
23.5765	66.7576	77.9696	143.5852	203.5654	229.0118	239.7471	326.615	329.2687	381.9765	503.0298	519.0566	529.7052	603.5969	612.4928	767.2274	775.6642	823.1113	883.9933	915.9107	982.9427	1036.7804	1079.8005	1122.2511	1156.4229	1194.3005	1280.2586	1317.4302	1319.2649	1348.1386	1380.0827	1415.6751	1494.0681	1638.5351	1658.907	1846.8186	2340.873	2911.633	3005.393	3094.1137	3482.903	3506.7762	3572.0319	3589.002	3785.1649	23.5769	66.7579	77.9702	143.5859	203.5657	229.0118	239.7471	326.6149	329.2685	381.9761	503.0298	519.0568	529.7049	603.5968	612.4934	767.2273	775.6642	823.1114	883.9933	915.9108	982.9426	1036.7805	1079.8005	1122.251	1156.4226	1194.3006	1280.258	1317.4296	1319.2648	1348.1381	1380.0822	1415.6745	1494.067	1638.5351	1658.9069	1846.8184	2340.8725	2911.633	3005.393	3094.1137	3482.9031	3506.7763	3572.0319	3589.0021	3785.1649
NC(C[NH3+])C#CC([O-])=O	N[C@@H](CN)C#CC(=O)O	
InChI=1S/C5H8N2O2/c6-3-4(7)1-2-5(8)9/h4H,3,6-7H2,(H,8,9)	InChI=1S/C5H8N2O2/c6-3-4(7)1-2-5(8)9/h4H,3,6-7H2,(H,8,9)/t4-/m1/s1
