18
gdb 95724	2.7827	1.36754	1.08857	2.7749	69.26	-0.2579	0.0367	0.2947	1130.2313	0.148696	-476.222846	-476.214409	-476.213465	-476.256274	31.559	
O	 0.3591809232	 1.2703848171	 0.1749545489	-0.43139
C	 0.0767608354	-0.1102933841	-0.0026513714	 0.073163
C	-1.3471157685	-0.3544952902	 0.502176922	-0.208164
C	-1.8833286532	-1.7351808214	 0.1004397294	-0.088396
O	-0.8582133552	-2.7445810986	 0.1298317287	-0.255654
C	 0.0241234266	-2.7842795577	-0.9079220389	 0.443437
N	 0.8946982495	-3.6850916543	-1.0506865617	-0.539919
O	-0.1341440891	-1.8071658667	-1.8340146808	-0.23892
C	 0.2661761766	-0.4736897514	-1.4822247519	-0.094922
H	 1.3107267478	 1.3982283127	 0.1059604153	 0.29
H	 0.7660860822	-0.720243483	 0.5986600057	 0.098588
H	-1.346757926	-0.2371682416	 1.5898076269	 0.117447
H	-2.0047185108	 0.4217483654	 0.0949499571	 0.119206
H	-2.6361660795	-2.0842341188	 0.8097688863	 0.120568
H	-2.3315794269	-1.7092428665	-0.8953150719	 0.130065
H	 0.7956289481	-4.3772667392	-0.3083576969	 0.226558
H	-0.3373171311	 0.1946055602	-2.1024097695	 0.126725
H	 1.321974371	-0.3437146619	-1.7565424872	 0.111608
68.6309	97.073	158.8385	277.7859	283.8585	326.7317	337.6073	417.052	439.7283	495.0829	610.7528	642.2834	772.1791	799.5087	835.9166	877.6162	893.986	945.5975	982.7362	1023.9367	1086.0941	1094.4827	1111.754	1122.9727	1159.0882	1219.3637	1240.1613	1284.2455	1301.1167	1308.7626	1357.9017	1380.8007	1401.7102	1428.0419	1447.1085	1486.8011	1504.0941	1508.288	1761.4183	2998.808	3016.6791	3049.1986	3072.5383	3092.9926	3100.7327	3126.9341	3500.963	3820.235
OC1CCOC(=N)OC1	O[C@H]1CCO[C]([NH])OC1	
InChI=1S/C5H9NO3/c6-5-8-2-1-4(7)3-9-5/h4,6-7H,1-3H2	InChI=1S/C5H9NO3/c6-5-8-2-1-4(7)3-9-5/h4,6-7H,1-3H2/t4-/m0/s1
