19
gdb 74719	2.45178	1.90212	1.47314	1.7464	78.9	-0.2099	-0.01	0.1999	986.7619	0.15869	-385.876196	-385.868223	-385.867279	-385.908004	32.229	
C	-0.0570295604	 1.502692906	 0.0167273972	-0.506587
C	 0.0312809346	 0.0180668016	-0.0476878406	 0.338886
C	 0.0425768373	-0.8165936737	-1.0839998626	-0.219337
C	 0.0325888999	-2.2329147039	-0.4643902028	-0.05093
O	 0.8320844094	-2.0027962162	 0.7046782189	-0.257643
C	 0.0312781205	-0.9166304472	 1.2099127905	 0.251096
C	 0.5698436838	-0.3699248168	 2.5102901834	-0.505335
C	-1.3614397165	-1.610846587	 1.2328991981	-0.122259
C	-1.3574500336	-2.43911706	 0.194871394	-0.079407
H	 0.7765122282	 1.9360841224	 0.5831953191	 0.129777
H	-0.0558290061	 1.9476068002	-0.9820347085	 0.127405
H	-0.9773292784	 1.8207842254	 0.5261739346	 0.125881
H	-0.0142834299	-0.5927483676	-2.1401801481	 0.100793
H	 0.428440285	-3.0498081692	-1.0660319034	 0.076406
H	 1.5882202512	 0.0069185181	 2.3793364585	 0.129532
H	-0.0575351094	 0.4493868414	 2.8748907594	 0.117884
H	 0.5884317362	-1.1535521046	 3.2725279906	 0.13204
H	-2.1490408734	-1.3908967926	 1.9400979483	 0.104728
H	-2.1430594685	-3.0768046862	-0.1846847365	 0.107068
153.2677	185.468	206.221	228.7604	301.2427	343.0319	445.8394	475.4366	566.2285	579.7752	641.2602	658.8931	708.4321	761.2432	784.4691	825.0741	849.9379	877.0347	894.9116	902.365	909.4007	997.54	1008.7594	1060.9534	1070.2756	1125.8444	1146.3384	1169.1602	1227.7796	1264.6702	1273.7346	1303.6871	1318.3429	1411.0081	1415.2571	1475.8238	1477.4477	1489.4973	1497.6334	1635.0684	1709.3942	3009.7352	3043.6158	3056.721	3108.1503	3114.9555	3121.0313	3132.6492	3218.8559	3227.7378	3246.7968
CC1=CC2OC1(C)C=C2	CC1=C[C@H]2O[C@]1(C)C=C2	
InChI=1S/C8H10O/c1-6-5-7-3-4-8(6,2)9-7/h3-5,7H,1-2H3	InChI=1S/C8H10O/c1-6-5-7-3-4-8(6,2)9-7/h3-5,7H,1-2H3/t7-,8+/m0/s1
