15
gdb 32722	6.93261	0.75716	0.6856	2.0733	76.27	-0.2169	-0.0113	0.2056	1562.7589	0.112745	-453.96783	-453.959494	-453.95855	-454.002289	28.566	
C	-0.0091069091	 1.3830215145	 0.0181507154	-0.25154
O	-0.0088797902	-0.0413382472	-0.0205626502	-0.188543
C	 0.6042328358	-0.648529883	 1.0034690192	 0.120923
N	 0.6518738409	-1.9156607366	 1.0402293376	-0.345886
C	 1.2899113722	-2.5176791568	 2.1076446322	 0.329303
C	 1.4339049105	-3.855528703	 2.3057645069	-0.121673
O	 2.1224641703	-4.0415268586	 3.4743056997	-0.141184
C	 2.3597185949	-2.7905965103	 3.9237936433	 0.082393
N	 1.9014221097	-1.8457726629	 3.1750276778	-0.321498
H	 1.0112437684	 1.7824314789	-0.0117204888	 0.133627
H	-0.5501214517	 1.7123596545	-0.8692332945	 0.148787
H	-0.5202454519	 1.757378829	 0.912641379	 0.133552
H	 1.0364296999	 0.0117518165	 1.7628076388	 0.118859
H	 1.1341366832	-4.7335502786	 1.7629887946	 0.152302
H	 2.902240297	-2.7054433662	 4.852747829	 0.150578
39.817	79.6005	119.7774	163.9611	195.1538	328.4064	392.3946	410.3457	545.6158	636.8363	712.2304	778.6718	797.6966	846.0784	929.9776	991.9765	1004.1372	1059.0347	1092.364	1136.2355	1168.6329	1176.7043	1239.7816	1279.3406	1296.7661	1340.3532	1397.6268	1483.5696	1494.4733	1499.1166	1571.6808	1634.5165	1735.4442	3020.2504	3075.8695	3087.1185	3150.0743	3268.7817	3308.8625
COC=NC1=COC=N1	COC=Nc1cocn1	
InChI=1S/C5H6N2O2/c1-8-3-6-5-2-9-4-7-5/h2-4H,1H3	InChI=1S/C5H6N2O2/c1-8-3-6-5-2-9-4-7-5/h2-4H,1H3
