19
gdb 36308	3.13918	1.18377	1.10617	4.6013	78.32	-0.2377	0.0328	0.2705	1172.2894	0.16159	-382.066218	-382.058062	-382.057117	-382.099809	30.625	
N	-0.4680987258	-0.3808016512	 1.898970558	-0.310284
C	-0.3226631751	 0.4379558979	 1.0966214461	 0.275205
C	-0.1348303793	 1.4785595253	 0.0828059158	-0.386135
C	 1.2875694629	 2.0281680492	 0.0601715102	 0.004348
C	 1.6158179077	 3.4551694969	-0.2142107078	-0.052265
C	 0.5399375043	 4.5285609511	-0.0972154302	-0.23265
C	-0.0183383623	 4.3990324765	 1.3445452571	-0.2414
C	 0.9930034817	 3.483843579	 2.0882254413	-0.164806
N	 1.8993001208	 2.8603640586	 1.1052536601	-0.100907
H	-0.3485460209	 1.0383739489	-0.8986607835	 0.158501
H	-0.8874358528	 2.2533167169	 0.2415301324	 0.153577
H	 1.9905445493	 1.2829811335	-0.3082391795	 0.109954
H	 2.4762998469	 3.6783238874	-0.8402187537	 0.09528
H	 1.0049695643	 5.5066358236	-0.2515864962	 0.115377
H	-0.2428280531	 4.4309565458	-0.8568505183	 0.107795
H	-0.1036880466	 5.3746259544	 1.8296930169	 0.1102
H	-1.023390939	 3.9685911443	 1.3483598888	 0.112136
H	 1.623642567	 4.0717765867	 2.7617774286	 0.116622
H	 0.5045263699	 2.7150854551	 2.6944766437	 0.129454
38.5687	108.9702	167.1268	207.9112	251.0559	384.5877	412.7365	476.1124	559.3744	688.9842	697.5496	739.8361	784.4518	820.2302	877.726	889.3519	901.8259	949.107	963.5188	987.7796	1032.7432	1075.066	1117.0974	1125.7487	1141.3675	1195.5508	1225.0845	1235.2534	1261.5466	1293.0232	1306.3407	1320.7112	1329.0297	1343.1899	1384.3547	1435.3219	1456.1004	1495.9558	1505.031	1526.3304	2361.5313	3047.478	3048.198	3052.8211	3064.6901	3079.61	3089.8019	3105.0848	3109.8868	3122.1458	3136.7599
N#CCC1C2CCCN12	N#CC[C@H]1[C@H]2CCCN12	
InChI=1S/C7H10N2/c8-4-3-7-6-2-1-5-9(6)7/h6-7H,1-3,5H2	InChI=1S/C7H10N2/c8-4-3-7-6-2-1-5-9(6)7/h6-7H,1-3,5H2/t6-,7+,9?/m1/s1
