19
gdb 125876	3.63653	1.08237	1.02851	1.8506	82.15	-0.2251	0.0259	0.251	1246.2706	0.161502	-382.084294	-382.076068	-382.075124	-382.117599	31.424	
C	 0.0430067533	 1.5359456435	-0.283229123	-0.409914
C	-0.0018540444	 0.0527138898	 0.0018667162	 0.015867
C	 1.2189521017	-0.8142387907	-0.1415558785	-0.311793
C	 0.6476595189	-0.5651295888	 1.2367794615	-0.104286
C	 1.3717616701	 0.2262655562	 2.2547556392	 0.360038
N	 0.9335012053	 0.2163321471	 3.5166274089	-0.303302
N	 1.7921641469	 1.0111695389	 4.1847152596	-0.18287
C	 2.7646302187	 1.524615095	 3.396854122	-0.022875
C	 2.5305789653	 1.0364920913	 2.1302114461	-0.296183
H	 0.9843872924	 1.9843533486	 0.0452114929	 0.120049
H	-0.0643056131	 1.7296242132	-1.3564977948	 0.112659
H	-0.7672101357	 2.0617499869	 0.2339232549	 0.119095
H	-0.9411380427	-0.4191648128	-0.2757868646	 0.085076
H	 1.1215914184	-1.8075045644	-0.5662614512	 0.109073
H	 2.1545046865	-0.3212785651	-0.387502633	 0.10984
H	 0.0867867582	-1.3810229391	 1.6802730443	 0.094055
H	 1.6622420663	 1.1444260473	 5.1727228794	 0.272922
H	 3.531406301	 2.1744091205	 3.7882831049	 0.130636
H	 3.1213879427	 1.2256120325	 1.2492868451	 0.101914
49.2123	125.036	171.3017	209.3472	277.658	347.6811	433.2436	485.2963	498.8526	634.55	664.6754	745.1749	763.5808	779.4495	840.0191	854.6478	883.3058	931.375	946.9949	975.507	1026.0014	1069.1392	1073.2087	1077.8414	1109.3006	1126.468	1148.8347	1196.799	1201.4317	1229.0538	1303.2575	1349.5257	1394.4162	1416.8772	1425.5525	1483.6826	1490.9171	1492.1822	1498.8693	1506.3276	1573.8485	3031.0664	3087.5675	3111.3765	3127.0484	3136.9826	3164.202	3210.1916	3256.4099	3276.7438	3679.2893
CC1CC1C1=NNC=C1	C[C@H]1C[C@H]1c1n[nH]cc1	
InChI=1S/C7H10N2/c1-5-4-6(5)7-2-3-8-9-7/h2-3,5-6H,4H2,1H3,(H,8,9)	InChI=1S/C7H10N2/c1-5-4-6(5)7-2-3-8-9-7/h2-3,5-6H,4H2,1H3,(H,8,9)/t5-,6+/m0/s1
