23
gdb 71951	2.68585	1.81153	1.57613	0.1373	87.63	-0.2668	0.0848	0.3516	999.367	0.209775	-351.181445	-351.174267	-351.173323	-351.212295	31.407	
C	-0.0520628333	 1.5421206557	-0.0045891876	-0.494614
C	-0.0126048441	 0.0255002853	 0.0174264159	 0.365662
C	-1.2928665483	-0.7448479553	 0.43557149	-0.265298
C	-0.3733005091	-1.8274062659	 1.0448647964	-0.024381
C	 0.1815891447	-2.7727714962	-0.0525233936	-0.213846
C	 1.2725267831	-1.904560884	-0.7190529884	-0.012689
C	 2.0122443456	-1.3491337453	 0.5176309652	-0.228868
C	 0.7640738261	-0.7460317362	 1.1577200787	-0.044748
C	 0.5966281305	-0.6241092496	-1.2600457427	-0.259988
H	 0.9494420823	 1.967411518	-0.1397037009	 0.109129
H	-0.6776881194	 1.9087274537	-0.8278973825	 0.11178
H	-0.4644588163	 1.9434120838	 0.9278361227	 0.107392
H	-1.8483490686	-0.2028034833	 1.2085170813	 0.085693
H	-1.990750263	-1.0479177287	-0.3536645778	 0.080954
H	-0.7159183336	-2.3479363855	 1.9408067747	 0.054545
H	 0.6298618999	-3.6684059371	 0.3916495281	 0.089124
H	-0.5947840869	-3.1027143924	-0.7510576743	 0.087291
H	 1.8859802092	-2.4337521051	-1.4515993099	 0.051296
H	 2.4783016402	-2.1308348397	 1.1272615146	 0.087803
H	 2.7738754702	-0.6036510997	 0.2643211609	 0.087775
H	 0.8582222226	-0.2282625438	 2.1124173393	 0.052644
H	-0.1614307961	-0.8238136763	-2.0251889852	 0.086947
H	 1.3470581543	 0.0395791878	-1.7060001051	 0.086394
209.1467	233.5917	260.2419	356.4902	389.6101	432.6681	454.8713	511.4833	590.6482	666.4086	758.2933	814.7407	830.969	848.3288	873.1374	884.8299	911.3602	926.5658	932.8279	944.9884	950.6357	994.498	1005.6277	1015.0264	1040.3376	1080.9271	1100.4616	1123.869	1141.1507	1172.5381	1193.5021	1215.7648	1230.5622	1245.6859	1260.0348	1268.2882	1283.4565	1297.6202	1318.9318	1337.2427	1348.0168	1365.1734	1410.3368	1477.7626	1485.8882	1488.3285	1493.6111	1496.2685	1509.5985	3015.0662	3023.9214	3028.5962	3032.807	3038.3765	3069.408	3074.1739	3076.6392	3078.6382	3083.5321	3086.5818	3088.06	3088.9971	3113.2465
CC12CC3CC(CC13)C2	C[C@]12C[C@H]3C[C@H](C[C@@H]13)C2	
InChI=1S/C9H14/c1-9-4-6-2-7(5-9)8(9)3-6/h6-8H,2-5H2,1H3	InChI=1S/C9H14/c1-9-4-6-2-7(5-9)8(9)3-6/h6-8H,2-5H2,1H3/t6-,7-,8-,9+/m1/s1
