19
gdb 110461	3.5258	1.15187	1.02673	0.5807	74.36	-0.2442	0.0713	0.3155	1197.8937	0.159498	-422.956747	-422.948558	-422.947614	-422.98955	31.964	
O	 0.3341800029	 0.5650804642	-0.9610043956	-0.425395
C	-0.066780106	 0.382073176	 0.3919151363	-0.112937
C	-1.4377481452	-0.2714970358	 0.3628944919	 0.034661
C	-1.6040930219	-1.7525133793	 0.0108181916	-0.072539
C	-1.4721774891	-2.5683373866	 1.3029974332	-0.110148
C	-2.7833860857	-1.8931594063	 0.9389059894	-0.11985
C	-2.1889107067	-0.6173422668	 1.6783469332	-0.139674
C	-1.2547375566	-1.5911539954	 2.4566445333	 0.156775
O	-1.7863655425	-2.0357432553	 3.6867959553	-0.449261
H	 1.2278871514	 0.9197337681	-0.9642510281	 0.28638
H	 0.6555773259	-0.2467287009	 0.9318908668	 0.088451
H	-0.1299003083	 1.3461340036	 0.9248300263	 0.083837
H	-2.0856906029	 0.3250350861	-0.28902805	 0.082403
H	-1.466378648	-2.2238476264	-0.9537644808	 0.093236
H	-1.2343656035	-3.624853684	 1.2808089212	 0.088096
H	-3.7820297689	-2.2683931058	 0.7710762505	 0.092632
H	-2.7475505674	 0.1358214338	 2.2316468908	 0.071515
H	-0.2408997931	-1.2528620613	 2.6909269119	 0.075069
H	-2.6449789344	-2.4348903181	 3.4998532527	 0.276748
77.1854	146.4997	204.0341	251.9111	271.6384	309.2075	374.4742	410.1628	530.877	579.6924	712.7786	779.7818	786.5594	814.8	836.3991	892.3127	910.4946	935.8901	978.7662	1007.0347	1021.2456	1030.6478	1035.9958	1066.0814	1078.5621	1111.8969	1128.802	1156.3538	1159.2742	1178.1244	1230.2126	1252.7048	1255.6699	1283.0594	1288.6965	1315.495	1357.029	1385.6752	1439.0128	1466.5212	1517.3974	2959.0334	3007.6186	3051.5429	3067.2208	3132.5711	3190.3863	3199.5695	3225.5499	3778.9618	3829.9672
OCC1C2C3C2C1C3O	OC[C@H]1[C@H]2[C@@H]3[C@H]2[C@H]1[C@H]3O	
InChI=1S/C7H10O2/c8-1-2-3-5-4(2)7(9)6(3)5/h2-9H,1H2	InChI=1S/C7H10O2/c8-1-2-3-5-4(2)7(9)6(3)5/h2-9H,1H2/t2-,3+,4-,5+,6+,7+/m0/s1
