22
gdb 89068	3.04959	1.04283	0.89364	1.2634	82.93	-0.2259	0.0804	0.3063	1392.6771	0.192872	-404.281382	-404.271823	-404.270879	-404.316365	35.688	
C	-0.1187264806	 1.8215814268	 0.7720709473	-0.317278
N	-0.1650569855	 0.3680871826	 0.7562369988	-0.072812
C	 0.8523648731	-0.3155958129	-0.0297354081	-0.259483
C	 0.8526424747	-0.4214180704	 1.4579832358	 0.007585
C	 2.0065528521	 0.1383960286	 2.2665087439	-0.10585
O	 1.7876658397	 0.1159816758	 3.6692854947	-0.248506
C	 0.9372009339	 1.1099959442	 4.1538135375	 0.149702
C	-0.5355946434	 0.8302279767	 4.3289407137	-0.277394
C	 0.3920272858	 0.8905536326	 5.526725701	-0.294889
H	 0.8918828473	 2.2524684475	 0.6839868025	 0.096832
H	-0.7092762608	 2.1931971714	-0.0715704627	 0.123823
H	-0.5714762097	 2.1914579993	 1.6961607622	 0.126702
H	 0.519145809	-1.1456229873	-0.6476419576	 0.114831
H	 1.6358070325	 0.2958135279	-0.480455472	 0.102293
H	 0.4478216298	-1.3305635935	 1.9008222483	 0.095692
H	 2.882175062	-0.5014494236	 2.1110008629	 0.113185
H	 2.277524369	 1.1505213199	 1.9328229254	 0.0907
H	 1.2339520903	 2.1216022172	 3.8730588171	 0.080457
H	-1.2432283876	 1.637777825	 4.1747293335	 0.110656
H	-0.89014591	-0.1474399885	 4.0256595151	 0.125733
H	 0.6506481319	-0.050571834	 5.9986689688	 0.124925
H	 0.3278292566	 1.7362662847	 6.2018433018	 0.113096
62.366	74.1283	88.5151	185.2697	233.635	247.0845	312.8017	347.9959	394.2017	415.4082	485.5607	549.9573	741.3516	748.8261	784.7163	811.6551	818.8817	909.0448	955.2655	965.8281	1024.0227	1040.632	1052.1385	1070.1012	1075.2131	1092.8997	1114.6383	1127.908	1130.1526	1159.9618	1178.3692	1192.4881	1201.8453	1205.6253	1238.6117	1295.5504	1333.035	1368.2298	1394.2208	1432.849	1447.3147	1452.5436	1480.8681	1491.3623	1498.5889	1507.2677	1515.8549	2967.673	3007.134	3066.6083	3069.4951	3076.2679	3087.3622	3112.4453	3115.2169	3137.4652	3141.7487	3166.3489	3222.2133	3236.169
CN1CC1COC1CC1	CN1C[C@H]1COC1CC1	
InChI=1S/C7H13NO/c1-8-4-6(8)5-9-7-2-3-7/h6-7H,2-5H2,1H3	InChI=1S/C7H13NO/c1-8-4-6(8)5-9-7-2-3-7/h6-7H,2-5H2,1H3/t6-,8?/m0/s1
