16
gdb 16081	4.42546	1.7239	1.47802	0.7564	76.41	-0.23	0.0133	0.2433	875.4116	0.13083	-309.434119	-309.427207	-309.426263	-309.464802	27.735	
C	 0.0094098525	-1.1711625713	-0.0494142401	-0.404562
C	 0.0200188588	 0.0318122883	-0.0104612642	 0.180023
C	 0.0080032721	 1.4610513795	 0.0543655874	 0.175598
C	 0.3926315396	 2.2552391818	-1.1820117821	-0.308996
C	 1.3077465432	 2.2878815246	 0.0171603505	-0.113788
C	 1.0752674111	 3.4131252145	 0.9659130569	-0.070304
C	-0.1451331267	 3.3701306528	 1.5045102203	-0.083426
C	-0.924731652	 2.1502363349	 1.066124539	-0.332752
H	 0.0054078304	-2.2318963648	-0.0877837279	 0.184393
H	 0.7055641654	 1.6721170813	-2.0407507774	 0.123352
H	-0.175987694	 3.1512200011	-1.4102880022	 0.115188
H	 2.2754010407	 1.8040503119	-0.0485263535	 0.102057
H	 1.8173852513	 4.1820812929	 1.1474646116	 0.099392
H	-0.5628043889	 4.1132459704	 2.1740217278	 0.097529
H	-1.8936990394	 2.4069361032	 0.6204560203	 0.115268
H	-1.136888134	 1.4824238789	 1.9101914636	 0.121029
140.7614	158.6639	298.7993	340.1288	467.1064	493.9256	527.3494	558.5605	577.5775	645.7468	716.0161	742.8406	756.051	845.0699	880.1577	928.2483	954.0481	964.8083	992.5111	1012.5137	1046.9231	1074.6157	1080.5056	1143.1166	1169.9074	1235.2851	1250.3958	1307.328	1359.5445	1386.3889	1468.3811	1481.6236	1670.2615	2233.6442	3026.6584	3056.2123	3126.8645	3179.2831	3189.2357	3212.8132	3223.0328	3505.0157
C#CC12CC1C=CC2	C#C[C@]12C[C@H]1C=CC2	
InChI=1S/C8H8/c1-2-8-5-3-4-7(8)6-8/h1,3-4,7H,5-6H2	InChI=1S/C8H8/c1-2-8-5-3-4-7(8)6-8/h1,3-4,7H,5-6H2/t7-,8+/m1/s1
