17
gdb 29449	3.27238	1.60102	1.08224	3.1268	81.46	-0.1744	0.051	0.2254	1082.3535	0.137925	-380.919684	-380.911277	-380.910333	-380.952982	31.189	
C	-0.017607129	 1.5153054487	 0.0150145121	-0.505597
C	-0.0062337393	 0.0182029865	 0.0363775719	 0.099114
C	-0.0279965064	-0.8094101329	-1.0608995752	-0.159903
N	-0.0069178475	-2.1503576496	-0.6592123146	-0.426874
C	 0.0263854988	-2.1462778438	 0.7051850195	 0.398188
C	 0.0293623039	-0.8433767923	 1.1884274759	 0.24532
C	 0.0674117867	-0.9530192239	 2.6181000309	-0.337939
C	 0.0852192502	-2.2926411295	 2.9186767782	-0.071387
N	 0.060235672	-3.0395739398	 1.7371098097	-0.410242
H	 0.8709595574	 1.9348336093	 0.5026971404	 0.120594
H	-0.0434375495	 1.8964050141	-1.0103740998	 0.11343
H	-0.889315384	 1.9221447421	 0.5423190459	 0.120599
H	-0.0563679094	-0.5648041896	-2.1111891304	 0.108482
H	-0.0236420051	-2.9422176394	-1.2742950606	 0.254036
H	 0.0804396888	-0.1555067746	 3.3450777203	 0.086638
H	 0.1133318084	-2.7987552438	 3.8701418724	 0.110506
H	 0.0649323841	-4.0412778116	 1.6837210536	 0.255035
47.3664	141.286	176.1485	228.3352	232.7924	238.2274	393.1887	512.5228	588.6902	595.6151	599.2836	664.4859	686.7086	691.7205	756.1567	798.0084	803.5291	923.8931	1000.027	1049.404	1063.8204	1067.3732	1097.931	1149.0031	1204.2092	1260.6679	1321.5486	1339.1874	1395.6526	1418.6042	1472.1076	1480.3705	1500.1437	1508.7591	1540.3729	1608.0233	1636.5266	3017.2588	3061.9581	3099.4874	3244.1924	3254.4751	3269.547	3699.9485	3703.6851
CC1=CNC2=C1C=CN2	Cc1c[nH]c2c1cc[nH]2	
InChI=1S/C7H8N2/c1-5-4-9-7-6(5)2-3-8-7/h2-4,8-9H,1H3	InChI=1S/C7H8N2/c1-5-4-9-7-6(5)2-3-8-7/h2-4,8-9H,1H3
