21
gdb 61548	3.45354	0.86388	0.74147	2.7881	79.99	-0.2582	-0.0258	0.2324	1568.7827	0.180064	-424.234879	-424.224794	-424.22385	-424.270803	36.673	
C	 0.0601290643	 1.3939713332	 0.0053087566	-0.480459
C	 0.0661533559	-0.1172353118	 0.0313573148	 0.364725
O	 0.1513264944	-0.7452973616	 1.0667460278	-0.3204
C	-0.0330232137	-0.8839365778	-1.2911427972	 0.040979
O	 0.034767556	-2.2608583289	-1.0401646938	-0.432375
C	-1.3149300157	-0.5231458684	-2.0725325064	-0.233939
C	-1.3778987045	-1.1825013119	-3.4333507791	 0.038633
C	-1.8649301356	-2.5991827436	-3.5772692335	-0.232985
C	-2.7136445062	-1.4589414133	-4.0809542422	-0.287237
H	 0.6275476723	 1.7844854045	-0.8443293848	 0.139491
H	-0.9703473955	 1.7527220837	-0.1000840489	 0.157068
H	 0.4662119883	 1.7779770773	 0.9421084908	 0.149553
H	 0.8355014283	-0.5681974939	-1.8990241355	 0.084012
H	 0.1205260554	-2.3336213081	-0.0747493367	 0.290271
H	-2.1788430974	-0.8311232143	-1.4699907897	 0.102693
H	-1.373401347	 0.5663878882	-2.1912649378	 0.094502
H	-0.5772051206	-0.8828352524	-4.1060952752	 0.078018
H	-1.3763756476	-3.2389408541	-4.3035680647	 0.109745
H	-2.1726121012	-3.1109494493	-2.6733993476	 0.121447
H	-3.6088246714	-1.2040467695	-3.5224510329	 0.107225
H	-2.8061382686	-1.3140528979	-5.151749734	 0.109032
50.9825	68.1872	102.6845	129.9306	143.376	225.5842	323.1558	337.8651	355.2043	413.1931	469.983	478.9412	584.5499	638.0218	768.8902	802.0588	807.6815	842.9436	891.5544	938.4165	955.516	975.1237	1023.0743	1039.9652	1063.3296	1073.3373	1132.7108	1138.6155	1158.1708	1195.8571	1209.0567	1230.8072	1262.301	1273.5824	1330.5732	1363.1284	1386.6688	1414.3121	1442.0163	1464.7586	1468.1384	1472.4839	1478.5061	1507.2931	1791.9393	2932.633	3017.5109	3042.4571	3061.7957	3107.256	3126.9636	3129.2558	3144.7531	3151.8456	3208.4568	3231.1815	3660.3167
CC(=O)C(O)CC1CC1	CC(=O)[C@@H](O)CC1CC1	
InChI=1S/C7H12O2/c1-5(8)7(9)4-6-2-3-6/h6-7,9H,2-4H2,1H3	InChI=1S/C7H12O2/c1-5(8)7(9)4-6-2-3-6/h6-7,9H,2-4H2,1H3/t7-/m0/s1
