20
gdb 56847	2.82123	1.19389	1.00621	4.2415	82.71	-0.2676	0.0394	0.3071	1253.8947	0.171606	-366.001422	-365.99267	-365.991725	-366.03528	33.01	
C	-0.2643114999	 1.3662652514	 0.0738330286	-0.394086
C	 0.0712028121	-0.1243381497	-0.1336111691	-0.175585
C	 0.9036062923	-0.3068730633	-1.3295895692	 0.275616
N	 1.5694918448	-0.4434440889	-2.2646440596	-0.32819
C	 0.7704150746	-0.7181227583	 1.0874092981	 0.019687
C	 0.060271417	-1.1864085898	 2.3290195229	-0.08911
C	-1.2548343327	-1.9079741097	 2.0034231492	-0.235368
C	-0.4676651041	-2.9108934056	 1.0989323278	-0.234772
C	 0.83577778	-2.1759303705	 1.4395884778	-0.070738
H	 0.6459394743	 1.9486178578	 0.2427049772	 0.135397
H	-0.7784924186	 1.7815050179	-0.7964480704	 0.134294
H	-0.9098166819	 1.4747125405	 0.9494533604	 0.12995
H	-0.8634752046	-0.6646025417	-0.3182555205	 0.125884
H	 1.7001966579	-0.200249692	 1.3147153566	 0.100831
H	 0.3254055436	-0.7927439943	 3.3032669946	 0.089386
H	-1.6848760911	-2.3997392944	 2.8780264388	 0.110031
H	-2.0424247387	-1.310192011	 1.5318385212	 0.097235
H	-0.4903567529	-3.9250303393	 1.501834948	 0.110546
H	-0.7393007062	-2.9602972018	 0.0395739783	 0.105856
H	 1.7876741641	-2.6583049072	 1.6261029293	 0.093136
47.6953	125.3618	165.8465	207.8651	219.8893	275.365	296.0225	438.1547	492.8449	532.0235	586.1764	741.3623	767.4402	786.9444	804.7183	845.4206	902.7971	947.161	955.4744	961.1358	1019.1252	1020.9628	1043.0191	1075.456	1087.6381	1117.0388	1128.1726	1145.7404	1217.1003	1222.3657	1244.919	1264.5696	1293.0405	1305.8668	1326.0476	1355.3628	1407.4406	1446.8717	1486.1317	1492.1221	1498.3736	1507.7859	2354.1264	3042.8394	3047.2483	3052.5584	3059.0358	3100.5351	3118.3436	3123.7075	3128.3815	3132.0809	3174.8499	3187.6637
CC(C#N)C1C2CCC12	C[C@@H](C#N)[C@H]1[C@H]2CC[C@@H]12	
InChI=1S/C8H11N/c1-5(4-9)8-6-2-3-7(6)8/h5-8H,2-3H2,1H3	InChI=1S/C8H11N/c1-5(4-9)8-6-2-3-7(6)8/h5-8H,2-3H2,1H3/t5-,6-,7+,8-/m0/s1
