18
gdb 83805	2.62654	1.83027	1.52983	4.208	70.7	-0.2171	0.0588	0.2759	932.1497	0.150312	-439.033951	-439.026982	-439.026037	-439.064956	28.898	
O	 0.233363697	 1.3349551988	-0.0839014416	-0.427719
C	 0.0453868692	-0.0299083942	-0.0108093028	 0.109534
C	-0.4547724983	-0.6967355861	 1.2495707438	 0.0051
O	-0.8053553918	 0.174286391	 2.2866468504	-0.247461
C	-2.179455194	 0.1817450371	 2.637745135	-0.081929
C	-3.0610557836	 0.5560165394	 1.4625832592	-0.040611
N	-2.4894578199	 1.5565443113	 0.5474015023	-0.353661
C	-2.6004504732	 0.1384401642	 0.1128604388	-0.035621
C	-1.3376192483	-0.6664948813	 0.0051324304	-0.140013
H	-0.5457279266	 1.7457745044	 0.331852567	 0.303752
H	 0.8093456404	-0.5610091519	-0.5711931515	 0.101403
H	-0.0286257756	-1.641335539	 1.5860219478	 0.08417
H	-2.4994944368	-0.7981249898	 3.0283256051	 0.093604
H	-2.2710344319	 0.9164974755	 3.4439007256	 0.11705
H	-4.1281144573	 0.5920403804	 1.6671554239	 0.09135
H	-3.2178419498	 2.1152252605	 0.1136910041	 0.240535
H	-3.3560053853	-0.0791534772	-0.6361407911	 0.093422
H	-1.458272394	-1.5978717131	-0.5393765463	 0.087096
170.2623	197.4732	289.3936	337.889	377.5733	471.6869	504.5318	568.4165	643.3705	681.9468	723.5126	756.0839	778.0674	804.8884	841.8006	891.3551	919.2662	964.6676	1007.2135	1042.5261	1055.6621	1079.6461	1093.4824	1115.8028	1128.4892	1155.6245	1165.6641	1185.9238	1244.8924	1253.1804	1295.8756	1334.8723	1360.7049	1388.9947	1398.0186	1414.8962	1455.0039	1492.0198	1507.7487	2976.6894	3077.3386	3099.4611	3139.3291	3145.0313	3152.2393	3161.4144	3523.5602	3605.802
OC1C2OCC3NC3C12	O[C@H]1[C@H]2OC[C@H]3N[C@H]3[C@@H]12	
InChI=1S/C6H9NO2/c8-5-3-4-2(7-4)1-9-6(3)5/h2-8H,1H2	InChI=1S/C6H9NO2/c8-5-3-4-2(7-4)1-9-6(3)5/h2-8H,1H2/t2-,3+,4-,5-,6+/m1/s1
