19
gdb 106974	4.15104	1.06428	0.94626	1.9314	76.92	-0.2365	0.0073	0.2438	1284.2665	0.158399	-423.019053	-423.010258	-423.009314	-423.052631	33.174	
C	 0.1922006148	 1.4650828477	 0.1349661439	-0.501207
C	 0.0086211351	-0.0115399495	-0.0124318034	 0.343814
C	-0.0898396512	-0.7291674572	-1.1377236129	-0.185468
C	-0.2741621065	-2.209418226	-0.8821872139	-0.324418
C	-0.2268933723	-2.3060302576	 0.6425962171	 0.388353
C	-0.8786751539	-3.4421459953	 1.3814983723	-0.153999
O	-0.2311083111	-4.6757790814	 1.1086952807	-0.417115
O	 1.0398463019	-1.8936708168	 1.1932780099	-0.308077
C	-0.0512262101	-0.9400936483	 1.1648014687	-0.148594
H	 1.1364357359	 1.6992723184	 0.6421463555	 0.135307
H	 0.1941110281	 1.9662171619	-0.8366047339	 0.126774
H	-0.6076936401	 1.9076944235	 0.7420807282	 0.126104
H	-0.0124120108	-0.3191096194	-2.1393517372	 0.094195
H	-1.2321036267	-2.5800073674	-1.2701578991	 0.111697
H	 0.5094500876	-2.8185038166	-1.3466625676	 0.127459
H	-0.8839027138	-3.2178372981	 2.4584136823	 0.092822
H	-1.9167849722	-3.5649164205	 1.0545567177	 0.109704
H	 0.6886401548	-4.5686034617	 1.376954846	 0.292964
H	-0.3954054396	-0.6125859959	 2.1430116756	 0.089684
60.7323	121.8319	174.056	210.2991	257.3305	293.1704	343.4133	406.4154	412.7571	434.185	579.6635	624.8826	702.5223	748.8537	813.8824	859.7726	891.0353	931.5291	956.3271	957.5068	1006.9716	1030.7792	1048.5465	1067.7243	1089.0588	1160.5381	1192.51	1198.8401	1246.9391	1258.1636	1325.0283	1337.4916	1379.2082	1415.3016	1419.2837	1445.7971	1466.9474	1479.1823	1489.3483	1489.6586	1706.4141	2996.3969	3019.102	3026.7401	3066.0565	3068.5084	3075.3951	3112.6768	3143.5125	3186.3405	3800.3268
CC1=CCC2(CO)OC12	CC1=CC[C@@]2(CO)O[C@@H]12	
InChI=1S/C7H10O2/c1-5-2-3-7(4-8)6(5)9-7/h2,6,8H,3-4H2,1H3	InChI=1S/C7H10O2/c1-5-2-3-7(4-8)6(5)9-7/h2,6,8H,3-4H2,1H3/t6-,7-/m0/s1
