19
gdb 56687	2.44319	1.31659	1.15136	5.6946	75.02	-0.2576	0.0264	0.284	1161.4827	0.158896	-419.199769	-419.190341	-419.189397	-419.233693	35.321	
N	 0.1358929021	 1.3182781397	 0.332940264	-0.50753
C	 0.0807235229	-0.0951387898	-0.0338663887	-0.162401
C	-1.2920863447	-0.5958581039	 0.1709192684	 0.321129
N	-2.3565518809	-1.0161726341	 0.3263775083	-0.332711
C	 0.5390455441	-0.4148395066	-1.4790924136	 0.408357
O	-0.2622056184	 0.4000809677	-2.3007662406	-0.482152
C	 2.0879966669	-0.3358455559	-1.6378946728	-0.291185
C	 2.1463144796	-1.8806337322	-1.4915298678	-0.21722
C	 0.6215870255	-1.9387438904	-1.7823305029	-0.283559
H	 1.1051078358	 1.6209958252	 0.3487445771	 0.235531
H	-0.3280793147	 1.8542636168	-0.3955621447	 0.253002
H	 0.7244388167	-0.6503084154	 0.6588206313	 0.127485
H	-0.0673346044	 0.2001833787	-3.2212343376	 0.28424
H	 2.3510852743	-0.0090055123	-2.6487115447	 0.100828
H	 2.6473419081	 0.2779650123	-0.9257111791	 0.096379
H	 2.8020879923	-2.4164356448	-2.1791849247	 0.109687
H	 2.3888198152	-2.1953180592	-0.4734989702	 0.113348
H	-0.0039093615	-2.6052518302	-1.184146849	 0.126773
H	 0.4148158811	-2.1317831359	-2.8399467128	 0.099998
79.251	140.2005	144.7324	215.3586	231.3833	244.7433	282.3602	333.8105	352.7758	399.0606	478.3819	528.3719	598.3313	673.1134	773.6019	784.814	814.7746	876.6091	898.1076	931.6313	958.1586	986.7518	1030.7871	1063.7277	1109.3071	1135.9701	1166.2604	1197.0224	1211.4991	1226.1279	1244.3581	1271.3301	1280.021	1333.8035	1385.9562	1407.4818	1471.3023	1487.3141	1507.4593	1661.7791	2364.311	3048.0598	3048.9231	3054.7155	3072.7737	3097.5793	3110.8743	3129.1013	3494.9588	3578.5056	3829.4681
NC(C#N)C1(O)CCC1	N[C@@H](C#N)C1(O)CCC1	
InChI=1S/C6H10N2O/c7-4-5(8)6(9)2-1-3-6/h5,9H,1-3,8H2	InChI=1S/C6H10N2O/c7-4-5(8)6(9)2-1-3-6/h5,9H,1-3,8H2/t5-/m0/s1
