18
gdb 64740	2.71325	1.25345	1.0799	5.8785	76.25	-0.2508	-0.0338	0.2171	1177.7205	0.145767	-401.977019	-401.96772	-401.966776	-402.011716	33.534	
C	-0.0183261509	 1.5834388136	 0.0401203983	-0.450671
C	-0.0055881118	 0.0515055724	-0.010636663	 0.19291
C	-1.4095028376	-0.5527442806	 0.1899464299	-0.399235
C	-2.0828552226	-0.0997477132	 1.4064136484	 0.284745
N	-2.6314267466	 0.2735945978	 2.3522098773	-0.31272
C	 0.7921502303	-0.5277041604	-1.2303458819	-0.290019
C	 1.9999213278	-0.8703087643	-0.3070629296	-0.341038
C	 1.0982450135	-0.5530745756	 0.8949458906	 0.376897
O	 1.1582850087	-0.7736649433	 2.0679373862	-0.283827
H	 0.985979615	 1.990967919	-0.1110462677	 0.123924
H	-0.6651506409	 1.986353309	-0.7473603122	 0.125303
H	-0.3874096949	 1.9389120073	 1.0057972244	 0.161568
H	-2.040776104	-0.2871908979	-0.6672716155	 0.15422
H	-1.3504799685	-1.6467253162	 0.2131289678	 0.152157
H	 0.3251679918	-1.4182574329	-1.6579947302	 0.113204
H	 0.9892159785	 0.185041046	-2.0323442125	 0.114917
H	 2.3980839417	-1.8870552536	-0.3402799535	 0.13709
H	 2.8372342503	-0.1707785871	-0.3920711269	 0.140576
49.6407	69.1196	135.2699	179.533	231.9442	264.0182	314.5424	339.8745	391.1016	461.1402	507.2608	527.2731	700.5999	709.5189	758.8202	854.2531	914.3216	923.3795	938.2629	959.1875	984.2904	1044.3563	1070.587	1141.8498	1160.1989	1200.069	1212.1787	1236.9726	1266.7475	1304.9715	1336.4317	1411.9072	1438.9997	1459.769	1487.2753	1493.3654	1498.1422	1892.9536	2363.2828	3032.7017	3034.6784	3063.6501	3072.2758	3075.9182	3100.5341	3115.7668	3122.7943	3132.687
CC1(CC#N)CCC1=O	C[C@@]1(CC#N)CCC1=O	
InChI=1S/C7H9NO/c1-7(4-5-8)3-2-6(7)9/h2-4H2,1H3	InChI=1S/C7H9NO/c1-7(4-5-8)3-2-6(7)9/h2-4H2,1H3/t7-/m0/s1
