19
gdb 127076	2.52303	1.51245	1.00952	2.6542	79.93	-0.1772	0.0426	0.2198	1192.4868	0.160862	-415.38381	-415.374448	-415.373504	-415.418022	34.477	
C	 0.302527343	 1.0512592343	-0.4989395536	-0.3514
N	 0.0448080616	-0.150695541	 0.2930457126	-0.162997
C	 0.5614338755	-0.0879543241	 1.6463255301	-0.343151
C	-1.2267739629	-0.7025564937	 0.1372207799	 0.41284
C	-1.8972713661	-1.0982687534	-1.0162445122	 0.059595
N	-1.4234812362	-0.9563756022	-2.3449080408	-0.62036
C	-3.1258667168	-1.6122747329	-0.5514306329	-0.051403
N	-3.232778306	-1.5626039122	 0.7742464798	-0.256001
N	-2.0677492957	-1.0032948895	 1.1702043129	-0.27632
H	 1.3817123151	 1.2308414184	-0.5376445395	 0.114475
H	-0.0701582798	 0.9023222622	-1.5142762358	 0.163936
H	-0.1835381908	 1.9460941514	-0.0755277162	 0.105148
H	 0.0421143036	 0.6523756742	 2.2830954261	 0.102604
H	 0.4887726963	-1.0707243064	 2.1225438294	 0.129907
H	 1.6178930289	 0.1932038679	 1.6130457993	 0.129836
H	-0.574799587	-1.4932193421	-2.4979057373	 0.241891
H	-2.1151040195	-1.2792837533	-3.0107949759	 0.239397
H	-3.9342853746	-2.0227306432	-1.1411919165	 0.095698
H	-1.9033971485	-0.8646669744	 2.1511793805	 0.266305
42.1204	158.2267	180.7897	194.9693	255.7758	259.7242	284.5415	308.975	370.4483	400.221	430.743	505.2623	613.6158	678.0216	709.5215	715.7386	841.4839	867.6221	940.1934	965.3816	1081.1535	1101.4803	1126.7388	1139.5776	1179.4232	1200.5503	1216.4246	1263.4777	1312.0606	1346.5963	1411.244	1437.0129	1450.8951	1472.9805	1487.6164	1500.4379	1505.5676	1520.0831	1561.1389	1641.5423	1657.9121	2931.4929	2966.2733	3063.6316	3069.0813	3109.7148	3131.418	3226.6888	3492.4561	3590.8866	3691.2424
CN(C)C1=C(N)C=NN1	CN(C)c1c(N)cn[nH]1	
InChI=1S/C5H10N4/c1-9(2)5-4(6)3-7-8-5/h3H,6H2,1-2H3,(H,7,8)	InChI=1S/C5H10N4/c1-9(2)5-4(6)3-7-8-5/h3H,6H2,1-2H3,(H,7,8)
