15
gdb 27908	1.99825	1.8002	0.94767	1.1263	73.1	-0.2039	0.0144	0.2182	1152.8623	0.114775	-454.029462	-454.021812	-454.020868	-454.061164	30.661	
N	 0.0771377367	 1.3483459981	 0.1956724625	-0.567717
C	 0.0070700767	-0.0237337738	 0.0566374203	 0.399613
C	-1.2219621205	-0.6890673603	 0.037481091	-0.306027
C	-1.2046468367	-2.0781608177	-0.0494991063	 0.459139
O	-2.3988459922	-2.7194980724	-0.0687448815	-0.437736
C	 0.0086014286	-2.7635032911	-0.1130227324	-0.408382
C	 1.1635945778	-1.9869738136	-0.0885018151	 0.45348
O	 2.3596506643	-2.6119885748	-0.1529390858	-0.424106
N	 1.1877198506	-0.6613709437	-0.0110750756	-0.447086
H	 0.9662548647	 1.7431010393	-0.0708710062	 0.252355
H	-0.72341974	 1.877507187	-0.1111122792	 0.25144
H	-2.1632344791	-0.1580534431	 0.097213155	 0.090259
H	-2.2443507775	-3.6685020535	-0.1270574825	 0.300693
H	 0.0682448747	-3.8427435222	-0.1826431873	 0.090791
H	 3.0221960919	-1.9083762281	-0.118298397	 0.293283
200.5961	206.4788	249.4323	323.7802	339.6715	394.4304	418.0445	511.783	525.9256	527.3585	533.9435	573.7776	634.1112	662.9876	691.0285	756.6184	792.2555	825.7662	992.2534	1013.4398	1047.1755	1130.6556	1180.1291	1196.3136	1247.8638	1296.5602	1383.086	1452.1543	1510.4642	1531.8507	1636.2456	1638.8402	1678.2618	3199.0758	3209.3383	3583.4586	3698.1112	3769.9164	3817.2431
NC1=CC(O)=CC(O)=N1	Nc1cc(O)cc(O)n1	
InChI=1S/C5H6N2O2/c6-4-1-3(8)2-5(9)7-4/h1-2H,(H4,6,7,8,9)	InChI=1S/C5H6N2O2/c6-4-1-3(8)2-5(9)7-4/h1-2H,(H4,6,7,8,9)
