18
gdb 14559	3.07317	2.10608	1.59721	1.4853	67.57	-0.2253	0.0731	0.2984	873.6988	0.152239	-384.880737	-384.872631	-384.871687	-384.912899	30.119	
C	-0.4657336976	 1.0421924066	-0.0364842168	-0.25193
O	 0.3878736635	-0.0849224311	 0.0798686778	-0.281306
C	 0.8236843858	-0.6028921611	-1.1407717983	 0.423695
C	 2.028889819	 0.092747145	-1.7389559078	-0.461619
C	 0.7737952068	-2.1015057041	-1.3104829969	-0.209616
C	-0.5152737905	-2.6266615892	-0.6865971199	-0.094297
O	-1.3242031559	-1.6859191592	-1.448106916	-0.287634
C	-0.1614064191	-1.1993501142	-2.1113563334	 0.010044
H	 0.0343709388	 1.8919573722	-0.5225246262	 0.102163
H	-1.3758752994	 0.7908296594	-0.5932967812	 0.131278
H	-0.7352047844	 1.3362654647	 0.9807220132	 0.124061
H	 2.8842306831	 0.022308223	-1.0596777432	 0.129776
H	 2.3118972317	-0.3590886843	-2.6947317252	 0.119555
H	 1.8231986684	 1.1527000779	-1.9196036047	 0.123119
H	 1.6286630644	-2.6956803726	-1.606389753	 0.097069
H	-0.7568294861	-3.6538929033	-0.9789028444	 0.106941
H	-0.6330727548	-2.4933295813	 0.3924244493	 0.119508
H	-0.2410906737	-0.9560771384	-3.1663146535	 0.099193
105.3212	169.1199	192.8178	205.1313	242.6103	270.1357	347.6544	376.2594	521.1333	581.7486	685.6838	795.4989	822.2367	871.2091	934.6743	954.4379	971.8124	1017.2877	1039.3395	1065.7929	1073.1141	1112.405	1140.8971	1166.1226	1176.4768	1188.1109	1228.4201	1249.0657	1277.0617	1330.4715	1408.0052	1412.7799	1473.3392	1481.719	1494.2036	1500.613	1503.5959	1507.8803	2998.3885	3035.5222	3041.5421	3068.3108	3100.7009	3102.7539	3109.3873	3119.6508	3159.6875	3195.1548
COC1(C)C2COC12	CO[C@@]1(C)[C@H]2CO[C@@H]12	
InChI=1S/C6H10O2/c1-6(7-2)4-3-8-5(4)6/h4-5H,3H2,1-2H3	InChI=1S/C6H10O2/c1-6(7-2)4-3-8-5(4)6/h4-5H,3H2,1-2H3/t4-,5+,6-/m0/s1
