18
gdb 68641	2.42476	2.00076	1.52867	3.416	75.08	-0.2296	-0.0142	0.2154	936.5713	0.149783	-401.987807	-401.980454	-401.97951	-402.01911	30.037	
C	-0.0109031305	 1.5258333247	 0.015425218	-0.493951
C	 0.0131784347	 0.0138091999	-0.0391971573	 0.151431
C	 0.7226052474	-0.7251493809	-1.2124452491	-0.237662
C	 0.4121679497	-2.1155448414	-0.6171102505	-0.064931
N	 1.0685999793	-1.9341716151	 0.7011041261	-0.312857
C	 0.7397237912	-0.6689921997	 1.1593483574	 0.413501
O	 0.9392416707	-0.2079877634	 2.2582298841	-0.38591
C	-1.1114589372	-1.9913324574	-0.4342641772	-0.095067
C	-1.3367259671	-0.7274407623	-0.0710817139	-0.105883
H	 1.000084337	 1.9364252748	-0.0644710001	 0.124237
H	-0.6156473573	 1.9430440122	-0.7957702039	 0.112121
H	-0.4247301556	 1.8624983058	 0.9704297449	 0.138602
H	 0.2334859685	-0.5465279565	-2.1716471265	 0.106492
H	 1.7956676386	-0.524482616	-1.2792162813	 0.10715
H	 0.7902699104	-2.9929169146	-1.1391690881	 0.079232
H	 1.1166654122	-2.6887441698	 1.3696975658	 0.248062
H	-1.8200172963	-2.8055476097	-0.5092020874	 0.105513
H	-2.2705522058	-0.2704227406	 0.230073399	 0.109921
155.6935	174.724	243.6885	300.6785	389.3692	449.7607	483.6006	524.0361	567.6018	633.9453	670.7704	698.0612	754.2282	764.3781	842.9359	857.5555	894.5591	914.1283	937.736	952.5355	989.8376	1018.7156	1085.0474	1105.2879	1123.6378	1190.3368	1199.3891	1220.0406	1264.1046	1271.5174	1323.2306	1358.6317	1380.737	1412.8949	1488.0727	1490.7329	1493.5125	1636.7117	1838.6378	3039.9214	3063.2752	3109.3011	3115.2984	3129.6436	3132.2882	3206.0984	3232.0132	3618.249
CC12CC(NC1=O)C=C2	C[C@@]12C[C@@H](NC1=O)C=C2	
InChI=1S/C7H9NO/c1-7-3-2-5(4-7)8-6(7)9/h2-3,5H,4H2,1H3,(H,8,9)	InChI=1S/C7H9NO/c1-7-3-2-5(4-7)8-6(7)9/h2-3,5H,4H2,1H3,(H,8,9)/t5-,7+/m0/s1
