21
gdb 104888	2.0693	1.51334	1.14629	2.1155	73.53	-0.2592	0.0787	0.3379	1184.0461	0.182278	-461.362345	-461.352898	-461.351953	-461.396715	35.017	
C	-0.0952745382	 1.5925017663	-0.0220384889	-0.394145
C	-0.0172014718	 0.0632498235	-0.0817092414	-0.22581
C	 0.8006119464	-0.5053254641	-1.2512450599	 0.325871
C	 2.2553474535	-0.0210376671	-1.2660026521	-0.10129
O	 2.9894439211	-0.6030540552	-2.3218315437	-0.422844
C	 0.702227143	-2.0602704248	-1.3295300566	-0.150382
O	 0.2143869551	-2.3363942756	-2.6382080284	-0.237196
C	-0.4988394769	-1.1891255806	-3.0079039615	 0.006066
O	 0.2365582668	-0.0908870715	-2.51795448	-0.295661
H	 0.8708995667	 2.0480903657	 0.2133987955	 0.12151
H	-0.4352892012	 1.9951863279	-0.9801244068	 0.134446
H	-0.8023319844	 1.9084767906	 0.7506550359	 0.113815
H	 0.3991222737	-0.3345466652	 0.8534810734	 0.101289
H	-1.0322641973	-0.3457396962	-0.1561667805	 0.101059
H	 2.2711172127	 1.0762050822	-1.3284097394	 0.098777
H	 2.7503031141	-0.311411752	-0.3326030425	 0.106662
H	 2.4584455362	-0.4664422299	-3.1160641948	 0.287525
H	 1.673458701	-2.5459050035	-1.2257851667	 0.133192
H	 0.0110685999	-2.4466074348	-0.5669016772	 0.092977
H	-0.5550042887	-1.1305847923	-4.0984546377	 0.120311
H	-1.5170589918	-1.1973626334	-2.5762476867	 0.083827
72.1684	104.5528	125.3201	197.2016	215.2901	259.6492	287.3376	336.6873	363.8397	417.0868	445.2587	572.3924	620.6479	739.8813	773.5995	795.9644	884.7298	916.5378	974.2526	985.8149	1025.2893	1045.5626	1064.0213	1095.2436	1113.2155	1140.2755	1154.4527	1194.3823	1205.5041	1231.2577	1260.7581	1273.9514	1325.6035	1363.7676	1372.0109	1389.511	1409.5834	1418.3742	1440.8473	1478.3626	1497.991	1503.889	1507.0754	1509.6796	1543.7455	2928.8204	3000.0081	3005.9535	3020.643	3045.1659	3053.5276	3072.4411	3090.8302	3110.3657	3121.011	3122.81	3786.7806
CCC1(CO)COCO1	CC[C@@]1(CO)COCO1	
InChI=1S/C6H12O3/c1-2-6(3-7)4-8-5-9-6/h7H,2-5H2,1H3	InChI=1S/C6H12O3/c1-2-6(3-7)4-8-5-9-6/h7H,2-5H2,1H3/t6-/m1/s1
