19
gdb 97161	3.47497	1.27557	1.00866	2.9886	79.04	-0.2226	0.0326	0.2552	1205.6084	0.16029	-419.18544	-419.177015	-419.176071	-419.219054	31.725	
C	-0.2780475141	 1.4460972631	-0.0042083755	-0.322415
N	-0.2593027829	-0.0064691162	 0.0765245367	-0.30567
C	 0.6150007616	-0.5749428131	 0.7847826262	 0.444938
C	 0.6586783432	-2.0812570089	 0.928775212	-0.27514
N	 2.054656369	-2.5081951593	 1.0204886723	-0.307888
C	 2.6637244495	-1.9881779049	 2.2140135401	-0.034473
C	 3.7699645649	-0.9617817006	 2.05253364	-0.310238
C	 2.3751310128	-0.5297786329	 2.4112583202	 0.104329
O	 1.596887243	 0.1279767229	 1.4395410001	-0.254621
H	 0.3742393331	 1.7885770237	-0.8178753662	 0.123927
H	-1.2942173755	 1.7740024703	-0.2411675392	 0.115865
H	 0.0545749641	 1.9415540465	 0.91570884	 0.115939
H	 0.0550563341	-2.376472458	 1.806749449	 0.100131
H	 0.185336084	-2.5056119741	 0.042825549	 0.136139
H	 2.149230584	-3.5123133913	 0.9497502725	 0.230923
H	 2.6674096954	-2.6166514157	 3.1055223966	 0.085144
H	 4.53627461	-0.8842411892	 2.8158188725	 0.113929
H	 4.0891503528	-0.7740807328	 1.0344283308	 0.13337
H	 2.1819454707	-0.1503894295	 3.409850363	 0.105812
50.6443	88.0641	174.8406	213.1267	274.3735	326.6453	415.6369	451.4155	478.6154	561.5254	624.3329	657.6519	713.5566	798.0587	826.577	880.8196	924.0829	994.3893	1014.853	1035.5023	1046.6577	1068.4709	1077.2033	1118.1262	1128.2911	1150.4988	1155.2663	1184.8029	1232.8071	1240.6234	1264.9463	1319.7617	1380.4838	1417.9608	1437.0581	1456.8707	1484.35	1489.098	1495.7139	1498.7133	1784.9017	2930.6533	3012.0143	3067.2846	3084.3461	3096.7066	3126.4055	3140.1716	3152.5664	3240.4279	3571.2885
CN=C1CNC2CC2O1	CN=C1CN[C@H]2C[C@H]2O1	
InChI=1S/C6H10N2O/c1-7-6-3-8-4-2-5(4)9-6/h4-5,8H,2-3H2,1H3	InChI=1S/C6H10N2O/c1-7-6-3-8-4-2-5(4)9-6/h4-5,8H,2-3H2,1H3/t4-,5+/m0/s1
