21
gdb 96004	2.4632	1.42484	1.06658	2.099	77.26	-0.2462	0.0763	0.3225	1193.8386	0.183557	-424.204658	-424.195946	-424.195002	-424.238978	32.733	
C	-0.0988733273	 1.5756177609	-0.0835836826	-0.42236
C	 0.049267234	 0.0552231944	-0.0153767205	 0.006887
C	 0.9536054796	-0.5208047759	-1.1206547889	-0.089368
O	 1.4159500037	-1.7632106373	-0.6233943731	-0.246349
C	 1.7563348283	-1.5258006044	 0.7329432615	-0.110682
C	 0.6976786469	-0.5379675498	 1.2884200358	-0.062661
C	 1.249443113	 0.4927634552	 2.2510159693	 0.083604
C	 2.4272965057	 0.2762828232	 3.1014650159	-0.197831
O	 2.5035628549	 1.1098174124	 1.9416099595	-0.231777
H	 0.8616950488	 2.078914894	 0.0611550116	 0.143822
H	-0.4923892573	 1.8748557992	-1.0610297096	 0.11288
H	-0.7950055793	 1.9514666882	 0.6730679628	 0.113664
H	-0.941341526	-0.3979791273	-0.1273718119	 0.080088
H	 0.4314909272	-0.7049235036	-2.0634048556	 0.105174
H	 1.7980796809	 0.1626088887	-1.315695673	 0.091287
H	 1.7687520161	-2.4892027173	 1.2484105751	 0.10426
H	 2.7558039697	-1.0708080795	 0.7972728203	 0.107216
H	-0.071019306	-1.0906417502	 1.8398432229	 0.082854
H	 0.5069459065	 1.1982376002	 2.6270893881	 0.093652
H	 2.5066063857	 0.7968405298	 4.0546626083	 0.117482
H	 2.9813105749	-0.6590661611	 3.0401258842	 0.118158
28.5259	96.3718	194.1126	219.3905	260.0657	274.7826	315.3003	387.4146	461.4144	546.6606	629.2144	645.8961	746.3006	831.7378	885.7609	906.9239	940.1879	961.8124	980.473	987.6837	1018.5276	1093.673	1096.3631	1111.7029	1127.133	1144.9383	1158.3481	1170.6836	1181.3211	1234.2313	1272.7265	1295.4882	1309.7164	1328.2483	1344.0918	1354.4981	1389.2009	1404.5573	1417.8071	1434.3801	1501.2731	1502.5404	1505.7265	1516.6017	1533.2027	2958.3281	2998.0664	3032.1746	3034.2278	3050.4993	3085.9926	3091.0939	3092.952	3096.0173	3099.7053	3114.4104	3171.6403
CC1COCC1C1CO1	C[C@H]1COC[C@H]1[C@H]1CO1	
InChI=1S/C7H12O2/c1-5-2-8-3-6(5)7-4-9-7/h5-7H,2-4H2,1H3	InChI=1S/C7H12O2/c1-5-2-8-3-6(5)7-4-9-7/h5-7H,2-4H2,1H3/t5-,6+,7+/m0/s1
