17
gdb 83857	2.25362	1.84012	1.3854	4.2501	67.86	-0.2548	-0.0067	0.2481	978.2139	0.13745	-458.981836	-458.974219	-458.973275	-459.014017	29.535	
O	 0.0892140073	 1.3767789604	 0.0109278501	-0.416846
C	-0.0205302031	-0.0067156095	-0.0173912316	 0.129652
C	-1.344662386	-0.7002577356	 0.0752115538	-0.110395
C	-2.5959485983	 0.1686796388	 0.1006143616	-0.255303
C	-3.049209306	 0.511672251	-1.3129945122	-0.082731
O	-1.9554116902	 0.9812266127	-2.1349686641	-0.256269
C	-0.9592563919	 0.0637589521	-2.3968296674	 0.402641
O	-0.4249367591	 0.0542756529	-3.4689406924	-0.31499
C	-0.5529800598	-0.7678861461	-1.2373240029	-0.233386
H	-0.5068749296	 1.7635491496	-0.643366943	 0.30101
H	 0.8314501561	-0.4557124842	 0.4809315197	 0.121044
H	-1.3789836296	-1.6201939476	 0.6490808054	 0.102417
H	-3.4093239298	-0.3499566602	 0.6164259512	 0.116297
H	-2.3937069742	 1.0890687043	 0.660831717	 0.125846
H	-3.4967822067	-0.3619030431	-1.8019818913	 0.121913
H	-3.7817682397	 1.3213315473	-1.3259711608	 0.127902
H	-0.0400833994	-1.680557153	-1.5128741633	 0.121199
85.3988	154.0565	197.2465	270.4688	404.0544	408.7354	435.0567	488.4091	522.3422	598.1629	695.7352	738.7664	770.1783	801.2122	823.1178	913.1228	933.4894	956.1228	1010.0205	1044.8327	1052.0532	1098.9949	1122.2004	1130.5048	1183.5214	1226.4022	1251.2973	1284.6609	1333.476	1347.1341	1372.3135	1375.3755	1416.7511	1455.2729	1485.3655	1509.5777	1854.3988	3035.0217	3041.5502	3091.0359	3113.7503	3161.5419	3178.2484	3197.6216	3764.7683
OC1C2CCOC(=O)C12	O[C@H]1[C@H]2CCOC(=O)[C@@H]12	
InChI=1S/C6H8O3/c7-5-3-1-2-9-6(8)4(3)5/h3-5,7H,1-2H2	InChI=1S/C6H8O3/c7-5-3-1-2-9-6(8)4(3)5/h3-5,7H,1-2H2/t3-,4+,5-/m0/s1
