23
gdb 68075	2.54541	1.62692	1.21398	1.2737	85.39	-0.233	0.0799	0.3129	1138.5898	0.206235	-388.296828	-388.288188	-388.287244	-388.329088	35.429	
C	-0.089574373	 1.5598888875	 0.0271132288	-0.479365
C	 0.0185502207	 0.0465019737	-0.0088854742	 0.327313
C	 1.1155613501	-0.6248572607	-0.8958411965	-0.315784
C	 1.1307615612	-1.7626120615	 0.1682906637	 0.429706
C	 2.3814862668	-2.5762880246	 0.4098630973	-0.460417
C	 0.6718611562	-0.6930285141	 1.1984797412	-0.279955
O	 0.0594551423	-2.6884017531	-0.039752204	-0.312816
C	-1.0851719022	-2.1260962717	-0.6718414505	-0.075887
C	-1.3278031699	-0.6522399758	-0.2883474584	-0.263592
H	 0.8759255507	 2.018388124	 0.2676425357	 0.107954
H	-0.4200409738	 1.9590083739	-0.9392089328	 0.111543
H	-0.8122820839	 1.8872470261	 0.7841195683	 0.113495
H	 0.8884049657	-0.8774919158	-1.9350907444	 0.09342
H	 2.051083287	-0.059095017	-0.8630105968	 0.0923
H	 3.2300135014	-1.9233500976	 0.6340109153	 0.10737
H	 2.2334090283	-3.2574891579	 1.2538595927	 0.123688
H	 2.6249811951	-3.178387394	-0.4712003906	 0.119331
H	 1.5165264055	-0.1307969689	 1.609237837	 0.085581
H	 0.0221389366	-1.0387573753	 2.0074624095	 0.089081
H	-0.9719363064	-2.2006763956	-1.7632741068	 0.0921
H	-1.9334921742	-2.759175608	-0.3949222517	 0.103642
H	-1.9635531587	-0.5712158708	 0.6017379252	 0.099303
H	-1.8604042153	-0.1570582228	-1.109667078	 0.091992
204.1049	208.0923	217.82	223.2961	253.4995	277.543	356.3133	414.8624	429.2672	456.6604	470.3084	554.2351	628.8306	695.5678	809.6635	834.5007	854.4942	866.8443	892.2617	932.0924	944.3871	996.3123	1000.2233	1020.1354	1040.1199	1070.683	1082.3977	1136.8434	1151.5583	1199.5035	1208.7744	1239.3993	1245.433	1267.822	1282.3639	1292.5481	1326.6141	1365.6931	1408.0047	1412.1008	1414.6731	1467.2781	1479.9463	1485.8221	1491.894	1493.9535	1495.9228	1498.7356	1527.6816	2987.9536	3016.6424	3021.8738	3036.4132	3041.4769	3054.8289	3058.8932	3077.2791	3082.4911	3089.1919	3103.0026	3105.5509	3107.782	3116.1462
CC12CC(C)(C1)OCC2	C[C@@]12C[C@@](C)(C1)OCC2	
InChI=1S/C8H14O/c1-7-3-4-9-8(2,5-7)6-7/h3-6H2,1-2H3	InChI=1S/C8H14O/c1-7-3-4-9-8(2,5-7)6-7/h3-6H2,1-2H3/t7-,8+
