19
gdb 46058	3.63537	1.06939	0.91119	4.4117	75.6	-0.2604	0.0186	0.279	1303.2429	0.16044	-423.066138	-423.057958	-423.057014	-423.099681	30.809	
O	-0.0495922719	 0.1008930693	 0.4258413154	-0.336678
C	-0.042506173	 1.2538224935	 0.1062387551	 0.425197
C	-1.1906213686	 2.0896981301	-0.4522186066	-0.35815
C	-0.6979034847	 3.5307251157	-0.3018344744	-0.248726
C	 0.8400235819	 3.369839144	-0.2981881024	 0.090686
O	 1.0717194247	 2.0286465535	 0.1969709621	-0.222791
C	 1.4852297808	 3.5434168438	-1.6492369943	 0.022919
C	 2.0132651017	 4.9015386153	-2.0457994997	-0.273677
C	 2.9691086995	 3.7749683122	-1.7488012853	-0.265595
H	-1.3392038894	 1.8020057019	-1.498852094	 0.140065
H	-2.1143854804	 1.8611909089	 0.0805814604	 0.140009
H	-1.0296220405	 4.1997733741	-1.0977976159	 0.118373
H	-1.0319924513	 3.9492434892	 0.6516084871	 0.116872
H	 1.3177237401	 4.0443665669	 0.4192246782	 0.088889
H	 1.0331121567	 2.9503799751	-2.4406188466	 0.08643
H	 1.8863477962	 5.2185764165	-3.074537982	 0.117943
H	 1.9376659928	 5.7074921718	-1.3227207999	 0.114827
H	 3.5349662884	 3.8167456407	-0.824221064	 0.123131
H	 3.5020843072	 3.3172472175	-2.5740424633	 0.120278
71.6545	85.3832	119.0623	202.6722	292.8484	357.7817	429.5302	508.5541	548.3039	667.8215	732.4917	762.349	799.8857	831.1973	848.7445	882.9252	924.5859	948.7539	987.1962	1006.9126	1038.5025	1059.1	1067.7415	1083.3299	1125.1017	1130.7842	1171.2031	1196.0209	1212.15	1227.0891	1241.2203	1295.7105	1316.4658	1337.6301	1365.3656	1438.5022	1466.2027	1471.2869	1499.159	1507.5738	1881.1814	3054.6907	3060.2695	3069.7981	3118.4937	3130.7613	3132.7591	3136.7672	3140.8781	3212.5054	3227.9853
O=C1CCC(O1)C1CC1	O=C1CC[C@@H](O1)C1CC1	
InChI=1S/C7H10O2/c8-7-4-3-6(9-7)5-1-2-5/h5-6H,1-4H2	InChI=1S/C7H10O2/c8-7-4-3-6(9-7)5-1-2-5/h5-6H,1-4H2/t6-/m1/s1
