14
gdb 5502	3.25258	1.88603	1.2027	3.2172	65.62	-0.2404	-0.0494	0.191	938.7477	0.10715	-382.584483	-382.577209	-382.576265	-382.616209	26.01	
C	-0.0274857667	 1.5074793626	 0.0386957552	-0.506943
C	-0.0098090132	 0.0099577111	 0.0283313119	 0.139568
C	-0.0281217033	-0.8022552192	-1.0577084316	-0.088957
O	-0.0027183424	-2.1214263937	-0.6876092639	-0.137235
C	 0.032529456	-2.1523844342	 0.6538825856	-0.052544
C	 0.0305552205	-0.8835618893	 1.167896976	 0.064327
C	 0.0633842163	-0.5471845828	 2.5907551878	 0.065497
O	 0.0968932821	-1.360024623	 3.4894739717	-0.275155
H	 0.8630745546	 1.9182359414	 0.5267632635	 0.139006
H	-0.0605758149	 1.9026533078	-0.9799432009	 0.131554
H	-0.8990966848	 1.897101353	 0.5758064094	 0.138983
H	-0.0578839015	-0.6179106189	-2.1188790502	 0.145362
H	 0.0562674642	-3.1235002886	 1.1197208146	 0.170441
H	 0.0555332029	 0.5429479139	 2.8115474209	 0.066097
131.8525	149.2786	169.393	226.6849	294.7867	305.118	522.8243	623.51	624.6877	646.5272	760.3506	801.9203	832.3431	903.9559	1016.7581	1037.8487	1069.3052	1081.229	1164.4791	1198.9377	1245.6516	1322.9473	1375.0971	1421.573	1456.2154	1483.2443	1495.7691	1564.2689	1631.104	1787.3297	2885.3919	3034.6913	3087.5536	3115.9977	3278.2643	3286.7392
CC1=COC=C1C=O	Cc1cocc1C=O	
InChI=1S/C6H6O2/c1-5-3-8-4-6(5)2-7/h2-4H,1H3	InChI=1S/C6H6O2/c1-5-3-8-4-6(5)2-7/h2-4H,1H3
