16
gdb 25646	6.06588	0.76008	0.67891	2.9464	90.06	-0.1812	-0.0022	0.179	1628.8427	0.125127	-396.949788	-396.940661	-396.939717	-396.985316	32.489	
C	-0.039318294	 1.4347106827	 0.0197749805	-0.510895
C	 0.0079213214	-0.0179494028	 0.0013692397	 0.246148
C	 0.0626678022	-1.2233802788	-0.0161882516	-0.086598
C	 0.105381275	-2.6342477891	-0.0334656072	 0.179564
N	 1.1898856362	-3.4033403483	-0.0698708375	-0.354571
C	 0.7359692935	-4.6902673542	-0.0756801541	 0.2736
N	 1.6360709679	-5.7534350156	-0.1768013231	-0.609387
C	-0.6436176319	-4.7228099369	-0.0398328236	-0.179699
N	-1.0255663589	-3.3976959473	-0.0102563601	-0.291884
H	 0.9712568252	 1.8557488829	-0.016137051	 0.158387
H	-0.5937761627	 1.8293168902	-0.8393623314	 0.150383
H	-0.5227961912	 1.8095469195	 0.9291963196	 0.149804
H	 2.5678046906	-5.453861542	 0.0805395488	 0.249659
H	 1.3667516346	-6.5662226895	 0.3607971376	 0.240394
H	-1.3577263824	-5.5281388523	-0.0422116158	 0.119235
H	-1.9666984055	-3.0447664386	 0.0231056091	 0.265859
15.7765	86.2144	94.6943	222.8409	247.5838	293.2447	329.2468	388.7776	453.3019	469.3104	525.8231	560.5797	641.3234	672.0711	710.6547	733.681	782.1162	952.4952	1022.2429	1050.4814	1051.3961	1058.1239	1109.7488	1128.6325	1276.1998	1331.5032	1410.0605	1424.6633	1439.2322	1473.4631	1476.557	1547.0073	1610.5679	1645.6937	2356.4006	3023.784	3080.8401	3091.1348	3279.37	3544.2023	3640.2593	3673.0133
CC#CC1=NC(N)=CN1	CC#Cc1nc(N)c[nH]1	
InChI=1S/C6H7N3/c1-2-3-6-8-4-5(7)9-6/h4H,7H2,1H3,(H,8,9)	InChI=1S/C6H7N3/c1-2-3-6-8-4-5(7)9-6/h4H,7H2,1H3,(H,8,9)
