17
gdb 32496	1.98619	1.70089	0.97847	6.0849	81.6	-0.2306	-0.0049	0.2257	1193.2325	0.137886	-380.937815	-380.929328	-380.928384	-380.971369	31.339	
C	 0.0243981284	 1.5301311148	-0.1898914026	-0.375119
C	-0.0312512823	 0.0113652165	 0.0507280814	-0.311749
C	-1.4257403248	-0.5429174285	 0.0457945088	 0.180008
C	-2.1495198248	-0.9887491199	 1.1230320404	-0.15884
N	-3.3894255987	-1.3968513297	 0.6822430693	-0.241515
C	-3.4866883884	-1.2265189648	-0.6623110991	-0.162959
C	-2.2847564129	-0.6962409132	-1.0992019935	 0.091234
C	-1.9631418139	-0.3723855714	-2.4391684954	 0.199906
N	-1.6792778244	-0.1000847479	-3.5297699275	-0.36681
H	 1.0592430213	 1.8857013551	-0.1715463218	 0.113686
H	-0.4031304658	 1.7889234583	-1.1627215077	 0.141943
H	-0.5365600785	 2.0686681855	 0.5803310071	 0.11451
H	 0.5638141383	-0.4933708947	-0.7199566317	 0.120565
H	 0.4413758794	-0.2258866436	 1.0103988536	 0.100841
H	-1.881955399	-1.0520832424	 2.1655488088	 0.132491
H	-4.1154875082	-1.773319168	 1.266727934	 0.273522
H	-4.3757244058	-1.488523786	-1.2114670041	 0.148286
59.496	124.7059	161.922	176.7275	230.5347	331.5643	382.5604	503.8964	531.2787	556.8402	589.0153	640.3371	672.1969	691.8511	762.7811	787.4874	793.7575	911.2931	965.7413	1060.9647	1088.6405	1091.8767	1123.0576	1203.4555	1250.8531	1288.2666	1332.7529	1363.1057	1387.3397	1410.7693	1475.1373	1483.3207	1498.496	1507.4782	1552.6219	1604.6218	2337.8265	3030.6179	3039.0347	3067.0955	3109.5606	3119.8561	3265.0373	3277.2129	3682.0967
CCC1=CNC=C1C#N	CCc1c[nH]cc1C#N	
InChI=1S/C7H8N2/c1-2-6-4-9-5-7(6)3-8/h4-5,9H,2H2,1H3	InChI=1S/C7H8N2/c1-2-6-4-9-5-7(6)3-8/h4-5,9H,2H2,1H3
