17
gdb 60322	3.76325	0.75815	0.66399	2.6483	72.45	-0.2864	-0.0565	0.2299	1633.246	0.133847	-455.152362	-455.142427	-455.141483	-455.188304	34.59	
C	 0.2254661728	 0.4066265947	-0.7843501097	-0.405768
C	 0.0075361426	-0.1257232346	 0.628433066	 0.105064
O	 0.2192468169	 0.8678934072	 1.6220243018	-0.424957
C	-1.3862115597	-0.7212061389	 0.8337105496	-0.080441
O	-1.5209272621	-1.8453548026	-0.0583421215	-0.233286
C	-2.6947297611	-2.4808571703	-0.0405691891	 0.333165
N	-3.671139711	-2.1507212186	 0.6976915959	-0.514907
C	-2.7014330216	-3.5925544696	-0.9773606186	 0.25321
N	-2.772489176	-4.4883802892	-1.7039776544	-0.314679
H	 1.2332801323	 0.8183133032	-0.8812648913	 0.131742
H	 0.0951109645	-0.3864546111	-1.5251630436	 0.139545
H	-0.4960995203	 1.2018959537	-1.0132188864	 0.107784
H	 0.7460460357	-0.906855478	 0.8418177508	 0.107682
H	-0.2797584868	 1.6527851467	 1.369425793	 0.283101
H	-1.5157585557	-1.056126773	 1.8662921798	 0.139255
H	-2.1732246168	 0.0096871608	 0.6123669702	 0.119073
H	-4.4711874936	-2.7631307105	 0.5574393375	 0.254417
49.0698	58.2738	100.264	160.4306	206.3873	245.6624	270.9021	292.4085	344.4546	382.8462	424.3215	459.7469	554.5314	617.1846	732.7493	836.0505	855.2104	902.326	922.9562	973.9259	1004.5226	1082.0277	1111.8552	1148.246	1166.9784	1244.0052	1300.4541	1342.8772	1373.722	1402.5049	1413.6604	1423.0535	1489.2361	1495.9361	1504.547	1703.8775	2356.8267	3024.817	3039.9197	3056.1082	3102.7265	3108.8691	3132.3151	3534.1676	3799.1718
CC(O)COC(=N)C#N	C[C@@H](O)CO[C]([NH])C#N	
InChI=1S/C5H8N2O2/c1-4(8)3-9-5(7)2-6/h4,7-8H,3H2,1H3	InChI=1S/C5H8N2O2/c1-4(8)3-9-5(7)2-6/h4,7-8H,3H2,1H3/t4-/m1/s1
