16
gdb 50926	1.9277	1.38405	0.89027	3.2705	72.31	-0.2567	-0.0118	0.2449	1279.2411	0.122056	-437.83142	-437.822226	-437.821282	-437.866555	32.104	
O	-0.1884293179	 0.1584038152	 0.4855309277	-0.261966
C	 0.1462314182	 1.2862580863	 0.6760110864	 0.179462
O	 0.4324636535	 2.1335460173	-0.339783675	-0.191357
C	 0.8454120721	 3.4719083662	 0.0128714951	-0.131569
C	 2.2444473221	 3.501092011	 0.432152324	 0.359692
C	 3.3939390903	 3.5391829141	 0.7783162044	-0.453777
C	 0.5999114329	 4.3666683128	-1.1959628036	 0.005448
C	 0.7865140341	 3.8567819819	-2.5718280681	-0.227297
N	-0.5654832452	 4.1542996516	-2.0523622617	-0.331528
H	 0.2502633726	 1.7547558503	 1.6719568111	 0.094937
H	 0.2113727771	 3.8210017854	 0.84091318	 0.124454
H	 4.4113389061	 3.5679224186	 1.0837609925	 0.214954
H	 0.8220201313	 5.408515596	-0.9786910762	 0.112127
H	 1.1382561867	 4.527602758	-3.3494933214	 0.123809
H	 1.0705219082	 2.8161557609	-2.6901880511	 0.13727
H	-1.012552542	 3.2756754343	-1.798118014	 0.245341
49.4191	82.3859	117.8994	141.3667	156.7166	247.9429	318.5913	338.0859	466.9803	509.3795	566.652	641.887	690.5238	716.0092	812.019	883.3634	927.0353	968.3493	997.1484	1021.1564	1038.914	1051.6442	1121.8749	1154.8539	1167.2032	1210.3632	1271.3254	1306.6375	1321.0072	1353.9905	1415.9111	1435.5882	1507.4901	1872.6012	2239.9387	2972.0186	3002.0922	3124.2575	3142.23	3215.4007	3498.5744	3499.6652
O=COC(C#C)C1CN1	O=CO[C@@H](C#C)[C@H]1CN1	
InChI=1S/C6H7NO2/c1-2-6(9-4-8)5-3-7-5/h1,4-7H,3H2	InChI=1S/C6H7NO2/c1-2-6(9-4-8)5-3-7-5/h1,4-7H,3H2/t5-,6+/m1/s1
