15
gdb 12334	3.11549	2.25363	1.36582	3.4158	62.73	-0.2465	-0.0053	0.2412	865.0557	0.120235	-399.828442	-399.821117	-399.820173	-399.860566	26.849	
N	 0.2892437764	 1.1913203976	 0.5604111628	-0.508382
C	-0.080956263	-0.0834212261	-0.0472746232	-0.172803
C	-1.5666430447	-0.1836634374	-0.2502109529	-0.047067
C	-2.0749948599	-0.9432216931	-1.2118441143	-0.102249
C	-1.1917748538	-1.7074082483	-2.1467595996	-0.110073
O	 0.1403720351	-1.1880441663	-2.2698475763	-0.229863
C	 0.6978016123	-0.3790239897	-1.3440767968	 0.403867
O	 1.7901596074	 0.0805286543	-1.5462083269	-0.33208
H	 1.3049935983	 1.2443746609	 0.5774080724	 0.245647
H	-0.0017546567	 1.944819273	-0.0590703172	 0.229556
H	 0.2252020496	-0.8736540587	 0.6586404515	 0.128393
H	-2.1880005776	 0.3757092711	 0.4420150905	 0.116968
H	-3.1454127976	-1.0579972445	-1.3509712997	 0.110128
H	-1.1179174655	-2.7622960024	-1.8438555567	 0.131672
H	-1.5974518003	-1.6982562503	-3.1640078836	 0.136285
48.9626	125.7533	245.7562	302.7327	309.902	448.3679	467.6954	502.8287	550.2535	664.6206	694.3963	836.5332	860.1379	934.0757	949.1094	985.1808	999.9005	1036.9889	1110.1621	1151.7616	1158.0558	1198.9747	1228.3042	1256.6911	1310.8956	1378.2692	1416.4656	1423.4081	1503.0302	1672.6637	1738.8631	1833.4994	2967.937	3001.3735	3067.2838	3173.0582	3194.149	3477.3084	3551.5269
NC1C=CCOC1=O	N[C@H]1C=CCOC1=O	
InChI=1S/C5H7NO2/c6-4-2-1-3-8-5(4)7/h1-2,4H,3,6H2	InChI=1S/C5H7NO2/c6-4-2-1-3-8-5(4)7/h1-2,4H,3,6H2/t4-/m0/s1
