19
gdb 81500	3.56816	1.28424	1.07392	4.5173	81.16	-0.2466	0.0137	0.2603	1160.5627	0.159045	-382.002443	-381.993746	-381.992801	-382.035476	33.109	
C	-0.0319432936	 1.6397351937	 0.4259687318	-0.452007
C	 0.0628276516	 0.144371608	 0.1857465343	 0.088251
C	 0.7993482084	-0.4911262614	-1.0226380177	-0.114236
C	 2.0896852316	-0.0894949596	-0.2795547821	-0.200787
N	 1.2181626251	-0.6431540302	 0.8710478672	-0.184185
C	 0.8598312137	-1.7831960115	-0.1413435012	 0.219669
C	-0.3589082688	-2.6607538036	 0.1564241707	-0.485637
C	 1.9838644919	-2.6935814234	-0.3956854521	 0.24293
N	 2.8193444571	-3.4637125219	-0.609737385	-0.348594
H	 0.8367769159	 2.2144508793	 0.1016493871	 0.12704
H	-0.9056470097	 2.0327387057	-0.1046148045	 0.126939
H	-0.1825040015	 1.8276987124	 1.4941400985	 0.140062
H	-0.904826724	-0.2902859705	 0.4335787651	 0.07714
H	 0.5644557361	-0.4312467685	-2.09091051	 0.078731
H	 2.9959417388	-0.6674489084	-0.4617407769	 0.141382
H	 2.3257093013	 0.9664715208	-0.1771441968	 0.109959
H	-1.296673302	-2.1082872091	 0.1964122622	 0.133143
H	-0.4527032338	-3.4261521076	-0.6186769435	 0.146227
H	-0.2152259182	-3.169163674	 1.1141774028	 0.153974
119.0408	132.3924	152.6415	174.2099	249.8508	299.2833	319.6498	417.6166	485.6914	542.8273	553.0401	623.6581	666.6265	726.0276	789.8914	798.6873	830.0017	906.5212	919.2206	1022.4469	1039.3039	1060.9861	1083.9311	1102.4318	1108.8868	1148.0533	1183.3674	1191.6884	1231.9425	1234.5416	1240.7497	1269.7771	1405.3144	1413.9558	1437.442	1488.1335	1490.5646	1495.9499	1503.981	1554.2347	2346.6508	3043.9858	3046.2217	3057.1353	3101.9179	3104.4799	3109.6008	3122.3501	3136.2197	3154.8636	3174.5085
CC1C2CN1C2(C)C#N	C[C@H]1[C@H]2CN1[C@]2(C)C#N	
InChI=1S/C7H10N2/c1-5-6-3-9(5)7(6,2)4-8/h5-6H,3H2,1-2H3	InChI=1S/C7H10N2/c1-5-6-3-9(5)7(6,2)4-8/h5-6H,3H2,1-2H3/t5-,6+,7+/m0/s1
