12
gdb 133168	2.00392	0.98359	0.71809	3.4366	57.56	-0.2629	-0.0632	0.1997	1466.5781	0.070219	-513.991877	-513.980579	-513.979635	-514.03461	32.676	
C	-0.1602962523	 1.8726333969	-0.1168943134	-0.475035
C	 0.2518485265	 0.418711062	 0.0095664512	-0.297395
C	 0.3669611764	-0.4849959729	-1.1251843803	 0.390033
F	 0.0576983458	 0.1643399261	-2.2690548566	-0.080498
O	 0.6802588355	-1.6363619335	-1.1404972503	-0.333266
N	-0.7607143181	-4.3908153401	 0.6974775742	-0.000115
N	-0.8990429559	-3.3400365761	 0.9864869586	-0.002363
C	 0.5351643394	-0.1134906013	 1.1945184794	 0.534167
O	 0.7783168284	-0.5480811552	 2.2349283996	-0.18473
H	 0.5390707827	 2.415722478	-0.758528198	 0.15489
H	-1.158183874	 1.9520727114	-0.557005828	 0.155142
H	-0.1787678144	 2.3637750649	 0.8584901437	 0.139171
9.6063	17.862	34.902	43.5079	73.3149	96.7185	131.4172	144.2089	242.369	244.1452	469.7486	509.9125	578.8184	682.6548	749.7832	755.302	995.3663	1058.7983	1099.2767	1270.2952	1392.3116	1420.9062	1479.4527	1504.1924	1852.517	2240.912	2433.2043	3046.9179	3114.0386	3130.2377	9.6033	17.8566	34.8995	43.507	73.3137	96.7179	131.4173	144.2094	242.3688	244.1453	469.7487	509.9126	578.8181	682.655	749.7834	755.302	995.3664	1058.7987	1099.2766	1270.2955	1392.3118	1420.9064	1479.4528	1504.1927	1852.517	2240.9131	2433.2044	3046.9178	3114.0385	3130.2377
CC1=C(F)ON=NC1=O	C[C](C(=O)F)[C][O].N#N	
InChI=1S/C4H3FN2O2/c1-2-3(5)9-7-6-4(2)8/h1H3	InChI=1S/C4H3FO2.N2/c1-3(2-6)4(5)7;1-2/h1H3;
