23
gdb 68036	2.07936	1.6423	1.36012	1.3315	86.48	-0.2465	0.0695	0.316	1136.3637	0.203354	-388.259296	-388.249309	-388.248365	-388.292938	39.032	
C	-0.1592003359	 1.5523595265	-0.0385543519	-0.496633
C	 0.0125681478	 0.0376650634	-0.0064108835	 0.402343
O	-1.2682446415	-0.5629507857	-0.1494335422	-0.49351
C	 1.2026038986	-0.6519784471	-0.7737916555	 0.272913
C	 1.4601380868	-0.6451203416	-2.2572872102	-0.523345
C	 2.1348402848	-0.1358226261	 0.3655830205	-0.32115
C	 0.8619979913	-0.6594263201	 1.1013309025	 0.294013
C	 0.5782507847	-0.6690133188	 2.5797674422	-0.520403
C	 0.9497544085	-1.8924122966	 0.1411007626	-0.305036
H	 0.7692633086	 2.1079180427	 0.0956948204	 0.123026
H	-0.5827658798	 1.8615238035	-1.0036411814	 0.105614
H	-0.8617964178	 1.8615542573	 0.7418665441	 0.126804
H	-1.7233672503	-0.1247809325	-0.8751797513	 0.274408
H	 1.6312098112	 0.3714953427	-2.6299808574	 0.113663
H	 2.3415852213	-1.2443883825	-2.5103522021	 0.120189
H	 0.6067126193	-1.0648110412	-2.8024547405	 0.115054
H	 3.0394610807	-0.7280171784	 0.5292193323	 0.087219
H	 2.3636776603	 0.930354957	 0.4133457176	 0.08294
H	 0.6075779576	 0.3435644752	 2.9981164947	 0.113318
H	-0.4144444051	-1.0867000862	 2.7777766798	 0.129026
H	 1.3142549476	-1.2745102767	 3.1196035988	 0.115825
H	 0.0339245633	-2.4551595133	-0.0275503123	 0.108084
H	 1.8126628479	-2.5470109614	 0.2950519526	 0.075637
158.8339	176.1679	192.2181	195.5074	202.5588	210.2937	220.7095	255.8239	360.9176	382.4987	440.6915	494.548	558.947	575.9032	584.5102	679.8572	684.1803	747.0622	790.2868	907.3324	914.8185	953.8238	999.8214	1003.7969	1016.3314	1054.6981	1069.7273	1105.2124	1115.7928	1150.282	1171.0996	1172.7244	1189.0625	1212.399	1223.9211	1289.967	1339.6663	1384.4606	1402.2417	1404.6184	1414.2051	1483.1471	1488.5857	1489.4871	1491.8625	1492.1282	1494.4502	1505.9554	1548.2811	3019.2518	3021.3711	3026.2271	3054.4939	3062.0777	3084.9736	3085.5304	3089.6857	3090.3968	3099.6344	3114.079	3140.	3156.2955	3816.6088
CC1(O)C2(C)CC1(C)C2	C[C@@]1(O)[C@@]2(C)C[C@]1(C)C2	
InChI=1S/C8H14O/c1-6-4-7(2,5-6)8(6,3)9/h9H,4-5H2,1-3H3	InChI=1S/C8H14O/c1-6-4-7(2,5-6)8(6,3)9/h9H,4-5H2,1-3H3/t6-,7+,8-
