17
gdb 28205	4.79655	1.18338	0.96643	1.9194	76.81	-0.2069	0.018	0.225	1199.1931	0.137166	-421.848838	-421.84101	-421.840066	-421.881456	28.831	
C	 0.1109247052	 1.4494468677	-0.0220785704	-0.490387
C	-0.0752321795	-0.0245072058	-0.0160734295	 0.361737
C	-1.1741128008	-0.829988427	-0.12694843	-0.47869
C	-0.6824762353	-2.1732211137	-0.0456652746	 0.242433
C	 0.6509691445	-2.0686663377	 0.1052948813	 0.25719
C	 1.3353813505	-3.3852899336	 0.2083517816	-0.179222
O	 0.2342031792	-4.2994363824	 0.100082352	-0.283594
C	-1.0356561548	-3.6244344841	-0.058785579	-0.178674
O	 1.0679888829	-0.7852862344	 0.1291802544	-0.228282
H	 0.7625375481	 1.7714795201	-0.8425244177	 0.139116
H	-0.8567556903	 1.9416608404	-0.1419617046	 0.13681
H	 0.5616916382	 1.8038714359	 0.9120604863	 0.139124
H	-2.1896050905	-0.486326041	-0.2500450747	 0.113573
H	 2.0576911671	-3.5762250096	-0.599714106	 0.113716
H	 1.8564040062	-3.5430129375	 1.1647748293	 0.113764
H	-1.700902936	-3.9247136651	 0.7632941691	 0.110716
H	-1.4983610846	-3.9580512522	-0.9985595976	 0.11067
108.2902	124.4273	135.4551	239.8192	263.7017	275.9263	464.9237	520.4638	631.0579	642.9844	718.6932	739.6075	795.5847	872.4778	884.3018	952.5683	1014.5737	1020.613	1054.9022	1062.8323	1070.505	1119.5527	1151.3821	1168.9559	1210.6759	1259.4905	1316.5351	1331.0553	1409.7765	1428.2902	1459.4594	1471.0907	1494.4088	1522.7303	1531.8932	1596.131	1668.2259	2979.5774	2993.7517	2998.97	3014.5821	3029.101	3078.6818	3129.1668	3251.8291
CC1=CC2=C(COC2)O1	Cc1cc2c(COC2)o1	
InChI=1S/C7H8O2/c1-5-2-6-3-8-4-7(6)9-5/h2H,3-4H2,1H3	InChI=1S/C7H8O2/c1-5-2-6-3-8-4-7(6)9-5/h2H,3-4H2,1H3
