20
gdb 124603	2.50274	1.40142	1.11367	2.9813	81.89	-0.206	0.0382	0.2442	1191.8591	0.172061	-399.356664	-399.347284	-399.346339	-399.391076	34.87	
C	-0.0941735477	 1.5785117544	 0.1408192601	-0.380208
C	-0.0399641752	 0.0524849791	 0.0174603213	 0.033465
C	 0.7829967359	-0.5901145925	 1.140566339	-0.378645
N	-1.3917638886	-0.5040885636	-0.0125402785	 0.008632
N	-2.2688878809	-0.2117116312	 0.9821846675	-0.280447
C	-3.3852348874	-0.8445746484	 0.643099022	 0.01028
C	-3.2422405253	-1.5720540089	-0.5546608944	-0.318872
C	-1.9352868202	-1.3330751336	-0.9445123054	 0.368291
N	-1.2134091842	-1.7262375151	-2.0828486234	-0.607343
H	 0.919279777	 1.9907437929	 0.1282853634	 0.109894
H	-0.656774179	 2.0150731901	-0.6888817973	 0.12309
H	-0.5818852579	 1.8660740605	 1.0747363153	 0.146656
H	 0.3971487588	-0.2061944496	-0.9519635794	 0.100277
H	 0.8424771212	-1.6759316922	 1.0166536087	 0.109164
H	 1.8007502063	-0.1882751229	 1.1463996853	 0.114115
H	 0.3186953605	-0.3838182984	 2.1086186766	 0.145001
H	-4.2566353651	-0.7655013624	 1.2774761888	 0.104201
H	-3.9668684387	-2.1909063762	-1.0590337359	 0.089573
H	-1.8066301853	-2.2358215909	-2.7248749743	 0.252401
H	-0.4095647541	-2.305047981	-1.8635640093	 0.250475
40.9199	115.4995	174.9222	201.9974	219.6103	254.6082	276.5375	301.1329	399.4702	427.3576	535.6706	628.591	668.9241	672.3427	728.5655	748.3584	808.7889	880.0135	889.2485	934.6067	941.9737	951.5634	1061.6433	1072.8349	1103.4932	1146.818	1170.6234	1214.572	1248.6002	1286.2648	1353.2987	1366.4824	1396.1831	1406.2295	1416.6577	1454.2557	1479.4857	1490.7943	1495.6012	1513.2048	1534.125	1586.3254	1656.3388	3039.4888	3047.6211	3067.1674	3109.2896	3118.0872	3126.751	3139.2675	3234.4439	3261.962	3514.7252	3612.826
CC(C)N1N=CC=C1N	CC(C)n1nccc1N	
InChI=1S/C6H11N3/c1-5(2)9-6(7)3-4-8-9/h3-5H,7H2,1-2H3	InChI=1S/C6H11N3/c1-5(2)9-6(7)3-4-8-9/h3-5H,7H2,1-2H3
