21
gdb 94703	3.21446	1.23941	1.06172	0.5595	78.	-0.2239	0.0713	0.2953	1207.9056	0.182834	-424.216389	-424.207688	-424.206744	-424.249193	34.536	
C	-0.031178285	 1.4911930857	-0.0381394339	-0.443633
C	-0.0106901297	-0.0138099527	 0.0462596342	 0.441482
C	-0.8525107011	-0.7184715202	 1.0757532389	-0.352531
C	 0.6689280522	-0.7099351601	 1.2025478474	-0.104905
C	 1.4561666132	-1.9950711114	 0.9528085378	-0.232571
C	 1.7317421992	-2.2143041073	-0.5345351621	 0.102383
O	 2.1276546815	-3.5684812219	-0.6973231503	-0.429653
C	 0.477722825	-1.9005605903	-1.3557975173	-0.11667
O	 0.1145630135	-0.5362999129	-1.2569855138	-0.295041
H	 0.8967237315	 1.8643765453	-0.4833690835	 0.119972
H	-0.8657647752	 1.8263893067	-0.6626140469	 0.124693
H	-0.1443419148	 1.9333193174	 0.9551344754	 0.113278
H	-1.438416065	-0.1147057372	 1.760777161	 0.107689
H	-1.3162099143	-1.6629363104	 0.8106231104	 0.11393
H	 1.0773520181	-0.0603911841	 1.9706976607	 0.085495
H	 2.4050649621	-1.9707134804	 1.4960771623	 0.106582
H	 0.9081105627	-2.870339689	 1.3209788998	 0.112791
H	 2.5270958917	-1.5265491667	-0.8629889377	 0.071326
H	 2.4130520552	-3.6917011337	-1.6084438216	 0.283399
H	 0.659807309	-2.0806661158	-2.4212350763	 0.094945
H	-0.3394281199	-2.5703453009	-1.0438388547	 0.097037
91.0376	194.8209	220.825	251.7333	293.0151	303.0143	348.9344	365.4397	422.1002	442.8456	481.8432	519.2934	641.8585	707.1167	791.2219	856.6415	866.0297	907.5156	919.0212	940.0206	995.4472	1038.5696	1074.0344	1080.6824	1101.0111	1119.4703	1123.6985	1136.017	1157.7501	1215.7504	1246.2267	1258.352	1290.0305	1308.5488	1333.0668	1355.7743	1395.0536	1410.4482	1426.5169	1439.1934	1478.1117	1481.2915	1491.5757	1506.7511	1514.424	2972.8961	2989.4673	3036.8091	3039.1539	3062.5354	3086.5682	3102.3615	3119.8061	3128.5601	3147.0229	3213.2152	3814.2273
CC12CC1CC(O)CO2	C[C@]12C[C@H]1C[C@@H](O)CO2	
InChI=1S/C7H12O2/c1-7-3-5(7)2-6(8)4-9-7/h5-6,8H,2-4H2,1H3	InChI=1S/C7H12O2/c1-7-3-5(7)2-6(8)4-9-7/h5-6,8H,2-4H2,1H3/t5-,6-,7+/m1/s1
