21
gdb 87773	3.8225	1.04524	1.03404	2.0695	84.5	-0.222	0.077	0.299	1298.1176	0.182158	-383.206371	-383.197406	-383.196462	-383.239659	34.83	
C	-0.1288512345	 1.4884992384	-0.0915195514	-0.390938
C	-0.0356486712	-0.0089402656	 0.066569098	-0.068041
N	 1.3146437885	-0.6088091277	-0.0933051607	-0.401914
C	 0.6467548865	-0.6506912887	 1.2066598507	 0.404805
C	 1.3002479142	-0.0731449455	 2.4850913065	-0.345457
C	 0.9007068452	-1.3779089468	 3.2083829312	 0.348796
C	 1.6551944244	-2.0578363219	 4.3072456133	-0.50455
N	-0.5794202238	-1.4449728531	 3.1064148604	-0.36971
C	 0.2673954281	-1.9063179366	 1.964559953	-0.229385
H	 0.7444770542	 1.9761711619	 0.3495300784	 0.125012
H	-0.1725056507	 1.769076252	-1.149545497	 0.11619
H	-1.027958555	 1.8743597195	 0.4007159117	 0.119608
H	-0.8699610045	-0.5676307262	-0.3571135856	 0.079063
H	 1.2474861148	-1.513857338	-0.5547529892	 0.223903
H	 2.3803152391	 0.0361217385	 2.3600993064	 0.111087
H	 0.8707119	 0.8425065574	 2.8990921515	 0.103655
H	 1.562437077	-1.5064543176	 5.2505787123	 0.129173
H	 1.2782116107	-3.0729927624	 4.4753488014	 0.115223
H	 2.7213817962	-2.1297649118	 4.0675106001	 0.127325
H	-0.8688141082	-2.2868015137	 3.607835498	 0.219895
H	 0.1892467189	-2.920154352	 1.585559991	 0.086262
90.4347	139.9874	179.7859	203.1292	228.4955	288.416	337.3229	412.0268	427.7142	447.5315	504.7226	545.8581	664.8545	758.2364	797.7205	844.1072	863.1545	919.0884	931.1844	954.8105	972.4123	1000.3663	1016.565	1042.3243	1065.2872	1090.601	1100.0153	1116.9704	1140.4849	1170.9628	1216.9363	1226.73	1245.3388	1308.2986	1316.3772	1365.7994	1406.4041	1410.5604	1438.9985	1466.7655	1481.2579	1483.461	1490.7175	1499.2283	1511.4784	3022.0618	3033.3349	3061.5312	3083.8367	3095.636	3096.103	3102.986	3122.8172	3123.8598	3167.0918	3445.5485	3480.2739
CC1NC11CC2(C)NC12	C[C@H]1N[C@]21C[C@@]1(C)N[C@@H]21	
InChI=1S/C7H12N2/c1-4-7(8-4)3-6(2)5(7)9-6/h4-5,8-9H,3H2,1-2H3	InChI=1S/C7H12N2/c1-4-7(8-4)3-6(2)5(7)9-6/h4-5,8-9H,3H2,1-2H3/t4-,5-,6-,7+/m1/s1
