22
gdb 122084	2.84207	0.74888	0.61704	4.8517	85.3	-0.2329	0.0331	0.266	1852.2286	0.19369	-400.522954	-400.512003	-400.511059	-400.55989	38.287	
C	 0.0133704688	 1.5547423663	-0.0364093191	-0.391001
C	-0.1278270958	 0.0397681506	 0.0702042603	-0.106922
N	 0.7846639109	-0.5003720022	 1.0785848303	-0.299367
C	 0.7287555236	-1.9495884991	 1.2143239501	-0.155493
C	 1.5028912632	-2.3756261944	 2.4789604682	-0.128613
N	 0.8910786032	-1.7702090029	 3.6505568198	-0.275088
C	 1.7086406879	-1.8299438057	 4.8545210074	-0.325282
C	 1.5071491808	-3.8448111573	 2.5942284352	 0.305246
N	 1.526026548	-4.9975487382	 2.6694549936	-0.32981
H	 1.0203007798	 1.8362660164	-0.365848228	 0.114375
H	-0.6965674526	 1.9586427173	-0.7636903159	 0.122479
H	-0.170387769	 2.0288460898	 0.9319510247	 0.12781
H	-1.1491118925	-0.2183047141	 0.3759809593	 0.113611
H	 0.0257052699	-0.4201308449	-0.9227716603	 0.085816
H	 1.7345923418	-0.2197718293	 0.8482797257	 0.216297
H	-0.3181735509	-2.2433052683	 1.3423661528	 0.13411
H	 1.1227035153	-2.4978747067	 0.3431703458	 0.104051
H	 2.5637754015	-2.076201327	 2.3476764558	 0.092423
H	 0.6856218478	-0.8093467387	 3.3926459783	 0.232461
H	 1.2004666895	-1.2934202699	 5.6600349879	 0.125362
H	 1.8271532952	-2.8715917018	 5.1706809834	 0.142896
H	 2.7185913536	-1.3983721099	 4.7332297748	 0.094639
57.384	80.7753	89.3049	113.0942	158.943	186.8802	215.7043	255.9029	269.5975	296.3965	328.1696	414.5329	488.5543	582.4198	593.4966	782.0709	802.9784	816.9616	863.6315	913.176	988.0967	1039.0425	1048.2559	1052.1814	1136.7302	1141.7722	1150.4138	1164.0202	1170.145	1228.5997	1270.0074	1314.1473	1318.0379	1351.2698	1371.8927	1404.9863	1422.6953	1461.8907	1481.4244	1484.795	1495.3056	1496.168	1498.2815	1506.4604	1517.916	1525.2534	2360.404	2880.2684	2939.3819	2944.5381	2973.0832	3034.2111	3046.0863	3068.2409	3080.1554	3102.3502	3114.978	3121.9996	3489.7054	3514.8727
CCNCC(NC)C#N	CCNC[C@@H](NC)C#N	
InChI=1S/C6H13N3/c1-3-9-5-6(4-7)8-2/h6,8-9H,3,5H2,1-2H3	InChI=1S/C6H13N3/c1-3-9-5-6(4-7)8-2/h6,8-9H,3,5H2,1-2H3/t6-/m0/s1
