17
gdb 98713	2.84276	1.19606	0.99983	1.8009	76.59	-0.2396	0.0173	0.2569	1231.0798	0.134103	-417.945834	-417.936532	-417.935588	-417.98043	33.509	
C	-0.4343696654	 1.0453954965	-0.3047619056	-0.221511
O	 0.0336675943	-0.2953804661	-0.1533901767	-0.230792
C	 0.8050964914	-0.7589087566	-1.1546175229	 0.456224
N	 1.0764970426	-0.0692228574	-2.1836870482	-0.565203
N	 1.3008761788	-2.0299756338	-0.8184908034	-0.13409
C	 0.438813443	-3.0822867391	-0.3256343218	-0.234295
C	 1.1007294743	-3.2076123914	-1.6734326427	-0.202467
C	 0.3119893978	-3.1343904268	-2.8719128109	 0.344341
C	-0.3184457593	-3.0777317056	-3.8938689508	-0.451642
H	 0.4052999337	 1.7404309791	-0.3875814488	 0.140226
H	-1.0526524143	 1.1412136556	-1.2011885732	 0.13907
H	-1.0200988095	 1.2543197932	 0.5915090956	 0.124854
H	 1.6634301881	-0.5944219152	-2.8266024376	 0.226273
H	 0.8229015683	-3.6572767324	 0.5122563406	 0.129508
H	-0.631398606	-2.9001174128	-0.3203024738	 0.143516
H	 1.9862104311	-3.8346325228	-1.7486057395	 0.127494
H	-0.885412949	-3.0236249944	-4.7904067503	 0.208494
48.9331	102.9248	143.7618	176.1451	183.5776	230.7429	278.6174	338.66	456.15	519.1675	533.7675	620.9284	637.956	670.3331	755.1218	781.2427	809.1574	834.1731	916.6034	977.0814	1044.16	1054.3321	1115.9021	1122.509	1130.4984	1164.8286	1183.2196	1218.1856	1300.2773	1372.3615	1394.6577	1476.368	1479.369	1501.6389	1507.5717	1726.2764	2239.9472	3048.0595	3116.1406	3122.3922	3133.3157	3149.7296	3211.53	3502.0527	3534.0313
COC(=N)N1CC1C#C	CO[C]([NH])N1C[C@H]1C#C	
InChI=1S/C6H8N2O/c1-3-5-4-8(5)6(7)9-2/h1,5,7H,4H2,2H3	InChI=1S/C6H8N2O/c1-3-5-4-8(5)6(7)9-2/h1,5,7H,4H2,2H3/t5-,8?/m1/s1
