20
gdb 26395	4.25817	0.94529	0.80402	2.5239	82.69	-0.1893	0.0493	0.2386	1443.6337	0.171986	-403.193453	-403.184544	-403.1836	-403.227171	34.198	
C	 0.168296705	 1.5063860613	 0.107586041	-0.40533
C	 0.0541776781	-0.0109287163	 0.2264947352	 0.128048
O	 0.3027607529	-0.4327559509	 1.5788542822	-0.430494
C	-1.3009473538	-0.5431790957	-0.2727135441	-0.328374
C	-1.3893187326	-2.0362701088	-0.3446499086	 0.308042
C	-1.94311091	-2.8653822763	-1.2980982616	-0.23923
C	-1.7738873315	-4.2075395874	-0.8564108217	-0.144625
C	-1.118641308	-4.159260591	 0.3522793679	-0.098619
N	-0.8998014374	-2.8410848446	 0.6570725972	-0.272558
H	 1.120788321	 1.8496943614	 0.5200782074	 0.126985
H	 0.1065781531	 1.8249681969	-0.9375538898	 0.123884
H	-0.6433369977	 2.0029215043	 0.6546552369	 0.10888
H	 0.8551385395	-0.4851981005	-0.3510333898	 0.102115
H	-0.3122387978	 0.0468125894	 2.1464477382	 0.280181
H	-2.0818338588	-0.126622646	 0.3857036706	 0.093355
H	-1.5022090734	-0.1372378342	-1.2698599705	 0.113048
H	-2.4211743476	-2.5393807146	-2.2100601522	 0.080157
H	-2.0958450894	-5.1023447215	-1.3668260361	 0.085814
H	-0.7880312007	-4.9448196928	 1.0128341158	 0.107787
H	-0.3754659109	-2.4691515026	 1.4336611722	 0.260933
75.6097	93.1146	151.6138	239.0733	287.736	298.1262	321.953	357.1774	458.1376	481.3329	598.4885	641.9352	689.0283	715.5926	738.2628	797.5949	836.9611	843.7441	898.682	904.655	935.0548	981.9346	1048.7349	1053.0106	1077.3075	1111.9173	1143.4554	1148.3305	1194.1447	1255.582	1292.8027	1313.4049	1322.8704	1380.2954	1402.4725	1420.7496	1440.7542	1454.8257	1474.6396	1492.2966	1494.5812	1501.9349	1611.4261	2962.575	3024.7196	3057.2318	3071.9145	3097.8934	3121.0186	3234.5717	3248.3802	3268.1633	3637.105	3788.0151
CC(O)CC1=CC=CN1	C[C@@H](O)Cc1ccc[nH]1	
InChI=1S/C7H11NO/c1-6(9)5-7-3-2-4-8-7/h2-4,6,8-9H,5H2,1H3	InChI=1S/C7H11NO/c1-6(9)5-7-3-2-4-8-7/h2-4,6,8-9H,5H2,1H3/t6-/m1/s1
