17
gdb 48171	3.59114	0.78946	0.66978	1.9793	72.02	-0.2532	-0.0793	0.1739	1614.0912	0.1355	-455.14709	-455.137919	-455.136975	-455.182962	31.843	
O	-0.526512462	 1.4593602097	-0.9077141108	-0.245349
C	 0.2291956268	 1.0951622647	-0.0441248593	 0.103843
C	 1.4896631425	 1.8668634201	 0.3602312928	 0.304288
O	 2.2167113099	 1.4367486247	 1.2383859527	-0.358824
N	 1.6591686256	 3.0050314205	-0.3475747861	-0.307643
C	 2.7585914615	 3.9287666737	-0.1257484639	-0.190553
C	 2.2755790552	 5.3477291539	 0.058099798	 0.023772
C	 3.1446780127	 6.4832881657	-0.3288071445	-0.241928
N	 1.9335625066	 6.1782574425	-1.1117626648	-0.316213
H	 0.090205052	 0.1660990986	 0.5425646953	 0.119388
H	 0.9446108306	 3.2155104933	-1.0312521859	 0.268577
H	 3.284447585	 3.5711212908	 0.7642824097	 0.155136
H	 3.4669502375	 3.8874695357	-0.9663768794	 0.106923
H	 1.5895617257	 5.4815372836	 0.8919050543	 0.106461
H	 3.1073554509	 7.4110478325	 0.2337850866	 0.128632
H	 4.1158405155	 6.2565628514	-0.7621465884	 0.115905
H	 2.2005406439	 5.6979544885	-1.9692914362	 0.227584
31.2301	67.76	77.2959	171.4203	197.1201	251.2956	262.4422	407.7262	463.3368	511.5295	568.4863	649.4102	702.0441	796.3698	826.0108	893.7976	932.1534	957.8276	1022.5269	1026.2689	1065.0731	1106.3525	1129.7768	1159.6758	1209.4387	1244.1553	1259.2431	1285.3689	1311.2885	1357.3873	1362.4899	1433.7318	1488.5601	1512.7741	1553.5554	1786.1922	1823.6756	2959.4565	2997.7773	3097.1783	3110.6137	3134.7607	3197.3455	3478.2743	3597.4099
O=CC(=O)NCC1CN1	O=CC(=O)NC[C@H]1CN1	
InChI=1S/C5H8N2O2/c8-3-5(9)7-2-4-1-6-4/h3-4,6H,1-2H2,(H,7,9)	InChI=1S/C5H8N2O2/c8-3-5(9)7-2-4-1-6-4/h3-4,6H,1-2H2,(H,7,9)/t4-/m1/s1
