18
gdb 34227	3.33422	1.60926	1.39559	1.841	82.59	-0.2273	0.0333	0.2606	973.4225	0.149531	-364.719188	-364.7123	-364.711355	-364.750126	28.988	
C	 0.0211808518	-1.204250101	 0.0727797509	-0.332028
C	-0.019817452	-0.0024000591	 0.0388235286	 0.128497
C	-0.1030466326	 1.4261923327	-0.006684538	 0.23298
C	-1.1210826373	 2.262371064	 0.7819343257	-0.294034
C	-0.6492538254	 3.3978503056	-0.1588067413	-0.096523
C	 0.8040408781	 3.5395341457	 0.3337216695	-0.157961
N	 1.2946191007	 2.1750834222	-0.036016661	-0.179449
C	 1.1124736406	 2.2554308272	-1.5394728711	-0.19661
C	-0.3852816482	 2.2997496586	-1.2807316235	-0.078964
H	 0.0655397441	-2.2645054006	 0.1079195186	 0.181489
H	-2.129563171	 1.907540875	 0.554152875	 0.111661
H	-0.9969588518	 2.3860263483	 1.8615647078	 0.105284
H	-1.2520728631	 4.285542519	-0.3409205937	 0.073504
H	 1.3992483019	 4.3000115544	-0.1776448638	 0.102748
H	 0.8748874429	 3.7057364617	 1.4117608042	 0.102962
H	 1.6230727615	 3.0969265211	-2.0170144123	 0.09829
H	 1.4270412573	 1.3159600232	-2.0005124162	 0.119595
H	-1.1757477676	 2.0810337923	-1.9984369895	 0.078559
143.188	156.0791	362.3169	421.3195	486.7143	510.0408	515.0458	570.9612	626.2391	644.4334	667.2306	686.8281	783.9504	833.0519	868.4768	903.2396	905.8974	937.5594	949.9557	982.7126	995.5551	1023.4242	1057.2571	1095.8163	1128.2766	1133.4433	1153.0894	1194.9535	1214.3351	1239.3022	1241.94	1268.5554	1291.3781	1297.7732	1322.0915	1488.1971	1504.4894	1531.409	2234.3466	3052.0039	3054.4569	3063.1694	3107.0349	3114.3614	3117.4583	3118.5124	3135.843	3502.7994
C#CC12CC3CN1CC23	C#C[C@@]12C[C@H]3CN1C[C@@H]23	
InChI=1S/C8H9N/c1-2-8-3-6-4-9(8)5-7(6)8/h1,6-7H,3-5H2	InChI=1S/C8H9N/c1-2-8-3-6-4-9(8)5-7(6)8/h1,6-7H,3-5H2/t6-,7+,8-/m0/s1
