20
gdb 65931	2.12856	1.56619	1.31317	4.017	82.99	-0.2833	0.0309	0.3142	1106.4057	0.170605	-366.010966	-366.002025	-366.001081	-366.044399	34.239	
C	-0.1236368102	 1.5573672934	 0.0960989348	-0.441071
C	-0.0308086246	 0.0261721456	 0.0338584085	 0.078261
C	 1.1344550333	-0.4866366287	-0.8874580907	-0.256326
C	 1.9976497829	-0.7718833503	 0.3732415356	-0.307739
C	 0.7382530509	-0.6058339697	 1.2304338135	 0.347816
C	 0.6140811214	-0.2603844983	 2.6830489615	-0.327675
C	 0.186912754	-1.6220486883	 2.1843707601	-0.329086
C	-1.3404855192	-0.555806435	-0.2377764229	 0.253279
N	-2.3784383096	-1.0279325004	-0.4331004699	-0.358793
H	 0.8635608804	 1.9814358979	 0.300333662	 0.124706
H	-0.4865501035	 1.9628011661	-0.8529059195	 0.133575
H	-0.8048496447	 1.87972571	 0.8883870348	 0.133813
H	 0.8616727008	-1.3947831416	-1.4265266155	 0.127439
H	 1.5137625024	 0.2500538446	-1.5983620618	 0.111455
H	 2.4841727451	-1.7490164359	 0.4118220035	 0.111059
H	 2.7522377729	-0.0013169292	 0.557628299	 0.108521
H	 1.5279028233	-0.1841768359	 3.2640750578	 0.116537
H	-0.1625932956	 0.4358736506	 2.9832643719	 0.119662
H	-0.8753865861	-1.8394868524	 2.1400065442	 0.138909
H	 0.8114129558	-2.4769779026	 2.4232888631	 0.115655
68.0588	130.9431	185.2824	213.3553	250.4747	281.5859	305.0977	354.2695	433.8683	505.3894	553.2552	596.4687	630.5029	754.65	778.3149	871.1911	888.8615	893.4954	932.9579	937.5786	955.1031	973.3384	999.8674	1056.5268	1083.2099	1118.5263	1148.2666	1170.7368	1188.5623	1198.8641	1235.8807	1252.9057	1265.9885	1291.9626	1368.113	1410.5314	1463.6846	1478.7494	1488.3592	1496.3309	1498.8654	1503.2734	2345.0979	3041.9491	3054.5433	3077.9602	3104.9353	3117.8122	3120.0341	3124.2255	3127.4258	3139.0727	3202.7256	3217.807
CC1(CCC11CC1)C#N	C[C@]1(CCC21CC2)C#N	
InChI=1S/C8H11N/c1-7(6-9)2-3-8(7)4-5-8/h2-5H2,1H3	InChI=1S/C8H11N/c1-7(6-9)2-3-8(7)4-5-8/h2-5H2,1H3/t7-/m0/s1
