17
gdb 6944	2.63714	2.42683	1.73837	3.2196	70.39	-0.231	-0.0009	0.2302	830.9174	0.142675	-360.07814	-360.070145	-360.0692	-360.110003	30.145	
C	-0.0122133354	 1.5328121398	 0.0058230237	-0.39831
C	-0.0010153837	-0.0015815471	 0.0087015683	 0.202431
C	-1.4255397887	-0.5678482621	-0.0590916376	-0.398288
N	 0.7888889633	-0.4974399336	-1.1454031072	-0.264225
C	 1.7574784011	-1.1648784853	-0.6571253128	 0.046616
N	 1.8069047917	-1.2411591763	 0.730346186	-0.351593
C	 0.7288284167	-0.5311081637	 1.2547018332	 0.369141
N	 0.3765485922	-0.3305973339	 2.4582527954	-0.548333
H	 1.0066673336	 1.9303201476	 0.0169966611	 0.115903
H	-0.5136474949	 1.9003643204	-0.8933686438	 0.122935
H	-0.5359155506	 1.8984256672	 0.8930159039	 0.136297
H	-1.9288824426	-0.2041414377	-0.9587781713	 0.12296
H	-1.4095706024	-1.6609339947	-0.0932648322	 0.115913
H	-1.9871904754	-0.257639915	 0.8259919137	 0.13627
H	 2.5233317946	-1.6622041047	-1.2447617651	 0.132009
H	 2.5041647994	-1.7258382488	 1.2702982261	 0.255516
H	 1.0075291113	-0.7759485222	 3.1267235585	 0.20476
90.307	214.5541	216.8652	242.5576	273.4204	294.1423	330.7656	403.8636	494.6069	616.236	617.4184	706.7344	716.1015	823.4249	853.2246	906.1482	940.7279	954.4347	978.9511	1025.0309	1072.353	1078.9515	1194.5687	1197.1384	1226.9517	1318.5472	1353.1163	1386.4091	1403.3061	1418.1936	1475.8695	1482.0908	1493.2775	1505.052	1681.3888	1758.247	3042.3674	3045.6416	3117.5326	3119.952	3128.3624	3133.0108	3185.9846	3452.4087	3656.9634
CC1(C)N=CNC1=N	CC1(C)N=CN[C]1[NH]	
InChI=1S/C5H9N3/c1-5(2)4(6)7-3-8-5/h3H,1-2H3,(H2,6,7,8)	InChI=1S/C5H9N3/c1-5(2)4(6)7-3-8-5/h3H,1-2H3,(H2,6,7,8)
