23
gdb 120506	4.53484	0.75075	0.6983	0.9458	89.37	-0.2348	0.0274	0.2622	1725.0524	0.205376	-388.29744	-388.287568	-388.286623	-388.332756	36.261	
C	-0.0144972673	 1.4273111399	-0.0232326224	-0.225419
O	-0.0068613876	 0.0211810074	-0.0181901257	-0.234232
C	 0.6670661744	-0.5244692229	 1.0961043081	-0.063212
C	 0.5869033972	-2.0462326604	 1.0179815603	-0.04179
C	 1.3390997232	-2.7582508457	 2.1714263446	-0.249247
C	 0.4909654034	-4.0073404608	 2.5358068288	-0.00832
C	 0.4821397363	-4.3399196756	 4.0318772304	-0.395295
C	-0.8648040867	-3.6513127234	 1.9623680863	-0.075876
C	-0.8154639501	-2.59943505	 1.1483458273	-0.072362
H	 1.0057933836	 1.8425469502	-0.0548142237	 0.101548
H	-0.5534710275	 1.7503064225	-0.9174945143	 0.125201
H	-0.5214239579	 1.8382186016	 0.8646680625	 0.102562
H	 1.7216020199	-0.1963406985	 1.1054864123	 0.081307
H	 0.2070188729	-0.1707156781	 2.0356725785	 0.081483
H	 1.005209952	-2.3342653117	 0.0422259054	 0.084439
H	 2.3727992354	-3.0065131498	 1.9159457501	 0.095437
H	 1.3740038502	-2.0909606102	 3.0427477313	 0.094658
H	 0.8818635127	-4.8870003991	 2.0006220591	 0.076876
H	 0.0850786433	-3.5014806228	 4.6149660908	 0.113715
H	-0.1390007778	-5.2176104799	 4.2408668497	 0.110771
H	 1.493185908	-4.554342558	 4.3946438898	 0.111448
H	-1.7547571078	-4.2320219787	 2.1848003415	 0.085625
H	-1.6479894498	-2.1778009561	 0.5975275391	 0.100681
54.4888	89.0266	101.018	169.1672	218.7892	232.1625	249.0764	298.9649	330.8921	398.811	440.7466	563.743	621.3966	742.408	776.1789	848.1907	865.3232	900.4333	926.2714	979.0412	983.2166	996.1126	1051.6552	1069.8114	1106.6432	1122.1737	1145.2629	1151.9831	1171.5614	1185.91	1208.7935	1229.9007	1251.2809	1281.1901	1310.3368	1322.3965	1334.079	1353.6709	1391.1253	1411.5276	1416.2527	1480.5072	1484.5866	1488.3599	1497.5141	1500.3641	1503.0845	1526.5096	1684.5366	2938.8101	2967.2135	2967.8631	2974.4319	2998.7736	3008.9683	3022.0938	3026.5967	3088.7326	3095.4836	3096.6894	3110.776	3174.9789	3211.9373
COCC1CC(C)C=C1	COC[C@H]1C[C@@H](C)C=C1	
InChI=1S/C8H14O/c1-7-3-4-8(5-7)6-9-2/h3-4,7-8H,5-6H2,1-2H3	InChI=1S/C8H14O/c1-7-3-4-8(5-7)6-9-2/h3-4,7-8H,5-6H2,1-2H3/t7-,8+/m0/s1
