15
gdb 24176	4.09472	1.69047	1.1965	2.3247	83.39	-0.2031	-0.0346	0.1685	959.8815	0.117398	-379.743018	-379.737003	-379.736059	-379.773196	24.791	
C	-0.0351654281	 1.397996621	 0.0104692714	-0.140235
C	 1.2781013625	 1.8497187556	 0.0000800836	-0.117375
N	 2.095775732	 0.7595056117	-0.0140158665	-0.063037
C	 3.4665711289	 0.6505503828	-0.0280999212	-0.031878
C	 4.0243902013	-0.5886042788	-0.0404287471	-0.046562
N	 3.3035649147	-1.7547687295	-0.0397722299	-0.291688
C	 1.9981089919	-1.6412629791	-0.0262960399	-0.06625
C	 1.3070164455	-0.4095005054	-0.0127094859	 0.333776
C	-0.0264061733	-0.0065816689	 0.0025728067	-0.287718
H	-0.9066084588	 2.0353572902	 0.0225598574	 0.110069
H	 1.6862746788	 2.8475844545	 0.0016068089	 0.128655
H	 4.0310516577	 1.5737631121	-0.0285429376	 0.129412
H	 5.1039320784	-0.6884660088	-0.0515858111	 0.114445
H	 1.4133500846	-2.5592442262	-0.0256519416	 0.118098
H	-0.8797501859	-0.6662670112	 0.0072801427	 0.110289
208.0848	222.963	403.1907	426.8354	572.758	597.6205	619.7715	635.3275	710.8982	741.4012	777.2029	785.1391	808.7182	871.5891	896.4329	906.5411	931.7163	961.7249	1048.4573	1062.6087	1102.4983	1206.7532	1241.0361	1270.729	1326.2253	1336.6652	1375.1073	1430.4708	1473.1293	1497.9329	1538.9552	1550.0952	1656.8651	3147.4289	3191.7809	3223.3931	3243.3011	3259.9313	3270.3451
C1=CN2C=CN=CC2=C1	c1cn2ccncc2c1	
InChI=1S/C7H6N2/c1-2-7-6-8-3-5-9(7)4-1/h1-6H	InChI=1S/C7H6N2/c1-2-7-6-8-3-5-9(7)4-1/h1-6H
