23
gdb 122535	4.94507	0.58093	0.55918	2.3728	84.76	-0.2522	0.0858	0.338	2110.9311	0.202804	-425.404017	-425.393041	-425.392097	-425.441648	38.231	
C	-0.3685235465	 1.4849882575	 0.4361734908	-0.384778
C	-0.0298524228	 0.0474989346	 0.0799827224	-0.025058
O	 0.727983995	-0.5102316644	 1.1340985377	-0.245638
C	 1.1072788089	-1.8480957763	 0.9000468297	-0.083625
C	 1.9027586188	-2.3194726551	 2.0891594796	 0.041947
O	 1.1962511025	-2.9570521253	 3.1583554131	-0.259836
C	 2.1440816388	-3.7332299582	 2.4151246568	 0.074806
C	 1.6181956322	-4.9166349213	 1.6350675161	-0.215377
C	 1.2519209505	-6.0844712538	 2.5594145107	-0.37505
H	 0.5443637742	 2.0707363257	 0.5762811358	 0.126247
H	-0.9594853231	 1.9464524973	-0.3606046787	 0.11392
H	-0.9453564902	 1.5228387254	 1.3644402779	 0.130479
H	-0.9506995039	-0.5393488054	-0.0782518912	 0.08685
H	 0.5425046901	 0.0051579121	-0.8630679323	 0.082965
H	 0.2228358736	-2.4856609927	 0.7555570513	 0.096381
H	 1.7255971079	-1.9186383213	-0.0134370595	 0.085787
H	 2.6419587666	-1.5876514498	 2.4195654531	 0.095289
H	 3.0571390734	-3.9492127015	 2.9771475059	 0.084239
H	 0.7430283339	-4.6210028412	 1.0491191231	 0.104282
H	 2.3899592949	-5.2319318224	 0.9205956315	 0.100884
H	 0.8767915035	-6.9381424351	 1.9875369651	 0.113313
H	 2.121213969	-6.4219902785	 3.1343777966	 0.115895
H	 0.4777960725	-5.7809477405	 3.2702449245	 0.13608
36.6106	66.699	85.0092	92.3827	130.5494	176.2573	214.5789	248.1307	262.2407	311.1533	411.8894	456.5833	482.7846	577.4386	749.1438	819.4146	821.643	827.8594	903.3608	932.3475	969.9251	1033.979	1041.9122	1048.926	1101.5821	1117.7547	1149.2283	1160.0835	1180.9621	1183.7844	1193.1789	1266.6043	1292.9444	1296.4369	1303.5376	1339.8435	1364.3306	1398.4662	1407.5703	1413.8671	1445.037	1473.0013	1483.4387	1495.1613	1498.2106	1500.6072	1503.839	1510.8712	1534.1352	2939.4522	2952.5195	2974.707	3009.2521	3028.1475	3036.5354	3045.5635	3063.6788	3084.5794	3101.8527	3108.0373	3117.8275	3119.9216	3123.0991
CCOCC1OC1CC	CCOC[C@H]1O[C@H]1CC	
InChI=1S/C7H14O2/c1-3-6-7(9-6)5-8-4-2/h6-7H,3-5H2,1-2H3	InChI=1S/C7H14O2/c1-3-6-7(9-6)5-8-4-2/h6-7H,3-5H2,1-2H3/t6-,7+/m0/s1
