22
gdb 117696	4.03597	0.77357	0.76577	4.6401	83.49	-0.2675	0.0319	0.2994	1588.6126	0.191201	-404.364319	-404.353314	-404.35237	-404.400447	39.246	
C	 0.0115171991	 1.4182065309	-0.0393137947	-0.23041
O	 0.0031406109	 0.0107138137	 0.0003888838	-0.239539
C	 0.6362268931	-0.5785180429	-1.1101274284	-0.064046
C	 0.5762691266	-2.1098298304	-0.9757077737	 0.214988
C	 1.3115292907	-2.5509714743	 0.3007722659	-0.415427
C	-0.8893862705	-2.5738361827	-0.9415791562	-0.415428
C	 1.2912881741	-2.6828084419	-2.2318762165	-0.365593
C	 1.3263194166	-4.1430531627	-2.267305564	 0.272208
N	 1.3497374763	-5.2984715241	-2.2869476728	-0.319796
H	 1.0369891877	 1.8197663049	-0.0485246343	 0.107143
H	-0.5161251339	 1.8042837089	-0.9255803428	 0.107142
H	-0.4992154077	 1.7728946936	 0.8588293217	 0.131756
H	 0.1399130365	-0.2618151535	-2.0452012175	 0.082117
H	 1.688121896	-0.2456882391	-1.1711661514	 0.082115
H	 0.8453255417	-2.096471615	 1.1771240482	 0.137155
H	 1.2829028162	-3.6384939294	 0.4134131158	 0.13531
H	 2.3624662681	-2.240488535	 0.2789224743	 0.107843
H	-1.4184951484	-2.2797682472	-1.8553142629	 0.107846
H	-0.9538927329	-3.6617304344	-0.8491908258	 0.135306
H	-1.4059232386	-2.1198535179	-0.0936411678	 0.137162
H	 0.7897244657	-2.3330679214	-3.142392744	 0.146068
H	 2.3243944426	-2.31719714	-2.276094857	 0.146081
64.2886	95.1855	110.7432	111.8338	194.8699	221.2558	244.7785	259.7404	309.8146	320.8925	332.808	398.6252	405.8235	407.5917	451.6842	634.3919	765.1236	892.5727	896.6768	940.922	960.6753	968.2635	998.1245	1026.6075	1062.5272	1161.126	1171.504	1191.3787	1202.7874	1231.8926	1252.5657	1258.2419	1331.0311	1338.7814	1400.6744	1405.5224	1433.757	1461.8659	1481.3269	1483.9086	1486.4757	1494.454	1496.9477	1505.783	1515.1604	1526.035	2359.4715	2932.5134	2961.862	2973.4311	3018.2916	3030.757	3034.3666	3039.3883	3070.9174	3103.1142	3106.2319	3118.7134	3133.9053	3137.6023
COCC(C)(C)CC#N	COCC(C)(C)CC#N	
InChI=1S/C7H13NO/c1-7(2,4-5-8)6-9-3/h4,6H2,1-3H3	InChI=1S/C7H13NO/c1-7(2,4-5-8)6-9-3/h4,6H2,1-3H3
