18
gdb 13415	3.62441	1.4811	1.43529	1.4451	64.09	-0.249	0.0804	0.3294	981.1595	0.153688	-422.059341	-422.050941	-422.049996	-422.093166	28.792	
C	-0.1091929283	 0.9948762541	 0.3404667891	-0.224577
O	 0.0072804045	-0.3831753585	 0.0765427744	-0.236362
C	 0.6226960825	-0.6610359804	-1.1589450095	-0.087674
C	 0.7045676366	-2.1752131026	-1.3569367809	 0.201505
O	 1.4601875249	-2.80734685	-0.3505608732	-0.260745
C	 0.5540459691	-3.2699324494	 0.6468541668	-0.092606
C	-0.8293314002	-3.2542299381	-0.0457660051	-0.0926
O	-0.5652205912	-2.7842539615	-1.3645849318	-0.260747
H	 0.875393668	 1.4866582302	 0.3776414134	 0.108047
H	-0.7197208377	 1.5047983661	-0.4210295097	 0.108047
H	-0.5950089914	 1.102554127	 1.3131910196	 0.128032
H	 0.0484359906	-0.2257735633	-1.9940480638	 0.092066
H	 1.6431457606	-0.2439469595	-1.1956143553	 0.092066
H	 1.1862818065	-2.3740415043	-2.3236281241	 0.090275
H	 0.8680672471	-4.2735473377	 0.949872529	 0.106405
H	 0.5702111723	-2.6073440669	 1.518260945	 0.111232
H	-1.2781851643	-4.249197824	-0.1247823826	 0.106403
H	-1.5246312097	-2.5836292512	 0.4694896088	 0.11123
71.4338	78.9771	112.2928	135.1087	214.0851	228.2657	349.001	365.165	651.8655	735.9858	815.3849	845.5499	857.6274	902.9571	961.2933	1015.5823	1038.3627	1047.279	1084.7156	1147.6362	1163.502	1185.2055	1199.8818	1228.5136	1235.767	1240.9278	1263.1011	1327.8609	1376.0334	1396.7752	1403.5122	1414.2769	1476.8323	1484.8513	1496.4468	1516.2256	1518.2704	1532.0516	2956.9779	2975.5649	2995.636	3019.8702	3027.5528	3037.2231	3045.985	3072.1776	3096.1621	3115.3954
COCC1OCCO1	COCC1OCCO1	
InChI=1S/C5H10O3/c1-6-4-5-7-2-3-8-5/h5H,2-4H2,1H3	InChI=1S/C5H10O3/c1-6-4-5-7-2-3-8-5/h5H,2-4H2,1H3
