20
gdb 56042	3.66633	0.92026	0.91395	5.4589	74.71	-0.2429	0.0215	0.2644	1368.5996	0.172894	-440.322724	-440.314045	-440.313101	-440.357406	31.813	
O	 0.0759839911	 0.3530906425	-0.7193328985	-0.360587
C	-0.0274634096	 1.4789279095	-0.0002492227	 0.416789
O	 0.9166338326	 2.1255963875	 0.3631299776	-0.336073
C	-1.4852520562	 1.8820986134	 0.2795413896	-0.310801
N	-2.3937091715	 0.7531591857	 0.0523591979	-0.099257
H	-0.8540616945	 0.0543244338	-0.8382175992	 0.297841
C	-3.760040324	 1.127739331	-0.3501011463	-0.177058
C	-4.5357091188	 1.4244363859	 0.957111341	-0.209726
C	-3.7842445305	 0.5976967889	 2.0366698573	-0.206726
C	-2.6077886177	-0.0610749088	 1.2678111193	-0.182875
H	-1.530474155	 2.3127844986	 1.2881946086	 0.128996
H	-1.7250193286	 2.6869579933	-0.4235589846	 0.138845
H	-3.7398437425	 1.9626217042	-1.0539289392	 0.111332
H	-4.2067880835	 0.2699894166	-0.8663269377	 0.111172
H	-4.500914257	 2.4918584957	 1.1920335895	 0.111184
H	-5.5894969903	 1.148600351	 0.8718829309	 0.108273
H	-3.4172296851	 1.2447248259	 2.8375171017	 0.113816
H	-4.4205665686	-0.1573362212	 2.5041528126	 0.109763
H	-2.8795755968	-1.0755356351	 0.9561335871	 0.112143
H	-1.6855456837	-0.1312962585	 1.8490178351	 0.122949
55.9583	69.399	96.9639	120.4787	224.3053	357.5079	393.7036	481.1913	574.9508	618.1466	644.6439	678.171	805.0191	848.9117	854.9967	870.9266	887.4577	896.7153	929.5387	951.2661	995.0549	1028.4217	1076.6715	1094.5969	1138.8224	1202.4025	1219.7036	1223.9948	1256.9479	1283.158	1286.7599	1319.3867	1341.0195	1349.6135	1359.1436	1376.6943	1429.8472	1463.9961	1490.6559	1498.5164	1503.5123	1520.2937	1877.6198	3023.5665	3036.004	3044.304	3058.7752	3070.2341	3080.2934	3093.5796	3105.7297	3110.0869	3120.8965	3451.0349
[O-]C(=O)C[NH+]1CCCC1	OC(=O)CN1CCCC1	
InChI=1S/C6H11NO2/c8-6(9)5-7-3-1-2-4-7/h1-5H2,(H,8,9)	InChI=1S/C6H11NO2/c8-6(9)5-7-3-1-2-4-7/h1-5H2,(H,8,9)
