21
gdb 108678	2.14557	1.44055	0.95793	2.9842	81.42	-0.2281	0.0083	0.2364	1279.6463	0.183108	-424.232523	-424.222986	-424.222042	-424.267423	35.036	
O	 0.6646934236	 0.3176856917	-0.8567873709	-0.427649
C	 0.1004403462	-0.30106659	 0.2920683805	-0.167567
C	-1.3495776138	-0.6622477022	 0.0912377888	 0.210514
C	-2.3786675122	 0.1934674061	 0.1663877764	 0.24324
C	-2.2586502697	 1.657662211	 0.4757465949	-0.220294
O	-1.4584580372	 2.2847711917	-0.5443159506	-0.410821
C	-3.685822294	-0.454474277	-0.2370142097	-0.306107
C	-3.3413222486	-1.9640795951	-0.2629811064	-0.210643
C	-1.7994929534	-2.024182558	-0.3889922755	-0.296349
H	 0.1081530007	 1.0926972289	-1.0241258097	 0.28729
H	 0.6964552358	-1.2002593269	 0.4796846352	 0.101005
H	 0.2034050145	 0.3447591749	 1.180513591	 0.078415
H	-3.253111557	 2.1233365301	 0.5095563688	 0.099381
H	-1.7898772988	 1.8068723398	 1.4603961304	 0.104887
H	-1.3057829809	 3.1999198433	-0.2853633129	 0.29048
H	-4.5085567676	-0.2228374328	 0.450520234	 0.096763
H	-4.0027712918	-0.0879559882	-1.2248436171	 0.109446
H	-3.6465236846	-2.4222320174	 0.6832834109	 0.103009
H	-3.8563185867	-2.5024513467	-1.062268626	 0.098298
H	-1.473432273	-2.1765788241	-1.4278347731	 0.11746
H	-1.3592840913	-2.844095279	 0.190848421	 0.099241
50.7863	95.9656	140.6678	142.655	197.1432	248.8943	285.8884	330.8263	357.5245	464.0133	537.2847	593.2986	652.2713	705.0995	712.2408	849.7412	878.7629	918.2575	929.2865	980.1482	1003.1662	1019.9583	1036.5304	1063.569	1091.3406	1149.2973	1171.0983	1187.406	1221.2801	1236.5969	1252.0297	1262.9298	1280.6981	1325.7268	1327.2015	1357.7779	1381.324	1447.7394	1472.1558	1483.3758	1486.4203	1503.1486	1505.9203	1518.3424	1718.7684	2953.6126	2980.8543	2997.2479	3008.6689	3023.0687	3036.4971	3045.2627	3059.8422	3068.7677	3102.3383	3716.8994	3807.5736
OCC1=C(CO)CCC1	OCC1=C(CO)CCC1	
InChI=1S/C7H12O2/c8-4-6-2-1-3-7(6)5-9/h8-9H,1-5H2	InChI=1S/C7H12O2/c8-4-6-2-1-3-7(6)5-9/h8-9H,1-5H2
