18
gdb 67338	2.86961	1.93828	1.35203	2.7026	76.82	-0.254	0.0215	0.2755	959.5357	0.149457	-401.925981	-401.918869	-401.917925	-401.957199	28.933	
C	-0.0854203181	 1.548691525	 0.0254142159	-0.501194
C	-0.0158337952	 0.0434108067	 0.0326002782	 0.233435
C	 1.0918092343	-0.7944260235	-0.7345574211	-0.111587
C	 2.0939475441	-0.5216784655	 0.4105833273	-0.274246
C	 0.7555909886	-0.8011390638	 1.1321891523	-0.11161
C	 0.4823193452	-1.9388994658	 0.1152144848	 0.114356
O	-0.9242813284	-2.0398270426	-0.138496113	-0.262343
C	-1.2945229438	-0.7166574312	-0.2004038193	 0.38195
N	-2.4506968548	-0.2588885628	-0.4069185875	-0.561211
H	 0.8905028632	 2.007705018	 0.2044876449	 0.115018
H	-0.4646399853	 1.9052313402	-0.9366208026	 0.138095
H	-0.7794329504	 1.8988634159	 0.7949260764	 0.138177
H	 1.2683808718	-0.7956539297	-1.8109865644	 0.085171
H	 2.8890537649	-1.2596019871	 0.551146071	 0.098472
H	 2.490779834	 0.4913409555	 0.4856923439	 0.10993
H	 0.5455061951	-0.8100956865	 2.2025441756	 0.085177
H	 0.9362135614	-2.9241607627	 0.1934205402	 0.098375
H	-3.1249344767	-1.0164917801	-0.5310204526	 0.224035
144.2285	169.9969	277.3949	305.0401	361.715	424.2623	518.7599	592.9969	654.3506	664.5846	728.1062	803.738	824.9244	876.3159	891.5593	902.4014	913.6664	929.3153	999.3966	1007.3602	1019.3944	1064.6693	1081.8517	1088.5738	1118.5524	1161.5044	1178.0782	1187.723	1209.1832	1236.5186	1237.4998	1283.0274	1327.3991	1384.3696	1422.2149	1483.1665	1489.7018	1525.1383	1797.2293	3047.325	3060.5848	3108.0156	3110.3998	3115.0805	3119.8132	3129.838	3157.5407	3469.7072
CC12C3CC1C3OC2=N	C[C@@]12[C@H]3C[C@@H]1[C@H]3O[C]2[NH]	
InChI=1S/C7H9NO/c1-7-3-2-4(7)5(3)9-6(7)8/h3-5,8H,2H2,1H3	InChI=1S/C7H9NO/c1-7-3-2-4(7)5(3)9-6(7)8/h3-5,8H,2H2,1H3/t3-,4+,5-,7+
