19
gdb 41775	3.1575	1.55242	1.15396	1.9007	83.24	-0.2254	0.0202	0.2456	1083.5675	0.161973	-385.909226	-385.901889	-385.900945	-385.941079	29.086	
C	-0.000551837	 1.5405477722	-0.088849057	-0.111251
O	 1.3335611707	 1.915943569	 0.2556693856	-0.287151
C	 2.0390141714	 0.7665510515	 0.7332699934	 0.032555
C	 3.390274994	 0.614439773	 0.0826332182	-0.084263
C	 3.8192995813	-0.5546201019	-0.3932982032	-0.051537
C	 3.020026112	-1.8359881695	-0.3823381977	-0.245777
C	 1.7592071487	-1.7675517424	 0.5171929425	-0.329154
C	 1.1544370251	-0.4088574592	 0.4056382471	 0.324439
C	-0.0075070398	 0.0347144727	-0.0596398923	-0.254011
H	-0.7198325927	 1.9792611697	 0.6239400987	 0.09773
H	-0.2424051247	 1.9470543704	-1.0817335985	 0.107142
H	 2.1769194211	 0.8676492282	 1.8270979288	 0.07755
H	 4.0118548741	 1.5042394978	 0.0331410224	 0.096472
H	 4.8065814615	-0.6150678997	-0.846759798	 0.089193
H	 2.7198938909	-2.068527148	-1.4140995663	 0.118204
H	 3.6574664304	-2.6709462809	-0.0662714162	 0.105531
H	 1.0486091708	-2.5539639344	 0.2470133906	 0.105557
H	 2.0629812009	-1.9474957887	 1.5574813338	 0.111861
H	-0.8446919287	-0.5628750998	-0.3994217219	 0.09691
102.3401	125.9721	261.4647	290.2172	342.9789	431.0192	488.263	564.8046	625.0168	683.3494	762.7816	782.0802	824.5667	860.5717	877.7688	922.0579	939.9798	986.8753	1001.4289	1010.0091	1037.4027	1044.8301	1070.241	1099.7009	1159.2463	1185.4432	1197.9907	1207.3331	1242.646	1296.0305	1327.3595	1337.8427	1363.3479	1369.5586	1382.0192	1410.0614	1473.2909	1486.9514	1521.4952	1714.6122	1745.5153	2904.8437	2954.2031	3004.1385	3007.0918	3014.6653	3046.2924	3084.8959	3143.0769	3174.2806	3207.968
C1OC2C=CCCC2=C1	C1O[C@@H]2C=CCCC2=C1	
InChI=1S/C8H10O/c1-2-4-8-7(3-1)5-6-9-8/h2,4-5,8H,1,3,6H2	InChI=1S/C8H10O/c1-2-4-8-7(3-1)5-6-9-8/h2,4-5,8H,1,3,6H2/t8-/m1/s1
