23
gdb 118964	2.46715	0.98545	0.92152	2.4103	81.99	-0.2415	0.0625	0.304	1467.3556	0.203407	-425.41624	-425.405683	-425.404739	-425.451841	38.808	
C	-0.1098792917	 1.6043229569	 0.0952834421	-0.382331
C	-0.087454765	 0.0739295061	 0.0393593197	-0.197957
C	 0.7870140862	-0.4641634449	-1.1021008609	-0.219942
C	 0.7605468869	-1.986181844	-1.244825927	 0.30801
O	 1.2229636327	-2.6465097796	-0.0848590245	-0.482802
C	-0.532017236	-2.5470601982	-1.9010825428	-0.119024
O	 0.159587038	-2.7635028812	-3.1455278535	-0.297438
C	 1.4471156021	-2.567409731	-2.5100860977	 0.135371
C	 2.4090067681	-1.7623179601	-3.3561364461	-0.418833
H	 0.8985389732	 2.0091453254	 0.2336087434	 0.119275
H	-0.5106557154	 2.025665622	-0.832923103	 0.119633
H	-0.730566732	 1.9641668076	 0.9214651762	 0.114906
H	 0.2798967991	-0.3052632806	 1.0030714707	 0.091015
H	-1.1133225864	-0.3016861954	-0.0713726224	 0.103232
H	 0.4505479847	-0.0207477589	-2.0467969837	 0.108164
H	 1.8239788959	-0.1393068589	-0.9496223021	 0.102079
H	 0.7467841049	-2.3010751606	 0.6769804916	 0.27955
H	-0.8629831295	-3.4865749151	-1.4385544091	 0.094732
H	-1.3868456626	-1.8712038716	-2.0214108589	 0.093259
H	 1.8952651861	-3.5368940535	-2.2475862815	 0.079643
H	 1.9986077332	-0.7846729959	-3.6211157382	 0.119065
H	 3.3559100743	-1.6180989608	-2.8253107541	 0.122331
H	 2.6219885231	-2.3024179875	-4.2840702881	 0.128062
72.9731	97.5629	114.5736	131.609	208.3927	244.3719	254.0416	266.5469	287.5184	319.8009	365.359	424.5204	485.853	529.2314	689.0982	753.0713	780.9419	869.0653	878.5114	888.1652	939.1032	976.5225	1019.1317	1032.4982	1049.2906	1060.8773	1100.6097	1116.9286	1153.1896	1173.4958	1202.4006	1229.5483	1283.9162	1293.1119	1300.3113	1336.5576	1344.9022	1372.1934	1396.2737	1406.7014	1412.1383	1416.0122	1474.3306	1485.081	1491.4872	1499.0728	1499.3492	1508.8777	1515.4185	2996.6912	3004.5256	3008.8555	3025.2332	3032.7248	3038.7718	3040.5875	3060.0088	3073.1149	3100.5074	3105.6626	3107.7679	3123.1567	3817.006
CCCC1(O)COC1C	CCC[C@@]1(O)CO[C@H]1C	
InChI=1S/C7H14O2/c1-3-4-7(8)5-9-6(7)2/h6,8H,3-5H2,1-2H3	InChI=1S/C7H14O2/c1-3-4-7(8)5-9-6(7)2/h6,8H,3-5H2,1-2H3/t6-,7+/m0/s1
