17
gdb 45370	2.82179	1.66369	1.48759	2.2431	66.67	-0.2459	-0.021	0.2249	937.8282	0.138001	-458.997182	-458.99018	-458.989236	-459.028893	27.399	
O	 0.0310373474	-0.083735062	-0.2185439331	-0.302423
C	 0.0121720807	 1.107833902	-0.0314640678	 0.384248
C	-1.2960546042	 1.8880620091	 0.120232441	-0.315751
C	-1.1369652799	 3.078767892	 1.0812503535	 0.038101
C	-0.6591905063	 2.6632162637	 2.4816093452	-0.091516
O	 0.7622722483	 2.5933019171	 2.3339233304	-0.274439
C	 1.0765723778	 3.107734928	 1.042557753	 0.181123
C	 1.285722027	 1.9476099232	 0.0599575396	-0.320972
O	-0.035008363	 3.8793190956	 0.6426886031	-0.249934
H	-1.5636889386	 2.281911988	-0.8685920295	 0.135275
H	-2.0860173881	 1.1984212391	 0.4298014141	 0.126453
H	-2.0287637701	 3.70741623	 1.0968503452	 0.097704
H	-0.9176618626	 3.4174993322	 3.2342627157	 0.111352
H	-1.0457590403	 1.6899189471	 2.8005018195	 0.118928
H	 1.9490379423	 3.762647212	 1.116241469	 0.098559
H	 2.1154421637	 1.3047204213	 0.3621961673	 0.133924
H	 1.512084966	 2.3591593715	-0.9318628964	 0.129367
84.6737	123.823	320.8495	349.0972	390.7392	460.0926	494.8328	535.3174	671.2793	737.316	764.4235	829.0261	850.068	864.8502	890.0083	938.7899	964.1038	1008.8023	1019.4166	1053.9505	1087.2031	1118.404	1159.5269	1197.6546	1213.8982	1220.5224	1283.4231	1302.897	1305.7154	1351.1105	1366.9031	1385.5627	1394.0477	1440.1787	1450.8474	1525.1644	1825.6324	3029.1046	3036.4689	3040.4874	3080.0388	3080.9952	3104.4033	3106.1751	3117.6995
O=C1CC2COC(C1)O2	O=C1C[C@H]2CO[C@@H](C1)O2	
InChI=1S/C6H8O3/c7-4-1-5-3-8-6(2-4)9-5/h5-6H,1-3H2	InChI=1S/C6H8O3/c7-4-1-5-3-8-6(2-4)9-5/h5-6H,1-3H2/t5-,6+/m0/s1
