19
gdb 33108	6.51082	0.7528	0.68344	1.5545	80.5	-0.2073	0.0288	0.2361	1665.892	0.158017	-423.04946	-423.039968	-423.039024	-423.084738	33.337	
C	 0.6322429023	 1.4661234248	-0.0067357668	-0.222451
O	 0.6421855685	 0.0609404134	 0.0483905249	-0.231128
C	 0.1196733568	-0.5361242338	-1.117421765	-0.172238
C	 0.1683712706	-2.0223012972	-0.972561889	 0.23692
C	 0.6323940343	-2.723668293	 0.0925896652	-0.100305
O	 0.5195313508	-4.0646726052	-0.1309021742	-0.186609
C	-0.0296099055	-4.2251926813	-1.3679919971	 0.383595
C	-0.2485928847	-5.6210271126	-1.8300139019	-0.487753
C	-0.2641507441	-3.0070402552	-1.9266943551	-0.398058
H	 1.2417106451	 1.8474169977	-0.8417266415	 0.104235
H	-0.3889650382	 1.8642128522	-0.1194580305	 0.104235
H	 1.0521414978	 1.8332772185	 0.9327377045	 0.127969
H	-0.9189616751	-0.1989717792	-1.2887228892	 0.095768
H	 0.6965538969	-0.2158121332	-2.0042041904	 0.095763
H	 1.0535314805	-2.4289669952	 1.0373598959	 0.141597
H	 0.6915316241	-6.1828129851	-1.8732954617	 0.13743
H	-0.9231888744	-6.1658560763	-1.1596374344	 0.137423
H	-0.6900838427	-5.6164706336	-2.8290275083	 0.133192
H	-0.6934387128	-2.8275545659	-2.9009642751	 0.100417
48.4795	73.3999	122.5285	122.8429	189.0136	229.3692	298.7213	313.293	347.2574	423.1752	618.4654	644.8216	664.6279	751.2421	763.4379	800.9414	943.195	990.443	1004.9592	1021.3508	1048.2587	1064.3598	1150.0888	1161.884	1172.3921	1184.9894	1222.9765	1239.0856	1253.2059	1292.0062	1370.302	1415.7978	1444.8178	1472.8157	1482.8585	1484.9209	1490.9678	1501.9705	1526.1001	1593.5413	1665.2768	2931.5597	2944.986	2968.274	3010.634	3029.2841	3078.9738	3114.9685	3128.0671	3244.5314	3299.9943
COCC1=COC(C)=C1	COCc1coc(C)c1	
InChI=1S/C7H10O2/c1-6-3-7(4-8-2)5-9-6/h3,5H,4H2,1-2H3	InChI=1S/C7H10O2/c1-6-3-7(4-8-2)5-9-6/h3,5H,4H2,1-2H3
