18
gdb 55879	2.93281	1.00686	0.79453	2.9503	81.11	-0.2394	0.0261	0.2655	1431.289	0.145091	-401.937268	-401.927372	-401.926428	-401.973737	35.275	
C	 0.005764124	 1.4673476835	-0.0336929176	-0.48853
C	-0.162561901	-0.0423717807	 0.0348998641	 0.407658
O	-0.4757285506	-0.6224551524	 1.0584785121	-0.371945
N	 0.083244516	-0.7042626809	-1.1367055082	-0.332107
C	 0.0859347772	-2.1293662964	-1.1995367528	 0.076927
C	-0.9018602362	-2.8666285277	-2.0564971207	-0.302617
C	 0.5621387035	-2.7871845055	-2.486648293	-0.235702
C	 0.9366391699	-1.9588093184	-3.5936199312	 0.306019
C	 1.2566388839	-1.224951752	-4.4932610161	-0.45129
H	 0.9383130734	 1.745370832	 0.4675349877	 0.150991
H	 0.0288141224	 1.8567016809	-1.0549654741	 0.115915
H	-0.8142001558	 1.9350917697	 0.5145824005	 0.152568
H	 0.4250047739	-0.2022426613	-1.9427133376	 0.250827
H	 0.3812254199	-2.5866523632	-0.2626046723	 0.13378
H	-1.2696266896	-3.8275807913	-1.7151695911	 0.128606
H	-1.60736538	-2.2734172523	-2.6259365974	 0.131775
H	 1.1543437523	-3.6888308161	-2.3661079088	 0.124196
H	 1.5352194768	-0.608722558	-5.3120709736	 0.202931
28.5095	49.6431	93.3978	110.6851	191.6978	203.8307	324.8876	383.8932	439.8218	465.7518	531.5233	587.0759	595.444	624.5095	637.9284	659.0641	766.5279	816.5616	889.4632	932.6399	988.3203	998.114	1035.6929	1051.7973	1058.5849	1117.4077	1129.1412	1177.8555	1243.9938	1282.875	1358.4208	1390.1971	1400.7769	1468.7774	1476.4021	1487.6863	1534.5777	1780.9841	2228.9207	3048.2639	3117.9032	3141.9993	3142.8477	3155.9032	3188.3127	3239.712	3501.9062	3607.2442
CC(=O)NC1CC1C#C	CC(=O)N[C@H]1C[C@H]1C#C	
InChI=1S/C7H9NO/c1-3-6-4-7(6)8-5(2)9/h1,6-7H,4H2,2H3,(H,8,9)	InChI=1S/C7H9NO/c1-3-6-4-7(6)8-5(2)9/h1,6-7H,4H2,2H3,(H,8,9)/t6-,7+/m1/s1
