19
gdb 73634	2.25494	1.89368	1.43726	2.0404	75.02	-0.2423	0.0189	0.2612	987.2956	0.161115	-423.038364	-423.030711	-423.029767	-423.070601	30.45	
O	 0.0951988218	 1.3425010035	-0.2537756014	-0.483772
C	 0.0536638321	-0.0471210934	 0.0204104077	 0.383722
C	 0.6784129221	-0.7820508936	-1.1759174426	-0.121779
O	 0.0305248689	-2.0398945654	-1.2224881986	-0.247269
C	-1.3492180911	-1.772378508	-1.0010008045	-0.092396
C	-1.3973389741	-0.656341492	 0.0730917265	-0.126
C	-1.5471930747	-1.1370305714	 1.4902620356	-0.081916
C	-0.4274560935	-1.0047291455	 2.199632351	-0.067948
C	 0.6961305743	-0.4093841428	 1.3939748193	-0.327268
H	-0.267821095	 1.8082144269	 0.5065584203	 0.2798
H	 0.4896367027	-0.1916940469	-2.0869847627	 0.095572
H	 1.7527810639	-0.9552345609	-1.0812087653	 0.107768
H	-1.8259808659	-1.4296440443	-1.9331027524	 0.089162
H	-1.8249403374	-2.7057707636	-0.6890568024	 0.106693
H	-2.1420868148	 0.1002311249	-0.1966321438	 0.078146
H	-2.47636236	-1.5550941848	 1.8637691085	 0.092917
H	-0.3057857991	-1.3016694061	 3.2358949472	 0.095098
H	 1.5202972741	-1.1239911831	 1.2764754565	 0.118261
H	 1.1344392558	 0.4854226767	 1.8550847412	 0.101208
56.9721	185.5484	257.9048	305.1053	347.5192	368.2284	422.2301	465.4871	585.3582	605.5418	678.775	750.9281	765.6646	824.0182	870.0351	926.3546	955.9469	967.6704	977.6024	991.9503	1031.0649	1061.1895	1081.4469	1089.8191	1119.1869	1138.4817	1159.8006	1193.359	1211.4603	1256.0206	1285.5001	1300.1036	1323.4061	1346.7631	1375.8048	1391.3554	1405.8705	1477.7196	1503.2882	1516.6084	1688.3244	2973.8587	2982.0866	3018.5135	3047.9863	3048.1192	3091.8674	3102.9478	3175.2116	3201.0324	3814.126
OC12COCC1C=CC2	O[C@]12COC[C@H]1C=CC2	
InChI=1S/C7H10O2/c8-7-3-1-2-6(7)4-9-5-7/h1-2,6,8H,3-5H2	InChI=1S/C7H10O2/c8-7-3-1-2-6(7)4-9-5-7/h1-2,6,8H,3-5H2/t6-,7-/m1/s1
