19
gdb 117746	2.20028	1.08868	0.90024	1.0499	73.86	-0.2602	-0.0664	0.1938	1387.5275	0.154827	-460.184996	-460.174602	-460.173658	-460.22096	36.489	
C	 0.146295805	 1.6997881503	 0.0786684219	-0.387007
C	 0.1226888197	 0.1698163948	 0.1181771246	-0.180329
C	 0.6396406841	-0.4508272699	-1.1851724059	-0.205585
C	 0.6901054517	-1.9990525944	-1.1352064639	 0.171985
O	 1.3997082236	-2.481255236	-0.0286585631	-0.465336
C	-0.7330357129	-2.5813097484	-1.1194020947	 0.115972
O	-1.611170903	-2.2199239896	-1.8574616174	-0.250753
C	 1.3531297049	-2.4896835833	-2.422079249	 0.118347
O	 2.3732680028	-3.1313187	-2.3917028382	-0.262698
H	 1.1632483109	 2.0771178713	-0.0759769729	 0.11689
H	-0.4787703729	 2.0876469235	-0.7330532303	 0.118582
H	-0.2256609504	 2.1225124959	 1.0168032777	 0.118178
H	 0.7342702629	-0.196723244	 0.9483520051	 0.123576
H	-0.9016545112	-0.1759943429	 0.304379656	 0.107593
H	-0.0010084962	-0.1618089064	-2.0256771724	 0.121825
H	 1.6509412912	-0.08052064	-1.394199079	 0.106409
H	 2.168700507	-2.9528137133	-0.3895052519	 0.297637
H	-0.8603797972	-3.3875291743	-0.3660997979	 0.108915
H	 0.84834307	-2.2088814334	-3.3647752586	 0.1258
70.4271	83.8366	94.1057	117.1345	165.8391	240.3479	251.7053	286.5665	318.4494	330.4652	374.9458	430.0522	507.2475	559.7455	729.3094	751.4919	832.1957	861.9338	881.4127	910.4054	977.3134	1030.7982	1048.4899	1091.5881	1125.6988	1165.0185	1216.6393	1278.8329	1307.1632	1334.9712	1367.9774	1373.9372	1391.9371	1409.7613	1414.1714	1470.4252	1493.1323	1499.9152	1508.4506	1795.9345	1832.5791	2917.0065	2973.6806	3025.9129	3030.5984	3038.2772	3072.66	3086.6664	3104.5906	3107.7568	3671.8116
CCCC(O)(C=O)C=O	CCCC(O)(C=O)C=O	
InChI=1S/C6H10O3/c1-2-3-6(9,4-7)5-8/h4-5,9H,2-3H2,1H3	InChI=1S/C6H10O3/c1-2-3-6(9,4-7)5-8/h4-5,9H,2-3H2,1H3
