17
gdb 28499	3.06644	1.397	0.97134	2.7056	79.1	-0.2353	-0.0307	0.2046	1193.1347	0.13553	-418.07899	-418.070129	-418.069184	-418.113353	32.088	
C	-0.0809321501	 1.4898656862	 0.0263360508	-0.460789
C	-0.028230627	-0.0133354233	-0.01040353	 0.333129
N	-0.0548350741	-0.6108226188	-1.2066607101	-0.278867
C	-0.0071618685	-1.9421489415	-1.2153034622	-0.05466
C	 0.0668653193	-2.6910189572	-0.0473047242	 0.272336
O	 0.112176462	-4.0481863241	-0.137656314	-0.434511
C	 0.0899701141	-1.9824639813	 1.1616844989	 0.214078
C	 0.1689926968	-2.6962953265	 2.4854509004	-0.524414
N	 0.0420784652	-0.6501088675	 1.1657773444	-0.320917
H	 0.8056793128	 1.8925798406	 0.5265845973	 0.134931
H	-0.1366822123	 1.8889731915	-0.9866955097	 0.134807
H	-0.9504728806	 1.8292607921	 0.5983510655	 0.134928
H	-0.0277918245	-2.4458627846	-2.1790660288	 0.119968
H	 0.1614329691	-4.4284993013	 0.7451892656	 0.302224
H	 1.0810561558	-3.3021702135	 2.5653365398	 0.135271
H	 0.1748531798	-1.960664556	 3.2900875267	 0.157216
H	-0.6877791978	-3.3659534246	 2.6365326694	 0.135272
28.2368	117.5654	142.0008	203.9953	278.4303	303.5679	313.1243	379.9695	457.8698	470.5357	522.2186	577.2759	615.8299	741.266	783.3333	784.8857	944.2816	962.5826	981.15	1044.4237	1052.8399	1067.0341	1167.2108	1237.8776	1271.7002	1289.4035	1355.6448	1392.4956	1405.4305	1431.0682	1470.8046	1480.5255	1486.0307	1487.9543	1493.15	1603.859	1634.5898	3014.4356	3044.7286	3063.7945	3100.0527	3148.3092	3152.6704	3158.3165	3828.404
CC1=NC=C(O)C(C)=N1	Cc1ncc(O)c(C)n1	
InChI=1S/C6H8N2O/c1-4-6(9)3-7-5(2)8-4/h3,9H,1-2H3	InChI=1S/C6H8N2O/c1-4-6(9)3-7-5(2)8-4/h3,9H,1-2H3
