17
gdb 98857	3.21991	1.13787	0.98555	1.7288	65.42	-0.2551	-0.0193	0.2358	1235.2607	0.134856	-496.101083	-496.09206	-496.091116	-496.136256	31.576	
C	-0.4394895246	 1.4751547917	 0.4829925502	-0.246965
O	-0.2530371678	 0.0514877171	 0.5577600299	-0.226648
C	-0.9430673676	-0.6706136901	-0.3287630667	 0.48285
O	-1.6807895279	-0.1909965613	-1.1641551516	-0.392376
C	-0.7142642859	-2.1642840436	-0.1619824213	-0.054515
O	-1.9124884795	-2.800172709	 0.3262906331	-0.283338
C	-2.2047488807	-3.3875769577	-0.9657181413	-0.111504
C	-0.8180020384	-2.9624171552	-1.5059993781	 0.090041
O	-0.7206867951	-2.2976268474	-2.7213727356	-0.428266
H	 0.2048411414	 1.8972422894	 1.2532296322	 0.141826
H	-0.1554414095	 1.8450483371	-0.5048171419	 0.147761
H	-1.48460221	 1.7312969256	 0.6712184828	 0.149688
H	 0.145087723	-2.3529254312	 0.4870787837	 0.097527
H	-2.417275556	-4.4588189242	-0.8868591805	 0.109959
H	-3.0367061068	-2.8790309814	-1.4677945417	 0.11363
H	-0.1028163821	-3.7873512834	-1.5311736791	 0.10943
H	-1.2635298024	-1.4978634464	-2.6477157541	 0.300899
26.5446	101.6577	111.8361	156.9554	199.2424	267.1212	305.9766	356.4141	422.5717	477.873	593.7949	693.098	768.3974	787.9095	857.0842	893.2127	972.8981	994.5553	1019.0238	1050.7032	1061.497	1152.8286	1175.5541	1177.3931	1201.8943	1216.6282	1250.8061	1269.1545	1325.3104	1354.1317	1384.993	1467.7153	1475.4135	1481.7492	1493.8976	1513.6169	1782.9413	3026.5448	3057.8971	3074.6587	3079.3599	3099.5472	3135.9189	3169.101	3709.6367
COC(=O)C1OCC1O	COC(=O)[C@H]1OC[C@H]1O	
InChI=1S/C5H8O4/c1-8-5(7)4-3(6)2-9-4/h3-4,6H,2H2,1H3	InChI=1S/C5H8O4/c1-8-5(7)4-3(6)2-9-4/h3-4,6H,2H2,1H3/t3-,4+/m1/s1
