19
gdb 40256	2.72489	1.63903	1.22023	2.6734	74.73	-0.2453	0.0716	0.3169	1053.8629	0.160788	-422.990022	-422.982553	-422.981608	-423.021885	29.898	
C	 0.0576208018	 1.4779787531	 0.0205057023	-0.239512
O	 1.2165572677	 0.6420635635	-0.028670704	-0.278202
C	-0.078319264	 0.0167482163	 0.0038495927	 0.410387
C	-0.3867951723	-0.7332011138	 1.2869811899	-0.164916
O	 0.0209699912	-2.0823535514	 1.1959994061	-0.234495
C	-0.7535543697	-2.8101223876	 0.2560267935	-0.098086
C	-0.7768413456	-2.1863267469	-1.1403335485	-0.057381
C	-1.8540903904	-1.1922722711	-1.4960559072	-0.308793
C	-0.4441456769	-0.7122529472	-1.2526711909	-0.079259
H	-0.0825888026	 2.0296981185	 0.9506441329	 0.108149
H	-0.15349484	 2.0454528461	-0.8854857024	 0.110236
H	 0.1757199057	-0.2811429389	 2.1075266176	 0.119604
H	-1.4642037321	-0.6688593598	 1.5223127434	 0.085815
H	-0.3025835454	-3.804662673	 0.2141018059	 0.114873
H	-1.7816198744	-2.9249618102	 0.6396587177	 0.089185
H	-0.4170022905	-2.8267976578	-1.9382189456	 0.095415
H	-2.2248050958	-1.1675437451	-2.51467607	 0.115781
H	-2.6096332249	-0.9814120238	-0.7447069045	 0.112931
H	 0.1280865981	-0.3887274309	-2.1156476589	 0.098269
91.5086	186.9094	255.8796	302.7977	348.7156	410.2848	420.8329	486.2323	517.6024	656.6247	736.5722	799.1894	819.9703	852.0236	894.8847	924.5135	933.992	981.2872	988.2846	1011.7946	1032.4807	1065.4938	1107.2022	1116.2572	1126.3345	1129.2397	1166.9324	1173.5839	1211.4893	1258.6752	1296.5885	1327.6139	1335.1697	1368.3996	1383.5141	1413.3457	1453.0411	1477.7631	1489.8987	1500.8391	1532.3085	2947.364	2958.1428	3071.3882	3091.9752	3101.9565	3125.1526	3155.398	3160.1198	3168.2663	3211.9517
C1OC11COCC2CC12	C1O[C@]21COC[C@H]1C[C@@H]21	
InChI=1S/C7H10O2/c1-5-2-8-3-7(4-9-7)6(1)5/h5-6H,1-4H2	InChI=1S/C7H10O2/c1-5-2-8-3-7(4-9-7)6(1)5/h5-6H,1-4H2/t5-,6-,7+/m1/s1
