22
gdb 76344	2.23954	1.34342	0.9362	2.8857	83.75	-0.2242	-0.0269	0.1973	1322.1951	0.191284	-404.341756	-404.33135	-404.330406	-404.37747	37.472	
C	-0.0829537992	 1.5616634812	 0.210392029	-0.409801
C	 0.0437708058	 0.0447177753	 0.1201333778	-0.041614
C	 0.7030342539	-0.543121267	-1.1678155974	 0.074553
C	 0.7727467891	 0.2599931901	-2.4555573701	-0.40875
N	 1.9697172578	-0.6808767439	-0.4183035576	-0.090378
C	 2.8159451526	-1.8270257697	-0.6730869116	-0.333811
C	 1.2696878786	-0.5929548911	 0.8680250249	-0.053893
C	 1.9644850104	 0.2336358544	 1.9272937486	 0.140031
O	 1.6376111306	 0.2596704879	 3.0867172396	-0.252267
H	 0.8550802396	 2.0669105939	-0.0378013664	 0.127418
H	-0.853105797	 1.9278623287	-0.4760812536	 0.117724
H	-0.3689885431	 1.8639887579	 1.2227306233	 0.13267
H	-0.9066695177	-0.4226309452	 0.3835057708	 0.08412
H	 0.2581358639	-1.5318196833	-1.3809646025	 0.056094
H	 1.1943756276	 1.2534688964	-2.2844354785	 0.122876
H	 1.4035193244	-0.2513289597	-3.1909521251	 0.117953
H	-0.223050572	 0.3722002983	-2.898102062	 0.116094
H	 3.2069111372	-1.7824685922	-1.6947200756	 0.12409
H	 3.6717483033	-1.8199508903	 0.010384433	 0.123504
H	 2.2866074066	-2.7905205547	-0.5488763992	 0.095329
H	 0.9934561614	-1.5661883171	 1.30662184	 0.07849
H	 2.8061426461	 0.8505638	 1.5361205025	 0.079566
45.5081	71.2253	183.0071	185.8521	205.8687	206.0962	223.3383	240.	271.4647	333.1178	376.0424	444.17	501.6782	560.9133	678.4572	773.1197	797.2364	859.2314	960.9368	980.5098	1012.8494	1034.2645	1046.8576	1077.3572	1123.2358	1138.7631	1168.7682	1173.2844	1198.5127	1227.8455	1255.2762	1273.9077	1307.0364	1328.8705	1372.2488	1386.4872	1401.947	1413.0359	1419.5087	1455.2591	1482.8167	1487.4946	1492.1472	1497.796	1499.882	1509.0927	1824.9973	2869.641	2928.5179	2934.3196	2967.2773	3034.3176	3038.3445	3059.0407	3087.3085	3096.0764	3100.305	3104.0408	3114.378	3123.2938
CC1C(C)N(C)C1C=O	C[C@H]1[C@@H](C)N(C)[C@H]1C=O	
InChI=1S/C7H13NO/c1-5-6(2)8(3)7(5)4-9/h4-7H,1-3H3	InChI=1S/C7H13NO/c1-5-6(2)8(3)7(5)4-9/h4-7H,1-3H3/t5-,6+,7-/m0/s1
