17
gdb 33172	3.31464	1.05801	0.85469	3.5972	70.06	-0.2025	0.0416	0.2441	1313.6318	0.13662	-455.164423	-455.155464	-455.15452	-455.198885	32.111	
O	 0.107190477	 1.4167940038	-0.0868447356	-0.406899
C	 0.0865307375	 0.0031340415	-0.0295528913	-0.070623
C	-1.3533559149	-0.5329874989	-0.0194615551	-0.195585
N	-1.4096606976	-1.9831664919	-0.0064831512	-0.042397
C	-1.6369843131	-2.8328211497	-1.0657774943	-0.004983
N	-1.5901816555	-4.0903823726	-0.7113971751	-0.265172
C	-1.3130678416	-4.08775094	 0.6422025402	-0.212402
C	-1.199545927	-2.7954321167	 1.0808100166	 0.324358
O	-0.9444415794	-2.2018913913	 2.2757756293	-0.445246
H	-0.1548823634	 1.7557053303	 0.7749341003	 0.288918
H	 0.6011462305	-0.3531030298	-0.9276316938	 0.124662
H	 0.6299855762	-0.3854480137	 0.8425541264	 0.113314
H	-1.8836071124	-0.1520353341	 0.8602643714	 0.12184
H	-1.8815906448	-0.1764649293	-0.9073815736	 0.131608
H	-1.8372177376	-2.451780435	-2.0562837446	 0.126265
H	-1.2169894637	-5.00020073	 1.2104148354	 0.099518
H	-0.8688222101	-2.8882760526	 2.945717095	 0.312823
55.5459	93.8481	98.6601	224.3489	261.4551	282.7308	300.6862	330.1063	379.0221	469.9711	663.3498	676.5607	694.9645	770.4801	775.257	784.7585	789.5343	931.3761	1031.2415	1058.1922	1087.7128	1123.8097	1142.7016	1168.5648	1247.1563	1285.646	1297.6541	1318.2649	1344.0891	1387.7426	1404.4808	1419.0717	1477.721	1495.7701	1509.9308	1554.7937	1613.86	3016.3625	3048.6638	3083.3452	3114.0758	3243.193	3247.789	3820.2022	3844.3848
OCCN1C=NC=C1O	OCCn1cncc1O	
InChI=1S/C5H8N2O2/c8-2-1-7-4-6-3-5(7)9/h3-4,8-9H,1-2H2	InChI=1S/C5H8N2O2/c8-2-1-7-4-6-3-5(7)9/h3-4,8-9H,1-2H2
