21
gdb 70027	3.2986	1.43918	1.22567	1.7152	81.4	-0.2418	0.0869	0.3286	1106.0184	0.184053	-387.076308	-387.068456	-387.067512	-387.108309	31.698	
C	-0.0823388549	 1.5482423564	 0.0767835972	-0.504968
C	 0.1462273073	 0.0734091887	 0.0196551289	 0.406166
O	-0.7588858496	-0.78091895	 0.7403724634	-0.2837
C	 0.6484831075	-0.9039978022	 1.0021956912	-0.066395
C	 1.2425800258	-1.8038205663	-0.1008254977	-0.027358
C	 0.572476277	-3.1518332657	-0.4214258658	-0.229077
C	 0.1599653889	-3.0184014064	-1.9060159156	-0.188083
C	-0.2742938722	-1.5422749238	-2.0646247697	-0.233035
C	 0.7000794284	-0.7707842561	-1.1578735811	-0.075414
H	 0.810960096	 2.0917768346	-0.2481475579	 0.122491
H	-0.9091044776	 1.8399169848	-0.5814814124	 0.12955
H	-0.3328521388	 1.8593143119	 1.0946131586	 0.132418
H	 0.9652158601	-0.7796590041	 2.0326376981	 0.094432
H	 2.3331254529	-1.8530525928	-0.0580144136	 0.068655
H	 1.2257261709	-4.0106942161	-0.2439741875	 0.089096
H	-0.3214187424	-3.2753325878	 0.1974949596	 0.112869
H	 1.0269979386	-3.2184144459	-2.5487276956	 0.092742
H	-0.6237852329	-3.7254275767	-2.1958242419	 0.09335
H	-0.2512964912	-1.2090924648	-3.1059785877	 0.088436
H	-1.2970532464	-1.4208881528	-1.6943633238	 0.111365
H	 1.4914329625	-0.2518517949	-1.7044912167	 0.066459
133.4414	169.9803	204.116	218.1516	283.1723	337.8212	498.5829	526.9503	556.9547	625.3408	701.1226	710.7707	799.4887	833.4851	850.4975	873.8068	901.9855	912.9112	938.7221	961.4352	1000.5756	1020.9569	1029.537	1051.5138	1087.3404	1108.7134	1154.275	1170.1903	1187.2992	1199.5403	1253.9748	1262.8681	1267.44	1300.7723	1330.7316	1336.264	1344.1931	1349.002	1405.0639	1463.9356	1479.0418	1483.3995	1487.2102	1495.0085	1503.9	3024.5611	3030.8733	3051.5113	3053.3151	3071.005	3076.3046	3085.593	3092.1763	3099.1799	3106.4364	3118.2813	3169.3699
CC12OC1C1CCCC21	C[C@]12O[C@H]1[C@H]1CCC[C@@H]21	
InChI=1S/C8H12O/c1-8-6-4-2-3-5(6)7(8)9-8/h5-7H,2-4H2,1H3	InChI=1S/C8H12O/c1-8-6-4-2-3-5(6)7(8)9-8/h5-7H,2-4H2,1H3/t5-,6+,7-,8+/m0/s1
