19
gdb 90007	2.94788	1.35382	1.10451	2.9954	76.27	-0.2277	-0.0317	0.1959	1161.4874	0.157804	-423.02371	-423.015031	-423.014087	-423.057584	32.481	
C	-0.5902457717	 1.3656552269	 0.2614235409	-0.399924
C	-0.0659358236	-0.0385655515	 0.0360377197	 0.145565
C	 0.759481482	-0.2773377738	-1.2495351662	-0.366219
C	 1.9567322285	-0.3951652918	-0.2764434144	 0.358356
C	 3.025497073	-1.5158806298	-0.3802201338	-0.320565
C	 4.09363291	-0.4785575269	-0.8411216727	-0.348568
C	 3.105202284	 0.6324077508	-0.4343268326	 0.345867
O	 3.1888346995	 1.8100694025	-0.2417555319	-0.299252
O	 1.1015582412	-0.3208273248	 0.8602374813	-0.318657
H	 0.2030744825	 2.0992330293	 0.0880104061	 0.14313
H	-1.4258427972	 1.5758813449	-0.4155063434	 0.113328
H	-0.9454876674	 1.4784743518	 1.2902563605	 0.127702
H	-0.8476884089	-0.7839510913	 0.2237295611	 0.078993
H	 0.5288102623	-1.2044128194	-1.7775643471	 0.114167
H	 0.7917194251	 0.5540333827	-1.956155174	 0.1207
H	 3.2436439929	-1.9280887549	 0.6077265717	 0.128383
H	 2.7986551651	-2.3316388038	-1.068814618	 0.107319
H	 5.0506397353	-0.469824593	-0.3147978616	 0.136341
H	 4.2903191772	-0.4813683079	-1.9178697557	 0.133336
54.4832	74.6053	164.4626	239.2771	256.5244	272.0315	371.7801	384.8417	493.9015	522.2099	581.9838	698.2818	748.207	795.7305	828.1257	874.6633	909.106	915.3568	936.1893	956.8985	1021.049	1055.1611	1072.505	1098.1177	1141.0506	1153.5458	1191.934	1199.3865	1223.3631	1225.9515	1253.5694	1281.7731	1313.6213	1382.3148	1413.1571	1440.7489	1478.628	1480.1616	1487.8268	1499.9112	1888.0078	3031.2844	3034.6906	3062.6604	3073.4029	3075.7697	3106.717	3116.7514	3118.8941	3132.238	3135.1586
CC1CC2(CCC2=O)O1	C[C@H]1C[C@]2(CCC2=O)O1	
InChI=1S/C7H10O2/c1-5-4-7(9-5)3-2-6(7)8/h5H,2-4H2,1H3	InChI=1S/C7H10O2/c1-5-4-7(9-5)3-2-6(7)8/h5H,2-4H2,1H3/t5-,7-/m0/s1
