17
gdb 68284	2.31191	1.58838	1.46202	1.0823	68.99	-0.2522	-0.0443	0.2079	1000.8931	0.132965	-458.90574	-458.897222	-458.896278	-458.939116	32.178	
C	 0.0025985558	 1.4257208149	-0.0243800572	-0.520376
C	-0.0147547956	-0.0657505684	-0.0958402745	 0.346407
C	 0.7364171579	-1.0583452156	-1.0112840033	-0.28198
C	 0.0613754952	-1.8662039226	 0.1084680046	-0.022623
O	 0.5063039269	-0.8414955123	 1.0873720908	-0.375435
C	-1.2600971883	-1.0328041799	-0.0528790702	 0.331428
O	-2.0716592699	-0.9367622829	 1.0747471975	-0.498848
C	-2.1887204116	-1.2237527569	-1.2360869707	 0.100148
O	-1.8861553117	-1.1461657161	-2.4000975098	-0.257382
H	 1.0165448732	 1.7894716321	 0.1654527618	 0.141036
H	-0.3486548452	 1.8465607998	-0.9713827008	 0.144098
H	-0.6547169353	 1.7765197608	 0.7770984167	 0.137205
H	 0.3813500206	-1.1788035403	-2.032299688	 0.143387
H	 1.8212518363	-1.0075016532	-0.9155912654	 0.11124
H	 0.1726255246	-2.9112669755	 0.397567285	 0.105054
H	-1.4507035321	-0.8508511416	 1.8142167199	 0.290205
H	-3.2283180808	-1.4480736324	-0.9168546964	 0.106434
43.7492	159.3081	192.4555	204.1417	255.6106	322.1834	363.2421	436.8809	462.8833	556.5066	599.619	640.4628	675.3031	708.4435	743.8723	762.258	872.562	904.7166	951.9215	1020.4834	1029.9882	1076.5317	1080.9829	1111.1098	1159.5573	1193.0785	1206.2013	1230.2863	1247.9633	1320.9338	1390.5869	1412.7325	1425.8354	1476.7231	1483.5727	1486.2968	1827.9166	2918.9483	3041.7299	3096.1503	3117.4171	3120.7266	3125.3918	3186.0438	3721.5297
CC12CC(O1)C2(O)C=O	C[C@@]12C[C@@H](O1)[C@]2(O)C=O	
InChI=1S/C6H8O3/c1-5-2-4(9-5)6(5,8)3-7/h3-4,8H,2H2,1H3	InChI=1S/C6H8O3/c1-5-2-4(9-5)6(5,8)3-7/h3-4,8H,2H2,1H3/t4-,5+,6-/m1/s1
