17
gdb 34962	3.13048	1.56245	1.48985	2.2897	74.24	-0.2443	0.0165	0.2608	943.0285	0.139067	-380.830352	-380.823582	-380.822638	-380.861573	26.908	
N	-0.1063892221	-1.2017844327	-0.2092063629	-0.341783
C	-0.0784580215	-0.0482587848	-0.12621137	 0.284131
C	-0.0001142369	 1.3932110774	 0.0263342766	-0.163333
C	-0.2059241418	 2.0229477446	 1.4333117525	-0.00655
C	 0.5302331701	 1.3092939199	 2.5792007489	-0.256241
C	 1.8118047145	 2.0191029419	 2.0972250593	 0.016802
C	 2.4731265883	 1.3860541893	 0.8560733025	-0.256241
C	 1.3921258511	 2.0860837649	 0.0160213344	-0.006548
N	 0.9822457721	 2.9609980597	 1.2038235641	-0.162196
H	-0.6619212883	 1.8748430041	-0.6984247079	 0.132812
H	-1.1895582048	 2.4518449952	 1.6288230548	 0.09098
H	 0.2006795234	 1.6873570524	 3.5497354254	 0.119724
H	 0.5165640825	 0.2164551319	 2.5996208635	 0.127641
H	 2.4631801534	 2.4630260501	 2.851452209	 0.082455
H	 3.4582114989	 1.8160544755	 0.6606715802	 0.119724
H	 2.5432918628	 0.2965275376	 0.8021405527	 0.127643
H	 1.6836621483	 2.5653615231	-0.9193999332	 0.090981
114.83	142.2309	309.4949	320.8234	398.2017	539.3808	560.9726	648.3496	676.1727	728.476	822.9747	837.2289	909.4727	911.5732	920.124	951.7801	960.7773	995.4383	996.7771	1069.9667	1071.8572	1085.8384	1112.2482	1145.194	1187.632	1210.5111	1211.1896	1253.2369	1270.5231	1282.8273	1304.9257	1328.6596	1356.6624	1360.0006	1477.3524	1488.0194	2348.1285	3062.9069	3063.3165	3076.5819	3094.504	3095.9145	3101.3497	3117.6576	3121.131
N#CC1C2CC3CC1N23	N#C[C@H]1[C@H]2C[C@H]3C[C@@H]1N23	
InChI=1S/C7H8N2/c8-3-5-6-1-4-2-7(5)9(4)6/h4-7H,1-2H2	InChI=1S/C7H8N2/c8-3-5-6-1-4-2-7(5)9(4)6/h4-7H,1-2H2/t4-,5-,6+,7-
