23
gdb 70599	2.03388	1.83346	1.43744	1.4586	84.47	-0.2432	0.0803	0.3236	1084.8448	0.205023	-388.301898	-388.292648	-388.291704	-388.334746	37.006	
C	-0.4399725965	 1.4017680853	-0.0101027121	-0.497423
C	-0.0651051772	-0.061368064	 0.03140368	 0.342624
C	-0.6180083022	-0.9410903283	 1.1295609746	-0.344307
C	 0.8599082472	-0.6445541228	 1.0754788849	-0.102666
C	 1.6898511561	-1.6907243718	 0.3590551957	-0.107756
O	 0.9717157387	-1.9873127727	-0.8342847474	-0.295935
C	 0.274088546	-0.804296559	-1.2747721193	 0.312384
C	-0.9483581282	-1.2802175466	-2.0573333482	-0.424334
C	 1.2026396148	 0.0280441527	-2.1737919725	-0.429346
H	 0.3492227639	 2.017157035	-0.4540382157	 0.119888
H	-1.3554864996	 1.5637386329	-0.5917657728	 0.11886
H	-0.6254647351	 1.7809221557	 0.9994667635	 0.115421
H	-1.2001118139	-0.4492142462	 1.901599721	 0.103926
H	-0.9413838658	-1.9488497012	 0.8899608428	 0.118728
H	 1.3237743572	-0.0280818569	 1.8373978491	 0.081915
H	 2.6981001089	-1.3033222517	 0.1409732211	 0.088414
H	 1.80065591	-2.6312966177	 0.9104681714	 0.103809
H	-1.6017517166	-1.8876166624	-1.4268312533	 0.118896
H	-1.5220056436	-0.4270074128	-2.4330744597	 0.110575
H	-0.6380164975	-1.8853213344	-2.9142780376	 0.119899
H	 1.5633815695	-0.5953347844	-2.9967334342	 0.119989
H	 0.6837758183	 0.8914893779	-2.6004672946	 0.113425
H	 2.0705678356	 0.3968862932	-1.6184011866	 0.113015
142.1168	197.1955	206.9911	227.2901	243.4955	259.9261	296.066	341.7254	388.9049	398.0142	432.0469	495.4144	581.9207	632.3802	700.7052	804.6419	838.3603	864.4028	896.7494	924.7566	943.2028	961.1577	976.5371	1011.7783	1025.2505	1062.6456	1089.8897	1097.0782	1116.5629	1131.2541	1168.8037	1206.0401	1228.1351	1237.67	1280.5106	1324.8276	1370.3056	1392.9607	1398.6323	1412.8518	1421.0718	1474.7659	1481.2407	1485.0034	1492.6477	1495.3718	1505.2033	1506.9912	1522.9511	2972.8692	3026.0951	3037.6688	3044.2775	3055.8709	3085.826	3101.6952	3108.1299	3110.3809	3118.1963	3125.3433	3127.5933	3172.8092	3213.5307
CC12CC1COC2(C)C	C[C@]12C[C@H]1COC2(C)C	
InChI=1S/C8H14O/c1-7(2)8(3)4-6(8)5-9-7/h6H,4-5H2,1-3H3	InChI=1S/C8H14O/c1-7(2)8(3)4-6(8)5-9-7/h6H,4-5H2,1-3H3/t6-,8-/m0/s1
