20
gdb 40851	4.78546	1.29207	1.19412	1.553	83.38	-0.227	0.0884	0.3153	1098.1836	0.172216	-365.903094	-365.895952	-365.895008	-365.934603	29.307	
C	 0.0657579156	 1.4480565677	-0.5188677572	-0.217138
C	 1.3818541689	 1.6684653684	 0.2800139099	-0.307568
C	 1.3034106451	 0.1953821765	 0.7315212198	 0.418718
C	-0.1737809283	 0.1414097888	 0.28995651	-0.307568
C	 2.3418015031	-0.8647018177	 0.3842786793	-0.158277
C	 3.1893864423	-0.4070678345	 1.6099257561	 0.000273
C	 3.2820184529	-1.8106154508	 2.2145910981	-0.262825
C	 1.8765243863	-1.69579759	 1.6183113043	 0.000274
N	 1.7307468891	-0.230861264	 2.1275514819	-0.215948
H	-0.6970415148	 2.2256193009	-0.4440979572	 0.100212
H	 0.2542848985	 1.2491112495	-1.5770885909	 0.102048
H	 2.2693645257	 1.9839300496	-0.2752319383	 0.095007
H	 1.2409369209	 2.3432020197	 1.1302470914	 0.111973
H	-0.8402437043	 0.3002567276	 1.1435481794	 0.111974
H	-0.5092347746	-0.7436223996	-0.2574731607	 0.095007
H	 2.6956306857	-1.2314715779	-0.5863247588	 0.061465
H	 3.8949259003	 0.4233873501	 1.6592211638	 0.083197
H	 3.9688674139	-2.5134409586	 1.7359521189	 0.097455
H	 3.339970664	-1.8625579597	 3.3050709263	 0.108525
H	 1.0334769798	-2.385464066	 1.677498164	 0.083197
93.2498	164.3728	235.9689	292.2061	420.1385	465.7073	530.7526	693.8059	711.3363	785.906	817.9006	827.7956	835.9291	850.6594	880.3909	882.926	924.4614	933.9522	953.5878	1019.7836	1022.2056	1029.6976	1033.525	1085.7008	1099.2647	1130.2088	1150.0686	1152.8667	1170.0467	1187.7377	1209.1108	1209.7388	1231.1791	1249.8367	1249.8964	1277.2295	1278.0251	1311.5821	1353.7604	1467.1378	1480.0118	1488.7227	1502.0369	3032.9232	3047.946	3051.6288	3054.2661	3064.1741	3095.8294	3101.1417	3104.5189	3109.7377	3120.1709	3121.4931
C1CC2(C1)C1C3CC1N23	C1CC2(C1)[C@H]1[C@@H]3C[C@H]1N23	
InChI=1S/C8H11N/c1-2-8(3-1)7-5-4-6(7)9(5)8/h5-7H,1-4H2	InChI=1S/C8H11N/c1-2-8(3-1)7-5-4-6(7)9(5)8/h5-7H,1-4H2/t5-,6+,7-
