22
gdb 120337	3.41129	0.99587	0.96844	3.1996	82.41	-0.2304	0.0755	0.3059	1348.3461	0.196247	-404.327598	-404.318878	-404.317934	-404.361847	33.369	
O	 0.2375794613	 1.1537082594	-0.2892301538	-0.421555
C	 0.2264165969	-0.2212405036	 0.0225096521	-0.041604
C	-1.2070924998	-0.7438173864	 0.1646290213	-0.158797
N	-1.9282539584	-0.392713522	-1.0565756291	-0.105196
C	-2.4332685154	-1.3549742227	-2.0299987023	-0.031049
C	-2.6457593689	-2.8055360754	-1.6208948401	-0.230565
C	-3.552798186	-2.7762882819	-0.3612972236	-0.221852
C	-4.2052200667	-1.3694908682	-0.324289844	-0.226865
C	-3.3690067971	-0.4905144391	-1.24160262	-0.027447
H	-0.4524179764	 1.2481742547	-0.9619830923	 0.280225
H	 0.7492453372	-0.8136887606	-0.748443871	 0.078712
H	 0.7699064466	-0.3546738105	 0.964604823	 0.098235
H	-1.1826325177	-1.8199847918	 0.3827171693	 0.089958
H	-1.6906549334	-0.2366842505	 1.0074747648	 0.108644
H	-2.1724688463	-1.1489017863	-3.0653383809	 0.087171
H	-3.1406398721	-3.3218709691	-2.4511062796	 0.106209
H	-1.705087273	-3.3383682763	-1.4403975679	 0.105223
H	-4.3062852527	-3.567671812	-0.3925381733	 0.102336
H	-2.9655452121	-2.9484143077	 0.5437115658	 0.110405
H	-5.2271407887	-1.3972155294	-0.719649906	 0.105039
H	-4.2754964305	-0.9723495561	 0.6942314345	 0.106062
H	-3.836478847	 0.3986841856	-1.658747727	 0.08671
33.3258	123.4897	150.0278	192.7607	203.4159	273.2514	429.7566	461.5943	517.9126	546.8758	677.2952	695.9556	727.4903	792.3322	806.7974	877.2525	892.2062	900.9422	911.4986	958.4514	973.2934	1035.4682	1051.4167	1057.1848	1095.3322	1115.6475	1132.668	1136.3515	1185.5909	1217.2826	1228.8349	1257.0226	1277.7311	1307.6838	1309.9991	1322.9851	1331.5616	1358.7752	1375.0215	1386.7933	1424.0023	1445.9168	1473.2997	1488.5852	1493.5409	1509.3615	1514.1832	2952.9373	3007.2644	3036.5662	3037.5122	3061.076	3063.9937	3068.6756	3069.8558	3072.1829	3106.4527	3126.2034	3137.141	3724.5988
OCCN1C2CCCC12	OCCN1[C@H]2CCC[C@@H]12	
InChI=1S/C7H13NO/c9-5-4-8-6-2-1-3-7(6)8/h6-7,9H,1-5H2	InChI=1S/C7H13NO/c9-5-4-8-6-2-1-3-7(6)8/h6-7,9H,1-5H2/t6-,7+,8?
