18
gdb 20163	3.26627	2.89119	2.03231	0.1985	74.87	-0.2267	0.0216	0.2484	733.7119	0.157589	-310.652138	-310.646425	-310.64548	-310.681514	24.581	
C	-0.0389842743	 1.5471578549	 0.0067118076	-0.235297
C	 1.5139192449	 1.5739811627	 0.0002974289	-0.012429
C	 2.2092890166	 1.4083439767	 1.379171425	-0.235297
C	 2.0727544473	-0.1591361813	 1.2716699477	-0.062372
C	 0.9125136706	-0.7459148025	 2.0337703049	-0.076995
C	-0.2254290355	-0.6756606127	 1.3391063488	-0.076996
C	-0.0224018291	-0.0297763683	-0.0073255881	-0.062372
C	 1.5288228538	 0.0210900482	-0.1811787719	-0.036858
H	-0.5415994836	 2.0172113185	 0.8569076151	 0.091859
H	-0.4550168286	 1.9613971537	-0.9162487894	 0.095648
H	 1.9837486859	 2.2668467603	-0.6992694921	 0.060368
H	 3.2535675556	 1.7324162432	 1.3476578705	 0.095648
H	 1.7250342094	 1.8772677525	 2.2405732417	 0.091859
H	 3.0135364131	-0.6987693097	 1.4046758012	 0.064667
H	 1.0033128527	-1.1155190074	 3.0498610428	 0.088583
H	-1.2009769693	-0.9794288804	 1.7042406701	 0.088583
H	-0.6149585588	-0.4747363563	-0.8103525096	 0.064667
H	 2.0011592293	-0.5082119921	-1.0084603331	 0.056737
216.9212	285.5977	379.0167	504.4432	631.3438	642.812	753.4437	765.1907	767.111	812.3247	820.8546	884.6186	893.3077	911.6249	931.6459	948.6496	974.3474	977.2005	1012.3582	1046.75	1075.6874	1101.6013	1123.6407	1148.8822	1174.0469	1176.7295	1217.6966	1243.7106	1252.9319	1261.2613	1290.0623	1293.8772	1322.9947	1326.2106	1370.5575	1474.8532	1484.6417	1666.0214	3045.4503	3046.1169	3069.9558	3070.5462	3085.8337	3099.6641	3103.2436	3113.4725	3174.3927	3200.0724
C1C2CC3C=CC1C23	C1[C@H]2C[C@H]3C=C[C@@H]1[C@@H]23	
InChI=1S/C8H10/c1-2-6-4-7-3-5(1)8(6)7/h1-2,5-8H,3-4H2	InChI=1S/C8H10/c1-2-6-4-7-3-5(1)8(6)7/h1-2,5-8H,3-4H2/t5-,6+,7-,8+
