17
gdb 85371	2.36321	1.71186	1.22686	4.696	77.99	-0.2478	-0.071	0.1767	1047.8389	0.136821	-421.866478	-421.858543	-421.857599	-421.899015	30.226	
C	-0.3558792478	 1.5613818232	 0.0833461817	-0.412213
C	 0.0061069442	 0.07271167	 0.0069504546	 0.063177
O	 0.6064823065	-0.2726515618	-1.2575129082	-0.24658
C	 1.7579618674	 0.2672410663	-1.7359628938	 0.393295
O	 1.9439322215	 0.2535820499	-2.9283099943	-0.327585
C	 2.8042244533	 0.7755366789	-0.8194626856	-0.208157
C	 2.9813477022	 0.5184097272	 0.4886543901	-0.071441
C	 2.098289245	-0.1966921527	 1.3940674591	-0.07443
C	 0.7906003163	-0.4073207194	 1.2000390342	-0.081033
H	 0.5328993902	 2.1891164441	 0.1759115286	 0.137963
H	-0.9075100206	 1.8536637145	-0.8144065242	 0.138481
H	-0.9921850336	 1.7392532872	 0.9553546709	 0.125763
H	-0.9259648471	-0.4981815048	-0.0312636372	 0.109341
H	 3.5775935952	 1.3080914694	-1.3622043237	 0.125301
H	 3.9084283781	 0.8748876794	 0.9329411147	 0.113117
H	 2.5508991595	-0.5513109688	 2.3161751104	 0.105341
H	 0.2229896497	-0.9360728226	 1.9608168528	 0.109662
76.2569	140.0731	221.5932	252.609	320.2239	345.3294	415.4962	434.7601	507.0417	541.6827	696.7644	703.4886	771.4967	785.8818	835.8586	863.4414	899.2956	945.6114	987.6048	1008.8296	1028.3801	1050.4225	1108.8932	1152.7133	1197.64	1251.723	1277.1371	1353.9347	1397.8826	1411.7847	1421.807	1450.5562	1489.6014	1497.9337	1659.6792	1706.7419	1791.282	3048.5995	3067.2988	3120.5625	3138.7834	3145.9639	3159.2039	3178.7653	3196.91
CC1OC(=O)C=CC=C1	C[C@H]1OC(=O)C=CC=C1	
InChI=1S/C7H8O2/c1-6-4-2-3-5-7(8)9-6/h2-6H,1H3	InChI=1S/C7H8O2/c1-6-4-2-3-5-7(8)9-6/h2-6H,1H3/t6-/m1/s1
