17
gdb 71169	2.69245	1.87638	1.48239	1.7936	71.55	-0.2363	0.0375	0.2738	923.7029	0.136586	-417.896967	-417.889734	-417.88879	-417.928193	29.302	
O	 0.0037554312	 1.44484579	-0.0191635076	-0.466811
C	 0.057623625	 0.0708825716	 0.0632989696	 0.260421
C	-1.2194687613	-0.7540801805	-0.0883808311	-0.177197
N	-0.5653314915	-1.8642209954	 0.6951107096	-0.152933
C	 0.8848641281	-1.8525671789	 0.27404122	-0.125023
C	 0.3892268266	-0.8982414028	 1.2962592586	-0.144454
C	 1.0665225925	-0.76332494	-0.7529642598	 0.349289
C	 1.3693019714	-0.7359283775	-2.1917805739	-0.3251
N	 2.3760180859	-0.2948816272	-1.1833193114	-0.397973
H	 0.8750528231	 1.8070046533	 0.1809024968	 0.286355
H	-2.0560735625	-0.3700865597	 0.4997795221	 0.115264
H	-1.5471887364	-1.0146748105	-1.1005351204	 0.104357
H	 1.4409064837	-2.772002306	 0.3960674285	 0.107831
H	 0.5636779833	-0.7780901455	 2.3574598998	 0.104916
H	 1.6328848852	-1.6463025353	-2.722751262	 0.125833
H	 0.8862423569	 0.0254851815	-2.7997712423	 0.119321
H	 2.4073040587	 0.724746073	-1.1748642565	 0.215907
164.8271	210.0878	224.5233	288.9176	354.6866	408.8631	454.0484	538.0301	614.9033	669.1729	746.3716	772.5504	808.6779	860.6893	894.2394	909.6966	937.6799	956.0847	974.5055	975.5701	999.9486	1028.6686	1077.1523	1100.7069	1130.8829	1138.6349	1153.6783	1194.7634	1238.5497	1259.892	1276.2519	1297.4885	1329.9881	1390.7367	1439.8747	1509.593	1516.6717	3045.1632	3104.9274	3115.2688	3191.9257	3198.6285	3217.3535	3448.2216	3785.3928
OC12CN3C(C13)C21CN1	O[C@]12CN3[C@H]([C@@H]13)[C@]12CN1	
InChI=1S/C6H8N2O/c9-6-2-8-3(4(6)8)5(6)1-7-5/h3-4,7,9H,1-2H2	InChI=1S/C6H8N2O/c9-6-2-8-3(4(6)8)5(6)1-7-5/h3-4,7,9H,1-2H2/t3-,4+,5+,6-,8?/m1/s1
