18
gdb 109006	4.05407	1.02168	0.98352	2.738	73.9	-0.2179	0.0123	0.2302	1244.9594	0.148682	-439.026111	-439.018047	-439.017103	-439.058954	31.186	
O	-0.0304907417	 1.3646123865	-0.0849642502	-0.411764
C	-0.0487381051	-0.0470806	 0.0240356835	-0.213349
C	-1.4579228613	-0.5182881369	 0.0738343007	 0.343251
C	-2.6183582526	 0.1545102074	 0.0654785062	-0.197206
C	-3.650533545	-0.9675686582	 0.0141619451	-0.10692
N	-3.1141798229	-2.0181882355	 0.9532798976	-0.334082
C	-1.9246288637	-1.9743842671	 0.0329021097	-0.17787
C	-3.0156984386	-1.8791034673	-1.1190609035	 0.217955
O	-3.6869262894	-3.0486475016	-1.4370941202	-0.446734
H	 0.8858558641	 1.6548181394	-0.0617119404	 0.290622
H	 0.4641219389	-0.5263764077	-0.829477534	 0.100793
H	 0.4880561568	-0.3863959362	 0.9283927756	 0.09751
H	-2.7921856052	 1.2181608498	 0.0092018791	 0.11844
H	-4.7156932264	-0.7406069265	 0.0562341616	 0.070814
H	-2.9037605094	-1.6374870901	 1.8775100491	 0.204255
H	-1.2002490568	-2.7883268461	 0.0902197423	 0.066209
H	-2.7188776714	-1.3836879613	-2.0439073433	 0.090853
H	-3.9301095205	-3.4417121983	-0.585863939	 0.287222
67.5744	159.6473	175.0734	240.3572	304.2941	329.3187	402.4799	500.9123	556.0739	597.3123	621.0798	672.0273	776.0171	808.1563	841.5593	896.6962	898.9831	942.6192	944.6431	1025.2873	1038.0874	1071.104	1076.2176	1100.2949	1148.9259	1169.09	1194.6073	1209.9868	1212.3762	1244.7336	1251.7195	1283.5556	1295.6374	1309.362	1318.6317	1440.4766	1465.22	1504.9989	1675.0802	2935.5278	2945.7011	3108.5624	3120.6405	3126.4562	3254.1176	3435.5118	3733.2382	3833.7575
OCC1=CC2NC1C2O	OCC1=C[C@@H]2N[C@H]1[C@H]2O	
InChI=1S/C6H9NO2/c8-2-3-1-4-6(9)5(3)7-4/h1,4-9H,2H2	InChI=1S/C6H9NO2/c8-2-3-1-4-6(9)5(3)7-4/h1,4-9H,2H2/t4-,5+,6-/m0/s1
