14
gdb 18547	4.30313	2.0653	1.56992	2.8759	62.52	-0.249	-0.016	0.233	781.5201	0.10953	-378.742339	-378.736184	-378.73524	-378.772889	23.14	
O	-0.0000929558	-0.0418249091	 0.0711387329	-0.300424
C	-0.0702731764	 1.1445794673	-0.0095936055	 0.402311
C	-1.1844362827	 2.2051916501	-0.0962406826	-0.394819
C	-0.0443606475	 3.2591616526	-0.0546609322	 0.01592
C	 0.2896850682	 4.0677233705	 1.2240630003	-0.193414
N	 1.4913360048	 3.4320049405	 1.8070554649	-0.204766
C	 1.7733467882	 2.4017333452	 1.1195439994	 0.02504
N	 0.9574458759	 2.1507829339	-0.0130665249	-0.139154
H	-1.8022834055	 2.1705379087	-0.995959914	 0.141659
H	-1.8310529011	 2.1929963488	 0.7854126258	 0.145174
H	 0.042630311	 3.8567538581	-0.9639769327	 0.101611
H	 0.5041717535	 5.1150593833	 0.995356481	 0.127766
H	-0.511263058	 4.059397707	 1.9735389212	 0.121431
H	 2.5774099856	 1.7139297231	 1.3565500065	 0.151666
98.4038	157.7985	314.8736	427.344	502.5966	551.0266	637.2881	699.8167	754.6397	845.645	895.2177	907.6592	939.5233	951.5933	1027.3612	1040.4281	1051.2202	1102.3198	1138.3074	1177.1423	1212.1963	1231.7801	1262.7913	1306.2979	1328.3759	1362.4673	1447.1329	1492.6137	1678.4853	1907.4744	3036.9005	3072.8762	3079.9953	3096.8765	3131.1625	3210.6089
O=C1CC2CN=CN12	O=C1C[C@H]2CN=CN12	
InChI=1S/C5H6N2O/c8-5-1-4-2-6-3-7(4)5/h3-4H,1-2H2	InChI=1S/C5H6N2O/c8-5-1-4-2-6-3-7(4)5/h3-4H,1-2H2/t4-/m0/s1
