19
gdb 83721	2.49917	1.66837	1.26182	2.72	73.86	-0.2523	-0.0278	0.2246	1045.7218	0.160443	-423.046025	-423.038146	-423.037202	-423.078801	30.77	
O	 0.4236504235	 0.9740780558	 0.8466348082	-0.439958
C	 0.0293577529	-0.1889066202	 0.1739836711	 0.048205
C	-1.477944373	-0.3617870069	-0.026928562	-0.035848
C	-2.2266785049	 0.8701934536	-0.6066333757	-0.22704
C	-2.5946851962	 0.0507639529	-1.8757932692	-0.221661
C	-1.6729591284	-1.1117191615	-1.4059966027	-0.031609
C	-0.2866334021	-1.1678202966	-2.0818500225	-0.33384
C	 0.5733530207	-0.2235690954	-1.2570746417	 0.351983
O	 1.4857745255	 0.4772375146	-1.6224338495	-0.32646
H	 1.1536561965	 1.339669536	 0.322654557	 0.29084
H	 0.4227452068	-1.0895213491	 0.6834074452	 0.088215
H	-1.9683919605	-0.8216349689	 0.8313045956	 0.074566
H	-3.0680470938	 1.2301317959	-0.0120668925	 0.105353
H	-1.5614048485	 1.7175449637	-0.7890968836	 0.114685
H	-3.6478688115	-0.2380825873	-1.9106298007	 0.105101
H	-2.3359562697	 0.5015063138	-2.8384458681	 0.101732
H	-2.1477603282	-2.0930094317	-1.3702286923	 0.074062
H	 0.1492164427	-2.1727396021	-2.0115016253	 0.131106
H	-0.2834082017	-0.8853676167	-3.1375700213	 0.130569
63.0099	94.9234	213.6872	273.94	349.7424	410.6957	455.9625	488.2617	560.8648	590.6388	674.9249	736.1202	749.8476	784.9238	841.361	875.6806	889.5173	931.4915	970.142	999.9614	1041.7392	1073.8078	1093.294	1144.0639	1161.6299	1171.6105	1194.6995	1224.7093	1246.0672	1250.5223	1258.3442	1275.4907	1295.223	1337.261	1343.1229	1362.2536	1424.1694	1450.0004	1482.4644	1501.6611	1834.7567	2921.0234	3034.3474	3053.8391	3073.1839	3087.0081	3101.9265	3102.1034	3105.6959	3127.0216	3697.4708
OC1C2CCC2CC1=O	O[C@H]1[C@H]2CC[C@H]2CC1=O	
InChI=1S/C7H10O2/c8-6-3-4-1-2-5(4)7(6)9/h4-5,7,9H,1-3H2	InChI=1S/C7H10O2/c8-6-3-4-1-2-5(4)7(6)9/h4-5,7,9H,1-3H2/t4-,5-,7-/m0/s1
