16
gdb 44151	5.11369	0.9504	0.87299	4.438	70.84	-0.2611	0.0008	0.2619	1298.5271	0.123864	-437.838264	-437.830735	-437.829791	-437.870878	28.314	
O	 0.0023088632	 0.1109776466	 0.5017076719	-0.322635
C	 0.0961717381	 1.2591705672	 0.2193215016	 0.46702
O	-0.9339077758	 2.123506148	-0.1604974592	-0.263631
C	 0.0338986076	 3.1699883953	-0.4333972436	 0.057432
C	 0.6856948034	 3.5610777887	 0.8428065575	 0.006916
C	 1.1628898073	 2.3076649641	 0.0714652027	-0.297921
N	 1.6059070214	 4.6520177506	 0.7687443478	-0.086263
C	 1.2410224514	 5.8538461937	 1.5214852879	-0.225262
C	 2.3384918536	 4.9689909271	 1.9960148933	-0.221983
H	-0.0787170044	 3.7539606796	-1.3345234978	 0.13979
H	 0.1206196903	 3.4205953798	 1.7696673532	 0.105073
H	 2.1869657076	 2.1912273019	-0.2476094207	 0.136965
H	 1.4639323456	 6.7956692665	 1.0297266954	 0.128686
H	 0.3078350176	 5.838321578	 2.0808559408	 0.123773
H	 2.1440582469	 4.3571942674	 2.8744107921	 0.124148
H	 3.3765423062	 5.2549339056	 1.8575229772	 0.127891
73.7311	131.2849	156.9616	238.949	348.0624	421.5918	432.1211	537.1841	667.8034	770.643	792.9767	819.6508	873.8083	887.5985	904.354	905.1667	956.1579	984.7289	1027.1085	1040.9466	1061.8294	1084.5756	1107.8112	1123.1204	1125.6124	1152.8987	1177.9174	1208.8941	1235.3213	1280.8486	1325.9461	1414.8329	1491.1277	1517.535	1946.9852	3050.1859	3104.6134	3108.7614	3189.8339	3203.9596	3236.9253	3249.4673
O=C1OC2C(C12)N1CC1	O=C1O[C@H]2[C@@H]([C@@H]12)N1CC1	
InChI=1S/C6H7NO2/c8-6-3-4(5(3)9-6)7-1-2-7/h3-5H,1-2H2	InChI=1S/C6H7NO2/c8-6-3-4(5(3)9-6)7-1-2-7/h3-5H,1-2H2/t3-,4-,5-/m1/s1
