21
gdb 123041	4.50968	0.623	0.5877	2.9006	76.71	-0.2552	0.0745	0.3297	1905.9117	0.180791	-461.323478	-461.313207	-461.312263	-461.360202	36.671	
O	 0.1637718322	 1.1275074531	-0.5508018996	-0.42265
C	-0.0344419052	-0.2112425068	-0.1422754076	-0.057069
C	-1.5089705324	-0.5030465565	 0.0907524136	-0.066278
O	-2.1711127385	-0.2343432112	-1.1302759639	-0.264196
C	-3.5838261779	-0.3343877943	-1.0465331455	-0.069768
C	-4.1755713374	 0.0699487756	-2.3691465805	-0.040482
C	-4.1678153086	-0.9140687517	-3.5239884583	-0.316101
C	-5.4607528063	-0.5464480052	-2.844727248	 0.09424
O	-6.0832285345	-1.4633875103	-1.9897255553	-0.417301
H	-0.4836834982	 1.2780168636	-1.250148172	 0.287551
H	 0.3571391416	-0.9217985596	-0.8880904114	 0.090516
H	 0.5254000907	-0.3569019992	 0.7875134346	 0.105334
H	-1.6575155539	-1.5508626216	 0.400907478	 0.084843
H	-1.9001878706	 0.1485197797	 0.8890750679	 0.093312
H	-3.8836478678	-1.3605400624	-0.7934050746	 0.102954
H	-3.9576517094	 0.3215964791	-0.2431758064	 0.0921
H	-4.0277414697	 1.1157523008	-2.6221198186	 0.092125
H	-3.9740245023	-0.5495855427	-4.5266217158	 0.113361
H	-3.7694706349	-1.9007196107	-3.3111159921	 0.118376
H	-6.1482467263	 0.1049987689	-3.3840640324	 0.089222
H	-6.4466561408	-2.1719702786	-2.5306363621	 0.289913
35.2506	58.671	92.4814	120.9562	168.702	227.5966	273.2177	299.8699	346.6637	390.9487	449.3115	483.9275	514.9631	600.7971	772.597	838.5283	862.4834	899.6949	921.8725	930.2636	992.5678	1043.3081	1059.4499	1072.5332	1087.2337	1134.53	1141.1768	1146.5504	1179.2114	1186.3783	1238.6026	1241.1916	1259.2237	1273.2603	1305.5481	1358.447	1384.5076	1397.4105	1423.7625	1441.1656	1453.5516	1490.6073	1500.0686	1504.925	1528.6515	2960.6312	2972.9983	2974.6257	3003.7662	3029.3377	3077.2457	3098.5689	3133.2638	3152.5165	3222.6256	3789.839	3810.1854
OCCOCC1CC1O	OCCOC[C@H]1C[C@H]1O	
InChI=1S/C6H12O3/c7-1-2-9-4-5-3-6(5)8/h5-8H,1-4H2	InChI=1S/C6H12O3/c7-1-2-9-4-5-3-6(5)8/h5-8H,1-4H2/t5-,6-/m1/s1
