23
gdb 122286	4.40298	0.78212	0.75408	0.9247	88.09	-0.2501	0.0899	0.34	1647.4942	0.205658	-388.237468	-388.228161	-388.227217	-388.272595	34.743	
C	-0.0889516179	 1.4885085431	 0.0099370699	-0.384919
C	-0.0538897016	-0.0304685698	 0.0028019928	-0.014909
O	-1.3811978271	-0.5125667373	 0.0124967557	-0.249787
C	-1.4648392289	-1.9217314205	 0.006698941	-0.216185
C	-2.9129034246	-2.3195927205	 0.0175286095	 0.362684
C	-3.9990677352	-1.9731784195	-1.0467821789	-0.240896
C	-4.7235424721	-2.8287735269	 0.0310427419	-0.044822
C	-3.4836265537	-3.7696621945	 0.0165614475	-0.264468
C	-3.980558353	-1.981888586	 1.1031451798	-0.240876
H	 0.9272670874	 1.8940759258	 0.0026996006	 0.113065
H	-0.6194967602	 1.8636375258	-0.8698118425	 0.126008
H	-0.6037002717	 1.855682417	 0.9023352787	 0.126011
H	 0.479555401	-0.4010734265	-0.8896289617	 0.083129
H	 0.4953954332	-0.4090363613	 0.8821871413	 0.083129
H	-0.9653549115	-2.3360889429	-0.8873163137	 0.0824
H	-0.949785539	-2.344353525	 0.8879204772	 0.0824
H	-4.2874102581	-0.921910015	-1.120145172	 0.09567
H	-3.8765967004	-2.4275364891	-2.0346850765	 0.082846
H	-5.7722746664	-3.1267548415	 0.0388573865	 0.068979
H	-3.3230942955	-4.3588151415	-0.8914130562	 0.086007
H	-3.307525621	-4.3661252212	 0.9168447547	 0.086008
H	-3.8411500873	-2.4442343315	 2.0850779695	 0.082849
H	-4.2675064862	-0.9312671712	 1.1899683251	 0.095677
50.1188	72.7036	97.0176	131.6135	244.4073	257.4812	314.4963	337.1213	470.1368	543.5433	551.6805	700.9322	776.2957	802.7977	819.3446	887.4973	899.2884	911.881	958.0179	963.3551	982.0258	995.5113	1022.5336	1040.9434	1098.721	1105.137	1136.3608	1140.1508	1145.3101	1160.9214	1170.5296	1176.409	1195.475	1228.9975	1231.2014	1240.7613	1283.5799	1295.085	1325.7	1385.3937	1404.389	1452.2483	1482.7565	1498.1784	1498.5606	1499.1606	1506.8104	1533.5386	1557.2389	2935.2558	2951.7789	2962.8631	2972.1149	3039.5705	3044.2631	3045.8822	3052.0035	3104.0763	3108.4283	3115.0881	3118.4525	3119.0225	3121.199
CCOCC12CC(C1)C2	CCOC[C@@]12C[C@@H](C1)C2	
InChI=1S/C8H14O/c1-2-9-6-8-3-7(4-8)5-8/h7H,2-6H2,1H3	InChI=1S/C8H14O/c1-2-9-6-8-3-7(4-8)5-8/h7H,2-6H2,1H3/t7-,8-
