12
gdb 20326	6.10277	1.31629	1.13638	3.3504	60.33	-0.284	-0.0486	0.2354	971.0946	0.083062	-377.44527	-377.438374	-377.43743	-377.477459	24.454	
C	-0.2245246462	-0.9917175757	-0.7345880806	-0.435766
C	-0.0601336217	 0.0371696435	-0.1376782624	 0.29217
C	 0.1454964063	 1.2982201251	 0.5677941617	-0.456639
C	 1.460963729	 1.946891573	 0.2335668789	 0.340806
N	 2.1857731047	 2.5500769306	 1.1367323578	-0.144511
O	 3.2778409802	 3.0383465024	 0.4768528274	-0.146438
N	 3.2347331438	 2.7293827589	-0.8531092834	-0.058652
C	 2.1290537795	 2.0604398017	-1.0193568401	-0.092762
H	-0.3737963962	-1.9082991674	-1.2501875487	 0.209443
H	-0.6694348173	 1.9915112251	 0.3191621103	 0.162639
H	 0.099890794	 1.148413183	 1.6514740609	 0.170469
H	 1.842172914	 1.6779196398	-1.9860071518	 0.159242
34.8246	110.6342	281.5316	313.5773	327.8744	464.4696	633.2375	648.8553	659.6007	673.4453	749.0591	893.934	895.3	931.4521	946.1776	969.3173	1027.605	1061.8286	1193.9742	1222.2296	1330.1878	1421.4686	1460.6648	1466.0638	1612.9521	2247.458	3022.6725	3078.7753	3277.0753	3503.9459
C#CCC1=NON=C1	C#CCc1nonc1	
InChI=1S/C5H4N2O/c1-2-3-5-4-6-8-7-5/h1,4H,3H2	InChI=1S/C5H4N2O/c1-2-3-5-4-6-8-7-5/h1,4H,3H2
