17
gdb 86654	2.39412	1.44675	1.01913	0.8873	72.24	-0.2562	-0.0237	0.2326	1162.3961	0.137172	-455.193811	-455.185423	-455.184479	-455.227106	31.022	
O	 0.1734063733	 1.5545903163	-0.3917415877	-0.427629
C	-0.0458748981	 0.1783672773	-0.1348173008	 0.104592
C	-1.512708353	-0.2381911931	-0.3800790425	-0.188919
N	-1.4991873272	-0.6982505126	-1.7675444958	-0.091055
C	-2.6440730115	-0.9014497088	-2.5154733912	 0.077205
N	-3.793153332	-0.6661080395	-2.0235378713	-0.462405
C	-0.2225164503	-1.0095001262	-2.2388731002	 0.403363
O	 0.0256741207	-1.4267960539	-3.3453132632	-0.366508
C	 0.7435393369	-0.7306378436	-1.0926181081	-0.366647
H	-0.0881485094	 1.7444279505	-1.3001210187	 0.28726
H	 0.2368315751	 0.0350452199	 0.9093372543	 0.104119
H	-1.8363952797	-1.0446185075	 0.2887074321	 0.124068
H	-2.2006119888	 0.5999038292	-0.2563432394	 0.148031
H	-2.410419066	-1.2671144153	-3.5183410056	 0.137419
H	-4.5164397583	-0.8641080992	-2.7128542175	 0.233344
H	 1.6694490091	-0.2744411275	-1.4458365003	 0.143825
H	 0.9969998792	-1.6888202462	-0.6236643343	 0.139937
85.6342	108.4343	171.8764	212.3369	275.7763	306.9626	368.0427	381.5757	452.4159	569.9506	604.1387	650.5698	728.9046	819.7255	839.9889	868.6438	889.413	957.1816	1038.23	1044.1484	1082.3097	1094.9686	1155.7782	1170.1836	1210.437	1251.9776	1266.6684	1310.0029	1326.9784	1373.3121	1377.8601	1419.1633	1434.9427	1451.0146	1513.6566	1713.2136	1826.4139	3039.1975	3052.5385	3105.9911	3110.4701	3120.8171	3130.8218	3503.2842	3795.5052
OC1CN(C=N)C(=O)C1	O[C@H]1CN([CH][NH])C(=O)C1	
InChI=1S/C5H8N2O2/c6-3-7-2-4(8)1-5(7)9/h3-4,6,8H,1-2H2	InChI=1S/C5H8N2O2/c6-3-7-2-4(8)1-5(7)9/h3-4,6,8H,1-2H2/t4-/m1/s1
