20
gdb 120399	3.06239	0.91058	0.79577	1.4563	77.28	-0.2686	0.0141	0.2828	1516.3024	0.169498	-440.287758	-440.277802	-440.276858	-440.323488	35.387	
C	-0.042748744	 1.4321276916	 0.3671084097	-0.381633
C	-0.0715171946	-0.0716896489	 0.0838129963	-0.174977
C	-1.4944456387	-0.6134176994	-0.0975251839	-0.173081
C	-1.5286666641	-2.1021076901	-0.3611338618	 0.083265
O	-1.0235416098	-2.8881441113	 0.7924343196	-0.265527
C	-2.2574681065	-3.4458748744	 1.0045794544	 0.394506
N	-2.7142541983	-4.1528122536	 1.9349429376	-0.554447
C	-2.8927128569	-2.8335293637	-0.2271758842	-0.012111
O	-4.0263239996	-2.0330568273	-0.0180299031	-0.426419
H	 0.9825952002	 1.7919464888	 0.4957592019	 0.114483
H	-0.4953629643	 2.0003490491	-0.4532179207	 0.114965
H	-0.597681373	 1.672952338	 1.2804403807	 0.117562
H	 0.5178014627	-0.2885419217	-0.81708404	 0.094516
H	 0.4119198246	-0.6148399404	 0.9039485463	 0.115828
H	-2.1052180032	-0.393859882	 0.7848355731	 0.10895
H	-1.9877349894	-0.1138203006	-0.9417295517	 0.110975
H	-0.9518304685	-2.374969889	-1.2498642515	 0.092449
H	-2.0147665502	-4.335330537	 2.6563769048	 0.231789
H	-3.0630670044	-3.5626063419	-1.0301119168	 0.104352
H	-4.4938060318	-2.3981755563	 0.7422171995	 0.304554
56.9015	88.4258	105.4724	119.3451	157.8356	236.3523	246.2897	273.7054	323.0373	416.1725	489.5759	553.2227	672.7326	737.2179	777.6019	830.3876	860.4399	879.2386	908.6472	915.3602	949.633	1033.7717	1048.6267	1073.0194	1114.618	1145.0054	1173.7532	1209.5874	1235.6904	1261.4937	1279.9913	1323.3608	1341.7839	1368.0259	1380.4934	1387.7095	1410.6402	1416.7884	1472.1898	1493.511	1500.0343	1510.2394	1823.1057	3019.8654	3021.0301	3029.5318	3032.701	3059.1182	3067.7444	3085.9859	3100.0747	3104.8534	3478.2809	3800.9331
CCCC1OC(=N)C1O	CCC[C@H]1O[C]([NH])[C@H]1O	
InChI=1S/C6H11NO2/c1-2-3-4-5(8)6(7)9-4/h4-5,7-8H,2-3H2,1H3	InChI=1S/C6H11NO2/c1-2-3-4-5(8)6(7)9-4/h4-5,7-8H,2-3H2,1H3/t4-,5+/m1/s1
