15
gdb 26871	3.08247	1.46529	0.99985	5.1589	76.84	-0.2104	-0.0591	0.1514	1120.6613	0.112112	-454.003797	-453.995536	-453.994592	-454.036547	30.853	
C	 0.0261659701	 1.5503378646	 0.0256553193	-0.507647
C	 0.0094287844	 0.0462398156	 0.0099844757	 0.19794
C	-1.1659236548	-0.6707057043	 0.0490619777	 0.391675
N	-2.4181180719	-0.1407628322	 0.1419566937	-0.557951
O	-1.1712731045	-2.0065290941	 0.0399971331	-0.23977
C	 0.0352709396	-2.7634143533	 0.0022698117	 0.377659
O	-0.063971824	-3.95788687	 0.0032352805	-0.332408
C	 1.2149206304	-1.9279374972	-0.0382975472	-0.166303
N	 1.1880300026	-0.626213401	-0.0359915287	-0.244206
H	 1.0634314481	 1.8877979905	-0.0018503107	 0.152962
H	-0.4896609643	 1.9861502792	-0.8412653283	 0.11858
H	-0.4426459708	 1.9625972081	 0.9282059684	 0.128942
H	-2.5383728894	 0.8219208881	-0.1263086888	 0.274399
H	-3.184113768	-0.7609989205	-0.0709343853	 0.275534
H	 2.1702761424	-2.4411833636	-0.0751645212	 0.130593
103.5314	114.4984	191.5796	279.4032	293.563	345.4375	391.6503	422.6042	465.3076	475.0529	522.9394	578.0113	707.9709	718.247	769.6762	781.2454	860.6258	875.5935	980.5863	1049.4282	1061.6897	1126.6804	1237.0498	1286.8062	1395.7327	1410.1093	1448.0687	1487.3999	1493.0708	1519.1206	1624.1437	1655.001	1852.2146	3005.5631	3052.3012	3138.3192	3183.414	3593.4131	3714.5775
CC1=C(N)OC(=O)C=N1	Cc1c(N)oc(=O)cn1	
InChI=1S/C5H6N2O2/c1-3-5(6)9-4(8)2-7-3/h2H,6H2,1H3	InChI=1S/C5H6N2O2/c1-3-5(6)9-4(8)2-7-3/h2H,6H2,1H3
