21
gdb 102626	2.77982	0.94123	0.79497	6.83	75.29	-0.2424	0.0361	0.2786	1484.022	0.183133	-457.567138	-457.556927	-457.555983	-457.602893	36.725	
C	-0.662148123	-0.4820160444	-0.5358910637	-0.335888
N	 0.5459093548	 0.0739320702	 0.0855912465	-0.295179
H	 1.9945091773	-0.7178485881	-0.4585231548	 0.312874
H	 0.4617619968	 1.0849870393	 0.0815373195	 0.240213
C	 0.8228512035	-0.3374524384	 1.4812680885	 0.011709
C	-0.3391625947	-0.0842431303	 2.455080484	-0.167878
N	-0.7577291798	 1.3191279583	 2.3759371242	-0.521574
C	 1.31599362	-1.7924031521	 1.5326181474	-0.346011
C	 2.5910406138	-2.0866387092	 0.7276652553	 0.395975
O	 2.7510045793	-1.3659324624	-0.3877435733	-0.37587
O	 3.380870878	-2.9285109544	 1.0687741376	-0.338423
H	-1.5893598406	-0.2093886516	-0.016014543	 0.123882
H	-0.7242667078	-0.110683905	-1.5621669843	 0.133285
H	-0.5950786012	-1.5720547323	-0.5855006658	 0.135641
H	 1.6571059841	 0.3043244798	 1.7990343814	 0.092906
H	-1.1950122724	-0.7110848955	 2.180868317	 0.109934
H	-0.0266208646	-0.4066186774	 3.4613145915	 0.094748
H	-1.6429254062	 1.4505614894	 2.8539898302	 0.236379
H	-0.0867855569	 1.9093294019	 2.8598955471	 0.231639
H	 1.5200760571	-2.0868335569	 2.5642864419	 0.133386
H	 0.5337695425	-2.4719261209	 1.1698279129	 0.128251
60.0901	81.0865	106.7835	151.6456	174.7073	234.4518	247.3953	286.9656	329.3398	351.8464	403.6517	509.257	556.3483	619.0067	685.3523	778.8429	835.3163	864.2914	878.3804	934.5798	986.7208	1013.079	1022.4473	1052.2697	1086.8548	1125.0595	1159.1982	1176.7281	1191.276	1245.7255	1287.8105	1292.4304	1329.9655	1370.7213	1401.3058	1417.1585	1449.8469	1468.4992	1491.7029	1494.6245	1509.8283	1521.4648	1531.2655	1660.555	1855.3393	2972.5974	3004.3914	3018.6279	3038.5171	3066.0751	3094.1163	3113.407	3120.2777	3124.8927	3494.4747	3533.8327	3573.7125
C[NH2+]C(CN)CC([O-])=O	CN[C@@H](CN)CC(=O)O	
InChI=1S/C5H12N2O2/c1-7-4(3-6)2-5(8)9/h4,7H,2-3,6H2,1H3,(H,8,9)	InChI=1S/C5H12N2O2/c1-7-4(3-6)2-5(8)9/h4,7H,2-3,6H2,1H3,(H,8,9)/t4-/m1/s1
