18
gdb 37383	2.90686	2.0567	1.85858	1.0824	72.41	-0.223	0.072	0.295	834.245	0.152671	-401.918949	-401.913135	-401.912191	-401.948696	25.862	
C	-0.0081344695	 1.5828210137	 0.0363148919	-0.236471
C	 1.4814007627	 1.8960961291	 0.0086724108	-0.11531
C	 2.1398113844	 0.6524635115	 0.5307994202	 0.094289
O	 1.157934147	-0.3251276353	 0.7872013238	-0.265035
C	 0.0297581449	 0.0461084157	-0.0388646459	 0.047929
C	 0.3638407772	-0.4289863173	-1.4504880437	-0.0411
N	 0.3751616599	 0.5834430527	-2.5268041034	-0.345146
C	 1.6516136285	 0.1356408445	-1.9235510304	-0.027844
C	 2.3238655118	 1.0364910364	-0.9322277816	-0.087165
H	-0.4375669722	 1.9079889157	 0.9894652831	 0.09676
H	-0.569841313	 2.0158567385	-0.7901373816	 0.132521
H	 1.8318436691	 2.8882254134	 0.2655038283	 0.08719
H	 2.9615114768	 0.6138003806	 1.2342309259	 0.098851
H	-0.8483033163	-0.4487664478	 0.3788343039	 0.076854
H	 0.1038341053	-1.453590083	-1.6979473962	 0.085886
H	 0.2466824005	 0.1170725678	-3.4211383206	 0.230218
H	 2.3057340423	-0.4872625751	-2.5279855894	 0.084547
H	 3.2890709506	 1.4465272088	-1.210192365	 0.083024
282.5811	317.6782	406.6944	491.2283	528.0744	593.9782	653.2866	704.0114	764.982	774.2488	802.522	847.7292	866.5445	894.6404	902.705	935.9764	960.8123	968.9183	987.3201	1022.5896	1046.4743	1067.0259	1085.4359	1092.4059	1113.8613	1142.1135	1149.0445	1182.309	1201.4319	1253.0425	1266.0942	1298.4744	1318.9731	1348.1006	1365.2413	1394.208	1411.9793	1447.3045	1481.3765	3055.7745	3101.0509	3135.697	3145.355	3155.4055	3162.0903	3183.9439	3200.2112	3504.0075
C1C2C3OC1C1NC1C23	C1[C@H]2[C@H]3O[C@@H]1[C@H]1N[C@H]1[C@@H]23	
InChI=1S/C7H9NO/c1-2-4-6-5(8-6)3(1)9-7(2)4/h2-8H,1H2	InChI=1S/C7H9NO/c1-2-4-6-5(8-6)3(1)9-7(2)4/h2-8H,1H2/t2-,3+,4-,5-,6+,7-/m1/s1
