20
gdb 117382	2.82262	0.86731	0.6934	3.1661	77.07	-0.2441	-0.0177	0.2264	1636.3831	0.168618	-440.250478	-440.240299	-440.239355	-440.287777	35.006	
C	 1.0534618361	 0.8971115783	 0.0666267301	-0.227352
O	 0.1333649925	-0.1310325432	-0.21886906	-0.208831
C	 0.6964289268	-1.1690500584	-0.9594599443	-0.164473
C	-0.3346345053	-2.2689576025	-1.1997268642	 0.351102
O	-1.4487668536	-2.2180616243	-0.7452482192	-0.274519
C	 0.1328029758	-3.4464172551	-2.0626865602	-0.325188
C	 1.3379616202	-4.1736319091	-1.4983826607	 0.01787
C	 2.2367355517	-4.9568741308	-2.3790279947	-0.244675
N	 2.7117557163	-3.7045427793	-1.7590494794	-0.312954
H	 1.9098437418	 0.5288166092	 0.6531452258	 0.108619
H	 1.4427682321	 1.3652975766	-0.8516459618	 0.103515
H	 0.5220788714	 1.6520910762	 0.6501670417	 0.134628
H	 1.0642372761	-0.8186060895	-1.9438432616	 0.093988
H	 1.5714943783	-1.6136251078	-0.4521496715	 0.132654
H	-0.72073518	-4.1257191319	-2.1478553653	 0.132949
H	 0.3708027065	-3.0795998665	-3.071223025	 0.106817
H	 1.204599431	-4.5282557797	-0.4777147553	 0.107867
H	 2.7116395152	-5.8607233321	-2.0090644278	 0.125779
H	 2.0259612869	-4.960861149	-3.4456366147	 0.115024
H	 2.6967184804	-2.9616215409	-2.4547741021	 0.227177
23.6529	70.9045	81.3881	88.4275	154.58	189.3707	239.7169	314.5853	341.2921	381.5228	439.836	537.9847	637.6431	787.2529	820.3381	843.9681	884.3376	937.9945	964.4128	995.3542	1019.627	1054.8328	1109.3138	1127.4238	1165.3853	1173.5503	1184.3209	1199.9849	1241.5914	1247.6062	1263.8858	1271.6986	1303.3104	1308.825	1407.3956	1419.4225	1458.0421	1470.0295	1487.2609	1492.3285	1512.864	1517.6157	1831.1755	2920.0288	2962.7612	2970.9987	3015.0163	3015.9601	3090.828	3109.7652	3120.7372	3124.7746	3195.8288	3486.0834
COCC(=O)CC1CN1	COCC(=O)C[C@H]1CN1	
InChI=1S/C6H11NO2/c1-9-4-6(8)2-5-3-7-5/h5,7H,2-4H2,1H3	InChI=1S/C6H11NO2/c1-9-4-6(8)2-5-3-7-5/h5,7H,2-4H2,1H3/t5-/m0/s1
