19
gdb 62190	4.7495	0.62258	0.56964	1.1477	85.07	-0.2582	0.0343	0.2925	1906.1385	0.154513	-385.811265	-385.800539	-385.799595	-385.84834	37.924	
C	 0.0225733761	 1.5178111778	 0.0846122945	-0.397014
C	 0.0043810309	-0.0158538024	-0.0173891699	-0.036664
O	-1.3177476453	-0.5435265538	 0.0468981449	-0.255139
C	-1.869319387	-0.5977810841	 1.3457665461	-0.052057
C	-3.1906972191	-1.3680902277	 1.2395067404	-0.349975
C	-3.8651013981	-1.4806538769	 2.5254113215	 0.285638
C	-4.3977418798	-1.5580395927	 3.5999223136	-0.447457
C	 0.6032631021	-0.4676335756	-1.2736243434	 0.318044
C	 1.1187860464	-0.8096331067	-2.3029732008	-0.438872
H	 1.0474663548	 1.8888941774	 0.0001172041	 0.130404
H	-0.5752742287	 1.9501751559	-0.7214086772	 0.137011
H	-0.3831605769	 1.8472491685	 1.0449457418	 0.120932
H	 0.5948447263	-0.4331338739	 0.8159991072	 0.097399
H	-1.1872043437	-1.1140829187	 2.0393501724	 0.101873
H	-2.0595696634	 0.4055463749	 1.7533380174	 0.104666
H	-3.8347381005	-0.8569684602	 0.5142739744	 0.142673
H	-2.9840758309	-2.3620275898	 0.8261568692	 0.142697
H	-4.880624501	-1.6350601429	 4.5423173822	 0.196686
H	 1.5693002679	-1.1236979891	-3.2119877485	 0.199157
33.1491	54.1403	84.986	127.3445	157.0811	205.8265	240.7312	304.6289	334.7988	355.7281	411.6557	503.601	542.165	591.1803	623.5053	624.1119	650.2249	671.1866	797.2816	829.9774	914.4071	975.2339	1038.7334	1074.4377	1086.8992	1102.253	1113.2945	1150.6219	1226.1366	1300.5111	1305.5443	1343.737	1357.5023	1399.5749	1429.4831	1477.0414	1489.9824	1491.6169	1525.7668	2242.0562	2244.443	2957.0699	2980.1444	3017.9335	3038.1277	3049.8039	3076.2527	3124.3776	3135.0128	3504.6867	3507.2794
CC(OCCC#C)C#C	C[C@@H](OCCC#C)C#C	
InChI=1S/C8H10O/c1-4-6-7-9-8(3)5-2/h1-2,8H,6-7H2,3H3	InChI=1S/C8H10O/c1-4-6-7-9-8(3)5-2/h1-2,8H,6-7H2,3H3/t8-/m1/s1
