21
gdb 22959	3.41362	0.77388	0.66351	1.0886	84.18	-0.2288	0.0043	0.2332	1732.0722	0.181375	-420.344976	-420.334943	-420.333999	-420.380633	36.33	
C	 0.058246035	 1.5391022642	-0.13319658	-0.381379
C	-0.0381819539	 0.0307744204	 0.1096583213	-0.168587
C	-1.4138983948	-0.5455718281	-0.2401759515	-0.154823
C	-1.5109396526	-2.0411667798	 0.0389357846	-0.0758
N	-1.4855332558	-2.4161549334	 1.4930908618	-0.326307
C	-2.7143896734	-3.2534220865	 1.3552642103	-0.260296
C	-2.870528958	-2.7065854329	-0.0452281262	 0.403622
N	-3.7454221578	-2.7005041237	-0.9562673117	-0.24085
O	-4.8799985441	-3.439841344	-0.5704264511	-0.392166
H	 1.0497283355	 1.9229002744	 0.1270880975	 0.110141
H	-0.1289150158	 1.7846678178	-1.1845737435	 0.113294
H	-0.6780743703	 2.0832668902	 0.4684056516	 0.116678
H	 0.7331234295	-0.4858855552	-0.478099537	 0.087831
H	 0.1755519142	-0.1886546632	 1.1629239234	 0.107688
H	-2.1901002413	-0.0331110465	 0.3404909205	 0.098352
H	-1.6415733986	-0.374737381	-1.3002660939	 0.103208
H	-0.7586285905	-2.5799982156	-0.5585304251	 0.082159
H	-0.6652231286	-2.9475938486	 1.7603632322	 0.220954
H	-2.5554568848	-4.3401606157	 1.3780486612	 0.117566
H	-3.5104702055	-3.0065375333	 2.0660241266	 0.131172
H	-5.4567226485	-3.3405419092	-1.3354469512	 0.307545
72.995	80.6006	89.8524	128.8556	203.8482	231.3757	253.0165	313.428	325.6258	370.4584	471.9983	512.3179	577.4808	706.3514	739.2042	775.8915	846.5321	896.0465	910.1287	946.017	971.925	999.9396	1025.8553	1047.2218	1082.2211	1095.8471	1132.1923	1156.6887	1189.296	1233.189	1260.9243	1281.7103	1321.4972	1330.6325	1364.7378	1375.5475	1395.7886	1409.987	1413.8614	1474.0363	1491.5896	1493.7076	1500.2192	1509.6534	1803.2682	2975.6067	3011.6161	3012.1629	3025.8439	3030.0795	3049.0568	3064.0408	3074.2621	3097.6108	3100.9976	3541.7208	3817.684
CCCC1NCC1=NO	CCC[C@H]1NCC1=NO	
InChI=1S/C6H12N2O/c1-2-3-5-6(8-9)4-7-5/h5,7,9H,2-4H2,1H3	InChI=1S/C6H12N2O/c1-2-3-5-6(8-9)4-7-5/h5,7,9H,2-4H2,1H3/t5-/m1/s1
