16
gdb 44656	2.78015	1.84098	1.83725	3.067	73.18	-0.2461	-0.0226	0.2235	856.7733	0.127371	-400.759163	-400.752874	-400.751929	-400.789474	26.68	
N	-0.088694351	 1.2675743868	 0.0107364689	-0.553066
C	-0.0248115262	 0.0037879867	 0.0035999342	 0.444296
O	 1.1256074268	-0.716279492	-0.0071148606	-0.261466
C	 0.8739898349	-2.17182123	-0.0134630233	 0.005715
C	 0.047943624	-2.4685625568	 1.2270198715	-0.075777
C	-1.0828699768	-1.7689078769	 1.2456807828	-0.077902
C	-1.2675503229	-0.8965619589	 0.0060665327	-0.19475
C	-1.0975859569	-1.7554843773	-1.2449743542	-0.077899
C	 0.0333103583	-2.455249138	-1.2472096436	-0.075776
H	 0.8522526915	 1.6674328049	 0.0073158947	 0.219173
H	 1.8600607655	-2.6303313661	-0.0217617967	 0.090194
H	 0.4023759448	-3.1375904799	 1.9999278616	 0.112517
H	-1.8018324524	-1.7435712407	 2.0541842156	 0.116813
H	-2.1669973549	-0.2879960778	 0.0146606411	 0.098599
H	-1.8260485628	-1.7214827948	-2.044607155	 0.116813
H	 0.378529338	-3.1158992492	-2.0314119997	 0.112517
140.792	377.2958	403.3848	425.802	457.5431	473.009	616.708	620.4454	693.9758	695.497	713.7312	762.1635	832.7742	861.0731	889.2079	923.8705	932.646	939.7228	955.6152	959.0176	1012.0418	1035.7304	1053.784	1108.4577	1155.965	1227.8304	1269.8214	1273.3235	1299.8516	1328.4587	1362.5913	1370.3144	1649.5037	1688.6502	1755.9263	3147.2147	3163.3477	3205.9359	3207.5755	3228.7848	3231.3755	3458.5399
N=C1OC2C=CC1C=C2	[NH][C]1O[C@H]2C=C[C@@H]1C=C2	
InChI=1S/C7H7NO/c8-7-5-1-3-6(9-7)4-2-5/h1-6,8H	InChI=1S/C7H7NO/c8-7-5-1-3-6(9-7)4-2-5/h1-6,8H/t5-,6+
