22
gdb 117947	3.19268	0.86347	0.73128	2.1591	80.82	-0.2328	0.0635	0.2963	1645.3152	0.19214	-441.53018	-441.518708	-441.517764	-441.56857	38.514	
C	-0.1070294998	 1.5113216758	 0.0827139655	-0.37861
C	-0.0239999562	-0.016847893	 0.0615819151	-0.17243
C	 0.6940228881	-0.5376908709	-1.1907673414	-0.151619
N	 0.7685147984	-1.993359516	-1.2650437288	-0.145362
C	-0.3657899353	-2.7101834981	-1.8220224325	-0.345423
C	 1.8356089076	-2.6010752893	-0.6704558471	 0.526227
O	 2.7554974924	-2.0148660951	-0.1352818728	-0.435863
O	 1.7629961404	-3.956509015	-0.7499516772	-0.263979
C	 2.8719125616	-4.6414332201	-0.1660042656	-0.231751
H	 0.8915855081	 1.960817756	 0.0553383164	 0.122557
H	-0.665540381	 1.8932845914	-0.7795645359	 0.112117
H	-0.6079632244	 1.869020968	 0.9870250942	 0.115629
H	 0.5208187713	-0.3764182182	 0.941351592	 0.119738
H	-1.0328276305	-0.4450194435	 0.1136215913	 0.093679
H	 0.1806017156	-0.184939928	-2.0939231018	 0.094342
H	 1.7155636502	-0.1520244652	-1.2117329736	 0.136608
H	-0.1126558271	-3.7595649758	-1.9503676739	 0.158974
H	-1.2514857187	-2.6419898239	-1.17620013	 0.122534
H	-0.6265085205	-2.2872166456	-2.799197816	 0.122581
H	 3.8030150304	-4.3880123709	-0.6797914215	 0.136465
H	 2.9766038253	-4.3847450839	 0.8910703803	 0.138103
H	 2.6541768841	-5.7041850986	-0.2800597065	 0.125484
38.637	51.7815	82.5668	96.3331	106.5846	146.2432	164.3575	224.582	242.6294	284.6319	351.9394	388.684	401.6337	584.899	631.5142	748.6692	776.3557	831.3772	881.0125	895.0481	999.6757	1043.6199	1089.0799	1119.5679	1121.2126	1157.6047	1183.3748	1209.9205	1218.397	1253.9903	1307.418	1333.8565	1345.5226	1408.2281	1415.5476	1428.76	1458.2816	1471.8019	1480.5002	1489.835	1491.1631	1497.2889	1499.6759	1505.7631	1507.9706	1532.2276	1787.9878	3010.7265	3027.6262	3028.9095	3032.723	3049.1247	3061.7741	3070.0568	3096.3323	3106.3289	3115.0377	3122.8486	3149.7472	3180.9067
CCCN(C)C(=O)OC	CCCN(C)C(=O)OC	
InChI=1S/C6H13NO2/c1-4-5-7(2)6(8)9-3/h4-5H2,1-3H3	InChI=1S/C6H13NO2/c1-4-5-7(2)6(8)9-3/h4-5H2,1-3H3
