19
gdb 126391	3.35842	1.11244	0.89081	3.2845	79.44	-0.217	0.0335	0.2505	1354.3823	0.160537	-415.430933	-415.421364	-415.42042	-415.465871	34.092	
C	 0.1235700161	 1.4752493573	 0.1469085581	-0.372031
C	-0.1151345749	-0.0115762657	-0.1586250983	-0.280146
C	 0.6558962182	-0.4864519484	-1.3484805487	 0.347726
N	 0.0683740881	-0.9472394758	-2.4382554575	-0.323564
N	 1.1347024113	-1.2366051374	-3.2531983739	 0.004797
C	 0.9435914683	-1.7586758879	-4.5847925365	-0.336431
C	 2.2813811891	-0.9543094254	-2.5977511186	 0.384809
N	 3.5364582737	-1.0851729193	-3.1715616443	-0.605142
N	 2.025292055	-0.47437664	-1.3942126949	-0.371318
H	 1.1880450594	 1.6679862899	 0.3051848983	 0.134325
H	-0.2133630864	 2.1041665023	-0.683144865	 0.118198
H	-0.4204220727	 1.7789469204	 1.0465332266	 0.107304
H	 0.1778154871	-0.6092472342	 0.713252914	 0.111045
H	-1.1762920692	-0.2025923384	-0.3419350559	 0.11474
H	 1.7631441344	-1.4218261633	-5.2252382377	 0.145312
H	 0.9036022989	-2.8544789945	-4.5944308656	 0.135592
H	 0.0012290628	-1.3712884908	-4.9738706927	 0.163125
H	 3.6991835095	-1.9699980598	-3.6341283513	 0.254818
H	 4.2570405712	-0.9010272189	-2.4860057562	 0.266841
47.9484	97.8538	122.122	176.1529	199.4619	261.4399	276.0852	282.2638	314.2058	416.0546	516.8187	612.4739	665.4399	679.2434	750.1847	781.4148	803.2931	829.1562	976.1308	1034.1669	1042.2934	1080.8797	1101.3987	1127.9015	1152.5857	1259.0206	1280.6967	1311.2012	1344.4674	1396.7907	1410.6803	1441.1246	1476.4308	1487.2928	1495.1395	1497.8085	1507.1922	1522.4881	1575.2868	1592.6155	1652.9754	3029.0676	3034.3281	3039.8814	3090.8401	3101.6764	3108.7227	3123.9819	3149.8355	3547.6052	3643.4702
CCC1=NN(C)C(N)=N1	CCc1nn(C)c(N)n1	
InChI=1S/C5H10N4/c1-3-4-7-5(6)9(2)8-4/h3H2,1-2H3,(H2,6,7,8)	InChI=1S/C5H10N4/c1-3-4-7-5(6)9(2)8-4/h3H2,1-2H3,(H2,6,7,8)
