12
gdb 23711	6.02901	1.55188	1.23561	4.9987	59.61	-0.2294	-0.0472	0.1822	874.7728	0.085622	-418.861774	-418.855478	-418.854534	-418.892159	23.798	
N	-0.0162028051	 1.4080952715	 0.1509285756	-0.595708
C	 0.0020015779	 0.0204228493	 0.0446097505	 0.247876
C	-1.1676451354	-0.7488476496	 0.0276142275	-0.035585
N	-1.1568819893	-2.0799841761	-0.0110737563	-0.296374
C	 0.0376810117	-2.639942485	-0.0323023469	 0.33841
F	 0.0554344327	-3.9630600863	-0.0691315178	-0.064916
N	 1.2167572748	-2.0477287605	-0.0256195852	-0.296374
C	 1.1918225748	-0.7167840521	 0.0131618803	-0.035582
H	 0.8087460998	 1.8726459795	-0.2007510781	 0.255356
H	-0.8577867966	 1.8499821134	-0.1903907363	 0.255355
H	-2.1451343967	-0.2694867573	 0.0453477975	 0.11377
H	 2.1560700214	-0.2110389766	 0.0190033991	 0.113772
134.5241	254.919	329.2814	391.0384	437.8352	491.7695	513.5191	534.1475	615.5987	664.5436	798.4326	811.1615	899.9025	941.4825	966.9222	1050.1854	1102.1015	1278.3863	1305.2821	1328.6016	1374.3796	1452.0274	1499.6499	1602.6038	1639.2656	1661.9808	3141.5237	3143.5104	3561.7811	3657.5013
NC1=CN=C(F)N=C1	Nc1cnc(F)nc1	
InChI=1S/C4H4FN3/c5-4-7-1-3(6)2-8-4/h1-2H,6H2	InChI=1S/C4H4FN3/c5-4-7-1-3(6)2-8-4/h1-2H,6H2
