23
gdb 65924	3.08249	1.10121	1.09411	1.4131	85.41	-0.2516	0.0679	0.3196	1285.2242	0.206114	-388.272368	-388.263292	-388.262348	-388.306124	35.539	
O	-0.2166731628	 1.6366395097	-0.0218781077	-0.483407
C	 0.0767102225	 0.2538337416	-0.0070293636	 0.381906
C	 1.0915707989	-0.2773922634	-1.0687716876	-0.275417
C	 1.7458495592	-1.1453959833	 0.0397604702	-0.211547
C	 1.0411358343	-0.2647327869	 1.1067332496	-0.275592
C	-1.2531050297	-0.4835676382	-0.0333758318	 0.046588
C	-2.3336282827	-0.1218565039	 1.0276813653	-0.239555
C	-3.4104899669	-0.2526271351	-0.0830755182	-0.212154
C	-2.2847181946	-0.1320255447	-1.1453477101	-0.239566
H	 0.6151111809	 2.1196216256	-0.0068205738	 0.272963
H	 0.6850532541	-0.7774800296	-1.9517694341	 0.10027
H	 1.7590627454	 0.524862177	-1.4016741747	 0.086282
H	 1.3732081667	-2.1726072436	 0.0370645252	 0.10732
H	 2.8367250147	-1.1786333098	 0.0651770139	 0.097946
H	 1.6927710269	 0.5412385065	 1.4616060606	 0.086373
H	 0.5942089551	-0.7548853084	 1.975671599	 0.100295
H	-1.0570613583	-1.5611271195	-0.0237382336	 0.06179
H	-2.4243371863	-0.7693922177	 1.9034964673	 0.086278
H	-2.2160729934	 0.9123999014	 1.3583535162	 0.116819
H	-3.8703739247	-1.2454152492	-0.0887571825	 0.095086
H	-4.205668962	 0.4962808589	-0.1045874662	 0.094198
H	-2.152185541	 0.8992442308	-1.4797222657	 0.116875
H	-2.3359707162	-0.7875268685	-2.0184036377	 0.086248
76.2697	107.4734	154.5206	178.2743	270.6237	279.1434	322.2509	344.8842	474.8039	479.3208	599.1955	664.9198	731.5342	781.778	789.668	795.1349	881.8259	892.1002	929.7017	935.9778	943.5118	954.94	979.5224	1002.8827	1034.6992	1035.5012	1087.4824	1096.4938	1123.3438	1195.2517	1202.7543	1203.7261	1215.4503	1243.8285	1247.5195	1257.5744	1260.3616	1270.3908	1274.846	1288.6154	1289.6631	1352.6459	1421.6243	1471.1722	1476.6219	1485.534	1486.9434	1506.2947	1510.5684	3040.3392	3045.2955	3046.2745	3052.4726	3060.1177	3066.124	3068.1954	3095.8757	3098.4708	3099.5903	3119.9626	3121.2704	3128.938	3821.364
OC1(CCC1)C1CCC1	OC1(CCC1)C1CCC1	
InChI=1S/C8H14O/c9-8(5-2-6-8)7-3-1-4-7/h7,9H,1-6H2	InChI=1S/C8H14O/c9-8(5-2-6-8)7-3-1-4-7/h7,9H,1-6H2
