17
gdb 43968	2.92543	1.72109	1.47925	3.2103	77.2	-0.2337	-0.0106	0.2231	937.7284	0.137422	-384.679975	-384.673078	-384.672133	-384.71111	28.148	
O	-0.0303027761	 0.0685251673	-0.2852282655	-0.320643
C	-0.0142419764	 1.2275855267	 0.0264152364	 0.357785
C	-1.1645984629	 2.2575161294	 0.2468644256	-0.412797
C	-0.1031416141	 3.3428448815	-0.027939147	 0.228685
C	 0.9410921514	 3.3042511991	 1.0327851388	-0.351113
C	 1.0556711217	 2.2733038873	-0.0727558244	 0.118855
C	 1.9322292401	 2.556982812	-1.2822719419	-0.358348
C	 1.2400472967	 3.7726158823	-1.8992455764	-0.056732
C	 0.1380509358	 4.1641781219	-1.2438407422	-0.173069
H	-1.9173416426	 2.1385116438	-0.5363947479	 0.135259
H	-1.6587219361	 2.2958840418	 1.221251007	 0.118733
H	 1.7002802108	 4.0785113468	 1.0019821139	 0.130719
H	 0.672258651	 2.9795389814	 2.033858886	 0.12439
H	 2.9770939074	 2.7699732369	-1.0265809611	 0.118265
H	 1.9464057366	 1.7053502056	-1.9726031195	 0.134625
H	 1.6429272814	 4.2739029149	-2.7741441018	 0.101315
H	-0.4912654849	 4.9968379013	-1.5376304202	 0.104071
95.9422	239.9746	262.0843	386.1348	440.973	470.8963	537.3675	590.1776	615.6404	685.6697	711.8567	755.7311	781.1818	840.9586	880.8155	916.5691	934.7049	952.8805	968.0699	973.5252	1009.7671	1073.175	1093.5824	1112.1381	1135.6011	1181.5493	1202.7673	1249.0684	1266.408	1322.9445	1341.7171	1381.8957	1454.785	1477.8105	1488.0216	1642.291	1856.0188	3033.0295	3061.9803	3064.1949	3120.4697	3121.9799	3175.1772	3201.9249	3211.9422
O=C1CC23CC12CC=C3	O=C1C[C@@]23C[C@@]12CC=C3	
InChI=1S/C8H8O/c9-6-4-7-2-1-3-8(6,7)5-7/h1-2H,3-5H2	InChI=1S/C8H8O/c9-6-4-7-2-1-3-8(6,7)5-7/h1-2H,3-5H2/t7-,8-/m0/s1
