16
gdb 27994	2.59601	1.40333	0.91697	1.9056	77.25	-0.1997	-0.0393	0.1604	1215.6571	0.125083	-434.132008	-434.123489	-434.122545	-434.165047	31.413	
C	-0.0327451633	 1.4593609099	-0.0050998926	-0.504926
C	 0.009745458	-0.0325019566	-0.0214496074	 0.367127
N	 0.0192524137	-0.7637520322	-1.1016215935	-0.343495
C	 0.0604926704	-2.0884238911	-0.6791001777	 0.293919
N	 0.1432616883	-3.089871857	-1.6328729636	-0.593414
C	 0.073342352	-2.1619422647	 0.6826157729	-0.205713
N	 0.0425544429	-0.8284122676	 1.1170948989	-0.083761
C	 0.0382438999	-0.4073679266	 2.4387170377	 0.165001
O	 0.0612515216	-1.1564530504	 3.3819789275	-0.294768
H	 0.8471791749	 1.8928317374	 0.4824326015	 0.143788
H	-0.056285074	 1.8029552812	-1.0398845525	 0.160689
H	-0.9212779671	 1.843726645	 0.5073609418	 0.142207
H	-0.225727166	-2.7960478368	-2.5266045585	 0.25548
H	-0.2304456989	-3.9825670374	-1.3453983688	 0.250398
H	 0.1057162365	-2.9700002291	 1.3900035864	 0.145829
H	 0.011040941	 0.691514226	 2.5274830479	 0.101639
123.6724	141.3509	194.8047	211.1743	227.2715	275.7999	296.2071	400.4513	429.7835	550.9689	619.6238	636.8486	652.814	693.3244	703.5578	751.4452	888.9162	997.0151	1019.9701	1031.2877	1060.5596	1095.636	1159.5016	1220.326	1365.2057	1377.9863	1409.2866	1434.7637	1455.1557	1482.8532	1485.2331	1585.1031	1629.4423	1674.8068	1811.9424	2999.4226	3037.5016	3090.0138	3150.0016	3307.742	3561.991	3664.3124
CC1=NC(N)=CN1C=O	Cc1nc(N)cn1C=O	
InChI=1S/C5H7N3O/c1-4-7-5(6)2-8(4)3-9/h2-3H,6H2,1H3	InChI=1S/C5H7N3O/c1-4-7-5(6)2-8(4)3-9/h2-3H,6H2,1H3
