19
gdb 93967	2.83775	1.1942	0.87747	3.9878	81.76	-0.2437	-0.0534	0.1903	1303.9009	0.15804	-423.059565	-423.050185	-423.049241	-423.093754	34.13	
C	 0.0070960205	 1.5324618206	 0.0547026257	-0.520287
C	 0.0317826844	 0.0430393602	-0.0435298828	 0.217779
C	-0.0070421879	-0.7562642013	-1.1280138511	 0.133016
C	 0.034093289	-2.2237761137	-0.7549632012	-0.313438
C	 0.4775522146	-2.1912803608	 0.7227339517	-0.234499
C	 0.0807725107	-0.7945885033	 1.2291429152	 0.038892
O	 1.024813817	-0.3360738114	 2.1897772758	-0.425263
C	-0.1048180476	-0.3288690888	-2.5237973143	 0.067962
O	-0.1718400019	-1.0994196692	-3.4592496172	-0.274314
H	 0.8723163223	 1.8746024754	 0.6341576285	 0.145882
H	 0.0202882898	 2.0328627912	-0.9143879039	 0.139036
H	-0.8878959391	 1.8679251945	 0.5966564373	 0.13073
H	-0.9591064309	-2.6756542087	-0.8725388743	 0.115536
H	 0.7062331848	-2.7932455425	-1.4022272368	 0.12495
H	 0.0565166785	-2.9967007262	 1.3281040533	 0.102633
H	 1.5682588484	-2.2550402175	 0.7927177569	 0.12304
H	-0.9276626439	-0.8102100384	 1.6781805964	 0.078784
H	 0.6035829653	 0.3257752574	 2.7454374031	 0.287359
H	-0.1118097041	 0.7686622125	-2.6972873922	 0.062201
84.0659	130.1501	156.62	186.0447	194.7338	216.3797	259.621	300.5026	380.7376	430.7755	493.0804	564.0103	634.2168	654.6813	757.6342	855.9836	881.5244	959.8997	981.6606	1017.4653	1034.9294	1055.9817	1082.5219	1096.9573	1146.3152	1198.1755	1224.1389	1256.6206	1277.2401	1309.4137	1319.4702	1366.9709	1400.1357	1415.1238	1429.7943	1475.3567	1484.3335	1487.5995	1500.5636	1696.8428	1771.6634	2893.8873	2945.8252	3018.2537	3030.9091	3060.0429	3072.7465	3091.2614	3115.229	3137.1912	3836.2052
CC1=C(CCC1O)C=O	CC1=C(CC[C@H]1O)C=O	
InChI=1S/C7H10O2/c1-5-6(4-8)2-3-7(5)9/h4,7,9H,2-3H2,1H3	InChI=1S/C7H10O2/c1-5-6(4-8)2-3-7(5)9/h4,7,9H,2-3H2,1H3/t7-/m1/s1
