21
gdb 73566	2.17517	1.99518	1.4982	1.6042	80.31	-0.2351	0.0872	0.3223	1005.2925	0.184196	-387.066443	-387.058568	-387.057624	-387.098568	31.659	
C	 0.1018520265	 1.5614368009	-0.081339525	-0.477712
C	-0.0071624106	 0.0431198394	-0.0192595484	 0.326823
C	-1.4069430862	-0.4989890617	-0.3722312691	-0.314639
C	-1.7393689286	-1.5206245267	 0.7469546415	-0.078901
O	-0.7892437167	-1.3583613029	 1.8026484684	-0.270213
C	 0.3137122524	-0.5955902255	 1.3648191762	 0.071489
C	 1.5485158654	-1.2976158599	 0.7716393668	-0.068181
C	 1.1964214596	-2.1571082136	-0.4098728384	-0.309791
C	 1.2398456116	-0.670501098	-0.5963738431	-0.096917
H	 1.0904103308	 1.9001968714	 0.2469609977	 0.116028
H	-0.0500652933	 1.9267134349	-1.1037466336	 0.115501
H	-0.6493584463	 2.0359058165	 0.559531176	 0.116002
H	-2.1374037943	 0.3152842098	-0.3737283651	 0.102731
H	-1.4355214463	-0.9659963105	-1.3603868252	 0.106709
H	-2.7376554448	-1.3595855634	 1.1699671111	 0.099301
H	-1.7086798886	-2.552606945	 0.3723130211	 0.09966
H	 0.5783567265	 0.116376739	 2.1531749531	 0.073338
H	 2.5023165119	-1.3948796249	 1.2759834829	 0.081938
H	 2.0382379758	-2.6925652644	-0.8384592104	 0.111853
H	 0.2676780892	-2.7153785367	-0.4510303625	 0.113381
H	 1.927571586	-0.2014330586	-1.290834954	 0.0816
105.5694	130.8959	245.9789	265.4718	272.7594	330.163	439.1567	512.2884	598.3257	626.7109	711.9284	764.7101	786.5686	829.3389	846.5931	914.681	925.7231	947.0523	956.5483	990.9388	998.3361	1012.7565	1025.3273	1040.3142	1061.5826	1080.0558	1108.9234	1169.9609	1174.3251	1198.237	1223.9035	1235.5791	1244.5411	1256.6356	1292.221	1320.7813	1356.5973	1371.0186	1398.0748	1411.4103	1489.2463	1492.4527	1497.2287	1500.5987	1539.6837	3004.0239	3021.2104	3042.968	3052.4612	3057.9823	3086.928	3094.1312	3100.7758	3130.8425	3169.7002	3182.3422	3208.2002
CC12CCOC1C1CC21	C[C@]12CCO[C@H]1[C@H]1C[C@@H]21	
InChI=1S/C8H12O/c1-8-2-3-9-7(8)5-4-6(5)8/h5-7H,2-4H2,1H3	InChI=1S/C8H12O/c1-8-2-3-9-7(8)5-4-6(5)8/h5-7H,2-4H2,1H3/t5-,6+,7-,8+/m0/s1
