16
gdb 29802	3.13801	1.27986	0.91955	5.6382	81.44	-0.2376	-0.0349	0.2027	1233.8586	0.124934	-396.99167	-396.98282	-396.981876	-397.025905	30.843	
C	-0.0604758896	 1.4603374399	 0.0398195173	-0.356822
N	-0.0032551676	 0.0088331518	 0.0001740294	-0.043059
C	-0.0153107212	-0.7810304398	-1.1178386352	-0.185236
C	 0.0551006505	-2.0889549805	-0.6826789831	 0.266562
C	 0.0736997926	-3.3407608226	-1.4980225775	-0.493426
N	 0.1102813172	-2.1169961002	 0.6831621034	-0.344253
C	 0.0739699145	-0.8517172224	 1.0663196039	 0.242274
C	 0.107987121	-0.3858885418	 2.406148498	 0.23731
N	 0.1334538772	 0.0363998484	 3.4845817764	-0.354875
H	 0.7940696938	 1.8909027319	-0.4893359981	 0.153759
H	-0.9852602781	 1.8188209163	-0.4204573295	 0.153754
H	-0.0334167325	 1.7870576394	 1.0799049554	 0.178238
H	-0.0717070421	-0.3534891779	-2.1060639725	 0.138218
H	 0.9869573586	-3.9148159792	-1.3114051482	 0.143176
H	-0.7721078622	-3.9866142898	-1.2412878927	 0.143183
H	 0.0218763378	-3.1153007636	-2.566297927	 0.121198
68.8374	86.2017	141.0038	148.1401	173.4536	266.4007	309.0496	394.7815	509.6956	549.056	581.8299	639.7022	656.3971	720.3889	766.745	802.0891	1006.1737	1022.8929	1063.6918	1083.2687	1151.909	1191.2681	1211.4692	1317.8483	1399.4202	1414.8186	1436.249	1476.194	1478.3879	1483.725	1487.1588	1507.5756	1517.7555	1586.8629	2341.9802	3040.8367	3050.0456	3099.149	3116.0227	3121.7347	3154.6345	3264.9234
CN1C=C(C)N=C1C#N	Cn1cc(C)nc1C#N	
InChI=1S/C6H7N3/c1-5-4-9(2)6(3-7)8-5/h4H,1-2H3	InChI=1S/C6H7N3/c1-5-4-9(2)6(3-7)8-5/h4H,1-2H3
