21
gdb 95977	2.56352	1.40961	1.01454	3.8903	79.36	-0.2263	0.063	0.2893	1223.6516	0.184506	-420.469804	-420.460587	-420.459643	-420.503713	34.895	
C	 0.0968767297	 1.6463336836	-0.0588232979	-0.394021
C	 0.04203451	 0.1177085589	 0.0438219082	 0.059739
C	 0.6726935735	-0.6085543146	-1.1607264808	-0.231633
C	 2.1412855986	-0.8009861632	-0.7467277838	-0.226059
C	 2.042598234	-1.1107288229	 0.7542977174	-0.168654
N	 0.8383919547	-0.397563725	 1.1711550229	-0.092959
C	 0.3884605275	-0.2709008782	 2.45684233	 0.438058
N	 1.2060545004	-0.8424571137	 3.4301748359	-0.571486
O	-0.6301113955	 0.3393435133	 2.7469973992	-0.418701
H	 1.1170084993	 1.9993412629	-0.2451746499	 0.104213
H	-0.5408376324	 1.9927107692	-0.8791856335	 0.107497
H	-0.2627288628	 2.088137006	 0.872097437	 0.152896
H	-1.0008655352	-0.1782324626	 0.191462811	 0.096001
H	 0.194284603	-1.5837010821	-1.3036481018	 0.102737
H	 0.560376523	-0.043071382	-2.0887024852	 0.10471
H	 2.6485067855	-1.5930490284	-1.3021736755	 0.104737
H	 2.7049391593	 0.1247104376	-0.8986209036	 0.115578
H	 1.9433158216	-2.1964319437	 0.9195304324	 0.096373
H	 2.9213187617	-0.7698069638	 1.3127664013	 0.11844
H	 1.7298648806	-1.6705182899	 3.1911444779	 0.246278
H	 0.7362858436	-0.8971928914	 4.321383849	 0.256254
85.4206	106.5706	133.5049	205.8814	224.0896	253.1622	337.347	400.9646	415.3307	433.8556	538.5014	556.7008	611.9363	653.7863	764.8893	778.9117	833.7381	881.4405	912.3599	942.2654	977.665	1015.0399	1041.9072	1074.936	1113.6744	1143.2156	1166.8613	1197.7141	1220.2551	1226.5747	1272.4969	1318.526	1338.936	1354.8701	1376.2302	1391.3522	1403.2138	1442.9013	1483.8207	1490.4008	1500.2317	1510.1965	1532.0171	1623.123	1770.2125	2957.27	3033.424	3044.142	3048.6739	3061.8308	3063.3602	3099.9029	3104.5041	3113.0253	3141.217	3575.1863	3689.0891
CC1CCCN1C(N)=O	C[C@H]1CCCN1C(=O)N	
InChI=1S/C6H12N2O/c1-5-3-2-4-8(5)6(7)9/h5H,2-4H2,1H3,(H2,7,9)	InChI=1S/C6H12N2O/c1-5-3-2-4-8(5)6(7)9/h5H,2-4H2,1H3,(H2,7,9)/t5-/m0/s1
