20
gdb 98304	2.53685	1.24619	0.90132	2.4926	76.54	-0.2382	0.0103	0.2485	1333.7542	0.168707	-440.284061	-440.273952	-440.273008	-440.320273	35.443	
C	-0.8207980286	 0.8649539563	-1.8356574353	-0.241719
O	-0.8859788572	-0.4836561449	-1.3542790803	-0.234395
C	-1.009616793	-0.6131984143	-0.0178424929	 0.470961
O	-1.0255621251	 0.318996531	 0.7433864875	-0.357099
C	-1.1242107862	-2.0887694781	 0.3746070352	-0.079168
C	-0.9496417174	-2.2616101086	 1.8793388405	-0.385516
N	-2.4515208392	-2.5573316272	-0.0372408372	-0.070232
C	-2.5877935301	-3.052404169	-1.4031533501	-0.214345
C	-2.5827462215	-3.9968443733	-0.2537946957	-0.226463
H	-0.7220955625	 0.7899849924	-2.9186113088	 0.131671
H	-1.728759573	 1.412391396	-1.5704534143	 0.143418
H	 0.0395540668	 1.3850656661	-1.4070654839	 0.140955
H	-0.3273415852	-2.6325805784	-0.1647865682	 0.076019
H	-1.039626694	-3.3176714699	 2.148272553	 0.111646
H	 0.0320370378	-1.9027347163	 2.198324398	 0.12231
H	-1.7126673528	-1.692448703	 2.4134093077	 0.144085
H	-3.5165823043	-2.7942483123	-1.903402506	 0.117687
H	-1.7076864551	-3.034196651	-2.0410867951	 0.11968
H	-1.6952343992	-4.614807879	-0.1247820686	 0.110748
H	-3.5043405904	-4.4452854263	 0.1053455844	 0.119759
27.2579	91.7933	112.5323	125.0306	194.0621	207.8943	229.2505	297.3957	313.2776	357.6423	380.7376	525.111	635.5131	738.0282	786.1084	840.9743	863.3949	908.2005	964.202	1010.616	1025.0555	1057.2804	1106.6223	1114.195	1119.5488	1138.1062	1175.8266	1179.0213	1193.7835	1207.4926	1226.0412	1313.3629	1350.7909	1375.0412	1412.2931	1472.1405	1481.2361	1486.8163	1490.0167	1492.9662	1497.5122	1520.6472	1827.2911	2932.929	3052.1756	3054.301	3094.9691	3111.1629	3125.1444	3127.1805	3144.6824	3158.8201	3181.5361	3198.647
COC(=O)C(C)N1CC1	COC(=O)[C@@H](C)N1CC1	
InChI=1S/C6H11NO2/c1-5(6(8)9-2)7-3-4-7/h5H,3-4H2,1-2H3	InChI=1S/C6H11NO2/c1-5(6(8)9-2)7-3-4-7/h5H,3-4H2,1-2H3/t5-/m1/s1
