23
gdb 113374	2.29803	1.09862	0.91482	0.9495	83.3	-0.2381	0.0903	0.3283	1444.3046	0.202324	-425.39202	-425.381042	-425.380098	-425.428195	39.346	
C	-0.2392200565	 1.2804917256	-1.041005291	-0.378848
C	-0.0488425037	 0.1606851828	-0.0125824346	-0.247502
C	-1.355457955	-0.5140869611	 0.3595502992	 0.38727
C	-1.9289391569	-1.5763794338	-0.5463168884	-0.375474
C	-1.3753478479	-1.9452936182	 0.8190702525	 0.05439
O	-0.1653996953	-2.6243274674	 0.9201687792	-0.24092
C	-0.291197956	-4.0146403226	 0.6939998547	-0.230446
O	-2.3395729173	 0.317419393	 0.9197992519	-0.286416
C	-2.0494693019	 0.7744637859	 2.2277105748	-0.252045
H	 0.7107010213	 1.7758228381	-1.263571062	 0.106545
H	-0.6438172029	 0.8874287048	-1.9796012893	 0.115325
H	-0.9404382545	 2.0340088446	-0.6713065484	 0.125812
H	 0.6359577279	-0.6038273917	-0.3893856287	 0.11247
H	 0.4250022528	 0.561538392	 0.8923688179	 0.096582
H	-3.0042055175	-1.5927521368	-0.6815935667	 0.119753
H	-1.3407816588	-1.8530684983	-1.4149005501	 0.115261
H	-2.1090162002	-2.2009940398	 1.5856119497	 0.089654
H	-0.950764634	-4.4866558016	 1.437770371	 0.106615
H	-0.6918843245	-4.2280769509	-0.3071470005	 0.110326
H	 0.708210898	-4.4470817451	 0.7820155119	 0.12646
H	-1.8247626911	-0.0588854622	 2.9083462503	 0.109131
H	-1.2044269641	 1.4759385045	 2.2480708792	 0.111455
H	-2.941609102	 1.295030068	 2.5843059273	 0.124604
74.847	84.4869	123.9601	138.477	163.4005	193.3126	207.2422	220.9687	262.384	313.1516	341.1464	407.9153	474.8042	490.1844	619.1113	695.1093	785.0764	833.9703	886.6802	960.9355	980.8205	996.7519	1017.9783	1048.0637	1066.4992	1103.6239	1110.2008	1120.883	1176.9423	1180.7336	1184.3408	1211.4527	1234.5823	1252.578	1288.2944	1323.4611	1374.4554	1398.4035	1407.3174	1462.5426	1475.2918	1480.2816	1485.9256	1490.8553	1495.6134	1499.2631	1507.2009	1509.6929	1512.9596	2984.7493	2994.561	3032.5068	3036.5849	3038.8075	3048.5002	3087.496	3089.9893	3106.0134	3114.8096	3117.949	3118.1419	3135.4205	3230.3037
CCC1(CC1OC)OC	CC[C@]1(C[C@H]1OC)OC	
InChI=1S/C7H14O2/c1-4-7(9-3)5-6(7)8-2/h6H,4-5H2,1-3H3	InChI=1S/C7H14O2/c1-4-7(9-3)5-6(7)8-2/h6H,4-5H2,1-3H3/t6-,7-/m1/s1
