20
gdb 85962	2.544	1.46807	1.10257	11.2386	75.9	-0.1808	-0.001	0.1798	1154.2874	0.171269	-440.257846	-440.248627	-440.247683	-440.292419	34.336	
C	 0.8324057389	 1.4451734122	 0.1970118375	-0.376288
N	 0.0948144149	 0.1599090394	 0.0303912415	-0.078105
H	-0.8897411459	 0.3526321129	-0.1373744301	 0.282293
C	 0.3003342216	-0.8932515867	 1.1281493178	-0.214512
C	 1.0724876587	-1.8110835987	 0.1460229572	 0.193977
C	 0.5820069795	-3.2399407159	 0.0187111551	-0.464046
C	 0.6726610382	-0.8324873323	-0.9881434459	-0.214445
C	 2.638945731	-1.6900807016	 0.423750989	 0.31993
O	 3.2579557342	-2.7499767376	 0.4919743786	-0.439436
O	 3.0180440762	-0.4942914678	 0.5334241	-0.496928
H	 1.8751430218	 1.1574458398	 0.3734870818	 0.250237
H	 0.7150349733	 2.0318979095	-0.7167874642	 0.145362
H	 0.4034701099	 1.9821262342	 1.0459750874	 0.145406
H	 0.8845873593	-0.4757959948	 1.9464885685	 0.170738
H	-0.6740441272	-1.2524554869	 1.4682289139	 0.12404
H	-0.4967280828	-3.3027179668	-0.1801690432	 0.071505
H	 1.1236452394	-3.745763651	-0.7837886252	 0.143267
H	 0.8080411185	-3.7913028283	 0.9343901999	 0.142166
H	-0.1237244939	-1.1629637263	-1.6594533339	 0.124238
H	 1.4960724843	-0.3755922533	-1.5346069057	 0.170602
23.592	162.1386	166.7627	215.269	237.2015	279.4145	296.8629	324.9861	391.9668	410.6985	460.5711	531.3919	694.9181	776.2028	780.4346	814.4623	844.2956	889.7273	896.5968	948.3721	956.7183	1020.5677	1080.7888	1106.3776	1160.2554	1191.771	1224.3385	1248.9629	1286.657	1287.633	1306.8403	1327.1132	1366.31	1404.3346	1412.1396	1433.1883	1460.3064	1474.1706	1477.4406	1485.1733	1490.5048	1533.8269	1781.3713	3009.4542	3018.2921	3071.1368	3075.2283	3106.3598	3126.8926	3133.312	3145.0075	3165.5971	3166.1421	3498.2744
C[NH+]1CC(C)(C1)C([O-])=O	C[NH]1CC(C)(C1)C(=O)[O]	
InChI=1S/C6H11NO2/c1-6(5(8)9)3-7(2)4-6/h3-4H2,1-2H3,(H,8,9)	InChI=1S/C6H11NO2/c1-6(5(8)9)3-7(2)4-6/h7H,3-4H2,1-2H3
