17
gdb 41922	2.29929	2.25961	1.95163	1.0581	66.07	-0.2246	0.0571	0.2817	831.2391	0.138956	-458.921382	-458.914976	-458.914032	-458.951959	26.228	
C	-0.0182371406	 1.540490746	-0.0049629387	-0.064319
O	 1.2754872923	 2.1274157862	-0.0847015476	-0.25606
C	 2.2329591889	 1.398479399	-0.7959737834	 0.021739
C	 2.750093691	 0.1264469611	-0.1151359656	 0.021745
O	 2.2056789327	-0.1605656152	 1.1399475794	-0.256062
C	 0.8538755988	-0.6046229359	 1.1433101383	-0.064317
C	 0.0245113796	 0.0114371932	 0.0150921039	 0.006266
O	 0.5709388427	-0.433089092	-1.2303970909	-0.260102
C	 1.8852410709	 0.0354501289	-1.3533473183	 0.00784
H	-0.478970643	 1.9357433495	 0.9060696001	 0.111814
H	-0.6293144319	 1.8445875304	-0.8672735199	 0.104777
H	 2.9160362524	 2.0473463671	-1.3353541679	 0.101149
H	 3.8027362523	-0.1337602386	-0.167953311	 0.101149
H	 0.8107278291	-1.6975545106	 1.0288467176	 0.104777
H	 0.4463381827	-0.3400597028	 2.1243328656	 0.111817
H	-0.9965450229	-0.3797051976	 0.0598702569	 0.096896
H	 2.3234592652	-0.2884110885	-2.2913073885	 0.11089
149.7993	223.957	340.2487	369.9725	474.1072	482.0242	587.4329	675.2774	714.962	716.0298	770.206	800.0983	884.3386	898.7889	917.3991	956.0218	977.2906	1025.1455	1082.4831	1093.974	1097.9222	1123.2663	1136.5974	1172.93	1194.9032	1254.1426	1255.8678	1287.3463	1310.2933	1328.9096	1356.6567	1375.8582	1406.0496	1415.8561	1444.8531	1492.9004	1501.9808	2998.866	2999.2436	3072.5835	3074.2137	3081.8461	3149.0463	3153.665	3169.4716
C1OC2C3OCC1OC23	C1O[C@H]2[C@H]3OC[C@@H]1O[C@@H]23	
InChI=1S/C6H8O3/c1-3-2-8-5-4(7-1)6(5)9-3/h3-6H,1-2H2	InChI=1S/C6H8O3/c1-3-2-8-5-4(7-1)6(5)9-3/h3-6H,1-2H2/t3-,4+,5-,6+
