18
gdb 126823	2.0033	1.77116	1.05969	1.8124	73.62	-0.2559	-0.0002	0.2556	1149.652	0.149434	-435.293305	-435.284504	-435.28356	-435.327769	31.48	
C	-0.0780949108	 1.5924973148	-0.0201372641	-0.38561
C	-0.0538132304	 0.0638900394	-0.0127613766	-0.140713
N	-1.3907709584	-0.5139107011	-0.0499350973	 0.00303
N	-2.0896981361	-0.6850311575	 1.0982441677	-0.249641
C	-3.2498999113	-1.148130948	 0.660893501	 0.019993
N	-3.3468492487	-1.2776393028	-0.6872578092	-0.316559
C	-2.1574488207	-0.867942635	-1.1093166904	 0.320877
C	-1.7393052563	-0.7578897839	-2.5419879639	-0.188961
O	-1.6010188289	 0.5934591097	-2.9754843616	-0.406895
H	 0.9419497197	 1.9823975332	 0.0459179059	 0.121705
H	-0.5315918611	 1.9522908212	-0.9464926095	 0.141392
H	-0.6499054542	 1.9682572548	 0.8323761087	 0.14017
H	 0.4983022624	-0.3168824118	-0.876199892	 0.127137
H	 0.4238928228	-0.3198467564	 0.8913515346	 0.13863
H	-4.0491285913	-1.404827585	 1.3402085774	 0.12486
H	-0.7590302969	-1.2172611621	-2.7039456881	 0.125716
H	-2.4741281528	-1.3084197099	-3.1406244727	 0.131536
H	-2.4690890971	 1.0061294104	-2.90570803	 0.293334
39.5496	89.7314	137.3096	166.5125	231.3029	291.8446	348.493	390.303	420.4468	479.4216	650.9968	698.4915	711.8112	789.422	802.7195	904.6269	956.7356	976.4098	995.2426	1047.5871	1065.9293	1107.0596	1171.051	1213.4073	1224.2015	1276.9361	1313.1342	1346.9945	1363.9265	1386.7644	1404.4955	1414.5871	1435.2464	1478.8379	1490.362	1495.4653	1505.1742	1511.9847	1555.881	3040.6342	3049.4054	3070.902	3089.1357	3116.9183	3124.9314	3145.8758	3258.4357	3807.3717
CCN1N=CN=C1CO	CCn1ncnc1CO	
InChI=1S/C5H9N3O/c1-2-8-5(3-9)6-4-7-8/h4,9H,2-3H2,1H3	InChI=1S/C5H9N3O/c1-2-8-5(3-9)6-4-7-8/h4,9H,2-3H2,1H3
