12
gdb 25432	2.2056	1.60327	0.9284	3.7172	68.67	-0.2734	-0.0744	0.199	1127.8922	0.078236	-435.53532	-435.527981	-435.527036	-435.567723	25.969	
O	-0.0454663979	-0.0056629176	-0.0004525978	-0.259249
C	-0.0107937419	 1.2029571386	 0.0081813521	 0.060549
C	 1.2388294864	 1.9775970565	-0.0001459116	 0.037283
C	 2.5046061731	 1.4693665628	-0.018470518	-0.040603
O	 3.4197355218	 2.4632237847	-0.0210247789	-0.126285
C	 2.7512978874	 3.639882644	-0.0044191664	-0.083792
C	 1.4054905082	 3.4163682721	 0.0086308595	 0.057172
C	 0.3846021184	 4.3987322015	 0.027422777	 0.212943
N	-0.4609965579	 5.1892344107	 0.0429547971	-0.332495
H	-0.937126977	 1.812915429	 0.02333654	 0.102445
H	 2.8821360976	 0.4610021708	-0.0304296508	 0.189599
H	 3.3484592017	 4.5358641468	-0.0041643122	 0.182433
113.9962	132.6931	173.4577	220.6991	259.1446	439.8612	510.9819	550.8426	618.2206	620.8703	677.137	793.7992	805.9753	838.9955	907.4968	1042.1198	1095.3894	1150.1908	1204.099	1239.8208	1312.1922	1358.7137	1448.7161	1564.3928	1596.6513	1795.6263	2353.7372	2928.198	3290.8608	3296.6525
O=CC1=COC=C1C#N	O=Cc1cocc1C#N	
InChI=1S/C6H3NO2/c7-1-5-3-9-4-6(5)2-8/h2-4H	InChI=1S/C6H3NO2/c7-1-5-3-9-4-6(5)2-8/h2-4H
