15
gdb 72989	2.73386	1.57531	1.22936	4.3862	66.11	-0.2463	0.0011	0.2474	1003.0028	0.111712	-453.890052	-453.881809	-453.880865	-453.92256	31.191	
O	 0.1808701639	 1.4401094925	-0.0451111697	-0.448921
C	 0.0193715126	 0.0812229875	-0.015066487	 0.329886
C	 0.6643360934	-0.822731585	-1.0591038185	-0.244213
N	-0.4471428731	-1.8287311714	-0.8847895251	-0.366243
C	-1.1792871241	-0.8768412022	-0.0276763773	-0.177084
C	-0.3034577051	-0.7656934232	 1.2193751625	 0.239712
O	 0.4669408635	-1.8368587222	 1.6473568609	-0.471615
C	-0.8608813229	 0.0272894969	 2.2889966746	 0.233097
N	-1.2785960035	 0.7425871855	 3.097187226	-0.339782
H	 0.0447633782	 1.8035446277	 0.8395447412	 0.309589
H	 0.6510450381	-0.3498785569	-2.0442219651	 0.133354
H	 1.6618330887	-1.213281883	-0.8401132545	 0.128663
H	-0.9360598071	-2.0069036995	-1.7545149181	 0.242767
H	-2.258217165	-0.781418256	-0.0227754923	 0.125772
H	 0.3206935524	-2.5258128107	 0.9761975224	 0.305018
116.0558	138.647	220.7376	241.4226	262.6674	304.4371	376.2448	455.3902	491.8858	502.0234	560.2953	585.7446	687.7899	708.5764	781.1801	798.2293	926.4062	976.4028	991.8248	998.5004	1022.3154	1063.1606	1132.7849	1161.6402	1211.3326	1239.7932	1292.2121	1336.5966	1395.6068	1419.9449	1441.7683	1500.7489	2345.8948	3060.9315	3119.7418	3193.6963	3547.2079	3655.3912	3770.5881
OC12CNC1C2(O)C#N	O[C@]12CN[C@H]1[C@]2(O)C#N	
InChI=1S/C5H6N2O2/c6-1-4(8)3-5(4,9)2-7-3/h3,7-9H,2H2	InChI=1S/C5H6N2O2/c6-1-4(8)3-5(4,9)2-7-3/h3,7-9H,2H2/t3-,4+,5+/m0/s1
