18
gdb 37422	2.94527	2.12704	1.77786	1.2505	72.88	-0.225	0.0621	0.2871	838.0568	0.151141	-401.885631	-401.879689	-401.878745	-401.915543	25.952	
C	 0.1222423232	 1.5205441491	-0.132152057	-0.24912
C	 1.3168555345	 0.648126306	-0.0284557734	-0.03547
C	 1.9341898933	 0.459127158	 1.3497477095	 0.092127
O	 1.4951246176	 1.420272886	 2.3531363227	-0.31202
C	 0.6966139204	 0.4321425344	 3.0474209044	 0.112249
C	-0.7528113635	 0.3676910477	 2.5256460367	-0.26004
C	-0.2703566225	-0.5224098919	 1.3283489021	-0.004507
C	 1.1178116936	-0.6598375737	 2.0341153398	-0.103407
N	-0.0444004626	 0.0648969795	-0.0151065708	-0.112117
H	-0.0797208153	 2.158801382	 0.7203633923	 0.134446
H	-0.173509265	 1.9257305405	-1.0963689095	 0.112764
H	 1.9361344764	 0.428007644	-0.894466051	 0.087089
H	 3.025506203	 0.3881497515	 1.3308164723	 0.078018
H	 0.8892406076	 0.4369069319	 4.1216300903	 0.079811
H	-1.3865630528	-0.218795234	 3.1982531601	 0.104707
H	-1.251903806	 1.3148169859	 2.3107041053	 0.111594
H	-0.8499281001	-1.4374109457	 1.1984609455	 0.085885
H	 1.5460372282	-1.6333998011	 2.2604183507	 0.077992
233.9027	273.0715	412.5186	441.8925	522.0384	624.8398	651.0729	721.6717	723.7548	803.71	813.2112	836.399	880.4341	902.4418	928.3346	934.1905	959.9163	977.7875	985.2868	1025.9948	1070.2167	1078.3461	1093.1834	1118.4379	1142.3621	1155.0814	1165.9616	1199.2068	1207.0595	1245.613	1266.1852	1277.8181	1298.8377	1304.8067	1334.9472	1341.1341	1380.2622	1466.8966	1502.8728	3056.322	3065.542	3091.575	3095.3564	3115.7887	3119.0645	3137.6131	3143.9933	3216.0695
C1C2C3OC4CC(C34)N12	C1[C@H]2[C@H]3O[C@H]4C[C@H]([C@@H]34)N12	
InChI=1S/C7H9NO/c1-3-6-5(1)9-7(6)4-2-8(3)4/h3-7H,1-2H2	InChI=1S/C7H9NO/c1-3-6-5(1)9-7(6)4-2-8(3)4/h3-7H,1-2H2/t3-,4+,5+,6-,7-,8?/m1/s1
