17
gdb 43324	2.85746	1.83279	1.48619	3.4415	77.33	-0.2266	-0.0563	0.1703	920.404	0.139316	-384.724478	-384.717928	-384.716984	-384.755172	27.167	
O	-0.0112193159	-0.037906514	 0.0948160565	-0.338317
C	-0.0278425353	 1.17252332	 0.0216790653	 0.394194
C	-1.2948372996	 1.9527905698	-0.0036059161	-0.152371
C	-1.2812196129	 3.293227573	-0.0543931764	-0.04828
C	 0.0391860393	 4.0421539101	-0.1026949524	-0.111201
C	 1.0024552658	 3.2129226764	-0.9896882352	-0.235371
C	 1.2575083463	 2.0212604543	-0.0359675472	-0.158942
C	 1.4235980716	 2.764023921	 1.2900879478	-0.079548
C	 0.746636561	 3.9093956984	 1.2568743525	-0.070401
H	-2.212878218	 1.3758988891	 0.0468777305	 0.106088
H	-2.2092907272	 3.8592341476	-0.0441341542	 0.107355
H	-0.1002882886	 5.0742522888	-0.4310171728	 0.072976
H	 0.5570656661	 2.9266190815	-1.946166171	 0.106649
H	 1.9338292209	 3.7565419769	-1.1724649215	 0.105825
H	 2.0939934238	 1.3734314957	-0.3028626446	 0.084417
H	 1.9633742882	 2.3502475782	 2.132245466	 0.111138
H	 0.6251180846	 4.6210669833	 2.0635747127	 0.105789
121.2246	295.4938	340.1332	405.1968	416.2978	451.0151	553.4305	617.6472	693.4837	726.7095	768.389	779.8681	835.4333	877.4714	883.4068	916.8149	944.8745	958.8732	978.9254	1009.086	1018.2244	1046.0976	1108.0507	1124.6362	1170.9587	1214.2145	1235.345	1269.1918	1285.6861	1302.9386	1327.9255	1352.7636	1388.6254	1492.9119	1655.4345	1664.9855	1783.4475	3055.8219	3086.7555	3103.7176	3110.3937	3157.8841	3189.7582	3203.7494	3229.3763
O=C1C=CC2CC1C=C2	O=C1C=C[C@@H]2C[C@H]1C=C2	
InChI=1S/C8H8O/c9-8-4-2-6-1-3-7(8)5-6/h1-4,6-7H,5H2	InChI=1S/C8H8O/c9-8-4-2-6-1-3-7(8)5-6/h1-4,6-7H,5H2/t6-,7-/m1/s1
