18
gdb 7563	3.05213	1.89382	1.48534	2.7097	67.88	-0.24	-0.0115	0.2285	919.305	0.151581	-384.951003	-384.942379	-384.941435	-384.984335	31.893	
C	-0.5425832931	 1.3769519939	 0.078318198	-0.475225
C	 0.1664451952	 0.041229344	 0.027655458	 0.368717
O	 0.6334603216	-0.483340214	 1.0144324372	-0.312779
C	 0.2376351957	-0.6609615541	-1.3308429681	 0.292965
O	 0.0774036281	 0.3189539639	-2.3300017185	-0.482082
C	 1.4313654705	-1.6559262384	-1.4321193422	-0.261581
C	 0.4788734976	-2.8061636396	-1.0128260316	-0.204671
C	-0.731930275	-1.8965313814	-1.3462060865	-0.270285
H	 0.0089089775	 2.1093031395	-0.5190149899	 0.155673
H	-1.5367538803	 1.3034477559	-0.373731545	 0.140792
H	-0.6149520531	 1.7086233191	 1.1144814819	 0.131846
H	 0.0553364881	-0.1245608361	-3.18367885	 0.279093
H	 1.762598291	-1.7439657019	-2.4718746356	 0.087865
H	 2.2898052208	-1.4512619387	-0.7912482995	 0.118717
H	 0.5543539843	-3.7447009772	-1.5649941536	 0.096733
H	 0.5496987424	-3.0083507258	 0.056047425	 0.132011
H	-1.5820659491	-1.886721355	-0.659634362	 0.109385
H	-1.1064274422	-2.0552209141	-2.3634979876	 0.092825
38.2262	147.2102	153.9804	222.0409	260.9225	282.7654	341.9322	389.4216	435.7821	543.0074	593.5549	629.6001	681.9	784.2775	805.8919	890.0027	938.0476	952.1077	978.0686	986.3591	1045.0898	1077.0304	1096.552	1192.5147	1204.6012	1209.6042	1220.426	1246.1179	1277.0215	1284.04	1377.304	1403.0216	1455.836	1460.3033	1465.6054	1476.5517	1495.4793	1803.1999	3042.0224	3048.7923	3054.3529	3080.6719	3102.2173	3112.3763	3127.3126	3145.7063	3157.8039	3819.8192
CC(=O)C1(O)CCC1	CC(=O)C1(O)CCC1	
InChI=1S/C6H10O2/c1-5(7)6(8)3-2-4-6/h8H,2-4H2,1H3	InChI=1S/C6H10O2/c1-5(7)6(8)3-2-4-6/h8H,2-4H2,1H3
