14
gdb 32318	2.74212	1.4997	0.97533	1.731	66.73	-0.2563	-0.0629	0.1934	1113.201	0.101399	-473.873257	-473.865421	-473.864477	-473.906128	28.067	
O	-0.0063629447	 1.4490979548	 0.0075796574	-0.419547
C	 0.0042144399	 0.0362174886	 0.0021425982	-0.154512
C	-1.4117489599	-0.4630548473	 0.0120416156	 0.047065
C	-2.5048790709	 0.337500009	 0.0236510388	-0.053833
N	-3.8028477188	-0.1405853019	 0.0329874935	-0.2805
C	-3.9266170352	-1.4139647067	 0.0302030024	 0.141796
O	-2.9349217669	-2.3164912165	 0.019041261	-0.19498
C	-1.5870448096	-1.9016734118	 0.0085089702	 0.404969
O	-0.7349035931	-2.7466739618	-0.0001760769	-0.336013
H	 0.9039022781	 1.7567253475	 0.0010967779	 0.298444
H	 0.5167628258	-0.3712132645	-0.88414565	 0.121849
H	 0.531466451	-0.3779160389	 0.8766123087	 0.121891
H	-2.3939569126	 1.4151569368	 0.0262742591	 0.150247
H	-4.9008189431	-1.8935643872	 0.0369607442	 0.153124
77.7142	136.8202	194.8766	206.8985	245.2446	349.4125	376.7702	511.5766	573.6686	577.9107	591.1319	770.5851	785.3431	876.1551	944.2955	982.0418	993.3175	1050.1817	1076.8365	1118.6129	1204.0281	1227.4862	1243.1016	1265.0111	1395.8292	1412.2779	1467.8825	1501.9107	1608.2652	1672.3249	1846.2501	2973.5968	2992.8605	3194.4363	3216.4598	3847.9551
OCC1=CN=COC1=O	OCc1cncoc1=O	
InChI=1S/C5H5NO3/c7-2-4-1-6-3-9-5(4)8/h1,3,7H,2H2	InChI=1S/C5H5NO3/c7-2-4-1-6-3-9-5(4)8/h1,3,7H,2H2
