19
gdb 93607	2.64862	1.29826	1.02891	2.8959	81.31	-0.2361	-0.0212	0.2149	1219.9294	0.158193	-385.894398	-385.885354	-385.88441	-385.928495	34.057	
C	 0.0180109575	 1.609697409	-0.0064174197	-0.39357
C	 0.0180016186	 0.0707347733	-0.0152415028	-0.085956
C	 0.7441418693	-0.5524491051	-1.2247749289	-0.240242
C	 2.1894362194	-0.7941940309	-0.7432564716	-0.224162
C	 2.0156339324	-1.2614994173	 0.7191136101	-0.291926
C	 3.1855057302	-1.1632560082	 1.5688367508	 0.322519
C	 4.1633986453	-1.0636237901	 2.2598297952	-0.430945
C	 0.7868179404	-0.44648918	 1.2117577382	 0.398355
O	 0.4940935527	-0.2425687517	 2.3574934977	-0.309648
H	 1.0308797505	 2.0113298712	-0.1175807007	 0.123084
H	-0.5897700291	 1.9959520988	-0.829920799	 0.119125
H	-0.3899827653	 1.9815829911	 0.9368097161	 0.142176
H	-1.0186766024	-0.2724405874	 0.0666267527	 0.102075
H	 0.280857872	-1.5090595227	-1.4919044074	 0.103667
H	 0.7035002801	 0.085057412	-2.1119306939	 0.104513
H	 2.7290329711	-1.5222511163	-1.3522208088	 0.113974
H	 2.7654652867	 0.1369561266	-0.7564093365	 0.120033
H	 1.6637577107	-2.3061893011	 0.7053602283	 0.130971
H	 5.0207261497	-0.9780755613	 2.8802832602	 0.195958
40.5516	131.6209	146.882	219.7299	235.2396	256.3133	355.1321	395.5059	470.0945	489.2431	563.627	604.2558	627.2498	637.5351	647.5218	789.2599	819.2901	892.9236	915.5164	964.0391	987.7703	1017.9636	1036.0744	1098.2655	1106.8376	1124.6348	1181.955	1211.1481	1255.8287	1289.7337	1296.7584	1328.749	1341.6793	1351.02	1404.6545	1489.2551	1498.3946	1500.4115	1506.3663	1850.7395	2242.2519	2978.7435	3036.58	3039.7098	3056.4207	3057.4285	3094.8831	3106.6985	3114.442	3125.8893	3505.9454
CC1CCC(C#C)C1=O	C[C@H]1CC[C@@H](C#C)C1=O	
InChI=1S/C8H10O/c1-3-7-5-4-6(2)8(7)9/h1,6-7H,4-5H2,2H3	InChI=1S/C8H10O/c1-3-7-5-4-6(2)8(7)9/h1,6-7H,4-5H2,2H3/t6-,7+/m0/s1
