16
gdb 90588	3.3757	1.33732	1.03086	2.4123	72.63	-0.2185	-0.0105	0.208	1117.5869	0.124919	-437.891384	-437.883665	-437.88272	-437.923856	29.192	
O	 0.2101331157	 1.2176286572	-0.4619069586	-0.40918
C	 0.118033651	-0.1086848082	-0.0405816209	 0.001867
C	 0.2801719599	-0.452260005	 1.5014658018	-0.218958
N	-0.9767423351	-1.2193909288	 1.3790374892	-0.097538
C	-1.2615637855	-0.7528172718	 0.0874226158	 0.31923
C	-2.5400394894	-0.9044777958	-0.2638562205	-0.320325
C	-3.2162896498	-1.5640114124	 0.9278208297	-0.373755
C	-2.1365907882	-1.5721572939	 2.0552552879	 0.372837
O	-2.2727715431	-1.8259845263	 3.2252455701	-0.353811
H	-0.5181237525	 1.7107156996	-0.0671182513	 0.288121
H	 0.8156268295	-0.6808210978	-0.6572513274	 0.125409
H	 1.1502374064	-1.0441201172	 1.7917939118	 0.132358
H	 0.1917226695	 0.4293393005	 2.1446998115	 0.1273
H	-3.0269813872	-0.6062106291	-1.1790518751	 0.114833
H	-4.1086678696	-1.03564141	 1.279749181	 0.14295
H	-3.5214496717	-2.6004752211	 0.7360385251	 0.148661
87.7078	133.5492	174.5604	250.9311	339.1791	390.6702	417.4963	536.7671	572.6146	613.0984	660.2747	712.5361	745.2665	776.3822	861.5942	937.1069	958.3085	979.8667	996.3461	1024.6469	1131.7948	1139.7862	1159.5778	1179.7492	1219.7178	1246.947	1265.5939	1286.6107	1317.5703	1356.5335	1432.4513	1438.1784	1503.6563	1711.9747	1837.8339	3039.6663	3052.5944	3081.5271	3087.8898	3121.8152	3253.9982	3798.8776
OC1CN2C1=CCC2=O	O[C@H]1CN2[C]1[CH]CC2=O	
InChI=1S/C6H7NO2/c8-5-3-7-4(5)1-2-6(7)9/h1,5,8H,2-3H2	InChI=1S/C6H7NO2/c8-5-3-7-4(5)1-2-6(7)9/h1,5,8H,2-3H2/t5-/m0/s1
