15
gdb 44659	2.79415	1.8444	1.84435	4.2724	68.01	-0.2503	-0.0296	0.2207	838.0581	0.115171	-420.660361	-420.654222	-420.653277	-420.69059	25.739	
O	 0.0142843485	 0.0018893071	 0.0037593439	-0.349307
C	 0.0136384021	 1.2000607213	 0.0099580056	 0.461288
O	-1.1253550485	 1.9289363799	 0.0288828516	-0.239396
C	-0.8730593486	 3.379681231	 0.0330497532	 0.012623
C	-0.0201379988	 3.6698937915	 1.2588249372	-0.073813
C	 1.107867817	 2.9662391791	 1.2505899808	-0.080178
C	 1.2693261917	 2.1090097778	-0.0020167548	-0.249447
C	 1.0747506543	 2.9791586528	-1.2409333319	-0.080178
C	-0.0529795505	 3.6827043952	-1.2118876967	-0.073815
H	-1.8593565233	 3.8368259546	 0.048530169	 0.096877
H	-0.3536037471	 4.3429455415	 2.0370838443	 0.117512
H	 1.8457577187	 2.9345700173	 2.0413842483	 0.121008
H	 2.165201785	 1.4947634958	-0.0171089149	 0.098307
H	 1.7913573002	 2.9557911164	-2.0513461117	 0.121008
H	-0.4069200605	 4.3637428389	-1.973988594	 0.117512
148.1061	381.5011	414.7775	442.4165	471.4949	473.588	615.0613	640.4782	697.5452	697.6405	704.8927	796.31	829.4001	879.6865	919.2548	929.636	948.8496	955.2501	967.5512	1006.3898	1035.5645	1086.1813	1108.1263	1158.9228	1237.5689	1265.572	1297.8281	1323.8555	1357.674	1361.022	1649.3987	1688.7641	1863.5624	3151.343	3159.6035	3209.8125	3211.3713	3232.7999	3235.2334
O=C1OC2C=CC1C=C2	O=C1O[C@H]2C=C[C@@H]1C=C2	
InChI=1S/C7H6O2/c8-7-5-1-3-6(9-7)4-2-5/h1-6H	InChI=1S/C7H6O2/c8-7-5-1-3-6(9-7)4-2-5/h1-6H/t5-,6+
