19
gdb 87600	3.25845	1.31925	1.21739	1.5043	81.94	-0.2123	0.0234	0.2357	1100.4029	0.160023	-385.864956	-385.857205	-385.856261	-385.896864	31.517	
O	-0.1063375318	 1.4313683471	-0.0339726692	-0.42169
C	-0.0480175594	 0.0343756918	 0.0207518946	 0.053344
C	-0.5235609231	-0.6778475523	 1.2573613059	-0.392724
C	-1.362925177	-0.6989456995	-0.0176678025	 0.333572
C	-2.6631461852	 0.0269871077	-0.0993246814	-0.147202
C	-3.581731424	-0.6960445019	-0.7490637344	-0.099326
C	-3.0172034551	-1.9826473766	-1.2525748921	-0.086865
C	-1.9021816459	-1.8472076303	-2.2739988839	-0.286938
C	-1.5603100315	-1.9723931705	-0.8099339869	-0.137261
H	 0.5811744368	 1.7779048784	 0.5446533855	 0.287141
H	 0.7770273827	-0.4115473596	-0.5361075223	 0.085976
H	-0.027706564	-1.596689823	 1.5555627943	 0.110504
H	-0.8846606092	-0.0630600733	 2.075431013	 0.113581
H	-2.7912934301	 1.0275656632	 0.2919386854	 0.105033
H	-4.6032622652	-0.3867877069	-0.937243289	 0.093224
H	-3.6175283919	-2.8859258168	-1.251502837	 0.084322
H	-1.6900360276	-2.7085668664	-2.899295615	 0.105462
H	-1.775308683	-0.8857040316	-2.7606050114	 0.117426
H	-1.0726581955	-2.8795171595	-0.4713114437	 0.082421
120.3693	156.2949	222.4693	295.8242	334.6002	401.2045	415.1599	465.5132	545.3763	632.4076	720.3369	762.6706	790.29	796.6341	831.7493	857.6308	896.2127	912.9311	935.8091	959.3138	999.4814	1006.8592	1031.2175	1045.4666	1068.1498	1074.8539	1095.0835	1097.014	1126.6803	1169.1972	1196.0336	1255.673	1274.7994	1298.3385	1334.4783	1361.5611	1393.8484	1425.0455	1476.3983	1481.2806	1654.0191	3090.8681	3120.5492	3123.7076	3162.9804	3171.1517	3196.3709	3213.1253	3214.6269	3229.5278	3800.7959
OC1CC11C=CC2CC12	O[C@H]1C[C@]21C=C[C@H]1C[C@@H]21	
InChI=1S/C8H10O/c9-7-4-8(7)2-1-5-3-6(5)8/h1-2,5-7,9H,3-4H2	InChI=1S/C8H10O/c9-7-4-8(7)2-1-5-3-6(5)8/h1-2,5-7,9H,3-4H2/t5-,6+,7-,8+/m0/s1
