25
gdb 116159	2.85393	0.97605	0.77244	1.4106	89.12	-0.2572	0.0799	0.3372	1565.9822	0.230281	-389.522702	-389.512931	-389.511987	-389.557059	37.992	
C	 0.1121063121	 1.5504184893	 0.0592756505	-0.392255
C	-0.0013852994	 0.0232620645	 0.0057457146	-0.178621
C	-1.4410251563	-0.5177037517	-0.0218097233	 0.036568
C	-2.2086637881	-0.1172274166	-1.2946670373	-0.18345
C	-3.6286794828	-0.7016379649	-1.3202319294	-0.215421
C	-3.6101243394	-2.2266398245	-1.148042278	-0.212581
C	-2.8632953685	-2.6291039785	 0.1275026974	 0.121322
O	-2.7342654663	-4.0412349021	 0.2527549327	-0.441708
C	-1.4508388815	-2.0481054666	 0.1385396126	-0.188931
H	 1.1581289409	 1.8615408939	 0.1438065	 0.111217
H	-0.2975713352	 2.0253774703	-0.8374509318	 0.117698
H	-0.4249522235	 1.9564834658	 0.9241512329	 0.111779
H	 0.5382545988	-0.3550745247	-0.8735583991	 0.091989
H	 0.5112725915	-0.4014903001	 0.8784255579	 0.091339
H	-1.9754941673	-0.0854100564	 0.8394238922	 0.063322
H	-2.2592876156	 0.9729438033	-1.3851284994	 0.091163
H	-1.6517327285	-0.4779622593	-2.1719012977	 0.089825
H	-4.2196189986	-0.2510938494	-0.5107253035	 0.093294
H	-4.133223808	-0.4335373296	-2.2550463779	 0.092328
H	-4.6343607568	-2.6224007265	-1.122914196	 0.076386
H	-3.1067773082	-2.6982979826	-2.0022631383	 0.099675
H	-3.4133860292	-2.2243620857	 0.9961044009	 0.056667
H	-3.6168641755	-4.4234211313	 0.2125442384	 0.275988
H	-0.8856493569	-2.5110113022	-0.6823177882	 0.096708
H	-0.9503476475	-2.3409488545	 1.0682703994	 0.095699
76.7726	124.5837	159.1908	197.1471	237.426	283.0411	285.4201	314.375	368.9336	409.5543	430.4228	467.478	499.7258	559.9161	759.2904	794.9075	845.4722	879.7969	888.5586	921.2703	936.1556	968.3448	1025.5584	1041.9063	1052.8795	1068.4428	1079.2768	1091.7681	1123.6796	1148.5401	1181.0994	1221.1036	1242.6675	1273.4361	1287.0438	1301.5708	1310.021	1339.5764	1342.9212	1362.8135	1374.5654	1389.6892	1391.2794	1401.627	1411.6134	1438.7193	1480.3866	1485.28	1488.3927	1490.7779	1500.0689	1504.9824	1508.9161	2934.7774	2974.6827	3003.2585	3009.5683	3009.9786	3014.7025	3020.9685	3031.7505	3043.1312	3052.2169	3065.0365	3066.9332	3071.4038	3096.879	3105.3095	3812.8059
CCC1CCCC(O)C1	CC[C@H]1CCC[C@@H](O)C1	
InChI=1S/C8H16O/c1-2-7-4-3-5-8(9)6-7/h7-9H,2-6H2,1H3	InChI=1S/C8H16O/c1-2-7-4-3-5-8(9)6-7/h7-9H,2-6H2,1H3/t7-,8+/m0/s1
