18
gdb 40569	3.99569	1.10545	0.94349	3.0077	74.1	-0.2437	0.007	0.2506	1258.1582	0.149005	-439.074732	-439.066717	-439.065773	-439.108378	29.556	
C	-0.0868062553	 1.4969542388	-0.0787958763	-0.168895
O	 1.1912832701	 0.8899696993	 0.0783815523	-0.22462
C	 0.0376421125	 0.0432615123	 0.0883646021	-0.001176
C	-0.2921685074	-0.6126833645	 1.3940678696	 0.403249
N	-0.3716465529	 0.0469288827	 2.4712400656	-0.314414
C	-0.7172829532	-0.6500074902	 3.7040357	-0.153588
C	-1.4107967176	-1.9924128178	 3.4530579579	-0.234944
C	-0.6290856039	-2.7457753146	 2.3855973109	-0.072129
O	-0.4688392367	-1.9496068026	 1.2022888818	-0.268253
H	-0.4280724514	 2.0798949013	 0.7730033366	 0.135621
H	-0.2988546697	 1.9009673444	-1.0680603364	 0.112037
H	-0.0551594024	-0.6125401218	-0.7746554211	 0.103183
H	 0.1987418317	-0.7951203382	 4.2934799071	 0.114518
H	-1.3571303106	 0.0111169404	 4.2985780964	 0.112092
H	-1.4699447485	-2.592361817	 4.3667852249	 0.106239
H	-2.4345753331	-1.8237655082	 3.1004254051	 0.11583
H	 0.3693511744	-3.0158489299	 2.7538872005	 0.116134
H	-1.1334532461	-3.6591256445	 2.0614297128	 0.119115
33.1542	122.4192	175.4264	193.8395	276.395	365.2223	396.3677	503.7477	526.0374	651.7608	737.2736	818.2142	854.6357	869.0252	886.8846	921.0355	942.5832	956.1152	1020.868	1076.6729	1098.6917	1128.2389	1157.8114	1161.3358	1170.9297	1196.0289	1231.301	1257.2126	1288.3608	1302.4367	1366.2757	1368.0454	1412.6058	1442.3124	1479.1825	1489.9154	1509.9077	1513.2151	1752.202	3012.5735	3023.4971	3041.2188	3060.2941	3088.3619	3090.8216	3101.9981	3140.6707	3192.5574
C1OC1C1=NCCCO1	C1O[C@H]1C1=NCCCO1	
InChI=1S/C6H9NO2/c1-2-7-6(8-3-1)5-4-9-5/h5H,1-4H2	InChI=1S/C6H9NO2/c1-2-7-6(8-3-1)5-4-9-5/h5H,1-4H2/t5-/m1/s1
