18
gdb 34023	3.11635	1.36059	1.1681	1.1883	78.61	-0.2159	0.0424	0.2583	1099.7855	0.148007	-401.881991	-401.873908	-401.872964	-401.914361	31.947	
C	 0.006891614	-1.1499826378	 0.0453999794	-0.420778
C	-0.0068991318	 0.0524263714	 0.0203740647	 0.301615
C	-0.0296062846	 1.4918285862	-0.0462814127	 0.06465
C	 0.5513336952	 2.1185664064	-1.3268801888	-0.346038
C	 1.3129199328	 2.2089538558	-0.0339662583	 0.076453
O	 1.4187761658	 3.4563845857	 0.5819861498	-0.263577
C	 0.4760917952	 3.6574570953	 1.629483061	-0.060885
C	-0.9393414576	 3.4774811079	 1.1049409278	-0.175071
N	-1.1187867647	 2.0863515673	 0.6958147521	-0.36305
H	 0.021515863	-2.210934756	 0.082103269	 0.190731
H	 0.9044322628	 1.4506605214	-2.1035913895	 0.122105
H	 0.0937408145	 3.0401831335	-1.6696975361	 0.120151
H	 2.19832378	 1.5910652067	 0.0935609156	 0.110133
H	 0.6594842357	 2.9581827355	 2.4584163031	 0.106755
H	 0.6346117245	 4.6785601189	 1.9844138634	 0.112057
H	-1.663471616	 3.7007009251	 1.8969200254	 0.106515
H	-1.0995248947	 4.207251167	 0.2920606063	 0.091176
H	-1.9950980443	 1.9518245697	 0.204980708	 0.227057
102.8616	141.2874	170.4405	284.1333	349.926	411.0062	428.0016	497.0354	508.0256	552.0164	580.6176	591.2257	655.7197	658.0262	788.0261	814.5333	874.8805	884.1752	922.9665	983.6543	1005.2053	1036.7947	1064.3639	1105.286	1128.1174	1132.7005	1183.0276	1238.2827	1267.2058	1275.5274	1318.4135	1370.157	1382.3373	1418.1205	1459.5733	1484.4454	1496.8249	1509.9071	2235.5093	2948.5914	3004.1667	3054.7188	3105.2217	3135.585	3138.0418	3234.3643	3503.5181	3533.17
C#CC12CC1OCCN2	C#C[C@]12C[C@H]1OCCN2	
InChI=1S/C7H9NO/c1-2-7-5-6(7)9-4-3-8-7/h1,6,8H,3-5H2	InChI=1S/C7H9NO/c1-2-7-5-6(7)9-4-3-8-7/h1,6,8H,3-5H2/t6-,7+/m1/s1
