17
gdb 11656	3.21724	1.88906	1.53546	2.1956	70.14	-0.2287	-0.0376	0.1911	883.6595	0.14123	-363.787919	-363.780369	-363.779425	-363.819933	28.241	
C	 0.0143738334	 1.3582713057	-0.3930424605	-0.339582
N	-0.0306966925	-0.0620518345	-0.0490693843	-0.136348
C	-1.0323914905	-0.5197698568	 1.004025501	-0.016022
C	-0.1593340077	-1.7927486668	 1.1297803562	-0.245762
C	 0.7875337488	-0.5468471828	 1.1469112166	 0.266239
C	-0.1928703905	 0.1180066029	 2.1502258962	-0.285798
C	 2.2795457813	-0.5719990509	 1.1358152158	 0.029953
O	 2.9672887006	-0.296759176	 2.0866261672	-0.244426
H	 0.9330310682	 1.5520147735	-0.9559979419	 0.126307
H	-0.828953569	 1.5714212059	-1.0580499303	 0.126689
H	-0.0262602259	 2.0706717891	 0.4436966591	 0.105522
H	-2.1074476421	-0.4565505692	 0.8296242621	 0.087941
H	-0.2271320845	-2.3594388144	 2.0588040302	 0.107951
H	-0.0964128934	-2.4110821162	 0.2348361228	 0.113061
H	-0.1708337817	 1.2038963901	 2.2224926642	 0.111408
H	-0.2707595139	-0.3357024761	 3.1403990887	 0.108464
H	 2.7200814193	-0.8870851536	 0.1627114768	 0.084402
68.2507	162.3363	193.0644	210.7456	331.6447	350.8553	477.3662	545.3148	585.6169	681.6964	731.6869	771.0343	843.1989	893.4807	939.4371	962.1838	996.9947	1011.128	1067.51	1083.0487	1125.9042	1141.2366	1160.0689	1174.0374	1181.6766	1216.4022	1229.7345	1233.8529	1309.8737	1409.5243	1441.8409	1472.0084	1491.9298	1498.8631	1534.8176	1820.6683	2877.9453	2993.2833	3068.9368	3082.3042	3086.1098	3100.82	3108.1422	3155.8683	3170.2374
CN1C2CC1(C2)C=O	CN1[C@H]2C[C@@]1(C2)C=O	
InChI=1S/C6H9NO/c1-7-5-2-6(7,3-5)4-8/h4-5H,2-3H2,1H3	InChI=1S/C6H9NO/c1-7-5-2-6(7,3-5)4-8/h4-5H,2-3H2,1H3/t5-,6+
