17
gdb 126073	3.88329	1.12312	1.01068	3.437	75.57	-0.2376	0.0121	0.2497	1203.3785	0.137377	-418.009278	-418.001343	-418.000399	-418.042348	29.69	
C	-0.1015359075	 1.5225173522	-0.2110177622	-0.431687
C	-0.033004676	 0.0419191883	 0.0482494037	 0.077375
O	 1.2394041231	-0.5955302229	-0.0740088737	-0.250484
C	 0.6359780148	-0.5692702653	 1.2210969523	-0.048442
C	 1.3069013163	 0.1767483795	 2.3099252693	 0.350822
N	 2.1299179908	 1.2043858947	 2.0918572151	-0.294104
N	 2.5067518437	 1.598703238	 3.3213237994	-0.175524
C	 1.9613843481	 0.8568108688	 4.3141720698	-0.019071
C	 1.1703433679	-0.085501391	 3.6957991668	-0.291694
H	 0.7075158248	 2.0452353051	 0.3010523471	 0.157441
H	-0.0247960812	 1.7179593752	-1.2860006026	 0.123242
H	-1.0627089479	 1.9203555667	 0.1332404219	 0.112737
H	-0.8501914572	-0.5405889176	-0.3856282291	 0.083952
H	 0.2523627899	-1.5368091982	 1.5507116389	 0.084804
H	 3.1586839452	 2.3599661865	 3.4062884983	 0.27763
H	 2.1786604111	 1.0486926207	 5.3529077013	 0.137445
H	 0.5801156441	-0.8539908708	 4.1681848237	 0.10556
50.5242	138.9805	176.889	205.2184	289.4742	385.1912	428.7903	506.8243	522.0702	661.4233	716.9882	746.2834	773.7811	796.2567	840.3118	867.7015	946.612	969.2232	998.384	1035.737	1072.9593	1092.2663	1107.106	1163.4454	1176.0885	1220.6199	1262.4223	1294.007	1376.6858	1401.9302	1421.197	1442.9875	1482.9155	1490.3572	1499.0408	1522.1662	1573.1745	3035.9488	3068.9601	3090.1234	3095.5572	3148.4137	3256.6826	3275.1857	3674.7044
CC1OC1C1=NNC=C1	C[C@H]1O[C@H]1c1n[nH]cc1	
InChI=1S/C6H8N2O/c1-4-6(9-4)5-2-3-7-8-5/h2-4,6H,1H3,(H,7,8)	InChI=1S/C6H8N2O/c1-4-6(9-4)5-2-3-7-8-5/h2-4,6H,1H3,(H,7,8)/t4-,6-/m1/s1
