20
gdb 40587	5.49249	0.99849	0.98233	1.7748	84.07	-0.2284	0.0853	0.3137	1281.9516	0.172261	-365.893506	-365.886155	-365.885211	-365.925645	29.53	
C	-0.2426138371	 1.4321596314	-0.213340172	-0.269947
C	 1.2152252106	 1.2857348354	 0.1412531761	-0.269924
C	 0.3413028928	 0.0595942113	 0.0235227401	-0.007917
C	-0.0355857402	-0.7131483316	 1.2543092399	 0.000528
C	-1.0786969538	-1.839678465	 1.1676944659	-0.023969
C	-0.0860578676	-2.8864813282	 0.5713381211	-0.074417
C	-0.4552171886	-3.8477185824	 1.6933564974	-0.185875
N	-0.5051499538	-2.519147736	 2.4425705965	-0.168389
C	 0.7016333582	-2.0172776837	 1.6012913615	-0.023923
H	-0.9103479982	 1.8330491898	 0.5423554126	 0.113096
H	-0.5012678142	 1.713582837	-1.2280557478	 0.111145
H	 1.954909075	 1.4668900646	-0.6306264766	 0.111145
H	 1.5279589129	 1.5881345184	 1.1354410806	 0.113095
H	 0.4964705599	-0.5471671114	-0.8650383424	 0.080105
H	-0.1803763848	-0.0537713851	 2.1189147422	 0.075547
H	-2.1586444469	-1.7864764014	 1.0129768809	 0.078462
H	 0.1509067254	-3.07864673	-0.4803293552	 0.065493
H	-1.4239749322	-4.3563512813	 1.6432078066	 0.098643
H	 0.3159725085	-4.5299186723	 2.0669641978	 0.098643
H	 1.7220731441	-2.1736064594	 1.9581078349	 0.078458
73.6374	145.8334	163.5049	307.708	371.7317	473.267	497.139	711.1579	768.4551	792.3091	817.1562	824.8747	845.7223	859.8135	897.323	899.225	910.9515	937.7878	956.836	1011.9992	1026.7194	1033.9919	1059.3907	1068.8033	1079.5862	1104.2142	1131.7691	1134.795	1156.6064	1166.4265	1191.2627	1199.4935	1205.6961	1227.2082	1227.7419	1258.4878	1276.8675	1312.8706	1322.3537	1446.4288	1470.5649	1506.9368	1519.0813	3030.3961	3037.9906	3046.6048	3088.1549	3090.4012	3095.4434	3129.4357	3132.9751	3137.9851	3207.7004	3222.8161
C1CC1C1C2C3CN2C13	C1CC1[C@H]1[C@H]2[C@@H]3CN2[C@H]13	
InChI=1S/C8H11N/c1-2-4(1)6-7-5-3-9(7)8(5)6/h4-8H,1-3H2	InChI=1S/C8H11N/c1-2-4(1)6-7-5-3-9(7)8(5)6/h4-8H,1-3H2/t5-,6-,7+,8-
