21
gdb 40165	2.98292	1.55317	1.35975	1.5877	81.01	-0.2362	0.0845	0.3207	1044.9876	0.185291	-387.069862	-387.062468	-387.061523	-387.101428	30.73	
C	-0.0725797733	 1.5164203577	 0.0281898619	-0.328989
C	 1.2901943234	 0.8755110959	-0.0829687308	-0.314198
C	 0.0503902107	 0.0173392446	-0.0132097294	 0.395393
C	-0.2952667395	-0.7887644958	 1.244845532	-0.273207
C	-0.2914456073	-2.3205219365	 0.9913979219	-0.23287
C	-0.6330110112	-2.5868158068	-0.48216493	 0.101523
C	 0.4672379202	-2.0398772586	-1.4103300884	-0.243631
C	-0.35589578	-0.7438543481	-1.263156288	 0.007516
O	-1.5391943501	-1.5435909937	-0.9578707979	-0.300192
H	-0.3448859315	 1.9769465852	 0.9727826547	 0.109645
H	-0.4720872014	 2.0243122607	-0.8442094268	 0.110914
H	 1.8135579823	 0.9513852344	-1.031708065	 0.108291
H	 1.9425783633	 0.9021860096	 0.7840063567	 0.109177
H	 0.3698814844	-0.5262133139	 2.0735289868	 0.091035
H	-1.3069779328	-0.5067518492	 1.5501401563	 0.117827
H	 0.6829658379	-2.7692887184	 1.2178862748	 0.098162
H	-1.0224324721	-2.7994865028	 1.6504532723	 0.100981
H	-1.0306323767	-3.5885090632	-0.6643434385	 0.073796
H	 1.4999169353	-2.0403744227	-1.0546158737	 0.096671
H	 0.4056152526	-2.4569692475	-2.4170784315	 0.102863
H	-0.4996583641	-0.1006606809	-2.1367116074	 0.069291
101.7059	193.3379	284.2177	313.7975	372.3342	396.8849	433.6133	514.5768	600.5749	704.6269	774.5648	778.4418	826.6959	866.2689	895.933	910.9635	926.0921	934.148	951.8897	967.3071	982.8185	995.2542	1048.4592	1055.9443	1068.4024	1080.7424	1111.2068	1112.703	1177.4903	1189.0859	1218.7251	1239.759	1252.1324	1288.2409	1312.8346	1317.4136	1341.0253	1350.9287	1367.4216	1402.9087	1467.0784	1479.629	1487.6847	1500.4224	1504.4165	3034.7813	3048.8201	3059.3432	3066.9444	3072.5308	3081.1065	3092.9064	3117.9068	3122.1961	3130.6105	3195.1734	3210.3796
C1CC11CCC2CC1O2	C1CC21CC[C@@H]1C[C@H]2O1	
InChI=1S/C8H12O/c1-2-8(3-4-8)7-5-6(1)9-7/h6-7H,1-5H2	InChI=1S/C8H12O/c1-2-8(3-4-8)7-5-6(1)9-7/h6-7H,1-5H2/t6-,7-/m1/s1
