15
gdb 128695	2.76338	1.63344	1.0333	4.8217	73.86	-0.2185	-0.0244	0.1942	1092.6555	0.114708	-450.128272	-450.120412	-450.119468	-450.160932	28.824	
C	-0.0103470086	 1.3798685712	 0.0226219057	-0.231751
O	 0.0329273599	-0.0476901306	 0.0494785577	-0.218275
C	 0.6487279477	-0.6181054071	 1.0792802119	 0.428866
N	 1.1782765121	 0.1142659883	 2.0042924571	-0.309732
N	 1.7845284958	-0.5816209597	 3.0144334406	-0.242762
C	 1.8324741231	-1.9289046411	 3.0512065703	 0.114254
N	 1.3218307971	-2.7053309266	 2.1568067301	-0.33659
C	 0.6714074708	-2.1054560175	 1.0700184673	 0.262112
N	 0.1199241409	-2.7444691085	 0.1121197307	-0.512289
H	 0.9998945946	 1.7994229147	 0.0004330839	 0.136054
H	-0.5510695835	 1.6369993181	-0.8880006258	 0.140408
H	-0.5319056291	 1.7699464056	 0.9017677642	 0.136086
H	 2.1963062324	-0.0083855358	 3.7317009835	 0.278292
H	 2.3479322581	-2.3478179139	 3.9143841043	 0.135973
H	 0.2415861188	-3.7454535971	 0.2869554785	 0.219354
79.1905	137.9773	190.7906	226.1897	331.2216	362.3451	379.4908	496.1814	511.4665	573.7429	591.5458	605.5435	778.2387	809.3076	913.9853	943.2953	962.7539	1018.1233	1066.3526	1071.663	1176.918	1210.9361	1246.2248	1321.8724	1386.6584	1420.6809	1477.1857	1480.2954	1495.6075	1533.2089	1633.9877	1663.512	1696.4609	3040.906	3110.538	3145.852	3158.039	3447.619	3654.9063
COC1=NNC=NC1=N	COC1=NNCN=C1[NH]	
InChI=1S/C4H6N4O/c1-9-4-3(5)6-2-7-8-4/h2H,1H3,(H2,5,6,7)	InChI=1S/C4H7N4O/c1-9-4-3(5)6-2-7-8-4/h5,7H,2H2,1H3
