19
gdb 56975	2.85807	1.24456	0.97458	1.9272	80.59	-0.2527	0.0569	0.3095	1241.2062	0.157332	-385.81734	-385.808448	-385.807503	-385.851058	33.735	
C	 0.029403271	 1.4872613405	 0.1423140146	-0.397849
C	-0.0702625778	-0.0454646931	 0.016844707	-0.162482
C	-1.466040283	-0.4806240689	-0.02713533	 0.325632
C	-2.6142840992	-0.8319239186	-0.0935665216	-0.477307
C	 0.6845242379	-0.5689726119	-1.2158270856	-0.000163
C	 2.2548312063	-0.4295963937	-1.2551075712	-0.289824
C	 2.3345075507	-1.9561006068	-1.3774289542	 0.033183
O	 1.6882724876	-2.5018464844	-0.2208948617	-0.244077
C	 0.8705105024	-2.0928283734	-1.3242137051	 0.015118
H	 1.0762223637	 1.7991619947	 0.2048545551	 0.117947
H	-0.4257208797	 1.9778006976	-0.7237263712	 0.123133
H	-0.488230019	 1.8373534929	 1.0390327857	 0.127278
H	 0.403764177	-0.5007609811	 0.8959445505	 0.120409
H	-3.6274670841	-1.1468339229	-0.1339260496	 0.193589
H	 0.2374625803	-0.1623590887	-2.1281841653	 0.085422
H	 2.6065951897	 0.105578815	-2.1398238804	 0.107464
H	 2.7363295711	-0.0187849184	-0.3638079406	 0.110637
H	 3.0863146136	-2.5692564126	-1.8600720244	 0.105588
H	 0.2022895914	-2.833135976	-1.7471942319	 0.106301
68.1698	119.3619	141.0729	208.7524	229.9983	263.1449	359.9798	397.8214	472.7597	525.2036	604.1889	624.1264	637.3343	737.5022	792.269	842.8682	853.9291	881.0706	921.9766	936.2162	970.6581	1001.915	1022.2129	1046.7721	1089.4129	1099.548	1131.4634	1180.8324	1218.6129	1239.5228	1241.5674	1272.3976	1278.5655	1338.8207	1370.0938	1390.8658	1407.9769	1471.8046	1492.4457	1499.6145	2231.8396	3028.861	3040.5011	3062.9071	3067.9724	3112.459	3121.1991	3122.3503	3184.713	3200.4941	3504.7968
CC(C#C)C1CC2OC12	C[C@@H](C#C)[C@H]1C[C@H]2O[C@@H]12	
InChI=1S/C8H10O/c1-3-5(2)6-4-7-8(6)9-7/h1,5-8H,4H2,2H3	InChI=1S/C8H10O/c1-3-5(2)6-4-7-8(6)9-7/h1,5-8H,4H2,2H3/t5-,6+,7+,8-/m0/s1
