19
gdb 114671	3.50986	1.09071	1.00502	1.8784	70.42	-0.2533	0.0693	0.3227	1225.2073	0.16006	-460.125077	-460.116894	-460.11595	-460.157879	31.853	
O	-0.1710777082	 1.4638420878	-0.0101718945	-0.418108
C	 0.0198141663	 0.0588716835	 0.0791197439	-0.109475
C	-1.3490616808	-0.5925089393	-0.0383980607	 0.037302
C	-2.0618419707	-0.41947627	-1.423007933	-0.239337
C	-2.3041037028	-1.9068148852	-1.7176470572	 0.023506
O	-2.7537450856	-2.4244837136	-0.4118872993	-0.330097
C	-1.3706456756	-2.1334102157	-0.0050417556	-0.012828
C	-0.9398641519	-2.5853311857	-1.4286068526	 0.189886
O	-0.9091902794	-3.9710604682	-1.619733329	-0.455588
H	 0.6896353326	 1.889440508	 0.0434953996	 0.288084
H	 0.6896980236	-0.298650718	-0.7190890178	 0.086916
H	 0.4815438697	-0.2189594834	 1.0409489834	 0.088496
H	-1.9776331573	-0.2069467062	 0.7689925664	 0.093923
H	-2.9949664249	 0.1410467717	-1.3505185169	 0.115033
H	-1.4248797131	 0.0649376438	-2.1686195537	 0.108678
H	-2.9386127274	-2.2023518707	-2.553542079	 0.082511
H	-1.0549841979	-2.6590821396	 0.8972111273	 0.08118
H	-0.0346179898	-2.1716497218	-1.8786868374	 0.082959
H	-1.7208150169	-4.3103534872	-1.2190309739	 0.286957
88.627	133.7774	209.2687	258.956	280.5579	327.7636	382.7723	440.9778	488.5127	517.2418	618.9644	674.7733	819.4145	838.0521	862.5324	905.5238	920.932	943.3249	951.2223	989.3334	1043.7978	1055.4674	1071.632	1083.5657	1123.8792	1166.519	1178.0647	1210.4312	1225.4254	1247.445	1252.9279	1264.4035	1294.9159	1302.5979	1312.9727	1335.4625	1369.2381	1448.2448	1464.2259	1489.5227	1522.1139	2961.2026	2988.5502	3069.0214	3073.0228	3092.3354	3116.0436	3122.1118	3126.2483	3765.2847	3829.2117
OCC1CC2OC1C2O	OC[C@H]1C[C@@H]2O[C@H]1[C@H]2O	
InChI=1S/C6H10O3/c7-2-3-1-4-5(8)6(3)9-4/h3-8H,1-2H2	InChI=1S/C6H10O3/c7-2-3-1-4-5(8)6(3)9-4/h3-8H,1-2H2/t3-,4+,5+,6-/m1/s1
