19
gdb 58546	2.31374	1.42067	1.19067	2.2174	72.18	-0.2472	-0.026	0.2212	1140.3167	0.155307	-460.160858	-460.150834	-460.149889	-460.195685	36.203	
C	 0.3271307202	 1.4203370974	 0.2580419132	-0.421584
C	-0.0279415717	-0.0322676062	-0.0612759629	 0.100389
O	-1.4293165949	-0.2426900976	-0.1546192557	-0.430924
C	 0.5641619816	-0.5045094432	-1.4031695196	 0.290456
C	-0.0368159677	 0.1663232794	-2.6279455177	-0.442135
O	 2.020517311	-0.3994860584	-1.3591044505	-0.333404
C	 2.2376103313	-1.8227459521	-1.4167971345	-0.197161
C	 0.721627859	-2.0373466364	-1.5006726115	 0.307551
O	-0.0076165508	-2.9722612138	-1.6177143084	-0.275744
H	 1.4108356842	 1.5608206829	 0.2370645638	 0.142449
H	-0.1366638657	 2.1038275289	-0.4583203841	 0.127402
H	-0.0322587153	 1.6833779927	 1.2592908841	 0.107299
H	 0.4032103883	-0.6740954404	 0.7248185815	 0.067515
H	-1.8254650759	-0.0085077132	 0.6902874453	 0.288266
H	 0.1917381916	 1.2357559439	-2.628376905	 0.129708
H	 0.3720265684	-0.2677361851	-3.5442418557	 0.120204
H	-1.1207326216	 0.03586311	-2.6222556644	 0.156442
H	 2.8053035782	-2.135702746	-2.3021102685	 0.132792
H	 2.7222248698	-2.2234204625	-0.5173609093	 0.130479
71.2015	95.5032	137.6182	184.5944	217.4042	226.3617	263.3092	264.4934	291.2353	385.6053	394.2597	488.7143	534.7286	561.2938	695.7834	720.706	862.5742	875.6408	933.5301	965.7128	1011.5217	1030.8048	1040.097	1093.5593	1108.9756	1138.7969	1145.611	1190.1333	1224.3023	1290.6333	1299.1191	1376.7531	1393.1925	1398.9895	1423.0732	1480.7196	1483.9989	1487.7246	1496.5213	1505.3888	1923.869	2959.2865	3017.2639	3037.3249	3050.8262	3063.0427	3105.8958	3118.8891	3133.7879	3146.2399	3825.3277
CC(O)C1(C)OCC1=O	C[C@@H](O)[C@@]1(C)OCC1=O	
InChI=1S/C6H10O3/c1-4(7)6(2)5(8)3-9-6/h4,7H,3H2,1-2H3	InChI=1S/C6H10O3/c1-4(7)6(2)5(8)3-9-6/h4,7H,3H2,1-2H3/t4-,6-/m1/s1
