21
gdb 71122	2.74852	1.80487	1.55072	1.4796	80.08	-0.2172	0.0775	0.2947	971.4242	0.185489	-387.10084	-387.093467	-387.092523	-387.132154	30.711	
C	-0.039042729	 1.5020630728	 0.0477279435	-0.462235
C	 0.0232261151	-0.0207474036	 0.0017148584	 0.212471
C	 0.8348423679	-0.5899454058	-1.1892351947	-0.236964
C	 1.0493067756	-2.0390608839	-0.7831862538	-0.107782
C	 0.9766432573	-2.0883293971	 0.7490699353	-0.107781
C	 0.7204030044	-0.6675725497	 1.225081121	-0.236966
C	-0.1384123714	-2.6477331088	-0.0904408352	 0.129858
O	-1.4011774488	-2.0371612184	-0.1307354071	-0.280649
C	-1.3944043625	-0.6112826425	-0.0844580097	-0.067805
H	 0.9669591475	 1.9302015765	 0.1092069277	 0.114543
H	-0.5214656206	 1.9088173536	-0.8481189908	 0.114686
H	-0.605234197	 1.8520224316	 0.9181755219	 0.114686
H	 0.2967695579	-0.4799671267	-2.138054335	 0.096763
H	 1.7953864629	-0.0695833676	-1.2879829454	 0.092439
H	 1.7288810206	-2.6674930617	-1.3482916022	 0.078313
H	 1.6016472721	-2.7537765025	 1.3344271958	 0.078314
H	 1.6657497742	-0.157552758	 1.4472819498	 0.092438
H	 0.0947649632	-0.616979395	 2.123909281	 0.096761
H	-0.2628612617	-3.7239581747	-0.1309368374	 0.09738
H	-1.986043635	-0.2933759245	 0.7867341453	 0.090762
H	-1.9021192229	-0.236288804	-0.9853892684	 0.090766
126.1771	215.1629	271.7159	283.9064	383.6856	405.0876	482.507	504.4192	556.9729	660.2308	685.4596	769.0049	784.4782	825.3824	887.7948	909.8711	925.2559	943.9173	961.0697	1001.6372	1026.6268	1030.8524	1049.1589	1074.4827	1082.0255	1097.7992	1151.2923	1175.289	1187.6307	1204.441	1208.2631	1281.1365	1298.6096	1308.5266	1316.3608	1331.5113	1347.9108	1406.0609	1420.7854	1442.0669	1487.8612	1493.638	1496.1425	1506.2594	1522.8782	2981.5657	3011.8556	3020.4506	3022.378	3029.0296	3063.1852	3064.3479	3090.4148	3096.5292	3161.8305	3166.1108	3181.0781
CC12CC3C(C1)C3OC2	C[C@@]12C[C@H]3[C@@H](C1)[C@H]3OC2	
InChI=1S/C8H12O/c1-8-2-5-6(3-8)7(5)9-4-8/h5-7H,2-4H2,1H3	InChI=1S/C8H12O/c1-8-2-5-6(3-8)7(5)9-4-8/h5-7H,2-4H2,1H3/t5-,6+,7-,8+
