13
gdb 9594	4.81609	1.37437	1.23974	2.3693	60.79	-0.2832	-0.073	0.2101	944.818	0.092693	-398.592765	-398.584828	-398.583884	-398.625138	27.532	
C	 0.1497009102	 1.4882171984	-0.0347381427	-0.480514
C	 0.0348901729	-0.0134799679	 0.0839917728	 0.231179
O	 1.2122985685	-0.777813752	-0.1316760786	-0.233962
C	 0.6752288326	-0.8116593333	 1.1827946609	-0.083175
C	 1.4441271557	-0.1379640645	 2.2838500351	 0.143019
O	 2.3112636236	 0.6778778468	 2.1117104669	-0.236643
C	-1.1739577977	-0.5903663223	-0.4903312362	 0.267513
N	-2.1477179649	-1.0205156384	-0.9398046236	-0.318704
H	 1.0747873641	 1.8251262745	 0.4323971232	 0.177096
H	 0.1594745981	 1.767945358	-1.0918912158	 0.155233
H	-0.7065700195	 1.9758451968	 0.4396665984	 0.145806
H	 0.1942796975	-1.749066645	 1.4634261956	 0.132178
H	 1.1313316991	-0.4587105609	 3.3008704339	 0.100973
107.2735	133.6287	180.0367	194.245	230.0825	282.1719	354.7203	394.0198	553.4641	591.6285	671.9296	750.369	835.0292	891.3228	931.5837	969.0992	1058.8554	1112.3096	1112.9901	1236.3437	1309.2938	1409.8756	1416.4459	1425.8691	1484.5047	1493.9253	1827.8086	2358.6432	2905.5203	3055.5955	3119.0253	3123.9987	3166.0851
CC1(OC1C=O)C#N	C[C@]1(O[C@H]1C=O)C#N	
InChI=1S/C5H5NO2/c1-5(3-6)4(2-7)8-5/h2,4H,1H3	InChI=1S/C5H5NO2/c1-5(3-6)4(2-7)8-5/h2,4H,1H3/t4-,5-/m0/s1
