20
gdb 117583	2.28556	0.96814	0.71603	3.1146	79.75	-0.2738	0.0329	0.3067	1577.7154	0.169982	-403.145227	-403.135189	-403.134245	-403.181122	35.623	
O	-0.1291928112	 1.4021011273	-0.2269464575	-0.419502
C	 0.0230179963	 0.0102102732	-0.0016251861	-0.09133
C	-1.3714896038	-0.6043652986	-0.0265133287	-0.176414
C	-1.3804480352	-2.1396576523	 0.1318914065	-0.184062
C	-0.774809846	-2.5438653069	 1.4099605714	 0.288057
N	-0.3054569255	-2.8532665979	 2.420129469	-0.335217
C	-2.7851401154	-2.7177439501	 0.0088394643	 0.034372
C	-3.3507523298	-3.0136779861	-1.3559447065	-0.279365
C	-2.9897249465	-4.144196662	-0.4238394283	-0.271271
H	 0.728906169	 1.8210356606	-0.1146100102	 0.289964
H	 0.6488086942	-0.4552619028	-0.7820885911	 0.085073
H	 0.5039817249	-0.191618369	 0.9668013145	 0.113977
H	-1.9759423343	-0.1481935317	 0.7646221505	 0.122795
H	-1.8508918786	-0.3608374292	-0.9799320088	 0.120299
H	-0.759689631	-2.5769026081	-0.6625387532	 0.118117
H	-3.478625756	-2.3320678968	 0.7504120333	 0.1028
H	-4.3984743994	-2.7994516456	-1.5329681112	 0.121795
H	-2.7137957716	-2.8459836671	-2.2187829144	 0.115899
H	-2.1099518973	-4.7339170939	-0.6597121034	 0.120606
H	-3.788609353	-4.7097384029	 0.0414593197	 0.123404
65.4311	86.7719	92.8032	126.9977	142.9483	222.0698	253.0016	306.2388	315.0608	396.7139	440.6997	532.469	608.5204	767.3597	789.1595	833.1447	859.0205	885.888	942.5297	975.3149	1024.2887	1062.7439	1063.5496	1084.2127	1089.2791	1107.1357	1138.5625	1165.2553	1196.2453	1219.8512	1228.0724	1250.0942	1285.2283	1310.8773	1333.8761	1350.0775	1410.5709	1467.7844	1472.618	1490.7565	1507.7526	1529.4289	2352.9391	2957.5714	3010.4894	3015.7584	3052.0501	3099.8778	3132.1137	3138.0368	3152.676	3211.7632	3226.815	3832.9666
OCCC(C#N)C1CC1	OCC[C@@H](C#N)C1CC1	
InChI=1S/C7H11NO/c8-5-7(3-4-9)6-1-2-6/h6-7,9H,1-4H2	InChI=1S/C7H11NO/c8-5-7(3-4-9)6-1-2-6/h6-7,9H,1-4H2/t7-/m0/s1
