14
gdb 18187	4.26313	1.921	1.55261	4.0808	65.94	-0.2469	-0.0155	0.2314	802.3141	0.108974	-341.568633	-341.562289	-341.561345	-341.599124	24.298	
N	-0.1077849672	-1.1963483971	-0.2033414083	-0.324887
C	-0.0523075073	-0.0461245117	-0.1090196101	 0.289555
C	-0.0001416442	 1.4153187365	 0.0277938861	-0.162091
C	-0.6357889297	 1.9157836038	 1.3212627258	-0.09038
C	 0.2300478254	 2.6767536877	 1.9859894	-0.074495
C	 1.5354283494	 2.7326680671	 1.2719605074	-0.064984
C	 2.2384140329	 1.4263035483	 1.1269151375	-0.236465
N	 1.3972446186	 1.9280277985	 0.0301423864	-0.101941
H	-0.5114599714	 1.8382705605	-0.8480956128	 0.141455
H	-1.6393838927	 1.6439333095	 1.6211505313	 0.127769
H	 0.0418622371	 3.1864122987	 2.9225400774	 0.12054
H	 2.0790831312	 3.6698708363	 1.1954960565	 0.10886
H	 3.296479513	 1.3988509697	 0.8841118049	 0.130125
H	 1.8773153249	 0.5953887723	 1.7272578679	 0.136938
122.7553	158.3746	315.9687	376.6178	476.6154	532.0046	555.1815	704.6154	754.7078	760.1714	804.6963	852.5721	910.4704	935.6188	964.3257	1009.731	1030.1024	1067.3211	1090.3001	1113.6063	1134.0264	1159.6419	1248.1325	1276.0156	1326.2779	1330.6749	1370.8416	1495.3595	1673.1639	2360.0009	3008.8399	3112.2069	3153.7859	3204.5549	3210.3337	3234.5985
N#CC1C=CC2CN12	N#C[C@H]1C=C[C@H]2CN12	
InChI=1S/C6H6N2/c7-3-5-1-2-6-4-8(5)6/h1-2,5-6H,4H2	InChI=1S/C6H6N2/c7-3-5-1-2-6-4-8(5)6/h1-2,5-6H,4H2/t5-,6+,8?/m1/s1
