21
gdb 104627	2.3567	1.27939	0.99778	1.5866	85.16	-0.2497	0.0327	0.2824	1306.8352	0.179451	-387.052699	-387.042622	-387.041678	-387.087784	37.541	
C	 0.3392689776	 1.4382449316	-0.1643607462	-0.388006
C	 0.0895793288	-0.0503571007	 0.0862864278	-0.228706
C	 0.6686346686	-0.5413618338	 1.4167081614	 0.22953
C	 0.8158547996	-2.081365499	 1.5876997416	-0.360186
C	 2.3181462149	-1.7863412456	 1.774425516	 0.17229
C	 3.3174699838	-2.4593835881	 0.8571300189	-0.40106
O	 2.1190227388	-0.3868945659	 1.4457075131	-0.325899
C	 0.0402019669	 0.1187949285	 2.5615563181	 0.35089
C	-0.487431556	 0.6460425866	 3.5047827949	-0.489999
H	 1.4112127023	 1.6526047057	-0.1374971885	 0.136376
H	-0.0465396157	 1.7359857799	-1.1436689498	 0.109447
H	-0.1493268946	 2.0536746355	 0.5964944396	 0.128667
H	-0.9849727595	-0.2714190697	 0.0765362361	 0.103885
H	 0.5509892941	-0.6460684757	-0.7095233585	 0.09582
H	 0.2915263136	-2.5212860391	 2.4351664682	 0.117468
H	 0.5791853811	-2.6353438914	 0.6762644964	 0.107438
H	 2.6403951732	-1.8827611205	 2.8203394176	 0.080079
H	 2.9972009933	-2.3910297044	-0.1870735364	 0.118166
H	 4.2987840686	-1.9827289069	 0.9470190117	 0.129322
H	 3.4269301621	-3.5170209759	 1.1216817079	 0.11682
H	-0.9456907415	 1.1178770387	 4.3387396302	 0.197658
47.3624	98.6767	152.1873	160.9711	200.9557	229.815	249.918	329.6843	365.5156	396.8299	426.1864	529.2835	567.2296	623.5047	634.3428	657.8517	755.3389	790.4373	872.4786	901.2674	911.9638	945.1062	953.8845	1017.1613	1044.4784	1078.7741	1104.8885	1138.4835	1176.5239	1195.255	1239.2266	1253.9142	1307.8271	1320.5213	1361.3897	1390.0712	1406.2656	1410.082	1470.6792	1481.8914	1485.7496	1494.8918	1495.8254	1509.4786	2227.4895	3006.104	3028.3909	3032.4984	3044.9068	3069.1158	3075.4941	3104.6569	3112.4594	3114.8596	3124.0709	3145.3908	3500.188
CCC1(CC(C)O1)C#C	CC[C@]1(C[C@@H](C)O1)C#C	
InChI=1S/C8H12O/c1-4-8(5-2)6-7(3)9-8/h1,7H,5-6H2,2-3H3	InChI=1S/C8H12O/c1-4-8(5-2)6-7(3)9-8/h1,7H,5-6H2,2-3H3/t7-,8+/m1/s1
