20
gdb 116394	2.48007	1.41223	0.94829	2.6495	77.35	-0.254	0.0177	0.2717	1263.5534	0.171604	-440.297795	-440.2889	-440.287956	-440.331868	33.068	
C	-0.0195949868	 1.5547321729	-0.0508427973	-0.391694
C	 0.0174733214	 0.0259257905	-0.1013077573	-0.182325
C	-1.373887897	-0.5962611567	-0.0410357028	 0.031818
O	-2.0991185945	-0.169749274	-1.1902253667	-0.255882
C	-3.3781784726	-0.7626542835	-1.2462004866	-0.094658
C	-3.2147816719	-2.2572169177	-1.4300736826	-0.076389
O	-2.4019713035	-2.8242962737	-0.3932777967	-0.258474
C	-1.3402598119	-2.1178793216	 0.0936247876	 0.376299
N	-0.4145005633	-2.6894699634	 0.7387535637	-0.50711
H	 0.9909172288	 1.9680707209	-0.1192136909	 0.11262
H	-0.61167316	 1.961541374	-0.8746827712	 0.130017
H	-0.4606764561	 1.9095845454	 0.8876964555	 0.11032
H	 0.5006591219	-0.3139587024	-1.0242959849	 0.105175
H	 0.5989641512	-0.3840608225	 0.7269652544	 0.134294
H	-1.8995798121	-0.2256720991	 0.8595320296	 0.092399
H	-3.9520581104	-0.5455664468	-0.3300914432	 0.099473
H	-3.9067935108	-0.3270966976	-2.0994041921	 0.117238
H	-4.1727659025	-2.782984468	-1.3851116153	 0.118133
H	-2.7432635683	-2.4611469397	-2.3998338488	 0.118586
H	-0.5858944118	-3.6965769469	 0.7795680057	 0.220161
59.8003	97.0933	142.998	191.3954	229.6217	321.5149	334.2229	402.1865	462.5613	468.3682	509.1305	600.2512	676.9516	761.9206	851.3003	900.6762	916.1064	926.4835	936.1368	985.7749	1038.6516	1063.5609	1119.8991	1127.0952	1147.3934	1164.5882	1175.1686	1266.6008	1280.722	1284.3546	1313.3989	1333.8042	1361.237	1393.624	1408.0219	1413.3228	1430.9746	1478.5269	1490.2552	1497.7586	1501.1713	1510.2035	1745.7397	2925.5725	2975.4687	3028.1596	3036.2008	3052.6605	3089.2605	3096.3771	3099.2527	3112.522	3129.7534	3459.8149
CCC1OCCOC1=N	CC[C@H]1OCCO[C]1[NH]	
InChI=1S/C6H11NO2/c1-2-5-6(7)9-4-3-8-5/h5,7H,2-4H2,1H3	InChI=1S/C6H11NO2/c1-2-5-6(7)9-4-3-8-5/h5,7H,2-4H2,1H3/t5-/m1/s1
