17
gdb 34089	3.39435	1.55573	1.33051	1.8977	77.66	-0.2394	0.035	0.2744	985.7903	0.136405	-384.622977	-384.615823	-384.614879	-384.65424	29.221	
C	 0.0981714042	-1.1634346426	 0.0077655739	-0.337295
C	 0.0573139151	 0.037117901	-0.010270073	 0.147186
C	-0.0378410867	 1.4786529711	-0.0265956533	 0.27484
C	-1.0124279645	 2.169123328	 1.0024061511	-0.281941
C	-1.4764953967	 3.0809220197	-0.1334681339	-0.082528
C	-0.2806060685	 3.5709181265	-0.9354786014	-0.081786
C	 1.1020650507	 3.4554684167	-0.3070423878	-0.112098
O	 1.258991959	 2.0713951785	 0.0266843502	-0.305508
C	-0.8142200207	 2.194058426	-1.1758033463	-0.126367
H	 0.146401333	-2.2241700861	 0.0227253206	 0.187884
H	-1.8011659675	 1.4833751326	 1.3185822029	 0.117608
H	-0.5308389862	 2.6096065457	 1.8809437184	 0.10232
H	-2.4339279669	 3.5835543687	-0.1940373989	 0.090709
H	-0.4670422529	 4.3450846452	-1.6702400344	 0.097418
H	 1.894404254	 3.7335246998	-1.0113478854	 0.109296
H	 1.2096146468	 4.0760873085	 0.5930385666	 0.101134
H	-1.1605850423	 1.7738963207	-2.1091557794	 0.099129
144.9512	150.4474	236.2119	388.1055	405.6834	488.9325	512.1385	549.0728	621.4129	663.6536	669.347	731.3024	748.4129	785.7284	832.9989	912.8299	934.7146	950.6007	978.8434	999.8977	1016.169	1033.6235	1050.0986	1070.9668	1080.9777	1134.2435	1152.4656	1204.3379	1219.8898	1240.9117	1303.2628	1309.692	1361.268	1399.2057	1487.5809	1525.3178	2246.8686	3007.8512	3051.4411	3056.0451	3117.56	3184.0852	3192.2951	3220.3507	3502.8672
C#CC12CC3C(CO1)C23	C#C[C@@]12C[C@H]3[C@@H](CO1)[C@@H]23	
InChI=1S/C8H8O/c1-2-8-3-5-6(4-9-8)7(5)8/h1,5-7H,3-4H2	InChI=1S/C8H8O/c1-2-8-3-5-6(4-9-8)7(5)8/h1,5-7H,3-4H2/t5-,6+,7-,8-/m0/s1
