19
gdb 122040	2.66983	0.7909	0.63337	1.3948	80.08	-0.2551	-0.0348	0.2203	1742.4939	0.154778	-422.985166	-422.974351	-422.973407	-423.022678	36.651	
C	-0.0111343703	 1.3871592168	-0.0071495682	-0.231891
O	-0.0251094076	-0.0203968243	 0.0379181897	-0.233064
C	 0.7102425069	-0.541848775	 1.1202978226	-0.065646
C	 0.6163537985	-2.0625021595	 1.0533824737	-0.217965
C	 1.3872094014	-2.7636558478	 2.2036172876	-0.259332
C	 0.6868773848	-2.4791321876	 3.5378841692	 0.170646
O	 1.1036556662	-1.7216902517	 4.3713296104	-0.244214
C	 1.4540156911	-4.2059011127	 2.001362843	 0.286854
C	 1.4691825852	-5.3999485235	 1.8640856355	-0.420886
H	 1.0108125675	 1.782168685	-0.1207493708	 0.105966
H	-0.6056909852	 1.6918628655	-0.8715926777	 0.12907
H	-0.4498024694	 1.8295353259	 0.9011086157	 0.107786
H	 1.7657494772	-0.222236385	 1.06430784	 0.091447
H	 0.3149848848	-0.1626736843	 2.0774303916	 0.103215
H	-0.4366619078	-2.3646052431	 1.0774535348	 0.123315
H	 1.0213881512	-2.4080061859	 0.0982520453	 0.130614
H	 2.3968883222	-2.3426124483	 2.2780219594	 0.125904
H	-0.2723608601	-3.0282931029	 3.6648853954	 0.094771
H	 1.5033613634	-6.4535337119	 1.7339762429	 0.20341
48.2479	59.4855	74.5607	100.8299	127.2529	174.0179	217.505	230.9963	285.415	372.9854	411.2626	458.1253	505.714	576.3318	637.3369	652.8506	784.6111	928.4388	956.8022	966.4461	1022.2932	1067.074	1084.8971	1133.9807	1165.3052	1181.0477	1218.6663	1227.3797	1273.2345	1287.0026	1314.7972	1343.2912	1414.2174	1432.4351	1482.2349	1485.864	1491.8482	1505.7403	1531.2758	1836.7252	2235.8354	2891.0253	2949.9657	2972.6941	2984.4479	3016.5299	3043.4808	3054.56	3102.6814	3116.7932	3503.2686
COCCC(C=O)C#C	COCC[C@@H](C=O)C#C	
InChI=1S/C7H10O2/c1-3-7(6-8)4-5-9-2/h1,6-7H,4-5H2,2H3	InChI=1S/C7H10O2/c1-3-7(6-8)4-5-9-2/h1,6-7H,4-5H2,2H3/t7-/m0/s1
