22
gdb 120009	2.35406	1.05848	0.7886	2.6606	83.85	-0.2195	-0.0204	0.1991	1517.188	0.192079	-404.342573	-404.332415	-404.331471	-404.378142	36.782	
C	-0.5521663412	 1.8060178112	-0.333551793	-0.381821
C	-0.3705274123	 0.2857234081	-0.3136589385	-0.178125
C	-1.6617284887	-0.4574247085	 0.0532509194	-0.18502
C	-1.5528699628	-1.9905789744	 0.0223018946	-0.104675
N	-1.0265660715	-2.7397422606	 1.2036596124	-0.082293
C	-0.1726582161	-2.1227926378	 2.1929593629	-0.326469
C	-2.3586670818	-3.2136877544	 1.6240715256	-0.292234
C	-2.8989618179	-2.6867306637	 0.2896892356	 0.391104
O	-3.9398166334	-2.749003566	-0.2928132435	-0.29469
H	 0.3775460645	 2.3140668698	-0.6074521919	 0.1147
H	-1.3207778173	 2.1030080662	-1.0555678762	 0.118455
H	-0.8598203446	 2.1814786832	 0.6487580989	 0.115474
H	-0.0319909217	-0.0586224679	-1.2994802474	 0.101343
H	 0.4277802556	 0.0237760667	 0.3900410295	 0.102027
H	-2.0231705383	-0.1243269534	 1.0349268843	 0.098282
H	-2.4463987869	-0.1865478889	-0.6655356855	 0.118899
H	-1.0653502222	-2.2983609663	-0.9134705766	 0.097467
H	-0.6065843497	-1.2292401933	 2.678361898	 0.095301
H	 0.0419707845	-2.8524532638	 2.9810272753	 0.124854
H	 0.7829162838	-1.8371872646	 1.7427583989	 0.127862
H	-2.4394453168	-4.2900516584	 1.8147016268	 0.127813
H	-2.8020455153	-2.6714900732	 2.4781434803	 0.111745
73.3817	81.0184	109.351	126.0088	221.7588	241.4	250.2552	255.7693	308.3469	349.3893	413.8375	550.4606	562.5729	616.8843	722.1588	774.2895	815.981	883.5979	916.5125	966.2787	1005.6134	1033.8846	1066.4923	1085.361	1100.1224	1119.6693	1131.496	1160.4312	1197.0313	1222.1062	1255.5334	1266.2215	1300.9607	1315.0743	1332.3477	1357.2167	1390.7628	1413.7602	1452.4726	1474.3788	1475.5868	1489.4057	1496.9995	1499.4544	1506.2121	1509.5073	1914.0842	2933.702	2953.2847	3003.9282	3016.8361	3027.2852	3031.3298	3048.3405	3053.5315	3058.688	3070.0003	3098.5209	3101.23	3104.658
CCCC1N(C)CC1=O	CCC[C@H]1N(C)CC1=O	
InChI=1S/C7H13NO/c1-3-4-6-7(9)5-8(6)2/h6H,3-5H2,1-2H3	InChI=1S/C7H13NO/c1-3-4-6-7(9)5-8(6)2/h6H,3-5H2,1-2H3/t6-/m1/s1
