16
gdb 123907	3.5298	1.59609	1.14079	4.6097	71.11	-0.1982	0.0109	0.2091	1016.5031	0.128534	-434.051479	-434.044659	-434.043715	-434.08262	27.169	
C	-0.0061025062	 1.4621296975	 0.0042116866	-0.171138
C	 1.4716533915	 1.9328389151	-0.0130351285	-0.180832
N	 2.2399253374	 1.5018417749	 1.1592663917	-0.397074
C	 1.9411859274	 0.1529163225	 1.4642395693	 0.068297
C	 0.8897272113	-0.5259655316	 0.9114538476	 0.462306
N	-0.128787722	 0.0056113408	 0.1593597022	-0.403193
O	 0.9265120039	-1.8221202531	 1.2352166314	-0.238707
N	 2.0560475201	-2.0366161129	 2.0644678567	-0.16454
C	 2.6325205695	-0.8621448187	 2.1728100385	-0.047396
H	-0.5277776734	 1.9485255447	 0.838157269	 0.117747
H	-0.5123513679	 1.760492044	-0.9172979116	 0.115992
H	 1.9595936529	 1.52527562	-0.9069566402	 0.118525
H	 1.5089580912	 3.0232681351	-0.0816781928	 0.110629
H	 2.0828195398	 2.1201281471	 1.9481213252	 0.231319
H	-0.3771952997	-0.5147126746	-0.6705872336	 0.252004
H	 3.537240254	-0.7807555608	 2.7597960384	 0.126061
115.997	233.8725	294.2006	357.5851	413.0475	453.369	513.7952	531.7287	620.1982	691.7892	706.5386	735.9348	790.3133	863.9504	878.4806	907.9913	949.828	960.298	1041.2827	1045.5679	1129.3553	1199.9923	1227.3461	1259.8284	1283.2932	1321.8796	1368.2226	1386.2159	1419.2176	1453.1177	1463.293	1481.7264	1490.1392	1559.6267	1682.7827	3023.9099	3036.2438	3100.138	3102.1163	3236.6021	3509.0693	3579.8772
C1CNC2=C(N1)ON=C2	C1CNc2c(N1)onc2	
InChI=1S/C5H7N3O/c1-2-7-5-4(6-1)3-8-9-5/h3,6-7H,1-2H2	InChI=1S/C5H7N3O/c1-2-7-5-4(6-1)3-8-9-5/h3,6-7H,1-2H2
