21
gdb 82797	3.60061	1.55893	1.45455	0.2731	85.75	-0.2261	0.0209	0.247	999.7836	0.186321	-349.94857	-349.941677	-349.940732	-349.979347	29.733	
C	-0.2070165309	 1.6072075214	-0.0006246542	-0.438234
C	 0.0525679881	 0.106434287	-0.0045872759	 0.046841
C	 1.1200204721	-0.5718405181	-0.9198569791	-0.061119
C	 2.3945986076	 0.1847624239	-0.5368980067	-0.216764
C	 2.3532028376	-0.1187707472	 1.0154394938	-0.071093
C	 3.1179592008	-1.4217949676	 1.1640717733	-0.086256
C	 2.4003484405	-2.3846730702	 0.5726487315	-0.10354
C	 1.0949265326	-1.7830620797	 0.1454811127	-0.045445
C	 0.8593909266	-0.5892493108	 1.1143987476	-0.032316
H	 0.6868011161	 2.1947855273	 0.2261695446	 0.116414
H	-0.5924784357	 1.9463417372	-0.9690429899	 0.112965
H	-0.9591151542	 1.8584791138	 0.7558013624	 0.113387
H	-0.9017127281	-0.4202623431	-0.1232830128	 0.065612
H	 0.9337521045	-0.7577144769	-1.9779051856	 0.056076
H	 3.3020674385	-0.2074115876	-1.0004854918	 0.092882
H	 2.3246130694	 1.2495798532	-0.7701034062	 0.094763
H	 2.6629481557	 0.7050573627	 1.6585186263	 0.056882
H	 4.131412763	-1.4960620601	 1.5402224394	 0.090339
H	 2.7032917688	-3.4086232745	 0.3913788996	 0.091421
H	 0.2499413388	-2.4534144303	-0.0130055357	 0.061455
H	 0.4688797082	-0.7485340204	 2.1218130565	 0.055732
170.0435	199.0325	270.6007	384.8386	422.6502	513.2455	530.283	622.5382	712.3182	724.2159	757.9089	777.6577	811.7101	843.5657	862.4072	884.153	932.6815	937.268	951.1879	964.2711	984.6623	995.0088	1018.4559	1069.2319	1075.9719	1079.2809	1120.0571	1131.193	1148.1465	1172.7426	1194.916	1196.4752	1241.3764	1266.4516	1278.0955	1305.1384	1315.2636	1325.5841	1356.5881	1404.2704	1418.8591	1491.2348	1495.2009	1516.0058	1638.7845	3028.1375	3035.1321	3070.0959	3086.3619	3090.4123	3105.4677	3107.4975	3108.1912	3117.1319	3117.4776	3190.8862	3216.9393
CC1C2CC3C=CC2C13	C[C@H]1[C@H]2C[C@@H]3C=C[C@H]2[C@H]13	
InChI=1S/C9H12/c1-5-8-4-6-2-3-7(8)9(5)6/h2-3,5-9H,4H2,1H3	InChI=1S/C9H12/c1-5-8-4-6-2-3-7(8)9(5)6/h2-3,5-9H,4H2,1H3/t5-,6-,7+,8+,9+/m0/s1
