16
gdb 14845	2.93144	1.71152	1.20693	4.2023	65.26	-0.2394	-0.0001	0.2393	1000.784	0.130666	-379.893317	-379.885157	-379.884213	-379.926463	28.578	
C	-0.0966622001	 1.5741920525	-0.1996844893	-0.32507
N	-0.1935371505	 0.2637377363	 0.431807437	-0.28477
C	-1.3634528606	-0.4828730354	 0.0915919063	 0.000781
C	-1.541526682	-1.2373544642	-1.2625076812	-0.101246
O	-1.8989670235	-2.4544472454	-0.5616431411	-0.268323
C	-1.5156100968	-1.9075612065	 0.7098427359	-0.050079
C	-0.2646567437	-2.4897161185	 1.213507662	 0.290199
N	 0.7352188935	-2.9313184915	 1.5896201123	-0.327971
H	 0.82253951	 2.0650433249	 0.1301804837	 0.132595
H	-0.095857518	 1.5522959196	-1.3026897476	 0.105
H	-0.9403817491	 2.1957169445	 0.1205702717	 0.128248
H	 0.6473851327	-0.2809347633	 0.272060109	 0.236891
H	-2.2454753699	 0.1225580282	 0.3205153917	 0.10698
H	-2.3433169589	-0.9093095706	-1.9308924219	 0.116074
H	-0.609382812	-1.3548922114	-1.8311642889	 0.109485
H	-2.2974381912	-2.0300635192	 1.4664905106	 0.131207
84.1814	99.6248	115.8564	203.8936	227.5717	277.4753	389.1181	425.1801	531.9475	602.5678	713.0502	799.7782	826.2939	890.6247	977.4424	1018.5647	1023.0405	1049.7044	1062.3373	1151.6659	1157.0118	1164.5011	1219.4466	1262.8413	1271.4619	1326.4089	1350.7115	1376.0194	1462.7985	1491.9217	1506.7599	1516.7068	1529.2705	2351.0104	2961.3512	3015.4239	3058.0539	3061.4848	3069.1814	3088.7281	3114.2107	3530.4025
CNC1COC1C#N	CN[C@H]1CO[C@H]1C#N	
InChI=1S/C5H8N2O/c1-7-4-3-8-5(4)2-6/h4-5,7H,3H2,1H3	InChI=1S/C5H8N2O/c1-7-4-3-8-5(4)2-6/h4-5,7H,3H2,1H3/t4-,5-/m0/s1
