14
gdb 48336	2.36574	1.4271	1.04618	2.66	70.38	-0.2644	-0.0735	0.1909	1116.4556	0.099285	-432.867015	-432.85848	-432.857535	-432.900888	30.341	
N	-0.207808737	 0.8164768909	 1.0675959517	-0.528505
C	-0.0952252542	-0.0880115359	 0.2018502454	 0.416132
C	-1.1191025138	-0.9814993999	-0.4943314269	-0.369667
C	 0.1112564899	-1.7360883968	-1.092612169	 0.089346
N	 0.9644965273	-0.6802194169	-0.5086825682	-0.363665
C	 0.3893912972	-3.1043523925	-0.4347530668	 0.123756
O	-0.2890384899	-3.5711610731	 0.435916572	-0.217256
C	 0.2090179349	-1.8558469828	-2.5475973256	 0.244097
N	 0.2942411315	-2.003747785	-3.690650433	-0.313377
H	 0.6929704355	 1.2059992296	 1.348640534	 0.222633
H	-1.7187136541	-1.600924655	 0.1714532193	 0.172462
H	-1.7439616833	-0.4781868818	-1.2314165704	 0.15567
H	 1.9273125202	-0.7895253889	-0.2163478393	 0.254294
H	 1.3088705359	-3.6053220118	-0.8048998432	 0.114079
57.9547	84.3543	162.9086	178.5072	261.6423	316.4851	369.78	430.5493	490.1873	511.0581	535.1433	576.4133	683.4715	780.2255	845.0226	884.7546	950.6521	970.7552	1025.7781	1056.8046	1088.2643	1142.7227	1194.5176	1229.9421	1284.4354	1343.168	1413.2242	1449.9574	1817.4259	1840.8391	2354.2777	2914.8607	3108.2548	3175.3387	3474.8533	3576.5103
N=C1CC(N1)(C=O)C#N	[NH][C]1C[C@@](N1)(C=O)C#N	
InChI=1S/C5H5N3O/c6-2-5(3-9)1-4(7)8-5/h3H,1H2,(H2,7,8)	InChI=1S/C5H5N3O/c6-2-5(3-9)1-4(7)8-5/h3H,1H2,(H2,7,8)/t5-/m0/s1
