17
gdb 75535	2.34652	1.64964	1.01828	2.7752	72.05	-0.2523	-0.0057	0.2466	1143.0752	0.137521	-455.200585	-455.192353	-455.191408	-455.233747	30.41	
C	-0.0363646489	 1.5403738588	 0.0134482801	-0.469265
C	 0.0215979759	 0.0350636333	-0.1079648564	 0.37285
N	-0.1485179392	-0.4972238367	-1.2465033601	-0.275541
C	-0.0943597503	-1.9276837125	-1.4551985298	-0.170516
C	 0.8260629236	-2.7085816003	-0.529453586	-0.100322
O	 0.2763941072	-2.8957512693	 0.7817193756	-0.227732
C	 0.1797528025	-1.8731447787	 1.6419295063	 0.462753
O	 0.0347476152	-2.0623158925	 2.8214847425	-0.37199
N	 0.2713108268	-0.5689176096	 1.1406742817	-0.41848
H	 0.894639471	 1.9359406611	 0.4352135476	 0.137043
H	-0.1947526211	 1.9690308447	-0.9742805839	 0.156143
H	-0.85526502	 1.8470413399	 0.6746200385	 0.139135
H	-1.105588818	-2.3523813514	-1.3861435719	 0.127876
H	 0.2381789378	-2.0989991499	-2.4868979581	 0.115672
H	 0.9685237303	-3.7237161026	-0.9063259927	 0.131568
H	 1.8073364584	-2.2255272895	-0.4544096875	 0.126537
H	 0.2683081187	 0.0732548051	 1.9204444143	 0.26427
82.164	112.1455	157.8695	220.1742	294.8632	319.5388	377.7465	416.5503	517.8695	586.1288	628.648	655.3203	677.4103	775.7828	823.3543	886.5681	951.327	968.0376	1030.1328	1054.3329	1098.8756	1125.679	1143.1815	1228.1953	1257.8566	1268.4066	1323.4223	1386.3262	1401.5063	1420.5204	1470.7074	1478.0903	1485.8975	1496.5752	1504.1111	1773.4324	1840.7427	3014.3534	3034.446	3038.4357	3053.1984	3089.9968	3114.5748	3172.4316	3607.7447
CC1=NCCOC(=O)N1	CC1=NCCOC(=O)N1	
InChI=1S/C5H8N2O2/c1-4-6-2-3-9-5(8)7-4/h2-3H2,1H3,(H,6,7,8)	InChI=1S/C5H8N2O2/c1-4-6-2-3-9-5(8)7-4/h2-3H2,1H3,(H,6,7,8)
