18
gdb 8816	2.85462	1.44858	1.10477	2.1039	73.86	-0.2413	-0.016	0.2253	1131.5991	0.149971	-347.797651	-347.78793	-347.786986	-347.832901	34.23	
C	-0.1122718331	 1.5944324682	 0.5391039293	-0.381026
C	 0.0556400025	 0.2664809382	 1.2717800219	-0.283881
C	 1.0235887502	-0.6790213274	 0.5883595865	 0.386735
O	 1.523672014	-0.4404860451	-0.4853801374	-0.306121
C	 1.4247980144	-1.9829512374	 1.323015445	-0.257329
C	 2.8254759419	-1.7694981795	 1.9518573268	-0.390084
C	 0.4581961225	-2.4500319397	 2.3094672662	 0.326056
C	-0.3229419169	-2.8454523145	 3.1337836489	-0.469881
H	-0.457843973	 1.4323185451	-0.4847540686	 0.134085
H	-0.8371661907	 2.2302369969	 1.0547397699	 0.110636
H	 0.8376632593	 2.1324524916	 0.4784420509	 0.127875
H	 0.3910658421	 0.4087078549	 2.3079930477	 0.126678
H	-0.9005374412	-0.2645563564	 1.3692395176	 0.139995
H	 1.5257907233	-2.7348508641	 0.5316801093	 0.132922
H	 2.7914020806	-1.0018880718	 2.7304787713	 0.128572
H	 3.1794298257	-2.6975978605	 2.4063557953	 0.1335
H	 3.5288443505	-1.4579632336	 1.1763446048	 0.141238
H	-1.020104532	-3.196143395	 3.8541023245	 0.200029
28.2918	78.4629	133.6792	177.7662	197.441	229.6125	249.1342	268.8386	361.2177	476.811	519.5528	567.8588	618.2236	633.656	650.4408	737.6496	799.4769	880.4041	967.4139	1002.5098	1026.098	1084.5315	1097.2099	1120.4444	1167.3541	1263.4762	1284.2403	1319.6911	1373.12	1399.7006	1413.6957	1440.2576	1492.0284	1495.0384	1497.2063	1497.7808	1806.6116	2232.5308	3028.5274	3043.7139	3049.1578	3050.7487	3053.2291	3120.97	3124.8942	3127.7735	3138.5955	3502.4326
CCC(=O)C(C)C#C	CCC(=O)[C@@H](C)C#C	
InChI=1S/C7H10O/c1-4-6(3)7(8)5-2/h1,6H,5H2,2-3H3	InChI=1S/C7H10O/c1-4-6(3)7(8)5-2/h1,6H,5H2,2-3H3/t6-/m0/s1
