20
gdb 74584	4.07171	1.32577	1.18235	1.7908	84.19	-0.2027	0.0123	0.215	1126.6299	0.171637	-365.989038	-365.980985	-365.980041	-366.021101	31.99	
C	 0.0628268452	 1.5101216475	 0.0840998954	-0.501917
C	 0.0644099776	 0.0205174	-0.0129409923	 0.332448
C	-0.0579384439	-0.7647940018	-1.0871356132	-0.191552
C	-0.061894919	-2.1857233937	-0.6469428945	-0.113107
N	 0.5132833605	-2.2637518356	 0.7207446272	-0.174254
C	 0.0313717471	-0.8886426944	 1.198341122	-0.104317
C	-1.4155200093	-1.4597273246	 1.3547960563	-0.300316
C	-0.9374588923	-2.6291315636	 0.5035974492	 0.337656
C	-1.4529740137	-4.0337737252	 0.6181892686	-0.491645
H	 0.9532739829	 1.8729425333	 0.613040273	 0.12928
H	 0.0383123958	 1.9767582361	-0.9042437411	 0.126799
H	-0.8041744502	 1.8746531692	 0.6505622645	 0.128465
H	-0.1615706875	-0.4504571605	-2.1179963251	 0.095882
H	 0.2634230736	-2.9701761565	-1.3248448151	 0.084148
H	 0.5324581742	-0.5281281322	 2.0972096862	 0.072501
H	-1.5992257669	-1.7973288085	 2.3778804504	 0.10833
H	-2.2575338648	-0.8491281149	 1.0132060999	 0.093834
H	-2.4567000258	-4.1153710513	 0.1845599685	 0.1206
H	-0.799132961	-4.7343608116	 0.0900043272	 0.126129
H	-1.5110647125	-4.3504701018	 1.6654825229	 0.121037
141.3564	173.7327	181.2741	214.8155	307.2621	333.438	364.2966	464.3823	547.2063	569.8834	648.7127	744.8346	765.5274	796.2055	825.6699	855.3839	875.0819	927.0857	948.8165	964.0871	999.8363	1031.3063	1051.4576	1061.9834	1085.6846	1092.4005	1144.6801	1192.9348	1220.5238	1228.0697	1265.5619	1285.8166	1311.6629	1341.9565	1395.6842	1413.0545	1417.4628	1477.898	1481.1725	1487.4634	1490.5247	1492.0474	1706.5488	3015.1037	3025.344	3043.6856	3059.5905	3087.3381	3099.2062	3105.4994	3108.7025	3111.3119	3147.4858	3211.9847
CC1=CC2N3C1CC23C	CC1=C[C@H]2N3[C@@H]1C[C@@]23C	
InChI=1S/C8H11N/c1-5-3-7-8(2)4-6(5)9(7)8/h3,6-7H,4H2,1-2H3	InChI=1S/C8H11N/c1-5-3-7-8(2)4-6(5)9(7)8/h3,6-7H,4H2,1-2H3/t6-,7-,8+,9?/m1/s1
