18
gdb 5639	3.11737	1.91797	1.31391	4.115	73.83	-0.21	0.0355	0.2455	969.0236	0.155161	-344.033343	-344.025221	-344.024276	-344.066095	29.499	
C	-0.0363626183	 1.5762950204	-0.0034044946	-0.37493
C	 0.0257729484	 0.0463464511	-0.0216219051	-0.161409
N	 0.7129824847	-0.4879220887	-1.1871417851	-0.035819
C	 0.1232762979	-0.8565204933	-2.3647214524	-0.005776
N	 0.9955408039	-1.2514525523	-3.261116261	-0.276449
C	 2.2158305411	-1.1303225734	-2.6391155284	-0.161879
C	 2.0782504935	-0.6600127488	-1.3568009417	 0.269264
C	 3.0857851296	-0.3846939113	-0.2925276056	-0.508696
H	 0.9659773308	 2.0130319869	 0.0162758784	 0.133075
H	-0.5522309232	 1.9522292791	-0.8914507468	 0.134196
H	-0.5770773116	 1.9217019404	 0.8832067572	 0.122543
H	 0.5265951239	-0.3261425687	 0.8773026738	 0.123046
H	-0.9853701033	-0.3722400668	-0.0170078639	 0.12505
H	-0.9491955423	-0.818438036	-2.4940071281	 0.118596
H	 3.1345774268	-1.3956953239	-3.1417547503	 0.100676
H	 3.1102038676	 0.6699450958	 0.0085983907	 0.128676
H	 2.9097179357	-0.9775158202	 0.6139646178	 0.129199
H	 4.0808086148	-0.6425358604	-0.6628995648	 0.14064
67.0841	125.6236	162.1007	203.6222	247.2793	280.9595	394.3369	412.4213	632.2782	656.7556	681.4006	702.5224	794.1661	802.1532	836.6136	930.8767	967.0043	1007.6979	1064.6993	1096.0958	1107.9588	1149.0375	1208.9101	1257.236	1286.3147	1296.4354	1389.2902	1402.9741	1411.3594	1419.0136	1423.8928	1479.513	1484.6494	1487.3327	1491.4446	1506.0937	1534.1352	1602.1293	3016.6962	3043.6339	3053.4946	3060.0501	3090.7273	3118.0219	3120.2637	3126.612	3235.0822	3239.8942
CCN1C=NC=C1C	CCn1cncc1C	
InChI=1S/C6H10N2/c1-3-8-5-7-4-6(8)2/h4-5H,3H2,1-2H3	InChI=1S/C6H10N2/c1-3-8-5-7-4-6(8)2/h4-5H,3H2,1-2H3
