19
gdb 77231	3.39366	0.92092	0.79841	1.3256	77.7	-0.2512	-0.0441	0.2071	1421.7409	0.156548	-423.034929	-423.025348	-423.024404	-423.070501	33.758	
C	-0.6792644337	 1.1005469736	-0.0081449313	-0.420426
C	-0.0369459867	-0.2607405531	 0.212402877	 0.00693
C	 1.2558633373	-0.6351646347	-0.5852941431	-0.072907
C	 1.7607775475	-1.368471574	 0.6916261567	-0.276466
C	 0.7179369188	-0.5920749699	 1.5523686236	-0.11428
C	 1.3130494364	 0.6138739902	 2.2307610993	 0.170826
O	 1.0389517593	 0.9741141336	 3.3468928442	-0.254135
C	 1.0625754332	-1.4633505046	-1.8240791968	 0.152188
O	 1.4576891211	-1.178182787	-2.9247470234	-0.246271
H	 0.0416744719	 1.9163673982	 0.1020889369	 0.125725
H	-1.1029062823	 1.1676265894	-1.0155835018	 0.130454
H	-1.4888899289	 1.2703932969	 0.7092493223	 0.133885
H	-0.7838387658	-1.0487210805	 0.0588269805	 0.091613
H	 1.8557629525	 0.244526914	-0.831556992	 0.095373
H	 1.5341432234	-2.437997344	 0.6662888562	 0.119961
H	 2.8163039183	-1.2416447045	 0.9425957069	 0.12261
H	 0.1509286272	-1.1567754248	 2.2945584655	 0.09396
H	 2.0596119295	 1.1755283889	 1.6203524546	 0.073749
H	 0.4898212511	-2.4067723177	-1.6452422852	 0.067211
54.2329	65.1317	69.054	201.3481	207.7178	242.4028	270.7686	299.1465	373.2788	407.2403	482.7182	529.9845	673.4061	785.2672	868.5858	877.8373	906.0777	956.3501	968.1424	1016.7473	1064.7187	1083.158	1093.8027	1121.7971	1166.9633	1177.9172	1224.8129	1245.5853	1261.394	1275.1453	1297.0919	1342.1247	1373.1378	1414.1357	1429.0047	1438.1275	1483.5114	1492.0599	1495.85	1827.9231	1831.1624	2831.1391	2847.7147	3032.8881	3035.1539	3061.476	3084.8613	3098.6146	3104.3013	3107.5015	3117.9812
CC1C(CC1C=O)C=O	C[C@H]1[C@@H](C[C@H]1C=O)C=O	
InChI=1S/C7H10O2/c1-5-6(3-8)2-7(5)4-9/h3-7H,2H2,1H3	InChI=1S/C7H10O2/c1-5-6(3-8)2-7(5)4-9/h3-7H,2H2,1H3/t6-,7-/m0/s1
