20
gdb 6580	4.04295	1.80279	1.56822	0.1252	79.64	-0.2201	0.0179	0.238	916.9919	0.176988	-311.849412	-311.841805	-311.840861	-311.880401	31.137	
C	-0.0163369473	 1.5549828871	 0.0372684195	-0.507266
C	 0.0235487959	 0.044102499	 0.0277777628	 0.300629
C	 0.9786099498	-0.7813424383	-0.9077795262	-0.27308
C	 0.6216238301	-1.9311844585	 0.1017438207	 0.300629
C	 1.4252471936	-3.2062046409	 0.2155570333	-0.507266
C	 0.6462717924	-0.8031902391	 1.1952467939	-0.273077
C	-0.8987517477	-2.0181521383	-0.13952399	-0.126036
C	-1.2850054622	-0.7425506765	-0.1871113121	-0.126037
H	 0.980746076	 1.9781292916	 0.1973566673	 0.112254
H	-0.3958714279	 1.9474362414	-0.913217593	 0.115714
H	-0.668745207	 1.9291865246	 0.8346558417	 0.115733
H	 0.6749561645	-0.9123218922	-1.9499491078	 0.085691
H	 2.0255932268	-0.4619336827	-0.8433148311	 0.082675
H	 2.4860972355	-2.9939493729	 0.384081831	 0.112254
H	 1.0726846579	-3.8237394416	 1.0497284221	 0.115732
H	 1.3469462895	-3.8069356208	-0.697942349	 0.115716
H	 1.6610797924	-0.4858824849	 1.4632548392	 0.08268
H	 0.0364766692	-0.9542993717	 2.0901201235	 0.085686
H	-1.4729567675	-2.9294585579	-0.2398886834	 0.093686
H	-2.2656964643	-0.3114264873	-0.3375804123	 0.093686
200.1418	204.6553	234.5031	237.2328	330.3206	343.0986	460.3233	531.5018	543.5932	580.1397	628.5143	699.4717	721.9087	821.1168	857.1743	861.5359	884.6289	900.4816	924.9547	982.3147	1037.2497	1041.9138	1048.5414	1066.5899	1115.2164	1147.6344	1175.499	1199.6593	1217.6286	1219.4475	1248.9487	1324.5522	1354.0023	1414.1379	1416.7168	1475.7234	1492.8079	1493.7391	1494.7543	1494.9225	1512.976	1632.7839	3022.7135	3023.6031	3024.0128	3037.2277	3086.4316	3086.5633	3094.6882	3095.2108	3099.6833	3105.8909	3205.4705	3234.0333
CC12CC(C)(C1)C=C2	C[C@@]12C[C@@](C)(C1)C=C2	
InChI=1S/C8H12/c1-7-3-4-8(2,5-7)6-7/h3-4H,5-6H2,1-2H3	InChI=1S/C8H12/c1-7-3-4-8(2,5-7)6-7/h3-4H,5-6H2,1-2H3/t7-,8+
