15
gdb 26985	3.37732	1.29669	0.95436	3.5754	71.41	-0.2065	0.025	0.2315	1148.2178	0.114805	-413.039884	-413.031568	-413.030624	-413.073869	30.045	
N	-0.0400599358	 1.281401865	-0.5682674038	-0.618794
C	-0.0690287014	-0.0746146501	-0.2204775956	 0.234646
C	-1.0571567165	-1.0199180762	-0.0540972447	 0.229726
C	-2.5466571212	-0.9293105869	-0.2480517082	-0.452504
C	-2.9661700311	 0.2043827561	-1.0711914048	 0.26588
N	-3.2760066949	 1.1193630164	-1.7064601459	-0.326481
N	-0.5147486446	-2.2102433087	 0.3904030901	-0.311921
C	 0.7724205061	-2.0012206524	 0.484866092	 0.001744
N	 1.0981974653	-0.7213605942	 0.129379721	-0.280013
H	 0.4881017366	 1.4527120433	-1.4188207563	 0.250092
H	-0.9734184383	 1.6502196259	-0.7060776166	 0.269922
H	-2.9012218241	-1.8539439674	-0.7176478867	 0.173063
H	-3.0713935232	-0.8590672278	 0.7147756088	 0.164727
H	 1.5156267461	-2.7240322531	 0.7849657631	 0.132547
H	 2.0042003971	-0.2857156398	 0.1797751975	 0.267365
23.3026	132.4603	177.1872	230.433	268.4116	310.1374	383.2894	430.3769	483.7168	511.8428	658.8051	686.5639	709.2749	756.0191	786.61	838.577	949.8364	951.0384	955.6628	1082.8283	1115.9709	1183.6198	1223.4964	1262.0115	1286.9238	1344.5604	1402.9747	1460.068	1478.1677	1536.8193	1638.7699	1673.2867	2356.7332	3017.7507	3066.5458	3256.4128	3501.8199	3599.3106	3661.9049
NC1=C(CC#N)N=CN1	Nc1c(CC#N)nc[nH]1	
InChI=1S/C5H6N4/c6-2-1-4-5(7)9-3-8-4/h3H,1,7H2,(H,8,9)	InChI=1S/C5H6N4/c6-2-1-4-5(7)9-3-8-4/h3H,1,7H2,(H,8,9)
