19
gdb 64029	2.30814	1.60118	1.21078	3.0916	81.34	-0.2265	0.0233	0.2498	1100.4601	0.158413	-382.052599	-382.043571	-382.042626	-382.08582	34.939	
C	 0.116890092	 1.4848540702	-0.3081596927	-0.428468
C	-0.0079351419	-0.0192703443	-0.0310469427	 0.27161
C	-1.4661406228	-0.4244727531	 0.1782176517	-0.430026
N	 0.6243952003	-0.7961560754	-1.1255367566	-0.323701
C	 1.9124907789	-1.0843348324	-0.7114486311	 0.053273
N	 2.1855699661	-0.9556558585	 0.5295571065	-0.253435
C	 0.9171546705	-0.5037279879	 1.1551062911	-0.179996
C	 1.1177672642	 0.4723670502	 2.2180139792	 0.354897
C	 1.2545535168	 1.2688987209	 3.1074162077	-0.463765
H	 1.1653233411	 1.776007394	-0.4184908108	 0.131656
H	-0.4181551424	 1.7444557716	-1.2288260759	 0.103639
H	-0.3105951921	 2.0695749043	 0.5096843885	 0.134913
H	-2.087889368	-0.1197482426	-0.6704965253	 0.111307
H	-1.5537170728	-1.5080891989	 0.2929024852	 0.122779
H	-1.8674837534	 0.0569050949	 1.0759131385	 0.128531
H	 0.5046233365	-0.4463803868	-2.067200698	 0.235807
H	 2.6326607131	-1.449573924	-1.4391550385	 0.123977
H	 0.4467925151	-1.393347089	 1.6015280648	 0.111479
H	 1.3935401187	 1.968927637	 3.8937559885	 0.195523
74.4501	149.9073	199.169	233.4155	273.3781	290.5678	333.2953	368.5361	392.6431	490.3147	530.4811	556.8874	592.2065	623.7187	652.0718	662.2224	800.3356	819.008	914.6265	940.1796	960.4094	970.7678	1002.361	1025.713	1061.8963	1125.6487	1172.6522	1211.3675	1237.2212	1293.4225	1337.0858	1343.0923	1399.6164	1416.8883	1424.9843	1480.6959	1485.0981	1501.6442	1504.4986	1685.2182	2239.1942	2981.0895	3031.947	3036.7879	3099.9259	3106.3973	3119.1395	3128.7028	3176.0588	3503.4031	3575.0338
CC1(C)NC=NC1C#C	CC1(C)N[CH][N][C@H]1C#C	
InChI=1S/C7H10N2/c1-4-6-7(2,3)9-5-8-6/h1,5-6H,2-3H3,(H,8,9)	InChI=1S/C7H10N2/c1-4-6-7(2,3)9-5-8-6/h1,5-6H,2-3H3,(H,8,9)/t6-/m0/s1
