19
gdb 10181	3.39619	1.05967	0.85156	3.2512	72.1	-0.282	0.0272	0.3091	1365.0256	0.164316	-365.083476	-365.073812	-365.072868	-365.118447	33.67	
C	-0.0270729541	 1.5735195374	 0.048143044	-0.383212
C	 0.0004801308	 0.0434577424	 0.0108340443	-0.181558
C	 0.6989139572	-0.5023147616	-1.2390963267	-0.183209
C	 0.7328329538	-2.0424713737	-1.3180002277	-0.155591
C	 1.3382008018	-2.5469604943	-2.6515349126	-0.070762
O	 1.3277067703	-3.9501233534	-2.7640060574	-0.416559
C	 1.4919449158	-2.6281657063	-0.2085605604	 0.266895
N	 2.1260254747	-3.1133895789	 0.6283423255	-0.336347
H	 0.9869829075	 1.9879056059	 0.0465926609	 0.120085
H	-0.5542195626	 1.9836480866	-0.8204101335	 0.115988
H	-0.5331799456	 1.9371112588	 0.9471722647	 0.120292
H	 0.5074007488	-0.3387368726	 0.9048898466	 0.12403
H	-1.0253478851	-0.3455222987	 0.04955584	 0.100968
H	 0.1855030377	-0.1381731483	-2.137857459	 0.106248
H	 1.7255035564	-0.1186678899	-1.2882322032	 0.11448
H	-0.2899791749	-2.4346563958	-1.2529909232	 0.132856
H	 0.7220425086	-2.1655139374	-3.4713860209	 0.12093
H	 2.3494877179	-2.1288009905	-2.7680556876	 0.105807
H	 1.9276983313	-4.3098096795	-2.1004140838	 0.298658
76.965	81.3596	102.9002	136.1453	176.7253	245.1156	250.1541	311.2619	346.74	383.0772	444.0704	561.3635	629.5673	744.5736	792.2463	880.6241	899.8916	985.0433	1025.3034	1045.2757	1074.8252	1087.9738	1137.6703	1143.2039	1207.029	1249.268	1276.4501	1330.1259	1332.6571	1369.4391	1387.0362	1399.9813	1415.0652	1422.3363	1482.7484	1493.2602	1500.344	1504.0864	1510.88	2347.5251	2993.1859	3020.2081	3027.0398	3032.9114	3040.0386	3053.7841	3074.0215	3088.3325	3100.2239	3108.5404	3797.6721
CCCC(CO)C#N	CCC[C@@H](CO)C#N	
InChI=1S/C6H11NO/c1-2-3-6(4-7)5-8/h6,8H,2-3,5H2,1H3	InChI=1S/C6H11NO/c1-2-3-6(4-7)5-8/h6,8H,2-3,5H2,1H3/t6-/m1/s1
