19
gdb 57794	4.06908	0.65793	0.6247	1.1136	82.28	-0.2498	0.0204	0.2702	1845.2286	0.157368	-422.970915	-422.960894	-422.95995	-423.008538	34.817	
C	 1.0065295804	 0.2839999135	-0.3342114936	-0.384871
C	-0.1151075029	 0.2581441359	 0.7147230801	-0.022533
O	-0.6100121595	 1.5675502322	 0.9870716506	-0.413157
C	-1.1892161634	-0.6620537523	 0.3269326875	 0.097629
C	-2.083100931	-1.3871141322	-0.0323065835	 0.046379
C	-3.1626598731	-2.2667192641	-0.4418946255	-0.033541
C	-4.5981569747	-1.9420330402	 0.0586915518	-0.283991
C	-4.9542490907	-1.8888759434	-1.4384984857	-0.059486
O	-3.57623163	-2.0854912526	-1.8234197534	-0.28005
H	 1.7836384486	 0.9836158689	-0.0157665671	 0.125556
H	 1.4461826005	-0.7095739679	-0.4598237273	 0.126946
H	 0.6155058877	 0.6069572032	-1.3043516838	 0.121315
H	 0.3060758554	-0.076747505	 1.6705579424	 0.119621
H	-1.1046209842	 1.8535340788	 0.2108209418	 0.282765
H	-2.8709530775	-3.3115567939	-0.2667060272	 0.102752
H	-5.0759961793	-2.7251687074	 0.6478504796	 0.116598
H	-4.6738430956	-0.9896024186	 0.5828525301	 0.125548
H	-5.5962322159	-2.7039578516	-1.7953121833	 0.103413
H	-5.3495299247	-0.9370764935	-1.8108932135	 0.109105
12.9878	53.927	77.8584	104.7664	187.9331	232.5804	265.3486	306.722	348.7225	438.5665	478.0138	566.7958	604.9186	685.8875	782.3027	821.9655	880.9489	927.9484	945.8555	996.8421	1017.5857	1035.1825	1078.2375	1087.9554	1103.5679	1163.9072	1183.7564	1214.392	1257.077	1260.1391	1283.2089	1333.1244	1352.3663	1367.8743	1397.4872	1417.0408	1486.6118	1488.6957	1491.3097	1531.9584	2350.3031	3002.8366	3019.5451	3037.0776	3041.1606	3061.6515	3092.2027	3116.1026	3128.3382	3152.3035	3802.6444
CC(O)C#CC1CCO1	C[C@@H](O)C#C[C@H]1CCO1	
InChI=1S/C7H10O2/c1-6(8)2-3-7-4-5-9-7/h6-8H,4-5H2,1H3	InChI=1S/C7H10O2/c1-6(8)2-3-7-4-5-9-7/h6-8H,4-5H2,1H3/t6-,7+/m1/s1
