19
gdb 86100	2.55964	1.27208	0.91113	4.8343	83.3	-0.2259	0.0028	0.2287	1304.8883	0.158644	-382.086838	-382.077581	-382.076637	-382.12092	33.679	
C	-0.0375323748	 1.4583087016	-0.0252060463	-0.332857
N	-0.0521776234	 0.0234058882	 0.1625103399	-0.061631
C	-1.3599989717	-0.6295110147	 0.1238886413	-0.247531
C	-1.1818309023	-1.8516007633	 0.9908600145	 0.312845
C	-2.209519171	-2.9333841542	 1.0565476554	-0.491092
C	-0.0343046971	-1.765603703	 1.6596328128	-0.191701
C	 0.6846502674	-0.477566473	 1.32274987	-0.143531
C	 2.1175092872	-0.6639036197	 1.0132808922	 0.290008
N	 3.2435726208	-0.7996917317	 0.7927165007	-0.332412
H	 0.9956956863	 1.8154436312	-0.0737457537	 0.138769
H	-0.5196594624	 1.7096910434	-0.9746909281	 0.127928
H	-0.5580523925	 2.0108929577	 0.7798858456	 0.096032
H	-2.1683016819	 0.010159513	 0.5312419132	 0.092443
H	-1.6478039085	-0.8763753375	-0.9083133698	 0.113941
H	-2.3593537553	-3.3920563142	 0.0716089544	 0.137505
H	-1.9214465927	-3.718403244	 1.7597419909	 0.133323
H	-3.182878265	-2.5344850617	 1.3680345311	 0.133079
H	 0.3608751747	-2.4772785072	 2.3723980626	 0.118119
H	 0.6445446523	 0.2176586192	 2.1860657733	 0.106763
80.3095	124.6086	141.0637	178.3231	221.7818	257.0557	276.9067	320.5658	374.2264	446.7731	501.2461	543.3522	574.6405	696.4064	810.7809	880.2728	902.3114	960.1992	992.9709	1005.4839	1046.3111	1067.3474	1088.4733	1145.4	1186.5669	1200.4854	1213.4432	1256.9716	1294.221	1322.0661	1353.07	1388.635	1417.0896	1461.2048	1478.9482	1487.4613	1491.3893	1501.642	1518.6729	1731.8852	2356.7557	2884.7154	2902.2885	2929.6909	3003.8504	3024.6887	3066.8641	3072.7948	3109.6918	3121.1074	3223.593
CN1CC(C)=CC1C#N	CN1CC(=C[C@H]1C#N)C	
InChI=1S/C7H10N2/c1-6-3-7(4-8)9(2)5-6/h3,7H,5H2,1-2H3	InChI=1S/C7H10N2/c1-6-3-7(4-8)9(2)5-6/h3,7H,5H2,1-2H3/t7-/m0/s1
