19
gdb 96923	2.45044	1.33146	1.12774	2.0164	79.87	-0.229	0.0147	0.2437	1196.8467	0.157924	-419.167033	-419.157625	-419.156681	-419.201061	34.795	
C	-0.0389238871	 1.3899600052	 0.0093197119	-0.340734
N	 0.0112839969	-0.064016182	-0.00227869	-0.328862
C	-1.0771893161	-0.6961867638	-0.0209856301	 0.30434
N	-2.4600242051	-0.3203620582	 0.0692854225	-0.35807
C	-2.879182167	-1.7284765257	 0.1207483382	-0.121233
C	-2.381305879	-2.5316225086	-1.0600611612	-0.052646
C	-2.3329732772	-2.0494103698	-2.4926296153	-0.424152
C	-1.3967188434	-2.1599945365	 0.0274558951	 0.290357
O	-0.6571424976	-3.1305048297	 0.6527669197	-0.447352
H	 0.7506313035	 1.7722060383	 0.663994733	 0.126388
H	 0.1654029763	 1.7800642616	-0.9959003406	 0.124527
H	-1.0025533368	 1.7953485899	 0.3490461588	 0.11384
H	-2.8465374215	 0.2740010762	-0.6583088795	 0.233246
H	-3.6569069972	-2.0444172832	 0.804123907	 0.110217
H	-2.6448023288	-3.5837032778	-0.951186925	 0.104856
H	-2.0918329951	-0.9842964032	-2.5539131152	 0.114948
H	-1.568742856	-2.5911651662	-3.058444922	 0.133333
H	-3.2962080611	-2.2067684678	-2.9898026143	 0.119697
H	-0.2113775876	-2.7212786887	 1.404125767	 0.297299
81.4813	119.863	174.5682	186.979	224.2447	237.5994	249.6054	301.3318	345.2848	449.7776	519.041	551.8469	642.4428	710.1793	747.1075	767.865	791.2786	900.756	926.3242	951.5768	981.6216	1050.2181	1075.7549	1105.0123	1119.4087	1122.4253	1142.2612	1173.4461	1211.6906	1278.8278	1320.5227	1352.57	1367.9156	1417.4535	1435.0114	1476.9138	1489.2496	1490.559	1502.8921	1506.3679	1812.5594	2995.5303	3036.7995	3058.4786	3085.9499	3100.5624	3107.8453	3126.879	3199.1425	3507.8517	3789.5983
CN=C1NC2C(C)C12O	CN=C1N[C@H]2[C@@H](C)[C@@]12O	
InChI=1S/C6H10N2O/c1-3-4-6(3,9)5(7-2)8-4/h3-4,9H,1-2H3,(H,7,8)	InChI=1S/C6H10N2O/c1-3-4-6(3,9)5(7-2)8-4/h3-4,9H,1-2H3,(H,7,8)/t3-,4+,6+/m1/s1
