16
gdb 47853	2.46584	1.72716	1.26234	2.2024	66.57	-0.2685	-0.0229	0.2456	998.9259	0.125161	-475.037898	-475.03029	-475.029346	-475.070268	28.473	
O	 0.0246354437	 0.5337157376	 1.0617227329	-0.288384
C	-0.0706929595	 1.2231984251	 0.0903217297	 0.357014
C	-1.4387851141	 1.6896179128	-0.4262484689	-0.194239
O	-1.4667960171	 2.7229929493	-1.3657773976	-0.216071
C	-1.2533824297	 4.0157382876	-0.8264449774	-0.075806
C	 0.1564020111	 4.1739289635	-0.2347035677	-0.213442
N	 1.1356838637	 3.7843115836	-1.2243528291	-0.218323
C	 1.4013615216	 2.5709819774	-1.4079608432	 0.154833
O	 1.0446068476	 1.4494854493	-0.6831257879	-0.215236
H	-1.8767117896	 0.8099392174	-0.9122183055	 0.15693
H	-2.043936843	 1.9085647186	 0.464273605	 0.133167
H	-1.3821040289	 4.702954492	-1.6657882132	 0.131356
H	-2.0067743248	 4.2476506381	-0.0588037267	 0.103502
H	 0.3071277498	 5.2260661351	 0.0262078009	 0.12042
H	 0.2429003989	 3.5985615501	 0.7000127207	 0.124263
H	 2.1024457402	 2.2610930725	-2.1785007219	 0.140017
88.9925	116.4749	242.915	266.9994	296.1465	370.9588	449.6943	509.3638	537.7504	592.4932	640.7403	742.595	800.539	863.8658	874.7509	954.1004	1005.0128	1025.6808	1046.2761	1101.9935	1112.9888	1146.2317	1209.4202	1262.1356	1274.0222	1323.2487	1358.4952	1375.8179	1407.0395	1426.3185	1460.4859	1490.7712	1516.6504	1744.3559	1853.7411	2988.2474	3002.5731	3017.7511	3075.1233	3075.6474	3111.0471	3179.9618
O=C1COCCN=CO1	O=C1COCCN=CO1	
InChI=1S/C5H7NO3/c7-5-3-8-2-1-6-4-9-5/h4H,1-3H2/b6-4-	InChI=1S/C5H7NO3/c7-5-3-8-2-1-6-4-9-5/h4H,1-3H2/b6-4-
