21
gdb 106618	2.61829	1.40294	1.22585	2.2437	77.2	-0.2478	0.0729	0.3208	1134.7636	0.183366	-424.210198	-424.201616	-424.200671	-424.243134	33.701	
C	-0.1904620846	 1.6141043621	-0.1511023069	-0.4405
C	 0.0241513179	 0.122365484	 0.0433985102	-0.022215
C	 1.1954331066	-0.6632116291	-0.60207135	 0.05984
C	 2.4710139419	 0.0765822054	-0.1515045255	-0.224119
C	 2.0950110837	 0.2153687031	 1.3564596357	-0.25359
C	 0.720608654	-0.4908474014	 1.2924994522	 0.379325
C	 0.018036629	-0.8793186158	 2.5682084184	-0.171334
O	 0.8260654848	-1.7395668403	 3.3546540445	-0.418251
O	 1.0451362982	-1.6609334358	 0.4571709808	-0.348594
H	 0.7131938797	 2.2007728876	 0.033172543	 0.122121
H	-0.5190493896	 1.8240286117	-1.1748489138	 0.121775
H	-0.9701571836	 1.9850053843	 0.5229255049	 0.122351
H	-0.8998532218	-0.4341668279	-0.1377414159	 0.083349
H	 1.1499323924	-1.0765889104	-1.6101150052	 0.07505
H	 3.3577131313	-0.5401609801	-0.3110806131	 0.107323
H	 2.6198811184	 1.0327732125	-0.6606190013	 0.097706
H	 2.767909987	-0.3260903073	 2.0218838389	 0.115487
H	 2.0274143674	 1.2513232156	 1.6996230853	 0.096454
H	-0.1829627967	 0.0097315434	 3.1761485378	 0.109968
H	-0.9477937065	-1.3480446083	 2.3246462292	 0.091762
H	 1.0886146804	-2.4662787333	 2.7773181305	 0.29609
91.184	153.4485	179.0793	241.6241	259.6336	301.3209	324.527	419.7868	453.9104	523.7702	583.8122	650.3313	735.7051	764.6071	808.5153	836.8285	876.0767	890.0871	927.3742	948.2568	971.3444	1021.2995	1046.3703	1067.5435	1077.9358	1132.4972	1152.8203	1164.8243	1174.2338	1217.264	1233.5119	1250.8304	1274.5398	1285.6076	1313.5478	1338.6846	1382.8049	1398.1601	1415.9693	1440.4993	1478.0207	1495.9945	1496.6408	1502.6812	1508.5622	2987.5608	3036.3071	3064.1086	3069.4926	3072.151	3073.4202	3094.5338	3111.8682	3117.2017	3119.291	3134.6955	3795.7512
CC1C2CCC1(CO)O2	C[C@H]1[C@H]2CC[C@]1(CO)O2	
InChI=1S/C7H12O2/c1-5-6-2-3-7(5,4-8)9-6/h5-6,8H,2-4H2,1H3	InChI=1S/C7H12O2/c1-5-6-2-3-7(5,4-8)9-6/h5-6,8H,2-4H2,1H3/t5-,6+,7+/m0/s1
