18
gdb 93602	2.836	1.24949	0.90877	4.4078	81.72	-0.2552	-0.0377	0.2175	1256.2696	0.147441	-401.989511	-401.980345	-401.979401	-402.023472	33.337	
C	-0.0075719642	 1.5316926905	 0.0373126925	-0.530778
C	 0.0309644497	 0.0432235931	-0.0217573751	 0.225282
C	 0.0017013832	-0.7471968809	-1.1080428974	 0.108013
C	 0.0404977473	-2.2248770347	-0.7588833625	-0.322459
C	 0.4500866283	-2.2041037534	 0.7298481289	-0.232461
C	 0.0777197032	-0.8016060124	 1.2428805159	 0.035216
O	 1.045436778	-0.3686887271	 2.1900144077	-0.423634
C	-0.0927065073	-0.285792192	-2.449164768	 0.198242
N	-0.1682443799	 0.0721024594	-3.5491432453	-0.348609
H	 0.8639769913	 1.9083559636	 0.5850349353	 0.144578
H	-0.0172144754	 1.9808212475	-0.9579394827	 0.155716
H	-0.8982828953	 1.8772219257	 0.5792090049	 0.132087
H	-0.9477632301	-2.6781823281	-0.9057341057	 0.12356
H	 0.7385469381	-2.7842544248	-1.3885491988	 0.126484
H	-0.0063064405	-3.0047013735	 1.3150549428	 0.108696
H	 1.5363112205	-2.2966191691	 0.8240634941	 0.12991
H	-0.9232241304	-0.8009246574	 1.7075966695	 0.081113
H	 0.6642620835	 0.3379904537	 2.719402204	 0.289043
88.2675	130.727	140.5018	163.4262	216.176	242.9262	266.9931	357.2291	405.123	481.2671	541.9106	573.6849	613.4138	654.8198	703.2965	863.4003	890.1018	957.7646	994.3518	1024.0935	1055.7541	1084.0889	1096.0951	1150.272	1173.94	1232.9283	1254.6469	1269.6235	1311.3145	1325.1411	1346.6121	1404.6872	1417.1127	1477.2409	1484.0812	1485.7458	1501.8139	1700.216	2330.6915	2950.1876	3019.4212	3032.4023	3065.82	3073.6788	3083.3288	3120.79	3130.2119	3831.7577
CC1=C(CCC1O)C#N	CC1=C(CC[C@H]1O)C#N	
InChI=1S/C7H9NO/c1-5-6(4-8)2-3-7(5)9/h7,9H,2-3H2,1H3	InChI=1S/C7H9NO/c1-5-6(4-8)2-3-7(5)9/h7,9H,2-3H2,1H3/t7-/m1/s1
