14
gdb 27022	3.0272	1.30627	0.91428	4.0871	76.9	-0.1814	0.0025	0.1839	1181.0299	0.101252	-432.895259	-432.886633	-432.885689	-432.928216	32.163	
N	 0.1151518102	 1.4114170991	 0.1644258582	-0.615796
C	 0.0059138388	 0.0349918796	 0.0404902817	 0.22144
C	-1.0986948198	-0.7691328672	 0.0131656151	 0.157219
N	-0.6131873655	-2.1001175697	-0.0179183286	-0.44458
C	 0.7619855417	-2.1390999286	-0.0115721048	 0.436657
O	 1.5095001172	-3.0939045216	-0.0125133071	-0.426154
N	 1.1197696118	-0.7786632576	-0.0020969386	-0.369829
C	-2.4505016311	-0.4104635599	 0.0060344854	 0.237826
C	-3.6175844321	-0.0989458914	-0.0028323455	-0.449174
H	 0.713424924	 1.836911794	-0.5355898034	 0.255053
H	-0.7959110292	 1.8539490782	 0.1532990124	 0.264206
H	-1.1793799977	-2.9290675328	 0.0035101983	 0.271088
H	 2.0704421478	-0.4848193264	 0.1426026443	 0.27142
H	-4.6432660759	 0.1742589844	-0.0037827473	 0.190624
116.4894	126.7483	181.4855	250.629	270.8748	316.7855	384.7937	399.2218	440.7781	446.5883	517.0685	551.4021	616.1564	661.9387	677.3382	706.4781	746.3817	778.8448	837.7801	997.8899	1070.9433	1182.9037	1246.4063	1284.8498	1319.2495	1406.2773	1504.5796	1632.8187	1696.1433	1853.8792	2210.4895	3502.193	3512.0914	3610.9774	3682.7266	3702.4888
NC1=C(NC(=O)N1)C#C	Nc1c([nH]c(=O)[nH]1)C#C	
InChI=1S/C5H5N3O/c1-2-3-4(6)8-5(9)7-3/h1H,6H2,(H2,7,8,9)	InChI=1S/C5H5N3O/c1-2-3-4(6)8-5(9)7-3/h1H,6H2,(H2,7,8,9)
