19
gdb 58912	3.26535	1.41687	1.27483	2.2193	73.75	-0.235	0.0644	0.2994	1058.2421	0.158411	-422.958459	-422.950318	-422.949374	-422.991091	32.105	
C	 0.4698462976	 0.5919130667	-0.8771593835	-0.406258
C	 0.0156941782	 0.0471356722	 0.4780692385	-0.005856
O	-0.065500221	 1.0724125682	 1.4629485978	-0.434124
C	-1.3197397285	-0.648623906	 0.4055792476	 0.445836
C	-1.9530904278	-1.4464872122	 1.5768282102	-0.268027
C	-2.8850662784	-2.0217694335	 0.5115605978	-0.125729
C	-3.0844565217	-0.8644526241	-0.4813273638	 0.104276
O	-2.4007909472	 0.2785479746	 0.0311355006	-0.34901
C	-1.8817540769	-1.7301234859	-0.602642172	-0.221432
H	 1.3959967597	 1.1587515399	-0.7542516887	 0.122036
H	 0.6490712942	-0.2201713432	-1.5896615984	 0.112587
H	-0.2971953934	 1.2493342466	-1.2967089804	 0.128489
H	 0.7580392899	-0.6652967603	 0.8578727769	 0.089943
H	-0.8276717007	 1.6172531776	 1.2299611635	 0.294366
H	-1.2666037279	-2.2054420095	 1.9609720406	 0.104176
H	-2.3716228173	-0.8535262617	 2.3945378177	 0.105113
H	-3.5754118616	-2.8521875097	 0.5846484398	 0.093522
H	-3.9514595612	-0.7205546266	-1.1119728599	 0.109522
H	-1.455457956	-2.3255416529	-1.3975836944	 0.100569
67.4158	153.9418	193.9421	236.1162	321.7135	366.767	398.9845	461.8001	488.1266	560.9557	667.6428	760.3295	770.6219	786.038	815.9571	864.3616	902.7673	932.9377	962.6598	970.2641	1002.3635	1023.329	1036.089	1047.7129	1056.2935	1086.5424	1091.0239	1125.8708	1147.3274	1178.6082	1226.7157	1266.3541	1291.9798	1323.1947	1359.7274	1379.3414	1396.3527	1431.2094	1486.0703	1487.1535	1500.7029	3039.6391	3041.8387	3057.6226	3111.3778	3118.2858	3128.5839	3199.6008	3205.1915	3220.9709	3783.8866
CC(O)C12CC3C(O1)C23	C[C@@H](O)[C@@]12C[C@H]3[C@@H](O1)[C@@H]23	
InChI=1S/C7H10O2/c1-3(8)7-2-4-5(7)6(4)9-7/h3-6,8H,2H2,1H3	InChI=1S/C7H10O2/c1-3(8)7-2-4-5(7)6(4)9-7/h3-6,8H,2H2,1H3/t3-,4-,5+,6-,7-/m1/s1
