16
gdb 29974	7.11428	0.83977	0.75469	5.3113	76.82	-0.2114	0.0177	0.2291	1459.5627	0.125159	-434.09759	-434.088954	-434.08801	-434.132776	29.928	
C	-0.003292274	 1.4434216997	 0.0317636151	-0.337036
N	 0.003140883	-0.0050940761	 0.0297834129	 0.016653
C	-0.058235048	-0.8161068382	-1.0549449926	 0.012482
N	-0.0343739489	-2.0944972217	-0.7272943592	-0.361943
C	 0.045486	-2.0975608942	 0.6318712005	 0.398897
O	 0.0937654714	-3.2254219679	 1.3931241846	-0.226693
C	 0.0675415856	-4.4381698467	 0.7771077434	 0.101331
N	 0.1125204797	-5.4734850028	 1.4962829658	-0.441069
C	 0.0711205582	-0.8252433704	 1.1422770658	-0.254546
H	 0.9099246544	 1.8353506081	 0.4895295524	 0.149887
H	-0.0581118594	 1.7977778917	-0.9991667417	 0.148013
H	-0.8675813106	 1.8279276182	 0.5816702501	 0.149863
H	-0.1187275724	-0.425604356	-2.0598332531	 0.135349
H	 0.0091997006	-4.3670347886	-0.3097141199	 0.139726
H	 0.0860650449	-6.2989925191	 0.9005113553	 0.230005
H	 0.1289293552	-0.4447555162	 2.1465826507	 0.13908
17.8817	92.2564	100.701	165.1099	182.3986	321.7585	351.0256	445.5648	509.5536	636.4616	668.3094	696.7271	730.1673	800.9384	815.4544	833.6539	994.2286	1055.2534	1063.7994	1075.7476	1086.0751	1152.6099	1199.1546	1255.2514	1292.2017	1335.6475	1398.9055	1406.54	1427.6785	1457.983	1480.6249	1520.5551	1549.1995	1607.489	1741.5621	3042.2742	3104.7982	3130.307	3139.6951	3249.6374	3291.0905	3512.3427
CN1C=NC(OC=N)=C1	Cn1cnc(O[CH][NH])c1	
InChI=1S/C5H7N3O/c1-8-2-5(7-4-8)9-3-6/h2-4,6H,1H3	InChI=1S/C5H7N3O/c1-8-2-5(7-4-8)9-3-6/h2-4,6H,1H3
