21
gdb 99872	2.08928	1.40293	1.07467	3.4617	78.88	-0.2302	0.0241	0.2543	1235.2485	0.180073	-420.396217	-420.385463	-420.384519	-420.431418	39.281	
C	 0.0917988636	 1.4933200803	 0.0336624187	-0.336596
N	-0.0337366609	 0.0406716824	 0.0375213512	-0.089057
C	 0.7736030432	-0.5516398479	 1.0992481866	-0.342507
C	-1.4163568722	-0.4654530138	-0.0244457442	 0.100259
C	-2.289977879	-0.2037691127	 1.2259892051	-0.425937
C	-2.136782129	 0.0999813551	-1.2915812657	-0.096371
O	-3.3703648962	-0.5328127278	-1.5388626348	-0.417244
C	-1.346758362	-1.9274264716	-0.2504047193	 0.285372
N	-1.3556102426	-3.0629394773	-0.4678021922	-0.359501
H	 1.1562127516	 1.7426364835	-0.0051291425	 0.129515
H	-0.3744683366	 1.93025552	-0.8515112753	 0.130452
H	-0.3294009723	 1.9851207836	 0.9285642161	 0.102891
H	 0.4958507645	-0.212159318	 2.112210213	 0.101763
H	 0.6973377804	-1.6412839436	 1.0678233755	 0.146889
H	 1.8218254908	-0.2840920974	 0.934630221	 0.126569
H	-2.3198298364	 0.8685723438	 1.4386824382	 0.124987
H	-3.3095948903	-0.5434284968	 1.0338948589	 0.151818
H	-1.9051982595	-0.7242846884	 2.1052429539	 0.131852
H	-2.3735704523	 1.153234042	-1.1241894904	 0.118688
H	-1.4440512086	 0.0253395824	-2.1407225969	 0.116114
H	-3.1961721663	-1.4487023681	-1.7869493467	 0.300044
63.4155	132.5376	160.264	162.9678	220.9098	230.8557	246.3655	257.5007	272.645	324.145	381.6464	418.5615	425.3948	432.157	467.6691	576.4854	612.2476	694.1591	853.0445	913.6577	944.208	999.9435	1071.2051	1090.3784	1117.0485	1120.233	1156.4754	1160.201	1190.3926	1242.1814	1289.3386	1299.6704	1369.7177	1399.6023	1424.7812	1447.8989	1478.5098	1484.9524	1486.7798	1491.9379	1503.2772	1506.0102	1512.3481	1518.7936	2348.075	2947.4469	2958.1382	3016.0089	3055.7955	3071.5748	3077.6804	3104.2681	3120.4557	3126.7617	3130.3297	3144.3613	3789.4984
CN(C)C(C)(CO)C#N	CN(C)[C@@](C)(CO)C#N	
InChI=1S/C6H12N2O/c1-6(4-7,5-9)8(2)3/h9H,5H2,1-3H3	InChI=1S/C6H12N2O/c1-6(4-7,5-9)8(2)3/h9H,5H2,1-3H3/t6-/m1/s1
