16
gdb 129796	3.25097	1.55231	1.076	3.2504	72.65	-0.1936	0.0121	0.2057	1070.5136	0.127558	-434.049215	-434.041861	-434.040916	-434.080863	28.687	
N	 0.0470491648	 1.3972115154	 0.1492548471	-0.600046
C	-0.0799638461	 0.0288867779	 0.0368421351	 0.346969
C	-1.1332821896	-0.8347327338	 0.0467946098	 0.071257
N	-2.552683319	-0.8629613831	 0.0299806777	-0.426767
C	-2.8569450208	-2.2747017895	-0.3627831027	-0.171486
C	-1.5988844422	-3.1617858757	-0.0570699859	-0.350439
C	-0.5314729651	-2.1054499621	-0.041855068	 0.38762
N	 0.7722481907	-2.0806960535	-0.0929263555	-0.277675
O	 1.0678357817	-0.6830907147	-0.0254774791	-0.229198
H	 0.9363476849	 1.7422409705	-0.1868681215	 0.264706
H	-0.729885632	 1.904142073	-0.2530717931	 0.265242
H	-2.9356656443	-0.6692635749	 0.9512919796	 0.231014
H	-3.7603889652	-2.6226340281	 0.1426403998	 0.109168
H	-3.0495846473	-2.2906909263	-1.4408986188	 0.123081
H	-1.6703269509	-3.6541842296	 0.9200846905	 0.125577
H	-1.4492879395	-3.9379103656	-0.810531315	 0.130978
141.1993	175.853	242.0472	271.9415	315.3973	354.8375	531.1903	588.5393	602.9993	616.1446	678.3517	703.8419	746.0505	786.3722	816.754	873.4021	901.691	925.3912	984.6909	1051.3573	1065.7541	1097.3657	1185.6804	1235.5941	1274.6045	1296.959	1342.7903	1377.8463	1416.1726	1469.8675	1480.315	1501.8005	1582.9196	1635.4746	1731.1325	3039.7295	3046.5653	3106.114	3115.85	3481.754	3548.918	3650.3199
NC1=C2NCCC2=NO1	Nc1c2NCCc2no1	
InChI=1S/C5H7N3O/c6-5-4-3(8-9-5)1-2-7-4/h7H,1-2,6H2	InChI=1S/C5H7N3O/c6-5-4-3(8-9-5)1-2-7-4/h7H,1-2,6H2
