15
gdb 22906	2.33475	1.59954	1.05224	2.9203	66.97	-0.2394	-0.0494	0.19	1096.2731	0.112932	-491.067254	-491.058853	-491.057909	-491.100741	30.745	
O	 0.0062665887	 1.2894985108	-0.1490661018	-0.344293
N	 0.0245044411	-0.0891144643	-0.1629719129	-0.221903
C	-1.116145175	-0.6340455732	 0.0028240825	 0.245222
C	-1.2150932061	-2.1431879871	 0.0689687358	 0.046028
O	-0.8350490526	-2.6296639804	 1.3504345479	-0.428441
C	-2.7255916588	-2.4080530168	-0.0988654797	-0.174729
N	-3.3347386381	-1.1169138544	 0.1706123062	-0.333338
C	-2.490952796	-0.0361463223	 0.1901903927	 0.372041
O	-2.8093243349	 1.1225482475	 0.3313672454	-0.365923
H	 0.931853962	 1.5111451456	-0.3057913444	 0.314509
H	-0.6261865354	-2.6234684144	-0.7214493489	 0.091315
H	 0.0335666515	-2.2597584821	 1.5462463285	 0.290789
H	-2.9573090493	-2.7618632032	-1.1112645709	 0.115031
H	-3.0426708169	-3.1680232563	 0.6204096616	 0.135847
H	-4.3302129503	-0.9767049193	 0.235554698	 0.257845
50.9106	137.0235	165.5116	212.8041	306.6371	338.0811	373.4341	434.5998	476.9	495.6536	521.535	565.2181	692.3792	750.1247	760.2832	831.7518	893.6031	992.9913	1037.0127	1072.5259	1113.2977	1170.7003	1224.0096	1239.528	1275.1039	1327.7925	1362.0916	1397.2336	1427.8836	1451.1977	1521.0022	1734.1137	1825.3506	3019.4054	3036.6803	3090.9784	3646.7307	3797.1806	3802.0922
ON=C1C(O)CNC1=O	ON=C1[C@@H](O)CNC1=O	
InChI=1S/C4H6N2O3/c7-2-1-5-4(8)3(2)6-9/h2,7,9H,1H2,(H,5,8)	InChI=1S/C4H6N2O3/c7-2-1-5-4(8)3(2)6-9/h2,7,9H,1H2,(H,5,8)/t2-/m0/s1
