15
gdb 60514	2.59748	1.27362	1.00347	3.5955	69.06	-0.2668	-0.0765	0.1902	1175.6308	0.109282	-457.70681	-457.697861	-457.696917	-457.74121	31.941	
O	-0.1434636318	 1.4563076525	-0.1240402265	-0.426585
C	-0.138596536	 0.0657284965	-0.0212065797	-0.015125
C	 0.370477587	-0.6144089563	-1.2922793472	 0.050242
C	 0.4715683831	 0.1307161142	-2.5499505617	-0.167478
O	 1.6344202174	-0.1679875418	-1.7683964113	-0.232408
C	 0.7307047945	-0.3528495125	 1.1718531426	 0.228358
O	 1.359283632	 0.4850706392	 1.7850450781	-0.308474
C	 0.7523404012	-1.7550129014	 1.5118361203	 0.282928
C	 0.7378747128	-2.9286100822	 1.7785170736	-0.403559
H	 0.5408236222	 1.7667278443	 0.491568996	 0.301942
H	-1.1590700829	-0.3078727717	 0.165850148	 0.106517
H	 0.2210224918	-1.6942915267	-1.3203635866	 0.10432
H	 0.395805442	-0.4040227373	-3.4953374225	 0.115243
H	 0.1818381642	 1.1773249218	-2.556721823	 0.139413
H	 0.7398175823	-3.9626127086	 2.0272451898	 0.224669
54.6974	82.5791	124.3273	178.064	250.6414	263.9776	339.6041	391.6075	434.1264	488.3078	588.5232	631.1517	657.8592	704.104	716.5659	806.4841	873.6052	913.8109	961.8935	1011.6488	1096.3387	1102.3746	1162.5683	1165.3198	1184.323	1256.6919	1287.3927	1346.9656	1407.0044	1439.7672	1515.209	1758.6533	2215.8259	2977.1192	3097.3773	3110.8912	3203.3872	3491.1251	3677.4072
OC(C1CO1)C(=O)C#C	O[C@@H]([C@H]1CO1)C(=O)C#C	
InChI=1S/C6H6O3/c1-2-4(7)6(8)5-3-9-5/h1,5-6,8H,3H2	InChI=1S/C6H6O3/c1-2-4(7)6(8)5-3-9-5/h1,5-6,8H,3H2/t5-,6-/m1/s1
