18
gdb 113522	2.72148	1.18998	1.06855	3.9509	74.57	-0.251	0.0279	0.2788	1202.996	0.147432	-439.059974	-439.051258	-439.050314	-439.093684	32.2	
O	 0.1437317231	 0.4612891016	 0.9248929933	-0.414684
C	-0.2026716583	 0.1533748532	-0.4193065448	-0.101472
C	-1.532749808	-0.5527437986	-0.4118547013	-0.055727
C	-1.8055541858	-1.6485919864	-1.4082180879	-0.366629
C	-1.5802256861	-1.9876180415	 0.0371435713	 0.206886
C	-0.5199314928	-2.8292743342	 0.7399353383	-0.156432
O	-1.5648706493	-3.3504829075	 1.6281637241	-0.26895
C	-2.5406451417	-2.5993019818	 0.9955375633	 0.394895
N	-3.7747766574	-2.5075888128	 1.1986423187	-0.567011
H	 0.924851057	 1.0228568963	 0.9145455518	 0.289777
H	-0.2712027102	 1.0650722095	-1.0322552924	 0.099245
H	 0.5568909266	-0.4958508451	-0.8857828045	 0.082378
H	-2.3779652891	 0.0540031895	-0.1011679802	 0.119065
H	-2.8154693484	-1.7627142078	-1.7857137681	 0.141772
H	-1.0203188384	-1.907152153	-2.1122904052	 0.117861
H	-0.0655169505	-3.6384155185	 0.1617374667	 0.115702
H	 0.2317644127	-2.2719093004	 1.3027159248	 0.135672
H	-4.0738923434	-3.0989616126	 1.9747547022	 0.227651
88.221	101.3546	141.8582	175.1583	251.1475	283.9484	301.3548	407.3149	432.148	552.514	607.7082	675.0006	776.1172	803.0549	844.3747	874.8442	910.0469	958.8658	984.6635	1001.318	1042.0875	1054.7539	1073.0792	1081.5807	1104.4905	1153.6886	1169.5498	1185.0048	1240.2018	1256.8096	1285.1303	1313.9888	1361.4275	1425.1687	1467.3392	1499.9122	1513.308	1518.2511	1826.2921	2961.3611	2999.8669	3058.7944	3125.2595	3129.2513	3162.8807	3221.5223	3488.0169	3825.253
OCC1CC11COC1=N	OC[C@H]1C[C@]21CO[C]2[NH]	
InChI=1S/C6H9NO2/c7-5-6(3-9-5)1-4(6)2-8/h4,7-8H,1-3H2	InChI=1S/C6H9NO2/c7-5-6(3-9-5)1-4(6)2-8/h4,7-8H,1-3H2/t4-,6-/m1/s1
