20
gdb 109188	3.47052	0.90913	0.77911	4.3623	86.3	-0.2472	0.0116	0.2589	1498.2991	0.171788	-366.054425	-366.04533	-366.044386	-366.088869	33.509	
C	-0.0612991788	 1.5346463551	 0.3286432434	-0.376694
C	-0.0747852625	 0.0617307776	-0.1177072935	-0.293606
C	-1.4392858592	-0.5606129741	-0.0874067646	 0.341592
C	-2.1307202093	-1.0444690163	-1.1214700765	-0.182201
C	-3.4945896389	-1.559332614	-0.7365389562	-0.264406
C	-3.3829971671	-1.6519787643	 0.8168352639	-0.140142
C	-2.2381557743	-0.6681614826	 1.1983423219	-0.314816
C	-4.6376161143	-1.4026948247	 1.5186638424	 0.262248
N	-5.6316570762	-1.1971739099	 2.0721941136	-0.329645
H	 0.9529286949	 1.9419667812	 0.283208327	 0.118709
H	-0.7021478525	 2.1446031646	-0.3156160005	 0.123789
H	-0.417743578	 1.6458660491	 1.3575452336	 0.123463
H	 0.3361324509	-0.019501172	-1.1299503034	 0.105973
H	 0.5970783874	-0.5095089934	 0.5388000965	 0.106062
H	-1.7843725712	-1.0433898105	-2.1494736496	 0.094475
H	-4.2879461033	-0.8626588713	-1.0376012903	 0.129019
H	-3.7440822255	-2.5285961329	-1.1796573233	 0.119473
H	-3.0580022522	-2.6664429778	 1.0715463793	 0.129408
H	-1.650486778	-1.0387597716	 2.0451591714	 0.116425
H	-2.6388646019	 0.3081171877	 1.4985763248	 0.130875
64.3135	77.1977	136.4504	179.6441	226.1932	267.3532	305.8196	363.4944	459.3371	518.424	555.7728	593.4445	635.6977	787.5903	838.149	845.4872	867.6875	932.7888	965.1063	982.924	1022.4952	1033.9975	1057.478	1076.866	1096.1912	1148.2876	1197.1104	1208.0288	1263.2869	1294.3757	1300.7386	1306.2845	1347.3363	1354.3314	1362.0191	1409.4976	1480.1562	1489.447	1497.5089	1500.8003	1508.0265	1719.5353	2355.9912	3007.2213	3024.9795	3030.1737	3039.232	3048.4783	3063.4112	3070.1989	3077.5477	3110.3017	3112.6705	3189.5238
CCC1=CCC(C1)C#N	CCC1=CC[C@@H](C1)C#N	
InChI=1S/C8H11N/c1-2-7-3-4-8(5-7)6-9/h3,8H,2,4-5H2,1H3	InChI=1S/C8H11N/c1-2-7-3-4-8(5-7)6-9/h3,8H,2,4-5H2,1H3/t8-/m0/s1
