18
gdb 37153	3.93218	1.85277	1.61504	1.5143	78.78	-0.2283	0.0807	0.309	865.358	0.151016	-364.684616	-364.678898	-364.677954	-364.714224	25.716	
C	-0.0904935535	 1.5700667439	 0.0177122104	-0.358868
C	 1.447513155	 1.2861541956	-0.0346600554	-0.105914
C	 1.3264882736	 0.1453971044	 1.0203680955	-0.025916
C	 1.8516343354	-1.0268896261	 0.1656098565	-0.098443
C	 0.7652892306	-2.1229377	 0.3048582978	-0.038558
N	-0.0621917961	-2.0227347806	 1.5377373393	-0.336059
C	-0.5227073832	-1.3654677232	 0.2892276845	-0.225503
C	 0.0375119633	 0.0345020219	 0.1416479451	 0.370684
C	 1.2502416492	-0.0176118316	-0.8595232191	-0.048188
H	-0.4590305691	 2.106004452	 0.8978690866	 0.099129
H	-0.5532221942	 1.9608725044	-0.894458831	 0.092902
H	 2.2517070425	 2.0159513911	-0.1288733978	 0.069066
H	 1.3190278392	 0.2501611918	 2.1033082442	 0.083168
H	 2.8966536558	-1.3416704354	 0.1542209903	 0.057285
H	 0.8732263683	-3.0864088907	-0.1820225042	 0.086553
H	-0.5725129696	-2.8963272379	 1.6599427159	 0.22572
H	-1.4058528378	-1.7207592315	-0.2289603734	 0.088682
H	 1.1641023208	-0.1060440381	-1.9447899052	 0.06426
290.3108	330.9484	409.95	469.0423	549.619	682.5535	721.8961	759.8901	794.75	808.8668	856.1038	859.4347	863.5457	878.5876	890.9574	916.2799	933.1086	940.8232	985.6559	997.5735	1045.6469	1058.9588	1088.1675	1107.1072	1123.2458	1128.6165	1144.502	1151.0747	1180.5681	1186.9556	1206.2294	1211.9661	1221.6036	1255.9169	1303.1295	1305.9749	1344.7716	1388.827	1506.485	3038.2147	3084.5279	3096.0825	3098.2902	3110.245	3138.2087	3165.771	3180.2495	3476.914
C1C2C3C4C5NC5C13C24	C1[C@H]2[C@@H]3[C@H]4[C@H]5N[C@H]5[C@@]13[C@@H]24	
InChI=1S/C8H9N/c1-2-4-3-5(2)8(1,4)7-6(3)9-7/h2-7,9H,1H2	InChI=1S/C8H9N/c1-2-4-3-5(2)8(1,4)7-6(3)9-7/h2-7,9H,1H2/t2-,3+,4+,5-,6-,7-,8-/m1/s1
