19
gdb 59410	3.08576	1.04876	0.99024	5.7111	78.16	-0.2452	0.0215	0.2666	1290.8183	0.157417	-419.185425	-419.175817	-419.174873	-419.219694	35.559	
C	 0.268596179	 1.0905380768	-0.4328390662	-0.318998
N	-0.0002842043	-0.2026948488	 0.192732304	-0.082344
C	 0.5330713782	-0.2759162466	 1.554132133	-0.332576
C	-1.3805306625	-0.5923635084	 0.1523857435	-0.057204
C	-1.9976745126	-0.9851902593	-1.1644768644	-0.366232
C	-1.586302602	-2.0712840245	-0.1857896439	 0.277115
O	-0.4461515447	-2.8158591843	-0.4603338247	-0.460179
C	-2.607204815	-2.808696275	 0.516976298	 0.267171
N	-3.4464900147	-3.3689519106	 1.0816857702	-0.34494
H	 1.3493340891	 1.2561515958	-0.4715471672	 0.128379
H	-0.1183259307	 1.0979961671	-1.4541074386	 0.130284
H	-0.1875925922	 1.9309420847	 0.117156976	 0.108577
H	 0.0601342054	 0.4557065347	 2.2314073579	 0.112087
H	 0.3689558657	-1.2777457859	 1.9591465271	 0.143502
H	 1.6089174398	-0.0803382065	 1.5366911344	 0.128025
H	-2.0473218399	-0.1536140184	 0.8978164098	 0.104227
H	-3.0509720301	-0.7763014086	-1.3094862312	 0.141707
H	-1.3821542138	-0.9338708931	-2.0558232181	 0.134672
H	 0.2758957751	-2.1621260991	-0.4325535795	 0.286726
79.248	104.8839	145.5577	204.4191	234.0363	240.3157	278.4108	353.3297	365.5163	390.9281	475.223	506.3508	551.1463	585.2397	618.6622	724.6261	790.3987	862.8937	919.4947	947.7484	1046.7944	1059.1917	1064.6038	1090.9733	1124.0971	1128.2038	1191.8249	1209.6355	1243.2243	1280.1618	1317.6045	1372.6315	1434.7284	1443.6081	1467.9141	1478.8628	1482.884	1497.4932	1501.0309	1514.8691	2356.5776	2964.2983	2969.5831	3076.3442	3077.213	3079.588	3123.4883	3126.8085	3141.6886	3238.1942	3615.6812
CN(C)C1CC1(O)C#N	CN(C)[C@H]1C[C@]1(O)C#N	
InChI=1S/C6H10N2O/c1-8(2)5-3-6(5,9)4-7/h5,9H,3H2,1-2H3	InChI=1S/C6H10N2O/c1-8(2)5-3-6(5,9)4-7/h5,9H,3H2,1-2H3/t5-,6-/m0/s1
