19
gdb 108956	3.27629	1.22701	1.16769	1.5235	75.92	-0.2057	0.0545	0.2602	1161.056	0.160061	-419.206239	-419.197425	-419.196481	-419.239874	32.561	
C	-0.0317110652	 1.3743957869	 0.0295085076	-0.234237
O	 0.0667043392	-0.0527589398	 0.033833952	-0.262307
C	 0.7374195526	-0.5691937038	 1.0647802638	 0.471611
N	 1.2918654166	 0.0806985902	 2.0223689154	-0.368172
C	 1.7772968496	-0.9289132189	 2.937057616	-0.025813
C	 0.7743923237	-1.8419417592	 3.6223511276	-0.031144
C	-0.7014069444	-1.5439114539	 3.7392896424	-0.419517
C	 1.4492629896	-2.3006716057	 2.3413922592	-0.062201
N	 0.8534749999	-1.9493273755	 1.0754353378	-0.359156
H	 0.9591226986	 1.8272459524	-0.061622861	 0.142559
H	-0.6477849367	 1.6262254612	-0.8342941072	 0.128522
H	-0.4945848471	 1.7302698406	 0.9537514427	 0.140918
H	 2.7150304704	-0.7088315738	 3.4340965272	 0.089917
H	 1.1985594516	-2.3322083195	 4.4958443082	 0.085347
H	-1.0883277661	-1.0220463223	 2.8611463963	 0.124656
H	-1.2792471658	-2.4667665678	 3.8625673725	 0.111986
H	-0.8992680885	-0.9062769082	 4.6073312646	 0.122853
H	 2.1212616419	-3.1514656282	 2.3327162171	 0.095916
H	 0.1162604402	-2.5032943748	 0.6661128277	 0.248262
94.2374	109.093	124.5881	180.1609	218.6935	240.829	319.454	429.9753	478.0496	516.3361	615.9592	683.1265	729.1477	747.3754	767.9293	820.6121	891.4136	955.0272	1004.9838	1019.4268	1028.728	1072.1088	1095.4504	1127.119	1138.8481	1154.4978	1183.5073	1216.1796	1229.5233	1296.5218	1329.5864	1353.0199	1411.9178	1421.6808	1442.857	1475.4304	1489.5929	1495.3302	1500.4411	1506.7301	1684.9159	3034.4758	3047.9377	3090.6738	3118.0992	3122.0045	3135.4885	3153.5992	3162.4506	3174.1785	3619.4674
COC1=NC2C(C)C2N1	COC1=N[C@H]2[C@@H](C)[C@H]2N1	
InChI=1S/C6H10N2O/c1-3-4-5(3)8-6(7-4)9-2/h3-5H,1-2H3,(H,7,8)	InChI=1S/C6H10N2O/c1-3-4-5(3)8-6(7-4)9-2/h3-5H,1-2H3,(H,7,8)/t3-,4+,5-
