21
gdb 124455	3.07998	1.29449	1.14208	2.1795	84.51	-0.2333	0.029	0.2622	1183.4177	0.18297	-383.305355	-383.296318	-383.295373	-383.338945	34.991	
C	-0.2269436095	 1.5347878089	-0.1344020611	-0.391869
C	 0.0209241074	 0.0227714061	 0.0030221275	 0.253606
C	 0.8516651204	-0.2641224243	 1.2587705091	-0.425392
C	-1.3149550862	-0.7375081601	 0.0662771853	-0.391869
N	 0.7579667941	-0.4360475029	-1.1963704483	 0.043727
C	 1.9764907668	-1.0280764531	-1.2945426851	-0.022232
C	 2.2109709903	-1.2585987989	-2.6351486748	-0.257249
C	 1.0609987866	-0.7647195289	-3.2777427614	 0.001247
N	 0.1856058025	-0.268863023	-2.4073909479	-0.266182
H	 0.7207421344	 2.0810542577	-0.1663871413	 0.116349
H	-0.7759263874	 1.7447334817	-1.0538794222	 0.146344
H	-0.8077796221	 1.9000617819	 0.7179020157	 0.110951
H	 0.2962966583	 0.0791495017	 2.135468202	 0.123095
H	 1.0429466571	-1.3341457081	 1.3832215757	 0.124115
H	 1.8088325312	 0.2655857775	 1.2420468201	 0.124114
H	-1.8859266619	-0.5732160866	-0.849087593	 0.146338
H	-1.1435593886	-1.8126053779	 0.1773474879	 0.116351
H	-1.9049080767	-0.391555526	 0.9203728923	 0.110953
H	 2.580162614	-1.2407602644	-0.429249633	 0.12864
H	 3.0833968141	-1.7149750347	-3.0737077543	 0.100655
H	 0.8313056052	-0.7478722668	-4.3333577632	 0.108309
47.9722	137.8029	222.9382	236.0674	274.0011	307.506	335.0555	338.9383	355.3755	447.3406	483.8514	595.3497	635.8066	691.4914	761.5313	822.6051	830.6774	888.1753	925.938	930.9089	939.9322	964.9623	975.8352	1043.8883	1052.3223	1075.5999	1106.146	1208.0244	1218.1863	1250.1089	1253.7755	1297.934	1353.6638	1393.7293	1396.9202	1426.6173	1430.9746	1462.02	1471.1826	1489.6335	1490.8424	1497.341	1502.1823	1524.1012	1553.5018	3039.2467	3041.1535	3047.7023	3108.7268	3112.3235	3113.9514	3121.5267	3140.0213	3144.1417	3240.213	3266.5886	3290.0175
CC(C)(C)N1C=CC=N1	CC(C)(C)n1cccn1	
InChI=1S/C7H12N2/c1-7(2,3)9-6-4-5-8-9/h4-6H,1-3H3	InChI=1S/C7H12N2/c1-7(2,3)9-6-4-5-8-9/h4-6H,1-3H3
