17
gdb 70863	2.81198	1.74937	1.3381	2.3722	72.05	-0.2177	0.0131	0.2307	964.5811	0.135311	-421.786517	-421.778933	-421.777988	-421.817877	31.117	
O	-0.1289955	 1.3706706529	-0.1033827742	-0.461021
C	 0.0016334307	-0.0040339142	-0.0729817254	 0.388236
C	 0.7816569391	-0.8381514458	-1.0862824989	-0.362343
C	-0.1826559469	-2.0421779407	-0.7245977325	 0.384982
O	-0.7667315526	-2.7568534786	-1.7747678835	-0.498279
C	 0.4649111647	-2.8143061779	 0.4122447506	-0.179705
C	 0.4405823001	-2.0580610101	 1.5130949257	-0.078157
C	-0.3050037083	-0.7977251987	 1.2333242773	-0.162476
C	-1.115523755	-0.9993413099	-0.0294276463	-0.172469
H	 0.6413322857	 1.7584845535	 0.3268240501	 0.286012
H	 0.5461293379	-0.4830191803	-2.092698685	 0.114506
H	 1.86068455	-0.983015824	-0.9638633507	 0.079706
H	-0.0742844187	-3.2432234787	-2.2347096826	 0.278512
H	 0.9908332274	-3.7512998967	 0.2711771163	 0.092047
H	 0.9215238137	-2.2756994665	 2.4587159286	 0.0992
H	-0.7191423921	-0.1830781435	 2.0243545463	 0.088782
H	-2.1879240459	-0.9005457608	-0.1383338056	 0.102466
181.8216	208.9008	266.1984	315.6314	322.6765	370.481	401.9446	453.6574	549.9159	604.3687	605.5122	719.7447	731.2637	748.1625	786.9327	855.0725	898.9534	918.6242	930.3663	972.8883	987.6601	1007.5099	1018.308	1068.9132	1094.878	1113.8581	1157.8675	1203.7987	1229.3633	1250.5976	1290.4925	1297.3226	1345.2678	1375.4435	1434.1601	1487.5649	1644.5011	3034.8297	3112.4899	3181.9331	3193.0124	3201.7628	3218.6328	3792.5732	3808.8516
OC12CC3(O)C=CC1C23	O[C@@]12C[C@@]3(O)C=C[C@@H]1[C@@H]23	
InChI=1S/C7H8O2/c8-6-2-1-4-5(6)7(4,9)3-6/h1-2,4-5,8-9H,3H2	InChI=1S/C7H8O2/c8-6-2-1-4-5(6)7(4,9)3-6/h1-2,4-5,8-9H,3H2/t4-,5-,6+,7+/m1/s1
