20
gdb 17071	5.30479	1.14283	1.02301	1.6115	75.19	-0.2387	0.0913	0.33	1200.0455	0.177522	-348.972268	-348.964098	-348.963154	-349.005818	29.977	
C	 0.0045616333	 1.5218513715	-0.3243402516	-0.229929
C	-0.1218296423	 0.0179298893	-0.2018747495	 0.031729
C	-0.1539111619	-0.6322276627	 1.1576659533	-0.238215
C	-1.3989332383	-0.6043767539	 0.306475503	-0.28292
C	 1.4316347764	 2.0232334966	-0.1680122814	 0.177133
C	 1.6669573261	 3.5501237564	-0.1240388191	-0.300676
C	 2.3217824623	 3.263959863	 1.2411497461	-0.05781
O	 1.9406252491	 1.8748669427	 1.1836215999	-0.288795
H	-0.3670993755	 1.853004652	-1.3050585381	 0.094201
H	-0.6199434089	 2.0119955875	 0.4337549296	 0.091942
H	 0.3974965129	-0.536087725	-0.9806725842	 0.077836
H	 0.3591530028	-1.5784597843	 1.2885221398	 0.107341
H	-0.1048931224	 0.0211924681	 2.0206838379	 0.121825
H	-2.2035145244	 0.0620099422	 0.6012614236	 0.106248
H	-1.7370275459	-1.5303418445	-0.1458104539	 0.107374
H	 2.0914687954	 1.5035056304	-0.8791118105	 0.067817
H	 2.3128230921	 3.9668500974	-0.8981979237	 0.107396
H	 0.7458625415	 4.1351511022	-0.0699585104	 0.107428
H	 3.4127149079	 3.3871628053	 1.2645593908	 0.098116
H	 1.8920878898	 3.7731372859	 2.1118071985	 0.101957
63.8363	74.8122	97.9882	159.7039	293.2928	342.6867	404.9983	471.9865	730.3645	770.4812	799.7371	818.3668	836.8428	874.6951	887.3328	919.0972	969.14	974.0287	1026.2715	1035.1598	1055.3555	1072.3384	1074.3775	1114.1987	1136.4898	1163.3543	1190.6092	1196.4382	1218.4484	1229.1068	1253.371	1262.1405	1288.752	1318.2036	1369.4325	1395.1516	1422.7244	1466.2713	1474.6343	1489.6414	1508.9608	1533.0637	2984.6795	3003.7052	3009.7413	3050.9649	3051.7059	3072.6164	3127.1321	3129.2717	3130.2009	3142.7065	3207.4012	3229.2937
C(C1CC1)C1CCO1	C(C1CC1)[C@H]1CCO1	
InChI=1S/C7H12O/c1-2-6(1)5-7-3-4-8-7/h6-7H,1-5H2	InChI=1S/C7H12O/c1-2-6(1)5-7-3-4-8-7/h6-7H,1-5H2/t7-/m1/s1
