19
gdb 97102	2.45117	1.37292	0.99131	3.4497	80.51	-0.2283	0.0129	0.2412	1251.981	0.157601	-419.17614	-419.166678	-419.165734	-419.210526	34.219	
C	 0.0561990927	 1.3885580327	-0.0366421549	-0.341085
N	 0.3337632295	-0.0377663171	-0.1048935577	-0.326389
C	 0.5893964219	-0.6394105383	 0.9734030773	 0.354122
N	 0.6604190532	-0.2800638413	 2.3329341894	-0.368822
C	 1.1193351765	-1.6148174906	 2.7769385768	-0.24804
C	 0.9515373285	-2.0683274937	 1.3126624609	 0.31987
O	 0.2625232014	-3.2211851339	 0.8900540857	-0.278677
C	 1.6482247313	-3.089773483	 0.5220234655	-0.022837
C	 1.9543630273	-2.9066157473	-0.9403866802	-0.426753
H	 0.9790096105	 1.9714455605	-0.1640342596	 0.11822
H	-0.6138672314	 1.666346055	-0.8553796264	 0.128483
H	-0.4122258105	 1.6982631882	 0.9098347318	 0.106135
H	 1.0436515867	 0.5884617518	 2.6753973262	 0.245851
H	 2.1482519894	-1.6459139204	 3.152002158	 0.112687
H	 0.4464253937	-2.0948984873	 3.4930166225	 0.125993
H	 2.3019590839	-3.7716932906	 1.0700159735	 0.09212
H	 1.3096814174	-2.1376982191	-1.370367415	 0.166223
H	 2.9987867838	-2.6025824345	-1.0699653128	 0.117371
H	 1.8093094643	-3.8488345511	-1.479071271	 0.125528
80.2679	118.6026	128.7326	162.1228	203.6965	229.4874	248.741	326.7445	378.0547	449.3711	467.158	511.8624	674.6515	711.3724	768.7519	796.1786	896.4303	948.6984	989.6806	1032.6969	1048.5812	1082.6189	1099.4416	1115.6398	1140.1114	1143.474	1161.9752	1179.3295	1206.5223	1285.3788	1343.9471	1366.982	1413.7514	1436.5997	1475.854	1488.8204	1491.4647	1505.1069	1511.8347	1525.3008	1809.0875	2982.5288	3037.3453	3037.6692	3039.0435	3086.4547	3091.2936	3093.3338	3100.1841	3144.2047	3611.6958
CN=C1NCC11OC1C	CN=C1NC[C@]21O[C@H]2C	
InChI=1S/C6H10N2O/c1-4-6(9-4)3-8-5(6)7-2/h4H,3H2,1-2H3,(H,7,8)	InChI=1S/C6H10N2O/c1-4-6(9-4)3-8-5(6)7-2/h4H,3H2,1-2H3,(H,7,8)/t4-,6-/m0/s1
