15
gdb 35885	2.19092	1.73509	1.1389	1.049	71.4	-0.2596	0.018	0.2776	1060.8123	0.110396	-420.538953	-420.530374	-420.52943	-420.572986	31.078	
C	-0.3728658506	-1.2662147313	-0.4359194989	-0.447592
C	-0.2183264254	-0.1140126749	-0.1357077882	 0.335134
C	-0.0698240238	 1.2954823056	 0.1893199066	-0.069515
O	-0.317461827	 1.5528763058	 1.5733336405	-0.261837
C	 0.7154928613	 2.3972811615	 2.0543201982	 0.020704
O	 1.3601799665	 2.9464207501	 0.929583068	-0.232911
C	 1.352750186	 1.9061988286	-0.0431558205	-0.133566
C	 2.4576655373	 0.9663079802	 0.1406807004	 0.368445
C	 3.3855810579	 0.2206450753	 0.3005514572	-0.465367
H	-0.4976559225	-2.2888737401	-0.6943076409	 0.203389
H	-0.7828426855	 1.8801447465	-0.4087630525	 0.116425
H	 0.2885189838	 3.2176446935	 2.6391703131	 0.123251
H	 1.4178973769	 1.8092805092	 2.6653973807	 0.107518
H	 1.4175041091	 2.3796157537	-1.0259722212	 0.129519
H	 4.201246176	-0.4459100935	 0.4380191674	 0.206404
35.7624	115.3101	142.0912	177.6687	234.705	289.9175	407.883	481.3088	525.8911	582.5994	634.4339	640.0476	675.952	677.8257	737.2955	772.8392	846.1128	936.8407	973.9686	1018.6163	1052.6277	1085.1071	1112.2942	1171.8497	1219.7298	1266.4618	1307.5728	1350.6223	1374.4899	1424.3655	1543.0455	2238.3791	2246.106	2983.9331	3001.8462	3081.6576	3086.153	3501.4096	3503.3277
C#CC1OCOC1C#C	C#C[C@H]1OCO[C@H]1C#C	
InChI=1S/C7H6O2/c1-3-6-7(4-2)9-5-8-6/h1-2,6-7H,5H2	InChI=1S/C7H6O2/c1-3-6-7(4-2)9-5-8-6/h1-2,6-7H,5H2/t6-,7+
