19
gdb 70405	2.29077	1.49194	1.40051	3.5873	75.47	-0.245	-0.0194	0.2256	1062.1983	0.156817	-423.003584	-422.994521	-422.993576	-423.037009	34.409	
C	-0.0657447675	 1.6642883327	 0.34141205	-0.47773
C	-0.0011412019	 0.1502389984	 0.1312485	 0.130548
C	 0.9692226261	-0.441235455	-0.9432419545	-0.288034
C	 1.634962935	-1.3092025315	 0.1315601639	-0.087588
C	 2.2235745787	-0.420386615	 1.2055349855	-0.358957
C	 0.7468275522	-0.6998922783	 1.1990250541	 0.368892
O	 0.1042472027	-1.3466891972	 2.2415992644	-0.461811
C	-1.4152349672	-0.3915559868	-0.0207579225	 0.139693
O	-1.7954507455	-1.1339691583	-0.8881710322	-0.252105
H	 0.9246952552	 2.0742729985	 0.5565069608	 0.124109
H	-0.4503739213	 2.1712893218	-0.5502938256	 0.129788
H	-0.7242321521	 1.9214174467	 1.1797451717	 0.117142
H	 0.4170273209	-1.0104689282	-1.6920582424	 0.135549
H	 1.6240211376	 0.2854490618	-1.4338487967	 0.09298
H	 1.9445889613	-2.3393421412	 0.0120683069	 0.099822
H	 2.7566601256	-0.9499164969	 1.9895274454	 0.116827
H	 2.635041308	 0.5555291795	 0.9579167283	 0.106272
H	 0.1884904426	-0.8096974323	 3.0370402452	 0.289412
H	-2.1147297703	-0.0338526287	 0.7681001977	 0.075189
78.8967	133.9761	192.382	208.8037	247.7367	271.5675	310.8218	349.8114	410.9503	430.5047	470.2315	581.9061	609.2173	722.3017	786.4515	831.7762	871.2125	902.655	921.5088	952.5579	991.962	1010.5248	1024.0323	1038.0079	1081.6909	1128.6233	1153.8961	1211.7113	1213.007	1239.0032	1257.181	1281.6906	1317.4163	1388.0307	1405.743	1426.9164	1473.1749	1490.3161	1496.833	1503.2981	1829.1594	2875.863	3027.1367	3054.3962	3089.8908	3103.9882	3111.6077	3131.5944	3194.5487	3203.0364	3795.0752
CC1(CC2CC12O)C=O	C[C@]1(C[C@H]2C[C@@]12O)C=O	
InChI=1S/C7H10O2/c1-6(4-8)2-5-3-7(5,6)9/h4-5,9H,2-3H2,1H3	InChI=1S/C7H10O2/c1-6(4-8)2-5-3-7(5,6)9/h4-5,9H,2-3H2,1H3/t5-,6-,7-/m0/s1
