23
gdb 122182	3.39271	0.84025	0.82736	2.3718	82.48	-0.2528	0.0786	0.3314	1545.0691	0.204369	-425.409964	-425.399877	-425.398933	-425.445591	37.666	
C	-0.0387788867	 1.6145748237	 0.0947865039	-0.447123
C	-0.052745905	 0.0910599472	-0.016298007	 0.444553
C	 1.0938301736	-0.4824400112	-0.9099113577	-0.267189
C	 1.9049646837	-0.7674663835	 0.3834497679	-0.218758
C	 0.5947243937	-0.6147538173	 1.2020779812	-0.265018
O	-1.353931458	-0.4184741068	-0.2610526633	-0.315442
C	-1.9562855418	-0.0797951018	-1.5000614896	-0.094124
C	-3.2975335146	-0.7986133818	-1.5244237986	-0.053855
O	-4.1096471555	-0.4041832048	-0.4366988805	-0.422777
H	 0.9498302413	 1.9645806022	 0.4074748821	 0.119368
H	-0.2698762671	 2.0986413043	-0.8590318859	 0.118428
H	-0.7703464411	 1.9456731945	 0.8389239222	 0.12188
H	 0.7726301281	-1.4071625554	-1.3966925384	 0.105879
H	 1.5370155577	 0.1810913907	-1.6569548003	 0.093788
H	 2.4175705316	-1.7290160398	 0.4442186068	 0.102902
H	 2.6288383587	 0.0216685351	 0.6023505772	 0.105114
H	 0.6331059792	-0.0559344522	 2.1405084111	 0.095284
H	 0.1046115914	-1.5755903254	 1.3751800697	 0.109138
H	-2.1204580341	 1.0040613534	-1.5784121689	 0.098541
H	-1.3285697165	-0.3988044679	-2.3466071864	 0.08769
H	-3.83772896	-0.5465842475	-2.4431035105	 0.104443
H	-3.1206818439	-1.8862592106	-1.5216424151	 0.088803
H	-3.5425556646	-0.4656601554	 0.3413265601	 0.288476
41.6128	74.3619	123.0371	167.1276	190.2991	252.6029	285.6701	316.4669	366.0727	409.1654	447.8037	461.5808	503.9794	661.6577	718.3482	794.1185	862.6655	864.9969	901.4027	912.5411	927.4752	938.3546	985.0145	989.7333	1047.9197	1079.1932	1107.5316	1136.9571	1169.287	1192.519	1203.1193	1213.7203	1241.4534	1249.6736	1264.0726	1276.3663	1289.4427	1300.9578	1384.7945	1400.7758	1409.8219	1440.9171	1466.8965	1479.254	1488.9101	1497.9642	1500.2234	1504.9678	1511.1769	2976.7635	2984.3367	3029.2145	3037.9014	3056.1066	3062.0613	3069.4996	3076.4982	3105.6959	3107.3637	3110.0476	3116.4816	3129.8619	3791.685
CC1(CCC1)OCCO	CC1(CCC1)OCCO	
InChI=1S/C7H14O2/c1-7(3-2-4-7)9-6-5-8/h8H,2-6H2,1H3	InChI=1S/C7H14O2/c1-7(3-2-4-7)9-6-5-8/h8H,2-6H2,1H3
