16
gdb 9710	3.17044	1.8245	1.62856	3.3473	70.47	-0.2395	-0.0068	0.2327	870.6351	0.131213	-342.799133	-342.79148	-342.790536	-342.830945	28.574	
C	-0.0263188864	 1.5281720974	-0.0189571507	-0.403412
C	 0.0008394339	-0.0105183815	 0.0096634443	 0.106001
N	 0.7656518292	-0.5525012061	-1.1303031045	-0.331707
C	 1.5799188286	-1.6946858845	-0.6842864597	-0.210311
C	 1.6253514449	-1.5066041325	 0.806630692	-0.062697
C	 0.7547715924	-0.5849381435	 1.1989898039	-0.080117
C	-1.3969403872	-0.5190855098	 0.0229771542	 0.239101
N	-2.4797942337	-0.9253261456	-0.0047640942	-0.343099
H	 1.0019421167	 1.8959363172	-0.009164484	 0.13118
H	-0.5183313113	 1.8849267025	-0.9278582135	 0.13143
H	-0.5665632353	 1.9281772255	 0.8443610085	 0.126871
H	 0.1736764086	-0.7709870605	-1.920933103	 0.234537
H	 1.1452377882	-2.6761354611	-0.9384103076	 0.113188
H	 2.5769987749	-1.6602525594	-1.1436164989	 0.117622
H	 2.2843509269	-2.0758568794	 1.4500352137	 0.114653
H	 0.5497771896	-0.2590582588	 2.2100596695	 0.116759
90.7475	164.4178	194.7076	235.0177	286.2545	346.6672	458.1973	505.7723	566.4424	626.1071	644.3904	743.32	797.4579	845.1958	904.0391	941.5665	964.3872	976.3254	1027.3279	1065.712	1126.9298	1147.888	1176.1253	1195.6767	1204.2298	1335.875	1354.6388	1401.1867	1446.3849	1484.1761	1489.3465	1513.0325	1692.7576	2335.7345	2961.925	3020.4888	3044.7793	3120.7677	3137.4607	3210.8692	3236.2323	3575.1231
CC1(NCC=C1)C#N	C[C@]1(NCC=C1)C#N	
InChI=1S/C6H8N2/c1-6(5-7)3-2-4-8-6/h2-3,8H,4H2,1H3	InChI=1S/C6H8N2/c1-6(5-7)3-2-4-8-6/h2-3,8H,4H2,1H3/t6-/m1/s1
