16
gdb 56104	4.48073	0.74414	0.6432	1.9907	75.15	-0.2458	-0.0739	0.1719	1655.583	0.120319	-437.899567	-437.889271	-437.888327	-437.938637	34.426	
C	-0.0454131445	 1.4874099946	-0.0031532632	-0.483114
C	 0.0565006665	-0.0240146373	-0.1248587073	 0.41067
O	 1.1072870643	-0.5985465528	-0.3495071123	-0.375992
N	-1.1143696231	-0.7038789271	 0.0351688744	-0.335078
C	-1.1660579145	-2.1364197123	-0.0540434934	-0.229093
C	-2.5896476682	-2.6147545305	 0.1623082315	 0.215916
O	-3.5069748418	-1.8489944359	 0.3755658442	-0.294964
C	-2.7762839068	-4.0486086388	 0.0964821996	 0.260304
C	-2.9103264608	-5.2429642177	 0.0378805379	-0.389241
H	 0.615895029	 1.8204010163	 0.8011253876	 0.153268
H	 0.3161806154	 1.9395614853	-0.9304131055	 0.153275
H	-1.0588086266	 1.8438350126	 0.1969020565	 0.116954
H	-1.9910316546	-0.2407010109	 0.2209474888	 0.26103
H	-0.8128293415	-2.5007486583	-1.0293228663	 0.156425
H	-0.5125513176	-2.618619449	 0.6869860543	 0.156355
H	-3.0432352051	-6.2969090882	-0.0112708469	 0.223284
8.3068	24.0161	62.3791	95.7416	181.8433	182.9096	250.4004	271.565	378.2922	482.0906	508.0723	561.6668	592.0815	640.3531	642.0872	660.233	713.2058	824.9823	985.4807	991.1511	999.9104	1053.7389	1106.2386	1179.2671	1221.5435	1255.2632	1362.2256	1397.4711	1471.3716	1472.2806	1486.6816	1523.9921	1758.5455	1779.7586	2217.8785	3013.4612	3030.6937	3051.3697	3127.9508	3132.2969	3492.6218	3622.685
CC(=O)NCC(=O)C#C	CC(=O)NCC(=O)C#C	
InChI=1S/C6H7NO2/c1-3-6(9)4-7-5(2)8/h1H,4H2,2H3,(H,7,8)	InChI=1S/C6H7NO2/c1-3-6(9)4-7-5(2)8/h1H,4H2,2H3,(H,7,8)
