19
gdb 116884	3.71379	0.56621	0.50564	3.6242	84.32	-0.2467	-0.0285	0.2182	2169.7855	0.154976	-422.991379	-422.980315	-422.979371	-423.030257	36.598	
C	-0.0093434245	 1.4480595329	-0.0240729317	-0.219837
O	-0.0319267014	 0.0399465505	 0.0241456012	-0.226492
C	 0.6164110122	-0.538825077	-1.0906032143	-0.200608
C	 0.5660941664	-1.9923724073	-1.0019915925	-0.01728
C	 0.5199401497	-3.194788668	-0.9576871706	 0.151156
C	 0.502393664	-4.6495191602	-0.8599063787	-0.220905
C	 1.2396417163	-5.3169911547	-2.0471352611	-0.397353
C	 1.1805681568	-5.0924244915	 0.4412328821	 0.174435
O	 0.7379036451	-5.9310812847	 1.1773949567	-0.241361
H	 1.0197320304	 1.8417618531	-0.0249318326	 0.105587
H	-0.5253270094	 1.8358604837	-0.916989516	 0.105812
H	-0.5256143865	 1.8091843154	 0.8678392475	 0.133803
H	 0.1388616813	-0.2074923592	-2.0297955296	 0.116451
H	 1.6678472207	-0.2044728612	-1.14139211	 0.11495
H	-0.5274173339	-5.0214504242	-0.8214801543	 0.127058
H	 0.7884107449	-5.0041020925	-2.9915030456	 0.138318
H	 2.2945147382	-5.0271654188	-2.0622850419	 0.132093
H	 1.1739645122	-6.4052332443	-1.9656667432	 0.135704
H	 2.1502207473	-4.583428082	 0.6391800645	 0.088468
19.4586	45.9395	72.9203	86.8276	130.1547	174.5585	226.3396	231.2481	281.1904	320.864	350.7225	411.2456	465.7582	529.9924	569.3556	804.1698	888.1509	930.5491	978.2799	1027.1898	1047.2782	1083.8257	1123.1893	1145.3744	1182.1806	1184.941	1220.4434	1255.0466	1270.3696	1324.355	1398.1448	1411.0368	1415.7465	1477.3925	1484.5075	1492.4889	1495.2516	1497.9166	1516.234	1840.3013	2367.3715	2887.3133	2942.7129	2959.5172	2969.1621	3012.2855	3045.4447	3054.3653	3122.5537	3123.1027	3131.7408
COCC#CC(C)C=O	COCC#C[C@@H](C)C=O	
InChI=1S/C7H10O2/c1-7(6-8)4-3-5-9-2/h6-7H,5H2,1-2H3	InChI=1S/C7H10O2/c1-7(6-8)4-3-5-9-2/h6-7H,5H2,1-2H3/t7-/m1/s1
