18
gdb 12841	2.91228	2.39924	1.76361	1.3064	71.92	-0.236	0.0255	0.2614	817.74	0.154838	-347.804444	-347.797336	-347.796392	-347.835627	28.317	
O	-0.0780098882	 1.3295530187	-0.3203454511	-0.489097
C	 0.0126509328	-0.0320001851	 0.0435671767	 0.415613
C	 0.3974343221	-0.9911638816	-1.1294716736	-0.273997
C	-1.0685062665	-1.5086691572	-1.1931193882	-0.223631
C	-1.3891414792	-0.7181253916	 0.113155184	-0.076768
C	-1.323343525	-1.5037978637	 1.3914367144	-0.08104
C	-0.1976491722	-1.2847837862	 2.0740038289	-0.060526
C	 0.712694157	-0.2848771283	 1.3995099859	-0.337888
H	 0.8141629264	 1.6522982303	-0.4885183211	 0.273947
H	 0.7508371704	-0.472638551	-2.0242127458	 0.095517
H	 1.1284396833	-1.7546237441	-0.8505731945	 0.096275
H	-1.6180382629	-1.1368336766	-2.0609689643	 0.103149
H	-1.1976626295	-2.5920150598	-1.1356433347	 0.095556
H	-2.2532637858	-0.0497357272	 0.0548975781	 0.081051
H	-2.1158887828	-2.1770051398	 1.7024199402	 0.089851
H	 0.051791447	-1.7461692143	 3.0239315413	 0.090677
H	 1.7375760665	-0.660767315	 1.2790703534	 0.095114
H	 0.7796499967	 0.6499600224	 1.9729606005	 0.106197
70.4576	228.7696	273.923	302.3078	377.6598	422.4637	461.9692	580.5167	652.8318	729.4798	740.9713	771.748	839.2054	862.5495	914.3304	950.2311	960.5043	976.3883	986.3635	1029.6833	1040.5002	1091.9831	1108.7067	1132.0133	1180.4473	1190.1681	1218.615	1255.3221	1263.4834	1276.7055	1287.1881	1307.0011	1361.5774	1390.5808	1461.4844	1479.6641	1488.2435	1677.1444	3006.6121	3038.2761	3055.2008	3060.2288	3068.0711	3104.1171	3123.0217	3171.8428	3197.2936	3798.0657
OC12CCC1C=CC2	O[C@]12CC[C@H]1C=CC2	
InChI=1S/C7H10O/c8-7-4-1-2-6(7)3-5-7/h1-2,6,8H,3-5H2	InChI=1S/C7H10O/c8-7-4-1-2-6(7)3-5-7/h1-2,6,8H,3-5H2/t6-,7-/m1/s1
