14
gdb 11178	3.97398	1.58491	1.38527	4.1984	62.76	-0.269	0.0079	0.2768	900.0279	0.107131	-382.551415	-382.544295	-382.543351	-382.58309	26.337	
O	 0.056383221	 0.021736957	 0.1004684454	-0.326146
C	-0.0357866483	 1.2120762831	 0.0866137449	 0.435833
C	-1.2921908546	 2.075922641	 0.0689576647	-0.354781
C	-0.7847053584	 3.4543413077	 0.4931203146	-0.241528
C	 0.6863593838	 3.4161923473	 0.0062406863	-0.075927
O	 1.0656986712	 2.0244162087	 0.0880512584	-0.211823
C	 0.8527293652	 3.9112102537	-1.3582177523	 0.355233
C	 0.9711103501	 4.3307994346	-2.4775394536	-0.469904
H	-1.6825730604	 2.0810623584	-0.9545112023	 0.151646
H	-2.0557635993	 1.6451272803	 0.7168192462	 0.143526
H	-1.334366595	 4.2901959317	 0.0607037365	 0.130449
H	-0.7983850398	 3.5534079709	 1.5820680356	 0.123316
H	 1.354748855	 3.9590823202	 0.6799041225	 0.128619
H	 1.0883647694	 4.6976826953	-3.4677423768	 0.211486
83.9745	123.1537	202.1557	265.0637	463.2016	471.2653	520.7621	564.0414	641.329	673.6113	680.8081	749.2165	798.313	849.2693	895.7289	979.4131	1000.0465	1047.0022	1073.8459	1154.5976	1164.9163	1217.8109	1293.4584	1308.1402	1348.572	1373.1834	1463.6902	1496.0616	1892.4596	2240.1113	3063.497	3068.8274	3079.6475	3134.7263	3141.9138	3501.0731
O=C1CCC(O1)C#C	O=C1CC[C@@H](O1)C#C	
InChI=1S/C6H6O2/c1-2-5-3-4-6(7)8-5/h1,5H,3-4H2	InChI=1S/C6H6O2/c1-2-5-3-4-6(7)8-5/h1,5H,3-4H2/t5-/m0/s1
