13
gdb 28657	5.91709	1.04575	0.88869	5.2599	77.88	-0.2463	-0.0534	0.1929	1194.9277	0.092071	-411.873714	-411.86609	-411.865146	-411.906262	27.382	
N	-0.0160648637	 1.3332539133	 0.0078813828	-0.546416
C	 0.0022017257	-0.0140799715	 0.0008983446	 0.473709
N	-1.1944895249	-0.6388387284	 0.0046586319	-0.311602
C	-1.1595193076	-1.9595010193	-0.0022599147	-0.037477
C	 0.0384954899	-2.6910061896	-0.0129229159	 0.070832
C	 1.2162365016	-1.9272212336	-0.0158566935	-0.037479
N	 1.2153893513	-0.6060949391	-0.0091327745	-0.311602
C	 0.0577524142	-4.1118019129	-0.0202639995	 0.19966
N	 0.0734540669	-5.2703755698	-0.026248408	-0.33369
H	 0.8507712036	 1.8400936997	 0.0054765416	 0.276935
H	-0.8963214982	 1.8163560385	 0.0154755597	 0.276935
H	-2.1158575152	-2.4769756935	 0.0006469674	 0.140098
H	 2.1862521164	-2.4185205738	-0.0239790221	 0.140097
85.2281	105.9402	151.4584	236.7569	401.8364	416.4088	449.4064	506.4682	562.9479	573.7581	583.6481	668.4427	745.868	835.758	891.5214	991.052	1006.1937	1032.1178	1045.5325	1248.41	1270.2307	1334.2076	1409.4869	1427.7851	1509.1208	1560.0102	1633.3751	1658.0025	2338.4368	3165.5774	3166.2339	3631.8474	3771.3872
NC1=NC=C(C=N1)C#N	Nc1ncc(cn1)C#N	
InChI=1S/C5H4N4/c6-1-4-2-8-5(7)9-3-4/h2-3H,(H2,7,8,9)	InChI=1S/C5H4N4/c6-1-4-2-8-5(7)9-3-4/h2-3H,(H2,7,8,9)
