19
gdb 112763	2.1097	1.37857	1.01903	2.3968	77.04	-0.2493	0.0339	0.2832	1233.4654	0.157162	-422.973498	-422.963896	-422.962952	-423.008393	35.277	
C	 0.4423796108	 1.3453346584	-0.4081631179	-0.406103
C	 0.110285822	-0.0596304688	 0.0435908818	 0.158796
O	 0.7869372719	-1.077547057	-0.733800204	-0.321078
C	 1.4218237755	-1.6485475632	 0.4350818112	 0.119335
C	 2.931602809	-1.628717642	 0.2679460972	-0.078296
O	 3.289046154	-2.3377985926	-0.9028590537	-0.422346
C	 0.7391628734	-0.6053515225	 1.3710319714	-0.309998
C	 1.5777525216	 0.27669301	 2.1561538931	 0.359841
C	 2.2639113704	 1.0132147606	 2.8145588024	-0.47228
H	 1.514274806	 1.5441770649	-0.3338749565	 0.131613
H	 0.1309922929	 1.4785490043	-1.4488752395	 0.127115
H	-0.088363771	 2.0788142261	 0.2074091443	 0.124608
H	-0.9745345505	-0.2227191049	 0.0105367165	 0.085083
H	 1.0784985918	-2.6778253898	 0.5953765795	 0.088319
H	 3.290087353	-0.589300041	 0.2409763287	 0.095568
H	 3.4163689003	-2.1278167693	 1.1137410324	 0.111961
H	 2.7629158195	-1.9526557954	-1.6147573457	 0.292816
H	-0.0118018954	-1.0662253156	 2.0175634768	 0.112925
H	 2.8727457949	 1.6594439978	 3.397362032	 0.202123
45.6989	108.6433	119.0835	152.7982	211.2991	245.7606	323.7722	352.2794	409.6629	461.2991	480.2463	517.137	600.1578	627.6249	645.0596	772.2067	805.9462	834.1028	895.9127	945.5884	1002.5506	1041.2657	1079.2839	1094.7166	1117.4657	1125.7055	1159.1395	1198.625	1224.8344	1274.2571	1304.3527	1345.7282	1348.2982	1381.7785	1403.8953	1416.2547	1437.2024	1481.8975	1488.5325	1499.0248	2232.1446	3001.323	3017.6749	3032.762	3042.0596	3074.8762	3080.4457	3112.8327	3128.584	3501.6498	3782.7617
CC1OC(CO)C1C#C	C[C@H]1O[C@@H](CO)[C@H]1C#C	
InChI=1S/C7H10O2/c1-3-6-5(2)9-7(6)4-8/h1,5-8H,4H2,2H3	InChI=1S/C7H10O2/c1-3-6-5(2)9-7(6)4-8/h1,5-8H,4H2,2H3/t5-,6+,7+/m1/s1
