19
gdb 78990	3.00144	1.82582	1.49011	1.4286	77.87	-0.2183	0.0727	0.291	958.3341	0.159956	-381.978441	-381.971029	-381.970085	-382.009798	29.929	
C	-0.1090429464	 1.5748445869	 0.0011281482	-0.329639
N	 0.0230734521	 0.1274855551	 0.0145496304	-0.073312
C	 1.0404800933	-0.5073100514	-0.8452203024	-0.105321
C	 2.4629802066	-0.1190163124	-0.3388943049	-0.060265
C	 2.2210453936	-0.1275304446	 1.1293898485	-0.060265
C	 0.7120123142	-0.5188112641	 1.1481171983	-0.105322
C	 1.1849089408	-1.6620162095	 0.1956836369	 0.396093
C	 0.6662608526	-3.0574053176	 0.1021637218	-0.530456
N	 2.678261211	-1.380218451	 0.4433606754	-0.210169
H	 0.8464674311	 2.1019008707	 0.1616033953	 0.103574
H	-0.5202440851	 1.8945485719	-0.9619681204	 0.12114
H	-0.8080700327	 1.8844710915	 0.7849291796	 0.12114
H	 0.8378495547	-0.6022895485	-1.9116172844	 0.074809
H	 3.2805580028	 0.3891597573	-0.8347354883	 0.095308
H	 2.8353767879	 0.3734816465	 1.8670338527	 0.095309
H	 0.1781104886	-0.6253981622	 2.0919768161	 0.074808
H	-0.4136852517	-3.0504838196	-0.0764213999	 0.133873
H	 1.1520964353	-3.596809161	-0.7178806714	 0.129354
H	 0.8631315111	-3.6065501378	 1.0290660385	 0.12934
172.7528	213.983	226.9249	236.8256	274.6125	305.2803	554.1407	609.0022	630.3025	694.2396	780.0411	805.4189	818.6594	831.6237	847.2261	861.0493	884.1051	913.9904	954.0254	966.9896	1032.9093	1049.3301	1103.6952	1112.2002	1137.6984	1146.4614	1154.8061	1160.5219	1206.3154	1220.9358	1234.9502	1271.0434	1278.7748	1335.4834	1369.7806	1416.6996	1443.8006	1479.6856	1485.0756	1489.0519	1504.1743	2966.7647	3031.7177	3063.4564	3099.3672	3101.2598	3109.9203	3121.0021	3122.923	3184.9763	3196.6245
CN1C2C3C4C1C2(C)N34	CN1[C@H]2[C@H]3[C@H]4[C@@H]1[C@]2(C)N34	
InChI=1S/C7H10N2/c1-7-5-3-4(9(3)7)6(7)8(5)2/h3-6H,1-2H3	InChI=1S/C7H10N2/c1-7-5-3-4(9(3)7)6(7)8(5)2/h3-6H,1-2H3/t3-,4+,5+,6-,7-,9?
