16
gdb 34359	2.98065	1.62197	1.32698	4.6204	72.37	-0.272	-0.0086	0.2634	973.6754	0.125317	-400.694836	-400.68781	-400.686865	-400.726186	27.804	
N	-0.0316740151	-1.1069812935	-0.0824171605	-0.334902
C	-0.0117357802	 0.0481552496	-0.0415175504	 0.233952
C	 0.0305097794	 1.496015863	 0.0377576712	 0.309256
O	-0.4303724021	 2.1586350535	-1.1635545207	-0.328647
C	 0.8285965927	 2.8817871046	-1.3029334876	-0.115887
C	 1.3440992863	 2.3176775788	 0.0347702258	-0.127572
C	 0.89993818	 2.9873730084	 1.3553308963	-0.064777
C	-0.461129862	 3.6167372101	 1.2603375151	-0.299203
C	-0.37486761	 2.1270432459	 1.3952674346	-0.095014
H	 1.3807051539	 2.5329443964	-2.1822367259	 0.121924
H	 0.6755385035	 3.9635223388	-1.3675660342	 0.115721
H	 2.3152909334	 1.8291702409	 0.0577222285	 0.109007
H	 1.578998739	 3.220649874	 2.1648971697	 0.103516
H	-0.7831083734	 4.1281960531	 2.1613222969	 0.124386
H	-0.830737714	 4.0564122774	 0.3411594678	 0.139197
H	-0.8220993915	 1.5740071389	 2.2109102533	 0.109042
139.3498	151.1132	242.5732	310.4761	406.6196	468.7132	523.1313	541.4026	599.6079	691.4863	757.5579	794.6511	869.2199	914.2349	932.5138	940.8713	969.4324	995.3785	1020.9665	1034.9384	1053.5438	1073.8192	1086.9949	1113.5621	1127.5281	1160.8826	1183.386	1221.4267	1292.0688	1306.4732	1331.7114	1356.4978	1486.9505	1518.7008	2353.4386	3037.6464	3089.6383	3140.2889	3146.9736	3194.7887	3203.2447	3224.1922
N#CC12OCC1C1CC21	N#C[C@]12OC[C@H]1[C@H]1C[C@@H]21	
InChI=1S/C7H7NO/c8-3-7-5-1-4(5)6(7)2-9-7/h4-6H,1-2H2	InChI=1S/C7H7NO/c8-3-7-5-1-4(5)6(7)2-9-7/h4-6H,1-2H2/t4-,5+,6-,7+/m0/s1
