12
gdb 10016	2.81269	1.46204	0.96245	10.2428	77.88	-0.1882	-0.0529	0.1353	1102.9776	0.084039	-373.693699	-373.68533	-373.684386	-373.726962	28.632	
N	 0.0293793036	 1.4063097947	 0.114206663	-0.520008
C	-0.0057507603	 0.0495578923	 0.0138037901	 0.133084
N	 1.0555475751	-0.7087476851	 0.0019423847	-0.268787
H	 1.9664090321	-0.2620944786	 0.017108879	 0.286667
C	 1.1301967863	-2.1219986151	-0.0141787572	-0.004285
C	 2.409558808	-2.6779837394	-0.0507014506	 0.163056
N	 3.5010340351	-3.0864058079	-0.0797357481	-0.372252
C	-0.0744552966	-2.8222603955	-0.0084445786	 0.205099
N	-1.1371949817	-3.3031659857	-0.0029233114	-0.387357
H	 0.889205374	 1.8996089346	-0.073954022	 0.276741
H	-0.8042336707	 1.9016366364	-0.1574761113	 0.290895
H	-0.972307165	-0.4387297008	 0.0052938923	 0.197146
100.5744	114.9247	125.8053	137.5584	282.8218	324.8976	363.1968	419.4226	479.6939	501.3431	562.6514	568.6736	600.6474	763.8527	821.3298	936.2452	1073.8601	1225.8269	1246.0332	1346.6103	1393.3038	1468.8892	1653.9136	1745.0776	2262.4817	2294.1301	3228.3603	3558.7188	3586.7032	3701.3327
NC=[NH+][C-](C#N)C#N	[NH2]=C[NH]=C(C#N)C#N	
InChI=1S/C4H4N4/c5-1-4(2-6)8-3-7/h3,8H,7H2	InChI=1S/C4H4N4/c5-1-4(2-6)8-3-7/h3,8H,7H2
