19
gdb 108990	2.77278	1.38179	1.08417	1.5713	76.78	-0.2155	0.0223	0.2378	1152.6383	0.158783	-422.983959	-422.975384	-422.97444	-423.017148	33.093	
O	-0.0221248823	 1.4003623054	-0.0230393804	-0.413897
C	-0.042151998	-0.0155490477	-0.0374129414	-0.213109
C	-1.4477256564	-0.4896915709	 0.0169096996	 0.27726
C	-2.6179554517	 0.151470303	 0.0248948397	-0.194936
C	-3.6419281287	-0.9948434106	 0.0554513581	-0.077082
C	-3.0174211953	-1.9696649525	-1.0048163734	-0.235566
C	-1.8697369297	-1.9788270434	 0.0475247663	 0.303412
O	-0.8892505377	-2.9693699916	-0.0215136271	-0.482671
C	-3.0012152578	-1.9321122845	 1.1357589992	-0.27267
H	 0.8897340057	 1.6859949891	-0.1286487063	 0.289196
H	 0.4429570725	-0.4215544778	-0.942357346	 0.107402
H	 0.5251680424	-0.4323270172	 0.8165046048	 0.080629
H	-2.8210153898	 1.2115994826	 0.0049023003	 0.111736
H	-4.7026766983	-0.7546899833	 0.0612365069	 0.066661
H	-3.5338795315	-2.9318379191	-1.0765087385	 0.095575
H	-2.7911379208	-1.5637555721	-1.9928077457	 0.095605
H	-0.3968324207	-2.9689164454	 0.8062701946	 0.279998
H	-2.7582118612	-1.4890351808	 2.1048778513	 0.088061
H	-3.5181884307	-2.8900928532	 1.2505528079	 0.094397
70.7825	157.0474	165.4537	221.3219	240.9793	300.1646	361.2859	433.2954	487.5573	568.0539	574.149	599.1379	713.597	787.726	800.6352	836.6551	885.7375	910.0971	915.8681	961.5143	1003.2868	1041.0962	1059.9585	1064.761	1084.2861	1129.1197	1153.1836	1167.9777	1208.4202	1222.0411	1231.8425	1241.4066	1261.9531	1266.4941	1314.3684	1347.4238	1465.7754	1475.7272	1502.6295	1518.3811	1704.0927	2917.7041	2953.4436	3043.3525	3056.1575	3115.4202	3126.534	3142.2302	3245.3387	3807.2065	3835.2172
OCC1=CC2CC1(O)C2	OCC1=C[C@H]2C[C@]1(O)C2	
InChI=1S/C7H10O2/c8-4-6-1-5-2-7(6,9)3-5/h1,5,8-9H,2-4H2	InChI=1S/C7H10O2/c8-4-6-1-5-2-7(6,9)3-5/h1,5,8-9H,2-4H2/t5-,7-
