18
gdb 97747	5.98308	0.67449	0.65995	1.753	83.68	-0.2322	0.0187	0.2509	1715.0676	0.147953	-401.823684	-401.815119	-401.814175	-401.858528	31.271	
O	 0.2195523631	 1.1958643983	 0.859116128	-0.400217
C	 0.0196422769	 0.2889906231	-0.2153746167	-0.198453
C	-1.3399574813	-0.2453575053	-0.2837139568	 0.147545
C	-2.4588801594	-0.6956381654	-0.2824758462	 0.022789
C	-3.8193424559	-1.1853557912	-0.28702197	-0.174799
C	-4.4177769969	-1.9067974669	-1.529743415	-0.058385
C	-3.5098336092	-3.0863074324	-1.1257412286	-0.175876
N	-4.0705662667	-2.6350908001	 0.2402553904	-0.147533
C	-5.40697199	-2.5127472246	-0.5167673858	-0.166882
H	-0.0805571723	 0.7593696742	 1.6633697784	 0.289674
H	 0.2488961014	 0.8521134368	-1.1271013687	 0.141667
H	 0.7345177575	-0.5486207702	-0.1734583478	 0.120845
H	-4.4842426328	-0.4686711455	 0.2058509644	 0.100312
H	-4.607461128	-1.4822501112	-2.5212163984	 0.073252
H	-3.8279020027	-4.0936141236	-1.4055742724	 0.102293
H	-2.4295723801	-2.9648573365	-1.2167577624	 0.11762
H	-6.1280079594	-1.8495950346	-0.0304401238	 0.102095
H	-5.8518897642	-3.4811207449	-0.7556523386	 0.104053
26.6079	82.9659	101.2877	180.2842	267.8228	337.093	410.9957	456.5609	499.3033	583.373	609.5409	751.0719	784.8347	830.323	855.589	902.3561	909.7639	939.4617	988.1239	1024.9511	1049.3142	1071.3258	1082.4049	1117.4134	1141.7397	1162.665	1199.3449	1204.6875	1216.8397	1230.7725	1242.4132	1280.3937	1359.4839	1384.2434	1418.834	1489.0067	1511.132	1547.2775	2349.5671	2975.2628	3043.9843	3052.7441	3058.7292	3060.9122	3071.1016	3124.795	3139.1794	3816.0693
OCC#CC1C2CN1C2	OCC#C[C@H]1[C@H]2CN1C2	
InChI=1S/C7H9NO/c9-3-1-2-7-6-4-8(7)5-6/h6-7,9H,3-5H2	InChI=1S/C7H9NO/c9-3-1-2-7-6-4-8(7)5-6/h6-7,9H,3-5H2/t7-/m0/s1
