21
gdb 105373	2.45649	1.27639	0.99237	2.0263	78.93	-0.2477	0.0857	0.3335	1278.7677	0.180895	-424.178905	-424.169496	-424.168552	-424.213366	35.75	
O	-0.7957858336	 1.9275749236	-0.4679061662	-0.432413
C	-0.2399514081	 0.6866148037	-0.0653057184	-0.0987
C	-1.3054590244	-0.3821691114	 0.0346055085	 0.390096
C	-1.6889273195	-1.1875524556	-1.1666719775	-0.309982
C	-0.9492122923	-1.8430509529	-0.0153560455	-0.328048
O	-2.4040231918	 0.007749332	 0.8335653847	-0.303885
C	-2.1630993044	 0.0024801296	 2.2168127187	 0.12866
C	-1.6976757776	 1.2599508913	 2.9058887042	-0.289433
C	-3.1296136694	 0.7822292273	 3.0461530847	-0.295882
H	-1.6953076064	 1.9391420952	-0.1199571225	 0.287633
H	 0.5077156203	 0.3951788379	-0.811189132	 0.099761
H	 0.2790634442	 0.7877697149	 0.9001188496	 0.092888
H	-2.7405410115	-1.424973646	-1.2764079032	 0.125587
H	-1.1581713093	-1.0065909291	-2.0945623909	 0.119647
H	 0.0913649592	-2.1195540819	-0.1496166294	 0.116736
H	-1.517339896	-2.5157825344	 0.6172374356	 0.121122
H	-1.8020113132	-0.952626331	 2.5933324524	 0.091288
H	-1.0287430809	 1.1660523843	 3.7545997859	 0.115738
H	-1.5189051144	 2.129723133	 2.2839291721	 0.126815
H	-3.8905833044	 1.3338212537	 2.5056855627	 0.125385
H	-3.4566719066	 0.3654977858	 3.9918137766	 0.116989
66.9154	78.9062	143.4884	177.257	216.955	288.8787	342.8165	354.8365	387.0969	410.6752	498.3114	571.2201	726.9085	766.0015	773.9326	817.5329	833.2072	899.085	913.2187	934.6742	962.809	999.031	1023.1423	1051.4182	1061.1321	1068.591	1072.6776	1075.7494	1081.2197	1123.9247	1186.3968	1191.4811	1193.1043	1208.4077	1237.9888	1290.7611	1336.7515	1350.2573	1394.6513	1447.5712	1455.153	1459.1432	1493.7246	1501.7699	1514.6184	2989.3043	3063.1459	3119.3595	3133.1735	3136.3017	3141.8219	3142.3667	3217.3314	3219.7945	3234.1248	3234.8359	3788.8634
OCC1(CC1)OC1CC1	OCC1(CC1)OC1CC1	
InChI=1S/C7H12O2/c8-5-7(3-4-7)9-6-1-2-6/h6,8H,1-5H2	InChI=1S/C7H12O2/c8-5-7(3-4-7)9-6-1-2-6/h6,8H,1-5H2
