18
gdb 86170	2.85088	1.27555	0.93313	4.9456	81.27	-0.2321	-0.0449	0.1871	1259.1036	0.148086	-398.155405	-398.146356	-398.145412	-398.189316	32.498	
C	-0.1275176346	 1.5791433744	-0.0141366843	-0.390622
C	 0.1151604333	 0.074471211	 0.0158154585	 0.036334
C	 0.9076807622	-0.4767625077	-1.2023107843	-0.200359
N	 1.7846483818	-1.4695390638	-0.574730241	-0.118583
C	 2.9439033876	-1.9693064894	-1.2851419325	-0.349595
C	 1.7764790208	-1.1599148656	 0.7744552739	 0.29068
N	 0.8978670607	-0.3322249438	 1.2037402469	-0.318283
C	 2.7134581571	-1.8072248587	 1.6563479969	 0.265108
N	 3.482569863	-2.3358818565	 2.3379054538	-0.333309
H	 0.8217550781	 2.1215700064	-0.067267656	 0.121951
H	-0.7335886594	 1.8571240263	-0.8827267392	 0.115804
H	-0.6516026865	 1.896991452	 0.890526977	 0.136908
H	-0.8535498803	-0.4399183612	 0.0869636027	 0.099625
H	 0.2721009884	-0.9346863882	-1.9652624744	 0.119891
H	 1.5092558179	 0.3117098697	-1.6847257535	 0.101205
H	 3.604545591	-1.1564338534	-1.624852104	 0.12318
H	 3.5160642005	-2.6353274033	-0.6360265227	 0.162536
H	 2.6228572483	-2.5392620584	-2.1620869277	 0.137529
89.4463	123.6835	146.2791	162.8962	218.6805	223.9987	283.4786	359.8953	393.0727	492.4841	535.4905	581.3472	630.3335	721.8304	788.7479	858.7045	917.2426	944.8348	1013.3729	1088.4859	1117.6685	1136.7915	1163.0961	1179.157	1228.1543	1264.7662	1286.7032	1325.3286	1369.8162	1406.4912	1425.7286	1467.4945	1484.3096	1487.854	1496.7373	1511.3362	1532.6879	1656.0569	2363.7902	2966.9349	2986.4009	3003.552	3038.7035	3079.2601	3079.9759	3108.4774	3126.6001	3134.0556
CC1CN(C)C(=N1)C#N	C[C@H]1CN(C)[C]([N]1)C#N	
InChI=1S/C6H9N3/c1-5-4-9(2)6(3-7)8-5/h5H,4H2,1-2H3	InChI=1S/C6H9N3/c1-5-4-9(2)6(3-7)8-5/h5H,4H2,1-2H3/t5-/m0/s1
