14
gdb 42557	4.42591	1.23079	1.09268	2.8909	69.98	-0.2608	-0.0227	0.238	1051.6299	0.101708	-399.52576	-399.518917	-399.517973	-399.557242	26.214	
O	 0.0652167906	 0.077907951	 0.1077121179	-0.323895
C	 0.0183152264	 1.2724680446	 0.0974873301	 0.441974
C	-1.0813212763	 2.2886000372	 0.0782572824	-0.215095
C	-0.4677875798	 3.6012311424	 0.5891772326	-0.058989
C	-0.1773983752	 3.1742253214	-0.8080731806	-0.066403
C	 1.0542989103	 2.381010157	-0.2112967203	-0.190659
C	 0.9654041079	 3.2890710624	 1.0638941273	-0.186086
C	 1.8387815413	 4.4532544218	 1.0102179098	 0.275619
N	 2.5329115601	 5.3766726835	 0.9679028935	-0.316779
H	-2.1518057635	 2.1505733578	 0.0187324563	 0.12736
H	-1.1089447349	 4.4010495034	 0.9346119384	 0.126889
H	-0.3838463873	 3.5826394534	-1.7840524497	 0.13241
H	 2.0044306761	 2.1654052285	-0.688929703	 0.120799
H	 1.0880096842	 2.7807222657	 2.0267823852	 0.132856
117.8501	147.5975	180.8428	359.9067	435.2581	483.8383	557.8222	601.7445	742.8503	782.6958	799.4665	814.4615	834.3178	882.8777	898.3374	931.9573	960.6554	1012.6984	1034.1542	1051.1087	1066.5863	1090.1364	1126.8343	1165.0014	1189.0015	1228.7328	1277.3938	1329.5064	1353.8096	1893.2168	2357.2949	3053.9065	3186.2281	3211.3611	3226.7218	3258.5278
O=C1C2C3C2C1C3C#N	O=C1[C@H]2[C@@H]3[C@H]2[C@H]1[C@H]3C#N	
InChI=1S/C7H5NO/c8-1-2-3-5-4(2)7(9)6(3)5/h2-6H	InChI=1S/C7H5NO/c8-1-2-3-5-4(2)7(9)6(3)5/h2-6H/t2-,3-,4+,5-,6-/m0/s1
