14
gdb 13931	3.8494	1.76958	1.48631	3.2823	57.02	-0.2666	-0.0071	0.2595	841.3535	0.107643	-419.670101	-419.66327	-419.662326	-419.70172	24.257	
O	-0.1809562834	 0.0856414341	-0.2447115099	-0.323053
C	-0.0754507141	 1.2403472999	 0.0138488989	 0.42171
O	-1.0346067074	 2.0944964573	 0.4990951945	-0.244732
C	-0.0947737563	 3.2202922626	 0.5136478174	-0.143623
C	 1.0133637093	 2.3097357953	-0.0281824919	 0.057662
C	 2.3894466869	 2.1021607621	 0.6344822932	-0.124385
O	 3.0803067469	 2.4103863181	-0.5896600183	-0.267059
C	 1.8406386902	 2.5849790002	-1.2992760689	-0.124378
H	-0.4346949856	 4.0173091699	-0.151786257	 0.131251
H	 0.0423988737	 3.5973038662	 1.5298323437	 0.131251
H	 2.6287169417	 2.8084775853	 1.4391552236	 0.112806
H	 2.5832252954	 1.0780236113	 0.9742092672	 0.129868
H	 1.711389002	 1.8450307643	-2.0977693652	 0.129873
H	 1.7341328707	 3.5954959234	-1.7129733774	 0.11281
83.8334	132.4364	181.4586	258.4205	333.799	461.7646	596.7711	722.9707	768.2618	851.7637	873.4663	895.9822	958.4362	983.6184	991.8041	1051.1816	1104.1066	1145.898	1152.8788	1164.4676	1168.6499	1212.0198	1259.9556	1311.7226	1356.8713	1382.6244	1502.3757	1512.3422	1527.6296	1938.2484	3012.5165	3023.1468	3065.5292	3067.3912	3068.5557	3126.9223
O=C1OCC11COC1	O=C1OCC21COC2	
InChI=1S/C5H6O3/c6-4-5(3-8-4)1-7-2-5/h1-3H2	InChI=1S/C5H6O3/c6-4-5(3-8-4)1-7-2-5/h1-3H2
