17
gdb 65873	3.0672	1.15029	1.1035	3.5798	68.63	-0.267	-0.0434	0.2235	1154.3903	0.134796	-459.020979	-459.012353	-459.011408	-459.054879	31.21	
C	 0.228088321	 1.5902830919	 0.2940167698	-0.457258
C	-0.0483834444	 0.0884755729	 0.113151633	 0.155385
C	 0.6399506941	-0.4848643264	-1.142859733	-0.114706
O	 1.941452427	-0.9269196423	-0.7244277841	-0.216533
C	 1.9907655484	-1.1094278388	 0.6202380269	 0.436718
O	 2.9645089386	-1.5085683021	 1.1858707827	-0.329393
C	 0.6381427398	-0.7370943832	 1.2271330561	-0.410534
C	-1.5480673481	-0.1549007678	 0.1137254773	 0.120697
O	-2.1401388487	-0.8358741308	-0.6831148992	-0.248052
H	 1.3046754167	 1.7782891292	 0.3499779243	 0.1453
H	-0.1731054538	 2.1697732292	-0.5434318057	 0.134358
H	-0.2266940816	 1.9650130923	 1.2169725246	 0.129987
H	 0.0779049495	-1.331079452	-1.5472729333	 0.141216
H	 0.7795522513	 0.2601492959	-1.9288030759	 0.127621
H	 0.7757541809	-0.2035803274	 2.1685414447	 0.145411
H	 0.103275256	-1.6691413861	 1.4437489865	 0.151346
H	-2.0868889869	 0.3528371956	 0.9461505552	 0.088437
54.7463	89.9867	160.1827	228.672	242.8757	286.1158	335.4043	360.492	471.9237	522.0146	570.326	679.0818	697.1751	800.444	846.1672	919.9876	940.2278	949.9019	971.3802	1032.0152	1069.9289	1119.2544	1162.7349	1193.9753	1212.8033	1243.6368	1277.5843	1305.8352	1388.7049	1409.5517	1430.2784	1461.718	1495.2801	1498.5692	1526.3955	1827.2822	1888.0367	2873.4528	3034.3613	3052.6943	3068.5067	3106.3875	3111.6765	3121.7489	3129.1129
CC1(COC(=O)C1)C=O	C[C@]1(COC(=O)C1)C=O	
InChI=1S/C6H8O3/c1-6(3-7)2-5(8)9-4-6/h3H,2,4H2,1H3	InChI=1S/C6H8O3/c1-6(3-7)2-5(8)9-4-6/h3H,2,4H2,1H3/t6-/m1/s1
