19
gdb 84513	2.67046	1.81481	1.41991	2.0743	79.14	-0.2277	0.0028	0.2304	990.6616	0.159828	-385.849055	-385.84152	-385.840576	-385.880575	30.64	
C	-0.1734241232	 1.5721596337	-0.1354387944	-0.396065
C	-0.0381320997	 0.0490203351	-0.0046112713	-0.141863
C	 0.6682697619	-0.5913057516	-1.2065044853	-0.062853
C	 1.8221815872	-1.2018502551	-0.8962209679	-0.192189
C	 2.0128870682	-1.1491146999	 0.5751843957	 0.279474
C	 2.9976750062	-0.527111834	 1.5820757986	-0.292228
C	 1.7870581359	 0.2920396032	 2.1722652948	-0.296953
C	 0.8755940635	-0.3955167844	 1.1310008695	 0.307948
O	 0.9735408249	-1.8024295045	 1.3351379649	-0.30463
H	 0.8054799646	 2.0466681515	-0.2571841224	 0.118972
H	-0.7794852023	 1.8321853653	-1.0086512852	 0.118534
H	-0.6551191132	 2.000571584	 0.7494396914	 0.120505
H	-1.0404063151	-0.3836791906	 0.1107719578	 0.098225
H	 0.2243764004	-0.5725885044	-2.1976512382	 0.098444
H	 2.4804581114	-1.7024600061	-1.5958943905	 0.102959
H	 3.4956483382	-1.2323950059	 2.2508048069	 0.111226
H	 3.7434390293	 0.1160226676	 1.1099411937	 0.110299
H	 1.521821989	 0.1082685307	 3.2158994574	 0.110156
H	 1.8978819527	 1.3660577754	 2.0098125045	 0.11004
133.6551	207.2937	231.0357	257.7839	318.0138	412.5187	466.9329	518.7439	574.1038	669.6921	682.212	743.0672	762.1461	781.7979	796.7552	854.5639	889.3107	929.783	947.8359	954.5803	997.884	1045.3447	1079.5513	1101.3405	1123.0363	1129.6925	1179.9365	1216.7104	1224.4958	1252.6021	1267.4229	1299.9184	1315.2249	1368.9755	1395.6269	1408.5729	1464.4384	1483.0555	1495.0583	1500.9074	1625.9525	3024.9539	3034.4596	3066.2024	3072.63	3105.9682	3107.7678	3118.251	3135.0618	3173.9308	3209.4249
CC1C=CC23CCC12O3	C[C@H]1C=C[C@@]23CC[C@@]12O3	
InChI=1S/C8H10O/c1-6-2-3-7-4-5-8(6,7)9-7/h2-3,6H,4-5H2,1H3	InChI=1S/C8H10O/c1-6-2-3-7-4-5-8(6,7)9-7/h2-3,6H,4-5H2,1H3/t6-,7+,8+/m0/s1
