17
gdb 114422	3.21825	1.12332	1.08925	3.1421	68.42	-0.2415	-0.0416	0.1999	1166.8967	0.135163	-458.930492	-458.922321	-458.921377	-458.963972	30.396	
O	-0.0429732308	 1.26873987	-0.5396443599	-0.417787
C	 0.0534273332	-0.0953878355	-0.1755067881	-0.081887
C	-1.3168728877	-0.6383493835	 0.1812321428	 0.130202
O	-2.2253024408	-0.5467931986	-0.9598981128	-0.323322
C	-2.6693444734	-1.9103445142	-0.7707304576	 0.003732
C	-1.5995129301	-2.1455658036	 0.3447641609	-0.130168
C	-0.8173656063	-3.116148176	-0.5854760735	-0.377288
C	-1.8633072686	-2.8588000881	-1.6949545813	 0.408135
O	-1.9985398348	-3.2397197314	-2.817893279	-0.280245
H	-0.6738399174	 1.3139057574	-1.2680799645	 0.297585
H	 0.5040337011	-0.6904110845	-0.983026059	 0.092494
H	 0.7158957336	-0.1489053074	 0.6958027838	 0.113588
H	-1.7270820667	-0.0480699742	 1.0112088181	 0.093494
H	-3.7544838642	-2.0056961694	-0.6832510524	 0.099335
H	-1.8381138011	-2.5049428597	 1.3427469701	 0.093016
H	 0.2263789168	-2.9037746941	-0.8253669296	 0.137736
H	-0.8802198831	-4.1548121472	-0.2424866781	 0.141378
51.8496	99.3992	179.0459	190.1681	296.5039	415.1541	420.0188	456.5913	494.0856	517.3095	607.8159	762.0212	787.0637	816.6836	879.3014	912.0551	965.3097	983.8442	1042.7134	1049.5068	1067.2921	1075.7205	1104.615	1140.2937	1158.8518	1200.2518	1220.6279	1232.8457	1268.2091	1301.2856	1322.2759	1347.1444	1404.13	1434.3844	1437.0491	1492.6693	1899.8877	2999.284	3022.9271	3057.3195	3073.2364	3085.5246	3118.4922	3144.2033	3794.7026
OCC1OC2C1CC2=O	OC[C@H]1O[C@@H]2[C@H]1CC2=O	
InChI=1S/C6H8O3/c7-2-5-3-1-4(8)6(3)9-5/h3,5-7H,1-2H2	InChI=1S/C6H8O3/c7-2-5-3-1-4(8)6(3)9-5/h3,5-7H,1-2H2/t3-,5+,6+/m0/s1
