18
gdb 113518	2.72284	1.20951	1.10043	1.8532	75.17	-0.2238	-0.0239	0.1999	1189.8222	0.145956	-439.044214	-439.035263	-439.034319	-439.078277	32.542	
C	 0.3878626971	 1.0117310687	-0.1996061906	-0.238367
O	-0.3376399129	-0.011651903	 0.4692405443	-0.231981
C	 0.4182485318	-0.6846702895	 1.4079791315	 0.077135
C	 0.017977235	-2.0933470511	 1.6833599783	-0.393366
C	 1.3011296258	-1.8349860196	 0.9251218358	 0.190517
N	 1.6023694473	-2.12382059	-0.4887258884	-0.372406
C	 3.0070444029	-2.5149791703	-0.1365244127	-0.285602
C	 2.7118191043	-2.1245063888	 1.3280290981	 0.320266
O	 3.3414670752	-2.0621682847	 2.3449873729	-0.310226
H	 1.222250538	 0.5915998318	-0.7716861034	 0.134589
H	-0.3132810902	 1.4998211807	-0.8798673822	 0.128658
H	 0.7708728094	 1.7572387645	 0.51251373	 0.107701
H	 0.8186381472	-0.0794872457	 2.2237263511	 0.104802
H	 0.1002184364	-2.4827489216	 2.6924937634	 0.13819
H	-0.8143139344	-2.4702964301	 1.0972732998	 0.136402
H	 1.0686363401	-2.9096037169	-0.8456410239	 0.227629
H	 3.2420414215	-3.5785218983	-0.2584592055	 0.129986
H	 3.7717563457	-1.9196123662	-0.6445536685	 0.136073
90.409	93.0631	132.822	148.2133	203.9173	254.9911	295.9685	411.7172	461.2504	523.7061	579.608	634.0577	725.0648	768.0389	807.2837	843.8942	891.4828	966.4357	1012.729	1043.0316	1045.8047	1058.9702	1069.913	1124.4239	1130.8227	1174.2007	1186.1298	1212.1931	1252.1743	1273.7657	1306.0619	1356.137	1396.686	1452.3325	1471.3023	1486.2618	1487.7388	1507.4453	1892.2972	2997.0651	3039.8067	3075.234	3087.3759	3092.6227	3128.7919	3128.9089	3224.2371	3520.6756
COC1CC11NCC1=O	CO[C@H]1C[C@]21NCC2=O	
InChI=1S/C6H9NO2/c1-9-5-2-6(5)4(8)3-7-6/h5,7H,2-3H2,1H3	InChI=1S/C6H9NO2/c1-9-5-2-6(5)4(8)3-7-6/h5,7H,2-3H2,1H3/t5-,6-/m0/s1
