19
gdb 14919	4.22655	1.39069	1.12077	4.3141	75.36	-0.305	0.0425	0.3476	1069.8179	0.168602	-327.974502	-327.967047	-327.966103	-328.006124	28.861	
N	 0.0016392455	-1.179354563	-0.0328273763	-0.326315
C	-0.006567493	-0.0234892209	-0.0128388186	 0.257235
C	-0.0073631992	 1.4397472241	 0.0276183614	-0.13328
C	-0.7630220576	 1.9623411819	 1.2724006562	-0.188088
C	-0.7565002902	 3.4963164671	 1.3104948356	-0.2069
C	 0.6701913446	 4.0596079966	 1.2496044121	-0.181537
C	 1.4261244393	 3.5329746612	 0.0217303642	-0.20691
C	 1.4341026108	 1.9992427803	-0.0249873109	-0.188066
H	-0.5422790677	 1.7850814232	-0.8684224807	 0.120408
H	-1.7873477715	 1.5772708419	 1.2709852102	 0.113987
H	-0.2757159583	 1.5634413177	 2.1706413567	 0.114656
H	-1.3367313266	 3.8815646198	 0.4606100733	 0.098365
H	-1.2664007768	 3.8420052104	 2.2159894418	 0.101493
H	 0.6443501456	 5.1544945941	 1.2369809834	 0.097451
H	 1.2126880793	 3.7704920474	 2.1601485742	 0.098979
H	 0.9525535478	 3.9200359531	-0.8911245371	 0.098367
H	 2.4563474966	 3.9045181999	 0.0178423924	 0.101495
H	 1.9952798383	 1.6014944691	 0.8295986621	 0.114661
H	 1.9367711032	 1.6398646564	-0.92814599	 0.113998
112.3132	155.0092	230.0637	265.7996	354.0895	384.6091	434.1914	505.4888	545.0714	554.2228	783.1227	793.7135	844.9386	887.3904	900.3964	929.85	943.6302	1038.4636	1054.6871	1058.5962	1083.8693	1093.7946	1157.0518	1201.6022	1261.5047	1283.0313	1290.7361	1325.482	1326.1131	1353.529	1370.3132	1380.6189	1384.8645	1394.4951	1482.767	1485.5768	1487.1304	1491.7723	1505.9945	2355.0788	3009.8112	3012.8727	3014.1231	3020.6954	3034.1329	3038.8213	3069.2242	3070.1363	3074.0674	3084.7571	3088.0394
N#CC1CCCCC1	N#CC1CCCCC1	
InChI=1S/C7H11N/c8-6-7-4-2-1-3-5-7/h7H,1-5H2	InChI=1S/C7H11N/c8-6-7-4-2-1-3-5-7/h7H,1-5H2
