15
gdb 127496	3.95863	1.15348	0.89959	4.0804	78.65	-0.2207	-0.0063	0.2144	1237.1257	0.113188	-412.984299	-412.975664	-412.97472	-413.017556	31.401	
C	-0.0118921291	 1.4045855531	-0.0500353941	-0.339192
N	 0.0043701362	-0.039041472	 0.012606363	 0.007699
N	 0.0462744734	-0.7949463645	-1.1206891838	-0.314865
C	 0.0237541679	-2.0315710612	-0.6361893478	 0.180457
N	-0.0097730227	-2.1175394475	 0.7328781316	-0.366626
C	-0.016920691	-0.8500266949	 1.09762036	 0.374311
N	-0.1183595016	-0.3765799965	 2.3935823672	-0.616643
C	 0.0379542332	-3.1717878722	-1.4808963721	 0.279249
C	 0.0507954062	-4.1449092407	-2.1868921172	-0.386669
H	 0.9994463396	 1.8245703881	-0.0042465166	 0.141564
H	-0.4731139322	 1.6989640403	-0.9928448547	 0.170327
H	-0.6047056732	 1.7937109513	 0.7818174478	 0.150258
H	-0.0437087281	-1.1363363807	 3.0571155463	 0.271451
H	 0.5218056928	 0.3715352435	 2.6248688213	 0.258019
H	 0.0606672786	-5.0028225063	-2.8123058208	 0.19066
102.7567	122.1248	144.4264	191.2021	267.5856	286.6391	308.9017	412.4486	475.0483	554.4531	596.788	597.2281	660.3559	665.8881	679.8472	760.1284	780.8742	830.1171	1036.9107	1051.0226	1126.1873	1151.833	1265.4173	1303.9463	1372.1632	1437.4574	1471.3733	1489.561	1506.5691	1539.8433	1588.9305	1655.1976	2247.5017	3035.1202	3107.8429	3157.9442	3505.3632	3550.2819	3646.4877
CN1N=C(N=C1N)C#C	Cn1nc(nc1N)C#C	
InChI=1S/C5H6N4/c1-3-4-7-5(6)9(2)8-4/h1H,2H3,(H2,6,7,8)	InChI=1S/C5H6N4/c1-3-4-7-5(6)9(2)8-4/h1H,2H3,(H2,6,7,8)
