15
gdb 29493	3.24363	1.69907	1.11675	2.2097	74.89	-0.1705	0.0217	0.1922	1015.51	0.115433	-416.83377	-416.826219	-416.825275	-416.865573	28.973	
N	 0.0553442199	 1.4373082519	 0.1640618187	-0.615103
C	 0.0300397085	 0.0344803965	 0.0440250357	 0.073582
C	-1.0736253451	-0.8032133592	 0.0086482306	-0.144348
N	-0.6636322751	-2.1376670993	-0.0212228483	-0.419262
C	 0.7030434642	-2.1599591779	-0.0149729683	 0.281604
C	 1.1369137126	-0.8500097719	 0.0293121804	 0.315883
O	 2.4987683896	-0.7893067343	 0.0316291464	-0.222548
C	 2.9122066037	-2.0984710763	-0.0105057885	-0.019252
C	 1.8711919845	-2.9822132804	-0.0411787097	-0.337297
H	 0.825123064	 1.8447297131	-0.3530376856	 0.245964
H	-0.8064539682	 1.8617766518	-0.1553821731	 0.238852
H	-2.1218433645	-0.5511490474	 0.0152593965	 0.106237
H	-1.2822371183	-2.926319428	-0.046788358	 0.258438
H	 3.9802410036	-2.2411065923	-0.0122037617	 0.128822
H	 1.9567982706	-4.0566823364	-0.0753221452	 0.108427
145.7949	164.0429	191.2289	249.0424	259.8982	427.155	535.6518	567.2944	601.0556	615.9679	656.9314	687.7143	706.9573	735.5686	785.6262	792.2654	813.6817	908.5919	1043.8538	1077.9267	1078.4411	1144.3534	1162.5343	1234.4105	1293.3059	1348.8775	1365.0535	1476.2361	1502.6705	1561.2506	1599.3957	1631.5705	1658.1946	3255.0977	3260.5963	3283.0912	3525.5262	3614.3352	3708.0218
NC1=CNC2=C1OC=C2	Nc1c[nH]c2c1occ2	
InChI=1S/C6H6N2O/c7-4-3-8-5-1-2-9-6(4)5/h1-3,8H,7H2	InChI=1S/C6H6N2O/c7-4-3-8-5-1-2-9-6(4)5/h1-3,8H,7H2
