15
gdb 13753	3.15382	1.87645	1.54933	3.7111	63.32	-0.2493	-0.047	0.2024	867.1254	0.116329	-399.807095	-399.798753	-399.797809	-399.840496	28.551	
C	 0.0358949014	 1.2923168905	-0.0863089928	-0.482547
C	 0.0249465385	-0.1983189704	 0.1764377055	 0.410119
O	 0.9969938354	-0.9105856563	 0.1111439548	-0.338125
N	-1.2171021971	-0.6954908954	 0.6028676583	-0.083767
C	-2.4964843716	-0.5809312998	-0.0294521149	-0.244751
C	-1.8109566473	-1.9268778888	 0.1328518823	-0.100432
C	-1.2764679166	-2.5424458883	-1.1301510688	 0.158648
O	-0.9232783349	-1.8947685241	-2.0829959872	-0.255805
H	 1.064535604	 1.6514329353	-0.0598214453	 0.151783
H	-0.3763658271	 1.4842272731	-1.083364773	 0.153657
H	-0.5754518228	 1.8333690073	 0.6403787767	 0.138804
H	-3.3366010409	-0.3339387507	 0.6143679114	 0.132315
H	-2.5366286021	-0.2017424605	-1.0478596474	 0.150131
H	-2.1466681783	-2.6191986422	 0.9006981231	 0.112245
H	-1.2477206107	-3.6517132097	-1.1370149427	 0.097726
69.8101	97.1562	126.5886	131.3164	212.2359	280.2903	357.9559	412.1034	573.3329	603.5845	671.2776	749.2325	838.623	907.9239	981.9962	1003.1111	1026.2009	1046.8391	1054.6019	1107.3691	1127.6424	1159.4067	1194.2187	1343.3643	1384.6504	1415.3978	1422.6595	1468.4868	1478.8786	1493.3588	1800.9527	1826.2339	2919.5509	3046.8243	3103.2023	3115.0383	3147.9463	3162.5576	3200.7636
CC(=O)N1CC1C=O	CC(=O)N1C[C@H]1C=O	
InChI=1S/C5H7NO2/c1-4(8)6-2-5(6)3-7/h3,5H,2H2,1H3	InChI=1S/C5H7NO2/c1-4(8)6-2-5(6)3-7/h3,5H,2H2,1H3/t5-,6?/m0/s1
