19
gdb 96768	2.15259	1.69912	0.9761	3.3524	82.98	-0.2127	-0.0549	0.1578	1217.9682	0.158537	-419.236644	-419.226913	-419.225969	-419.27247	33.658	
C	-0.098895118	 1.425014177	 0.1255165101	-0.336385
N	 0.0246514496	-0.0174260035	 0.0213965094	-0.34353
C	 0.5743060318	-0.5782786613	-0.9807804846	 0.292855
N	 0.7685573569	-1.9459257615	-1.0584095586	-0.088377
C	 0.2145382519	-2.851273299	-0.0826223193	-0.334842
C	 1.1385389849	-2.4231854998	-2.380888112	-0.173824
C	 1.7080749537	-1.1803201644	-3.075968262	-0.330412
C	 1.1386611911	-0.0107179363	-2.279779494	 0.334618
O	 1.1283210744	 1.1420897268	-2.6290782148	-0.306835
H	 0.1960773377	 1.7260209125	 1.1378254852	 0.115983
H	 0.4801341421	 1.9959032044	-0.6035022158	 0.143029
H	-1.155683329	 1.7047515407	 0.0187271001	 0.119821
H	 0.1357078951	-2.3252606123	 0.8695517343	 0.163244
H	-0.7901318596	-3.2010829592	-0.365999764	 0.118004
H	 0.8651950744	-3.7257191686	 0.0264862326	 0.118852
H	 1.8647496062	-3.239933289	-2.3004733741	 0.113592
H	 0.2658542636	-2.8178634595	-2.9262306572	 0.10791
H	 2.8001230774	-1.1416168651	-2.9932753366	 0.146797
H	 1.4529023357	-1.095877212	-4.1335473387	 0.139499
37.8058	70.2994	92.6916	142.4719	150.1615	236.8415	246.4623	313.3725	397.1461	423.8669	540.5654	554.0736	620.6757	681.4106	701.3292	846.7816	952.6783	1009.1925	1027.9341	1050.9314	1096.5056	1128.6438	1144.9006	1147.0742	1175.5613	1199.5609	1234.603	1272.4135	1312.3469	1328.7514	1426.3073	1442.5058	1447.9856	1452.3435	1489.0295	1495.2003	1496.7461	1511.3521	1540.1529	1726.4069	1837.9528	2968.5206	2989.1437	3011.9883	3044.654	3055.608	3059.5544	3064.8046	3120.2893	3125.285	3146.6994
CN=C1N(C)CCC1=O	CN=C1N(C)CCC1=O	
InChI=1S/C6H10N2O/c1-7-6-5(9)3-4-8(6)2/h3-4H2,1-2H3	InChI=1S/C6H10N2O/c1-7-6-5(9)3-4-8(6)2/h3-4H2,1-2H3
