13
gdb 20663	3.42826	2.31127	1.39229	1.4456	63.34	-0.2584	-0.0761	0.1823	822.3018	0.096876	-394.795936	-394.789226	-394.788282	-394.826895	24.491	
C	-0.0267536469	 1.5255520232	 0.0041304442	-0.482211
C	-0.0071375244	 0.0314165484	-0.0133493179	 0.127192
C	-0.0458557984	-0.7335848299	-1.1358194381	-0.027072
N	-0.0282708338	-2.1130054737	-1.1658626971	-0.216655
N	 0.0285492646	-2.7580205098	-0.0688414108	-0.032724
N	 0.0691686719	-2.0585367039	 1.0763489196	-0.272465
C	 0.0582497589	-0.667683588	 1.2612004573	 0.417089
O	 0.1003174908	-0.1792295252	 2.3737029105	-0.371682
H	 0.8662662842	 1.9120540858	 0.5068357244	 0.156797
H	-0.0764980991	 1.9374251192	-1.0059850419	 0.129291
H	-0.8827484081	 1.8881829572	 0.5832272485	 0.156793
H	-0.0951489541	-0.2798880999	-2.121028232	 0.132325
H	 0.1135112644	-2.6340388834	 1.9088894432	 0.28332
135.5357	149.3115	244.1152	271.5202	400.2059	454.4866	549.3471	598.2406	609.554	751.3397	771.9769	790.9673	926.5317	955.3603	1022.0519	1065.6654	1076.4594	1141.3309	1197.0604	1253.5166	1366.5943	1411.5335	1432.9481	1466.551	1479.1639	1532.7168	1636.377	1795.8749	3040.9138	3095.8338	3133.7431	3182.5256	3584.3057
CC1=CN=NNC1=O	Cc1cnn[nH]c1=O	
InChI=1S/C4H5N3O/c1-3-2-5-7-6-4(3)8/h2H,1H3,(H,5,6,8)	InChI=1S/C4H5N3O/c1-3-2-5-7-6-4(3)8/h2H,1H3,(H,5,6,8)
