17
gdb 36152	3.9109	1.10548	0.98672	4.4178	71.86	-0.2644	0.0285	0.2929	1192.5001	0.137801	-418.000299	-417.992465	-417.991521	-418.033213	29.265	
N	-0.0772463963	-1.0819587653	-0.5139134792	-0.308014
C	-0.0568465674	 0.0339302986	-0.2153009172	 0.2659
C	-0.0022052383	 1.4436575934	 0.180139656	-0.422811
C	 1.4106641506	 1.9931950404	 0.1527873651	 0.31277
C	 2.4861319828	 1.3724281401	 1.0360805483	-0.151231
O	 3.5598158515	 2.3064295094	 1.0260762859	-0.255358
C	 3.0030918262	 3.614325489	 0.9158945045	-0.107701
C	 1.7530723879	 3.4375558156	 0.072287078	-0.103671
N	 1.8779453767	 2.5722877369	-1.1077888356	-0.357542
H	-0.6270471262	 2.0257896423	-0.5033699617	 0.167216
H	-0.4312064324	 1.5369076922	 1.1850849328	 0.152822
H	 2.090567283	 1.2175893951	 2.0537652777	 0.100357
H	 2.8708928917	 0.4172481751	 0.6658218963	 0.135137
H	 2.7360994912	 4.0282073241	 1.9017215544	 0.103026
H	 3.7643790101	 4.257827531	 0.4634842259	 0.122247
H	 1.0166410929	 4.2331506633	 0.018342769	 0.102422
H	 2.8552487159	 2.3320715287	-1.2693771502	 0.244429
58.8934	107.0045	228.3888	259.9693	303.703	385.7606	395.9027	434.8668	458.6357	674.2733	710.5906	769.5562	867.4569	882.3444	927.5811	932.4765	954.7454	976.6207	1025.8926	1067.796	1071.8668	1108.4124	1134.6357	1177.7725	1204.0057	1235.2984	1256.9123	1294.9683	1319.4966	1333.7096	1364.466	1371.9322	1450.4131	1455.0672	1505.9297	1518.2781	2363.4849	2970.4603	2980.4889	3044.5245	3077.2133	3084.2395	3099.557	3165.4796	3476.3807
N#CCC12COCC1N2	N#CC[C@]12COC[C@H]1N2	
InChI=1S/C6H8N2O/c7-2-1-6-4-9-3-5(6)8-6/h5,8H,1,3-4H2	InChI=1S/C6H8N2O/c7-2-1-6-4-9-3-5(6)8-6/h5,8H,1,3-4H2/t5-,6+/m1/s1
