17
gdb 31099	3.27239	1.12335	0.87051	1.5973	72.44	-0.1661	0.053	0.2191	1282.9545	0.136665	-455.164819	-455.155615	-455.154671	-455.198485	34.42	
N	-0.2605630498	 1.1744496934	-0.5820051843	-0.617768
C	-0.1898016149	-0.1707924146	-0.1700644019	 0.198464
C	-1.160921581	-1.0646917046	 0.2191523174	 0.205389
C	-2.6089878871	-0.7292407245	 0.3979460985	-0.187772
O	-3.1391045234	 0.0420925941	-0.6909494199	-0.414556
C	-0.5180429882	-2.3392838662	 0.4164685919	-0.42709
C	 0.8130324847	-2.1534083268	 0.1535275966	 0.383372
O	 1.9007648278	-2.9693896352	 0.1757977271	-0.438617
N	 1.0158400126	-0.8470626877	-0.2059103205	-0.325435
H	-1.232435612	 1.3984457465	-0.7739911463	 0.25302
H	 0.0761686319	 1.8174415213	 0.1303251331	 0.236864
H	-3.1926132498	-1.6502238282	 0.545104726	 0.093765
H	-2.7802939914	-0.0999639616	 1.2801032599	 0.109276
H	-2.9204794166	-0.4397015719	-1.4967851129	 0.279076
H	-0.9879907788	-3.2579982032	 0.7344225639	 0.083799
H	 1.6172422364	-3.8366020571	 0.4798261896	 0.305263
H	 1.8783524994	-0.4746241138	-0.564964668	 0.26295
75.8197	154.8535	211.0185	221.5804	229.5265	272.4871	299.388	331.3755	377.1969	433.939	450.5173	509.4245	620.5421	645.8449	664.2108	710.5349	730.0719	800.2604	887.4537	966.4351	1019.6888	1035.4684	1127.595	1160.458	1177.1587	1205.1239	1224.1383	1283.2347	1331.1415	1373.408	1419.0431	1488.5122	1506.0258	1522.541	1595.0128	1637.3481	1669.0266	2991.7813	3040.0583	3236.1527	3469.6377	3561.8792	3676.1684	3796.3602	3849.4504
NC1=C(CO)C=C(O)N1	Nc1c(CO)cc(O)[nH]1	
InChI=1S/C5H8N2O2/c6-5-3(2-8)1-4(9)7-5/h1,7-9H,2,6H2	InChI=1S/C5H8N2O2/c6-5-3(2-8)1-4(9)7-5/h1,7-9H,2,6H2
