17
gdb 46693	2.89343	1.99441	1.44084	4.3574	71.36	-0.2237	0.0013	0.225	904.5611	0.139038	-417.971949	-417.965236	-417.964292	-418.002917	27.312	
O	 0.116661772	 0.1449682814	 0.4704628702	-0.321363
C	 0.0256204808	 1.2599612609	 0.0222248992	 0.39181
C	-1.2584119852	 2.0889198922	 0.0253354886	-0.279779
N	-0.9073579599	 3.2969572593	 0.7975013862	-0.321601
C	 0.0979422687	 4.083179051	 0.1199118212	 0.005143
C	 1.604837672	 3.9454889192	 0.3578123581	-0.099871
C	 1.9930723013	 2.5208300248	 0.7522415791	-0.188553
N	 1.1593775113	 1.9975183948	-0.391015358	-0.125682
C	 0.9334043119	 3.3723903158	-0.8843998818	-0.071468
H	-1.5986638094	 2.3062399036	-1.0011292513	 0.103089
H	-2.0313526517	 1.5221389823	 0.544961897	 0.129831
H	-1.7255155066	 3.8469965247	 1.0206869158	 0.231302
H	-0.1849014311	 5.0998207405	-0.1448941509	 0.096098
H	 2.24249202	 4.8171073603	 0.4326136493	 0.096586
H	 3.0527954581	 2.3023814947	 0.5985291931	 0.122885
H	 1.6760600893	 2.1574348903	 1.733624886	 0.131711
H	 1.0415400486	 3.6017129741	-1.9380059018	 0.09986
109.5925	229.4046	276.9125	406.1989	427.0469	500.9398	518.9679	599.7772	681.8208	693.4607	742.2485	785.6136	832.8969	894.7075	918.6137	943.5439	983.5049	995.7342	1023.6472	1031.9953	1075.6723	1081.7015	1096.5174	1112.3128	1165.8156	1180.8657	1210.0818	1255.2143	1273.498	1286.6141	1312.2045	1334.9405	1429.3311	1461.994	1487.3474	1507.0932	1828.8584	2959.6077	3057.0324	3111.5145	3129.402	3130.7077	3173.1079	3197.8983	3574.6247
O=C1CNC2C3CN1C23	O=C1CN[C@H]2[C@H]3CN1[C@@H]23	
InChI=1S/C6H8N2O/c9-4-1-7-5-3-2-8(4)6(3)5/h3,5-7H,1-2H2	InChI=1S/C6H8N2O/c9-4-1-7-5-3-2-8(4)6(3)5/h3,5-7H,1-2H2/t3-,5+,6-/m1/s1
