15
gdb 133282	2.45978	1.63765	0.98924	1.951	75.52	-0.2118	-0.0507	0.1611	1122.4913	0.113229	-458.093938	-458.086177	-458.085233	-458.126315	28.897	
C	 0.0078860054	 1.4203632437	 0.0074434068	-0.345042
N	 0.0551268058	-0.0272840624	 0.0023045463	-0.320933
C	-1.0566689514	-0.6602945046	 0.0086479051	 0.301161
N	-2.3367921903	-0.0910569181	 0.020343095	-0.31862
N	-3.5350996256	-0.7133857096	 0.0272324592	-0.190689
C	-3.506623837	-2.0104199414	 0.0226004255	 0.009131
C	-2.2952615717	-2.7774743974	 0.0108834998	-0.259817
C	-1.1199390574	-2.1160963154	 0.0042457319	 0.276546
F	 0.0354364997	-2.7503659791	-0.0065932499	-0.033936
H	 1.0263993635	 1.8155629615	 0.0005859546	 0.131434
H	-0.5092715776	 1.8346864587	-0.8755339683	 0.10828
H	-0.4950226673	 1.828776386	 0.9013297256	 0.108308
H	-2.40965635	 0.9133885147	 0.0243275098	 0.275361
H	-4.4717948469	-2.5033338398	 0.0281906009	 0.131608
H	-2.3180326491	-3.8602567568	 0.0074181777	 0.12721
109.3526	188.8375	206.0357	206.3279	260.1702	328.5487	481.1551	503.7634	551.2369	559.4784	588.1396	652.3747	756.701	761.6026	870.7165	897.1119	933.5019	1035.0563	1057.9287	1104.6971	1138.3494	1187.8469	1212.7252	1308.2967	1391.4285	1407.281	1429.9447	1465.044	1506.6405	1507.9062	1609.7612	1681.5888	1713.4658	2941.6363	2981.497	3101.8225	3199.9928	3215.3268	3648.4706
CN=C1NN=CC=C1F	C[N]C1=C(CC=NN1)F	
InChI=1S/C5H6FN3/c1-7-5-4(6)2-3-8-9-5/h2-3H,1H3,(H,7,9)	InChI=1S/C5H7FN3/c1-7-5-4(6)2-3-8-9-5/h3,9H,2H2,1H3
