12
gdb 133483	2.96811	0.96511	0.84004	4.2058	58.81	-0.286	-0.0809	0.2051	1333.0999	0.071049	-566.97454	-566.965225	-566.964281	-567.012139	30.267	
C	 0.0278203403	 1.4375311976	-0.1553225297	-0.504589
C	 0.017647798	-0.0049536791	-0.0051478944	 0.090705
C	 0.0036118241	-1.2053418338	 0.1201315878	 0.053687
C	-0.0190790631	-2.6315108992	 0.2704650078	 0.081101
O	-0.9802789955	-3.2861269102	 0.5893742975	-0.255708
C	 1.3428702973	-3.322734768	-0.0178689733	 0.210086
F	 1.7317980446	-3.0623812194	-1.2727281478	-0.072283
F	 2.2816456494	-2.8492732089	 0.8117671379	-0.072285
F	 1.2541146906	-4.6338411461	 0.1396022075	-0.044494
H	 1.0366811453	 1.8095637358	-0.3589042688	 0.169015
H	-0.6229729844	 1.7404834322	-0.9827281776	 0.172672
H	-0.3426685265	 1.9227754691	 0.7539090531	 0.172093
15.7642	21.2178	74.7288	132.5373	237.2827	238.303	319.4848	396.7294	407.5651	421.1868	521.1049	540.6827	647.0767	749.375	776.3185	927.8251	1042.3981	1052.4454	1174.2802	1188.394	1246.737	1330.8426	1408.1768	1465.642	1469.2576	1795.1103	2342.5894	3035.6545	3100.6013	3107.7156
CC#CC(=O)C(F)(F)F	CC#CC(=O)C(F)(F)F	
InChI=1S/C5H3F3O/c1-2-3-4(9)5(6,7)8/h1H3	InChI=1S/C5H3F3O/c1-2-3-4(9)5(6,7)8/h1H3
