15
gdb 60834	2.75935	1.22853	0.98002	3.2899	69.02	-0.2684	-0.0515	0.217	1181.2515	0.10755	-457.734669	-457.725126	-457.724182	-457.769601	33.268	
O	 0.0125093853	 1.4599615399	-0.0005907341	-0.42974
C	 0.0734049399	 0.066741575	 0.0023260991	 0.056168
C	 0.8305816053	-0.4296216284	-1.2245020416	 0.15037
O	 1.0923410609	 0.3221256813	-2.1298880797	-0.267386
C	 0.6752692927	-0.4583668312	 1.331489555	-0.314839
C	 2.1462526744	-0.0261771513	 1.4519440793	 0.169316
O	 2.8911086193	-0.0483659855	 0.5093284022	-0.232294
C	-0.1065189128	-0.0715833382	 2.4961678337	 0.311573
C	-0.7182485864	 0.260878732	 3.4746717712	-0.418354
H	 0.3761234201	 1.7284902531	-0.8612202362	 0.301135
H	-0.9370875016	-0.377259943	-0.0771557199	 0.11158
H	 1.050772036	-1.5139157116	-1.2721565988	 0.099774
H	 0.7017494029	-1.5587196126	 1.2680482529	 0.139193
H	 2.4792180163	 0.2795334274	 2.4634340046	 0.116595
H	-1.2717765925	 0.5552926932	 4.3321607223	 0.20691
68.013	80.4942	120.1623	150.6015	175.7982	206.1379	291.9016	336.6972	401.3654	481.273	493.4138	523.9624	629.2154	665.6789	668.4958	712.5724	825.9088	906.2773	962.7696	973.5839	1062.8824	1073.3792	1161.7222	1235.8596	1259.3226	1294.6135	1346.0824	1396.8033	1400.7351	1438.3623	1812.3342	1831.1227	2244.4236	2931.3233	2943.6673	2948.9288	2984.276	3502.7482	3665.9067
OC(C=O)C(C=O)C#C	O[C@@H](C=O)[C@@H](C=O)C#C	
InChI=1S/C6H6O3/c1-2-5(3-7)6(9)4-8/h1,3-6,9H	InChI=1S/C6H6O3/c1-2-5(3-7)6(9)4-8/h1,3-6,9H/t5-,6+/m1/s1
