21
gdb 38974	2.93845	1.62868	1.21344	1.2265	82.1	-0.2396	0.0969	0.3365	1071.8546	0.185839	-387.06946	-387.062193	-387.061248	-387.100862	30.253	
C	 0.0494031472	 1.4694272658	 0.0927723654	-0.34935
C	 1.3737246296	 0.7606129775	-0.0236545115	-0.098951
C	 1.722974521	 0.1336215505	 1.3315676869	-0.25808
C	 0.4107661682	-0.7177846642	 1.2506959814	-0.066945
C	 0.6687100519	-2.2077854824	 0.9943961689	-0.094552
O	-0.3293038783	-2.7877674154	 0.1704993585	-0.244101
C	-0.2942859324	-2.2475511923	-1.1408756509	-0.075016
C	-0.6929201751	-0.7651279745	-1.147245762	-0.328198
C	 0.0492509759	-0.0201698499	-0.07134161	 0.397159
H	-0.2449969614	 1.9311069171	 1.0340861582	 0.09991
H	-0.2594753113	 2.0244720455	-0.7887050742	 0.106234
H	 2.0734569265	 0.9874971574	-0.819866093	 0.081438
H	 2.6234837642	-0.4859276061	 1.3234940609	 0.100374
H	 1.7957239503	 0.8382705965	 2.1662683672	 0.096038
H	-0.311894368	-0.5896283023	 2.064714826	 0.063214
H	 1.6542080359	-2.3358102916	 0.5141007776	 0.079484
H	 0.6730529873	-2.7787745773	 1.9277073577	 0.104164
H	 0.7164646957	-2.3701979176	-1.5663327746	 0.083908
H	-0.9887439884	-2.8435040019	-1.7398972519	 0.102867
H	-0.5154331872	-0.3272053484	-2.1372523975	 0.094047
H	-1.7717379212	-0.6952176064	-0.9533292729	 0.106358
141.4517	157.0607	310.3297	355.4398	387.2396	414.7512	445.5755	481.6027	585.2733	634.5833	736.5743	785.1039	855.2876	860.9024	872.0413	918.9044	942.4626	950.911	989.0477	1003.8256	1021.8683	1030.3616	1051.4408	1083.4797	1111.2439	1126.1294	1144.0266	1179.642	1200.2318	1232.749	1255.3267	1263.0494	1274.6105	1296.9499	1323.9368	1344.6472	1358.8692	1384.73	1411.6959	1420.1298	1471.0134	1485.3515	1488.8365	1500.7865	1505.903	2952.2148	2961.1053	3013.4809	3033.3483	3046.9393	3057.9252	3080.2267	3085.3188	3092.5696	3097.3123	3172.2295	3185.8612
C1C2CC3COCCC123	C1[C@H]2C[C@@H]3COCC[C@]123	
InChI=1S/C8H12O/c1-2-9-5-7-3-6-4-8(1,6)7/h6-7H,1-5H2	InChI=1S/C8H12O/c1-2-9-5-7-3-6-4-8(1,6)7/h6-7H,1-5H2/t6-,7-,8+/m1/s1
