21
gdb 120685	2.23026	0.88967	0.67925	1.0346	90.	-0.2246	0.0592	0.2838	1741.449	0.179434	-387.047065	-387.036206	-387.035262	-387.085602	37.44	
C	 0.0144891457	 1.4518905324	 0.0527210736	-0.384766
C	-0.1481828146	-0.0216341337	 0.3820579268	-0.03325
O	-1.1174892227	-0.5698706801	-0.4994663551	-0.241088
C	-1.3435964079	-1.920195649	-0.2972972431	 0.141124
C	-2.295018113	-2.3642415685	 0.7792079359	-0.326418
C	-2.6991586766	-2.459822937	-0.6945428436	-0.244127
C	-3.7130655541	-1.5961985198	-1.2256285163	 0.105792
C	-4.5763325772	-0.8950015281	-1.6881451434	 0.06041
C	-5.6111566021	-0.036910423	-2.2461096147	-0.497976
H	 0.7572997247	 1.9096663725	 0.7128399439	 0.113606
H	 0.3423905621	 1.5798658837	-0.9826770679	 0.128044
H	-0.9354628505	 1.9789911257	 0.1780148553	 0.128929
H	 0.8100510777	-0.5542638398	 0.2649776903	 0.086462
H	-0.4689445842	-0.1579507882	 1.4264882993	 0.091312
H	-0.4835369936	-2.5600187155	-0.5054862105	 0.084619
H	-2.1015884058	-3.2849071425	 1.3185337943	 0.11372
H	-2.7811420996	-1.5815535541	 1.3495950868	 0.129581
H	-2.6823429992	-3.4598321321	-1.1199210791	 0.109536
H	-6.043552744	-0.4745218664	-3.1530710615	 0.144799
H	-6.4299707077	 0.1225025718	-1.5351103923	 0.142794
H	-5.2099372874	 0.9468526818	-2.5148966588	 0.146897
14.6371	53.0651	72.1373	97.9616	133.4802	167.8905	242.7493	259.0082	295.7521	362.5962	397.2581	456.6897	526.6786	603.0826	708.972	801.2594	819.9107	837.8996	902.4042	955.5712	1003.7832	1046.179	1049.9199	1053.0139	1065.9405	1079.704	1127.6022	1149.6185	1172.4255	1187.782	1201.1082	1257.5378	1294.0497	1371.7386	1391.6526	1405.3963	1415.4261	1437.5915	1477.9506	1478.514	1479.8665	1483.0363	1499.8875	1528.2531	2372.9798	2966.3715	2999.3979	3022.1236	3045.1094	3076.4991	3079.9895	3082.7757	3119.4615	3122.7237	3135.067	3138.7054	3234.2381
CCOC1CC1C#CC	CCO[C@H]1C[C@H]1C#CC	
InChI=1S/C8H12O/c1-3-5-7-6-8(7)9-4-2/h7-8H,4,6H2,1-2H3	InChI=1S/C8H12O/c1-3-5-7-6-8(7)9-4-2/h7-8H,4,6H2,1-2H3/t7-,8+/m1/s1
