14
gdb 45920	3.04834	1.49674	1.02557	2.3258	68.07	-0.263	-0.0676	0.1955	1074.4643	0.103203	-470.052391	-470.044889	-470.043945	-470.084899	27.727	
N	-0.1844661387	 1.3380279814	-0.1741075204	-0.513529
C	-0.0094520704	 0.1028284128	 0.069047274	 0.370189
C	-1.1734899627	-0.8425746531	-0.1162684941	-0.139787
O	-1.1718543531	-1.9845298713	 0.753980072	-0.227808
C	-0.01891875	-2.6062210872	 1.0509766517	 0.397876
O	-0.0123749659	-3.6978446924	 1.5471012801	-0.312267
C	 1.2821086376	-1.8518699296	 0.8055384131	 0.22883
N	 2.420953997	-2.3715075234	 1.0117784091	-0.489724
N	 1.1696467834	-0.5261995922	 0.4203129682	-0.373452
H	 0.6809795487	 1.8749324924	-0.0916571879	 0.218028
H	-2.1009791194	-0.3068481395	 0.0757976885	 0.170912
H	-1.1835370859	-1.1979895865	-1.1542748557	 0.151488
H	 2.2861878461	-3.3313509941	 1.3349051647	 0.254443
H	 2.0322526633	 0.0033255026	 0.4302132466	 0.264799
79.5354	110.811	165.296	344.0348	398.2331	427.1093	453.4052	479.2651	545.9637	615.5549	631.7872	662.3768	789.7315	814.7351	873.5202	926.6399	928.1778	1030.9413	1052.8486	1126.2383	1169.2445	1209.5865	1263.3728	1395.175	1402.276	1424.1975	1443.1495	1494.0669	1728.8418	1747.7928	1845.5404	3038.6961	3162.0914	3458.3232	3480.3362	3582.0874
N=C1COC(=O)C(=N)N1	[NH][C]1COC(=O)[C]([NH])N1	
InChI=1S/C4H5N3O2/c5-2-1-9-4(8)3(6)7-2/h1H2,(H3,5,6,7)	InChI=1S/C4H5N3O2/c5-2-1-9-4(8)3(6)7-2/h1H2,(H3,5,6,7)
