24
gdb 113197	3.05837	0.8663	0.85371	0.927	86.16	-0.2388	0.0684	0.3072	1563.4762	0.21505	-405.533743	-405.522558	-405.521614	-405.569977	41.18	
C	-0.2156000447	 1.5492630584	-0.5045708671	-0.373963
C	-0.0171526007	 0.2077184191	 0.2111511585	-0.196064
C	-1.310162598	-0.5703369354	 0.3141101146	-0.034905
N	-1.7383972982	-1.3352341402	-0.8775232194	-0.383121
C	-1.4389374333	-2.0529373802	 0.3791747321	 0.322347
C	-0.2249914419	-2.9598773417	 0.3441223981	-0.477639
C	-2.6373616895	-2.5864235461	 1.168768592	 0.062092
C	-3.2392102941	-3.8641292854	 0.5775197134	-0.418108
O	-2.3233179717	-2.7524884616	 2.5490422976	-0.431494
H	 0.7248288358	 2.1040457364	-0.5766122317	 0.109497
H	-0.5952391557	 1.3893793023	-1.5185604044	 0.128154
H	-0.935268491	 2.1813215911	 0.0279039576	 0.109982
H	 0.7292066728	-0.3819706624	-0.3285179663	 0.101601
H	 0.3774159954	 0.3767325046	 1.2214974326	 0.098383
H	-2.0938613874	-0.0257032653	 0.8433328472	 0.076818
H	-2.7446920805	-1.2538133714	-1.0098505053	 0.222767
H	 0.5768161434	-2.5218228558	-0.2507494518	 0.133303
H	 0.1587091359	-3.1346740306	 1.3555262579	 0.112274
H	-0.4672013219	-3.9290911072	-0.1044133006	 0.118136
H	-3.4081223667	-1.8044714848	 1.1556547981	 0.078286
H	-2.5297137099	-4.6981907983	 0.6238884408	 0.113501
H	-4.1328784637	-4.1494686924	 1.1390074872	 0.124999
H	-3.5155152926	-3.7245452466	-0.4724212374	 0.122996
H	-1.8127969517	-3.5638121367	 2.6403088264	 0.28016
52.6908	81.7322	135.0058	149.9496	181.3349	225.6101	250.345	262.3039	282.477	294.1006	311.1515	361.4899	462.4391	466.681	520.4946	576.1982	711.7257	768.7077	833.2909	860.3676	897.6281	932.924	963.4162	999.9247	1029.0955	1059.5498	1077.4736	1086.9778	1098.4264	1111.8178	1129.379	1147.7865	1238.1397	1283.3943	1295.1757	1306.414	1334.6827	1347.0143	1388.035	1403.8085	1406.8785	1414.0795	1424.9991	1466.7831	1475.7969	1488.828	1492.3571	1498.2999	1502.2256	1506.9969	1512.3952	3019.5989	3028.6987	3032.1052	3033.6365	3038.232	3078.8053	3091.5059	3094.5615	3102.3257	3105.2609	3111.3702	3118.9325	3142.5994	3476.791	3812.8585
CCC1NC1(C)C(C)O	CC[C@H]1N[C@]1(C)[C@@H](C)O	
InChI=1S/C7H15NO/c1-4-6-7(3,8-6)5(2)9/h5-6,8-9H,4H2,1-3H3	InChI=1S/C7H15NO/c1-4-6-7(3,8-6)5(2)9/h5-6,8-9H,4H2,1-3H3/t5-,6-,7-/m1/s1
