15
gdb 29236	3.21672	1.43448	0.99816	4.3447	73.52	-0.2312	-0.0449	0.1863	1124.9638	0.113542	-454.019088	-454.011054	-454.01011	-454.051924	29.66	
C	-0.0271554558	 1.5482902433	 0.2776753441	-0.476118
C	-0.0317082584	 0.0697844505	 0.0204313168	 0.061073
C	-1.1303475105	-0.710795414	 0.084727676	-0.031752
N	-1.0912348155	-2.0541328312	-0.1564362788	-0.34689
C	 0.0704490447	-2.7308904845	-0.4883966563	 0.47225
N	 0.0523842073	-3.976421762	-0.7052752007	-0.565396
O	 1.1898451667	-1.954554273	-0.5552448456	-0.254967
C	 1.2326449531	-0.5650999931	-0.3208770324	 0.390626
O	 2.2997416568	-0.0293064567	-0.421944035	-0.319613
H	 0.6432981299	 1.8019751778	 1.1052123361	 0.14598
H	 0.3336543178	 2.0990113684	-0.5970737065	 0.145993
H	-1.0307914521	 1.9062674122	 0.5227243554	 0.117264
H	-2.1087369119	-0.3145109084	 0.3326217484	 0.140896
H	-1.9199111873	-2.6240181221	-0.1069637116	 0.282063
H	 0.9843406051	-4.3128299873	-0.9348280098	 0.23859
82.4676	133.8956	141.9128	272.5533	279.995	371.9526	383.8815	464.2208	531.9262	552.3105	590.5985	714.5843	719.4443	774.4858	812.7845	813.2264	933.5558	960.401	999.5894	1032.7119	1073.6502	1099.8061	1209.439	1243.3671	1380.8217	1404.0408	1421.8219	1470.6353	1489.7926	1504.116	1711.135	1762.2954	1851.0069	3037.9883	3094.7907	3117.9722	3199.438	3540.3724	3660.2493
CC1=CNC(=N)OC1=O	CC1=CN[C]([NH])OC1=O	
InChI=1S/C5H6N2O2/c1-3-2-7-5(6)9-4(3)8/h2H,1H3,(H2,6,7)	InChI=1S/C5H6N2O2/c1-3-2-7-5(6)9-4(3)8/h2H,1H3,(H2,6,7)
