25
gdb 100301	1.83045	1.40437	1.08554	1.9661	84.59	-0.2474	0.0716	0.3189	1322.6496	0.225815	-426.62067	-426.609132	-426.608188	-426.656761	42.996	
C	-0.1080708194	 1.316225724	 0.1235989729	-0.251453
O	 0.222432641	-0.0531997776	 0.0099504101	-0.295042
C	 0.7514740922	-0.5323253512	-1.2521085482	 0.310168
C	-0.0110607747	 0.0268054612	-2.4566282363	-0.453705
C	 2.2271826116	-0.0901445888	-1.3091357472	-0.078304
O	 2.9579574728	-0.5436769137	-0.1883436145	-0.42896
C	 0.6228552678	-2.076816836	-1.1139225359	 0.056885
C	-0.8412198042	-2.5330525712	-1.0262320969	-0.408797
C	 1.3760663689	-2.8648108816	-2.194969011	-0.420734
H	 0.7346756497	 1.9829735077	-0.1066711163	 0.11056
H	-0.9553859678	 1.5965428984	-0.5150798052	 0.113897
H	-0.3952009487	 1.4757927774	 1.166393363	 0.12843
H	 0.1751148657	 1.0962198274	-2.5930440084	 0.11559
H	 0.3088913747	-0.477670019	-3.37241213	 0.125428
H	-1.0882685779	-0.1209698409	-2.3486691482	 0.1302
H	 2.7152352395	-0.4899128619	-2.2022342577	 0.108162
H	 2.2675353174	 1.0085885333	-1.3910998279	 0.078972
H	 2.3841977884	-0.3830678762	 0.5719865725	 0.285647
H	 1.0997156711	-2.3082416834	-0.1555666693	 0.082499
H	-0.8902968081	-3.5823337826	-0.7178961441	 0.107777
H	-1.3946581479	-1.937765489	-0.2968619879	 0.123821
H	-1.3508584678	-2.4575991901	-1.9934109349	 0.106374
H	 2.4529360579	-2.6828946845	-2.1601969774	 0.130443
H	 1.2220947628	-3.9377410786	-2.0414599883	 0.112898
H	 1.017473575	-2.6316437931	-3.2041174227	 0.109241
54.4694	95.8141	137.2244	173.3055	210.0843	219.4011	247.7684	250.5669	275.7881	309.5336	339.1334	361.7579	377.6085	417.6574	456.1621	482.1969	523.6896	603.6771	698.1085	805.6525	893.5635	915.3844	935.5549	972.7888	982.5559	1040.634	1084.0819	1086.331	1132.4335	1154.6	1180.4992	1184.5699	1204.9707	1215.3093	1233.9704	1271.2368	1346.4349	1366.6165	1376.6751	1396.3331	1408.3005	1419.0875	1433.4799	1475.9471	1484.8347	1490.8206	1491.0867	1496.3396	1507.9883	1511.2853	1513.4309	1516.9076	1526.3574	2967.7352	2999.5196	3032.2092	3036.0057	3048.8689	3049.2988	3054.8614	3087.781	3090.5717	3098.2936	3107.0729	3114.3331	3119.6488	3127.8244	3128.0696	3769.3207
COC(C)(CO)C(C)C	CO[C@@](C)(CO)C(C)C	
InChI=1S/C7H16O2/c1-6(2)7(3,5-8)9-4/h6,8H,5H2,1-4H3	InChI=1S/C7H16O2/c1-6(2)7(3,5-8)9-4/h6,8H,5H2,1-4H3/t7-/m0/s1
