14
gdb 27867	2.07924	1.85161	0.97942	4.0572	69.78	-0.2048	-0.0162	0.1886	1105.0668	0.103479	-470.070576	-470.063205	-470.062261	-470.102371	28.8	
O	-0.129980621	 1.3115238986	 0.0106735761	-0.407689
C	 0.0512124021	-0.0177618675	 0.0024049591	 0.535655
C	 1.2544137476	-0.6670326601	-0.0074137655	-0.434927
C	 1.1631168641	-2.086834398	-0.0147677858	 0.452851
O	 2.3301930443	-2.7513886587	-0.0244855419	-0.407505
N	 0.0638301748	-2.7866232588	-0.0129194319	-0.432587
C	-1.1511971795	-2.1318311193	-0.0029990258	 0.417249
N	-2.3173493661	-2.6529857011	 0.0001848007	-0.576827
N	-1.0989149316	-0.7153267888	 0.0045244674	-0.369009
H	 0.7293847354	 1.7481614776	 0.0086061139	 0.31927
H	 2.2038819832	-0.1534726501	-0.0095033195	 0.107015
H	 2.0962894125	-3.6917010926	-0.0284519945	 0.301621
H	-2.220450582	-3.666497377	-0.0059037616	 0.218003
H	-1.9849669438	-0.2312760243	 0.0117930594	 0.276879
128.8188	187.0521	231.0983	344.8046	361.6619	404.9131	522.5536	531.7036	568.264	582.3338	601.5969	656.6282	678.4359	705.7973	740.2964	774.439	836.4101	951.9094	1011.7172	1064.3435	1136.995	1192.0632	1210.8271	1286.1138	1330.4435	1341.6974	1497.4987	1542.5432	1619.2331	1691.2669	1734.4682	3240.9687	3517.001	3626.6771	3746.9569	3822.4888
OC1=CC(O)=NC(=N)N1	O[C@H]1C=C(O)N=C([NH])N1	
InChI=1S/C4H5N3O2/c5-4-6-2(8)1-3(9)7-4/h1H,(H4,5,6,7,8,9)	InChI=1S/C4H6N3O2/c5-4-6-2(8)1-3(9)7-4/h1-2,5,8H,(H2,6,7,9)/t2-/m0/s1
