17
gdb 127993	2.4006	1.67854	0.99996	2.8091	82.67	-0.2283	-0.0655	0.1628	1164.9238	0.134927	-417.996827	-417.988112	-417.987167	-418.030482	31.491	
C	-0.0392966189	 1.397180894	-0.1692931851	-0.320658
N	-0.0258847262	-0.0534806741	-0.260336627	-0.308262
C	-1.059383403	-0.6980265693	 0.0941122437	 0.378714
O	-2.1787744636	-0.0169001203	 0.5596574253	-0.299072
N	-3.3527614292	-0.646252829	 0.9705717923	-0.073183
C	-3.3615635636	-1.9307440265	 0.8986271746	 0.030499
C	-2.2720284295	-2.7476391058	 0.435328933	-0.208332
C	-1.1285212494	-2.1563284649	 0.0346459737	 0.223216
C	 0.0745141542	-2.8890037292	-0.4660549369	-0.474866
H	 0.9244221283	 1.7837041659	-0.5082737784	 0.116989
H	-0.8314581479	 1.8387357003	-0.7886300815	 0.127151
H	-0.2134795557	 1.741644307	 0.8588158478	 0.127146
H	-4.2942019739	-2.3794731104	 1.2278947658	 0.136519
H	-2.3898453464	-3.8254609075	 0.4166562723	 0.115245
H	-0.0941597305	-3.9682673431	-0.4706435271	 0.118859
H	 0.3297778019	-2.553891389	-1.4761282873	 0.155088
H	 0.9454273733	-2.6577639681	 0.1552102049	 0.154949
75.6708	124.8618	150.7937	194.4585	198.7076	231.0765	305.4631	452.8439	503.5434	520.1531	574.6246	584.2039	721.2014	743.9769	869.0674	876.27	934.8622	949.7224	997.4693	1048.083	1064.9192	1083.494	1095.3126	1106.717	1173.5743	1263.3824	1343.9327	1398.3018	1413.9506	1437.4012	1461.0594	1475.6116	1485.5006	1495.9427	1627.2298	1692.1909	1727.6231	3003.9124	3044.8544	3053.6312	3104.211	3109.7705	3131.8454	3179.0306	3195.4403
CN=C1ON=CC=C1C	C[N]C1=C([CH]C=NO1)C	
InChI=1S/C6H8N2O/c1-5-3-4-8-9-6(5)7-2/h3-4H,1-2H3	InChI=1S/C6H8N2O/c1-5-3-4-8-9-6(5)7-2/h3-4H,1-2H3
