17
gdb 61427	3.02314	1.01429	0.86266	5.0956	65.67	-0.2473	0.0307	0.278	1341.0035	0.134382	-492.366859	-492.356722	-492.355778	-492.403192	35.832	
C	 0.9280178596	 1.6868587586	-0.3333492922	-0.402101
C	 0.2064520084	 0.3800900892	-0.0296441873	 0.031377
O	 0.4660682013	-0.5953986492	-1.0630245359	-0.287517
C	-0.4498242099	-0.6633776561	-2.0711993414	 0.500051
N	-0.0716895113	-1.6230824229	-2.9674705991	-0.565675
O	-1.4565894131	-0.0015550216	-2.1377793128	-0.386603
C	 0.6237328767	-0.1925850526	 1.3313099536	 0.381293
N	 0.9134975905	-1.5177408189	 1.3513277617	-0.518779
O	 0.6509950143	 0.5239442104	 2.3134421459	-0.372732
H	 1.9971876462	 1.5109571806	-0.4852535843	 0.121316
H	 0.5096972103	 2.1463285603	-1.231932448	 0.130756
H	 0.8027224967	 2.3644342947	 0.5127879042	 0.154652
H	-0.8732613902	 0.550923153	 0.0044887122	 0.147522
H	 0.887120351	-1.9279898777	-2.9719339342	 0.264327
H	-0.5637487607	-1.6201907051	-3.8448715459	 0.273012
H	 0.9282180311	-2.0546056004	 0.5030425158	 0.266589
H	 1.1886947492	-1.9349593822	 2.2245009975	 0.262511
33.8877	46.9676	87.791	179.1071	226.7536	246.0835	252.1702	337.846	378.0674	390.3837	422.2649	501.5885	516.2256	562.9534	616.6999	658.8831	731.6583	782.2904	832.3801	869.9223	1010.7775	1064.0769	1091.2394	1116.5968	1121.8139	1132.6948	1307.5836	1344.6965	1377.9476	1385.6266	1395.8131	1491.0746	1495.0692	1595.1451	1614.8476	1799.4414	1840.7282	3051.3632	3084.353	3127.432	3151.073	3610.1431	3612.3125	3737.0739	3754.1379
CC(OC(N)=O)C(N)=O	C[C@@H](OC(=O)N)C(=O)N	
InChI=1S/C4H8N2O3/c1-2(3(5)7)9-4(6)8/h2H,1H3,(H2,5,7)(H2,6,8)	InChI=1S/C4H8N2O3/c1-2(3(5)7)9-4(6)8/h2H,1H3,(H2,5,7)(H2,6,8)/t2-/m1/s1
