18
gdb 111559	2.61552	1.6449	1.23502	0.7683	70.72	-0.2177	0.051	0.2687	1034.5717	0.147586	-438.98599	-438.977857	-438.976913	-439.018723	31.507	
O	 0.437843819	 0.4102174028	 0.9000939397	-0.419288
C	-0.0495762468	 0.341414009	-0.4424576151	-0.118121
C	-1.4065164516	-0.347768153	-0.437907824	-0.029349
N	-2.0710701195	-0.8501370559	-1.7184239136	-0.203082
C	-1.052795357	-1.8272411976	-2.2938817004	-0.184809
C	-1.2698656266	-2.7119704861	-1.0865719575	-0.155236
C	-2.6046880643	-2.0382376849	-0.8703639213	-0.090335
C	-1.5257727188	-1.7505843999	 0.11347712	 0.384894
O	-1.4560220832	-2.1558936328	 1.4261836434	-0.468838
H	-0.1541296354	 0.983708546	 1.3986486877	 0.289644
H	-0.1057669801	 1.3364639807	-0.9072476676	 0.101759
H	 0.6997670043	-0.2383598025	-0.9852558707	 0.115034
H	-2.140710976	 0.3074425691	 0.049730964	 0.075908
H	-1.4701280374	-2.2500053982	-3.2125495365	 0.111303
H	-0.0654042295	-1.4089739759	-2.5137814982	 0.098075
H	-1.0138412998	-3.7480502733	-0.9022632436	 0.094601
H	-3.6332454586	-2.3646118586	-0.8207573157	 0.105495
H	-0.5679683088	-1.937134369	 1.7346201693	 0.292342
72.6099	127.7984	197.867	260.4925	328.6321	349.326	379.1127	414.5247	496.6877	586.0107	634.3026	700.524	767.746	822.7677	832.4774	871.9535	922.9862	947.8736	965.7067	987.5308	1013.4194	1041.5441	1071.092	1093.8918	1105.6882	1128.7403	1167.5355	1199.0985	1204.0719	1224.7514	1261.596	1307.9401	1317.6963	1367.9366	1409.0674	1422.9692	1474.4286	1506.7727	1524.3497	3001.6288	3018.3539	3043.479	3088.2286	3111.8293	3192.337	3224.7035	3784.4089	3808.1558
OCC1N2CC3C2C13O	OC[C@H]1N2C[C@@H]3[C@H]2[C@]13O	
InChI=1S/C6H9NO2/c8-2-4-6(9)3-1-7(4)5(3)6/h3-5,8-9H,1-2H2	InChI=1S/C6H9NO2/c8-2-4-6(9)3-1-7(4)5(3)6/h3-5,8-9H,1-2H2/t3-,4-,5+,6-/m1/s1
