18
gdb 78363	2.74547	1.44077	1.15328	3.4661	73.22	-0.2306	0.0734	0.3039	1116.2793	0.146333	-439.00076	-438.992473	-438.991529	-439.033452	31.882	
C	-0.1602305809	 1.2417170163	-0.0948653094	-0.319505
N	 0.1602986496	-0.1764201861	 0.0498828187	-0.125063
C	 1.5896535011	-0.484933676	-0.0983681335	-0.057636
C	 0.9562150211	-0.4827236493	 1.2635434938	-0.170661
C	 1.0464132354	-1.9855905547	 1.3233906113	 0.446537
C	 1.3117108316	-2.8742600055	 2.4516360062	-0.279096
O	 0.0331139335	-2.8434252691	 1.7987596335	-0.263883
C	 1.6513974953	-2.0261089512	-0.1217602051	 0.010817
O	 0.924347849	-2.6771101159	-1.1159403299	-0.428122
H	 0.6231153563	 1.9158323928	 0.2887432747	 0.102016
H	-0.3153147288	 1.464828119	-1.1547458091	 0.1305
H	-1.090035617	 1.4540081356	 0.4410710223	 0.132228
H	 2.2735393029	 0.2310810167	-0.5367822069	 0.097309
H	 1.0389854957	 0.2442768748	 2.062029881	 0.101177
H	 1.896106718	-3.7802715208	 2.2949628822	 0.120262
H	 1.3249717137	-2.4810176715	 3.4677767302	 0.115228
H	 2.6694424484	-2.4238783425	-0.13708039	 0.094678
H	 0.0520433151	-2.2590322726	-1.1125610501	 0.293215
97.9109	164.4938	202.096	231.1103	238.458	304.1368	364.7821	453.6974	472.526	514.5902	610.3961	652.1072	762.9625	819.4284	851.5438	872.9988	887.3778	929.2147	952.0739	986.388	1024.8644	1098.5215	1114.775	1122.2791	1131.104	1152.9683	1166.7029	1177.6342	1212.6267	1237.5595	1280.7533	1296.9045	1344.3945	1436.9598	1453.7318	1455.8188	1494.2988	1498.1246	1537.1478	2969.7557	3074.103	3077.4343	3085.2063	3110.8036	3163.9918	3189.3978	3202.1868	3754.3822
CN1C2C1C1(CO1)C2O	CN1[C@H]2[C@@H]1[C@]1(CO1)[C@H]2O	
InChI=1S/C6H9NO2/c1-7-3-4(7)6(2-9-6)5(3)8/h3-5,8H,2H2,1H3	InChI=1S/C6H9NO2/c1-7-3-4(7)6(2-9-6)5(3)8/h3-5,8H,2H2,1H3/t3-,4+,5-,6+,7?/m0/s1
