18
gdb 48943	3.75611	1.42616	1.22791	3.357	76.09	-0.2159	-0.0328	0.1831	1028.6108	0.148749	-401.892005	-401.884816	-401.883872	-401.923774	28.314	
O	-0.1305692304	-0.006433065	-0.1315703563	-0.251607
C	-0.0213831729	 1.1829249445	 0.0413907111	 0.05419
C	 1.2667601949	 1.9331561307	 0.00033157	 0.244656
C	 1.4504267276	 3.1468087119	 0.958607069	-0.299254
C	 2.1702409927	 3.9523827149	-0.1505097516	-0.045705
C	 3.5898382447	 3.4243794155	-0.4458755364	-0.172356
N	 3.0629810096	 2.2544006942	-1.2335072927	-0.142239
C	 2.5771299252	 1.1837067188	-0.2956846679	-0.232292
C	 1.6848928114	 2.8953062317	-1.1881415482	-0.04294
H	-0.9201580328	 1.8182684014	 0.2283545967	 0.066847
H	 0.4758907428	 3.5924218363	 1.1872322779	 0.109523
H	 1.9840005369	 2.9646847809	 1.8966576501	 0.104974
H	 1.9862294758	 5.025368276	-0.2058230815	 0.076175
H	 4.1549408007	 4.0849410855	-1.1108033348	 0.112029
H	 4.2257865202	 3.1563283633	 0.4054720154	 0.101365
H	 3.2441778875	 0.9760620154	 0.5474868504	 0.102408
H	 2.3933388385	 0.2555089098	-0.8425628837	 0.130974
H	 1.1264821575	 3.0606144641	-2.1088528574	 0.083249
76.6117	183.5056	223.7045	321.1271	346.1686	441.0958	446.9366	604.8312	682.972	755.0655	798.2992	814.2261	847.7459	882.6161	916.5879	934.8207	957.123	964.2178	977.306	1031.4604	1047.3793	1076.1656	1136.1238	1159.8109	1175.4928	1184.975	1196.7301	1206.3867	1229.214	1258.4192	1267.1746	1308.5685	1320.6384	1345.0114	1424.7903	1478.1201	1492.3481	1507.4194	1811.6079	2843.4564	3032.013	3035.2016	3045.65	3083.1507	3090.2643	3103.4329	3106.1513	3121.0657
O=CC12CC3CN(C1)C23	O=C[C@@]12C[C@H]3CN(C1)[C@@H]23	
InChI=1S/C7H9NO/c9-4-7-1-5-2-8(3-7)6(5)7/h4-6H,1-3H2	InChI=1S/C7H9NO/c9-4-7-1-5-2-8(3-7)6(5)7/h4-6H,1-3H2/t5-,6+,7+/m0/s1
