16
gdb 127437	3.19473	1.45723	1.01335	4.4163	76.56	-0.2437	-0.0776	0.1661	1138.5702	0.124471	-434.106849	-434.098476	-434.097531	-434.14017	30.095	
C	-0.0527186209	 1.4468568905	 0.0785992483	-0.312485
N	-0.0140384851	-0.0092764963	-0.0031346796	-0.053044
N	-1.1781511787	-0.6474512412	 0.0986566857	-0.233552
C	-1.1573570369	-1.9529218521	 0.0268597466	 0.308346
C	-2.4547870802	-2.6997908407	 0.1384512071	-0.481849
C	 0.0972062706	-2.6204570578	-0.1549234844	-0.023932
N	 1.2374185101	-2.0127486731	-0.2555158752	-0.308277
C	 1.2475956275	-0.6222692511	-0.182694898	 0.464439
O	 2.2428891663	 0.0640749998	-0.2620839435	-0.377852
H	 0.5617108042	 1.7875020378	 0.9155146382	 0.157582
H	 0.3582473615	 1.8805641322	-0.8362883892	 0.157599
H	-1.0920068341	 1.7404427506	 0.2148734893	 0.146467
H	-2.6478500941	-3.2970589348	-0.7597254854	 0.140692
H	-2.4440281837	-3.3897524819	 0.989664264	 0.140697
H	-3.2773188017	-1.9954524507	 0.2716104847	 0.148936
H	 0.1080495851	-3.7104657712	-0.2142174886	 0.126234
77.557	117.0882	131.9519	197.6072	281.7415	307.6309	344.7143	415.8698	508.1558	540.1936	579.8769	619.2325	686.3617	808.2276	830.4042	940.9432	983.94	1019.6502	1054.513	1069.3642	1109.0495	1149.4118	1238.7773	1302.9145	1354.7425	1414.2258	1436.1837	1438.0602	1470.1723	1479.516	1481.2959	1501.9778	1548.7364	1662.2637	1795.036	3034.4791	3059.6857	3086.8832	3111.7637	3124.7872	3143.2234	3178.0689
CN1N=C(C)C=NC1=O	Cn1nc(C)cnc1=O	
InChI=1S/C5H7N3O/c1-4-3-6-5(9)8(2)7-4/h3H,1-2H3	InChI=1S/C5H7N3O/c1-4-3-6-5(9)8(2)7-4/h3H,1-2H3
