21
gdb 68825	2.68382	1.43072	1.21414	1.6332	83.6	-0.2401	0.0867	0.3268	1144.1704	0.180707	-387.0527	-387.043603	-387.042658	-387.085935	35.178	
C	-0.0087837492	 1.5373113427	 0.0582872093	-0.497403
C	-0.0244644642	 0.0360863068	 0.0512261709	 0.308779
C	 1.1558399094	-0.8044562883	-0.3578025837	-0.379425
C	 0.5994947663	-0.9747550562	 1.0385083971	 0.220205
C	 1.3920786768	-0.7880146268	 2.299055901	-0.500956
C	-0.6555811872	-1.8182017418	 0.9279682357	 0.421477
C	-0.8674988978	-3.2484680403	 1.1560471366	-0.276901
O	-1.3513040168	-2.2576239483	 2.0824725355	-0.281797
C	-1.2996513844	-0.8240906074	-0.0539040046	-0.384841
H	 0.974175204	 1.9223816366	 0.3494524192	 0.11736
H	-0.2364194059	 1.9411586156	-0.9359420799	 0.121042
H	-0.7490393932	 1.9428167113	 0.7573738971	 0.119171
H	 1.0513375514	-1.5933858989	-1.1005894626	 0.100925
H	 2.1061073831	-0.2794623134	-0.405318932	 0.107823
H	 2.0477432486	 0.0857773468	 2.2267065967	 0.116054
H	 0.7292880802	-0.6518058805	 3.159022934	 0.133649
H	 2.0278354125	-1.6577291359	 2.504731055	 0.120007
H	-1.6413745841	-3.7803691493	 0.6037145341	 0.112016
H	-0.0515834212	-3.8695571612	 1.5242842876	 0.111202
H	-2.1721782586	-0.3519392811	 0.4067151761	 0.116269
H	-1.5698326298	-1.1881165407	-1.0511573229	 0.095344
100.8203	172.6731	173.5121	201.8929	213.7951	239.734	334.9628	367.5035	414.0697	457.6771	483.5016	546.5709	631.5403	689.8745	777.5638	832.9683	840.5443	890.4735	936.1414	948.009	974.9149	991.5653	1023.2455	1063.3288	1091.1974	1111.1226	1115.6398	1124.5447	1150.4966	1167.7661	1207.3374	1225.7903	1258.71	1338.8208	1389.9967	1413.8038	1425.1549	1437.6537	1474.8303	1481.2317	1487.2033	1496.6851	1502.4721	1509.8996	1538.4849	3019.275	3025.6236	3038.7489	3077.3656	3077.6213	3084.3269	3093.548	3095.015	3099.8097	3107.8484	3163.1906	3183.1034
CC12CC1(C)C1(CO1)C2	C[C@@]12C[C@]1(C)[C@]1(CO1)C2	
InChI=1S/C8H12O/c1-6-3-7(6,2)8(4-6)5-9-8/h3-5H2,1-2H3	InChI=1S/C8H12O/c1-6-3-7(6,2)8(4-6)5-9-8/h3-5H2,1-2H3/t6-,7-,8+/m0/s1
