20
gdb 31134	1.89648	1.69472	0.96422	0.4969	82.49	-0.1993	0.0319	0.2312	1266.8835	0.170339	-403.188838	-403.178885	-403.177941	-403.224069	35.879	
C	 0.0753300254	 1.5623091381	 0.2397508889	-0.368142
C	-0.0427644817	 0.0427341162	 0.0251395449	-0.302891
C	 0.6594131609	-0.4517582998	-1.2037542441	 0.150392
C	 0.0733910013	-0.7656509198	-2.3931695739	 0.200434
N	-1.2655202556	-0.7215911607	-2.7935936038	-0.595962
O	 1.0138311658	-1.1984129527	-3.2933329481	-0.174156
C	 2.2140917062	-1.1587981394	-2.6493908412	-0.121153
C	 2.0732987891	-0.7026873828	-1.3778909316	 0.172545
C	 3.1562044416	-0.5307902295	-0.358690691	-0.508292
H	 1.1202114283	 1.8739218465	 0.3376675902	 0.116822
H	-0.3542082461	 2.1089776262	-0.6057133769	 0.113503
H	-0.453182371	 1.8711333508	 1.1476093791	 0.109058
H	 0.3549016071	-0.4734511407	 0.9085190181	 0.096734
H	-1.1008821867	-0.2292636915	-0.0501484496	 0.116291
H	-1.4920319912	 0.1233801315	-3.3098527361	 0.246322
H	-1.5016758202	-1.5144197102	-3.3811344963	 0.244592
H	 3.0651843809	-1.4997155263	-3.2168651401	 0.125592
H	 3.2767558408	 0.5176869693	-0.0620284353	 0.128658
H	 2.943226945	-1.0974012303	 0.555515468	 0.127509
H	 4.11857984	-0.8774130646	-0.7462097713	 0.122145
57.8034	81.2758	134.8854	156.1523	183.1969	193.3211	262.7981	292.1147	338.4497	400.1502	491.1015	569.257	625.7411	670.4912	721.5864	726.8002	756.3816	786.5729	808.3843	966.2184	978.644	1013.031	1062.5921	1081.9475	1104.1267	1153.9512	1163.3808	1218.2825	1262.1044	1291.0532	1317.7019	1362.5538	1405.5627	1417.763	1429.4941	1479.0693	1483.8898	1496.3754	1499.3902	1506.3215	1607.5549	1650.1449	1698.161	3021.1324	3024.8471	3033.529	3071.5572	3072.8697	3103.1738	3105.4789	3108.5706	3264.6719	3491.7131	3566.8251
CCC1=C(N)OC=C1C	CCc1c(N)occ1C	
InChI=1S/C7H11NO/c1-3-6-5(2)4-9-7(6)8/h4H,3,8H2,1-2H3	InChI=1S/C7H11NO/c1-3-6-5(2)4-9-7(6)8/h4H,3,8H2,1-2H3
