18
gdb 38924	3.2253	1.74598	1.27233	2.1187	79.1	-0.2245	-0.0007	0.2238	990.1716	0.149735	-401.902391	-401.895462	-401.894518	-401.933479	28.278	
C	-0.0124837309	 1.4598851269	 0.1064338833	-0.299858
N	 1.2983394091	 0.8188001999	-0.0867316793	-0.172927
C	 1.63646979	 0.1932246391	 1.2439208592	-0.189625
C	 0.3787467206	-0.7003318171	 1.2361907905	 0.043913
O	 0.7288315527	-2.051181798	 1.0208013635	-0.264606
C	-0.265023341	-2.7870946217	 0.3228318422	-0.134092
C	-0.7305901028	-2.117507589	-0.9470460719	-0.093002
C	-0.5669718602	-0.8080347834	-1.1508636217	-0.163232
C	-0.0129076104	-0.0053467115	-0.0624643774	 0.327812
H	-0.2577531443	 1.8987994385	 1.0738533038	 0.10809
H	-0.3196347459	 2.058338579	-0.7472141006	 0.123008
H	 2.5466106717	-0.401973777	 1.162181932	 0.127277
H	 1.7317954495	 0.9185406648	 2.0587726714	 0.101576
H	-0.3306216273	-0.6123002203	 2.0734272482	 0.063762
H	 0.1950467661	-3.7535727209	 0.0895836846	 0.122178
H	-1.1278565682	-2.9979644427	 0.9805701169	 0.101527
H	-1.1952949902	-2.7538473801	-1.6945420991	 0.100849
H	-0.8552618385	-0.3281422963	-2.0810837358	 0.097352
135.059	192.3232	274.8835	378.0021	435.6753	457.2922	479.2143	511.6322	640.2652	684.6739	736.0964	785.4417	835.5785	887.2548	905.612	922.6265	935.1811	981.8279	998.2305	1023.5822	1046.373	1084.1734	1108.2191	1131.1095	1149.3459	1185.4382	1208.1574	1259.771	1265.1908	1283.1875	1316.6688	1339.297	1363.1768	1402.0904	1445.2122	1479.2453	1487.4375	1504.6749	1695.6821	2940.704	2975.0632	3049.4323	3063.2233	3081.3489	3132.9474	3164.0319	3179.1805	3185.1167
C1N2CC3OCC=CC123	C1N2C[C@@H]3OCC=C[C@]123	
InChI=1S/C7H9NO/c1-2-7-5-8(7)4-6(7)9-3-1/h1-2,6H,3-5H2	InChI=1S/C7H9NO/c1-2-7-5-8(7)4-6(7)9-3-1/h1-2,6H,3-5H2/t6-,7+,8?/m0/s1
