23
gdb 103095	1.78552	1.46191	1.11107	0.8382	92.75	-0.2349	0.0515	0.2864	1291.0667	0.202825	-351.12477	-351.113959	-351.113015	-351.160002	40.57	
C	 0.2268923609	 1.4873852046	-0.2424026079	-0.385239
C	-0.1581367112	 0.0484372249	 0.1269824035	-0.243651
C	 0.6531569336	-0.5386700342	 1.2743631322	 0.32304
C	 0.5376627377	 0.2124227156	 2.5903167134	-0.457797
C	 0.8491105055	-2.0320047577	 1.3721013217	-0.066336
C	 0.2562116497	-3.0412383967	 0.4142667751	-0.422638
C	 2.0330493687	-1.1426817456	 0.975412631	-0.272733
C	 2.5651365848	-1.1754439953	-0.3540235903	 0.341728
C	 3.0274432727	-1.2046780549	-1.4657940111	-0.466005
H	 1.2843563752	 1.5470485223	-0.5173088106	 0.129744
H	-0.3622097234	 1.83355036	-1.0973149496	 0.109504
H	 0.0495110112	 2.1855581317	 0.5810676728	 0.113287
H	-1.2214861049	 0.0110484387	 0.4005240378	 0.090371
H	-0.046188218	-0.5766325871	-0.7621443131	 0.10858
H	-0.5085434097	 0.2650363711	 2.9153105217	 0.114867
H	 1.1051532828	-0.2862373172	 3.3823565346	 0.112451
H	 0.9136392175	 1.2373355566	 2.5101753318	 0.122677
H	 0.9191049049	-2.4008791089	 2.3930537457	 0.083564
H	 0.3627666444	-2.7369792717	-0.6285674749	 0.134287
H	 0.7628216621	-4.0062241094	 0.5215852018	 0.119769
H	-0.8083838576	-3.1995593296	 0.6188670313	 0.115699
H	 2.7848792335	-0.9888544639	 1.7453230631	 0.103588
H	 3.4377282299	-1.2256682935	-2.4445874098	 0.191244
73.365	120.132	133.155	152.3579	198.511	220.5737	232.94	256.1362	311.6729	354.0602	371.8699	408.6701	491.3955	552.8554	569.9699	604.3394	645.5354	691.2919	763.318	792.6877	821.9564	917.9961	966.807	1006.924	1018.0994	1031.6214	1042.1761	1080.9915	1126.4881	1132.871	1146.0561	1166.0482	1243.6231	1308.9056	1313.8162	1362.0527	1377.1895	1410.5985	1417.6312	1422.6261	1441.303	1475.2507	1491.5232	1496.0449	1499.3208	1504.2394	1506.8781	1514.3121	2225.9227	3016.2805	3026.3944	3036.2892	3040.366	3088.7715	3091.3157	3091.9115	3102.2658	3108.1248	3116.9463	3119.7343	3133.0643	3139.2642	3504.8616
CCC1(C)C(C)C1C#C	CC[C@@]1(C)[C@@H](C)[C@H]1C#C	
InChI=1S/C9H14/c1-5-8-7(3)9(8,4)6-2/h1,7-8H,6H2,2-4H3	InChI=1S/C9H14/c1-5-8-7(3)9(8,4)6-2/h1,7-8H,6H2,2-4H3/t7-,8+,9-/m0/s1
