21
gdb 113655	3.0698	0.92769	0.84781	2.6933	80.93	-0.2389	-0.0054	0.2334	1503.9514	0.179533	-424.224529	-424.214119	-424.213175	-424.261046	36.663	
C	-0.0258045742	 1.5544403782	-0.1559709816	-0.377928
C	-0.157380603	 0.0346589151	-0.1849419896	-0.285651
C	-1.5614440016	-0.4621941454	 0.1293469578	 0.401894
O	-2.4670235899	 0.2932604976	 0.4028767102	-0.317297
C	-1.7480926902	-1.9520450692	 0.0655238112	-0.178357
C	-3.0800389419	-2.5196051569	 0.5219616984	-0.329042
C	-2.7411838322	-2.51349046	-0.9355419776	 0.138241
O	-3.3449336248	-1.6188063623	-1.8039804588	-0.227148
C	-4.6537535836	-2.003253918	-2.1786697071	-0.230831
H	 1.0002757541	 1.8594660868	-0.3802801157	 0.106312
H	-0.6933331362	 2.0156707312	-0.8881339397	 0.13318
H	-0.2994554659	 1.9501903758	 0.8253732969	 0.130195
H	 0.1263173895	-0.3745121099	-1.1647096521	 0.12561
H	 0.5312265499	-0.4382284193	 0.5301098542	 0.117698
H	-0.8474581652	-2.5408870633	 0.2062739305	 0.092693
H	-3.0903052203	-3.4591077454	 1.0624501139	 0.113932
H	-3.7782744087	-1.7604891926	 0.8585213207	 0.147032
H	-2.4709233232	-3.4674288882	-1.3938054201	 0.088017
H	-5.317886567	-2.0776787007	-1.3068685588	 0.115532
H	-5.0306782641	-1.2319301175	-2.8534978002	 0.131977
H	-4.6566614015	-2.9707019959	-2.7036564424	 0.10394
43.1398	65.6904	83.7398	138.9379	173.2956	194.1187	207.5913	260.4517	310.7398	375.1131	433.8865	494.7551	590.0239	655.0118	763.9226	796.3686	822.0106	846.4791	950.0243	965.7204	1007.9943	1034.5485	1060.4832	1085.7259	1100.0427	1104.3848	1131.4074	1137.4969	1172.3738	1183.7792	1215.269	1263.9003	1276.9021	1353.2598	1390.6888	1404.3486	1413.3743	1451.1665	1461.1833	1485.9332	1489.2048	1491.4227	1497.9678	1507.7414	1800.3268	2985.0374	3012.1741	3040.3057	3042.42	3050.78	3075.8441	3121.4486	3125.4484	3127.707	3136.326	3162.1988	3234.0954
CCC(=O)C1CC1OC	CCC(=O)[C@H]1C[C@H]1OC	
InChI=1S/C7H12O2/c1-3-6(8)5-4-7(5)9-2/h5,7H,3-4H2,1-2H3	InChI=1S/C7H12O2/c1-3-6(8)5-4-7(5)9-2/h5,7H,3-4H2,1-2H3/t5-,7-/m1/s1
