18
gdb 54538	3.11311	1.3625	1.11949	14.3027	72.65	-0.1691	-0.0175	0.1516	1102.8309	0.150391	-439.047551	-439.03971	-439.038765	-439.080286	30.028	
O	 0.1872672477	 0.0995269764	 0.3162096546	-0.472114
C	 0.1070612674	 1.2618814222	-0.1057774339	 0.301806
O	 0.9304072686	 2.0647757556	-0.576970475	-0.487834
C	-1.3298582127	 1.8887885761	 0.0503962115	 0.224863
C	-1.6996737087	 3.1084988261	-0.7570114428	-0.337348
C	-1.3806139065	 3.2483665671	 0.6961054451	-0.092611
N	-2.551716939	 3.2547693815	 1.637574644	-0.252876
H	-2.1944501538	 3.136607695	 2.5868224625	 0.314686
H	-3.0866565945	 4.1254487246	 1.6214038418	 0.304545
C	-3.4303466253	 2.0532587914	 1.2688931168	-0.232567
C	-2.4563404373	 1.0553801753	 0.6321591625	-0.279318
H	-0.9001433897	 3.4472635866	-1.4077684133	 0.169814
H	-2.7145753493	 3.2755304887	-1.1095777772	 0.094993
H	-0.5110398563	 3.7686767399	 1.0760083032	 0.15005
H	-3.9426009508	 1.7174134295	 2.1726508284	 0.149993
H	-4.1727341638	 2.4274198217	 0.562977578	 0.158215
H	-2.9761216942	 0.4532550446	-0.1177247357	 0.133461
H	-2.0120631819	 0.3668559878	 1.3555099094	 0.152242
65.2256	137.6413	191.6263	227.365	302.8533	378.0488	427.0512	486.1245	626.2079	652.7601	754.5811	770.2299	793.2155	821.0241	854.3136	878.7017	891.7314	925.6614	956.2595	978.8764	1033.2008	1065.0522	1070.5817	1100.7266	1176.1448	1183.6529	1223.4011	1261.8785	1271.6998	1302.6834	1318.7187	1342.4373	1377.2212	1388.5943	1455.9173	1494.825	1509.3696	1640.4618	1794.2413	3073.6474	3087.9842	3109.95	3117.0219	3147.9906	3208.4276	3215.2867	3429.5298	3494.0467
[O-]C(=O)C12CC1[NH2+]CC2	[O]C(=O)[C@]12C[C@H]1[NH2]CC2	
InChI=1S/C6H9NO2/c8-5(9)6-1-2-7-4(6)3-6/h4,7H,1-3H2,(H,8,9)	InChI=1S/C6H9NO2/c8-5(9)6-1-2-7-4(6)3-6/h4H,1-3,7H2/t4-,6-/m1/s1
