21
gdb 117794	2.18809	1.03377	0.95586	0.64	80.91	-0.2576	0.0394	0.2969	1396.767	0.177975	-424.173502	-424.162246	-424.161302	-424.209809	40.397	
C	-0.1006608811	 1.3843555377	-0.0560636942	-0.250876
O	 0.0009324871	-0.0263730498	-0.0120926062	-0.26493
C	 0.6774943583	-0.5935434176	 1.116590653	 0.138284
C	 0.4715924466	-2.1090806946	 0.9575623397	-0.414119
C	 2.1777939663	-0.2079448297	 1.1400939979	-0.196414
C	 2.937487022	-0.551741259	-0.1375064057	-0.097757
O	 4.2346144004	 0.0163308098	-0.0106399533	-0.424916
C	 0.0571547293	-0.152748859	 2.3799125215	 0.3425
C	-0.4397652924	 0.199948085	 3.4163666686	-0.476116
H	 0.8729994936	 1.8719033665	-0.2033272607	 0.110454
H	-0.7376218005	 1.617156135	-0.9128233683	 0.126255
H	-0.5628704356	 1.7878197005	 0.8536145766	 0.122101
H	 0.8474989841	-2.4355546711	-0.0146096663	 0.125597
H	 0.9934589633	-2.6535287189	 1.7481393078	 0.123112
H	-0.5936432411	-2.3419254105	 1.0108412966	 0.132706
H	 2.2763925695	 0.8676488056	 1.315413772	 0.116922
H	 2.652324873	-0.7008184412	 1.9945831409	 0.114971
H	 2.9987856711	-1.6424275482	-0.2682527734	 0.088292
H	 2.4017797841	-0.1467036091	-1.0079225462	 0.101865
H	 4.7288142578	-0.1891596309	-0.8094686973	 0.285084
H	-0.8825121857	 0.5085942694	 4.3313199672	 0.196983
68.1485	93.7173	116.4544	120.2002	168.4126	212.4895	241.8186	246.4651	270.3346	287.7759	342.5678	372.2088	435.3463	453.262	577.6493	593.4514	625.9121	667.4011	744.0301	792.7407	885.6385	934.9334	991.722	1026.4088	1069.2393	1109.313	1163.5031	1177.077	1180.4009	1182.7914	1229.8182	1244.2079	1267.1653	1316.9707	1344.309	1403.3537	1457.038	1472.6136	1477.2688	1484.0198	1495.0784	1504.7197	1510.8817	1534.7483	2227.1901	2985.7421	2999.859	3018.2945	3055.5859	3058.1103	3061.6109	3099.0488	3116.4224	3136.7698	3140.3146	3499.0157	3830.2107
COC(C)(CCO)C#C	CO[C@@](C)(CCO)C#C	
InChI=1S/C7H12O2/c1-4-7(2,9-3)5-6-8/h1,8H,5-6H2,2-3H3	InChI=1S/C7H12O2/c1-4-7(2,9-3)5-6-8/h1,8H,5-6H2,2-3H3/t7-/m1/s1
