20
gdb 107165	4.21138	1.02547	0.9618	1.6013	79.86	-0.2347	0.0632	0.2979	1291.5689	0.170565	-403.081459	-403.072828	-403.071884	-403.114798	33.456	
O	 0.2798257821	 1.2690073323	 0.1091870197	-0.412058
C	 0.0090965829	-0.0935199631	-0.194115523	-0.168413
C	-1.4512343199	-0.4186144732	-0.0676536938	 0.315436
C	-2.0648974382	-0.944238785	 1.1737308159	-0.288767
N	-1.9576090385	-1.852557769	 0.0089969264	-0.204132
C	-3.0621447784	-1.4379592831	-0.9023614118	 0.403736
C	-3.5727022875	-2.366944107	-1.9490306576	-0.339867
C	-4.4581369274	-1.9618565921	-0.7827037896	-0.325346
C	-2.5362371155	-0.0091242778	-1.0691960322	-0.396528
H	-0.0166271322	 1.4276574527	 1.0116927019	 0.282354
H	 0.3418122494	-0.2368939212	-1.227673203	 0.113785
H	 0.5902674106	-0.7827299502	 0.437849124	 0.096899
H	-1.4007516399	-1.226025269	 1.9863036353	 0.115043
H	-3.052242595	-0.6093841526	 1.4837109828	 0.115682
H	-3.7951180458	-1.9650070955	-2.932325986	 0.113034
H	-3.1728011745	-3.3751637317	-1.9466711588	 0.125685
H	-4.6510564741	-2.7058517569	-0.0166772126	 0.120528
H	-5.2834385879	-1.2830116012	-0.9722928152	 0.113891
H	-3.187699616	 0.8191136766	-0.7759041931	 0.103916
H	-2.1380487341	 0.1878099471	-2.0678748793	 0.115122
69.8699	98.412	190.778	249.3959	284.1031	316.196	354.8914	395.3108	413.6331	505.5962	579.1201	705.7101	767.3546	806.4131	814.5027	854.9415	873.525	922.6667	946.0066	953.5318	971.0254	998.5386	1046.8491	1058.1483	1073.2005	1076.2271	1116.311	1118.3192	1168.115	1178.5475	1187.434	1223.4857	1235.8907	1314.7052	1349.6678	1380.6569	1391.8032	1425.5303	1452.6084	1485.3314	1492.7032	1501.4961	1513.5986	2988.7983	3052.481	3072.7595	3102.4004	3104.7468	3125.4272	3129.4811	3191.9615	3207.6521	3222.7152	3808.7999
OCC12CN1C1(CC1)C2	OC[C@]12CN1C1(CC1)C2	
InChI=1S/C7H11NO/c9-5-7-3-6(1-2-6)8(7)4-7/h9H,1-5H2	InChI=1S/C7H11NO/c9-5-7-3-6(1-2-6)8(7)4-7/h9H,1-5H2/t7-,8?/m0/s1
