20
gdb 72701	2.62209	1.94992	1.59612	1.3803	77.61	-0.2334	0.0795	0.3129	934.8304	0.173082	-403.053066	-403.045975	-403.04503	-403.083891	30.231	
C	-0.0748867123	 1.4617714151	 0.1139705691	-0.450296
C	-0.02241223	-0.0666636059	 0.0141934262	 0.278081
C	 1.2706059351	-0.4401259638	-0.7871902067	-0.202601
O	 2.013349877	-0.5441906745	 0.4795687909	-0.366867
C	 0.7458319133	-0.7789793277	 1.1193155931	 0.405415
C	-0.1318443214	-0.5234083081	 2.3701567178	-0.266588
N	-1.1114170128	-1.4458162615	 1.6161703303	-0.129823
C	 0.1234350532	-2.1898060288	 1.168530304	-0.239082
C	-1.3991512229	-0.7365191891	 0.3000202499	-0.270329
H	 0.9152502186	 1.8736769127	 0.3329129348	 0.13311
H	-0.4131142602	 1.8826930627	-0.8402531242	 0.115786
H	-0.7682620543	 1.8121176064	 0.8836328118	 0.114779
H	 1.2608412748	-1.3983892348	-1.3174057736	 0.105791
H	 1.6893690557	 0.3417866467	-1.4250902637	 0.110864
H	 0.1658641699	-1.0291458176	 3.2895691093	 0.118795
H	-0.4861043374	 0.4865299476	 2.5779865391	 0.112008
H	 0.0059572197	-2.7756591172	 0.2538551894	 0.100972
H	 0.5195286384	-2.8126903181	 1.9731821577	 0.107585
H	-2.1922514917	 0.0023001487	 0.4335711034	 0.107882
H	-1.7430410826	-1.485456183	-0.4164285086	 0.114519
209.277	246.8733	270.2951	337.2489	385.5879	433.2313	478.8495	521.9647	552.9289	605.8671	719.3752	784.6464	806.8757	832.2525	847.9911	889.9111	931.7861	938.8491	952.2455	974.8405	983.1786	1008.0752	1049.7125	1079.4425	1123.6852	1143.9245	1155.7414	1183.3588	1196.5137	1207.4644	1241.9097	1251.4775	1254.7159	1283.3	1304.177	1333.9325	1410.686	1486.9835	1493.155	1502.7028	1506.1981	1514.5971	1537.0484	3029.2713	3038.601	3063.6326	3072.0868	3084.7116	3093.2559	3106.5338	3112.6912	3120.4692	3128.3324	3151.8951
CC12COC11CN(C1)C2	C[C@@]12CO[C@]31CN(C3)C2	
InChI=1S/C7H11NO/c1-6-2-8-3-7(6,4-8)9-5-6/h2-5H2,1H3	InChI=1S/C7H11NO/c1-6-2-8-3-7(6,4-8)9-5-6/h2-5H2,1H3/t6-/m1/s1
