15
gdb 43585	3.56357	1.25012	1.02283	3.644	69.63	-0.2555	-0.0394	0.2161	1108.5009	0.114113	-416.821127	-416.8137	-416.812756	-416.853385	27.952	
O	 0.0516608845	-0.0000470074	 0.0388576811	-0.311773
C	 0.0039428843	 1.1987678346	-0.0362589547	 0.447449
C	-1.2690780579	 2.0504091447	-0.1651382579	-0.354237
C	-0.8173389905	 3.3161604543	-0.9454723897	-0.158212
C	-1.5669554401	 4.5257716506	-0.6119595726	 0.284993
N	-2.1572897738	 5.4861019921	-0.3582048898	-0.319912
C	 0.6840478536	 3.436386442	-0.6429333278	-0.04593
N	 0.9670552286	 3.3177260701	 0.7817503513	-0.317535
C	 1.1770545599	 2.1361105585	-0.1086226491	-0.168896
H	-2.0639361974	 1.4950902523	-0.6626430033	 0.144802
H	-1.6099029572	 2.3174119909	 0.8389628098	 0.169846
H	-0.933109274	 3.1368041134	-2.0209117066	 0.137263
H	 1.2996803142	 4.0679612079	-1.2734545659	 0.11934
H	 1.8731008851	 3.7305223236	 0.9903056998	 0.253378
H	 2.1743640807	 1.7526982425	-0.2849577446	 0.119422
88.053	132.3222	175.0424	281.881	372.7786	430.8979	485.9379	529.6166	554.5089	630.7585	689.1157	804.4077	817.172	848.8261	885.8664	909.9034	969.9417	1011.8471	1034.0865	1045.7214	1115.0483	1143.2099	1186.7406	1192.1395	1249.1876	1263.2636	1298.6192	1341.813	1358.3568	1403.969	1453.2018	1854.7521	2361.696	3047.6759	3082.267	3147.1168	3179.8505	3202.5573	3509.7391
O=C1CC(C#N)C2NC12	O=C1C[C@@H](C#N)[C@H]2N[C@@H]12	
InChI=1S/C6H6N2O/c7-2-3-1-4(9)6-5(3)8-6/h3,5-6,8H,1H2	InChI=1S/C6H6N2O/c7-2-3-1-4(9)6-5(3)8-6/h3,5-6,8H,1H2/t3-,5+,6-/m0/s1
