20
gdb 59273	2.75688	1.41954	1.28403	1.391	75.11	-0.2094	0.0788	0.2882	1098.4748	0.170506	-440.235319	-440.226478	-440.225534	-440.269065	32.608	
C	 0.1307776533	 1.1361852432	-0.386386237	-0.318596
N	 0.0371488718	-0.2277397354	 0.1137874134	-0.037746
C	 0.7478459555	-0.4285317476	 1.3683085585	-0.318595
C	-1.3072379787	-0.7008490877	 0.1646866987	-0.073655
C	-1.9868413273	-1.2215548197	-1.0951783663	 0.025255
O	-1.1866703342	-1.521564098	-2.2056560082	-0.262022
C	-0.2098645212	-2.4710941771	-1.7996702513	 0.038909
O	-0.6015851279	-3.0050654561	-0.5418860915	-0.262024
C	-1.6076178386	-2.1831078249	-0.016787585	 0.025251
H	 1.1836431806	 1.4158169562	-0.4951346229	 0.116436
H	-0.3451093066	 1.1955697811	-1.3685249179	 0.133858
H	-0.3493991048	 1.8771192583	 0.2802656577	 0.090068
H	 0.3273146259	 0.160886353	 2.2047987968	 0.090068
H	 0.712813391	-1.4867706269	 1.639408317	 0.13386
H	 1.7962253962	-0.1374812766	 1.2469194173	 0.116434
H	-1.9966727576	-0.1961827227	 0.8571219168	 0.066933
H	-2.9945396031	-0.9323707794	-1.3667564251	 0.110298
H	-0.1669724651	-3.2824753118	-2.5382222963	 0.105542
H	 0.7621557971	-1.9760391877	-1.700074717	 0.109429
H	-2.2913539359	-2.7153607302	 0.6328662522	 0.110298
66.4203	133.5619	138.2184	178.1538	238.4913	245.9902	311.942	329.3498	393.3489	603.9453	623.7115	724.2812	772.0442	776.7351	788.0729	902.9868	950.3282	957.5565	1038.4098	1060.5674	1077.1216	1089.8217	1090.9565	1123.5338	1125.1156	1127.6895	1143.0489	1188.8582	1213.5337	1215.6068	1257.9776	1307.4231	1315.7912	1357.2433	1423.7581	1438.3977	1447.1444	1473.5501	1482.5919	1496.386	1498.4073	1513.7246	1533.3344	2927.4968	2935.036	2986.9725	3011.6908	3063.6805	3064.0533	3066.0705	3116.1642	3118.361	3184.9394	3194.0756
CN(C)C1C2OCOC12	CN(C)[C@H]1[C@H]2OCO[C@@H]12	
InChI=1S/C6H11NO2/c1-7(2)4-5-6(4)9-3-8-5/h4-6H,3H2,1-2H3	InChI=1S/C6H11NO2/c1-7(2)4-5-6(4)9-3-8-5/h4-6H,3H2,1-2H3/t4-,5+,6-
