17
gdb 116835	12.87561	0.36367	0.35604	2.7625	94.34	-0.2299	-0.0163	0.2137	2904.2713	0.133298	-421.761912	-421.751106	-421.750162	-421.800126	35.815	
O	-0.0900590701	 1.4488259124	 0.0105335187	-0.411784
C	 0.039835239	 0.0386001948	 0.0017897419	-0.065639
C	-1.3842314116	-0.5334520874	 0.0124499016	-0.356785
C	-1.4053409638	-1.9863574832	 0.0049617523	 0.238882
C	-1.4084077531	-3.1970921409	-0.0014591823	-0.172232
C	-1.4141802641	-4.5567339462	-0.0085567104	-0.216118
C	-1.4245390293	-5.7666714432	-0.015086286	 0.313369
C	-1.3966081817	-7.2212909005	-0.0234885738	-0.244818
O	-2.7252234897	-7.7279500256	-0.0131900522	-0.407543
H	 0.7907444657	 1.8342085065	 0.0040682453	 0.290984
H	 0.5701432208	-0.3187612944	-0.8931947156	 0.102502
H	 0.5872253658	-0.3282011955	 0.8825582869	 0.102502
H	-1.9046309459	-0.1487695941	 0.8984893565	 0.145511
H	-1.921531324	-0.1394560089	-0.859296746	 0.145512
H	-0.845078856	-7.5618708389	-0.9157493633	 0.122026
H	-0.8276139225	-7.5717190365	 0.8538547248	 0.122023
H	-2.6648892096	-8.6888783983	-0.0179197884	 0.291609
20.0821	50.1757	67.9513	116.121	119.6424	210.8692	231.98	246.0244	261.2388	342.5275	393.9751	404.1999	545.1628	592.7124	596.2092	692.7351	794.862	945.6226	1002.4043	1021.7542	1058.4087	1082.4945	1085.55	1221.2073	1233.3576	1242.5681	1242.9698	1279.5234	1303.7216	1339.1024	1455.5766	1460.448	1473.7631	1498.4274	1528.3063	2279.8568	2386.829	2957.9419	2975.6269	2986.7815	3018.2175	3027.5203	3065.8229	3816.3679	3834.6305
OCCC#CC#CCO	OCCC#CC#CCO	
InChI=1S/C7H8O2/c8-6-4-2-1-3-5-7-9/h8-9H,4,6-7H2	InChI=1S/C7H8O2/c8-6-4-2-1-3-5-7-9/h8-9H,4,6-7H2
