20
gdb 119478	4.91993	0.77231	0.74056	1.9524	75.48	-0.2456	0.0655	0.3112	1553.5968	0.170595	-440.23366	-440.224305	-440.223361	-440.268295	34.692	
O	 0.0798680368	 1.4711259465	 0.1585992752	-0.418586
C	 0.0404247315	 0.053243005	 0.1752960179	-0.058147
C	-1.3344892887	-0.5047957245	-0.2122450263	-0.316594
C	-1.357736349	-2.0055085776	-0.2400092565	 0.353794
C	-0.718891812	-2.912158943	-1.3084046874	-0.346018
C	-1.9122917869	-3.9130247616	-1.1039483684	 0.105447
O	-1.6243411709	-5.1982862073	-0.5943002122	-0.432164
C	-2.4895897868	-2.9801193687	-0.0405705339	-0.108774
N	-1.5107271133	-2.73848175	 1.0143198087	-0.36049
H	-0.5229250593	 1.7873568667	 0.8391559182	 0.28149
H	 0.7958572452	-0.2700170792	-0.5496170454	 0.109992
H	 0.3354957773	-0.3497258608	 1.15599103	 0.101205
H	-2.0809446687	-0.1573649964	 0.5129144845	 0.099417
H	-1.6149852852	-0.1024119429	-1.1930759614	 0.103001
H	-0.7054606774	-2.4775311735	-2.3117421353	 0.1055
H	 0.2776146059	-3.2991962765	-1.0697951774	 0.094837
H	-2.5473818528	-3.9679225591	-1.9978951058	 0.075328
H	-1.1618102279	-5.6979119513	-1.2747501917	 0.286413
H	-3.539194469	-2.816913024	 0.1767373469	 0.090106
H	-0.8681070189	-3.5233120718	 1.1078415601	 0.234244
65.4987	88.7354	102.2243	172.6759	264.8432	301.4404	308.041	333.0146	376.4435	420.2706	451.0144	606.0798	708.9153	747.9283	786.3194	821.6694	868.185	943.8597	958.7288	973.594	995.6651	1040.1965	1057.3556	1076.352	1097.6899	1114.7025	1153.6404	1164.4102	1182.6978	1209.6706	1240.0714	1266.5565	1281.974	1307.2793	1312.9199	1342.5148	1394.551	1409.2858	1421.7145	1446.622	1475.2562	1485.2261	1513.3126	2992.6779	3014.5046	3025.5587	3041.0996	3058.5081	3080.8868	3100.9981	3176.9133	3470.563	3815.4841	3816.2148
OCCC12CC(O)C1N2	OCC[C@]12C[C@@H](O)[C@H]1N2	
InChI=1S/C6H11NO2/c8-2-1-6-3-4(9)5(6)7-6/h4-5,7-9H,1-3H2	InChI=1S/C6H11NO2/c8-2-1-6-3-4(9)5(6)7-6/h4-5,7-9H,1-3H2/t4-,5-,6+/m1/s1
