19
gdb 107276	2.93559	1.59964	1.31848	1.6125	74.05	-0.2485	0.0601	0.3085	1017.3568	0.160523	-422.97246	-422.964893	-422.963949	-423.004538	30.258	
O	 0.0752049107	 1.250703277	 0.5895816185	-0.417025
C	-0.0617084593	 0.0303587467	-0.1266007087	-0.19575
C	-1.4795237459	-0.4376715469	 0.0200320439	 0.438405
O	-1.9356383174	-1.3783210204	-0.9698127154	-0.309278
C	-2.6120133208	-0.1113678424	-0.8470837859	-0.017679
C	-3.7714908023	-0.0671976911	 0.1721404042	-0.079757
C	-3.4838787279	-1.3114716502	 1.0588009994	-0.219717
C	-2.184927839	-0.5293990246	 1.3967602981	-0.100988
C	-3.0734943637	 0.7617829261	 1.3100737141	-0.217875
H	 1.0100498727	 1.4716254983	 0.6290850213	 0.292479
H	 0.1626922513	 0.1485476264	-1.1968996297	 0.099622
H	 0.6193461806	-0.7392496822	 0.2712834778	 0.094323
H	-2.5696083269	 0.53904461	-1.7146039392	 0.098104
H	-4.7684137266	 0.1689341565	-0.1989151697	 0.062768
H	-4.1595922835	-1.3571481878	 1.9146955583	 0.092775
H	-3.3949440803	-2.282046571	 0.5744381862	 0.114808
H	-1.5688838433	-0.7563646276	 2.2661718934	 0.060079
H	-2.5731154814	 1.6929605508	 1.0354999174	 0.111888
H	-3.7102318869	 0.9075111526	 2.1867803459	 0.092816
78.3685	154.6126	221.5317	274.2869	364.2239	409.1764	511.5148	512.7715	580.9143	610.9202	721.5017	825.57	844.3448	847.0658	869.2	888.6975	924.2482	932.8928	992.3973	1009.05	1024.8475	1033.2262	1067.4363	1076.9378	1089.0776	1103.9123	1125.709	1185.0761	1220.5211	1226.695	1236.2324	1246.3802	1257.5871	1282.7601	1303.4293	1314.9913	1431.9183	1479.4763	1486.9468	1516.1031	1519.3156	2971.0179	3011.838	3060.7185	3085.3775	3118.1457	3122.2639	3126.92	3157.128	3171.3729	3834.9332
OCC12OC1C1CC2C1	OC[C@]12O[C@H]1[C@H]1C[C@@H]2C1	
InChI=1S/C7H10O2/c8-3-7-5-1-4(2-5)6(7)9-7/h4-6,8H,1-3H2	InChI=1S/C7H10O2/c8-3-7-5-1-4(2-5)6(7)9-7/h4-6,8H,1-3H2/t4-,5+,6-,7+/m0/s1
