19
gdb 30645	3.76048	1.00215	0.844	2.6182	77.64	-0.2162	0.0343	0.2505	1365.3537	0.160657	-419.246272	-419.237291	-419.236347	-419.280887	33.216	
C	-0.19510106	 1.5932135281	-0.0818785657	-0.419417
C	-0.0588214168	 0.0671554383	-0.0721612134	-0.106274
C	-1.4393591838	-0.614945966	 0.0635374308	-0.067817
O	-2.1208017279	-0.235092531	 1.2486527511	-0.418507
C	 0.6614231353	-0.4854252393	-1.2692776111	 0.350564
N	 1.0117264034	-1.7466610456	-1.4263172682	-0.312134
C	 1.619122119	-1.819356905	-2.6576858523	-0.089143
C	 1.6395862308	-0.5895565338	-3.2576436142	-0.118442
N	 1.0220363752	 0.255018353	-2.3604428571	-0.283898
H	 0.779572065	 2.0913570048	-0.0687851842	 0.114057
H	-0.7509688351	 1.9372187098	-0.9633132141	 0.109944
H	-0.7592103038	 1.9129495055	 0.7964282864	 0.140317
H	 0.5246436554	-0.2258944351	 0.8121783697	 0.093952
H	-2.0836705538	-0.3033702695	-0.7668552769	 0.108095
H	-1.3083089436	-1.7015327926	-0.0056443169	 0.12076
H	-1.6801081406	-0.6621459186	 1.9902119189	 0.284645
H	 2.0079336367	-2.7511625584	-3.0395651	 0.105059
H	 2.022908382	-0.238816711	-4.2011336091	 0.124799
H	 0.8753068025	 1.2424744266	-2.4810373437	 0.263443
27.8305	112.6832	131.5458	233.3475	257.1386	287.5941	310.7694	367.7533	412.3141	475.9525	553.2021	647.3614	697.8919	722.8506	767.2734	857.2919	881.7358	910.892	929.9726	979.5305	1037.2746	1058.8203	1096.6031	1110.9569	1123.7354	1142.4999	1186.7063	1225.7599	1276.3541	1305.5478	1348.6795	1382.6512	1396.7767	1402.7486	1416.3515	1460.3717	1494.6145	1503.7194	1509.3285	1513.7636	1581.9532	3004.1477	3025.7095	3029.3536	3078.4114	3091.9146	3132.6812	3247.0445	3280.9243	3673.4239	3816.3706
CC(CO)C1=NC=CN1	C[C@@H](CO)c1ncc[nH]1	
InChI=1S/C6H10N2O/c1-5(4-9)6-7-2-3-8-6/h2-3,5,9H,4H2,1H3,(H,7,8)	InChI=1S/C6H10N2O/c1-5(4-9)6-7-2-3-8-6/h2-3,5,9H,4H2,1H3,(H,7,8)/t5-/m0/s1
