15
gdb 129910	3.06087	1.4294	1.10133	4.3894	68.36	-0.2221	-0.0541	0.1679	1065.9963	0.113264	-450.124618	-450.116597	-450.115653	-450.157559	29.09	
N	 0.3580104812	 1.4197778991	-0.1006225221	-0.618109
C	 0.0933258209	 0.0563682094	-0.0611057985	 0.323448
C	-1.0598449357	-0.6918407864	 0.0620415607	-0.134206
N	-0.7227800781	-2.0091945608	 0.1266524183	-0.183711
N	 0.5618774568	-2.135588546	 0.0460585625	-0.159339
N	 1.0850382412	-0.8721932854	-0.0594191903	 0.01466
C	 2.5128132642	-0.7080404276	-0.0585329669	-0.251806
C	 3.0904846504	-0.0068109267	-1.27226166	 0.164107
O	 2.4525729864	 0.6266005706	-2.0735843761	-0.235408
H	 0.9176002309	 1.6696275891	-0.9105023016	 0.273333
H	-0.4917976134	 1.9673811842	-0.0797746228	 0.257101
H	-2.0844057315	-0.3588598787	 0.0977203226	 0.113241
H	 2.8454937441	-0.1362528339	 0.8226385143	 0.16054
H	 2.9472838526	-1.7086828926	 0.0286092342	 0.170563
H	 4.1957848098	-0.0936370143	-1.3503397744	 0.105588
73.2076	141.2902	153.3639	240.6671	259.9255	317.6795	346.3093	431.1749	606.9653	660.2048	693.4879	714.087	730.0748	791.4848	821.0163	834.0537	944.7464	986.301	1031.1384	1110.1415	1131.6763	1177.3937	1272.2635	1300.5453	1326.1361	1363.0336	1386.2028	1414.7887	1434.809	1520.0059	1608.0451	1656.7912	1832.5783	2907.3881	2998.2376	3098.9253	3267.3526	3511.5118	3622.1685
NC1=CN=NN1CC=O	Nc1cnnn1CC=O	
InChI=1S/C4H6N4O/c5-4-3-6-7-8(4)1-2-9/h2-3H,1,5H2	InChI=1S/C4H6N4O/c5-4-3-6-7-8(4)1-2-9/h2-3H,1,5H2
