22
gdb 59267	2.67679	1.35131	1.20939	0.6901	82.15	-0.2205	0.0811	0.3016	1174.0066	0.194429	-404.326686	-404.317709	-404.316765	-404.360184	34.384	
C	-0.3111735174	 1.4545314521	-0.1027738419	-0.382242
C	 0.1618759667	 0.0434249922	 0.2557635559	 0.064612
C	 0.5003013146	-0.0690599662	 1.7445014127	-0.382242
N	-0.9320606734	-0.8940979707	-0.0369548098	-0.089759
C	-1.2082740868	-1.4126631957	-1.3669342374	-0.05839
C	-0.1110892462	-1.4157326007	-2.4172137566	-0.109633
O	 1.042938617	-1.9759170836	-1.7964778444	-0.249961
C	 0.6343599696	-2.8154813642	-0.7198642989	-0.109632
C	-0.7282096229	-2.3140909994	-0.2738527653	-0.058391
H	 0.470217522	 2.1887876876	 0.1167194898	 0.110085
H	-0.5580369138	 1.5332335174	-1.1661590639	 0.109795
H	-1.2062107326	 1.7150243278	 0.4713289835	 0.119764
H	 1.0649274762	-0.1828736446	-0.3275758295	 0.092113
H	 0.8335900016	-1.0793855951	 2.0015626178	 0.109795
H	 1.3017167138	 0.6275431834	 2.0097571717	 0.110087
H	-0.3788539195	 0.1614805145	 2.3548139849	 0.119765
H	-2.2413383333	-1.3736592485	-1.7028142748	 0.092737
H	-0.4395123842	-2.0200944702	-3.2787406734	 0.096486
H	 0.168734574	-0.4231849027	-2.7872498871	 0.112893
H	 0.5438476337	-3.8666242748	-1.0396329078	 0.096484
H	 1.413971077	-2.7613951633	 0.0480286468	 0.112895
H	-1.3758979762	-2.9987260852	 0.2677480176	 0.092737
75.9723	147.5922	175.8134	210.642	227.6629	247.1964	300.6433	331.6354	407.5905	510.1096	512.096	691.5944	739.7485	776.2959	827.9489	879.1878	895.9033	923.7813	933.6075	957.563	983.8796	993.1576	1030.0209	1043.8253	1101.9089	1113.8435	1134.3056	1154.3987	1155.7375	1193.6025	1224.9985	1244.615	1306.3677	1312.0779	1350.9049	1363.466	1369.5296	1380.8556	1398.294	1415.0982	1435.5115	1482.2739	1486.6102	1494.0936	1509.5587	1509.7655	1521.4194	2969.0748	2975.5982	3009.4726	3033.1836	3037.3622	3059.2867	3062.4964	3104.7531	3107.2665	3107.3611	3114.2336	3135.9766	3145.8499
CC(C)N1C2COCC12	CC(C)N1[C@H]2COC[C@@H]12	
InChI=1S/C7H13NO/c1-5(2)8-6-3-9-4-7(6)8/h5-7H,3-4H2,1-2H3	InChI=1S/C7H13NO/c1-5(2)8-6-3-9-4-7(6)8/h5-7H,3-4H2,1-2H3/t6-,7+,8?
