25
gdb 123152	5.61769	0.48414	0.4606	0.2004	88.15	-0.2502	0.0854	0.3356	2481.0451	0.225477	-426.614478	-426.602446	-426.601502	-426.653334	41.246	
C	 0.9507143115	 1.6735605395	-0.3216468806	-0.224459
O	 1.0280359168	 0.2761262549	-0.1816437542	-0.232359
C	-0.1178320423	-0.3871729983	-0.6622260408	-0.068953
C	 0.0901031332	-1.8796125807	-0.4552171525	-0.068559
O	-1.057640178	-2.5422208317	-0.930551387	-0.253729
C	-0.9928481363	-3.9471914364	-0.797591973	-0.034715
C	-2.297843791	-4.5627009205	-1.301032885	 0.020581
C	-2.1985110997	-6.0928214369	-1.2933130433	-0.392714
C	-3.4970988931	-4.0674949182	-0.4835177423	-0.379195
H	 0.8482743665	 1.9740371999	-1.3766568847	 0.104056
H	 0.0992161822	 2.0940333847	 0.2368971853	 0.10406
H	 1.8768310568	 2.0950744435	 0.0768613457	 0.126266
H	-1.0230580688	-0.0609914339	-0.1241743687	 0.093559
H	-0.2796123742	-0.1797192561	-1.7327088677	 0.093775
H	 0.9929859498	-2.2061078424	-0.9963615595	 0.094328
H	 0.2561506199	-2.0853054571	 0.6146430929	 0.094987
H	-0.137421137	-4.3424271267	-1.3718715304	 0.081338
H	-0.8273030706	-4.2228088297	 0.2596377434	 0.08064
H	-2.4254821789	-4.2264106032	-2.338804891	 0.08173
H	-2.0518404522	-6.4733012806	-0.2752731882	 0.113205
H	-3.1154045861	-6.5448491209	-1.684008597	 0.114342
H	-1.3628789077	-6.4473678829	-1.9063307502	 0.111167
H	-3.537077747	-2.9759323676	-0.4771512768	 0.128097
H	-4.4377401109	-4.4473604999	-0.8951429792	 0.106497
H	-3.4266302029	-4.4096280888	 0.5564447449	 0.106055
36.6489	54.4314	78.4941	96.497	129.7999	150.1355	199.5699	217.1235	236.3776	245.1995	267.1993	340.9888	383.6552	422.1623	502.2924	525.1193	833.597	835.9979	921.9914	931.983	961.1486	976.1795	989.5823	1040.9104	1091.2811	1154.7036	1162.4121	1168.4094	1175.2085	1186.9018	1199.0725	1201.6828	1233.2221	1234.5908	1275.6705	1289.8356	1326.7758	1357.611	1373.8161	1398.5664	1409.2726	1424.5513	1457.4921	1483.4549	1485.7277	1488.9219	1490.1305	1503.8466	1504.8412	1510.2155	1513.9546	1531.1	1537.8427	2939.4155	2960.2694	2968.8736	2971.6356	2974.2725	2985.681	3011.6213	3013.7693	3019.4337	3024.5784	3030.5195	3088.0906	3093.7954	3102.8114	3113.0797	3126.8622
COCCOCC(C)C	COCCOCC(C)C	
InChI=1S/C7H16O2/c1-7(2)6-9-5-4-8-3/h7H,4-6H2,1-3H3	InChI=1S/C7H16O2/c1-7(2)6-9-5-4-8-3/h7H,4-6H2,1-3H3
