18
gdb 51233	3.54303	1.12818	0.98795	3.0665	74.	-0.2537	0.0121	0.2658	1224.5932	0.147053	-439.040558	-439.032119	-439.031175	-439.074846	30.617	
N	-0.1107542257	 1.2819684727	-0.1649968613	-0.439044
C	-0.0555161616	 0.0250988312	-0.077792923	 0.104487
O	-1.197386045	-0.6973331754	-0.0389803835	-0.232839
C	-1.0476846244	-2.0918414214	 0.0606341026	 0.363318
C	-0.5035890909	-2.8727899354	-1.1679555332	-0.297439
C	-1.7505361849	-3.8144227815	-1.1064622283	-0.232965
C	-2.2796130112	-3.0274768291	 0.1161000859	 0.052036
O	-1.8352510337	-3.5867168806	 1.3703188885	-0.286642
C	-0.705693889	-2.687269034	 1.4415890529	-0.125182
H	 0.8294749928	 1.671670338	-0.1815429171	 0.231497
H	 0.8550605982	-0.5871166573	-0.0275006545	 0.0907
H	-0.4848166538	-2.249488313	-2.0643895882	 0.123222
H	 0.4751576495	-3.3420995392	-1.0416087236	 0.105285
H	-2.3899413687	-3.7449356997	-1.9893480794	 0.1139
H	-1.5516000559	-4.8645798047	-0.88751271	 0.119262
H	-3.318941028	-2.6944291037	 0.1407652206	 0.093283
H	 0.24882975	-3.2186225951	 1.5398822883	 0.101907
H	-0.8146034178	-1.9643842519	 2.2596690132	 0.115214
46.153	78.9332	104.4979	150.9398	291.0747	338.6886	390.6575	435.1197	490.7681	663.5191	736.9526	746.9584	822.4346	863.9872	877.7868	926.6753	943.6294	975.7862	1004.2923	1028.3984	1045.3109	1051.8847	1112.4724	1140.8985	1147.7801	1187.2072	1203.1276	1224.1297	1246.2369	1272.8455	1282.1511	1288.6462	1314.5088	1370.8558	1422.2252	1463.1384	1481.8294	1514.8596	1746.5614	3012.5466	3025.7572	3063.4118	3065.4829	3073.7432	3098.4773	3118.2672	3139.1613	3518.2279
N=COC12CCC1OC2	[NH][CH]O[C@]12CC[C@H]1OC2	
InChI=1S/C6H9NO2/c7-4-9-6-2-1-5(6)8-3-6/h4-5,7H,1-3H2	InChI=1S/C6H9NO2/c7-4-9-6-2-1-5(6)8-3-6/h4-5,7H,1-3H2/t5-,6+/m1/s1
