16
gdb 84486	3.19427	1.52029	1.11311	3.9245	73.	-0.2184	-0.03	0.1884	1069.8789	0.123922	-437.901114	-437.892976	-437.892032	-437.933918	29.925	
C	 0.0497483898	 1.4491196418	 0.0201455744	-0.352822
N	 0.0146360347	 0.004468989	-0.0185786822	-0.113978
C	 0.0780643453	-0.7943439311	-1.1746912974	-0.028184
C	 0.0716388072	-2.1040639356	-0.891793645	-0.289541
C	-0.0172776217	-2.226418387	 0.5802311779	 0.323299
C	-0.6711098644	-3.2937922248	 1.3632687022	-0.224523
O	 0.7432857064	-3.1898682568	 1.317435843	-0.258035
C	-0.0226703739	-0.7945946903	 1.1110689338	 0.365188
O	-0.066344998	-0.4218810574	 2.2611244583	-0.379035
H	 0.9733846331	 1.8384568375	-0.4227335419	 0.13514
H	-0.8059479833	 1.8821687558	-0.5093667664	 0.133585
H	 0.0063279285	 1.7435865811	 1.0702164368	 0.171386
H	 0.1181119681	-0.3068692749	-2.1389548756	 0.136254
H	 0.1145856251	-2.9224456536	-1.5921583561	 0.122569
H	-1.128182561	-3.023438394	 2.3139195371	 0.138248
H	-1.103533696	-4.1430818195	 0.8361178211	 0.12045
94.4713	125.5876	161.1855	244.475	271.8982	295.9395	300.5895	482.3416	532.9147	582.9993	686.1279	713.3839	746.9769	756.9919	878.5265	899.8595	916.6331	967.0488	983.8995	1059.9295	1114.5991	1133.7553	1155.3991	1168.2082	1208.3607	1295.3718	1332.4416	1381.777	1429.048	1461.7471	1494.3282	1508.7609	1511.7848	1654.9579	1827.273	3026.5732	3082.0559	3082.5705	3144.4291	3181.0809	3231.9332	3267.4334
CN1C=CC2(CO2)C1=O	CN1C=C[C@]2(CO2)C1=O	
InChI=1S/C6H7NO2/c1-7-3-2-6(4-9-6)5(7)8/h2-3H,4H2,1H3	InChI=1S/C6H7NO2/c1-7-3-2-6(4-9-6)5(7)8/h2-3H,4H2,1H3/t6-/m0/s1
