19
gdb 105119	2.35355	1.20396	0.95441	0.464	90.44	-0.2379	0.0242	0.2621	1308.8778	0.1558	-348.681697	-348.671766	-348.670822	-348.71621	37.356	
C	 0.0701679414	 1.5278230753	-0.3170985651	-0.382907
C	-0.0235953566	 0.0917922593	 0.2069615434	-0.25025
C	-1.4277175415	-0.4931084846	 0.0873838325	 0.127823
C	-1.857582468	-1.0874627608	-1.2380649547	-0.309061
C	-1.6005288263	-2.0214092816	-0.0739737988	-0.265209
C	-0.4667017864	-2.8961323421	-0.0618362424	 0.325885
C	 0.4751682244	-3.6448772643	-0.0434839715	-0.43796
C	-2.4381482636	 0.1592507894	 0.8781681588	 0.283655
C	-3.2693980889	 0.7116827704	 1.5503865773	-0.449375
H	 1.0867670245	 1.9155034054	-0.2022355293	 0.113337
H	-0.1922444128	 1.5795309214	-1.3791279261	 0.115057
H	-0.6095247444	 2.1897394618	 0.2276322453	 0.130969
H	 0.6689840432	-0.5569247425	-0.337872291	 0.111696
H	 0.2816173851	 0.0574050368	 1.2590617922	 0.110768
H	-2.8850465255	-0.9535403108	-1.5537948434	 0.129303
H	-1.1226402778	-1.0810912651	-2.0351385151	 0.128702
H	-2.4865440524	-2.419498756	 0.4102279857	 0.12736
H	 1.3058066326	-4.3058644318	-0.0264575401	 0.196375
H	-4.005053057	 1.1982529197	 2.1414403224	 0.193831
90.8799	106.1039	121.8095	151.1794	213.7715	251.1304	256.5244	342.0967	379.7964	470.712	520.1621	547.2639	583.6425	588.4205	624.7762	649.1375	652.7964	664.2694	784.8731	805.7414	869.2042	914.0972	965.3955	1013.1233	1020.064	1077.268	1094.428	1114.9547	1134.3881	1243.7247	1277.8181	1320.7092	1363.2215	1394.9671	1411.12	1473.941	1488.3981	1497.3185	1509.2097	2229.6627	2235.0797	3037.4683	3042.7632	3084.1472	3107.118	3116.4964	3142.6447	3160.0882	3237.7636	3502.3411	3504.4633
CCC1(CC1C#C)C#C	CC[C@]1(C[C@H]1C#C)C#C	
InChI=1S/C9H10/c1-4-8-7-9(8,5-2)6-3/h1-2,8H,6-7H2,3H3	InChI=1S/C9H10/c1-4-8-7-9(8,5-2)6-3/h1-2,8H,6-7H2,3H3/t8-,9+/m1/s1
