21
gdb 105614	1.98956	1.33801	1.1943	1.505	84.74	-0.2548	0.0417	0.2965	1222.6318	0.180822	-387.046925	-387.037088	-387.036143	-387.081123	37.467	
C	-0.6993381452	 1.1919014412	-0.0455251753	-0.420947
C	 0.1704263127	-0.0536569911	-0.1288874651	 0.011368
C	 1.5999323886	 0.0346063245	-0.7288275598	-0.246883
C	 2.0826167116	-0.9884939571	 0.3310883701	-0.251805
C	 0.7995532648	-0.6825343397	 1.1756529263	 0.090668
C	 1.0955729701	 0.343344416	 2.2891221528	-0.104928
O	 1.9224880738	-0.1966091905	 3.3006188968	-0.424475
C	 0.1026758646	-1.8190212932	 1.7543508485	 0.239538
C	-0.4659032846	-2.748937461	 2.2671248262	-0.447965
H	-0.1816848255	 2.0256422431	 0.4392383631	 0.11817
H	-0.9811883427	 1.5230880698	-1.0511797381	 0.118046
H	-1.6239294319	 0.9991894603	 0.5092767023	 0.123183
H	-0.3838679252	-0.8478808294	-0.638863806	 0.084237
H	 1.7141811813	-0.2398198126	-1.7796165746	 0.09993
H	 2.0439380604	 1.0241133918	-0.5834433716	 0.103227
H	 2.0789344662	-2.0120800785	-0.0486499692	 0.109304
H	 3.0277202375	-0.801015102	 0.8436607939	 0.119219
H	 1.6444908359	 1.1940706292	 1.8740039467	 0.106026
H	 0.1482448293	 0.7217973284	 2.701098273	 0.094239
H	 1.4797224477	-0.9870327268	 3.6331521159	 0.285747
H	-0.9740127392	-3.5781050524	 2.694098424	 0.1941
100.3847	120.258	143.1695	178.1917	196.3653	236.4372	283.4395	327.0618	389.0512	433.1477	465.4837	522.1535	546.3165	605.3824	619.277	638.6632	709.3607	793.6336	890.3082	891.9018	921.9088	950.2562	961.4944	1027.0111	1058.3682	1083.4276	1129.231	1143.6262	1168.2733	1192.0796	1229.6412	1252.6632	1265.7157	1268.6164	1320.2412	1375.1316	1378.7937	1412.8459	1428.635	1484.7618	1495.2721	1496.2605	1501.8817	1510.859	2217.6394	2992.0413	3030.8878	3050.3685	3056.6124	3075.859	3081.0297	3093.7475	3103.5267	3109.747	3134.9719	3499.6092	3778.6483
CC1CCC1(CO)C#C	C[C@H]1CC[C@]1(CO)C#C	
InChI=1S/C8H12O/c1-3-8(6-9)5-4-7(8)2/h1,7,9H,4-6H2,2H3	InChI=1S/C8H12O/c1-3-8(6-9)5-4-7(8)2/h1,7,9H,4-6H2,2H3/t7-,8-/m0/s1
