21
gdb 115651	2.57453	1.3364	1.04686	1.9981	79.2	-0.2397	0.0706	0.3103	1240.2961	0.181735	-424.18754	-424.178464	-424.17752	-424.221919	33.565	
C	-0.0986059168	 1.4235474458	-0.1522126201	-0.239145
O	-0.2312268096	 0.1663932784	 0.4753011277	-0.237206
C	-1.3528723597	-0.5517461339	 0.0475999794	 0.01286
C	-1.2643450295	-1.3229698944	-1.2892681293	-0.115413
O	-1.5750533726	-2.5612195809	-0.619891544	-0.319176
C	-1.4970296484	-1.9527295274	 0.6822143686	 0.427129
C	-0.4316251199	-2.4362646085	 1.6912955206	-0.281837
C	-1.489480862	-2.2588452029	 2.8160498974	-0.212573
C	-2.5944319218	-2.2487941118	 1.7219667941	-0.295815
H	 0.7828930224	 1.9076239448	 0.2740560916	 0.131736
H	 0.0414707688	 1.3283424042	-1.2394083764	 0.111069
H	-0.9789564439	 2.0599782119	 0.0277252526	 0.108234
H	-2.2628020405	 0.0608963931	 0.1368462234	 0.071301
H	-1.9983671649	-1.0791961009	-2.0653842795	 0.100143
H	-0.2549063489	-1.325671388	-1.7212036616	 0.10118
H	-0.2018922533	-3.4891557561	 1.5047721763	 0.108116
H	 0.492996108	-1.8613566479	 1.7513869317	 0.114685
H	-1.5489407634	-3.0390556182	 3.576878889	 0.099463
H	-1.3949275074	-1.2903959657	 3.3133793494	 0.108651
H	-3.4172493982	-1.5334250669	 1.8094830643	 0.092633
H	-3.0084389984	-3.2468446346	 1.5512738448	 0.113964
67.3181	84.1227	111.865	183.117	203.2202	263.8389	317.9087	379.1004	461.1146	496.0936	511.4345	695.1786	777.2186	792.9237	851.9315	900.7765	921.0713	930.4068	965.9523	1015.5816	1020.1853	1039.8171	1054.6162	1127.3751	1150.4657	1163.8639	1177.1169	1184.1595	1192.3297	1203.5196	1238.4602	1243.2485	1255.1625	1272.3079	1282.1094	1316.4655	1336.5029	1401.936	1465.0936	1480.493	1483.2499	1489.3375	1501.7867	1508.4507	1514.1121	2975.6859	2986.553	3011.4158	3026.1631	3051.9154	3066.9502	3067.7399	3069.875	3103.2969	3119.6956	3122.111	3138.7539
COC1COC11CCC1	CO[C@H]1COC21CCC2	
InChI=1S/C7H12O2/c1-8-6-5-9-7(6)3-2-4-7/h6H,2-5H2,1H3	InChI=1S/C7H12O2/c1-8-6-5-9-7(6)3-2-4-7/h6H,2-5H2,1H3/t6-/m0/s1
