20
gdb 13418	5.68656	0.94945	0.85403	1.3584	71.09	-0.2398	0.0756	0.3154	1341.6045	0.177566	-386.139147	-386.130259	-386.129315	-386.174101	31.15	
O	-0.0249101812	 1.4467578685	 0.2221753729	-0.419721
C	 0.0558617855	 0.0424332987	 0.0329229588	-0.078508
C	-1.3661752465	-0.5076236583	 0.0320395094	-0.195104
C	-1.4346165498	-2.0291099596	-0.094516363	 0.002607
C	-2.8590155947	-2.6103079998	-0.0688818467	-0.247423
C	-2.6631780476	-3.9856918311	-0.7149378641	-0.067783
O	-1.5494539932	-3.8646313492	-1.6024982434	-0.26462
C	-0.9210047695	-2.5996525562	-1.4264161652	-0.06437
H	 0.8669809787	 1.8054845092	 0.2032576234	 0.285914
H	 0.5574658835	-0.2006616365	-0.9176795667	 0.0899
H	 0.6373499064	-0.4363764159	 0.8386113299	 0.084548
H	-1.8525173917	-0.1880094269	 0.9612434211	 0.106983
H	-1.9233567071	-0.0400950236	-0.7896997644	 0.105029
H	-0.8583832193	-2.4862389906	 0.7219464439	 0.075743
H	-3.283907957	-2.669711579	 0.9364293923	 0.102726
H	-3.5239947832	-1.9877717063	-0.679212438	 0.104807
H	-2.4407996523	-4.7530380907	 0.0412164825	 0.092684
H	-3.5392439379	-4.3195664857	-1.2829302418	 0.100556
H	-1.1855841625	-1.9247000211	-2.2578891519	 0.0859
H	 0.1644503093	-2.7473261858	-1.447402959	 0.100131
32.2197	81.2505	100.644	123.9813	200.6606	267.9235	329.8666	359.2362	449.2994	615.9942	677.8516	794.502	849.5621	889.383	921.3763	957.4578	971.7007	999.46	1016.784	1069.05	1082.5165	1121.2934	1128.8492	1171.8775	1189.3794	1224.4031	1225.9653	1251.1482	1270.088	1297.6209	1312.8869	1331.5571	1347.4498	1367.2763	1383.2375	1414.4177	1464.0121	1488.7209	1494.3444	1521.6563	1527.0116	1534.6759	2957.3124	2959.2476	2984.7734	2992.6628	3007.985	3028.5862	3037.5664	3054.3568	3055.3424	3072.5728	3102.2071	3831.1389
OCCC1CCOC1	OCC[C@H]1CCOC1	
InChI=1S/C6H12O2/c7-3-1-6-2-4-8-5-6/h6-7H,1-5H2	InChI=1S/C6H12O2/c7-3-1-6-2-4-8-5-6/h6-7H,1-5H2/t6-/m0/s1
