17
gdb 7767	3.51469	1.83008	1.25163	3.73	72.25	-0.2212	-0.0497	0.1716	958.0816	0.142859	-363.880907	-363.873488	-363.872544	-363.912479	27.981	
C	 0.0227067703	 1.4825257376	-0.0071405971	-0.31286
N	 0.0218985371	 0.0314671657	-0.0233725018	-0.08027
C	 0.6088735012	-0.5067660258	-1.2374793275	-0.187491
C	 0.659724207	-2.0041949889	-1.2285803537	-0.059142
C	 0.5593861921	-2.7244727208	-0.1066238913	-0.145617
C	 0.490960496	-2.0630368724	 1.208669736	 0.368205
O	 0.4250760696	-2.6776030529	 2.2531908198	-0.326541
C	 0.5976614868	-0.539705215	 1.1852794837	-0.259522
H	 1.0401604747	 1.918753843	 0.0131245217	 0.094411
H	-0.4905344546	 1.8631890736	-0.8963008289	 0.120043
H	-0.5158620983	 1.8408623666	 0.8754195495	 0.125721
H	 0.0137259605	-0.1667315706	-2.095075345	 0.11965
H	 1.6391584117	-0.1240513391	-1.4206665242	 0.095222
H	 0.789658522	-2.490173127	-2.1921671755	 0.11443
H	 0.5750575985	-3.8094445712	-0.104328982	 0.109447
H	 1.6720879089	-0.2820512769	 1.3134945588	 0.095559
H	 0.0729795065	-0.150808826	 2.0621702074	 0.128755
109.635	152.4689	248.551	302.4676	319.3503	336.4871	443.7679	475.326	499.9758	593.7009	705.654	762.4905	846.3318	919.2602	970.359	991.372	1023.1022	1039.0941	1079.6073	1140.7202	1154.3683	1171.0774	1212.9737	1261.9723	1293.4452	1301.373	1365.6216	1399.3966	1415.6089	1457.3432	1470.9633	1482.6061	1498.2173	1505.9189	1688.6708	1787.1004	2844.8906	2867.6459	2924.6947	3031.5043	3059.5637	3089.6354	3105.2979	3163.63	3194.4884
CN1CC=CC(=O)C1	CN1CC=CC(=O)C1	
InChI=1S/C6H9NO/c1-7-4-2-3-6(8)5-7/h2-3H,4-5H2,1H3	InChI=1S/C6H9NO/c1-7-4-2-3-6(8)5-7/h2-3H,4-5H2,1H3
