19
gdb 82132	3.20706	1.10665	0.96327	2.3859	78.	-0.2442	0.0202	0.2644	1274.7587	0.158951	-419.155278	-419.146438	-419.145494	-419.189768	32.339	
C	-0.220290965	 1.6181510401	 0.0818798202	-0.406261
C	 0.0161580208	 0.1205691847	 0.0369600646	 0.019116
C	 1.0363298435	-0.4847306372	-0.9786532756	 0.090942
O	 1.8106155031	 0.4178473502	-1.7571296189	-0.190175
C	 1.5718483991	 0.4823236487	-3.0823841901	 0.122713
N	 2.1585905217	 1.3461834581	-3.789678089	-0.44183
C	 1.7683016181	-1.0642601562	 0.2151574609	-0.057329
C	 2.1236911728	-0.0035531056	 1.1769173038	-0.242732
N	 0.743714747	-0.5148941343	 1.2026644151	-0.13994
H	 0.7067808387	 2.1939996715	 0.0508217348	 0.138045
H	-0.8256506489	 1.9296615679	-0.7756208097	 0.123692
H	-0.7653374173	 1.8796054318	 0.9944695809	 0.130097
H	-0.9421177444	-0.3999936935	-0.0490937551	 0.088203
H	 0.5855644602	-1.2427531848	-1.6271609421	 0.089353
H	 0.8571722146	-0.2757958818	-3.4339099737	 0.085561
H	 1.8832400336	 1.2422388771	-4.7639945956	 0.230012
H	 2.1481803419	-2.0775383634	 0.2852960848	 0.099629
H	 2.6926014329	-0.3077450775	 2.0496777962	 0.12644
H	 2.3366419776	 1.000262834	 0.8245525684	 0.134463
38.2006	106.5313	120.1451	178.1802	212.9997	264.9607	337.9378	415.7921	456.4958	559.0095	656.5332	721.4316	772.6443	776.2259	818.8087	846.157	908.3331	978.0114	990.0567	1018.3779	1043.0494	1061.2873	1090.7047	1101.5936	1110.795	1123.7898	1153.1678	1183.5865	1214.4301	1263.5808	1287.6668	1296.2766	1365.1342	1377.7431	1392.5396	1411.5534	1429.8935	1485.8724	1493.1425	1511.3689	1744.6933	3011.6991	3043.5361	3049.2416	3066.1408	3107.3062	3128.8819	3135.9377	3173.6843	3217.0884	3519.0866
CC1C(OC=N)C2CN12	C[C@H]1[C@@H](O[CH][NH])[C@H]2CN12	
InChI=1S/C6H10N2O/c1-4-6(9-3-7)5-2-8(4)5/h3-7H,2H2,1H3	InChI=1S/C6H10N2O/c1-4-6(9-3-7)5-2-8(4)5/h3-7H,2H2,1H3/t4-,5+,6+,8?/m0/s1
