21
gdb 61915	3.39036	0.72865	0.63091	2.1886	85.33	-0.2581	0.0566	0.3146	1771.7247	0.179604	-387.038517	-387.02817	-387.027225	-387.074763	37.281	
C	 0.0407940647	 1.7972335342	 0.0466413534	-0.404922
C	 0.0376798868	 0.2612150448	 0.0553952595	-0.00776
C	 0.6939873053	-0.3575752229	-1.1926983743	-0.17639
C	-0.0726410745	-0.0869889175	-2.5039429504	-0.371105
C	 0.5400661394	-0.7388283982	-3.6550901511	 0.294339
C	 1.066886137	-1.2840197065	-4.5878860295	-0.434532
C	 0.7400761297	-0.2477360638	 1.2978411909	 0.091124
C	 0.0184813643	-0.6029276444	 2.5254028908	-0.184835
O	 0.5197476289	-1.6150755668	 1.6485199794	-0.243466
H	 1.0637648646	 2.1869093088	-0.0130713384	 0.118869
H	-0.5174143706	 2.19978847	-0.802853	 0.122293
H	-0.415050988	 2.1950487633	 0.9588976511	 0.118174
H	-1.0011686998	-0.0931535378	 0.1060176061	 0.076446
H	 1.7204445952	 0.0164619014	-1.2956017799	 0.104335
H	 0.7669445203	-1.4399776851	-1.0474546104	 0.129671
H	-1.108982823	-0.4346158579	-2.3966201251	 0.129739
H	-0.1320576508	 0.99149926	-2.6942304619	 0.130269
H	 1.5228195472	-1.7637861248	-5.4179253767	 0.192842
H	 1.7816129058	 0.068766959	 1.3988088762	 0.088794
H	 0.5154319092	-0.5328495356	 3.4920596415	 0.114561
H	-1.0666580517	-0.50816138	 2.5549639787	 0.111553
52.3616	72.8808	97.61	104.7874	200.4803	209.2493	248.9779	299.3634	348.1248	378.6048	428.0902	495.122	550.2655	615.932	635.0528	761.8307	808.3467	866.8023	892.1612	952.0119	952.949	964.7431	973.4189	1034.6624	1087.8218	1119.6127	1132.5456	1155.6383	1167.2784	1191.9856	1218.8285	1268.5057	1293.6871	1313.5621	1322.6893	1358.8557	1385.5906	1411.9706	1447.9183	1472.7417	1492.1445	1500.368	1504.0878	1529.7356	2239.1801	3012.8778	3016.4669	3031.8848	3035.1601	3050.8368	3075.2337	3080.8968	3090.2758	3098.0934	3113.352	3165.8061	3507.7625
CC(CCC#C)C1CO1	C[C@@H](CCC#C)[C@H]1CO1	
InChI=1S/C8H12O/c1-3-4-5-7(2)8-6-9-8/h1,7-8H,4-6H2,2H3	InChI=1S/C8H12O/c1-3-4-5-7(2)8-6-9-8/h1,7-8H,4-6H2,2H3/t7-,8+/m0/s1
