20
gdb 69538	3.04128	1.52409	1.37398	1.5769	77.99	-0.2193	0.0774	0.2966	1029.4438	0.172162	-403.100389	-403.092651	-403.091707	-403.131845	32.371	
C	-0.0311724597	 1.451741323	 0.0603196419	-0.49448
C	 0.0561352708	-0.0468277449	-0.0045293928	 0.369306
N	-0.8069877019	-0.8999862768	 0.8558370348	-0.38795
C	 0.6737686706	-0.9347129836	 1.0024008476	-0.185448
C	 1.3937214167	-1.9596580757	 0.0899912605	 0.41663
O	 2.1927440026	-2.9377393094	 0.678365222	-0.487644
C	 0.3317759558	-2.2572286868	-1.010626029	-0.296033
C	 0.5320951822	-0.7454484946	-1.3063830053	-0.096862
C	 2.0397557832	-0.9831342494	-0.9424901624	-0.255181
H	 0.8549686076	 1.916835508	-0.3855403678	 0.126791
H	-0.9070377039	 1.8208187472	-0.4867106966	 0.12507
H	-0.1085669856	 1.802963125	 1.0950819345	 0.113061
H	-1.1820161479	-0.3114729469	 1.5991121886	 0.221168
H	 1.1497571342	-0.5892150079	 1.9143298419	 0.086661
H	 1.6339896262	-3.478246266	 1.2473081797	 0.280607
H	 0.7578279391	-2.880873187	-1.7984650474	 0.09316
H	-0.6563012842	-2.5999967841	-0.7113683578	 0.11902
H	 0.2334167567	-0.3030829975	-2.2559671913	 0.062555
H	 2.615407515	-0.1388334899	-0.5514579131	 0.088803
H	 2.5992254024	-1.5039293724	-1.7227895482	 0.100766
181.2931	219.2931	245.7661	286.9303	316.5841	384.8882	437.819	461.9632	536.3679	544.2635	587.9951	636.9131	721.0535	809.0127	849.2049	868.0742	891.3679	925.2719	943.3119	954.3232	983.3235	1003.4081	1005.7529	1035.8425	1067.0703	1080.7721	1115.2223	1134.2756	1142.3884	1197.137	1224.0991	1230.2541	1245.8315	1263.0921	1316.8395	1337.3059	1366.2067	1413.4301	1435.5738	1473.3094	1484.8188	1500.8082	1517.5792	3021.4839	3054.1628	3082.6295	3087.5527	3094.4375	3119.4229	3124.368	3164.4826	3167.3753	3472.4441	3806.055
CC12NC1C1(O)CC2C1	C[C@]12N[C@H]1[C@@]1(O)C[C@@H]2C1	
InChI=1S/C7H11NO/c1-6-4-2-7(9,3-4)5(6)8-6/h4-5,8-9H,2-3H2,1H3	InChI=1S/C7H11NO/c1-6-4-2-7(9,3-4)5(6)8-6/h4-5,8-9H,2-3H2,1H3/t4-,5-,6-,7-/m1/s1
