21
gdb 38683	2.57365	1.95405	1.68163	0.1583	84.38	-0.2317	0.0203	0.252	936.5585	0.187408	-349.957871	-349.951215	-349.950271	-349.988325	29.24	
C	-0.002914773	 1.5415286684	-0.2146426163	-0.296881
C	 1.2974042792	 0.7969537407	-0.0277627782	-0.003612
C	 2.1533877169	 0.8726733501	 1.2448784104	-0.231031
C	 1.541283008	 0.1222852126	 2.4607702424	-0.044115
C	 0.8711875542	-1.1809212879	 1.9661759087	-0.214159
C	-0.4188408256	-0.5950824604	 1.3423895566	-0.057501
C	-0.7763880093	 0.4510862706	 2.3908265079	-0.080692
C	 0.3278106499	 0.862141277	 3.0121152656	-0.070098
C	-0.0251102256	 0.0468615124	-0.00335558	-0.028135
H	-0.3488489991	 2.1778833934	 0.5914515824	 0.111164
H	-0.2277938492	 1.9155933812	-1.2082884213	 0.098833
H	 1.8852919759	 0.6838143321	-0.9339922553	 0.077827
H	 3.1227655884	 0.4115405427	 1.0208728106	 0.094333
H	 2.3656782864	 1.9154438088	 1.5125254775	 0.094209
H	 2.3185602043	-0.0461914181	 3.212215574	 0.058996
H	 1.4792057012	-1.7368818033	 1.2456044415	 0.086192
H	 0.6351382483	-1.8336452226	 2.8121995699	 0.090231
H	-1.2066498436	-1.3366734011	 1.1861852191	 0.057534
H	-1.7764020218	 0.8478695197	 2.5217189384	 0.090834
H	 0.3948448924	 1.6524786466	 3.7515391005	 0.089001
H	-0.2532873978	-0.5628204531	-0.8726525945	 0.077071
193.3533	250.0012	354.193	404.1918	410.2769	449.5727	583.1937	605.8431	724.1695	747.318	769.7172	794.1061	815.7684	835.2405	873.4297	896.5395	905.4547	948.0208	964.453	973.2133	978.1836	1030.7258	1044.6576	1062.0238	1072.7265	1101.2183	1132.7392	1134.6703	1138.003	1166.6525	1198.6991	1228.1739	1247.1957	1293.8893	1302.6123	1314.574	1328.2755	1338.7104	1376.6362	1383.6163	1406.3317	1476.8184	1490.2704	1492.1984	1670.9264	3017.5982	3043.1858	3050.3213	3059.9475	3067.5848	3095.755	3128.891	3134.0379	3146.8475	3182.5417	3209.3683	3217.8329
C1C2CC3CC(C=C3)C12	C1[C@H]2C[C@@H]3C[C@@H](C=C3)[C@@H]12	
InChI=1S/C9H12/c1-2-7-3-6(1)4-8-5-9(7)8/h1-2,6-9H,3-5H2	InChI=1S/C9H12/c1-2-7-3-6(1)4-8-5-9(7)8/h1-2,6-9H,3-5H2/t6-,7+,8+,9+/m0/s1
