14
gdb 49863	3.56987	1.29378	1.05262	3.8627	61.93	-0.2573	-0.043	0.2143	1073.2221	0.100779	-473.833447	-473.825984	-473.82504	-473.866292	26.984	
O	-0.8289285275	 0.8768006047	 0.2260560362	-0.240969
C	 0.2997681172	 0.7106846788	-0.1500823024	 0.151769
C	 1.3887632214	 1.7603159645	 0.0549462499	 0.029732
O	 2.6783171665	 1.1385321735	-0.0392688571	-0.246434
C	 3.5206776232	 1.8068328705	-0.8925077476	 0.491627
O	 4.6816952848	 1.5490001362	-0.9822837897	-0.33047
C	 2.7225215221	 2.8608463149	-1.6087971029	-0.199895
N	 1.5923000287	 2.2422881612	-2.3544224856	-0.330375
C	 1.363913707	 2.8336640034	-1.0285754354	-0.076639
H	 0.6361899589	-0.1990824718	-0.6867898043	 0.114516
H	 1.2755990701	 2.2047990031	 1.049340778	 0.126115
H	 3.2226678706	 3.7416026937	-1.9884591184	 0.132647
H	 1.287419447	 2.8949243369	-3.0736313632	 0.252253
H	 0.7424104902	 3.7113307203	-0.9044815576	 0.126124
56.5189	104.4519	182.3664	236.8636	336.0654	406.202	478.7206	528.1859	623.2887	743.2874	796.9701	825.2721	857.3517	873.2515	908.9637	914.8379	1023.3159	1029.1375	1068.0445	1088.02	1116.6486	1154.3055	1184.3692	1253.3234	1302.8474	1329.6338	1350.9857	1398.724	1402.2423	1839.1525	1900.8347	2939.8349	3065.2917	3200.0583	3217.0823	3500.2579
O=CC1OC(=O)C2NC12	O=C[C@H]1OC(=O)[C@H]2N[C@@H]12	
InChI=1S/C5H5NO3/c7-1-2-3-4(6-3)5(8)9-2/h1-4,6H	InChI=1S/C5H5NO3/c7-1-2-3-4(6-3)5(8)9-2/h1-4,6H/t2-,3+,4+/m1/s1
