19
gdb 71891	2.33567	1.8449	1.60436	1.2697	74.58	-0.2399	0.0676	0.3075	957.4552	0.158587	-422.983916	-422.97586	-422.974916	-423.015894	31.958	
C	 0.0174366156	 1.5672222274	 0.0581443384	-0.535047
C	 0.0108904876	 0.0687469218	 0.0133941679	 0.277155
C	 0.5772794577	-0.8778347225	-1.0890088866	 0.055595
C	 1.4944767368	-1.5609696324	-0.0451659672	-0.311087
C	 0.6485519313	-0.9074016025	 1.0813506695	 0.342656
O	 1.2987057262	-0.3903481298	 2.2044441418	-0.48094
C	-0.7349322998	-1.5903964557	 1.2589575103	-0.310831
C	-1.2087897166	-0.9014014294	-0.0441571849	 0.055512
O	-0.6885479057	-1.5603878198	-1.2190747087	-0.307075
H	 1.0416427768	 1.9551878092	 0.0690335637	 0.128089
H	-0.4975283312	 1.9916463592	-0.8107587451	 0.123142
H	-0.480653868	 1.9352161442	 0.9615365295	 0.128147
H	 0.988775032	-0.5832060051	-2.0567148391	 0.077697
H	 1.5783925853	-2.650644296	-0.0876338629	 0.095964
H	 2.4893242232	-1.1033261304	-0.0581685549	 0.104551
H	 1.6274109483	-1.1264181868	 2.733071844	 0.278239
H	-0.7918163197	-2.6819144601	 1.2988345872	 0.095883
H	-1.2423653362	-1.1524947874	 2.1250071861	 0.104651
H	-2.2595506436	-0.6260084339	-0.1565693289	 0.077698
175.1488	181.1198	194.0534	206.594	267.5459	345.8433	421.6429	425.4635	432.3527	599.0478	644.1159	649.1029	767.0974	844.3702	853.274	874.7578	876.1832	929.7248	932.8992	962.7999	986.2448	1042.9648	1090.5751	1138.8594	1141.9284	1148.0346	1168.5711	1179.8556	1211.6106	1238.545	1250.8935	1261.3832	1291.8802	1337.2315	1343.4026	1390.9068	1412.6835	1457.1518	1473.9163	1486.6258	1489.8853	3027.2717	3042.3457	3044.2779	3084.135	3088.9589	3094.7858	3095.361	3106.08	3108.7247	3793.2478
CC12C3CC1(O)CC2O3	C[C@@]12[C@H]3C[C@]1(O)C[C@@H]2O3	
InChI=1S/C7H10O2/c1-6-4-2-7(6,8)3-5(6)9-4/h4-5,8H,2-3H2,1H3	InChI=1S/C7H10O2/c1-6-4-2-7(6,8)3-5(6)9-4/h4-5,8H,2-3H2,1H3/t4-,5+,6+,7+
