18
gdb 110817	2.28002	1.45409	1.06756	2.0619	77.67	-0.2326	0.0262	0.2588	1161.0593	0.146554	-401.848231	-401.83942	-401.838476	-401.881824	33.151	
O	-0.0595862204	 0.5819782251	-1.6160989409	-0.422035
C	-0.0148883218	 0.1336132359	-0.2654587825	-0.128222
C	-1.3457240324	-0.5368912396	-0.0154172582	 0.035325
C	-1.6439143315	-1.9713619811	-0.1749782454	-0.031821
C	-0.4889484547	-2.8647736282	 0.2663614925	-0.285528
C	-0.6064396284	-2.1733355393	 1.6592877222	-0.13993
C	 0.5418917302	-1.5387341692	 2.2781537857	 0.361937
C	 1.4917523121	-1.0373008631	 2.8200618082	-0.46792
N	-1.7521137639	-1.2865206695	 1.1927967848	-0.176977
H	 0.746638595	 1.0764317403	-1.7897180645	 0.28818
H	 0.8286538672	-0.5457645464	-0.0983010383	 0.099594
H	 0.1024730833	 0.9742897644	 0.4349219458	 0.101597
H	-2.1647810114	 0.1157642495	-0.3123472075	 0.107957
H	-2.5283298117	-2.3239730838	-0.6951551002	 0.099224
H	-0.7406577166	-3.9249288844	 0.3100293013	 0.117785
H	 0.452500367	-2.7469956152	-0.2751421924	 0.11885
H	-1.0477295588	-2.8658106922	 2.3821809009	 0.120801
H	 2.3277294168	-0.5880822631	 3.2968851483	 0.201184
73.4133	123.1277	146.3786	216.0912	232.2107	274.9678	311.8485	445.0203	484.519	499.1805	588.775	620.4148	653.1437	735.1754	746.1901	793.5099	838.581	924.9039	962.5211	980.4433	1015.8034	1061.4436	1068.263	1081.0812	1085.7125	1146.9328	1151.2532	1222.4444	1247.3939	1255.049	1270.8574	1280.7142	1344.0057	1362.8321	1423.1973	1484.7983	1490.5037	1522.3069	2227.5048	2992.3721	3050.9224	3058.2534	3072.3835	3130.547	3131.3824	3167.9773	3501.6116	3831.6862
OCC1C2CC(C#C)N12	OC[C@H]1[C@H]2C[C@@H](C#C)N12	
InChI=1S/C7H9NO/c1-2-5-3-6-7(4-9)8(5)6/h1,5-7,9H,3-4H2	InChI=1S/C7H9NO/c1-2-5-3-6-7(4-9)8(5)6/h1,5-7,9H,3-4H2/t5-,6-,7+,8?/m1/s1
