15
gdb 24653	4.70008	1.26791	1.03604	2.2995	75.34	-0.2533	-0.0412	0.212	1102.3153	0.115989	-413.013837	-413.006851	-413.005907	-413.045748	25.666	
C	-0.214035518	 1.1618438364	-0.4545372565	-0.219133
C	 1.1976396978	 1.1618865801	 0.0619627356	-0.219133
N	 0.3444315389	 0.0046759806	 0.2065978504	-0.098217
C	-0.0950378936	-0.4918294547	 1.407787163	 0.408634
N	 0.8299381586	-0.7424960193	 2.3492963296	-0.290916
C	 0.3454198109	-1.3037613833	 3.4505077043	 0.083216
N	-0.929905375	-1.6203540938	 3.689729079	-0.256232
C	-1.7497304344	-1.3038567761	 2.6839324061	 0.083216
N	-1.4091992657	-0.7426019346	 1.530036361	-0.290916
H	-0.9569431465	 1.7353004173	 0.0928857233	 0.138506
H	-0.4048993782	 1.0525245026	-1.5177357977	 0.133455
H	 2.0295898484	 1.0525997359	-0.6270121021	 0.133454
H	 1.4118119951	 1.7353724809	 0.9595595845	 0.138506
H	 1.0620233233	-1.5241643218	 4.2395473416	 0.127781
H	-2.8063272016	-1.5243380201	 2.8241925277	 0.127781
92.6908	121.8823	200.9429	255.9982	371.7542	491.5347	529.6234	580.3493	706.616	769.0803	806.5752	856.1873	957.5444	981.0485	993.7999	1003.9444	1043.7124	1049.2539	1132.0406	1135.7124	1167.0877	1169.4576	1182.1852	1208.7869	1250.9092	1310.1838	1423.6188	1424.5706	1498.6894	1516.5361	1531.4399	1566.4739	1612.9466	3117.7105	3120.8609	3155.3433	3159.1712	3202.0001	3214.8262
C1CN1C1=NC=NC=N1	C1CN1c1ncncn1	
InChI=1S/C5H6N4/c1-2-9(1)5-7-3-6-4-8-5/h3-4H,1-2H2	InChI=1S/C5H6N4/c1-2-9(1)5-7-3-6-4-8-5/h3-4H,1-2H2
