21
gdb 77082	2.61716	1.28799	1.18895	3.4286	82.94	-0.2282	0.0219	0.2501	1179.5335	0.181019	-383.27145	-383.261603	-383.260659	-383.305507	36.882	
C	 0.0343193791	 1.5515743624	-0.0532509053	-0.345967
N	-0.0297899802	 0.1311053709	 0.2198790017	-0.080748
C	-1.2703743827	-0.5101306685	 0.67628334	-0.123884
C	-0.402333474	-1.514275936	 1.4911267917	-0.290182
C	 0.7917279	-0.5346770364	 1.2773457416	 0.327049
C	 2.0747530982	-1.1416820142	 0.719711319	-0.432007
C	 1.0768985692	 0.3230171726	 2.5168982493	-0.450075
C	-2.1556652437	 0.3226988851	 1.5087018871	 0.276969
N	-2.8363943221	 1.0082264348	 2.145273035	-0.34284
H	 1.0575239927	 1.8143785658	-0.3391268804	 0.125693
H	-0.6155316377	 1.7858380668	-0.9033964873	 0.12816
H	-0.2682126204	 2.1919213337	 0.7904056758	 0.120848
H	-1.8764740583	-0.9318352382	-0.1342452065	 0.117188
H	-0.7113427499	-1.6919785639	 2.5206993671	 0.124696
H	-0.2842845918	-2.4640719274	 0.9681534941	 0.116058
H	 1.8618855343	-1.7444178175	-0.1670466585	 0.117122
H	 2.7853681738	-0.357531477	 0.4348888318	 0.117042
H	 2.5637213805	-1.7749004365	 1.4682827992	 0.115851
H	 1.5414800538	-0.2896958271	 3.2965976917	 0.119544
H	 1.7684662383	 1.1388543795	 2.2816765761	 0.118725
H	 0.1641003308	 0.760129881	 2.9314688566	 0.140759
87.2815	134.7675	180.5305	202.1817	212.5495	241.1984	266.3595	284.8185	343.4726	352.6845	409.5137	462.1876	512.009	597.4757	671.3641	707.9186	789.0376	862.4747	908.6171	952.9705	972.0329	978.032	1008.1827	1024.866	1116.9708	1150.5712	1171.8486	1191.3006	1231.2603	1240.3867	1278.4061	1279.454	1299.2321	1348.2142	1401.9482	1417.9487	1450.994	1478.3901	1482.75	1485.9042	1491.3195	1501.4482	1506.2975	1513.7887	2337.9551	2980.3165	3029.0995	3032.0507	3036.4368	3064.2188	3090.6014	3093.4497	3100.7607	3104.0395	3116.1085	3117.9797	3154.0994
CN1C(CC1(C)C)C#N	CN1[C@@H](CC1(C)C)C#N	
InChI=1S/C7H12N2/c1-7(2)4-6(5-8)9(7)3/h6H,4H2,1-3H3	InChI=1S/C7H12N2/c1-7(2)4-6(5-8)9(7)3/h6H,4H2,1-3H3/t6-/m0/s1
