15
gdb 19029	4.3092	2.23056	1.90294	3.3182	65.41	-0.2496	0.0255	0.2751	727.8423	0.121895	-362.649788	-362.644176	-362.643232	-362.679319	23.113	
N	-0.0666677288	 1.2817316281	-0.1642521686	-0.560001
C	-0.0137672957	 0.0334124095	 0.019122546	 0.421822
O	 1.140687459	-0.7042077479	 0.1454895827	-0.250111
C	 0.7670525231	-2.0470478549	 0.4889352863	 0.067504
C	 0.1262650666	-2.0643137348	 1.9091010754	-0.247985
C	-1.2316478721	-1.9286548179	 1.2220738323	-0.07338
C	-0.6390572135	-2.2985562497	-0.1214140833	-0.093191
C	-1.1670488203	-0.9061342152	 0.0782463503	-0.12481
H	 0.8746774625	 1.6771346523	-0.1984499471	 0.221225
H	 1.6033608505	-2.7063189826	 0.2703322671	 0.096679
H	 0.2323035095	-3.0447042284	 2.3811320959	 0.111091
H	 0.4588944781	-1.280604856	 2.5963895728	 0.111557
H	-2.196330466	-2.1988383005	 1.6330499374	 0.100476
H	-0.9421924788	-2.9972006526	-0.888571889	 0.102046
H	-2.1073086942	-0.5922125395	-0.3527335582	 0.117079
154.5277	342.9164	423.0079	441.6231	629.9644	676.7696	681.5938	785.2216	796.1827	820.4351	874.0455	890.3722	893.6937	904.2868	961.6217	981.2153	1006.8073	1028.0771	1040.2838	1067.2896	1100.8971	1119.2639	1152.8737	1198.0048	1225.8102	1259.6205	1287.199	1328.8744	1367.2631	1377.448	1488.4809	1780.1688	3052.0757	3109.7458	3153.0474	3192.6703	3212.6359	3228.4371	3471.4754
N=C1OC2CC3C2C13	[NH][C]1O[C@H]2C[C@@H]3[C@H]2[C@H]13	
InChI=1S/C6H7NO/c7-6-5-2-1-3(8-6)4(2)5/h2-5,7H,1H2	InChI=1S/C6H7NO/c7-6-5-2-1-3(8-6)4(2)5/h2-5,7H,1H2/t2-,3+,4-,5-/m1/s1
