19
gdb 45430	2.49734	1.65439	1.61847	2.3194	73.52	-0.2372	-0.0155	0.2217	962.2901	0.162237	-423.065178	-423.057847	-423.056903	-423.097216	29.026	
O	 0.0019259217	-0.0417691206	 0.0123853706	-0.328127
C	-0.0064340315	 1.164381838	 0.0079265037	 0.416348
C	-1.2756589793	 2.0180267303	 0.0241735142	-0.32974
C	-0.8595789855	 3.4959574749	 0.0580884215	 0.095171
C	-0.0282428117	 3.7893500559	 1.3159646815	-0.214262
C	 1.2346710903	 2.881185112	 1.2967002823	-0.229942
C	 1.235049093	 2.0453040202	-0.0066307088	-0.135606
C	 1.1113810701	 3.0153495796	-1.1964710611	-0.080446
O	-0.0877311885	 3.7915684508	-1.1087945232	-0.277919
H	-1.8583637988	 1.8001302621	-0.877527476	 0.137317
H	-1.8942012961	 1.7401675215	 0.8850327164	 0.127422
H	-1.7308534762	 4.1527154975	-0.0006447956	 0.082096
H	 0.2486077931	 4.8468811231	 1.3153469708	 0.111005
H	-0.6333937515	 3.6136535355	 2.2113439714	 0.103382
H	 2.1481514358	 3.4833145479	 1.3264196065	 0.110595
H	 1.2647290969	 2.2183101764	 2.1662433337	 0.114592
H	 2.130272788	 1.4271044259	-0.0982225141	 0.086543
H	 1.9759744086	 3.6944973657	-1.2058563047	 0.101691
H	 1.1059772017	 2.4704689133	-2.1495865789	 0.109881
60.9927	150.4705	263.3935	333.6328	364.7631	447.6968	484.2338	520.9853	603.717	634.191	743.5996	814.1252	824.7328	864.3708	865.6676	896.9869	949.8851	970.219	1002.8377	1048.0264	1055.9406	1071.8642	1091.7623	1126.8776	1198.8627	1215.2173	1228.5643	1249.9276	1261.3966	1292.0441	1330.733	1333.5303	1348.5488	1367.7792	1374.6315	1410.052	1431.9215	1483.1981	1503.8542	1528.0397	1835.2153	2994.7884	3032.885	3043.9274	3045.6646	3054.2566	3081.0296	3083.9594	3090.3004	3098.5092	3104.174
O=C1CC2CCC1CO2	O=C1C[C@H]2CC[C@@H]1CO2	
InChI=1S/C7H10O2/c8-7-3-6-2-1-5(7)4-9-6/h5-6H,1-4H2	InChI=1S/C7H10O2/c8-7-3-6-2-1-5(7)4-9-6/h5-6H,1-4H2/t5-,6-/m1/s1
