19
gdb 84593	2.3312	2.07751	1.39937	2.025	75.01	-0.2415	-0.0031	0.2384	974.8179	0.160031	-423.016645	-423.008874	-423.00793	-423.048315	31.711	
C	-0.0492770228	 1.5448979087	 0.0597886621	-0.47528
C	-0.028237666	 0.0389140951	-0.0414863873	 0.358342
C	 0.7558744809	-0.6480310709	-1.1849885209	-0.292099
C	 1.094281132	-1.6534818793	-0.0596857518	 0.037834
O	 0.8774173295	-0.5942837163	 0.9290478186	-0.337078
C	-0.032342499	-2.6566693955	 0.0518713157	-0.054144
C	-1.2567894886	-2.1384700564	 0.1457378421	-0.120133
C	-1.4060773959	-0.6281738578	 0.2003787853	 0.086976
O	-1.925208547	-0.2346541665	 1.4668221229	-0.44019
H	 0.9687980453	 1.9412320529	 0.0253121741	 0.119653
H	-0.619323737	 1.969211746	-0.7743338932	 0.118094
H	-0.5266911586	 1.8592340662	 0.9906418561	 0.138789
H	 0.2127975287	-1.0197184794	-2.0551480031	 0.103325
H	 1.6137964438	-0.0437537917	-1.4889899581	 0.106075
H	 2.0963055357	-2.0798341723	 0.0099740924	 0.078152
H	 0.1682382012	-3.7228152528	 0.0333598013	 0.097642
H	-2.1546927987	-2.7382424716	 0.2560608283	 0.102841
H	-2.1342347756	-0.2754326806	-0.5399409336	 0.087195
H	-1.2502029278	-0.5015955777	 2.105798979	 0.284006
125.3158	204.2672	261.7674	289.1219	315.0101	392.9844	421.0794	481.5263	514.8779	525.7488	586.2744	707.7534	728.0768	753.1135	858.0492	859.2427	874.1944	917.7238	946.7305	970.5589	982.7782	1007.7925	1017.3383	1062.1344	1086.1166	1129.5849	1161.2897	1224.7515	1235.0005	1246.6196	1261.7526	1291.476	1332.2114	1351.4331	1382.8201	1404.2619	1425.5966	1478.8072	1486.7863	1494.3662	1690.078	3039.8514	3044.1009	3067.896	3100.7976	3111.6866	3133.1676	3135.6613	3171.3423	3194.5137	3759.9788
CC12CC(O1)C=CC2O	C[C@@]12C[C@@H](O1)C=C[C@H]2O	
InChI=1S/C7H10O2/c1-7-4-5(9-7)2-3-6(7)8/h2-3,5-6,8H,4H2,1H3	InChI=1S/C7H10O2/c1-7-4-5(9-7)2-3-6(7)8/h2-3,5-6,8H,4H2,1H3/t5-,6+,7-/m0/s1
