21
gdb 53612	4.12057	0.71505	0.64228	1.7749	87.73	-0.2386	0.0571	0.2957	1797.3307	0.180431	-387.053747	-387.04322	-387.042275	-387.091906	36.322	
C	-0.0370494296	 1.4986664114	-0.1320976556	-0.497383
C	 0.0175711272	 0.0434949874	-0.1212960332	 0.120889
C	 0.0762874969	-1.1593685154	-0.1132846204	 0.016902
C	 0.1071656506	-2.6188934957	-0.100703163	-0.383591
C	-1.2845973359	-3.2214476823	 0.1394970917	-0.042167
C	-2.2502525463	-3.1323334989	-1.0595991041	-0.074979
O	-2.1560066781	-4.5523588715	-1.2980750338	-0.292639
C	-1.4443259489	-4.7567848317	-0.0541803124	 0.140409
C	-0.243164711	-5.6677370135	-0.2098460133	-0.403135
H	 0.6365909973	 1.9284769898	 0.6176085262	 0.146994
H	 0.2545284864	 1.9020605185	-1.108209277	 0.147218
H	-1.047651638	 1.8614219107	 0.0862804646	 0.146601
H	 0.5068881583	-2.9839749215	-1.0553100359	 0.131967
H	 0.8001656585	-2.9702003146	 0.6751652398	 0.125144
H	-1.6839932313	-2.8426155907	 1.082488421	 0.082371
H	-3.2737851927	-2.8261526132	-0.8064470305	 0.096067
H	-1.9052545596	-2.5444548141	-1.9181959685	 0.106734
H	-2.1233263971	-5.1800408316	 0.7021304084	 0.068668
H	 0.4648091545	-5.2850379114	-0.9494089389	 0.121434
H	 0.2762970908	-5.7906340257	 0.7467980403	 0.115758
H	-0.5750692019	-6.6562626261	-0.5425946753	 0.126739
14.4111	52.0972	66.909	80.052	185.2449	215.04	226.1318	266.5481	364.1069	366.53	388.2593	489.4386	493.6921	733.9053	772.3373	840.6426	872.9771	888.0989	920.877	1000.1511	1018.1871	1051.9544	1053.7693	1077.0468	1100.6063	1144.1408	1152.5938	1168.1961	1171.5484	1233.1478	1250.5504	1294.4695	1325.1252	1359.4224	1384.2699	1389.9577	1409.0393	1415.6591	1472.3017	1479.0206	1479.3639	1482.8979	1498.5494	1527.3412	2372.3596	2975.0544	3009.4766	3014.5152	3025.4398	3037.4535	3045.8599	3057.3911	3085.4428	3085.6425	3088.6283	3104.8398	3121.2794
CC#CCC1COC1C	CC#CC[C@H]1CO[C@H]1C	
InChI=1S/C8H12O/c1-3-4-5-8-6-9-7(8)2/h7-8H,5-6H2,1-2H3	InChI=1S/C8H12O/c1-3-4-5-8-6-9-7(8)2/h7-8H,5-6H2,1-2H3/t7-,8-/m0/s1
