21
gdb 60150	3.95347	0.82445	0.73092	4.0822	79.66	-0.2733	0.0124	0.2858	1590.3033	0.18111	-424.268817	-424.259163	-424.258218	-424.3041	35.407	
C	 0.067581907	 1.5809785569	 0.2396639879	-0.384061
C	 0.1009358	 0.0641751305	 0.0014431957	 0.031642
C	 1.0121219408	-0.6252045622	 1.0265794722	-0.391007
C	-1.3006980945	-0.5757671711	 0.02455431	-0.19518
C	-2.2202635973	-0.1925033267	-1.1190464069	 0.129348
C	-3.6619386692	-0.737214724	-1.0948701958	-0.441
C	-4.050687369	 0.737530205	-1.0010246654	 0.450806
O	-5.0421583468	 1.3891871133	-0.9380396417	-0.316563
O	-2.7539093998	 1.1832014221	-1.0168677427	-0.246006
H	 1.0802144047	 1.9958730912	 0.2030034293	 0.107854
H	-0.5441477192	 2.1015269591	-0.4996616582	 0.139205
H	-0.3482198636	 1.8082511336	 1.2285520142	 0.113134
H	 0.525661207	-0.1151756927	-0.9975417314	 0.072849
H	 0.6244495417	-0.4952996197	 2.0440694672	 0.115293
H	 1.0944674831	-1.7006321543	 0.83589077	 0.108151
H	 2.0209579541	-0.2012581976	 1.0017947322	 0.114601
H	-1.1918701255	-1.6684550791	-0.0172244357	 0.10328
H	-1.8028531167	-0.3490690973	 0.9750500139	 0.104074
H	-1.7201927909	-0.2984410283	-2.0867690822	 0.097467
H	-4.0140720584	-1.2411103123	-1.9962406355	 0.143831
H	-3.9317173676	-1.3256475364	-0.215371027	 0.142282
43.7609	73.7278	121.8014	174.5584	225.522	259.0675	287.9407	309.531	413.0324	426.7937	470.6058	520.5112	528.8727	731.2623	815.0779	844.4862	855.1149	915.7351	932.553	962.9565	968.2406	971.6131	1021.4058	1091.0652	1097.7576	1128.5391	1139.6322	1196.4306	1198.3502	1225.2034	1257.5242	1283.5	1335.7609	1367.83	1375.0456	1403.9379	1407.3411	1428.4542	1455.8478	1465.0615	1487.1884	1494.3361	1506.0754	1510.8463	1939.6148	2992.0224	3009.3972	3025.4505	3033.3089	3047.3587	3069.7498	3086.2788	3089.8148	3094.7485	3102.2612	3133.6268	3144.4517
CC(C)CC1CC(=O)O1	CC(C)C[C@H]1CC(=O)O1	
InChI=1S/C7H12O2/c1-5(2)3-6-4-7(8)9-6/h5-6H,3-4H2,1-2H3	InChI=1S/C7H12O2/c1-5(2)3-6-4-7(8)9-6/h5-6H,3-4H2,1-2H3/t6-/m0/s1
