17
gdb 5523	3.14712	1.82139	1.247	1.8292	70.82	-0.2259	0.0116	0.2375	996.3041	0.142448	-363.912999	-363.904893	-363.903949	-363.946059	28.883	
C	-0.3586972367	 1.6322075684	-0.15542137	-0.371675
C	 0.0694206898	 0.1655515624	 0.0282244725	-0.298003
C	 0.8574557967	-0.370859136	-1.1143132736	 0.27506
C	 2.1272664174	-0.8241794402	-1.2907048322	 0.164749
C	 3.2446491144	-0.9545023462	-0.3105395941	-0.492875
N	 2.293432584	-1.1958331026	-2.6282268042	-0.304317
C	 1.1498067587	-0.9528167591	-3.1723624018	 0.060117
O	 0.218262466	-0.4515191893	-2.3331465776	-0.183641
H	 0.5139260967	 2.2849057842	-0.2533959065	 0.123068
H	-0.968354537	 1.7477940118	-1.0557441066	 0.132578
H	-0.9476510435	 1.9725664483	 0.7014050208	 0.115423
H	 0.6748989072	 0.0623615153	 0.9341804588	 0.117
H	-0.8229623031	-0.4557191412	 0.179790968	 0.119949
H	 3.5851900452	-1.9932216676	-0.243463175	 0.138822
H	 4.1062899521	-0.3526475311	-0.6187142203	 0.138436
H	 2.9416146938	-0.6293266834	 0.6879476915	 0.12109
H	 0.8503397283	-1.0994624536	-4.1985451698	 0.144219
53.4525	116.8128	152.9684	203.2305	256.967	276.4942	360.7602	442.3897	622.9449	664.3306	690.2742	727.0971	785.0455	836.601	955.0283	969.8743	980.0765	1026.9141	1066.005	1084.6538	1125.9993	1172.1615	1220.0553	1285.3888	1306.6094	1347.9996	1377.0592	1408.5556	1421.7658	1473.2323	1475.1464	1491.9178	1496.5394	1507.4074	1564.796	1676.9288	3024.0382	3037.1421	3042.4848	3079.9462	3091.5417	3114.4878	3120.0109	3122.8312	3271.3501
CCC1=C(C)N=CO1	CCc1c(C)nco1	
InChI=1S/C6H9NO/c1-3-6-5(2)7-4-8-6/h4H,3H2,1-2H3	InChI=1S/C6H9NO/c1-3-6-5(2)7-4-8-6/h4H,3H2,1-2H3
