19
gdb 102607	2.4386	1.0658	0.96203	2.4893	68.42	-0.2609	0.0086	0.2694	1333.7604	0.157025	-497.329709	-497.319458	-497.318513	-497.365923	35.899	
C	-0.2981037823	 1.4037275135	 0.0187326255	-0.481756
C	-0.0123372689	-0.0770892517	-0.0164725835	 0.439422
O	 1.076665457	-0.580935352	-0.1167471613	-0.349236
O	-1.1614151436	-0.7872205235	 0.078260615	-0.26578
C	-1.0556725546	-2.2288547305	-0.008042067	 0.075031
C	-2.2993856479	-2.7542275313	 0.7028911878	-0.093663
O	-3.5060802588	-2.3253046125	 0.0762050048	-0.419741
C	-0.9426335758	-2.6792093959	-1.4704805101	-0.073927
O	-1.9844876335	-2.2102497508	-2.2965207742	-0.429711
H	 0.6409472188	 1.9528899523	 0.0731422083	 0.151817
H	-0.8391965201	 1.6914706543	-0.8879190676	 0.159051
H	-0.9335092835	 1.6523024599	 0.8725889888	 0.145381
H	-0.1566256518	-2.5513216525	 0.5277608322	 0.109885
H	-2.3050414181	-3.8478371802	 0.670005553	 0.123356
H	-2.278583993	-2.4459597215	 1.7574243791	 0.107452
H	-3.4887773997	-1.3605876286	 0.0872470672	 0.299716
H	-0.0058172538	-2.2991496405	-1.8864979721	 0.131216
H	-0.8755206297	-3.7815120849	-1.4664204932	 0.085248
H	-2.8127284807	-2.4070912237	-1.8379415428	 0.286239
55.5822	70.7533	95.9428	104.6943	160.2187	202.5852	268.8943	301.941	311.7692	384.8056	438.0668	492.8468	602.5422	630.9063	643.1276	750.1621	821.6355	911.9708	937.589	963.3081	986.6882	1031.2402	1063.5288	1065.5809	1110.4641	1126.9725	1223.846	1241.4833	1257.4725	1331.5623	1356.3562	1392.8442	1398.4635	1401.5806	1427.8809	1468.5976	1470.0227	1476.7249	1496.0463	1511.3048	1825.4054	2953.7835	3011.4238	3057.1178	3068.3107	3094.0714	3097.227	3123.2525	3170.2599	3740.9948	3796.0327
CC(=O)OC(CO)CO	CC(=O)OC(CO)CO	
InChI=1S/C5H10O4/c1-4(8)9-5(2-6)3-7/h5-7H,2-3H2,1H3	InChI=1S/C5H10O4/c1-4(8)9-5(2-6)3-7/h5-7H,2-3H2,1H3
