20
gdb 11480	3.42644	1.40754	1.29645	1.0477	70.41	-0.2538	0.0707	0.3245	1040.3501	0.177943	-386.14835	-386.139808	-386.138864	-386.181664	31.987	
O	 0.1636794957	 1.1701320185	-0.4987832285	-0.426648
C	 0.0129800466	-0.2159655326	-0.2172534296	-0.093302
C	-1.4579100185	-0.4807658136	 0.0881045637	 0.049136
C	-2.3792824154	-0.1343963631	-1.1203300878	-0.196951
C	-3.2733822835	-1.3730891578	-1.3297453061	-0.2398
C	-2.4019107926	-2.543397282	-0.8559886	 0.137257
O	-1.364784576	-2.8452268117	-1.7918428109	-0.440163
C	-1.7211379769	-1.9813378257	 0.3953999109	-0.240167
H	 1.0658392945	 1.3187064742	-0.7955781796	 0.284083
H	 0.3164903884	-0.8377588815	-1.0728164073	 0.102728
H	 0.6300198966	-0.5108001748	 0.6475559564	 0.078078
H	-1.7253495212	 0.1342010854	 0.9534915358	 0.072374
H	-2.9619106885	 0.7737163067	-0.9508534515	 0.097512
H	-1.7656164548	 0.0483393861	-2.0064923095	 0.106246
H	-4.1698867608	-1.320434362	-0.6995520898	 0.09548
H	-3.6171561656	-1.4944787704	-2.3635932052	 0.081672
H	-2.9891040475	-3.447638173	-0.6396196714	 0.054727
H	-1.7773071631	-3.0273985585	-2.6422237698	 0.279205
H	-0.8085331933	-2.5390332488	 0.6256517808	 0.103564
H	-2.3956292139	-2.0888867155	 1.2505412797	 0.094969
47.0447	127.774	162.9471	228.4474	258.8265	314.4609	378.525	385.0012	403.9336	455.1706	640.3187	756.2541	786.2885	845.0413	855.2315	886.9115	953.8931	967.9619	1001.6108	1026.1477	1033.1861	1064.3212	1083.0238	1107.2587	1182.1942	1193.2354	1206.6278	1237.4501	1260.9013	1270.1917	1306.1681	1319.5381	1321.3233	1345.9652	1369.6979	1377.2166	1418.2011	1452.8911	1476.5963	1486.2692	1500.7411	1527.9017	2962.3849	2991.7963	3009.1884	3028.9257	3045.7656	3058.4095	3061.6746	3072.7977	3096.8206	3110.2673	3814.6483	3832.7661
OCC1CCC(O)C1	OC[C@H]1CC[C@@H](O)C1	
InChI=1S/C6H12O2/c7-4-5-1-2-6(8)3-5/h5-8H,1-4H2	InChI=1S/C6H12O2/c7-4-5-1-2-6(8)3-5/h5-8H,1-4H2/t5-,6+/m0/s1
