17
gdb 22123	3.57969	0.93099	0.88273	3.5563	77.57	-0.2599	-0.013	0.247	1342.0257	0.134153	-417.973758	-417.964665	-417.963721	-418.007981	33.511	
C	-0.2872513058	 1.6171985254	-0.095904192	-0.444138
C	-0.0087066706	 0.1124874717	-0.0034963267	 0.149779
C	 1.2144259417	-0.3529984899	-0.8902973972	-0.352984
C	 2.0036249451	-0.5099029884	 0.389393925	 0.426313
C	 0.8045369586	-0.2946475251	 1.2862564738	-0.357819
N	 3.243550097	-0.6921647292	 0.5609586274	-0.223161
O	 3.5581633128	-0.747479401	 1.9276421188	-0.389699
C	-1.227506171	-0.6591404718	-0.213967229	 0.241824
N	-2.191833216	-1.2752106291	-0.3805760649	-0.342492
H	 0.6410302812	 2.1739832176	 0.065143522	 0.130985
H	-0.6831033222	 1.8821005892	-1.080249021	 0.140396
H	-1.0122844546	 1.9274646048	 0.661639918	 0.140811
H	 1.0355242876	-1.2960414652	-1.4137119456	 0.146094
H	 1.5748257864	 0.3880133759	-1.6079023006	 0.134539
H	 0.9002918735	 0.4854685699	 2.045394422	 0.138837
H	 0.4484116961	-1.2101086002	 1.7663824244	 0.149209
H	 4.5122685404	-0.8806765447	 1.9137203656	 0.311506
37.3936	146.7555	175.4743	215.0988	248.4771	269.9616	322.8837	348.2622	382.4048	457.6151	487.1622	557.8379	590.2457	623.6692	753.1285	832.7156	884.3669	901.0461	910.4185	962.922	989.0385	1051.6143	1112.2478	1137.3017	1180.2142	1195.9358	1234.6099	1254.8207	1292.3397	1407.9398	1414.3398	1449.3648	1467.9885	1490.0484	1496.5912	1790.4121	2351.8018	3040.8698	3062.9401	3067.297	3115.0802	3117.7522	3119.0737	3122.868	3816.2286
CC1(CC(C1)=NO)C#N	C[C@]1(CC(=NO)C1)C#N	
InChI=1S/C6H8N2O/c1-6(4-7)2-5(3-6)8-9/h9H,2-3H2,1H3	InChI=1S/C6H8N2O/c1-6(4-7)2-5(3-6)8-9/h9H,2-3H2,1H3/t6-
