21
gdb 84137	2.91685	1.15909	0.91599	0.8505	91.25	-0.2326	0.026	0.2586	1343.2608	0.181276	-349.947302	-349.937742	-349.936798	-349.981317	36.464	
C	 0.4649018691	 1.6011551556	-0.2969774281	-0.387383
C	 0.1112831722	 0.1369821991	 0.0089068028	-0.036506
C	 0.4361113936	-0.7779010523	-1.1498411492	-0.171132
C	 1.5151292925	-1.5356292906	-0.9437337193	 0.323916
C	 2.1560721037	-2.4898876292	-1.9010089505	-0.494093
C	 2.0952253837	-1.2865098236	 0.4328657522	-0.308547
C	 0.9537188637	-0.5199399427	 1.1621953974	-0.184934
C	 1.4042410061	 0.3787048841	 2.2134261591	 0.323625
C	 1.7842245817	 1.11625376	 3.0844639796	-0.467495
H	 1.5262718278	 1.7087139535	-0.5427087133	 0.116955
H	-0.1143367197	 1.9600717327	-1.1541058079	 0.10743
H	 0.2485163265	 2.2461598149	 0.5590087021	 0.124695
H	-0.9528352229	 0.0958500264	 0.2720582281	 0.077168
H	-0.1300077545	-0.7514903286	-2.0760717948	 0.083396
H	 1.6187064586	-2.5295848511	-2.8524360613	 0.123144
H	 3.1952683728	-2.2034609397	-2.1086427793	 0.126061
H	 2.1927659371	-3.505309619	-1.4860236699	 0.124325
H	 2.3660947118	-2.2072872388	 0.9617471477	 0.106027
H	 3.0113418019	-0.6839916041	 0.3714743684	 0.115178
H	 0.306788801	-1.2788817118	 1.6191127542	 0.107618
H	 2.1180209634	 1.7658785152	 3.8550000719	 0.190553
79.7671	137.3645	141.6462	191.5145	211.1341	245.1834	302.2858	346.733	392.8397	467.801	484.5244	533.0936	597.5979	619.9037	630.0871	684.6579	760.2505	849.1604	875.3603	910.5087	972.1322	979.9177	1008.3244	1045.0743	1053.8144	1071.9874	1099.0025	1116.0597	1173.7459	1200.8828	1276.1863	1290.0421	1302.5855	1335.8898	1350.827	1357.6602	1406.8053	1414.4977	1479.1666	1487.4786	1490.0012	1493.9988	1497.0484	1723.3051	2231.4595	3014.0946	3015.4767	3021.8351	3030.8864	3035.7222	3060.4484	3062.2528	3103.4698	3109.7641	3116.8075	3176.1454	3504.9277
CC1C=C(C)CC1C#C	C[C@H]1C=C(C)C[C@H]1C#C	
InChI=1S/C9H12/c1-4-9-6-7(2)5-8(9)3/h1,5,8-9H,6H2,2-3H3	InChI=1S/C9H12/c1-4-9-6-7(2)5-8(9)3/h1,5,8-9H,6H2,2-3H3/t8-,9+/m0/s1
