18
gdb 35464	3.20418	1.46658	1.37577	4.1678	79.14	-0.2527	0.0039	0.2566	998.4812	0.151496	-364.84046	-364.833558	-364.832614	-364.871704	28.141	
N	-0.0785332861	-1.1707114807	-0.192495323	-0.335565
C	-0.0455737839	-0.0199552447	-0.0831655759	 0.268948
C	-0.0014429916	 1.4312737501	 0.0435991027	-0.142033
C	-0.5948438242	 1.9818221506	 1.3900858927	-0.230288
C	 0.586677712	 2.8403374327	 1.9545179639	-0.054823
C	 1.1736804573	 3.4161376775	 0.6449951572	-0.219895
C	 1.465428494	 2.0225595536	 0.0459150324	-0.066068
C	 2.201244287	 1.3684774909	 1.2048324662	-0.072758
C	 1.682494244	 1.8573790258	 2.335553664	-0.072517
H	-0.5506698468	 1.8509961862	-0.8052160609	 0.123285
H	-1.4747271614	 2.5992246726	 1.1909534632	 0.110157
H	-0.8892445303	 1.1817860039	 2.070382669	 0.126608
H	 0.2835516529	 3.5513453722	 2.7230028457	 0.069863
H	 0.4563631751	 4.0047368433	 0.0626999426	 0.093163
H	 2.0839065061	 3.9973281578	 0.8059988566	 0.107156
H	 1.9470949276	 1.9767978139	-0.930068286	 0.078752
H	 2.927241193	 0.5735544279	 1.0981543612	 0.112851
H	 1.9005621555	 1.5432117765	 3.3484228884	 0.103165
109.5732	159.4125	301.6566	373.1447	449.4458	473.8245	519.8566	571.0037	681.9225	745.6924	764.9505	796.6194	830.6476	841.3034	916.8105	929.5428	939.4211	955.4434	968.4754	972.3056	1000.1013	1047.8576	1068.3242	1120.1942	1138.3622	1158.1821	1183.9997	1209.463	1258.1204	1285.1532	1291.9486	1300.2392	1323.0999	1347.2592	1369.4624	1490.6061	1505.1597	1644.5916	2353.3764	3048.9674	3056.6839	3071.4462	3114.9223	3118.4823	3125.714	3128.0984	3205.9587	3232.2623
N#CC1CC2CC1C=C2	N#C[C@H]1C[C@@H]2C[C@H]1C=C2	
InChI=1S/C8H9N/c9-5-8-4-6-1-2-7(8)3-6/h1-2,6-8H,3-4H2	InChI=1S/C8H9N/c9-5-8-4-6-1-2-7(8)3-6/h1-2,6-8H,3-4H2/t6-,7+,8+/m0/s1
