16
gdb 132491	3.04146	1.29046	0.9112	2.2309	75.44	-0.2126	-0.0058	0.2069	1195.1312	0.123845	-445.926285	-445.918283	-445.917338	-445.958577	30.845	
C	 0.026666192	 1.5104874594	 0.0437366824	-0.536872
C	 0.0325659929	 0.0025160466	 0.0129815926	 0.219817
C	-0.0176196539	-0.6970714675	-1.1940609805	-0.347943
C	-0.0112437792	-2.0830442404	-1.2013452028	 0.303284
F	-0.0602367509	-2.7299728491	-2.375507293	-0.087944
C	 0.0445670839	-2.8112634731	-0.0226130971	-0.257963
C	 0.0948902503	-2.1260236009	 1.1855331881	-0.168326
C	 0.0891818467	-0.7323997881	 1.2076189495	 0.289968
O	 0.1407882986	-0.1302948351	 2.434044165	-0.442663
H	 0.9322648793	 1.9157359218	 0.5151760304	 0.1343
H	-0.0216396691	 1.9227298565	-0.9663499615	 0.138791
H	-0.835938588	 1.9071471127	 0.5961526389	 0.134242
H	-0.0621187854	-0.1641189019	-2.1376078253	 0.10349
H	 0.0481860289	-3.894125368	-0.0583290903	 0.110845
H	 0.139298843	-2.6591035797	 2.1281212328	 0.110396
H	 0.131525391	 0.8250043867	 2.3232995107	 0.296578
143.4889	165.2406	202.6081	289.3859	299.9729	344.4152	384.4858	451.5935	456.2969	496.8894	575.1273	581.9681	722.0044	730.7539	783.2928	840.9917	880.5667	936.1254	968.0978	1007.7389	1055.9257	1109.4759	1164.9497	1202.4265	1253.3234	1290.8484	1330.8055	1371.7605	1410.0064	1459.8046	1488.0148	1504.4626	1536.6457	1639.2756	1667.9936	3006.6163	3051.3864	3120.2008	3190.2825	3196.0401	3211.1733	3839.0929
CC1=CC(F)=CC=C1O	Cc1cc(F)ccc1O	
InChI=1S/C7H7FO/c1-5-4-6(8)2-3-7(5)9/h2-4,9H,1H3	InChI=1S/C7H7FO/c1-5-4-6(8)2-3-7(5)9/h2-4,9H,1H3
