16
gdb 108458	2.33352	1.74321	1.22587	4.2218	64.18	-0.2414	-0.0014	0.24	1020.537	0.124547	-475.002594	-474.99457	-474.993626	-475.035622	29.624	
O	-0.0121694764	 1.443162782	 0.2177676195	-0.41335
C	 0.0329488395	 0.0334437486	 0.1014429872	-0.187685
C	-1.3659587168	-0.5257895097	 0.0078247908	 0.128583
N	-2.302533241	-0.3536753149	 1.1514234893	-0.344814
C	-2.6355049143	-1.8054575388	 1.1447426149	-0.191097
C	-1.8654920748	-1.9815812796	-0.1756374627	 0.025462
O	-2.6250309721	-1.571524027	-1.3591887372	-0.265005
C	-2.1480488469	-0.279805212	-1.2913122294	 0.477773
O	-2.3370740938	 0.6174830605	-2.0494201946	-0.342902
H	-0.4939631319	 1.7828719128	-0.547114717	 0.306075
H	 0.6218195598	-0.2938524829	-0.77014199	 0.105689
H	 0.53733354	-0.3377855735	 1.0008830254	 0.112507
H	-1.8501676205	-0.0129737064	 1.9913930057	 0.236412
H	-2.1718465132	-2.3791685293	 1.9563062737	 0.113292
H	-3.7065497451	-2.0245107568	 1.1117999121	 0.128301
H	-1.2712376624	-2.8697892128	-0.3778431777	 0.110759
63.3979	129.2835	163.3913	225.5086	291.5939	327.2375	420.5432	448.0949	485.668	633.075	693.7516	732.2994	784.1373	833.6563	858.1095	935.2263	984.0229	998.1588	1013.1414	1059.4512	1072.9176	1101.514	1135.8063	1165.2522	1180.008	1246.2556	1260.4952	1315.0949	1333.4932	1371.9879	1406.2688	1434.2803	1494.9534	1501.4147	1924.9238	2980.9136	3029.8248	3062.8672	3092.3	3145.5497	3553.5648	3780.2928
OCC12NCC1OC2=O	OC[C@]12NC[C@H]1OC2=O	
InChI=1S/C5H7NO3/c7-2-5-3(1-6-5)9-4(5)8/h3,6-7H,1-2H2	InChI=1S/C5H7NO3/c7-2-5-3(1-6-5)9-4(5)8/h3,6-7H,1-2H2/t3-,5+/m1/s1
