22
gdb 58098	2.17787	1.37123	1.22859	4.6798	77.87	-0.238	0.0211	0.2591	1188.1023	0.192112	-441.513557	-441.503191	-441.502247	-441.548032	39.071	
C	-0.0685134775	 1.5995322374	 0.3033216841	-0.343359
N	-0.0493931041	 0.1390724241	 0.1720566265	-0.114075
H	-0.3980388188	-0.0004523285	-1.7029334598	 0.296341
C	 0.9780249631	-0.4306068448	 1.0405650363	-0.333564
C	-1.4017354669	-0.4805987866	 0.2575002269	 0.108032
C	-1.2946089442	-2.0202593149	 0.2726196588	-0.433164
C	-2.2556579216	-0.0154409386	 1.4474586919	-0.417007
C	-2.1299849791	-0.1496042905	-1.0751012036	 0.437737
O	-1.2930945679	 0.020818296	-2.1102479976	-0.380852
O	-3.3254208798	-0.1102819923	-1.1898214937	-0.348982
H	 0.9024650844	 1.9970153382	-0.0075284117	 0.125867
H	-0.8327629602	 2.0306988896	-0.3482142032	 0.144305
H	-0.2594905157	 1.9399931375	 1.3325892176	 0.115916
H	 0.7606340645	-0.3026833978	 2.1143747883	 0.107649
H	 1.1185738767	-1.4929615555	 0.8394349442	 0.131657
H	 1.9260533389	 0.0748957903	 0.8340755819	 0.126297
H	-0.9210984427	-2.386747389	 1.2323215006	 0.122954
H	-2.289036054	-2.4441324919	 0.1151123828	 0.147176
H	-0.6384189635	-2.382740982	-0.5241241635	 0.126648
H	-2.4319095202	 1.0621656451	 1.4299879724	 0.124455
H	-3.2310452306	-0.5025533363	 1.4077868672	 0.145676
H	-1.7720564506	-0.2752394496	 2.3944367635	 0.110294
79.414	130.0921	192.8051	208.3107	234.2251	248.6568	267.9911	287.0471	313.0916	334.4362	363.3084	403.5614	416.678	473.044	530.5881	602.4363	710.2155	768.0192	820.4571	876.113	932.574	944.9164	994.6249	1023.0653	1067.6036	1118.0077	1157.9135	1165.9227	1186.1544	1202.7859	1239.4606	1277.8962	1300.0682	1395.2834	1406.5603	1416.9892	1446.7278	1477.9153	1481.9778	1484.2381	1487.7133	1498.4061	1504.6034	1510.3868	1516.3311	1521.2856	1865.311	2968.9669	2988.0313	3044.9666	3051.1904	3075.1814	3081.1132	3119.0918	3119.7019	3123.1564	3129.0052	3138.5144	3144.396	3458.7298
C[NH+](C)C(C)(C)C([O-])=O	CN(C)C(C)(C)C(=O)O	
InChI=1S/C6H13NO2/c1-6(2,5(8)9)7(3)4/h1-4H3,(H,8,9)	InChI=1S/C6H13NO2/c1-6(2,5(8)9)7(3)4/h1-4H3,(H,8,9)
