20
gdb 78673	2.40163	1.73193	1.39658	1.4223	79.19	-0.1956	0.0728	0.2684	1038.2976	0.169957	-403.077356	-403.068642	-403.067698	-403.11002	33.887	
C	 0.0179698641	 1.5346640343	-0.1418107361	-0.334184
N	 0.0356115621	 0.0918640744	 0.087796369	-0.068671
C	-0.8894122409	-0.5172876101	 1.0303152257	-0.070204
C	 0.0693572371	-1.6025113854	 1.3902421198	-0.153235
C	 1.1254793141	-0.561808673	 0.8560820633	-0.107521
C	 1.1268481508	 0.0102019987	 2.3191488045	 0.087058
O	 1.2805606003	 1.3881468411	 2.5853112673	-0.437569
C	-0.2668319577	-0.5656371506	 2.4585227693	 0.288597
C	-1.0741226361	-0.7172189613	 3.7123655192	-0.515077
H	 0.9082568195	 1.8090493353	-0.718586887	 0.107414
H	-0.8561752711	 1.7721764628	-0.7589685044	 0.109135
H	-0.0072241905	 2.1439315477	 0.7682927704	 0.12683
H	-1.9614088512	-0.5602717059	 0.875096083	 0.090716
H	 0.0127987472	-2.6803775974	 1.3693793343	 0.095275
H	 2.0561123043	-0.7631150064	 0.3253992073	 0.065943
H	 1.8246010236	-0.585300592	 2.926767482	 0.069356
H	 2.2169994848	 1.606196102	 2.5448445219	 0.280883
H	-1.361107085	 0.2612499552	 4.112222194	 0.132403
H	-1.9938860405	-1.2822095935	 3.5252070352	 0.117112
H	-0.514398165	-1.2463294457	 4.4927271514	 0.115738
158.4001	169.7246	181.3481	210.1924	235.6656	258.1936	295.5013	326.2633	397.1828	575.632	588.316	664.0105	713.741	741.0303	786.5427	831.4948	861.2546	892.9702	925.2632	935.82	982.2333	1032.3805	1048.6169	1093.2452	1109.9733	1122.9722	1145.81	1162.1735	1168.387	1216.5545	1224.7698	1245.0455	1257.9297	1299.1512	1331.0752	1387.9605	1415.1221	1447.7612	1458.4843	1484.5154	1485.877	1498.654	1511.4084	2992.4528	3016.8599	3022.271	3082.0676	3083.1894	3089.845	3094.2608	3113.4627	3180.2032	3230.1633	3818.8974
CN1C2C3C1C(O)C23C	CN1[C@H]2[C@H]3[C@@H]1[C@@H](O)[C@@]23C	
InChI=1S/C7H11NO/c1-7-3-4(6(7)9)8(2)5(3)7/h3-6,9H,1-2H3	InChI=1S/C7H11NO/c1-7-3-4(6(7)9)8(2)5(3)7/h3-6,9H,1-2H3/t3-,4-,5+,6-,7-/m1/s1
