19
gdb 73379	2.43727	2.15526	1.59423	1.2153	73.12	-0.2371	0.0669	0.304	905.7057	0.162224	-423.014427	-423.007658	-423.006714	-423.04504	28.871	
O	-0.0732994601	 1.3341958979	 0.0267999455	-0.503667
C	-0.0048586954	-0.0667069188	 0.0015809072	 0.380835
C	 0.6586415333	-0.7324322855	 1.2215926471	-0.128979
O	 0.3403726879	-2.1190004791	 1.0477966412	-0.281172
C	-0.7250486783	-2.1590277195	 0.1120794093	 0.14445
C	-0.3840725847	-1.8968747624	-1.4044917887	-0.066834
C	-1.7280154889	-1.1191545452	-1.463775762	-0.257538
C	-1.3913053112	-0.7683887291	 0.0006639479	-0.092554
C	 0.6203098	-0.7364301711	-1.2657484112	-0.278263
H	 0.8168426054	 1.6835018372	-0.087813924	 0.27889
H	 1.7484397388	-0.6109671602	 1.2394540349	 0.093688
H	 0.2429125034	-0.34922518	 2.1651445558	 0.094932
H	-1.3618598696	-3.0225328592	 0.3037692581	 0.083663
H	-0.1466456813	-2.7002426443	-2.1018843583	 0.062823
H	-1.8079629282	-0.3032416911	-2.1859915764	 0.103219
H	-2.6014517658	-1.771778746	-1.5382908537	 0.099882
H	-2.1196534564	-0.3946596112	 0.7194802086	 0.07233
H	 0.5914443949	-0.0644661153	-2.1288583973	 0.097409
H	 1.6509198064	-1.063473987	-1.101136224	 0.096885
230.2955	252.5897	278.1584	359.8301	424.4001	443.9793	456.6654	588.439	616.9382	688.7516	764.995	798.3687	826.8221	865.4853	882.9568	937.3931	959.5389	981.0904	1003.6294	1011.0222	1023.5241	1049.1302	1065.1437	1086.62	1119.4607	1159.1426	1165.9135	1190.3571	1204.698	1223.1866	1235.0904	1263.9742	1267.2013	1283.7775	1325.9046	1343.8227	1358.5377	1404.5459	1487.332	1511.8254	1523.7152	2994.7484	3047.6735	3053.1943	3062.5684	3098.763	3112.0863	3117.991	3120.1071	3129.3655	3807.4946
OC12COC3C(CC13)C2	O[C@@]12CO[C@@H]3[C@@H](C[C@H]13)C2	
InChI=1S/C7H10O2/c8-7-2-4-1-5(7)6(4)9-3-7/h4-6,8H,1-3H2	InChI=1S/C7H10O2/c8-7-2-4-1-5(7)6(4)9-3-7/h4-6,8H,1-3H2/t4-,5-,6+,7-/m0/s1
