16
gdb 29587	2.98671	1.30633	0.96312	1.6901	72.01	-0.1948	0.0358	0.2306	1176.865	0.124609	-437.885268	-437.876939	-437.875995	-437.918793	30.674	
O	 0.4046591641	 1.3661457387	-0.1530933084	-0.450075
C	 0.1699627044	 0.0203354542	-0.0652598769	 0.194057
C	 0.1507565168	-0.8328348601	-1.1427674591	-0.154164
N	-0.0775986834	-2.0991430563	-0.6460101576	-0.246836
C	-0.2080478871	-2.0590935465	 0.7109875392	-0.158626
C	-0.0573568598	-0.7477716589	 1.1171799194	 0.155373
C	-0.0949080026	-0.2474011028	 2.5053626438	-0.073026
C	-1.2953471313	-0.3350549627	 3.3639392116	-0.173184
O	-0.1979837965	-1.2297447184	 3.5395040935	-0.23082
H	 0.0494034534	 1.7940341656	 0.6308628629	 0.297113
H	 0.2796678586	-0.6413408103	-2.1940499123	 0.123565
H	-0.1220732088	-2.9323100886	-1.2041548782	 0.26388
H	-0.3677891525	-2.9470554588	 1.299136009	 0.135467
H	 0.6111362444	 0.5550704417	 2.7347979723	 0.091943
H	-1.4459882127	 0.3821495549	 4.1708431626	 0.111204
H	-2.1991562872	-0.7802935518	 2.9513339583	 0.11413
52.7236	134.6826	157.5174	163.1913	288.1213	313.5229	406.4144	462.3801	529.9614	605.8538	626.0585	644.2356	726.914	738.6936	765.5126	859.2973	889.4873	918.7135	1008.5952	1076.0968	1098.4265	1106.2779	1150.0597	1170.6855	1173.7036	1217.9121	1270.7812	1292.2952	1349.4768	1410.9626	1450.2319	1483.8633	1517.1842	1569.6156	1651.3282	3067.3735	3077.4565	3170.877	3278.2293	3282.4254	3697.3947	3842.4985
OC1=CNC=C1C1CO1	Oc1c[nH]cc1[C@H]1CO1	
InChI=1S/C6H7NO2/c8-5-2-7-1-4(5)6-3-9-6/h1-2,6-8H,3H2	InChI=1S/C6H7NO2/c8-5-2-7-1-4(5)6-3-9-6/h1-2,6-8H,3H2/t6-/m1/s1
