16
gdb 125165	3.45177	1.61224	1.11424	4.728	79.02	-0.2239	-0.0376	0.1863	1051.2245	0.126615	-396.94437	-396.937061	-396.936117	-396.976755	27.284	
C	-0.0159356805	 1.5205287337	 0.1126032406	-0.504967
C	-0.0075673091	 0.0365553521	-0.0509324235	 0.149391
C	 0.0166829699	-0.7583863858	-1.1824676158	 0.318198
C	 0.0442502018	-0.8625107623	-2.6327780534	-0.217996
C	 0.0552145538	-2.1649544258	-2.9712024359	-0.095851
C	 0.0350222551	-3.0419017505	-1.7334556729	-0.23604
N	 0.0119454197	-2.0265138979	-0.6920458828	 0.050872
N	-0.0133474728	-2.0580891311	 0.6422399498	-0.179506
N	-0.0244416891	-0.8036467905	 1.0306270976	-0.248839
H	 0.8765835326	 1.9851843608	-0.3208102689	 0.129012
H	-0.888854917	 1.9799716896	-0.3640340696	 0.128856
H	-0.0425328937	 1.7612280079	 1.17743491	 0.150801
H	 0.053985612	-0.0217685654	-3.3113391806	 0.124176
H	 0.07539354	-2.5761229262	-3.9707287036	 0.121478
H	-0.8504624754	-3.6852612799	-1.6787041294	 0.155211
H	 0.9222540427	-3.6791346988	-1.6454255416	 0.155205
47.3476	156.2501	217.7408	248.0406	322.4918	454.1263	496.8977	612.7497	663.2073	672.4212	707.8524	769.9268	823.5281	878.1791	943.525	947.0077	982.9291	1000.2336	1065.8845	1075.4719	1156.2625	1179.1883	1205.139	1238.6804	1256.4166	1307.2702	1353.6612	1384.5824	1418.8466	1442.8354	1479.2346	1486.5338	1495.5793	1597.0541	1635.0867	3033.7551	3044.1691	3079.7044	3083.9456	3132.5397	3230.0345	3251.1453
CC1=C2C=CCN2N=N1	Cc1c2C=CCn2nn1	
InChI=1S/C6H7N3/c1-5-6-3-2-4-9(6)8-7-5/h2-3H,4H2,1H3	InChI=1S/C6H7N3/c1-5-6-3-2-4-9(6)8-7-5/h2-3H,4H2,1H3
