12
gdb 133464	3.55233	1.21302	1.07362	5.5238	52.56	-0.2513	0.0094	0.2606	1048.1532	0.076235	-563.212078	-563.204959	-563.204015	-563.244757	25.847	
F	-0.5846373063	 0.3131804246	-0.449262848	-0.070928
C	 0.0092297422	 1.4029040421	 0.0565787497	 0.235309
F	 1.2825999273	 1.0716095477	 0.3118428709	-0.071067
F	 0.0191769938	 2.3442676406	-0.9058745791	-0.084023
C	-0.6927330987	 1.9150781848	 1.2683201513	 0.108895
C	-1.2598509306	 3.1510687158	 1.4289682285	-0.173784
N	-1.772415827	 3.1362011723	 2.7021574568	-0.238442
C	-1.4954095831	 1.9116472774	 3.2403716304	 0.015656
N	-0.8425278938	 1.1491320646	 2.3981578916	-0.297794
H	-1.3403203135	 4.0045095713	 0.7785300419	 0.15656
H	-2.2636164931	 3.8913609284	 3.1512295849	 0.276349
H	-1.7935509373	 1.6403492405	 4.2418265612	 0.143268
43.6369	146.8379	181.7458	375.551	392.5187	414.6095	547.0246	560.1148	583.7624	664.8998	735.2105	746.1624	784.6472	837.5462	947.628	959.5651	1086.7669	1125.3001	1164.2086	1185.9551	1186.8214	1252.4497	1361.453	1374.9803	1449.2511	1532.7224	1607.1019	3257.6689	3293.0837	3664.1073
FC(F)(F)C1=CNC=N1	FC(F)(F)c1c[nH]cn1	
InChI=1S/C4H3F3N2/c5-4(6,7)3-1-8-2-9-3/h1-2H,(H,8,9)	InChI=1S/C4H3F3N2/c5-4(6,7)3-1-8-2-9-3/h1-2H,(H,8,9)
