17
gdb 79729	2.5284	1.85867	1.49746	2.9758	72.13	-0.2371	-0.0032	0.2338	932.011	0.137255	-417.929601	-417.922272	-417.921327	-417.961165	29.161	
O	 0.39318367	 1.3351494123	 0.3472278021	-0.420346
C	 0.1147924167	-0.009496711	 0.0810217231	 0.017204
C	-1.3477417535	-0.5409800081	 0.0081786392	-0.02797
C	-2.4948545414	 0.2565860137	-0.6308322823	-0.10188
C	-2.0998862567	 0.9842008761	-1.9022476206	-0.310495
C	-2.2229120822	-0.5051626321	-1.9325040115	 0.004869
N	-1.0470645794	-1.1882318688	-1.3159114791	-0.125231
C	 0.2194418855	-0.5215205722	-1.3831646903	 0.279394
N	 0.9802877473	-0.3728232235	-2.3756213459	-0.507361
H	-0.2491596997	 1.874614172	-0.1267711845	 0.293906
H	 0.7242058689	-0.5972277818	 0.7746958285	 0.117763
H	-1.6743403529	-1.2162437647	 0.8021169559	 0.087861
H	-3.4418760866	 0.4531084483	-0.14508525	 0.103166
H	-2.9279463032	 1.5125975446	-2.3645027441	 0.125117
H	-1.1376032827	 1.4624103632	-2.0564740506	 0.12261
H	-2.8866112213	-1.0478088787	-2.5931668659	 0.111257
H	 1.8015475112	 0.1735864609	-2.1072773739	 0.230134
121.5338	176.0103	225.7015	270.8649	341.0478	392.162	513.9242	573.8538	630.8011	675.8752	754.0593	772.3534	806.8148	846.4925	865.0049	895.5219	931.2691	958.3337	998.7159	1014.5559	1036.6334	1055.1371	1064.9811	1084.3857	1103.422	1154.7487	1192.7349	1203.1665	1220.466	1262.5764	1278.7561	1312.7643	1328.5515	1348.448	1428.3806	1486.8067	1778.4106	3066.0268	3086.1449	3125.5579	3190.6736	3197.2323	3209.2322	3458.5628	3809.3062
OC1C2C3CC3N2C1=N	O[C@H]1[C@H]2[C@H]3C[C@H]3N2[C]1[NH]	
InChI=1S/C6H8N2O/c7-6-5(9)4-2-1-3(2)8(4)6/h2-5,7,9H,1H2	InChI=1S/C6H8N2O/c7-6-5(9)4-2-1-3(2)8(4)6/h2-5,7,9H,1H2/t2-,3+,4+,5-/m0/s1
