20
gdb 95993	2.25116	1.54114	1.03723	5.6833	74.18	-0.2508	0.0234	0.2741	1181.3028	0.173628	-440.336916	-440.328333	-440.327389	-440.371214	32.603	
N	-0.0566593057	 1.517652636	-0.0717732699	-0.554121
H	-0.2750378909	 0.7001208287	-0.6350048087	 0.248676
H	 1.5110685613	 0.8999742986	 0.5264712979	 0.308234
H	-0.3357017944	 2.3287699454	-0.6109683393	 0.24606
C	-0.7732956269	 1.4659441341	 1.2159078659	 0.03265
C	-2.0779813122	 0.6564359794	 1.2482839311	-0.219048
C	-2.3774256779	 0.5453936912	 2.748211372	-0.206213
C	-0.9901423025	 0.3305885768	 3.4037870944	-0.220588
C	 0.0614599395	 0.8777893361	 2.4055136109	-0.161754
C	 1.1157162112	-0.1844618222	 2.0325893968	 0.393964
O	 1.2608178607	-1.2153583548	 2.6375657458	-0.32712
O	 1.9285996331	 0.1515861437	 1.0205745545	-0.379023
H	-1.007069484	 2.5028622042	 1.4820597108	 0.090035
H	-2.8806658576	 1.1241668825	 0.6700648908	 0.094896
H	-1.8952005803	-0.3393567528	 0.8198115835	 0.105895
H	-2.8301713534	 1.4805240634	 3.0985102793	 0.097762
H	-3.0797562102	-0.2575672154	 2.9852469783	 0.104011
H	-0.9221536044	 0.8199702289	 4.3780459912	 0.099417
H	-0.7845061177	-0.7294943319	 3.5658785634	 0.14072
H	 0.6514976021	 1.6901064582	 2.8457932413	 0.105547
29.6376	71.0407	197.535	274.352	276.4133	291.5381	377.8488	420.3303	522.1365	542.8013	563.13	627.9602	735.4441	791.283	821.0056	880.8113	903.4167	915.8076	934.1984	954.2636	991.9715	1012.733	1059.7189	1100.5531	1117.2836	1155.3081	1189.7647	1204.6648	1234.4842	1244.2808	1287.9649	1304.5059	1330.5642	1340.0121	1345.5216	1359.871	1427.2556	1471.8958	1487.9536	1495.0381	1512.3875	1656.6102	1846.0652	3011.8401	3031.1949	3036.098	3046.782	3074.3344	3085.4041	3094.5676	3121.5554	3316.8744	3500.2624	3587.6092
[NH3+]C1CCCC1C([O-])=O	N[C@H]1CCC[C@H]1C(=O)O	
InChI=1S/C6H11NO2/c7-5-3-1-2-4(5)6(8)9/h4-5H,1-3,7H2,(H,8,9)	InChI=1S/C6H11NO2/c7-5-3-1-2-4(5)6(8)9/h4-5H,1-3,7H2,(H,8,9)/t4-,5+/m1/s1
