16
gdb 33518	2.24504	1.56673	1.20991	3.9671	79.37	-0.2631	0.0005	0.2635	1075.5718	0.123842	-363.598077	-363.589764	-363.588819	-363.631102	31.271	
C	-0.2591855064	-1.2872819341	-0.4134251006	-0.41081
C	-0.1257724646	-0.1159327378	-0.1857102146	 0.272856
C	 0.0589110657	 1.3007352846	 0.1217191623	-0.054388
C	-0.466694759	 1.6939454704	 1.5558565324	-0.292991
C	 0.5426534757	 2.710090819	 2.0240409395	-0.057793
C	 1.6345321159	 2.7325782142	 1.2647273347	-0.057777
C	 1.5748849168	 1.7359169455	 0.1361781263	-0.293009
C	-0.6542139522	 2.1159567328	-0.8794189939	 0.277284
N	-1.206564986	 2.7688556181	-1.6562938394	-0.343353
H	-0.3848046921	-2.3208343508	-0.6244119513	 0.204907
H	-1.4917117951	 2.0715726624	 1.511078092	 0.138203
H	-0.4777723872	 0.8066500083	 2.1996557691	 0.131418
H	 0.3788492031	 3.3141401434	 2.9086115616	 0.107888
H	 2.5037321865	 3.3579161346	 1.430911849	 0.107898
H	 2.2067479746	 0.8618944237	 0.3329975394	 0.131439
H	 1.8788905444	 2.1408442755	-0.8327737764	 0.138229
72.9859	129.4948	161.4961	187.9062	264.5552	385.0707	452.3295	489.6534	495.6573	583.7902	586.249	643.6198	660.6681	679.1677	760.9066	784.5505	895.6777	954.2583	958.5147	976.6379	983.3771	1053.8711	1065.7168	1107.4072	1136.4028	1177.521	1271.3568	1298.8417	1330.7135	1360.8856	1481.4756	1488.142	1694.0052	2244.4271	2358.2462	3041.5748	3041.8596	3093.3115	3094.2721	3194.7655	3218.5901	3500.264
C#CC1(CC=CC1)C#N	C#C[C@]1(CC=CC1)C#N	
InChI=1S/C8H7N/c1-2-8(7-9)5-3-4-6-8/h1,3-4H,5-6H2	InChI=1S/C8H7N/c1-2-8(7-9)5-3-4-6-8/h1,3-4H,5-6H2
