23
gdb 119924	2.11496	1.05968	0.86478	0.7711	92.34	-0.2374	0.0501	0.2875	1509.3196	0.203434	-351.122494	-351.111751	-351.110806	-351.15851	39.529	
C	-0.1575643726	 1.5352949812	-0.000604137	-0.382629
C	-0.1801453692	 0.0179869265	 0.1988716873	-0.157546
C	 0.953489842	-0.4835167723	 1.104193309	-0.197729
C	 0.9476414087	-1.989306871	 1.2605273872	-0.024574
C	 1.6110679315	-2.7134889801	 2.4006692856	-0.048238
C	 2.3587714645	-2.0075278555	 3.5094213027	-0.409847
C	 0.082679934	-2.6818795278	 2.3185046087	-0.219568
C	-0.6879572199	-1.9140799927	 3.2507546059	 0.350536
C	-1.3478682569	-1.2785293017	 4.0322923719	-0.48781
H	 0.7851633808	 1.8627422019	-0.4537488668	 0.110736
H	-0.9720906752	 1.8647216099	-0.6532927054	 0.110044
H	-0.2639642915	 2.0612344191	 0.9547179229	 0.115452
H	-1.1400152439	-0.2849548896	 0.6338893672	 0.110159
H	-0.1124890337	-0.4819731077	-0.7767075153	 0.089332
H	 1.9203468401	-0.1705718431	 0.6859101954	 0.091165
H	 0.8682366316	 0.00105956	 2.082178206	 0.107472
H	 0.9676877681	-2.5189273991	 0.3100712503	 0.085219
H	 2.034328817	-3.6799895946	 2.1382770649	 0.088122
H	 1.8399576283	-1.1077219904	 3.845784021	 0.133384
H	 2.4657281686	-2.6655350868	 4.37818948	 0.11993
H	 3.3639745598	-1.7208851055	 3.1815181689	 0.115822
H	-0.3939188865	-3.6079378291	 2.0097890916	 0.107512
H	-1.9319219058	-0.7231441716	 4.7232070381	 0.193056
61.7301	86.4725	110.8953	143.2521	158.8133	179.2247	244.0722	254.8349	309.9078	353.4307	410.999	496.732	569.3353	585.7943	610.9033	645.7575	736.6095	754.5374	790.7179	858.8293	885.8528	901.3758	953.2992	983.4892	1030.9521	1049.8061	1075.3812	1099.2158	1130.7854	1143.3961	1150.3068	1194.9282	1252.8228	1273.3836	1302.3576	1332.1235	1363.8416	1378.1154	1402.4237	1411.3034	1421.5953	1441.7037	1478.8821	1491.8425	1494.3137	1499.6074	1502.9624	1509.5015	2227.4957	3011.6772	3018.243	3028.1436	3036.8509	3055.4311	3077.8995	3093.3954	3095.8818	3100.5284	3119.2642	3124.3207	3137.188	3147.7002	3504.7653
CCCC1C(C)C1C#C	CCC[C@H]1[C@@H](C)[C@H]1C#C	
InChI=1S/C9H14/c1-4-6-9-7(3)8(9)5-2/h2,7-9H,4,6H2,1,3H3	InChI=1S/C9H14/c1-4-6-9-7(3)8(9)5-2/h2,7-9H,4,6H2,1,3H3/t7-,8+,9-/m0/s1
