17
gdb 110155	2.58729	1.16522	0.88702	3.894	75.44	-0.2711	0.0035	0.2746	1318.2379	0.13391	-421.821655	-421.812541	-421.811597	-421.85603	32.831	
C	 0.0088040108	 1.5378689508	 0.0302094089	-0.388227
C	 0.2263330345	 0.0208815673	 0.0133617651	-0.208088
C	 0.6931480969	-0.4792993283	-1.3522885037	-0.197768
C	 0.7337861631	-2.0111617765	-1.6165425505	-0.081174
O	-0.2465692263	-1.8420352671	-2.7083202702	-0.246601
C	-0.3432541844	-0.4916020138	-2.4779654555	 0.464425
O	-1.0592791912	 0.2849376736	-3.0237034746	-0.321174
C	 1.9796561399	-2.5969328835	-2.0578162632	 0.3249
C	 3.026802869	-3.0730812346	-2.4042644681	-0.424663
H	 0.9424411886	 2.0718745929	-0.1767225665	 0.120015
H	-0.7214288511	 1.8346761264	-0.7274603796	 0.152421
H	-0.355244255	 1.8663196254	 1.0077336194	 0.119204
H	 0.9728507991	-0.2638144505	 0.7645359884	 0.112215
H	-0.704045409	-0.4920731076	 0.2872213078	 0.11126
H	 1.616121443	 0.0189585362	-1.6615590034	 0.125606
H	 0.2743192236	-2.6034173767	-0.8196988562	 0.125496
H	 3.9485134484	-3.5000962441	-2.715557348	 0.212154
74.3395	91.1021	143.2233	148.2969	203.5678	256.9978	304.3015	354.2308	441.6078	498.2492	577.9411	634.2484	684.6045	699.0267	738.6076	782.0476	870.4411	899.2253	935.5668	986.6322	1058.2393	1081.759	1106.4038	1118.6184	1147.6366	1217.9358	1249.9796	1283.5169	1339.6109	1364.0129	1379.3402	1416.3834	1490.2931	1498.8038	1510.734	1932.5105	2243.4332	3025.5391	3040.4815	3059.2847	3068.8027	3086.7698	3108.5966	3125.9415	3500.968
CCC1C(OC1=O)C#C	CC[C@H]1[C@@H](OC1=O)C#C	
InChI=1S/C7H8O2/c1-3-5-6(4-2)9-7(5)8/h2,5-6H,3H2,1H3	InChI=1S/C7H8O2/c1-3-5-6(4-2)9-7(5)8/h2,5-6H,3H2,1H3/t5-,6-/m0/s1
