21
gdb 35893	2.9112	1.3318	1.02603	0.8824	87.45	-0.2528	0.0616	0.3144	1213.7255	0.18431	-349.926613	-349.918285	-349.917341	-349.959326	33.395	
C	-0.0304718367	-1.2265544904	-0.0823669673	-0.453729
C	-0.0092118933	-0.0254466912	-0.0284391271	 0.317666
C	 0.0172045731	 1.4343375861	 0.0534169682	-0.189836
C	-0.8017472263	 1.9545012565	 1.2594191615	-0.207784
C	-0.682880022	 3.4771114811	 1.3708852887	-0.201541
C	 0.755006257	 3.9162308334	 1.6913848827	-0.216124
C	 1.8084074276	 3.2126233384	 0.833023577	-0.03956
C	 2.3402558355	 1.8590889372	 1.2477616119	-0.281257
C	 1.4503862967	 1.9702450562	 0.0411530931	-0.004881
H	-0.048305241	-2.2866458664	-0.1373151286	 0.188876
H	-0.4759008884	 1.8272318172	-0.848228339	 0.100922
H	-1.8449829801	 1.6512814795	 1.1284239719	 0.105628
H	-0.4537938508	 1.4737037938	 2.1817058597	 0.106817
H	-1.0018957257	 3.9265348755	 0.4207306842	 0.094914
H	-1.3658911524	 3.8549337517	 2.1394378683	 0.091415
H	 0.8413994605	 4.9991722408	 1.5547626709	 0.097192
H	 0.9597356658	 3.729120108	 2.7532242209	 0.100252
H	 2.5280684444	 3.8741991848	 0.3606320812	 0.082356
H	 3.3899425996	 1.6362768026	 1.0909520641	 0.107465
H	 1.9269973043	 1.4186107447	 2.14992223	 0.112548
H	 1.9412074822	 1.8495526104	-0.9199201023	 0.08866
84.566	134.1968	182.7858	263.7119	325.3927	357.7317	418.7199	433.7596	516.4636	582.4329	609.9025	621.8335	630.7133	743.6739	776.0588	834.4462	862.273	884.4031	910.5689	935.2407	970.2098	1011.1468	1046.5154	1060.5377	1065.0938	1100.8513	1122.1225	1136.7496	1153.1187	1194.2333	1219.6825	1244.723	1286.0667	1317.8292	1336.2965	1349.6844	1368.9673	1375.7829	1390.1209	1413.3296	1483.9848	1491.5247	1495.1464	1506.812	2232.5983	2989.1248	3015.2302	3021.8363	3038.036	3064.653	3071.7593	3083.8385	3126.8185	3141.5341	3151.958	3210.255	3505.5307
C#CC1CCCC2CC12	C#C[C@H]1CCC[C@H]2C[C@@H]12	
InChI=1S/C9H12/c1-2-7-4-3-5-8-6-9(7)8/h1,7-9H,3-6H2	InChI=1S/C9H12/c1-2-7-4-3-5-8-6-9(7)8/h1,7-9H,3-6H2/t7-,8-,9-/m0/s1
