16
gdb 24141	5.1526	0.9854	0.93911	2.723	70.86	-0.2235	0.0106	0.2341	1259.4564	0.124801	-437.883672	-437.876006	-437.875061	-437.917587	28.066	
C	-0.379518569	 1.0577647082	 0.0574406028	-0.282704
C	 1.1303930815	 0.993273507	 0.1880410771	-0.283019
C	 0.351318495	-0.2392227766	-0.1214642377	 0.113439
O	 0.2904903044	-1.1940186552	 0.9278690031	-0.275928
C	-0.8249434563	-1.9226596614	 0.9990222779	 0.401238
C	-1.6060418357	-2.3140223686	 2.0341777527	-0.218318
N	-2.5977500568	-3.1624141421	 1.5460573315	-0.251743
C	-2.3744224131	-3.2271946836	 0.2785934035	 0.077356
O	-1.3008822745	-2.5023961738	-0.1452963142	-0.186509
H	-0.9513226302	 1.1756927462	 0.9707829563	 0.132121
H	-0.8153410666	 1.5261965492	-0.8177048299	 0.124148
H	 1.7477901404	 1.4196235133	-0.5941169973	 0.123281
H	 1.5429999155	 1.0664473181	 1.1875068487	 0.134241
H	 0.4171857617	-0.6902468277	-1.1058987371	 0.11674
H	-1.522525292	-2.0560177632	 3.0761432884	 0.12638
H	-2.9226978842	-3.7621442499	-0.4801329158	 0.149277
32.4858	52.3141	132.7755	293.6433	342.9675	440.5666	462.0271	663.0453	671.331	728.9004	759.1928	801.9486	820.0347	832.4652	841.3079	930.7145	958.8156	996.7488	1003.4387	1057.7166	1077.8012	1106.9351	1120.3614	1125.4727	1174.4561	1190.9222	1231.0118	1249.2469	1285.8435	1354.7846	1385.2164	1455.4338	1494.326	1562.1975	1665.6635	3141.6327	3145.1788	3166.6501	3225.8399	3239.5411	3278.2733	3282.0635
C1CC1OC1=CN=CO1	C1CC1Oc1cnco1	
InChI=1S/C6H7NO2/c1-2-5(1)9-6-3-7-4-8-6/h3-5H,1-2H2	InChI=1S/C6H7NO2/c1-2-5(1)9-6-3-7-4-8-6/h3-5H,1-2H2
