17
gdb 107930	3.97604	1.14354	1.09546	1.859	67.48	-0.2338	0.0617	0.2955	1137.4314	0.135051	-458.876073	-458.868017	-458.867072	-458.908834	30.835	
O	-0.0548748544	 1.3456627332	-0.4137631426	-0.41166
C	-0.10145802	 0.0395502857	 0.1375230137	-0.194862
C	-1.462719348	-0.5619496591	 0.0501668951	 0.452765
O	-2.5031337385	 0.0165223099	 0.8633205844	-0.340074
C	-3.2923198382	-1.1538617775	 0.5197037192	 0.008508
C	-2.0049600236	-1.9478216549	 0.0897723023	-0.201056
C	-2.1285110856	-1.1417793226	-1.2073677932	-0.165746
C	-3.6191724673	-0.9346685272	-0.9895337646	 0.120175
O	-4.3413104785	-1.998393525	-1.5710497376	-0.432161
H	-0.7336760997	 1.8630555446	 0.0334453625	 0.29426
H	 0.6051986994	-0.5713801347	-0.433720732	 0.118293
H	 0.2249784144	 0.0367674866	 1.1889461396	 0.102263
H	-4.0466762001	-1.4220663062	 1.2578597842	 0.085175
H	-1.5855101159	-2.9159225147	 0.3224560796	 0.105306
H	-1.6003872247	-1.2762731906	-2.1421323995	 0.102301
H	-4.0495882352	 0.0442315298	-1.2428143811	 0.070977
H	-5.2674968541	-1.8915003271	-1.3304690599	 0.285534
77.0721	115.1162	225.3722	246.4581	313.0368	333.1192	379.1685	411.6345	517.8038	550.351	711.4846	773.5942	799.1585	841.0676	850.435	897.6499	930.7071	953.9875	965.3227	983.2145	1033.6357	1058.7798	1065.0491	1107.2306	1118.3212	1139.2658	1171.7554	1214.9369	1227.0836	1249.4262	1287.641	1309.5313	1374.7596	1400.6457	1426.4454	1469.4516	1488.4713	2989.7956	3008.123	3080.3868	3135.5234	3207.8531	3220.7159	3809.2269	3810.9157
OCC12OC3C1C2C3O	OC[C@]12O[C@@H]3[C@H]1[C@H]2[C@H]3O	
InChI=1S/C6H8O3/c7-1-6-2-3(6)5(9-6)4(2)8/h2-5,7-8H,1H2	InChI=1S/C6H8O3/c7-1-6-2-3(6)5(9-6)4(2)8/h2-5,7-8H,1H2/t2-,3+,4+,5+,6+/m0/s1
