21
gdb 59482	3.14415	0.92351	0.79942	0.9927	80.05	-0.2542	0.0711	0.3253	1512.8595	0.180489	-424.189196	-424.179361	-424.178417	-424.224663	36.246	
C	 0.2946752887	 1.4595728671	 0.1893359323	-0.408494
C	-0.3700500073	 0.1089408113	-0.0731743348	 0.100448
O	-1.7847311451	 0.2198638432	-0.2000012594	-0.427331
C	 0.2109063297	-0.5537182692	-1.308801123	 0.027937
O	 1.5530057987	-1.0412272563	-1.2202108624	-0.271997
C	 0.4947917578	-1.9906586118	-1.4420079293	 0.062738
C	 0.2475011253	-3.0193192704	-0.3941954094	-0.003625
C	-0.6874031741	-4.1651749012	-0.7046156019	-0.265301
C	 0.7917989872	-4.4158194053	-0.5921480078	-0.270374
H	 1.3717186599	 1.334129275	 0.3327622027	 0.138877
H	 0.1464323441	 2.1369335029	-0.6618094119	 0.10484
H	-0.1324847539	 1.928146358	 1.0800107527	 0.123422
H	-0.2121232781	-0.5398116948	 0.7929848634	 0.094426
H	-1.9683242055	 0.8941197738	-0.8636090476	 0.278716
H	 0.0005785838	 0.0005082761	-2.2305184224	 0.073994
H	 0.4851981532	-2.3934961464	-2.4586039153	 0.083663
H	 0.2418519535	-2.6502494161	 0.6249307318	 0.091644
H	-1.3389204737	-4.5150919046	 0.0876299903	 0.11857
H	-1.1354125127	-4.1980333499	-1.6923833228	 0.114792
H	 1.3451249899	-4.616255103	-1.5037468123	 0.116681
H	 1.1648634287	-4.9423824484	 0.278864907	 0.116376
51.5926	56.2181	126.1695	169.469	240.9404	266.1648	267.5507	284.2852	361.1477	389.2516	467.01	505.3261	586.3841	757.5134	799.9784	827.7603	848.5609	888.2354	908.2516	927.9264	963.8719	993.2175	1049.4647	1063.6321	1079.1678	1090.137	1097.1538	1124.7889	1139.4499	1189.0688	1198.0286	1210.6961	1226.0326	1270.5229	1300.2028	1325.5262	1342.7303	1399.4	1409.0021	1429.8255	1470.4572	1490.2788	1492.7528	1497.9625	1519.2541	3023.4552	3040.054	3070.4686	3075.6092	3101.343	3126.2726	3133.2701	3137.645	3174.956	3212.2769	3227.5318	3800.3334
CC(O)C1OC1C1CC1	C[C@@H](O)[C@H]1O[C@H]1C1CC1	
InChI=1S/C7H12O2/c1-4(8)6-7(9-6)5-2-3-5/h4-8H,2-3H2,1H3	InChI=1S/C7H12O2/c1-4(8)6-7(9-6)5-2-3-5/h4-8H,2-3H2,1H3/t4-,6-,7+/m1/s1
