15
gdb 42768	2.70012	1.6086	1.28445	2.4359	72.56	-0.2469	-0.021	0.2259	999.4218	0.111673	-420.579086	-420.5715	-420.570556	-420.611092	29.201	
O	-0.0426150491	-0.0436347893	-0.0536510868	-0.296557
C	-0.0382169287	 1.1367352612	 0.0634187254	 0.40286
C	-1.0211596017	 2.3229331232	 0.0179995948	-0.046048
C	-0.811170118	 2.9967756835	 1.3855250737	-0.238764
C	 0.7533776273	 2.9843949166	 1.4105918509	-0.278175
C	 1.0063365637	 2.3070715401	 0.040240782	 0.196103
O	-0.0042372208	 2.9626542368	-0.817703845	-0.323436
C	 2.3316841855	 2.2047381418	-0.4857441941	 0.102974
C	 3.4539839174	 2.0848024797	-0.8984773638	-0.326485
H	-2.0094150825	 2.2761303573	-0.432969624	 0.111364
H	-1.2168641843	 4.0101184751	 1.3856347699	 0.123872
H	-1.2647678415	 2.4348298234	 2.2060536373	 0.120618
H	 1.1850687494	 3.9863718864	 1.4234018377	 0.129264
H	 1.1761059084	 2.4068139462	 2.23583221	 0.125418
H	 4.4426175449	 1.9773222781	-1.2720240782	 0.196993
120.9821	146.3094	170.7927	242.7916	359.4292	464.3085	495.44	499.9791	579.2653	615.3077	684.0626	695.3608	725.2764	748.8971	823.4102	848.8839	911.753	920.0396	959.2332	998.8015	1013.277	1074.9267	1141.938	1178.2451	1227.8104	1253.3108	1265.7788	1306.8439	1333.247	1476.9707	1495.3746	1930.8527	2242.5842	3069.5828	3079.892	3117.9192	3136.0185	3163.6165	3500.4784
O=C1C2CCC1(O2)C#C	O=C1[C@H]2CC[C@@]1(O2)C#C	
InChI=1S/C7H6O2/c1-2-7-4-3-5(9-7)6(7)8/h1,5H,3-4H2	InChI=1S/C7H6O2/c1-2-7-4-3-5(9-7)6(7)8/h1,5H,3-4H2/t5-,7+/m1/s1
