16
gdb 43967	3.08345	1.71486	1.53179	2.8609	73.98	-0.2463	-0.0093	0.2371	912.4661	0.125986	-400.711726	-400.705052	-400.704108	-400.742561	27.256	
N	-0.006813104	 1.1985540262	-0.0767080529	-0.559054
C	-0.0287610788	-0.0479039275	 0.0496009638	 0.385362
O	 1.0244313249	-0.950949055	 0.2424426073	-0.299153
C	 0.0910153253	-2.0500738148	 0.0021726435	 0.337185
C	-0.933223319	-2.1000722112	 1.0777769797	-0.353675
C	-1.095483469	-1.094819044	-0.0610884508	 0.082271
C	-1.8990925562	-1.4279867143	-1.310423847	-0.355998
C	-1.0692222227	-2.5480154126	-1.9370726427	-0.050008
C	 0.0336742892	-2.85671512	-1.2384745151	-0.174009
H	 0.9461713981	 1.55985842	-0.007626036	 0.230632
H	-1.6223186807	-2.9375632356	 1.0551431332	 0.134768
H	-0.6734530507	-1.7368110538	 2.0662993447	 0.13821
H	-2.9216556697	-1.7561510342	-1.0891097774	 0.122603
H	-1.987580491	-0.5632368654	-1.9771039309	 0.141084
H	-1.3851838126	-3.0612480941	-2.84094633	 0.107284
H	 0.7566300969	-3.6177830337	-1.5052923995	 0.112496
124.078	253.0329	260.7923	396.172	434.8485	468.2573	612.6002	622.4122	655.2359	687.3938	779.7174	797.2965	839.6658	867.7343	875.0215	904.5751	918.511	945.2029	947.4256	966.6517	987.1469	1077.0255	1083.9851	1128.9993	1155.4958	1191.3584	1226.7879	1280.3291	1329.9286	1355.9226	1384.6764	1467.7641	1478.6869	1637.2521	1819.6505	3038.4891	3073.404	3132.9683	3175.1073	3213.5914	3227.9961	3478.0947
N=C1OC23CC12CC=C3	[NH][C]1O[C@@]23C[C@@]12CC=C3	
InChI=1S/C7H7NO/c8-5-6-2-1-3-7(6,4-6)9-5/h1,3,8H,2,4H2	InChI=1S/C7H7NO/c8-5-6-2-1-3-7(6,4-6)9-5/h1,3,8H,2,4H2/t6-,7-/m0/s1
