14
gdb 127540	5.43092	1.36895	1.1012	3.3732	71.62	-0.2338	-0.0239	0.2099	1029.4954	0.104828	-429.055101	-429.048166	-429.047222	-429.08685	25.581	
C	 0.0014811769	 1.4118938661	 0.0115332128	-0.307042
N	-0.0446781374	-0.0344178381	-0.0045161496	 0.122631
N	-0.0090557079	-0.7130386368	-1.1760278168	-0.376942
C	 0.0301672548	-1.9607709299	-0.7285854477	 0.393836
N	 0.0555583773	-3.2718224678	-1.1345976954	-0.402217
C	 0.0662257744	-4.0054450331	 0.0482639073	 0.018086
N	 0.0438674961	-3.2929555619	 1.1476300535	-0.331883
C	 0.0219586463	-1.9978812029	 0.6713173278	 0.342835
N	-0.0215417633	-0.7431217881	 1.1304279754	-0.344061
H	 1.0349823957	 1.7705627659	-0.0353233936	 0.148017
H	-0.5498593605	 1.7860580259	-0.8514053276	 0.156533
H	-0.4596549599	 1.7546237251	 0.937313356	 0.162552
H	 0.073280829	-3.6434065233	-2.0682224977	 0.277485
H	 0.0928071486	-5.0856589311	 0.0166184654	 0.140169
66.6143	145.1938	285.3793	312.664	353.8097	412.8702	567.7945	605.9447	629.4444	643.4586	781.0429	803.2361	858.7189	863.8243	960.4976	983.847	1049.4261	1075.8472	1144.694	1212.1391	1296.3818	1327.465	1363.5955	1378.1093	1442.5183	1477.4213	1486.3774	1501.9354	1511.5594	1539.3774	1649.8376	3049.3809	3131.3084	3175.064	3245.2618	3682.1933
CN1N=C2NC=NC2=N1	Cn1nc2[nH]cnc2n1	
InChI=1S/C4H5N5/c1-9-7-3-4(8-9)6-2-5-3/h2H,1H3,(H,5,6,7,8)	InChI=1S/C4H5N5/c1-9-7-3-4(8-9)6-2-5-3/h2H,1H3,(H,5,6,7,8)
