16
gdb 11921	3.24446	1.84022	1.50625	4.4309	70.88	-0.245	0.0154	0.2604	885.3962	0.131184	-342.764254	-342.756748	-342.755804	-342.795844	28.239	
C	 0.005561277	 1.5225465701	 0.0125749084	-0.46768
C	 0.0370476038	 0.0254567063	 0.0214378896	 0.305013
C	-0.8535504873	-0.8393433905	 0.8612226301	-0.36319
C	 0.6522559228	-0.9714505015	 1.0327096267	 0.133706
C	 1.2268304881	-1.7270948133	-0.171061601	-0.223681
N	 0.6422668099	-0.7126979194	-1.0948387418	-0.348952
C	 1.3177233414	-0.7232537404	 2.2649129143	 0.196989
N	 1.8665327144	-0.5223549063	 3.2649006401	-0.352576
H	 0.9764626796	 1.925813447	-0.2867353383	 0.140754
H	-0.7465846818	 1.8842148732	-0.6986090442	 0.128877
H	-0.2520701324	 1.9143257921	 1.0006125717	 0.13435
H	-1.358046109	-0.3424685232	 1.6834830284	 0.138037
H	-1.4017978827	-1.6712289687	 0.4238861659	 0.114477
H	 2.319177808	-1.7198302479	-0.210253738	 0.133112
H	 0.8665879035	-2.7552412821	-0.2920068307	 0.110442
H	-0.0389780854	-1.0876789853	-1.7506016311	 0.220321
115.8386	158.7094	189.0499	240.6122	328.0553	391.3673	428.3825	538.6592	559.4273	581.0141	685.6706	735.5926	814.1499	860.8084	933.851	954.994	986.3245	991.3915	1052.9115	1068.6162	1104.8042	1146.7037	1177.7003	1247.0684	1276.0514	1335.9861	1360.2422	1389.5874	1425.9927	1474.9473	1485.1553	1497.4708	1514.1475	2342.517	3033.4753	3034.2835	3094.3611	3099.9903	3105.9202	3126.2664	3208.633	3486.2043
CC12CC1(CN2)C#N	C[C@]12C[C@]1(CN2)C#N	
InChI=1S/C6H8N2/c1-5-2-6(5,3-7)4-8-5/h8H,2,4H2,1H3	InChI=1S/C6H8N2/c1-5-2-6(5,3-7)4-8-5/h8H,2,4H2,1H3/t5-,6+/m0/s1
