18
gdb 37756	3.3743	2.07325	1.71254	2.7336	80.23	-0.1928	-0.0472	0.1456	842.6105	0.150264	-364.649653	-364.643607	-364.642663	-364.679471	26.694	
C	-0.0387065388	 1.5654433432	 0.0862606604	-0.261446
N	 1.5040539421	 1.3826217812	 0.0367153317	-0.171675
C	 1.3086782257	 0.1206993103	 0.8720651335	-0.036076
C	 2.1614721756	-1.0237792366	 0.369935065	-0.110594
C	 1.8820933904	-0.9885905838	-0.9533425457	 0.001332
C	 0.7894738333	-1.9561999655	-1.4261824615	-0.251742
C	-0.5018768788	-1.2921924053	-0.679951303	-0.346473
C	 0.0755149275	 0.0423157984	-0.1634396404	 0.268808
C	 1.2317281383	 0.3795269016	-1.1071399704	 0.003108
H	-0.3951936678	 1.9160750591	 1.0594552406	 0.104395
H	-0.4250121675	 2.191884791	-0.7226019865	 0.10676
H	 1.1634938742	 0.2850608471	 1.9420984434	 0.072808
H	 2.3474989441	-1.9175775887	 0.9561783189	 0.102509
H	 0.6283959103	-1.9603734355	-2.5078279207	 0.108535
H	 0.955339856	-2.9824093895	-1.0936458396	 0.11391
H	-1.2907481904	-1.1177295082	-1.4168443209	 0.116359
H	-0.9004031615	-1.9485959435	 0.0981566443	 0.10801
H	 1.0543739473	 0.8099201347	-2.093944619	 0.071472
242.5314	324.4143	408.5092	442.9948	472.8431	559.4277	654.1614	673.4016	731.0551	736.5405	775.6408	807.3511	823.6128	861.5044	889.4378	908.1348	920.8771	960.0768	971.5784	1013.2159	1051.0626	1066.6281	1094.2662	1106.7042	1113.3537	1162.4593	1172.425	1208.1046	1210.2753	1245.5541	1251.736	1256.6234	1282.862	1299.2689	1314.9458	1468.9207	1491.1037	1518.4928	1572.4768	3047.1363	3054.1694	3062.0083	3094.7133	3105.4507	3106.6919	3112.87	3126.8792	3183.6659
C1N2C3C=C4CCC13C24	C1N2[C@@H]3[CH][C]4CC[C@@]13[C@@H]24	
InChI=1S/C8H9N/c1-2-8-4-9-6(8)3-5(1)7(8)9/h3,6-7H,1-2,4H2	InChI=1S/C8H9N/c1-2-8-4-9-6(8)3-5(1)7(8)9/h3,6-7H,1-2,4H2/t6-,7+,8-/m1/s1
