18
gdb 14307	3.6108	1.78331	1.68463	0.8171	67.5	-0.2443	0.0905	0.3348	880.5788	0.153153	-384.926939	-384.919111	-384.918167	-384.959126	29.196	
C	-0.0595798338	 1.6134339182	 0.073186364	-0.410241
C	 0.0396189621	 0.1075866847	 0.0745627506	-0.064063
C	 1.330664079	-0.6366173107	-0.2148336615	 0.031842
O	 2.5248607056	 0.1049383742	-0.1087995854	-0.268418
C	 2.8761980234	 0.0656776647	 1.2708605825	 0.235129
C	 3.7021657742	 1.270061524	 1.6521546065	-0.4119
O	 1.6422741407	 0.0483872623	 1.9820306177	-0.268423
C	 0.7475161801	-0.6738580387	 1.1666598437	 0.031886
H	 0.8485255752	 2.0682188961	 0.468989288	 0.137665
H	-0.2125710154	 1.9900583524	-0.9433156222	 0.118112
H	-0.9018555648	 1.9461956531	 0.6883030904	 0.118107
H	-0.8383036532	-0.4094597529	-0.3098987898	 0.087184
H	 1.3717603003	-1.4809666885	-0.8951649816	 0.098865
H	 3.4197751967	-0.8746038673	 1.4749337557	 0.068493
H	 3.1505972619	 2.1897235804	 1.4441180614	 0.134896
H	 3.9428925438	 1.2309464341	 2.7174847292	 0.131006
H	 4.6339345762	 1.2751780739	 1.0810376946	 0.130998
H	 0.3051451783	-1.5491177201	 1.631095406	 0.098861
95.0107	114.1895	175.373	212.749	255.3606	318.6307	475.0511	506.8606	601.4814	701.2125	753.7686	768.3299	778.948	850.8923	881.9517	898.4068	1004.9605	1014.6183	1065.5702	1089.1676	1108.408	1117.067	1128.362	1140.6153	1151.4097	1162.8503	1214.2675	1303.8273	1346.3826	1373.9128	1394.7913	1413.1372	1421.2355	1433.8349	1483.0655	1483.9116	1490.1239	1496.3711	2939.1305	3043.0276	3055.9892	3099.0753	3120.5767	3134.7282	3139.4433	3151.4125	3152.9174	3163.9628
CC1C2OC(C)OC12	C[C@H]1[C@H]2O[C@@H](C)O[C@@H]12	
InChI=1S/C6H10O2/c1-3-5-6(3)8-4(2)7-5/h3-6H,1-2H3	InChI=1S/C6H10O2/c1-3-5-6(3)8-4(2)7-5/h3-6H,1-2H3/t3-,4+,5+,6-
