15
gdb 125072	3.21495	1.27813	0.91981	6.4793	74.77	-0.2263	-0.0308	0.1955	1206.4296	0.111804	-450.10685	-450.098096	-450.097152	-450.141803	30.336	
C	-0.0159319624	 1.5225557604	 0.014678333	-0.525553
C	-0.009225467	 0.030818083	 0.0330825954	 0.150484
C	 0.0089192922	-0.8826277458	-0.99949153	 0.461608
N	 0.0260162438	-0.6330168438	-2.348518482	-0.394145
C	 0.0410072952	-1.5282167741	-3.4111933714	 0.07645
N	 0.0412616164	-2.7860816985	-3.2690103017	-0.410888
O	 0.0085277158	-2.1095314207	-0.5183950786	-0.197698
N	-0.012224006	-1.9505637695	 0.9447353642	-0.039938
N	-0.02086026	-0.7186621194	 1.1758093914	-0.150663
H	 0.8810311566	 1.9377817799	-0.4612815502	 0.131077
H	-0.8901320138	 1.9284232089	-0.5092344122	 0.130466
H	-0.0456707595	 1.8926046	 1.0414023241	 0.162405
H	 0.0267370086	 0.3440975862	-2.5920992381	 0.268663
H	 0.0520332933	-0.9824804131	-4.3620399904	 0.101921
H	 0.0534429268	-3.2437571036	-4.1776867336	 0.23581
32.276	53.7478	146.7862	171.7575	236.9951	254.0538	343.9865	413.2966	479.6727	553.6349	601.535	674.9486	682.7836	738.1515	806.9417	855.3619	977.5809	1006.8981	1049.1401	1069.4767	1071.6567	1213.827	1220.095	1317.2734	1409.0181	1417.6786	1457.3881	1485.4382	1487.6804	1498.0158	1521.203	1649.7934	1741.2536	3019.4605	3050.0875	3064.8073	3133.7404	3518.9173	3649.7969
CC1=C(NC=N)ON=N1	Cc1c(NC=N)onn1	
InChI=1S/C4H6N4O/c1-3-4(6-2-5)9-8-7-3/h2H,1H3,(H2,5,6)	InChI=1S/C4H6N4O/c1-3-4(6-2-5)9-8-7-3/h2H,1H3,(H2,5,6)
