18
gdb 73649	2.36953	1.75158	1.47536	2.9469	72.49	-0.2575	0.0186	0.2761	989.2701	0.148478	-439.098181	-439.090313	-439.089369	-439.130387	30.396	
C	-0.1281432748	 1.4785913245	 0.0408374534	-0.466266
C	 0.0118668979	-0.0250571855	 0.0168868233	 0.282758
O	-1.2624903457	-0.6301093454	-0.0504696055	-0.283898
C	-1.1449425494	-1.966586235	 0.4373249429	-0.100364
C	-0.1178682439	-1.8884960448	 1.5835571696	-0.247558
C	 0.8271115638	-0.8038588533	 1.0943373523	 0.062626
O	 1.7496939534	-1.2776571589	 0.0561311665	-0.281768
C	 1.0618437698	-0.6106983629	-0.940503019	 0.389519
N	 1.2720501394	-0.537546821	-2.1726841545	-0.553478
H	 0.8489108253	 1.9586784891	 0.1405167461	 0.127424
H	-0.5825332731	 1.8191205769	-0.8932120878	 0.152268
H	-0.7668902918	 1.7855810871	 0.8737023879	 0.125036
H	-2.1377547949	-2.2938551361	 0.7519955627	 0.116632
H	-0.7907290649	-2.6374494972	-0.3578383213	 0.115212
H	-0.5985545911	-1.5558646608	 2.5093771071	 0.116357
H	 0.3929969007	-2.8347960582	 1.7750724293	 0.122506
H	 1.3676852218	-0.2519194445	 1.8635641174	 0.095053
H	 2.0923092874	-1.0812348641	-2.4488235405	 0.227941
105.0447	182.7177	203.5113	227.068	283.4554	301.907	377.0724	495.7883	603.8274	637.2482	680.5858	707.3404	806.0295	835.2728	872.3213	887.0687	898.4449	926.9069	955.1485	1000.0996	1021.6757	1057.4393	1098.8984	1155.08	1158.5824	1195.7905	1215.0261	1239.4865	1267.7549	1313.9578	1338.1413	1353.9346	1388.1954	1411.1976	1467.8569	1479.778	1492.14	1520.7249	1823.2022	3011.063	3048.6806	3058.4117	3110.5098	3116.0159	3121.2875	3126.2019	3129.5589	3466.7898
CC12OCCC1OC2=N	C[C@]12OCC[C@H]1O[C]2[NH]	
InChI=1S/C6H9NO2/c1-6-4(2-3-8-6)9-5(6)7/h4,7H,2-3H2,1H3	InChI=1S/C6H9NO2/c1-6-4(2-3-8-6)9-5(6)7/h4,7H,2-3H2,1H3/t4-,6+/m1/s1
