19
gdb 104289	2.35748	1.39167	1.13279	4.3213	72.15	-0.2399	-0.0204	0.2195	1166.3342	0.155621	-460.134772	-460.125011	-460.124067	-460.169847	34.494	
C	-0.0356303632	 1.4147149349	-0.0444637475	-0.256641
O	 0.3512221101	 0.0561080012	-0.1158445538	-0.279793
C	 0.7930791303	-0.5208321445	 1.0912488626	 0.344361
C	 2.0983589295	 0.0745681876	 1.6040952474	-0.456785
C	-0.2818191189	-0.7687280177	 2.1870082976	-0.120445
O	 0.008211839	-2.1823857234	 2.1876420549	-0.267215
C	 0.7915442055	-2.0757662857	 0.9971360111	-0.033048
C	 0.1085306122	-2.6179538702	-0.2471544418	 0.158348
O	-0.9980008081	-3.0841194387	-0.2666801626	-0.242241
H	 0.8170828389	 2.083100816	 0.1339975252	 0.116065
H	-0.4788423403	 1.6644228676	-1.0106591958	 0.139281
H	-0.7863677272	 1.5854918605	 0.7404502167	 0.1147
H	 1.9709487818	 1.1174994513	 1.9101522874	 0.124141
H	 2.4497352639	-0.4856446837	 2.4750725545	 0.137108
H	 2.8668755467	 0.0327111786	 0.8260357625	 0.128418
H	-0.1116948655	-0.3146845878	 3.1689160403	 0.104952
H	-1.3043567641	-0.5647988738	 1.8476862039	 0.115902
H	 1.7762752488	-2.5556759471	 1.0959253914	 0.094964
H	 0.7426077405	-2.5567423551	-1.1603517439	 0.077929
63.9206	84.5221	104.6941	176.2368	196.2415	233.9484	262.9032	291.7711	314.1455	370.1597	433.7631	504.7917	639.653	758.1476	785.5778	881.7582	915.8623	928.5359	948.3951	991.9552	1023.6016	1095.1836	1103.2683	1158.0475	1172.6219	1179.4862	1186.1274	1231.0832	1240.3527	1275.2952	1337.2904	1356.5403	1405.2401	1417.2975	1475.831	1485.8561	1488.0316	1502.8067	1506.4895	1510.5812	1843.4809	2876.4226	2994.6649	3005.9956	3024.4035	3039.4276	3050.809	3080.6767	3110.9702	3120.0028	3124.8223
COC1(C)COC1C=O	CO[C@@]1(C)CO[C@H]1C=O	
InChI=1S/C6H10O3/c1-6(8-2)4-9-5(6)3-7/h3,5H,4H2,1-2H3	InChI=1S/C6H10O3/c1-6(8-2)4-9-5(6)3-7/h3,5H,4H2,1-2H3/t5-,6-/m0/s1
