15
gdb 50202	2.95244	1.36258	1.26798	5.1814	65.94	-0.2466	-0.0527	0.1938	1023.2022	0.110658	-457.737103	-457.729342	-457.728398	-457.770313	28.071	
O	-0.5491748121	 0.4394708739	 0.3707875628	-0.234186
C	 0.0268377687	 1.4707246168	 0.5924176917	 0.143118
C	 1.345240113	 1.8752013803	-0.0207798727	 0.05746
O	 2.0297639389	 0.8458350916	-0.7514897269	-0.284013
C	 2.2020033831	 1.7016223841	-1.9063793394	 0.002307
C	 1.2790776784	 2.7938943788	-1.2705846627	-0.137868
C	 0.1486901213	 2.4495174891	-2.2839435941	-0.376509
C	 1.0923444225	 1.420444824	-2.9494336927	 0.423698
O	 1.0177427521	 0.7256209795	-3.9152699133	-0.276104
H	-0.395166292	 2.249971071	 1.2706343108	 0.079334
H	 1.9869778555	 2.2929823763	 0.7705542751	 0.100322
H	 3.2455493562	 1.8109940936	-2.211300368	 0.102757
H	 1.5571055208	 3.8383211291	-1.1585233238	 0.100824
H	-0.7829563633	 2.0413094908	-1.8849993264	 0.156241
H	-0.094092743	 3.2729207111	-2.9625121704	 0.142619
52.0003	87.2343	174.5938	227.5513	275.2923	391.982	446.4395	511.6814	596.4682	712.2201	746.2702	781.5851	822.7913	877.532	919.5177	949.0172	984.4194	1022.1588	1045.9508	1068.2905	1111.7088	1125.3189	1160.8367	1195.0961	1225.9019	1265.0143	1271.0749	1301.0517	1357.6646	1416.1082	1433.9683	1838.178	1905.9033	2853.452	2990.0542	3065.4299	3088.8513	3121.5047	3153.1844
O=CC1OC2C1CC2=O	O=C[C@H]1O[C@@H]2[C@H]1CC2=O	
InChI=1S/C6H6O3/c7-2-5-3-1-4(8)6(3)9-5/h2-3,5-6H,1H2	InChI=1S/C6H6O3/c7-2-5-3-1-4(8)6(3)9-5/h2-3,5-6H,1H2/t3-,5+,6+/m0/s1
