23
gdb 88429	2.42767	1.15079	1.09363	1.3602	85.83	-0.2376	0.081	0.3186	1301.7402	0.204041	-388.260462	-388.250386	-388.249442	-388.295083	38.689	
C	-1.8388969389	 0.3590137868	 1.717398345	-0.406454
C	-0.9237479952	-0.6205133266	 1.0163982286	 0.014541
C	-0.0157113371	-0.1651201368	-0.0987807257	-0.315717
C	 0.5808306285	-0.6190798928	 1.2145220264	-0.086764
C	 1.3073734359	 0.3162136876	 2.1568197275	 0.321277
C	 1.6001533735	 1.7277117578	 1.6801326827	-0.469783
C	 1.0715175094	 0.1265740588	 3.6528066357	-0.361072
C	 2.3716741352	-0.3098019271	 3.032431292	 0.055149
O	 2.6427845685	-1.6715395107	 2.8664288868	-0.416373
H	-1.3750226117	 1.3431661393	 1.8278515235	 0.118056
H	-2.7694547497	 0.4947356084	 1.1545048448	 0.112273
H	-2.1073747049	 0.010575898	 2.7209319851	 0.112543
H	-1.3606716284	-1.6085118843	 0.8899144427	 0.076029
H	 0.1153628513	-0.7974853871	-0.9705872741	 0.105004
H	-0.0100426594	 0.8963690776	-0.3243195484	 0.10531
H	 1.0311958041	-1.6054869817	 1.1935115519	 0.104799
H	 0.6844339888	 2.3069152302	 1.5190456589	 0.118442
H	 2.1987590691	 2.2708366835	 2.418642258	 0.107271
H	 2.1572576945	 1.7161320822	 0.7373833212	 0.123251
H	 1.0627936854	 0.9963159111	 4.3024355523	 0.103964
H	 0.383389737	-0.6627055157	 3.9378545636	 0.110247
H	 3.2559545818	 0.2970658498	 3.2300310631	 0.079979
H	 2.6933456222	-2.0740813384	 3.7390264783	 0.288028
50.2967	146.2491	184.9146	210.3604	215.6931	235.8483	252.174	285.6102	337.561	355.6725	432.3926	458.5918	490.8421	579.0414	676.7228	778.607	794.1722	848.1532	869.6165	893.2752	919.6284	936.9926	960.1396	1028.7482	1039.5894	1042.4213	1076.7033	1088.8094	1107.6417	1116.6074	1139.3145	1155.3811	1182.747	1202.4279	1229.8687	1279.3485	1293.0362	1329.1928	1393.1133	1411.9776	1414.0538	1420.2944	1427.8238	1478.4844	1484.7779	1490.0932	1500.376	1504.4937	1507.1601	3027.8926	3029.9444	3084.6306	3087.7448	3092.0844	3099.2611	3105.2869	3121.3101	3127.5688	3129.7861	3166.4298	3209.7548	3211.1459	3813.7166
CC1CC1C1(C)CC1O	C[C@H]1C[C@H]1[C@@]1(C)C[C@H]1O	
InChI=1S/C8H14O/c1-5-3-6(5)8(2)4-7(8)9/h5-7,9H,3-4H2,1-2H3	InChI=1S/C8H14O/c1-5-3-6(5)8(2)4-7(8)9/h5-7,9H,3-4H2,1-2H3/t5-,6+,7+,8+/m0/s1
