18
gdb 124761	4.26787	0.92807	0.90569	2.2787	75.42	-0.256	-0.0086	0.2474	1375.9621	0.146314	-439.092099	-439.08284	-439.081895	-439.126645	33.454	
C	 0.0189523997	 1.5621914102	 0.1952008075	-0.402707
C	 0.0030003029	 0.0387918628	 0.0212857958	 0.014016
O	 0.6909240507	-0.6191953852	 1.0794289216	-0.424258
C	-1.3937825804	-0.4945761127	-0.118405146	 0.469491
C	-2.0751497041	-1.1379430868	-1.0998994974	-0.449482
C	-3.367689881	-1.3642355444	-0.5368986006	 0.397988
C	-4.5496270349	-2.0380637899	-1.1564320286	-0.493339
N	-3.4443390592	-0.8939921812	 0.6858658079	-0.20147
O	-2.1924393134	-0.3344558373	 0.9547911615	-0.238091
H	 1.0500906821	 1.9029160237	 0.3171365682	 0.128313
H	-0.4206048404	 2.0617809914	-0.6737159504	 0.123351
H	-0.5563780037	 1.853066137	 1.0796712476	 0.131075
H	 0.5501774773	-0.2308268521	-0.8874511004	 0.106073
H	 0.1706653969	-0.4978876232	 1.882166057	 0.291905
H	-1.7167393442	-1.419879962	-2.0762564386	 0.117925
H	-4.3088905476	-3.0686440887	-1.4367818545	 0.139702
H	-5.384527676	-2.05249364	-0.4535367777	 0.151139
H	-4.8650614846	-1.5158762915	-2.0655923429	 0.13837
44.2243	112.835	135.1974	169.926	247.4623	260.6403	285.1575	328.6685	374.6304	434.2222	502.3507	637.8223	666.7091	721.7551	741.9588	819.5725	897.6122	938.9412	981.6916	1004.9609	1029.2092	1045.5087	1067.0968	1084.4927	1103.4421	1155.8451	1261.986	1311.2402	1342.828	1400.5969	1406.6701	1421.0221	1449.0874	1479.5415	1482.3046	1489.0254	1492.4901	1535.3426	1649.1133	3041.019	3043.3486	3069.047	3099.7517	3115.561	3128.7411	3140.965	3271.278	3801.3126
CC(O)C1=CC(C)=NO1	C[C@@H](O)c1cc(C)no1	
InChI=1S/C6H9NO2/c1-4-3-6(5(2)8)9-7-4/h3,5,8H,1-2H3	InChI=1S/C6H9NO2/c1-4-3-6(5(2)8)9-7-4/h3,5,8H,1-2H3/t5-/m1/s1
