14
gdb 15204	2.5049	1.9432	1.50444	6.1156	66.54	-0.3063	-0.0095	0.2968	886.2328	0.107037	-341.602896	-341.595012	-341.594068	-341.63532	27.797	
C	-0.0986854213	 1.5518038988	-0.008548108	-0.418453
C	 0.0347212383	 0.0482333136	 0.0374433994	-0.030554
C	 1.3655077472	-0.6370119563	-0.2100543973	-0.194234
C	 2.5478498414	 0.135883197	-0.4692108942	 0.308907
N	 3.4978401376	 0.7525840743	-0.7018460306	-0.324344
C	 0.7317101001	-0.6504198649	 1.1897879336	-0.194233
C	 1.3114956233	 0.1097239976	 2.2614643081	 0.308902
N	 1.7590496252	 0.7157892643	 3.1385622969	-0.324338
H	 0.7855307002	 2.048893581	 0.3964562812	 0.164511
H	-0.2354549015	 1.8883403699	-1.0403001654	 0.140083
H	-0.9665226099	 1.8728805105	 0.5747558864	 0.140086
H	-0.8160019896	-0.5021332068	-0.3530078521	 0.122119
H	 1.3453504884	-1.5904895413	-0.7270578618	 0.150775
H	 0.3367843906	-1.6118273077	 1.5005099238	 0.150774
97.5881	124.278	156.2533	175.8304	260.3474	339.3235	377.4646	470.2054	562.554	639.1718	658.0645	747.9537	786.0369	833.7327	952.6716	962.9337	1023.3449	1085.1732	1098.2964	1150.674	1162.6908	1236.351	1362.2846	1368.6576	1411.2192	1428.5169	1486.7795	1498.4812	2360.4712	2361.1469	3049.7427	3117.4296	3132.5643	3159.5566	3168.3302	3177.8373
CC1C(C#N)C1C#N	C[C@H]1[C@@H](C#N)[C@H]1C#N	
InChI=1S/C6H6N2/c1-4-5(2-7)6(4)3-8/h4-6H,1H3	InChI=1S/C6H6N2/c1-4-5(2-7)6(4)3-8/h4-6H,1H3/t4-,5+,6-
