19
gdb 102488	2.25036	1.14267	0.82699	1.9617	69.38	-0.2604	0.0041	0.2645	1416.2346	0.156327	-497.31154	-497.300869	-497.299925	-497.348207	36.234	
C	-0.0268484721	 1.2465695003	-0.1264198476	-0.246075
O	-0.1915857242	-0.1371754303	 0.1321372287	-0.2422
C	 0.6540411064	-0.6606582564	 1.1245816623	-0.028359
C	 0.0606047385	-2.0269875981	 1.5058100594	-0.070222
O	-1.2719744171	-1.8847340466	 1.9371123032	-0.419823
C	 2.0969084712	-0.7999051666	 0.6361094162	 0.419262
O	 2.4856457784	-0.5800621387	-0.4811015703	-0.353111
O	 2.8854640998	-1.2184565989	 1.645425644	-0.231892
C	 4.2679140606	-1.4077029887	 1.3103146862	-0.241925
H	 0.9635690156	 1.4600812048	-0.5422733344	 0.136682
H	-0.7893119286	 1.5235093947	-0.8576524961	 0.131627
H	-0.1759094602	 1.8411739582	 0.787347507	 0.10739
H	 0.653866058	-0.0195143027	 2.020724658	 0.096524
H	 0.1392886424	-2.6965497645	 0.6344365645	 0.101219
H	 0.6347325632	-2.4600378413	 2.3276503614	 0.125101
H	-1.7106537268	-1.3621292707	 1.2543162246	 0.290439
H	 4.372416301	-2.1513013216	 0.516577427	 0.144945
H	 4.7124060552	-0.4681369568	 0.9728590991	 0.142858
H	 4.7503325787	-1.7523536262	 2.2246191867	 0.137559
44.7423	103.1953	114.0443	123.2147	126.715	174.6468	203.1952	251.4726	262.263	338.3197	350.1916	462.812	480.8386	508.9326	677.0047	776.0564	853.2229	935.6586	1007.8155	1059.719	1081.2296	1097.284	1165.3366	1177.931	1180.2481	1202.7291	1206.5038	1226.2254	1267.3363	1286.3739	1377.6142	1389.3722	1432.3275	1472.3405	1480.8431	1481.9342	1487.2389	1496.3665	1502.885	1513.0348	1828.2695	2976.5542	2990.3885	2994.7763	3054.1397	3077.9107	3113.6411	3127.26	3129.8443	3162.9936	3784.4102
COC(CO)C(=O)OC	CO[C@@H](CO)C(=O)OC	
InChI=1S/C5H10O4/c1-8-4(3-6)5(7)9-2/h4,6H,3H2,1-2H3	InChI=1S/C5H10O4/c1-8-4(3-6)5(7)9-2/h4,6H,3H2,1-2H3/t4-/m0/s1
