17
gdb 7680	4.03838	1.61745	1.52228	3.9149	68.97	-0.2417	0.0097	0.2513	903.8798	0.141698	-363.863513	-363.855838	-363.854893	-363.894965	29.558	
C	 0.0382809603	 1.5157402439	 0.0922317449	-0.461889
C	 0.0728522437	 0.0017192331	 0.0363072466	 0.30829
C	-1.1861729399	-0.6207336021	-0.5441474897	-0.452345
C	 1.3348577607	-0.7762035031	-0.2263065224	-0.053933
N	 2.5318055074	-0.172157746	 0.3605150547	-0.344315
C	 1.9665956026	-0.1535902509	 1.6522190071	 0.410019
O	 2.3752754559	 0.2787403949	 2.6923554245	-0.345871
C	 0.7057761041	-0.8473232162	 1.1597320707	-0.268514
H	 0.9615559274	 1.9430847449	 0.489284308	 0.12836
H	-0.1250376313	 1.9306248102	-0.9090943867	 0.117352
H	-0.7836916185	 1.8562128113	 0.730735814	 0.128944
H	-1.3692977714	-0.2433947462	-1.5563121427	 0.123587
H	-1.1108765556	-1.7112784478	-0.5978545929	 0.120079
H	-2.061072238	-0.3742018164	 0.0667086671	 0.128059
H	 1.4263810475	-1.5686949766	-0.9588801453	 0.109038
H	 3.0303478712	 0.6156753125	-0.0378617062	 0.241137
H	 0.1722974339	-1.6564647556	 1.6387672585	 0.112002
142.1173	199.1602	202.3816	236.7677	295.0197	347.3534	403.7241	461.0661	511.2284	614.1622	653.9331	733.4716	777.3864	847.8243	853.2898	932.2816	962.6523	968.7832	1023.4293	1028.6358	1042.6663	1078.7007	1131.7286	1146.9983	1185.662	1265.3416	1298.4137	1327.5257	1378.5333	1410.6478	1428.1961	1480.561	1489.6236	1501.4388	1510.1876	1893.8748	3028.7189	3034.4866	3092.0447	3095.7457	3104.3591	3124.2352	3188.5554	3218.6516	3546.6625
CC1(C)C2NC(=O)C12	CC1(C)[C@H]2NC(=O)[C@@H]12	
InChI=1S/C6H9NO/c1-6(2)3-4(6)7-5(3)8/h3-4H,1-2H3,(H,7,8)	InChI=1S/C6H9NO/c1-6(2)3-4(6)7-5(3)8/h3-4H,1-2H3,(H,7,8)/t3-,4-/m0/s1
