14
gdb 19424	4.32658	2.04669	1.65463	0.818	62.41	-0.2521	-0.0188	0.2332	769.6951	0.107514	-382.496151	-382.490079	-382.489135	-382.526188	23.957	
C	 0.0162299387	 1.5070605199	-0.0265530331	-0.241454
O	 1.1919573268	 0.6989440315	-0.0034433117	-0.278743
C	-0.0836025291	 0.0407915108	 0.0075268146	 0.428074
C	-0.4749868648	-0.7690773634	 1.1974838089	-0.158854
C	-0.9702320168	-1.9553416427	 0.8262080156	-0.095964
C	-1.0075371696	-2.0602706521	-0.6663532641	-0.007118
O	-1.853977017	-1.0637389625	-1.292778854	-0.252982
C	-0.4534281388	-0.8023440747	-1.1915564969	-0.081118
H	-0.1781263042	 2.0786898932	 0.8800094421	 0.120044
H	-0.1800901075	 2.0323743471	-0.9600751467	 0.123841
H	-0.3795341389	-0.3959888169	 2.2098439759	 0.114875
H	-1.3357457543	-2.7288526429	 1.4893730403	 0.113983
H	-0.9557546771	-3.0114489292	-1.1857789761	 0.105227
H	 0.1023251327	-0.7041421981	-2.1197609849	 0.11019
148.5449	252.2233	329.2281	400.2848	446.525	532.5266	627.3603	754.5446	767.1516	832.6717	849.8984	868.1809	880.7337	920.6221	945.5068	967.033	997.3885	1027.9153	1097.378	1113.4286	1128.0558	1161.5018	1233.6547	1245.7772	1302.1362	1345.5492	1384.779	1439.1206	1527.6161	1646.1058	3082.8972	3158.8603	3171.4838	3174.9159	3204.1486	3227.4313
C1OC11C=CC2OC12	C1O[C@]21C=C[C@H]1O[C@@H]21	
InChI=1S/C6H6O2/c1-2-6(3-7-6)5-4(1)8-5/h1-2,4-5H,3H2	InChI=1S/C6H6O2/c1-2-6(3-7-6)5-4(1)8-5/h1-2,4-5H,3H2/t4-,5-,6+/m1/s1
