23
gdb 90116	2.79022	1.56254	1.40046	0.2016	90.33	-0.2268	0.0748	0.3015	1076.0794	0.208555	-351.071855	-351.064169	-351.063225	-351.103393	32.604	
C	-0.2512578104	 1.6096052121	-0.140835512	-0.408161
C	-0.0825541828	 0.0966337456	-0.0474057827	-0.040621
C	 0.9252312919	-0.6432526884	-1.0572046192	-0.358062
C	 1.9200582229	-0.7675011555	 0.1375202959	 0.319688
C	 2.5626664334	-1.7047973315	 1.2249091591	-0.322244
C	 1.8848283199	-0.6177102872	 2.1958396122	-0.086075
C	 2.7300314772	 0.6259813925	 1.9029897538	-0.203383
C	 2.8028186137	 0.4942023393	 0.3540738825	-0.235127
C	 0.7590319206	-0.6263056466	 1.0902330238	 0.025365
H	 0.680650886	 2.169566577	-0.0531987494	 0.122604
H	-0.7102139266	 1.8804116555	-1.0988518266	 0.114289
H	-0.9196144913	 1.9611331231	 0.6530074816	 0.116265
H	-1.0859374353	-0.3386086069	-0.0957677809	 0.074184
H	 0.5019416684	-1.5930241943	-1.3939297357	 0.101906
H	 1.2668396771	-0.0784340022	-1.9304179595	 0.094184
H	 2.0941847673	-2.6869470517	 1.3050645736	 0.099335
H	 3.6542490315	-1.7940870494	 1.2721794939	 0.084575
H	 1.6747160519	-0.8566553099	 3.2406223506	 0.057971
H	 2.2395730146	 1.5483263834	 2.227943334	 0.095083
H	 3.7115931956	 0.5823239759	 2.384342418	 0.092016
H	 3.8208240988	 0.3028127868	-0.0017835845	 0.091396
H	 2.4475069634	 1.3789275766	-0.1723169079	 0.092668
H	 0.2679548323	-1.6012429245	 1.1869848393	 0.072143
150.0669	189.485	224.4176	316.9993	331.1005	385.1849	439.2728	488.8051	589.6848	633.1707	710.9745	735.2606	767.9035	824.9247	838.1775	844.5167	863.7414	909.8143	943.6813	949.4969	975.5438	993.92	1009.0448	1028.8265	1073.2963	1077.1956	1092.931	1120.1245	1143.8766	1160.0498	1179.2379	1191.6378	1213.836	1227.1665	1244.2576	1248.3808	1260.105	1265.9643	1315.2381	1327.5185	1375.0065	1406.3784	1434.367	1478.8463	1487.312	1493.2601	1498.3438	1505.9093	1530.1797	3016.8637	3032.4666	3034.3744	3042.9463	3045.5798	3050.0237	3053.8327	3087.1848	3089.3049	3092.3456	3107.3952	3124.5345	3127.1403	3146.691
CC1CC23CC(CC2)C13	C[C@H]1C[C@@]23C[C@@H](CC2)[C@@H]13	
InChI=1S/C9H14/c1-6-4-9-3-2-7(5-9)8(6)9/h6-8H,2-5H2,1H3	InChI=1S/C9H14/c1-6-4-9-3-2-7(5-9)8(6)9/h6-8H,2-5H2,1H3/t6-,7+,8+,9+/m0/s1
