13
gdb 132950	2.401	1.8046	1.03126	3.9596	65.63	-0.2184	-0.0442	0.1742	1033.8508	0.089597	-497.880789	-497.873464	-497.87252	-497.912474	28.083	
N	 0.0056741488	 1.3801531018	 0.1440908523	-0.579384
C	-0.0497235816	 0.0053863862	 0.049190679	 0.121048
C	-1.1841292606	-0.7370045391	 0.0272509341	-0.026985
O	-1.1854420776	-2.0959919071	-0.0126074412	-0.174034
C	-0.0152251156	-2.7465189034	-0.0262604963	-0.047428
C	 1.172510262	-2.1034414483	-0.0126829436	 0.092325
F	 2.2997853759	-2.8084101097	-0.0401452434	-0.056669
C	 1.2694413594	-0.6568095982	 0.0122589602	 0.258717
O	 2.314622623	-0.0156998849	-0.0067081321	-0.397617
H	 0.9332882868	 1.7225919565	-0.0777782842	 0.269406
H	-0.7474629615	 1.9082882061	-0.2672613586	 0.251955
H	-2.1908439388	-0.3425972249	 0.0432985524	 0.132848
H	-0.1212804402	-3.822596595	-0.0528030786	 0.155818
117.2328	250.5276	289.8695	316.921	322.7688	373.5118	461.9878	492.0766	516.4685	525.6937	585.5574	626.9638	684.782	789.964	826.4454	858.4907	876.1314	1028.9807	1088.1916	1160.1017	1248.2507	1329.8655	1355.9446	1400.47	1452.6048	1608.5966	1655.9822	1685.1381	1728.9806	3228.1975	3233.965	3537.6166	3670.3199
NC1=COC=C(F)C1=O	Nc1cocc(F)c1=O	
InChI=1S/C5H4FNO2/c6-3-1-9-2-4(7)5(3)8/h1-2H,7H2	InChI=1S/C5H4FNO2/c6-3-1-9-2-4(7)5(3)8/h1-2H,7H2
