18
gdb 24586	4.68232	1.06826	0.97425	1.818	79.96	-0.1992	0.0324	0.2315	1238.3542	0.150189	-401.965488	-401.957778	-401.956834	-401.998549	29.196	
C	-0.1502324463	 0.9847432747	 0.7566955426	-0.068076
C	 0.5367125654	 0.8941574863	-0.6151911416	-0.281655
C	 1.8112969693	 0.5432785227	 0.2083260751	 0.020246
O	 1.0033875907	 0.4127725411	 1.415913132	-0.303348
C	 2.5737693394	-0.6930252316	-0.0869449117	 0.31697
C	 3.751424354	-0.9173292788	-0.769273105	-0.24896
C	 3.9679247834	-2.3227510314	-0.7977031195	-0.139725
C	 2.9233075851	-2.9127161586	-0.122300839	-0.093723
N	 2.0762914112	-1.9170088402	 0.2871505993	-0.2796
H	-0.3435794791	 2.0087063764	 1.1022319808	 0.103144
H	-1.0513046142	 0.3820695012	 0.9136535124	 0.104512
H	 0.1903503664	 0.0630643162	-1.2314808656	 0.115927
H	 0.5799208395	 1.8034536438	-1.216048601	 0.11099
H	 2.4999478393	 1.39536795	 0.283999406	 0.085252
H	 4.3788199485	-0.1560934451	-1.2082660886	 0.088522
H	 4.7970770067	-2.8395910435	-1.2560097566	 0.092448
H	 2.7220766765	-3.9459777318	 0.110914257	 0.113994
H	 1.2893036043	-2.0118172615	 0.9067686236	 0.263084
52.605	105.8867	136.2282	210.5076	369.2038	409.8454	557.4629	635.9889	652.3347	685.4232	721.7936	772.3379	796.9702	850.0112	857.5249	896.6269	906.5119	945.4093	979.7824	1006.7837	1034.0661	1053.7941	1087.3702	1115.3424	1145.0424	1170.0937	1210.719	1250.8703	1254.6753	1266.2002	1292.9461	1349.5263	1361.6588	1440.5993	1464.1376	1487.605	1498.9185	1532.0817	1609.5737	3010.4529	3017.5423	3063.9901	3083.0823	3141.9543	3238.6507	3251.4238	3270.4184	3673.2576
C1CC(O1)C1=CC=CN1	C1C[C@@H](O1)c1ccc[nH]1	
InChI=1S/C7H9NO/c1-2-6(8-4-1)7-3-5-9-7/h1-2,4,7-8H,3,5H2	InChI=1S/C7H9NO/c1-2-6(8-4-1)7-3-5-9-7/h1-2,4,7-8H,3,5H2/t7-/m1/s1
