20
gdb 94994	2.7357	1.7285	1.31759	2.3121	77.12	-0.2248	0.0713	0.2961	1015.5128	0.174178	-403.113874	-403.106457	-403.105513	-403.145367	30.367	
O	-0.068131824	 1.4409701533	 0.0104857311	-0.443303
C	 0.0364920333	 0.0224846811	 0.0116015724	 0.133848
C	 0.8617213024	-0.4937222398	 1.1909520628	-0.253778
C	 0.7512510183	-2.0224725019	 1.3127703619	-0.243636
C	-0.621085309	-2.5852147041	 0.9893627453	 0.011948
C	-1.9638753187	-2.0825801499	 1.3612941365	-0.045365
C	-2.0918555856	-0.5682351568	 1.4494722586	-0.266639
C	-1.3849504335	-0.5199117335	 0.0695461452	 0.030028
N	-1.4682732416	-2.0294776617	-0.0873388507	-0.174019
H	 0.8224191253	 1.8054810703	 0.0374917199	 0.280677
H	 0.483223698	-0.3345322998	-0.9327020074	 0.070742
H	 1.9140319878	-0.2064781774	 1.0738241485	 0.084714
H	 0.5032805885	-0.0010215024	 2.0998435326	 0.112529
H	 1.4541809755	-2.4893010248	 0.6103786619	 0.109666
H	 1.0593315156	-2.349586847	 2.3128075423	 0.106333
H	-0.6027906855	-3.6714804184	 0.904796321	 0.091501
H	-2.7466969685	-2.7776272211	 1.6527927722	 0.089268
H	-3.1330080635	-0.2499444412	 1.3702158278	 0.111279
H	-1.6406360733	-0.0569016275	 2.3026993877	 0.104545
H	-1.9824384615	-0.0423995272	-0.7081564396	 0.08966
132.324	196.7313	262.0817	298.0576	350.7754	380.9661	468.6803	474.6825	555.8479	652.7812	735.7339	744.6659	786.1359	840.837	865.3635	901.454	945.6969	961.3473	992.0555	1009.8957	1047.3505	1066.3142	1081.3377	1101.6057	1105.3595	1153.8093	1160.4951	1203.946	1217.2423	1228.841	1262.9818	1268.6144	1285.9875	1334.4438	1340.7539	1374.4635	1378.5063	1409.4258	1433.6018	1450.2803	1482.6274	1493.5073	1521.1504	2951.1848	3017.6496	3031.9311	3054.5594	3068.9052	3087.7044	3096.6304	3109.9387	3118.426	3146.343	3813.3229
OC1CCC2C3CC1N23	O[C@H]1CC[C@H]2[C@H]3C[C@@H]1N23	
InChI=1S/C7H11NO/c9-7-2-1-4-5-3-6(7)8(4)5/h4-7,9H,1-3H2	InChI=1S/C7H11NO/c9-7-2-1-4-5-3-6(7)8(4)5/h4-7,9H,1-3H2/t4-,5+,6-,7-,8?/m0/s1
