15
gdb 42286	3.39445	1.26613	0.93283	5.4504	72.88	-0.2602	-0.0493	0.2109	1171.6286	0.113577	-416.849015	-416.840995	-416.840051	-416.882354	28.544	
O	-0.0362010422	-0.0412850582	 0.0041352038	-0.358626
C	-0.0906218072	 1.1737080642	 0.0068125061	 0.345363
C	 1.1435209273	 1.9888022485	 0.0009156197	 0.221212
N	 2.1281292751	 2.5937194711	-0.003762298	-0.330815
N	-1.2272116097	 1.9001850886	 0.0150051663	-0.119822
C	-1.339292723	 3.3672400803	 0.0198127493	-0.211595
C	-2.8317417216	 3.5593553346	 0.0314867021	-0.077909
C	-3.479741406	 2.3989151424	 0.0329617367	-0.079753
C	-2.5339732183	 1.2310298892	 0.022553418	-0.201012
H	-0.850930368	 3.8054363022	 0.9004160573	 0.143691
H	-0.864228174	 3.8102118763	-0.865676867	 0.143643
H	-3.2764374377	 4.5457358469	 0.0375842329	 0.121014
H	-4.5535308531	 2.265478676	 0.0405067716	 0.120307
H	-2.6463549835	 0.5855269756	-0.8586056089	 0.142125
H	-2.6333369781	 0.5801967924	 0.9013382101	 0.142177
63.9977	107.1103	128.6288	224.334	256.785	341.8122	404.5139	465.1197	505.4861	657.8784	694.7097	758.1404	805.1836	814.5688	948.7087	967.0879	991.0339	1007.2262	1023.9897	1036.1658	1133.1469	1198.3141	1208.0059	1220.237	1329.4707	1357.1541	1382.9414	1431.9496	1506.4907	1514.81	1697.4347	1764.1966	2347.9537	3010.7047	3018.0745	3036.6554	3040.3681	3215.6641	3238.2694
O=C(C#N)N1CC=CC1	O=C(C#N)N1CC=CC1	
InChI=1S/C6H6N2O/c7-5-6(9)8-3-1-2-4-8/h1-2H,3-4H2	InChI=1S/C6H6N2O/c7-5-6(9)8-3-1-2-4-8/h1-2H,3-4H2
