15
gdb 45012	2.45733	1.87461	1.2385	2.1327	67.9	-0.2676	-0.0311	0.2366	977.8474	0.11419	-453.960359	-453.953238	-453.952294	-453.992144	27.24	
N	-0.1058751644	 0.8620570783	-0.9330503941	-0.483723
C	-0.0807147874	-0.0330382939	-0.0479772441	 0.367342
C	-1.3286227372	-0.6135080493	 0.5716282463	-0.225094
N	-1.3010368392	-2.0654371971	 0.7499604515	-0.095132
C	-0.639608683	-2.8403516157	-0.2823741229	-0.253044
C	 0.0255457964	-2.6189034514	 1.0464227909	-0.157282
C	 1.2088899759	-1.7197559515	 1.1277090428	 0.430125
O	 2.2174950605	-1.982010106	 1.7131279511	-0.30808
O	 1.1167971686	-0.512820561	 0.4595638167	-0.23728
H	 0.842151576	 1.142144536	-1.1945112589	 0.236841
H	-1.4744011503	-0.1640531783	 1.5613129641	 0.145261
H	-2.1782674481	-0.3386260598	-0.0547078517	 0.15598
H	-1.0691155262	-3.816916599	-0.4815767035	 0.142132
H	-0.2293351242	-2.330254637	-1.1510951253	 0.146898
H	 0.0606646325	-3.4236000942	 1.7724974469	 0.135055
108.6516	120.381	245.6145	357.7119	381.1654	454.1249	472.6872	514.7334	595.5169	655.4767	733.425	751.302	855.9403	887.1869	925.7251	943.0078	982.243	1021.1993	1035.4617	1096.1015	1102.5105	1118.6313	1163.4371	1203.5999	1266.2331	1303.8689	1338.5125	1350.1596	1376.7191	1472.9364	1512.7025	1766.3108	1867.4733	3045.1921	3112.7529	3132.7434	3180.0594	3206.0347	3465.9628
N=C1CN2CC2C(=O)O1	[NH][C]1CN2C[C@H]2C(=O)O1	
InChI=1S/C5H6N2O2/c6-4-2-7-1-3(7)5(8)9-4/h3,6H,1-2H2	InChI=1S/C5H6N2O2/c6-4-2-7-1-3(7)5(8)9-4/h3,6H,1-2H2/t3-,7?/m0/s1
