15
gdb 13773	3.72627	1.45788	1.19441	2.4605	61.73	-0.2859	-0.0097	0.2763	987.1119	0.117079	-399.780591	-399.772271	-399.771327	-399.814074	29.551	
C	 0.5612201246	 0.3593306083	-0.6149386977	-0.434476
C	 0.1442568302	-0.0658909369	 0.7900723485	 0.086999
O	-0.0074701497	 1.0582510036	 1.6536407931	-0.422773
C	-1.1358311369	-0.8900763573	 0.8683944935	 0.042855
O	-2.1264042844	-0.7444851624	-0.1532709113	-0.228603
C	-1.5290390531	-2.0310157875	 0.0113410708	-0.100931
C	-0.716992757	-2.5439910776	-1.0707341803	 0.308532
N	-0.0864910711	-3.0087627804	-1.9208694948	-0.328246
H	 1.4227310291	 1.0264559565	-0.5352506958	 0.130264
H	 0.8388509516	-0.4927537376	-1.2383589286	 0.155724
H	-0.2554223651	 0.8892716527	-1.1151350011	 0.129301
H	 0.9415657566	-0.6603775575	 1.2530644967	 0.110563
H	-0.599368862	 1.6834970128	 1.219515306	 0.287109
H	-1.5477223333	-0.9071971688	 1.8786007687	 0.119382
H	-2.1844558395	-2.7870416378	 0.4423479323	 0.1443
30.5723	129.9906	198.6132	243.1113	254.88	277.9893	331.8468	402.4479	427.9236	557.813	609.5971	631.2294	768.2738	838.1154	891.6814	961.4808	967.8813	1044.853	1075.5991	1114.5094	1145.6617	1156.1089	1282.0495	1294.5908	1363.33	1371.1159	1408.86	1420.1134	1445.4679	1493.1807	1501.4708	2358.7331	3042.5013	3051.9825	3107.9446	3123.9684	3126.312	3144.0684	3795.8463
CC(O)C1OC1C#N	C[C@@H](O)[C@H]1O[C@H]1C#N	
InChI=1S/C5H7NO2/c1-3(7)5-4(2-6)8-5/h3-5,7H,1H3	InChI=1S/C5H7NO2/c1-3(7)5-4(2-6)8-5/h3-5,7H,1H3/t3-,4+,5-/m1/s1
