14
gdb 46824	2.64862	1.63697	1.17872	4.7175	67.17	-0.2646	-0.0491	0.2154	1005.4542	0.100935	-436.695941	-436.688469	-436.687525	-436.728141	27.698	
O	 0.0104752716	 0.0437088426	 0.2270674015	-0.281925
C	-0.0008009926	 1.228469518	 0.0472783775	 0.321462
C	-1.2451860734	 2.096561835	-0.1969992231	-0.198762
O	-0.8008664786	 3.3479075192	-0.7035746759	-0.251318
C	 0.5715748005	 3.4913268726	-0.4836398288	 0.085715
C	 1.0814264039	 3.3849711555	 0.9034278875	-0.344807
C	 1.1844041938	 2.1595153625	-0.0406506746	 0.02201
C	 2.4639640326	 1.6718898191	-0.4442154285	 0.222351
N	 3.5055715739	 1.2922407181	-0.7737187497	-0.335956
H	-1.8984912351	 1.6196618884	-0.9328185198	 0.160393
H	-1.8098175287	 2.2140022539	 0.7383500964	 0.142939
H	 1.0545708865	 4.1245659813	-1.2173055791	 0.147514
H	 2.0304097193	 3.8546966774	 1.1329013355	 0.162776
H	 0.382689966	 3.3221179066	 1.730157861	 0.147607
103.2589	137.5981	174.0534	219.946	391.4148	422.1039	474.6255	525.9676	574.5981	609.9133	633.3936	692.7545	832.5269	866.411	884.6577	989.9289	1009.504	1016.9358	1053.1105	1070.0529	1086.0139	1174.6143	1209.6132	1243.7562	1294.6669	1330.316	1397.7408	1475.6423	1485.8975	1859.4946	2357.6012	3018.1755	3096.5275	3145.8648	3204.419	3242.2641
O=C1COC2CC12C#N	O=C1CO[C@H]2C[C@@]12C#N	
InChI=1S/C6H5NO2/c7-3-6-1-5(6)9-2-4(6)8/h5H,1-2H2	InChI=1S/C6H5NO2/c7-3-6-1-5(6)9-2-4(6)8/h5H,1-2H2/t5-,6+/m0/s1
