19
gdb 72925	2.63671	1.97757	1.56308	1.0905	73.16	-0.2407	0.0758	0.3165	926.0964	0.160821	-422.984654	-422.97759	-422.976645	-423.015651	29.243	
C	-0.1350693172	 1.430608611	 0.0280799873	-0.47768
C	 0.0514140505	-0.0664146542	 0.0102506651	 0.470604
O	-1.1822976561	-0.797335283	 0.2613944949	-0.342228
C	-0.6127169763	-1.4539532296	 1.4174948182	-0.118801
C	 0.7713797928	-0.8331011764	 1.1561729002	-0.114561
C	 1.7929335613	-1.5825805538	 0.2759583976	 0.056505
C	 0.9937981621	-2.1219675548	-0.9334940095	-0.24958
C	 0.9091839861	-0.6058671323	-1.1711425704	 0.02226
O	 2.2490130696	-0.4776784021	-0.5834958069	-0.303528
H	 0.825182014	 1.9278864583	-0.1381331553	 0.134982
H	-0.8291186199	 1.7352668563	-0.7630493053	 0.12487
H	-0.5447365957	 1.7668803409	 0.9849445475	 0.118881
H	-1.0917703589	-1.1135243061	 2.3432762429	 0.104979
H	-0.6899708442	-2.5463632578	 1.3581541471	 0.100203
H	 1.2370700732	-0.2696173248	 1.9639774619	 0.085115
H	 2.6020018186	-2.1355336154	 0.752576969	 0.082137
H	 1.6550618336	-2.6007240873	-1.6555562268	 0.111526
H	 0.0760123028	-2.6907862815	-0.7868862688	 0.117606
H	 0.8053593138	-0.1446815172	-2.1534608188	 0.076711
185.3884	225.5993	251.4447	291.0498	346.0656	424.2683	510.8989	552.4715	599.6661	677.8193	786.9372	836.9699	857.41	868.6983	885.8126	898.5068	928.8101	951.681	999.311	1013.2449	1023.3993	1047.6578	1061.6008	1092.7676	1129.4634	1163.2813	1168.255	1188.703	1210.1598	1221.3093	1243.4496	1283.7272	1300.8627	1318.3646	1337.8512	1365.9403	1403.2284	1483.8121	1488.7929	1490.0907	1523.1586	3017.5534	3034.6017	3058.8794	3092.8638	3103.7412	3116.6104	3118.7168	3122.2846	3128.8981	3160.0353
CC12OCC1C1CC2O1	C[C@]12OC[C@H]1[C@H]1C[C@@H]2O1	
InChI=1S/C7H10O2/c1-7-4(3-8-7)5-2-6(7)9-5/h4-6H,2-3H2,1H3	InChI=1S/C7H10O2/c1-7-4(3-8-7)5-2-6(7)9-5/h4-6H,2-3H2,1H3/t4-,5+,6-,7-/m0/s1
