17
gdb 112208	2.57987	1.29585	0.94978	2.2914	71.27	-0.25	0.0015	0.2516	1218.7361	0.135342	-455.097607	-455.088915	-455.087971	-455.131342	32.075	
O	-0.0571239009	 1.4969288514	-0.0664328215	-0.417963
C	-0.0727396925	 0.1643737181	 0.4153839376	-0.074984
C	-1.3399265455	-0.5664323603	-0.0015778177	-0.059507
N	-1.4682973088	-0.7194574042	-1.4796250613	-0.388726
C	-1.6858086663	-2.1125845068	-1.4131202735	 0.320801
N	-2.0244525457	-3.0280498457	-2.2104375155	-0.53636
C	-1.3652373424	-2.1072489328	 0.0659260944	 0.345942
C	-0.6252824071	-3.0710536858	 0.8829027126	-0.258422
O	-2.0365518228	-2.8703847965	 1.0362454826	-0.256671
H	 0.0164790918	 1.4433162379	-1.025659332	 0.286141
H	 0.8045403862	-0.4001967749	 0.0658091646	 0.092538
H	-0.0223690225	 0.2274909943	 1.5076975307	 0.117715
H	-2.2239059304	-0.1177761626	 0.4647720507	 0.103707
H	-2.0498295155	-0.1120811085	-2.0416013831	 0.244522
H	-2.212430296	-2.6716557799	-3.1491733233	 0.216695
H	-0.3365508519	-4.0223226034	 0.4408375842	 0.140676
H	-0.0116946997	-2.7198549204	 1.7110003105	 0.123897
70.6886	112.8856	141.6868	223.8099	238.7958	301.3444	331.2535	377.3685	454.0695	492.2129	596.9244	633.1363	702.9541	756.117	844.0357	862.1494	898.8616	926.8791	988.314	1026.3102	1051.1811	1084.2468	1104.0391	1125.1807	1153.0346	1164.3055	1175.6859	1231.1708	1293.4498	1331.5229	1362.1907	1399.4008	1421.1202	1445.0459	1494.7967	1531.7869	1804.5806	2994.9091	3054.3571	3079.8105	3090.2156	3185.501	3462.8734	3583.7958	3804.2065
OCC1NC(=N)C11CO1	OC[C@H]1N[C]([NH])[C@]21CO2	
InChI=1S/C5H8N2O2/c6-4-5(2-9-5)3(1-8)7-4/h3,8H,1-2H2,(H2,6,7)	InChI=1S/C5H8N2O2/c6-4-5(2-9-5)3(1-8)7-4/h3,8H,1-2H2,(H2,6,7)/t3-,5-/m1/s1
