20
gdb 117535	2.18198	0.99964	0.71698	3.6163	76.05	-0.2738	0.0379	0.3117	1561.8499	0.16836	-440.293013	-440.282066	-440.281122	-440.329601	38.289	
C	-0.0512535515	 1.5581096156	 0.1320940995	-0.413772
C	-0.0193430953	 0.0346492184	 0.0139453934	 0.119448
O	-1.3328301672	-0.4940161093	-0.104438901	-0.426872
C	 0.7242021489	-0.4637275436	-1.2476070726	-0.150774
C	 2.170031248	 0.059641695	-1.3638307013	-0.196407
C	 2.9079501542	-0.4563138566	-2.5950603812	-0.08983
O	 4.1679656944	 0.1949198896	-2.6238993732	-0.422022
C	 0.7028486295	-1.9327427073	-1.2737055578	 0.299913
N	 0.7344937014	-3.0877719856	-1.2984639266	-0.342331
H	 0.9430110044	 1.980930383	 0.2986515854	 0.12975
H	-0.4831524379	 2.0066646458	-0.7683661718	 0.128753
H	-0.6764736611	 1.8457507581	 0.9840877305	 0.113796
H	 0.4883745943	-0.3894087306	 0.8943176045	 0.087646
H	-1.7973692361	-0.3449925011	 0.7246976606	 0.289398
H	 0.1423982831	-0.1172950784	-2.1123073547	 0.131102
H	 2.1494312832	 1.1514524824	-1.4171145701	 0.122267
H	 2.7403289681	-0.2121945158	-0.4687158833	 0.121798
H	 3.0184025647	-1.5481589492	-2.5378690518	 0.118912
H	 2.3202733355	-0.2317019898	-3.5009950808	 0.088797
H	 4.6921845995	-0.1961690405	-3.3286362674	 0.29043
60.5239	87.3536	95.7853	133.0042	149.655	222.9464	233.1235	254.421	267.5034	312.6151	334.5687	400.4577	439.9542	474.7428	552.0539	624.4834	792.9539	856.4721	894.3195	958.8775	1016.6769	1043.8238	1079.7509	1089.345	1103.9721	1124.4842	1141.0194	1212.3897	1229.0051	1269.2549	1303.8928	1316.6981	1341.2555	1351.5858	1378.051	1410.0065	1416.6894	1467.9737	1489.9352	1496.3504	1498.7262	1529.9125	2356.8041	2963.3456	2981.8042	3023.4208	3030.9008	3036.7393	3053.4755	3102.346	3108.0398	3123.5382	3829.6031	3834.9379
CC(O)C(CCO)C#N	C[C@@H](O)[C@@H](CCO)C#N	
InChI=1S/C6H11NO2/c1-5(9)6(4-7)2-3-8/h5-6,8-9H,2-3H2,1H3	InChI=1S/C6H11NO2/c1-5(9)6(4-7)2-3-8/h5-6,8-9H,2-3H2,1H3/t5-,6+/m1/s1
