19
gdb 80048	2.79294	1.5771	1.36911	1.5251	81.17	-0.213	0.0093	0.2223	1021.741	0.16013	-385.866011	-385.858314	-385.85737	-385.897831	31.404	
O	 0.0675526147	 1.3931953999	-0.0505487761	-0.426449
C	-0.0371312283	 0.0070840761	-0.0040096638	 0.127122
C	-0.4336855573	-0.7609003432	 1.2471733479	-0.160851
C	-1.1512533344	 0.0370515205	 2.2814479003	-0.105813
C	-2.3098606272	 0.5259173506	 1.8173505384	-0.188026
C	-2.5755121106	 0.0752139852	 0.4228023548	 0.372914
C	-3.9697343899	-0.3025379952	-0.0360328309	-0.32769
C	-3.3281290103	 0.9485217957	-0.5655345591	-0.300596
C	-1.3556703923	-0.7224993954	 0.012307148	-0.214761
H	-0.4778365792	 1.7494884812	 0.6628942547	 0.283861
H	 0.7508322548	-0.4412442996	-0.6008210712	 0.104574
H	 0.1393229575	-1.6359786873	 1.5348759044	 0.086326
H	-0.7463738422	 0.2172526747	 3.2704296257	 0.101273
H	-2.9866389532	 1.1798935203	 2.3567654043	 0.098185
H	-4.0559426142	-1.1569506968	-0.6998608204	 0.116078
H	-4.7826322498	-0.2068524534	 0.6760374632	 0.113379
H	-3.7022307724	 1.904891421	-0.2151006031	 0.111919
H	-2.9733498412	 0.9567800034	-1.589895437	 0.124771
H	-1.4873764143	-1.5885441677	-0.6277972802	 0.083785
102.3776	181.6159	279.0507	288.9733	291.221	324.0628	489.2779	506.3501	584.9322	673.0105	731.62	747.31	770.923	783.5786	796.843	850.2045	905.1513	916.0492	942.4788	954.3776	988.9777	993.8049	1024.2045	1032.5047	1053.8303	1060.5233	1077.1998	1095.6863	1128.5069	1190.8411	1191.7491	1260.5237	1280.0998	1316.186	1333.9269	1353.3271	1406.7831	1449.6288	1466.0299	1498.3858	1644.1311	3125.7109	3133.1531	3155.8017	3157.4858	3170.7572	3184.0761	3207.0412	3209.5711	3224.2564	3754.9337
OC1C2C=CC3(CC3)C12	O[C@H]1[C@H]2C=CC3(CC3)[C@@H]12	
InChI=1S/C8H10O/c9-7-5-1-2-8(3-4-8)6(5)7/h1-2,5-7,9H,3-4H2	InChI=1S/C8H10O/c9-7-5-1-2-8(3-4-8)6(5)7/h1-2,5-7,9H,3-4H2/t5-,6+,7-/m0/s1
