15
gdb 53890	4.20245	0.75964	0.67679	2.7234	65.2	-0.2543	-0.0462	0.2081	1568.7074	0.111181	-491.156301	-491.146862	-491.145917	-491.192146	32.367	
N	-0.0978836737	 1.1826292581	-0.4962702018	-0.516408
C	 0.0402712644	-0.064563842	-0.0134277299	 0.34037
O	 1.078927805	-0.6057644067	 0.3244874655	-0.375315
C	-1.3191498207	-0.7910853274	 0.0803322123	 0.331091
O	-2.3670654797	-0.2626777411	-0.2546344292	-0.38888
N	-1.1777256989	-2.0403154356	 0.5710920422	-0.31688
C	-2.2906771725	-2.9348414649	 0.7783252319	-0.247333
C	-2.2980309156	-4.1024622158	-0.2030784802	 0.153775
O	-2.7400618547	-5.1884723851	 0.0561630665	-0.22429
H	 0.7053683882	 1.7769661264	-0.6095572872	 0.27343
H	-1.0248210396	 1.5002363731	-0.7337006595	 0.285957
H	-0.2289457267	-2.3021815842	 0.806838061	 0.277118
H	-2.3169287713	-3.3266305052	 1.7996316523	 0.143179
H	-3.2034220672	-2.3493757205	 0.6082466661	 0.173535
H	-1.8636392369	-3.8585482792	-1.1992162999	 0.090653
44.4373	62.7608	91.3608	101.3372	199.4612	297.1309	331.0719	358.7796	376.4096	494.6228	509.7104	561.8627	633.8368	663.2763	680.3784	748.64	836.4081	882.383	1044.3942	1075.1596	1101.1408	1123.78	1227.1329	1272.3664	1337.2175	1377.2798	1410.6364	1445.3852	1556.5421	1590.1052	1781.908	1808.403	1843.5476	2882.4288	3040.6549	3098.9358	3585.5188	3590.8687	3735.6077
NC(=O)C(=O)NCC=O	NC(=O)C(=O)NCC=O	
InChI=1S/C4H6N2O3/c5-3(8)4(9)6-1-2-7/h2H,1H2,(H2,5,8)(H,6,9)	InChI=1S/C4H6N2O3/c5-3(8)4(9)6-1-2-7/h2H,1H2,(H2,5,8)(H,6,9)
