17
gdb 124775	2.61652	1.41864	0.96241	1.9491	70.12	-0.2199	0.0266	0.2465	1183.7101	0.136555	-455.165262	-455.156463	-455.155519	-455.198869	33.012	
C	 0.3040207659	 1.2827929881	-0.480090181	-0.408967
C	 0.1130361354	-0.1297308749	 0.0789015479	 0.001675
O	 0.6302545488	-0.2385741103	 1.4049277397	-0.423759
C	-1.3211208244	-0.5908679097	 0.0310106409	 0.108148
C	-2.0238830206	-1.2202116728	 1.0403630265	-0.113324
N	-3.2656625886	-1.4732042438	 0.5700652746	-0.205011
N	-3.4390509948	-1.0527643613	-0.7081967425	-0.332413
C	-2.2660391494	-0.5273675968	-1.0248653211	 0.337254
O	-2.036402533	-0.0030912042	-2.2509512786	-0.429564
H	 1.3596717663	 1.5629807283	-0.4283349887	 0.117456
H	-0.0345818749	 1.3405013009	-1.5172048299	 0.144653
H	-0.2806192373	 2.0056898752	 0.1019969358	 0.104251
H	 0.7356540952	-0.8196178762	-0.5056119573	 0.104723
H	 0.2030380196	 0.4476684395	 1.9305512213	 0.274862
H	-1.7124127642	-1.5048203658	 2.0321674923	 0.142745
H	-4.0336135201	-1.9113888014	 1.0461102939	 0.274284
H	-2.8539835538	-0.0978915947	-2.755749504	 0.302987
47.5191	164.2425	178.8302	263.7786	305.0646	311.9045	344.6968	353.9167	392.0426	412.6809	493.2958	543.5173	634.1048	662.2132	738.7353	760.8902	820.3598	908.9729	945.4184	1033.45	1065.1168	1078.0181	1101.7886	1148.477	1234.2645	1250.082	1303.1526	1312.9184	1354.5494	1402.9592	1416.83	1443.5998	1488.5852	1493.4718	1498.4164	1554.9363	1632.5857	3020.5314	3032.2234	3104.9213	3135.9857	3272.8082	3694.8808	3791.1379	3792.9255
CC(O)C1=CNN=C1O	C[C@@H](O)c1c[nH]nc1O	
InChI=1S/C5H8N2O2/c1-3(8)4-2-6-7-5(4)9/h2-3,8H,1H3,(H2,6,7,9)	InChI=1S/C5H8N2O2/c1-3(8)4-2-6-7-5(4)9/h2-3,8H,1H3,(H2,6,7,9)/t3-/m1/s1
