19
gdb 66313	2.69677	1.07577	0.92079	5.5471	72.47	-0.2676	0.0205	0.2881	1329.5483	0.156611	-460.16479	-460.155162	-460.154218	-460.200361	34.242	
C	 0.5287673227	 1.1653537831	 0.2152055648	-0.460108
C	-0.3954787591	 0.0278318605	-0.1649085152	 0.414397
C	-1.6440505025	 0.4081052932	-0.947825975	-0.277984
C	-2.7747678893	 0.9746617897	-0.0807061433	-0.077847
O	-3.5473033456	-0.0744115044	 0.5092966843	-0.179524
C	-3.3504825167	-0.3658864912	 1.8118498525	 0.190531
O	-3.9442163631	-1.2389939611	 2.3672708552	-0.281163
C	 0.1443975937	-1.3368484402	-0.266843741	-0.226453
O	-0.614378012	-0.9396663453	 0.8780963365	-0.267645
H	 1.3417720392	 0.8010911105	 0.8472447597	 0.13514
H	 0.9590709231	 1.6299220647	-0.6784616597	 0.12576
H	-0.0056220277	 1.9442987898	 0.7702935064	 0.12368
H	-1.3728961988	 1.1554101193	-1.7030021376	 0.107367
H	-2.0438024721	-0.459413695	-1.4812479439	 0.125276
H	-2.3901431026	 1.644390888	 0.6993389486	 0.110799
H	-3.473078239	 1.5467183601	-0.6973551781	 0.123695
H	-2.6097125803	 0.2976102741	 2.2945723786	 0.078492
H	-0.3393657151	-2.0634913296	-0.9179376345	 0.120331
H	 1.2030852854	-1.5139240163	-0.0813942384	 0.115255
35.9377	71.1697	107.5251	192.283	206.1263	215.9186	313.3637	355.6868	370.4054	398.9334	399.9442	538.3115	628.0442	688.9807	821.7005	863.9351	922.2124	928.8552	987.471	1005.5707	1037.4921	1053.594	1071.3517	1106.899	1134.9083	1160.7032	1168.8896	1228.6445	1283.6277	1318.5929	1368.2134	1403.8586	1407.6331	1422.8204	1434.0372	1466.0992	1486.7345	1496.1228	1501.1926	1529.8339	1869.6749	2969.6176	3027.0888	3035.0371	3042.9896	3082.2038	3093.0179	3095.9648	3096.8512	3128.6923	3169.5073
CC1(CCOC=O)CO1	C[C@@]1(CCOC=O)CO1	
InChI=1S/C6H10O3/c1-6(4-9-6)2-3-8-5-7/h5H,2-4H2,1H3	InChI=1S/C6H10O3/c1-6(4-9-6)2-3-8-5-7/h5H,2-4H2,1H3/t6-/m1/s1
