16
gdb 28595	4.94431	1.08158	0.93193	1.4593	74.37	-0.1878	0.0298	0.2176	1233.4874	0.125886	-434.062558	-434.054631	-434.053687	-434.095485	29.422	
N	 0.2729960815	 1.3233641118	 0.340996688	-0.598404
C	-0.0154896408	-0.0047763709	 0.0609996228	 0.331626
C	-1.1306764004	-0.7231675492	-0.2166930631	-0.193271
N	-0.7957252416	-2.0812784525	-0.2662329507	-0.322603
C	 0.4754541078	-2.1054723245	-0.0435801881	 0.444442
O	 1.0342599255	-0.877013344	 0.1745347144	-0.205649
N	 1.3624239043	-3.1678764529	-0.0756601744	-0.168783
C	 1.6951613007	-3.8448379785	 1.1921370044	-0.231213
C	 0.8104276352	-4.4914661133	 0.185104802	-0.213162
H	 1.0963785627	 1.6590223925	-0.1466168101	 0.257305
H	-0.5143176857	 1.9270291751	 0.1449434079	 0.256478
H	-2.1378811208	-0.3768131795	-0.3809440689	 0.106363
H	 2.73414464	-4.1421811865	 1.2887890016	 0.127865
H	 1.2301778338	-3.4634325665	 2.0968947809	 0.132795
H	-0.251662427	-4.5428026379	 0.4031640787	 0.150678
H	 1.1985747247	-5.2783105932	-0.4537978053	 0.125534
59.8345	138.9031	175.2579	205.4219	273.2952	358.1691	403.3785	524.6684	600.7697	656.0654	698.8362	740.3618	768.1928	782.8824	818.5164	885.9257	916.7614	995.6913	1011.7453	1042.5026	1111.1074	1117.6891	1137.0382	1144.1743	1174.0601	1185.9119	1228.0984	1283.6207	1348.2511	1424.307	1490.8922	1515.2818	1622.3706	1636.0068	1684.4956	3119.5599	3126.5417	3208.5912	3222.5667	3266.633	3523.2932	3630.0042
NC1=CN=C(O1)N1CC1	Nc1cnc(o1)N1CC1	
InChI=1S/C5H7N3O/c6-4-3-7-5(9-4)8-1-2-8/h3H,1-2,6H2	InChI=1S/C5H7N3O/c6-4-3-7-5(9-4)8-1-2-8/h3H,1-2,6H2
