18
gdb 71078	2.48888	1.63467	1.38223	4.5057	76.51	-0.2417	0.0077	0.2494	1030.4511	0.146612	-401.926868	-401.918573	-401.917629	-401.959367	31.75	
C	-0.1274064454	 1.4749342711	-0.043168321	-0.495595
C	-0.0047727304	-0.0148437691	-0.0945774781	 0.287886
C	 1.0048242924	-0.8456459879	-0.8988701002	-0.289567
C	 0.1660534562	-2.0824995497	-0.4681734871	-0.252523
C	 0.3531132457	-2.04900159	 1.040235281	 0.431694
O	 0.7247573506	-2.8020803982	 1.8851618394	-0.32277
N	-0.3214658386	-0.7674438346	 1.1936276639	-0.274026
C	-1.0191959117	-1.0811555678	-0.1445762056	 0.299074
C	-2.5000226966	-1.1729709148	-0.2717258037	-0.524035
H	 0.7452573215	 1.9158199509	 0.4496368969	 0.136597
H	-0.1933914542	 1.8882629231	-1.0553015395	 0.122818
H	-1.0167799661	 1.7745760487	 0.5165574569	 0.138408
H	 0.9124559948	-0.6348724815	-1.9677974018	 0.113183
H	 2.0593532236	-0.8275605795	-0.6032721972	 0.112733
H	 0.1434854118	-3.0063080549	-1.039988193	 0.097969
H	-2.9749868459	-0.3059213535	 0.1954645762	 0.143881
H	-2.8012218488	-1.2079604972	-1.3239996863	 0.131492
H	-2.880215119	-2.0738685053	 0.221126099	 0.142781
115.8091	182.4136	190.51	193.996	257.2721	269.0256	353.0353	465.3455	503.305	549.1648	632.3163	659.3645	667.9763	772.6741	788.1422	842.8312	919.2334	936.2587	957.6728	985.5078	1037.9814	1072.7033	1099.1787	1133.0189	1138.7238	1151.4017	1195.6371	1223.0846	1248.0157	1315.3494	1411.2127	1413.412	1467.2765	1479.1814	1485.7144	1489.1297	1493.2648	1517.184	1913.3529	3035.9267	3037.4614	3044.5804	3100.0793	3101.8129	3105.3062	3118.2974	3124.3344	3160.5646
CC12CC3C(=O)N1C23C	C[C@@]12C[C@H]3C(=O)N1[C@@]23C	
InChI=1S/C7H9NO/c1-6-3-4-5(9)8(6)7(4,6)2/h4H,3H2,1-2H3	InChI=1S/C7H9NO/c1-6-3-4-5(9)8(6)7(4,6)2/h4H,3H2,1-2H3/t4-,6-,7+,8?/m0/s1
