12
gdb 128945	7.80074	0.77166	0.70776	1.2334	61.77	-0.2763	-0.0761	0.2002	1427.5413	0.077522	-464.928484	-464.920766	-464.919822	-464.962126	26.374	
N	 0.005699197	-1.1313883333	-0.1667403998	-0.277283
C	 0.0136436611	 0.0123171526	-0.0111042728	 0.257539
C	 0.0285252748	 1.4579677298	 0.212053251	-0.267305
N	 1.3650350456	 1.9933000801	-0.0000282338	-0.390792
C	 1.5394675693	 3.340950312	 0.0164311556	 0.5409
N	 0.5905189184	 4.2396941838	-0.0225770737	-0.194532
O	 1.2850197183	 5.4245597282	-0.0455848266	-0.145657
N	 2.629796388	 5.1628025117	-0.0016109647	 0.061402
N	 2.8007919465	 3.9154615356	 0.0363159589	-0.233125
H	-0.6576293117	 1.9398180178	-0.4927127113	 0.194656
H	-0.3560949465	 1.6677002596	 1.2212082886	 0.170529
H	 2.1448210993	 1.4513657021	 0.3406307286	 0.283666
37.7104	100.4763	123.5861	219.2267	345.8064	381.1649	417.338	446.0982	554.5499	647.2612	772.1757	799.0947	819.2764	933.5056	959.2682	1000.6226	1064.5225	1111.5312	1127.0265	1241.94	1285.8452	1389.2199	1454.5008	1491.1882	1554.6165	1661.437	2377.1208	3005.4703	3077.6571	3629.0793
N#CCNC1=NON=N1	N#CCNc1nonn1	
InChI=1S/C3H3N5O/c4-1-2-5-3-6-8-9-7-3/h2H2,(H,5,7)	InChI=1S/C3H3N5O/c4-1-2-5-3-6-8-9-7-3/h2H2,(H,5,7)
