16
gdb 50423	2.17278	1.7098	1.09632	5.1433	73.73	-0.2203	-0.0425	0.1778	1090.0064	0.123927	-437.924009	-437.915807	-437.914862	-437.957603	29.293	
O	-0.0406004721	-0.1370767865	 0.1696324618	-0.226228
C	-0.0070649282	 1.0613018973	 0.2168660565	 0.163466
C	 1.2548452275	 1.9083812274	 0.0551082116	-0.107274
C	 1.4654506952	 2.8480725572	 1.2871236235	-0.302527
C	 2.6697341002	 2.233549597	 1.9661634307	-0.155848
C	 3.1932659016	 1.2759229916	 1.2019335287	 0.021366
N	 2.4685376583	 1.0956526451	 0.0141739594	-0.038441
C	 2.7800488409	 0.1770558472	-0.9534915927	 0.154978
O	 3.7553273958	-0.5399163465	-0.9232555296	-0.327753
H	-0.9253998852	 1.6705187685	 0.3816663047	 0.090349
H	 1.1283397734	 2.4890761091	-0.867427586	 0.122069
H	 1.6516979459	 3.8826817143	 0.9758858161	 0.128012
H	 0.5742899673	 2.8714161139	 1.926176984	 0.12191
H	 3.0548206009	 2.5588276842	 2.9208833319	 0.114724
H	 4.0582532038	 0.6491117649	 1.3557907209	 0.160149
H	 2.0468101845	 0.1801859851	-1.7799375517	 0.081047
67.8755	93.2805	116.9639	212.564	272.5364	292.5168	352.5627	478.3736	510.0191	682.3774	705.676	733.307	803.7253	854.7683	919.3718	946.8687	955.5737	977.02	1011.9051	1016.4725	1061.8178	1119.3817	1181.5002	1231.3251	1259.0566	1303.7578	1320.5656	1339.2656	1405.0677	1429.7461	1442.765	1499.6579	1687.074	1794.4002	1845.3871	2873.1508	2971.4876	3022.014	3033.5047	3053.2407	3245.46	3274.4
O=CC1CC=CN1C=O	O=C[C@H]1CC=CN1C=O	
InChI=1S/C6H7NO2/c8-4-6-2-1-3-7(6)5-9/h1,3-6H,2H2	InChI=1S/C6H7NO2/c8-4-6-2-1-3-7(6)5-9/h1,3-6H,2H2/t6-/m1/s1
