25
gdb 59334	3.15993	0.87187	0.82378	1.3109	89.46	-0.251	0.0746	0.3256	1580.9118	0.226674	-389.497908	-389.487227	-389.486283	-389.533063	41.057	
C	 0.0658216656	 1.4633278961	-0.1808916098	-0.389503
C	 0.0546510996	-0.0563389841	 0.0331852334	 0.020813
C	 0.7992364703	-0.4385674006	 1.3194787888	-0.389154
C	-1.3736925581	-0.6014007244	 0.0396284539	 0.07364
C	-2.2148820904	-0.5095729242	-1.2658402238	-0.287678
C	-2.7576744706	-1.9330975455	-0.9936122847	 0.418544
C	-4.1379375668	-1.9561601318	-0.3444005891	-0.445989
O	-2.7341880235	-2.7308871033	-2.1642269711	-0.477021
C	-1.5888215787	-2.1421512368	 0.0192607905	-0.311953
H	 1.0896623447	 1.8491284442	-0.2269877905	 0.108013
H	-0.4391390159	 1.7417109205	-1.1114048087	 0.115993
H	-0.4449230951	 1.9773229165	 0.6425597756	 0.108523
H	 0.5793811534	-0.5223789549	-0.81430275	 0.066752
H	 0.3151078313	 0.0061312024	 2.1975440051	 0.108503
H	 0.8197931466	-1.5234712619	 1.4644872511	 0.114351
H	 1.8350064312	-0.0836930146	 1.297862781	 0.108118
H	-1.9215801489	-0.1525300501	 0.8781150661	 0.060042
H	-2.9461646923	 0.2972924582	-1.3613877914	 0.09192
H	-1.5775410286	-0.5228537093	-2.154937069	 0.106994
H	-4.8991848463	-1.6263185716	-1.0583894849	 0.122127
H	-4.3930367917	-2.9704172029	-0.0107662307	 0.102835
H	-4.1794020412	-1.303334534	 0.533270383	 0.118764
H	-3.0957616727	-3.5964609012	-1.9440297273	 0.27035
H	-0.7573217009	-2.6549188651	-0.473980115	 0.098999
H	-1.8160103509	-2.6463325915	 0.9630791776	 0.086017
79.0736	81.6864	147.365	229.6876	244.9996	258.8348	263.0158	275.4755	309.6697	327.7999	375.4978	383.6216	441.2648	465.7699	491.8876	609.5896	728.525	832.9875	853.2817	894.6581	905.5919	929.9037	953.4961	960.9639	972.1097	1006.428	1010.6835	1047.0805	1074.9455	1129.2451	1148.5182	1190.338	1192.7062	1226.3502	1229.6702	1271.8271	1283.111	1287.3516	1323.2605	1352.6319	1377.2421	1395.8348	1399.7483	1407.3971	1421.2331	1467.3506	1486.8928	1487.6296	1490.1329	1492.3004	1500.549	1504.8102	1511.0996	2990.7288	3018.2033	3020.8776	3022.2053	3028.0627	3044.6232	3054.8562	3085.5018	3086.3749	3092.3204	3098.7775	3101.0363	3102.9207	3109.5453	3111.3213	3798.0419
CC(C)C1CC(C)(O)C1	CC(C)[C@H]1C[C@@](C)(O)C1	
InChI=1S/C8H16O/c1-6(2)7-4-8(3,9)5-7/h6-7,9H,4-5H2,1-3H3	InChI=1S/C8H16O/c1-6(2)7-4-8(3,9)5-7/h6-7,9H,4-5H2,1-3H3/t7-,8+
