21
gdb 95873	2.24931	1.42351	1.07817	2.1656	78.68	-0.245	-0.0257	0.2193	1210.5049	0.182535	-424.254037	-424.245121	-424.244176	-424.287733	33.74	
C	-0.030136716	 1.5096024148	-0.0939909515	-0.403324
C	 0.0153651994	-0.009658441	-0.0496849614	 0.139323
C	 0.6932164253	-0.619476539	-1.2859738308	-0.212305
C	 0.8727324962	-2.1385542904	-1.1465273157	-0.109741
C	 1.4774683619	-2.5009281804	 0.2279709506	-0.229936
C	 0.7369625477	-1.7695270444	 1.3510908053	-0.070065
O	 0.7183868404	-0.372283612	 1.1395784195	-0.259464
C	-0.4065083494	-2.9167972314	-1.3981594722	 0.156628
O	-1.4568091103	-2.4464507811	-1.754311322	-0.246539
H	 0.9828379468	 1.9209952661	-0.1491938318	 0.11953
H	-0.5933804949	 1.8512566277	-0.9673700487	 0.117387
H	-0.5100452888	 1.9017309648	 0.8065282599	 0.122494
H	-1.011251247	-0.4048316282	 0.0141721389	 0.084939
H	 0.0964840576	-0.3962777925	-2.1753005954	 0.113698
H	 1.67665146	-0.1513740025	-1.4113556175	 0.095833
H	 1.5628920442	-2.5056366426	-1.9228179378	 0.097778
H	 1.4426611556	-3.584570912	 0.3972558792	 0.097836
H	 2.5311563885	-2.2032795424	 0.2436613836	 0.112318
H	-0.2948494537	-2.15440764	 1.4375166533	 0.090533
H	 1.233466285	-1.9325934137	 2.3123292933	 0.107212
H	-0.2996714585	-4.0172847898	-1.2435426685	 0.075863
76.5743	109.9239	157.8494	225.7148	250.4647	279.5951	320.8476	369.3037	435.6733	474.3251	492.3604	580.488	694.0677	785.3543	823.4	867.2761	874.4385	912.6986	961.6931	971.4689	998.9692	1044.8833	1097.9019	1111.0576	1128.8242	1150.2926	1166.5794	1215.6934	1252.3012	1263.5958	1310.7514	1332.1096	1357.5074	1371.3244	1382.5195	1400.4787	1412.2683	1421.5689	1424.3587	1462.5896	1479.1735	1485.0104	1496.3414	1502.9069	1825.9401	2846.2782	2950.1075	2979.2476	2984.4023	3030.5628	3038.116	3043.1641	3075.8105	3083.9035	3095.4611	3115.3051	3122.8001
CC1CC(CCO1)C=O	C[C@H]1C[C@@H](CCO1)C=O	
InChI=1S/C7H12O2/c1-6-4-7(5-8)2-3-9-6/h5-7H,2-4H2,1H3	InChI=1S/C7H12O2/c1-6-4-7(5-8)2-3-9-6/h5-7H,2-4H2,1H3/t6-,7+/m0/s1
