18
gdb 74701	3.13879	1.66143	1.48227	1.5437	75.79	-0.2369	-0.0019	0.2351	962.7487	0.150308	-401.972362	-401.965283	-401.964339	-402.003574	28.698	
C	-0.0357178638	 1.477800398	 0.0619491956	-0.456648
C	-0.0004482198	-0.0147773428	-0.0698188541	 0.401573
N	 0.0010808705	-0.5956891079	-1.2050856456	-0.310794
C	 0.0093186186	-2.073224945	-1.1640219429	-0.027191
C	 0.9083027357	-2.5386275155	-0.0019244427	-0.247809
C	 0.0025474396	-2.0732675167	 1.1413488847	 0.074477
O	 0.0178783767	-0.6123464136	 1.1583440078	-0.282804
C	-1.3668590233	-2.5249945262	 0.6666112006	-0.084208
C	-1.3646193394	-2.521164554	-0.6693025869	-0.060922
H	 0.8218236798	 1.8309303188	 0.6434617804	 0.135205
H	-0.0224166235	 1.9304822538	-0.9288588601	 0.143554
H	-0.9395725194	 1.7880092076	 0.5968363573	 0.136552
H	 0.2907702007	-2.4520195376	-2.1474650781	 0.071253
H	 1.0231809672	-3.6248913039	 0.01554051	 0.106166
H	 1.8912017683	-2.0612828296	 0.0032609629	 0.108379
H	 0.2946356661	-2.3685224046	 2.1488324438	 0.082294
H	-2.2133747646	-2.6841495288	 1.3225559813	 0.103509
H	-2.2135566092	-2.6850751419	-1.3219277941	 0.107415
133.7451	164.1144	293.8931	337.6159	386.4675	436.0318	460.2652	601.7856	615.0298	651.5601	757.1319	800.0238	815.9239	852.5782	887.2972	910.763	917.5757	960.0249	979.6104	996.8304	1004.034	1042.6721	1064.1916	1118.3874	1129.2545	1173.1563	1226.3892	1253.8979	1295.7953	1309.5463	1342.5514	1354.0449	1369.5965	1405.4422	1474.1888	1475.9249	1483.3416	1650.8186	1704.2347	3045.4903	3066.8653	3097.7495	3102.7304	3119.3705	3122.7634	3164.2635	3198.7114	3224.068
CC1=NC2CC(O1)C=C2	CC1=N[C@H]2C[C@@H](O1)C=C2	
InChI=1S/C7H9NO/c1-5-8-6-2-3-7(4-6)9-5/h2-3,6-7H,4H2,1H3	InChI=1S/C7H9NO/c1-5-8-6-2-3-7(4-6)9-5/h2-3,6-7H,4H2,1H3/t6-,7+/m1/s1
