25
gdb 113185	2.39325	1.05766	0.85683	1.4268	89.53	-0.2558	0.0777	0.3335	1492.1385	0.226907	-389.473747	-389.462694	-389.461749	-389.509498	41.627	
C	 0.657749192	-0.6491033872	 1.5785042921	-0.408154
C	-0.7745053364	-0.1206793965	 1.729657241	-0.033361
C	-0.7589372944	 1.4143952036	 1.5944454751	-0.378731
C	-1.8543217705	-0.7286804615	 0.8134849696	 0.335254
C	-3.2572644058	-0.4997360104	 1.3686230262	-0.453136
C	-1.7321276955	-0.6610441752	-0.6933861691	-0.323727
C	-1.7468253158	-2.0063436377	-0.0083767912	-0.019279
C	-0.5938646817	-2.9738387859	-0.128072321	-0.127729
O	-0.9047179817	-3.8308832831	-1.2242805242	-0.423778
H	 1.3152173227	-0.1246884909	 2.280073455	 0.10759
H	 0.7304877602	-1.716476004	 1.7984394856	 0.117276
H	 1.0578360795	-0.4737381074	 0.5739233892	 0.11479
H	-1.0852172694	-0.3556768325	 2.7580877871	 0.069634
H	-0.4174186327	 1.7091078219	 0.5959021301	 0.114769
H	-1.745341069	 1.8581668321	 1.7517317587	 0.11298
H	-0.0762494424	 1.8589819491	 2.3261373036	 0.106247
H	-3.4578232787	 0.5616765024	 1.546514559	 0.114895
H	-4.0217765054	-0.8635124222	 0.6759360414	 0.113316
H	-3.392365974	-1.0267473663	 2.3208285893	 0.112291
H	-2.5899450829	-0.3461681749	-1.2791595133	 0.104902
H	-0.7791799264	-0.3453658108	-1.109427359	 0.104425
H	-2.6860437198	-2.5515223705	-0.0711368895	 0.088636
H	 0.3539208976	-2.4510177784	-0.3030992105	 0.085761
H	-0.4844987246	-3.5590649236	 0.8003266672	 0.082841
H	-0.1896634349	-4.46814587	-1.3122327625	 0.282289
50.2506	106.3446	160.8509	182.3219	215.2314	232.5963	247.922	260.7517	290.4602	316.4025	328.0232	348.5284	418.855	444.7148	502.6716	584.4873	656.3297	813.4849	865.3073	886.2196	917.8592	925.8485	933.2868	966.8036	992.3338	1036.8662	1061.6175	1073.7653	1085.8299	1112.6976	1142.8226	1148.3106	1170.1514	1185.2852	1232.5827	1263.1164	1276.7838	1335.6946	1342.794	1373.7014	1398.4643	1409.5807	1416.3878	1423.2245	1467.0817	1487.3372	1488.8824	1494.2833	1500.0028	1504.5442	1509.8878	1511.3972	1530.2781	2958.3108	2992.3016	3025.6113	3030.1078	3034.6971	3040.8934	3087.6723	3089.9934	3098.2335	3102.5712	3114.7007	3117.4443	3121.9503	3131.439	3198.2408	3825.399
CC(C)C1(C)CC1CO	CC(C)[C@@]1(C)C[C@H]1CO	
InChI=1S/C8H16O/c1-6(2)8(3)4-7(8)5-9/h6-7,9H,4-5H2,1-3H3	InChI=1S/C8H16O/c1-6(2)8(3)4-7(8)5-9/h6-7,9H,4-5H2,1-3H3/t7-,8+/m0/s1
