14
gdb 130640	3.15388	1.79346	1.15962	6.0592	68.73	-0.2708	-0.0591	0.2116	970.8076	0.103761	-432.899567	-432.89295	-432.892006	-432.931143	24.681	
O	 0.0459971722	-0.0327405355	 0.0022211754	-0.293165
C	-0.0170598219	 1.1587506688	 0.0093995089	 0.429804
C	-1.2524967541	 2.0684303448	 0.0320163045	-0.341008
C	-0.742709393	 3.5381405522	 0.0321655983	-0.367216
C	 0.7474485086	 3.3769775901	 0.0090487641	 0.357628
C	 1.9525308008	 4.01983134	-0.0057715689	-0.211635
N	 2.9468949331	 3.065394539	-0.0251852876	-0.16448
N	 2.4315630781	 1.8758396338	-0.0239846417	-0.135637
N	 1.0855169048	 2.056599154	-0.0026464079	-0.023642
H	-1.8707698164	 1.8325397112	-0.8378605181	 0.159806
H	-1.8453814043	 1.8234626319	 0.9169175985	 0.159771
H	-1.1013680127	 4.0946809736	-0.8382407927	 0.146698
H	-1.0750793943	 4.0853506756	 0.9187784098	 0.1467
H	 2.1888162391	 5.0707896306	-0.0040157327	 0.136375
77.5146	147.0616	247.3909	305.5877	534.289	546.9758	614.6672	654.2355	659.5327	710.1452	737.8009	823.3866	851.153	979.3913	995.4948	1024.9934	1044.6651	1095.3593	1118.4294	1167.5635	1228.463	1238.4075	1272.7638	1283.7578	1304.2123	1366.4542	1436.1619	1457.5879	1494.9826	1598.6385	1889.0815	3062.7442	3079.2264	3094.4178	3122.2903	3280.801
O=C1CCC2=CN=NN12	O=C1CCc2cnnn12	
InChI=1S/C5H5N3O/c9-5-2-1-4-3-6-7-8(4)5/h3H,1-2H2	InChI=1S/C5H5N3O/c9-5-2-1-4-3-6-7-8(4)5/h3H,1-2H2
