22
gdb 6479	3.71692	1.31195	1.19893	1.0913	78.68	-0.241	0.0835	0.3245	1147.6959	0.198497	-350.196777	-350.187468	-350.186524	-350.230177	35.151	
C	 0.4913933853	 1.783430055	-0.0074747285	-0.25147
O	 0.5444343879	 0.3933960659	-0.2378539204	-0.285393
C	 0.6364440696	-0.4164841244	 0.9212295051	 0.439617
C	 1.9533807209	-0.2086429455	 1.6683114893	-0.448337
C	-0.6174142634	-0.4363407929	 1.8538869532	-0.290419
C	-0.5757341172	-1.99123519	 1.8188808322	 0.053296
C	-1.887873335	-2.7497605175	 1.6905153247	-0.405663
C	 0.354325711	-1.8991811007	 0.576309077	-0.286725
H	 1.4400316147	 2.1884900782	 0.3728149186	 0.105281
H	 0.2773659362	 2.2563667169	-0.9694707697	 0.123798
H	-0.3070569791	 2.0537685533	 0.6998168607	 0.10424
H	 2.0208327416	 0.7916983649	 2.1075978459	 0.113493
H	 2.0503261343	-0.9307337277	 2.4849140869	 0.117083
H	 2.7987739507	-0.3462506482	 0.9863723319	 0.120416
H	-0.5437165638	 0.056005475	 2.8274387496	 0.08876
H	-1.49346353	-0.0523599202	 1.3219303095	 0.099691
H	-0.01655218	-2.3696407163	 2.6815269503	 0.068874
H	-2.4662482352	-2.3879008336	 0.8328255922	 0.112587
H	-1.7157658335	-3.8225996918	 1.547270808	 0.113139
H	-2.5081098409	-2.6289624181	 2.5859875502	 0.111997
H	-0.2119460187	-1.9573067746	-0.3573641551	 0.104995
H	 1.2118328346	-2.5749228375	 0.5197888981	 0.090742
88.2558	112.1094	194.5571	220.3155	241.3825	258.2878	286.2691	322.2402	357.8025	409.2788	434.6968	491.2791	596.6659	733.3461	829.5009	858.5835	893.3696	912.6589	922.8429	953.3431	958.0045	1047.3434	1085.8709	1111.2334	1128.3045	1180.3821	1183.2159	1204.4706	1216.7355	1228.9006	1238.3564	1285.3535	1290.2293	1302.3106	1376.5504	1403.2549	1412.103	1466.1541	1475.5669	1484.9807	1485.851	1494.161	1496.9655	1498.9091	1508.7398	1513.0134	2984.4981	3021.628	3030.6014	3036.9704	3039.42	3046.8934	3056.4902	3088.5582	3090.7233	3103.792	3104.6346	3108.0399	3109.5665	3114.5059
COC1(C)CC(C)C1	CO[C@@]1(C)C[C@@H](C)C1	
InChI=1S/C7H14O/c1-6-4-7(2,5-6)8-3/h6H,4-5H2,1-3H3	InChI=1S/C7H14O/c1-6-4-7(2,5-6)8-3/h6H,4-5H2,1-3H3/t6-,7+
