16
gdb 99450	3.08191	0.71361	0.59512	2.4231	81.41	-0.2798	-0.0766	0.2032	1790.3727	0.121565	-400.739091	-400.72898	-400.728036	-400.776056	33.546	
C	-0.2009933053	 1.4745718929	-0.0607334078	-0.403307
C	-0.0814980748	-0.0459630767	-0.1561652557	-0.176077
C	 0.8860762465	-0.5070536959	-1.2883411131	-0.334269
C	 2.2495009393	 0.0035454897	-1.0647811871	 0.300575
N	 3.3082763341	 0.4245485094	-0.8763445299	-0.318204
C	 0.8877122344	-1.9609649477	-1.4349044666	 0.108164
C	 0.8371463759	-3.1610261124	-1.5453465184	 0.068436
C	 0.8192995217	-4.5991909481	-1.6755871386	 0.024032
O	-0.1800180383	-5.2491254433	-1.873136742	-0.221085
H	 0.7652155715	 1.9389991254	 0.1567237788	 0.150579
H	-0.5816716133	 1.9037781393	-0.9937751408	 0.124967
H	-0.8939136593	 1.7479327468	 0.7394097641	 0.131052
H	 0.2716742539	-0.4681680104	 0.7892603711	 0.134734
H	-1.0538832215	-0.5001272334	-0.3679859768	 0.131182
H	 0.5305949823	-0.0696530896	-2.2325311985	 0.167246
H	 1.8154374429	-5.0743708861	-1.5781554886	 0.111974
33.4736	63.5728	85.5499	116.1989	154.6688	189.7149	240.6307	269.306	332.0071	365.9578	458.4252	533.9376	566.6095	657.1236	758.2344	832.2328	890.2085	945.2501	1021.3399	1041.6062	1094.872	1105.8395	1168.0069	1253.6627	1291.522	1335.0023	1364.2042	1417.6965	1420.5812	1487.0766	1497.8855	1505.2877	1771.6049	2338.2848	2365.7129	2934.3437	3012.9924	3041.0855	3060.5044	3097.0447	3117.1452	3124.5863
CCC(C#N)C#CC=O	CC[C@@H](C#N)C#CC=O	
InChI=1S/C7H7NO/c1-2-7(6-8)4-3-5-9/h5,7H,2H2,1H3	InChI=1S/C7H7NO/c1-2-7(6-8)4-3-5-9/h5,7H,2H2,1H3/t7-/m1/s1
