21
gdb 86986	6.14534	0.63385	0.61266	4.4722	85.08	-0.2288	0.0382	0.267	1832.3406	0.182422	-383.26657	-383.256941	-383.255997	-383.301888	34.707	
C	-0.1177590979	 1.5643580341	-0.0231395385	-0.393025
C	-0.0645820889	 0.041906621	-0.0473519431	 0.009883
C	 1.1184667597	-0.5561812161	-0.856503687	-0.179491
N	 1.8648510088	-0.7213343565	 0.4073283205	-0.068378
C	 2.6961813591	-1.8894699344	 0.5677888534	-0.144005
C	 3.4802678773	-1.8071007702	 1.8925124939	-0.340306
C	 4.3463033068	-2.9636822755	 2.1005407604	 0.257635
N	 5.0271699476	-3.8859587883	 2.2462698925	-0.306092
C	 0.6148447302	-0.6062242969	 1.1894165608	-0.182749
H	 0.8624195262	 1.9832056024	 0.2269874108	 0.128213
H	-0.4174613931	 1.9633332009	-0.9981325119	 0.116664
H	-0.8386935385	 1.9221541297	 0.7198181316	 0.115924
H	-1.0427901923	-0.3735082489	-0.2973357978	 0.077881
H	 0.8565271099	-1.5134532182	-1.3351680938	 0.087299
H	 1.608879882	 0.087508327	-1.5958208883	 0.102038
H	 2.116603798	-2.8324217529	 0.5475231757	 0.095119
H	 3.405144026	-1.9303037103	-0.2662867986	 0.124286
H	 4.0832476771	-0.8933430401	 1.8998906827	 0.15957
H	 2.7836869042	-1.7365984415	 2.735873267	 0.153705
H	 0.6908703762	-0.0004551531	 2.0997668682	 0.100188
H	 0.1749555718	-1.5840676424	 1.4477293617	 0.085641
54.8392	79.311	95.3448	131.7835	223.2061	253.4063	309.1393	319.3289	389.3641	408.6167	415.0994	520.9674	721.4063	783.5816	816.2952	885.4464	894.824	918.4646	951.5753	975.4204	1023.9338	1049.2654	1071.9153	1111.1555	1123.6757	1146.2241	1155.687	1216.8057	1232.2623	1246.7701	1262.2586	1285.9737	1308.3788	1321.4122	1343.9354	1372.8398	1404.458	1412.7528	1468.5078	1495.1379	1496.9385	1497.509	1505.2002	1527.9141	2363.1721	2920.5044	2960.2171	2973.9082	3030.3082	3046.5214	3049.6919	3051.8796	3065.7459	3082.7297	3094.3683	3097.0256	3109.6753
CC1CN(CCC#N)C1	CC1CN(CCC#N)C1	
InChI=1S/C7H12N2/c1-7-5-9(6-7)4-2-3-8/h7H,2,4-6H2,1H3	InChI=1S/C7H12N2/c1-7-5-9(6-7)4-2-3-8/h7H,2,4-6H2,1H3
