17
gdb 94091	4.52338	0.95898	0.83852	3.7575	65.35	-0.2615	-0.0364	0.2251	1319.7614	0.134793	-496.092996	-496.08432	-496.083376	-496.126949	31.328	
O	-0.0441846567	 1.47091375	 0.1872817151	-0.423158
C	 0.0910526872	 0.0665644758	 0.0728536865	 0.087321
C	 0.6214819869	-0.5628191705	 1.3691591346	-0.113995
O	 0.5438806317	-1.9830872017	 1.2955350094	-0.255288
C	-0.7710665799	-2.4089820332	 1.0467302329	 0.117659
O	-1.2632586526	-1.9241452832	-0.1740586476	-0.257935
C	-1.3032131435	-0.500976769	-0.2005219134	-0.091673
C	-0.7162073184	-3.9316714238	 0.9187185261	 0.16333
O	-1.3080708623	-4.6816552097	 1.6437418143	-0.234784
H	 0.832584663	 1.8666405319	 0.1692314979	 0.292993
H	 0.7524041686	-0.2158317537	-0.7587357123	 0.086531
H	 1.6726792643	-0.3142983315	 1.5426431923	 0.109316
H	 0.0283013767	-0.1831991044	 2.2160685797	 0.106643
H	-1.4366024312	-2.1186090748	 1.8787840269	 0.079331
H	-2.0026430227	-0.1164583448	 0.5583413184	 0.108774
H	-1.6659499311	-0.2080626122	-1.1876004567	 0.125307
H	-0.0707998	-4.2765972451	 0.0841186659	 0.099629
53.9084	85.7884	227.9098	237.0384	238.9351	246.4927	331.4472	366.7086	443.2917	482.531	486.8005	570.0724	674.9555	904.9908	909.8776	929.1866	1004.2448	1054.7419	1066.7288	1069.8401	1097.5184	1112.3183	1152.9259	1173.0562	1233.5544	1243.0999	1293.6305	1344.4035	1354.3755	1358.9518	1390.0662	1398.3435	1417.2996	1444.9483	1494.3762	1506.4426	1859.0949	2924.1405	2961.4154	2988.1827	2992.5115	3011.6899	3087.5186	3115.006	3826.9018
OC1COC(OC1)C=O	O[C@H]1CO[C@@H](OC1)C=O	
InChI=1S/C5H8O4/c6-1-5-8-2-4(7)3-9-5/h1,4-5,7H,2-3H2	InChI=1S/C5H8O4/c6-1-5-8-2-4(7)3-9-5/h1,4-5,7H,2-3H2/t4-,5-
