20
gdb 111245	2.664	1.43976	1.36979	3.2476	74.88	-0.2271	0.0667	0.2937	1071.8373	0.172724	-440.237676	-440.229409	-440.228465	-440.270915	31.025	
C	 0.0296168551	 1.338278158	-0.1986628263	-0.243012
O	 0.0008177308	 0.0132397602	 0.2898627022	-0.240627
C	-1.23813729	-0.6179248138	 0.1392881892	 0.166221
C	-1.6298180868	-1.3280346176	-1.1871989308	-0.102757
C	-0.4020264025	-1.9934993875	-1.8023603932	-0.030445
O	 0.1900006205	-2.9454707262	-0.9322130021	-0.26794
C	-0.0979247278	-2.8363516358	 0.4550190964	-0.032203
C	-1.3697943648	-2.0368208982	 0.7209903584	-0.107577
N	-2.3438481281	-2.3809503795	-0.3787434356	-0.314896
H	 1.0271414227	 1.7362109789	 0.0003281694	 0.132611
H	-0.1600883691	 1.3845904321	-1.2809142404	 0.109996
H	-0.7147912881	 1.9701141885	 0.3097987521	 0.107792
H	-2.0564068626	 0.0318715002	 0.4878208905	 0.060766
H	-2.2248774261	-0.8029159416	-1.9386121396	 0.068327
H	-0.6884743908	-2.5372592628	-2.7100790064	 0.103904
H	 0.3288243987	-1.2184128842	-2.0806161151	 0.091742
H	-0.2208957739	-3.8599579185	 0.8271447713	 0.103086
H	 0.7405729637	-2.3665898589	 0.9885793642	 0.103429
H	-1.7180724502	-2.166600829	 1.7484451963	 0.072554
H	-3.2547495406	-2.0071109443	-0.1156433106	 0.219029
79.253	96.3766	172.4936	175.8988	246.4426	314.5926	419.2761	441.2612	544.7306	601.7864	637.368	819.2254	839.0792	859.7115	876.105	901.8683	942.6093	994.7727	1026.9214	1036.5237	1050.5773	1092.765	1105.331	1132.6713	1165.9678	1174.8669	1183.2745	1230.6725	1237.882	1243.818	1264.0802	1282.6665	1318.0271	1364.1014	1373.7229	1394.824	1410.2087	1433.6263	1483.405	1489.867	1498.3936	1507.5652	1510.1951	2974.4739	2983.1087	2986.2526	3007.0623	3029.8932	3051.46	3057.4651	3080.3685	3085.3136	3120.2288	3466.5789
COC1C2COCC1N2	CO[C@H]1[C@H]2COC[C@@H]1N2	
InChI=1S/C6H11NO2/c1-8-6-4-2-9-3-5(6)7-4/h4-7H,2-3H2,1H3	InChI=1S/C6H11NO2/c1-8-6-4-2-9-3-5(6)7-4/h4-7H,2-3H2,1H3/t4-,5+,6+
