17
gdb 64675	3.2896	1.03428	0.94276	3.3767	73.27	-0.2617	0.0152	0.2768	1262.1941	0.134939	-418.053307	-418.044358	-418.043414	-418.087482	32.858	
C	-0.0142848999	 1.5946478465	-0.0756393705	-0.446599
C	-0.0212693166	 0.0688147595	-0.045197271	 0.330088
C	-1.4348434472	-0.5012939536	 0.2186966859	-0.376834
C	-1.9458209599	-0.1154518745	 1.5326040616	 0.264217
N	-2.3119887537	 0.2032325844	 2.5814556579	-0.307343
C	 0.7185834713	-0.6359583064	-1.2289262516	-0.459997
C	 1.7139649884	-1.1487258998	-0.1586486686	 0.443911
O	 2.7128717822	-1.8124054487	-0.1537887722	-0.352075
N	 0.9977538535	-0.5239416954	 0.8358460889	-0.34875
H	 0.9955062128	 1.9648554431	-0.2705270557	 0.132622
H	-0.6785223954	 1.9701504314	-0.8608987715	 0.12803
H	-0.3541067802	 2.0091500171	 0.8786988702	 0.147981
H	-2.1300945971	-0.1491739366	-0.5515277266	 0.156719
H	-1.4065110199	-1.5943491935	 0.1638077674	 0.15734
H	 0.1592240047	-1.4212665245	-1.7410789247	 0.131589
H	 1.15915234	 0.0403555353	-1.9629378272	 0.138014
H	 1.1664006274	-0.4186648043	 1.8265855877	 0.261087
50.6393	83.0836	137.966	242.3056	301.806	326.7307	346.4927	384.6754	400.194	429.2818	497.4194	538.3552	562.6813	687.246	794.9823	873.4365	907.4854	917.3685	961.2688	967.9628	987.5498	1071.3501	1107.7476	1158.553	1195.5544	1205.0592	1256.2686	1298.1339	1323.4767	1382.1518	1417.5802	1456.0283	1459.4756	1491.5758	1499.4699	1904.2243	2359.9288	3039.4222	3048.6677	3085.2513	3093.4537	3109.8169	3123.5174	3145.0145	3600.8728
CC1(CC#N)CC(=O)N1	C[C@@]1(CC#N)CC(=O)N1	
InChI=1S/C6H8N2O/c1-6(2-3-7)4-5(9)8-6/h2,4H2,1H3,(H,8,9)	InChI=1S/C6H8N2O/c1-6(2-3-7)4-5(9)8-6/h2,4H2,1H3,(H,8,9)/t6-/m1/s1
