16
gdb 67946	2.52585	1.78471	1.31597	2.0718	68.68	-0.2469	-0.0457	0.2012	979.6994	0.123889	-437.90499	-437.897368	-437.896424	-437.937371	28.969	
C	-0.1058578074	 1.5012324027	 0.1438292155	-0.459283
C	 0.052465976	-0.0016492496	 0.0061932986	 0.285141
C	-1.2241923994	-0.8779508072	 0.2131829984	-0.390957
C	-0.4463606871	-1.7222622423	 1.2387049708	 0.393584
O	-0.7034020633	-2.6882580672	 1.8906113775	-0.276868
C	 0.8162429945	-0.8210343683	 1.1114050316	-0.075718
O	 1.9120817362	-1.4435844306	 0.4234517473	-0.220535
C	 1.7237005694	-1.1259913004	-0.8880239295	 0.106362
N	 0.7695505721	-0.3653235422	-1.2304262331	-0.288912
H	 0.869042561	 1.9972322234	 0.1260697565	 0.128835
H	-0.7004246167	 1.8956937751	-0.6853510912	 0.138638
H	-0.6080003378	 1.7589923781	 1.0820595239	 0.115659
H	-2.0809073129	-0.3556478221	 0.6525736639	 0.135358
H	-1.5596855331	-1.4235914098	-0.672918052	 0.145951
H	 1.1814362926	-0.3470343578	 2.0248524403	 0.112645
H	 2.4528115059	-1.5685272216	-1.5573036385	 0.1501
54.5623	198.1709	227.9553	272.5834	305.2537	334.6304	424.7269	528.6125	568.6609	611.6764	639.2277	762.9042	805.6586	843.9587	909.6805	915.0782	945.3702	964.0038	991.9385	1061.1493	1084.3665	1094.9876	1149.967	1171.9888	1203.9577	1219.8686	1290.3476	1304.1471	1342.033	1411.1688	1425.7816	1485.4409	1495.3663	1684.8284	1900.2228	3037.8548	3053.2811	3098.2283	3109.5776	3113.8919	3117.046	3220.9666
CC12CC(=O)C1OC=N2	C[C@]12CC(=O)[C@H]1OC=N2	
InChI=1S/C6H7NO2/c1-6-2-4(8)5(6)9-3-7-6/h3,5H,2H2,1H3	InChI=1S/C6H7NO2/c1-6-2-4(8)5(6)9-3-7-6/h3,5H,2H2,1H3/t5-,6+/m1/s1
