14
gdb 7720	3.61199	1.96692	1.32027	3.2442	61.26	-0.256	-0.0112	0.2447	869.1367	0.109758	-415.919599	-415.912904	-415.91196	-415.950743	25.036	
N	-0.0690733729	 1.2696421505	 0.2963999439	-0.555648
C	 0.0321517295	 0.0503140382	-0.0252166848	 0.459907
N	-1.119412228	-0.7238461759	-0.1719823075	-0.356469
C	-1.2053993617	-2.1011662627	-0.2658191098	 0.414079
O	-2.2686718968	-2.6762287729	-0.2854514418	-0.346705
C	 0.1506228064	-2.7787789696	-0.3396871134	-0.333617
C	 1.176649324	-1.8329722616	-0.9458109017	-0.099562
O	 1.2089120238	-0.5907703079	-0.2254630539	-0.245786
H	 0.8513229026	 1.7037860569	 0.3212360154	 0.231257
H	-1.9875827537	-0.2185067083	-0.0565436743	 0.276943
H	 0.450876699	-3.0605512899	 0.6764150229	 0.148475
H	 0.0480206832	-3.6953630091	-0.9242369923	 0.145318
H	 2.1909321876	-2.2293046399	-0.8793341277	 0.134347
H	 0.950044467	-1.6330182379	-2.0008448649	 0.127462
113.6066	127.6549	246.2614	371.1606	455.0332	489.3818	526.1939	594.2257	673.6344	710.712	733.6655	795.2185	835.3523	890.8314	948.5551	990.4794	1065.9793	1086.3683	1139.604	1216.0675	1267.7758	1289.9097	1349.6973	1381.6904	1412.2657	1442.2946	1454.718	1513.4252	1764.0508	1824.143	3031.1727	3053.9122	3121.6843	3124.742	3525.7111	3610.8761
N=C1NC(=O)CCO1	[NH][C]1NC(=O)CCO1	
InChI=1S/C4H6N2O2/c5-4-6-3(7)1-2-8-4/h1-2H2,(H2,5,6,7)	InChI=1S/C4H6N2O2/c5-4-6-3(7)1-2-8-4/h1-2H2,(H2,5,6,7)
