16
gdb 26755	3.24844	1.50671	1.05349	1.4627	73.18	-0.1867	0.043	0.2297	1094.0559	0.126692	-434.059775	-434.051894	-434.05095	-434.092181	29.616	
N	-0.1305740562	 1.3742229918	 0.2959048511	-0.613332
C	-0.0744450758	-0.0018842199	-0.0382188319	 0.081025
C	-1.2168162906	-0.7491955977	-0.2461748314	 0.308291
O	-2.5180066656	-0.4074549207	-0.1739555042	-0.437846
N	-0.7656406684	-1.9721158879	-0.6613313802	-0.061231
C	-0.8120613083	-3.4527585586	-0.6413694702	-0.172165
C	 0.7654669735	-3.4265650805	-0.7012518386	-0.35837
C	 0.6014217629	-1.9204971135	-0.5912029581	 0.32404
N	 1.0832576443	-0.766658239	-0.2234541101	-0.38944
H	 0.3189736756	 1.9443618855	-0.4158517919	 0.241622
H	 0.3673291279	 1.5575578029	 1.1630356289	 0.241861
H	-2.5154663641	 0.5301835082	 0.0700064466	 0.304986
H	-1.215473151	-3.8581586792	 0.28949554	 0.136871
H	-1.3343404196	-3.8865043148	-1.4967921904	 0.131236
H	 1.2540675306	-3.9127055142	 0.1463433529	 0.133355
H	 1.1979287148	-3.8051628923	-1.6307962423	 0.129096
88.0543	178.1251	218.7195	242.075	254.9052	309.1058	358.785	498.7519	584.8745	617.2202	671.2619	681.4914	695.047	803.8494	834.0769	874.4231	883.62	953.409	1044.9784	1083.2211	1131.7914	1165.4523	1185.4096	1213.9013	1221.0215	1253.4183	1283.5016	1336.8155	1393.9627	1481.1733	1506.9039	1537.0931	1590.6789	1622.6382	1676.9262	3066.0261	3069.6948	3112.6405	3128.6512	3478.0996	3536.5314	3743.127
NC1=C(O)N2CCC2=N1	Nc1c(O)n2CCc2n1	
InChI=1S/C5H7N3O/c6-4-5(9)8-2-1-3(8)7-4/h9H,1-2,6H2	InChI=1S/C5H7N3O/c6-4-5(9)8-2-1-3(8)7-4/h9H,1-2,6H2
