13
gdb 130267	5.10711	0.9264	0.87179	3.9554	64.62	-0.2536	-0.0327	0.2209	1276.0881	0.090362	-448.943905	-448.936024	-448.93508	-448.977697	28.003	
N	-0.0974186591	 1.3571753557	-0.3236973504	-0.584769
C	-0.0401072245	 0.012730247	-0.0905901242	 0.417304
N	-1.0882750466	-0.7218661397	 0.2119500163	-0.200424
O	-0.5416049961	-2.0244474711	 0.2767706656	-0.196103
C	 0.7562036907	-1.899536309	 0.0205546392	 0.441989
C	 1.6035580129	-3.1364443191	 0.0088166866	-0.438053
C	 1.6914083543	-3.7815543169	 1.3206112389	 0.270546
N	 1.7710897339	-4.2961926951	 2.3508074968	-0.289103
N	 1.145577486	-0.686806536	-0.2157917211	-0.349032
H	 0.7709281762	 1.8468986113	-0.1745549932	 0.27315
H	-0.9138625947	 1.8261321323	 0.0377376176	 0.273398
H	 1.1952770519	-3.8555168394	-0.7104987597	 0.187803
H	 2.6040942352	-2.85415042	-0.3275047224	 0.193295
23.2371	98.7512	225.4556	266.8229	332.7327	372.0701	375.874	437.3699	486.9391	543.8758	640.5204	746.5229	768.8462	815.4023	907.2238	946.9197	950.8307	1028.7019	1064.2392	1126.4301	1207.7691	1325.05	1349.8362	1444.0483	1447.8553	1582.465	1641.1322	1665.2206	2374.6844	3056.6123	3120.0928	3589.8338	3700.776
NC1=NOC(CC#N)=N1	Nc1noc(CC#N)n1	
InChI=1S/C4H4N4O/c5-2-1-3-7-4(6)8-9-3/h1H2,(H2,6,8)	InChI=1S/C4H4N4O/c5-2-1-3-7-4(6)8-9-3/h1H2,(H2,6,8)
