25
gdb 115712	2.42348	1.0832	0.83813	1.6928	89.23	-0.239	0.0791	0.3181	1520.4538	0.227558	-389.486622	-389.475898	-389.474954	-389.522489	39.422	
C	-0.4071738704	 1.7647030135	-0.5245871916	-0.388403
C	-0.4719062894	 0.2355501392	-0.4377830538	-0.191655
C	 0.5222820999	-0.4400475082	-1.3811380694	-0.045624
C	 1.9930575615	-0.4004157157	-0.9092588503	-0.081637
O	 1.9832840785	-1.8080863631	-0.6072474098	-0.297546
C	 0.7134737875	-1.9846634314	-1.2830206904	 0.144529
C	-0.2527030635	-2.8817599013	-0.5173352941	 0.011383
C	-1.5377153012	-3.108738409	-1.3260891166	-0.397841
C	 0.4327195824	-4.2132009599	-0.1770877306	-0.39393
H	 0.592426821	 2.1378083283	-0.2757534434	 0.118476
H	-0.6476312272	 2.1137326438	-1.5349831931	 0.115228
H	-1.1150270451	 2.231144538	 0.1672377713	 0.114729
H	-0.2724521953	-0.0801148433	 0.5935898761	 0.106608
H	-1.4909536248	-0.0954262829	-0.670499621	 0.100564
H	 0.3629149097	-0.0806057768	-2.4022506369	 0.068521
H	 2.724391797	-0.1551966409	-1.6914980212	 0.092924
H	 2.2071470601	 0.2069776512	-0.0209944442	 0.097749
H	 0.8837516114	-2.4264266684	-2.2796931153	 0.059384
H	-0.5105463744	-2.3837660561	 0.4254143256	 0.072502
H	-2.2425495691	-3.7316810774	-0.7664826353	 0.114862
H	-2.044575239	-2.1699247243	-1.5705150326	 0.114805
H	-1.3184885452	-3.6235210571	-2.2691566345	 0.114177
H	 1.3519573254	-4.0427087469	 0.387943587	 0.136477
H	-0.2298171004	-4.8503684766	 0.4176836532	 0.105125
H	 0.6939257304	-4.762721165	-1.0895599792	 0.108594
67.1529	91.4606	112.6629	143.1454	201.0582	211.3126	226.4284	238.9495	285.6293	316.0354	380.6634	413.5495	465.4702	528.9705	769.4115	780.2865	830.9249	865.0536	894.949	928.7515	953.1417	962.0301	971.8163	1002.1177	1029.7264	1034.8718	1066.1158	1118.4755	1130.5349	1153.2978	1177.9178	1201.0405	1207.9004	1250.2744	1277.1222	1301.2415	1316.5276	1335.6574	1345.8035	1362.6875	1394.8863	1397.1453	1407.3977	1412.9853	1425.1397	1485.7887	1489.1035	1489.1968	1500.8422	1502.3882	1506.7627	1512.5821	1524.4197	2950.3201	3000.6042	3024.3604	3026.7225	3030.2037	3030.9145	3035.5005	3043.6733	3054.4148	3068.9637	3090.2256	3097.0114	3098.3141	3104.358	3105.6077	3126.3701
CCC1COC1C(C)C	CC[C@H]1CO[C@H]1C(C)C	
InChI=1S/C8H16O/c1-4-7-5-9-8(7)6(2)3/h6-8H,4-5H2,1-3H3	InChI=1S/C8H16O/c1-4-7-5-9-8(7)6(2)3/h6-8H,4-5H2,1-3H3/t7-,8-/m0/s1
