13
gdb 21642	7.48798	1.28613	1.09919	1.3555	71.88	-0.2068	-0.0154	0.1914	1004.9354	0.096945	-357.633657	-357.626413	-357.625469	-357.664767	27.419	
N	-0.0968053648	 1.3888852955	 0.1511825336	-0.600246
C	 0.0440401829	 0.0068676371	 0.0464327323	 0.382577
N	-1.0286726555	-0.7855335146	 0.0132368294	-0.283674
N	-0.5234033812	-2.0363166557	-0.0067654698	-0.289435
C	 0.8375466578	-2.0641228	-0.0040615649	 0.27233
C	 1.2451121631	-0.7374522372	 0.0341377463	-0.409693
C	 1.5692722498	-3.2691685799	-0.0284181792	 0.275526
C	 2.1808304833	-4.3064510086	-0.0510865718	-0.427763
H	 0.5885128675	 1.9049798439	-0.3830843263	 0.247234
H	-1.0339864945	 1.6875931811	-0.0863012156	 0.251258
H	-1.1459642551	-2.8250530529	-0.0337358337	 0.276623
H	 2.2597768996	-0.3770613572	 0.062145366	 0.108437
H	 2.7268581572	-5.2170730015	-0.0693346063	 0.196826
134.1151	147.6646	257.6741	314.0768	377.1091	400.4832	503.7672	544.1357	545.543	566.075	670.0615	678.516	693.4409	738.5821	768.1091	804.6786	1002.0822	1043.2008	1097.5906	1181.8317	1218.7545	1299.3736	1421.1538	1481.7284	1532.999	1596.3984	1648.0377	2234.028	3274.9007	3501.339	3547.6168	3644.2232	3684.5307
NC1=NNC(=C1)C#C	Nc1n[nH]c(c1)C#C	
InChI=1S/C5H5N3/c1-2-4-3-5(6)8-7-4/h1,3H,(H3,6,7,8)	InChI=1S/C5H5N3/c1-2-4-3-5(6)8-7-4/h1,3H,(H3,6,7,8)
