17
gdb 60670	2.12319	1.38171	1.24546	1.3999	74.15	-0.2566	-0.0355	0.221	1122.0303	0.131513	-421.76849	-421.758848	-421.757903	-421.803288	34.512	
C	-0.0767877045	 1.4463457595	-0.1431296543	-0.423438
C	-0.0257843148	-0.0928293048	 0.0625783293	-0.127279
C	 0.7205800856	-0.3536965179	 1.382803104	 0.160083
O	 0.2778011501	-0.9117475861	 2.3460672885	-0.234885
C	-1.3721274189	-0.6496927916	 0.0897011496	 0.357256
C	-2.4906225092	-1.0857030848	 0.1174982171	-0.447217
C	 0.8361458886	-0.6916041278	-1.0615003416	 0.087383
C	 0.5401443034	-1.9597549983	-1.7332814872	-0.194288
O	 0.274579391	-0.6980772183	-2.3639350932	-0.23732
H	 0.9303381101	 1.8742975529	-0.0982613757	 0.120612
H	-0.502761335	 1.6616968447	-1.1250773813	 0.158333
H	-0.6946622585	 1.9175237208	 0.6244394736	 0.14148
H	 1.7580697013	 0.0549233197	 1.3722094969	 0.082438
H	-3.4787331194	-1.474301625	 0.1482245004	 0.201533
H	 1.8747606382	-0.3553332023	-1.0246008817	 0.097571
H	 1.3532856459	-2.5356044504	-2.1716332348	 0.119825
H	-0.3434834538	-2.5206502802	-1.4407581294	 0.137913
55.4547	87.5278	138.6567	157.8163	213.3298	238.4569	269.6903	309.1264	380.6947	426.0888	444.196	574.3451	638.7495	655.9014	657.1332	730.2399	836.3216	886.5037	910.9093	949.3079	993.9921	1014.7468	1085.4925	1116.0769	1157.2781	1170.5295	1176.677	1261.331	1310.2377	1395.3123	1408.2655	1434.9505	1487.8389	1498.6237	1519.883	1847.6399	2243.9843	2859.2444	3042.2369	3082.87	3099.69	3119.7935	3143.3995	3196.9492	3500.1857
CC(C=O)(C#C)C1CO1	C[C@@](C=O)(C#C)[C@H]1CO1	
InChI=1S/C7H8O2/c1-3-7(2,5-8)6-4-9-6/h1,5-6H,4H2,2H3	InChI=1S/C7H8O2/c1-3-7(2,5-8)6-4-9-6/h1,5-6H,4H2,2H3/t6-,7+/m1/s1
