21
gdb 99640	2.26778	1.10212	0.86091	3.5083	83.36	-0.2625	0.0372	0.2997	1443.0785	0.181797	-383.27139	-383.261156	-383.260212	-383.30728	36.645	
C	 0.0368102905	 1.5346649419	 0.1962397114	-0.400942
C	-0.0851057451	 0.0108636129	 0.1543462447	-0.181413
C	-1.4932189958	-0.490391701	-0.2435581026	-0.133303
C	-1.8583826071	-0.0426743003	-1.5930674431	 0.27686
N	-2.1323968708	 0.3006478755	-2.6624329696	-0.333725
C	-1.5835328651	-2.0096752977	-0.1554394934	-0.029967
N	-1.7505293986	-2.5569537742	 1.1965805415	-0.345736
C	-2.8185207728	-2.7596791661	 0.1992171256	 0.003965
C	-4.1629301456	-2.1301943669	 0.4743768849	-0.403159
H	 1.0471556466	 1.8334990958	 0.4899158109	 0.120344
H	-0.1745308138	 1.9781061168	-0.7816748341	 0.142034
H	-0.6625465775	 1.9676683828	 0.9197218845	 0.120047
H	 0.6492277327	-0.4070203949	-0.5444372987	 0.109589
H	 0.1283462319	-0.4171563717	 1.1393244759	 0.12173
H	-2.2177895772	-0.0584916562	 0.4551677917	 0.126599
H	-0.8904932939	-2.5163253321	-0.8260855426	 0.096242
H	-1.1941239592	-3.3979456834	 1.3189155548	 0.23538
H	-2.8812466252	-3.7520650596	-0.246241761	 0.090119
H	-4.0615830898	-1.1691020216	 0.983041805	 0.127497
H	-4.7174430511	-1.97603682	-0.4570239897	 0.13268
H	-4.7603460033	-2.7816910399	 1.1205618638	 0.125159
44.0253	90.2247	114.5997	150.0542	174.8991	177.2928	247.3133	281.8576	329.127	388.9797	449.6693	480.8668	543.3991	596.2966	767.8279	788.3571	842.8172	869.982	925.9828	953.8678	981.0284	1016.3369	1035.343	1056.814	1092.3995	1109.1536	1126.1064	1160.1421	1210.1492	1252.1845	1274.0931	1275.0326	1282.0307	1341.6038	1365.8994	1401.9264	1415.4304	1426.0095	1466.8	1488.197	1490.7792	1498.8561	1503.5005	1506.7851	2353.588	3035.4772	3037.9666	3041.4079	3060.0828	3081.6705	3102.6404	3105.4318	3107.5436	3115.5571	3116.8265	3133.6946	3513.6289
CCC(C#N)C1NC1C	CC[C@@H](C#N)[C@H]1N[C@H]1C	
InChI=1S/C7H12N2/c1-3-6(4-8)7-5(2)9-7/h5-7,9H,3H2,1-2H3	InChI=1S/C7H12N2/c1-3-6(4-8)7-5(2)9-7/h5-7,9H,3H2,1-2H3/t5-,6-,7-/m0/s1
