17
gdb 130450	4.86161	0.96429	0.82815	8.9156	76.44	-0.1704	-0.0111	0.1593	1360.6877	0.137881	-451.305724	-451.297445	-451.296501	-451.338917	31.063	
N	-1.1249047047	 0.9714302404	 0.828659651	-0.513635
H	-0.2410285881	 0.5299209051	 1.0681459338	 0.242313
H	-1.5942590688	 0.3430385727	 0.1844788218	 0.248222
H	-2.1721484856	 1.7200315576	 2.567384503	 0.292184
C	-0.8859946033	 2.2717061067	 0.1825157664	-0.168072
C	-0.3323563663	 3.2950432082	 1.1846905069	-0.324974
C	-1.2200466347	 3.5094124592	 2.3594980577	 0.430975
N	-2.0463909216	 2.6665829146	 2.9140243037	-0.199774
N	-2.7043117274	 3.1676255867	 3.9976794191	-0.366948
C	-2.2227940514	 4.4389348419	 4.1106495742	 0.419384
N	-2.4157663833	 5.4190847041	 4.8915001994	-0.593698
O	-1.2567364528	 4.6441954285	 3.0328761893	-0.218694
H	-0.1948864621	 2.2174827077	-0.6714715965	 0.108358
H	-1.8462867632	 2.6310628615	-0.2017634042	 0.132043
H	 0.6645654959	 2.9811955843	 1.5281902257	 0.138362
H	-0.1895596338	 4.259564195	 0.6876207588	 0.15354
H	-3.1049685689	 5.1572957958	 5.5919532797	 0.220415
63.8238	149.9422	165.0173	223.785	272.2004	311.6816	343.8624	448.6192	522.7355	611.6287	678.8757	697.692	732.0436	734.2762	784.285	844.69	860.2945	905.1143	949.1514	993.5443	1024.1135	1072.1325	1083.5589	1132.7014	1162.2053	1215.0833	1269.8153	1307.2907	1314.5749	1381.5925	1427.6622	1465.711	1499.1042	1511.0426	1644.4821	1657.4906	1761.1598	2993.2861	3004.4809	3076.4063	3089.2157	3492.5516	3535.3311	3535.5337	3572.9267
[NH3+]CCC1=N[N-]C(=N)O1	NCC[C@H]1NN=C([NH])O1	
InChI=1S/C4H7N4O/c5-2-1-3-7-8-4(6)9-3/h1-2,5H2,(H-,6,8)/q-1/p+1	InChI=1S/C4H9N4O/c5-2-1-3-7-8-4(6)9-3/h3,6-7H,1-2,5H2/t3-/m0/s1
