19
gdb 93935	3.55879	1.08959	0.9528	2.5404	72.23	-0.2418	-0.0192	0.2226	1295.3223	0.157142	-460.186997	-460.177483	-460.176539	-460.222435	33.523	
C	-0.0460619684	 1.479432195	 0.0378400973	-0.408346
C	 0.0893804579	-0.0226442779	 0.0973479493	 0.221584
O	 0.6848993905	-0.5153211392	-1.0887707951	-0.248016
C	 1.2445701389	-1.767450734	-0.7527979574	-0.128291
C	 1.5195611983	-1.6525904225	 0.7879563231	-0.012969
O	 0.9765161833	-0.4006953743	 1.1385719147	-0.246008
C	 0.8495476511	-2.8095196151	 1.5415059664	 0.362997
C	 1.6601491282	-4.0881595211	 1.6365540035	-0.487991
O	-0.2616315282	-2.6995756375	 1.999131718	-0.289739
H	 0.935119691	 1.9317392575	-0.1242681553	 0.13067
H	-0.7135432298	 1.7610133463	-0.7802504693	 0.12982
H	-0.4641929661	 1.8500817923	 0.9767243003	 0.134489
H	-0.8832964112	-0.5164692928	 0.2580394613	 0.083845
H	 0.543695972	-2.5870515351	-0.970088858	 0.106531
H	 2.1546443373	-1.9152003633	-1.3388353507	 0.120581
H	 2.5937394807	-1.638682407	 1.0050280176	 0.095189
H	 2.5188420824	-3.9303663011	 2.3000421123	 0.148903
H	 1.041474823	-4.8949881822	 2.030455201	 0.148576
H	 2.0657163492	-4.371051148	 0.6580130809	 0.138176
45.5385	58.8938	120.1152	140.7062	205.6457	209.9595	272.3151	295.424	373.3616	506.9664	577.6923	611.1733	699.6508	731.9071	803.8701	860.7815	870.4441	934.5105	948.6441	988.6676	1075.3079	1086.789	1111.7304	1124.4004	1137.4956	1169.0151	1195.2862	1236.5133	1287.4709	1345.452	1364.7577	1380.0155	1394.3656	1398.9552	1441.9161	1461.019	1474.2762	1485.2905	1486.6896	1520.0911	1825.1083	2972.5694	2993.9683	3031.4463	3043.5327	3056.8627	3090.7419	3096.6703	3137.4799	3141.8264	3154.2504
CC1OCC(O1)C(C)=O	C[C@H]1OC[C@@H](O1)C(=O)C	
InChI=1S/C6H10O3/c1-4(7)6-3-8-5(2)9-6/h5-6H,3H2,1-2H3	InChI=1S/C6H10O3/c1-4(7)6-3-8-5(2)9-6/h5-6H,3H2,1-2H3/t5-,6+/m0/s1
