18
gdb 13683	5.931	0.82063	0.77687	3.0771	69.99	-0.2509	-0.0219	0.229	1450.4899	0.151079	-384.933736	-384.924656	-384.923711	-384.96881	31.208	
C	 0.1899661402	 1.4906457385	-0.3106967362	-0.420631
C	 0.0246118036	 0.0342557719	 0.0393238983	 0.07811
O	 1.2144150684	-0.7436254669	 0.2286751337	-0.264071
C	 0.335226698	-0.5708752211	 1.3464734087	 0.066807
C	 0.8892661235	 0.1687736065	 2.5413645861	-0.242634
C	 1.9638363475	-0.6687143676	 3.2634437892	-0.261178
C	 2.6142314135	 0.1007980641	 4.38822532	 0.154653
O	 2.6513221783	-0.2513525405	 5.5387054971	-0.235301
H	 0.9604514727	 1.9741578325	 0.2926849101	 0.128401
H	 0.4761595175	 1.5915298777	-1.3627353015	 0.133894
H	-0.7550766341	 2.0261405477	-0.1690706503	 0.125295
H	-0.7327542007	-0.4805833807	-0.5564723333	 0.090315
H	-0.2132917459	-1.4795261726	 1.6081230183	 0.090923
H	 1.3207993578	 1.1245977041	 2.2292382376	 0.108717
H	 0.0673462879	 0.3942650558	 3.2322701588	 0.116477
H	 1.5498388478	-1.5977459223	 3.666061513	 0.121261
H	 2.7429751361	-0.9241860081	 2.5319251574	 0.139059
H	 3.0756238478	 1.0669041909	 4.0715712031	 0.069904
50.0553	66.3447	85.0928	132.1108	176.9887	249.1973	304.2881	381.0852	482.5826	485.6987	551.9262	751.7028	781.58	821.0441	858.0457	941.0018	980.0617	1017.1104	1036.8739	1062.8821	1110.7003	1134.2097	1177.1119	1179.8388	1214.4013	1263.1779	1305.1699	1313.0166	1359.1278	1403.0142	1420.515	1431.5011	1463.2465	1469.6282	1483.5573	1491.0233	1512.9836	1837.2521	2846.1954	3023.5252	3037.1648	3041.3892	3067.8914	3082.6725	3088.2904	3101.7071	3106.178	3136.0153
CC1OC1CCC=O	C[C@H]1O[C@H]1CCC=O	
InChI=1S/C6H10O2/c1-5-6(8-5)3-2-4-7/h4-6H,2-3H2,1H3	InChI=1S/C6H10O2/c1-5-6(8-5)3-2-4-7/h4-6H,2-3H2,1H3/t5-,6+/m1/s1
