17
gdb 44472	4.28584	1.4121	1.29668	3.5261	72.91	-0.2494	0.0471	0.2964	985.5217	0.14002	-417.979861	-417.9735	-417.972556	-418.010319	27.078	
O	 0.0418838941	-0.0383518261	-0.0492195465	-0.386472
C	-0.0262622461	 1.1647403625	-0.0334009138	 0.409143
N	-1.2098626772	 1.9303938133	 0.0452061574	-0.370996
C	-0.8858178736	 3.3021760566	-0.2692949355	 0.043136
C	-0.8089909729	 4.5750193828	 0.6554369809	-0.101101
C	-0.0177918401	 3.7431083368	 1.6836968672	-0.262047
C	 0.5410842452	 3.3389585436	 0.2711838391	 0.352566
C	 0.5691449638	 4.8525185609	-0.0831954382	-0.295466
N	 1.077289798	 2.0625297879	-0.0769175087	-0.468394
H	-2.0454686913	 1.4725380195	-0.2857586915	 0.250166
H	-1.0108038994	 3.5353881824	-1.3335960813	 0.07978
H	-1.5820376079	 5.3160567379	 0.8531959627	 0.08454
H	 0.664479739	 4.2969320851	 2.3323683416	 0.090638
H	-0.5691047839	 2.9753735876	 2.2257073068	 0.11583
H	 0.5200669304	 5.1140013122	-1.1428990869	 0.106269
H	 1.2737637254	 5.4836745376	 0.4620120915	 0.103189
H	 1.9252530367	 1.6997791994	 0.3350093453	 0.249222
149.1913	326.156	363.3584	448.3819	496.7373	514.2883	555.9504	578.0836	616.6853	753.0011	764.4337	769.3718	790.5612	842.33	896.093	923.8833	927.8027	972.0075	988.1813	1017.8173	1053.1716	1084.8777	1114.6836	1122.3513	1139.8946	1173.7663	1199.0774	1215.2706	1233.2279	1252.922	1299.9924	1371.2233	1384.2272	1426.0183	1492.479	1534.2431	1856.1136	3025.763	3063.5234	3073.9056	3127.8202	3135.0621	3151.6368	3609.2641	3626.81
O=C1NC2C3CC2(C3)N1	O=C1N[C@H]2[C@H]3C[C@@]2(C3)N1	
InChI=1S/C6H8N2O/c9-5-7-4-3-1-6(4,2-3)8-5/h3-4H,1-2H2,(H2,7,8,9)	InChI=1S/C6H8N2O/c9-5-7-4-3-1-6(4,2-3)8-5/h3-4H,1-2H2,(H2,7,8,9)/t3-,4-,6-/m0/s1
