20
gdb 56977	2.80625	1.22483	0.95741	4.0427	82.52	-0.2669	0.039	0.3059	1268.4919	0.171483	-366.00318	-365.994439	-365.993494	-366.036825	33.109	
C	-0.0990292323	 1.528905974	-0.0131458835	-0.396979
C	 0.0312824754	-0.0044335407	-0.0931086989	-0.160273
C	 0.8026366627	-0.3968091568	-1.2777795557	 0.274421
N	 1.4293899932	-0.7042255382	-2.1993611863	-0.331053
C	 0.6809926459	-0.5990217812	 1.1712013121	 0.032462
C	-0.1096154007	-0.5286739086	 2.5247309509	-0.274243
C	 0.0561512858	-2.0464261626	 2.6728429217	-0.038573
C	-0.586804695	-2.7439572464	 1.511323732	-0.276985
C	 0.7702539661	-2.1228257015	 1.3189248383	-0.062144
H	 0.8849364242	 1.9972140938	 0.0813731401	 0.135895
H	-0.5839920962	 1.9319976217	-0.9054916716	 0.136185
H	-0.6969174823	 1.803916942	 0.8600322636	 0.12912
H	-0.9709925726	-0.4354314405	-0.2088957387	 0.121228
H	 1.6694968819	-0.1464917641	 1.2934420986	 0.091088
H	 0.4151417864	 0.0553379533	 3.2829184923	 0.110325
H	-1.1451086305	-0.1734565746	 2.4683455198	 0.096406
H	 0.296204241	-2.5610477041	 3.5945421652	 0.091644
H	-0.5830219141	-3.828125779	 1.5544695879	 0.118454
H	-1.4757482838	-2.3285023867	 1.0413138873	 0.10406
H	 1.626875705	-2.7182085398	 1.0291548749	 0.098962
66.4221	119.9687	151.6207	212.8709	226.198	273.4977	353.16	388.2816	463.5589	529.4919	590.0652	692.516	781.1015	796.7384	806.705	866.6326	924.5244	951.6631	955.3587	997.9439	1008.8305	1030.7115	1047.4499	1066.033	1086.6663	1095.5636	1109.168	1142.1416	1168.6221	1212.5462	1246.5237	1266.4132	1283.7439	1303.6766	1329.9363	1368.157	1379.1548	1412.0391	1483.3013	1494.669	1498.4853	1500.816	2353.2082	3034.1864	3037.5693	3047.8637	3063.5977	3106.94	3111.6953	3123.259	3127.8615	3186.5019	3191.4485	3205.1269
CC(C#N)C1CC2CC12	C[C@@H](C#N)[C@H]1C[C@H]2C[C@@H]12	
InChI=1S/C8H11N/c1-5(4-9)7-2-6-3-8(6)7/h5-8H,2-3H2,1H3	InChI=1S/C8H11N/c1-5(4-9)7-2-6-3-8(6)7/h5-8H,2-3H2,1H3/t5-,6-,7+,8+/m0/s1
