18
gdb 114375	6.43946	0.80628	0.7622	3.6207	75.95	-0.2445	0.0016	0.246	1483.9772	0.146056	-439.040985	-439.032209	-439.031265	-439.074878	31.591	
C	 0.0868269114	 1.2133564279	 0.2805180997	-0.240515
O	-0.2571899297	-0.0661528868	-0.2078662467	-0.25105
C	 0.5314070962	-0.4782249636	-1.2888343605	 0.148552
C	 1.9518042064	-1.0447245224	-0.8898057901	-0.284173
C	 1.4956174414	-2.4294784117	-1.3676357149	-0.027655
C	 0.1323836435	-1.8943258813	-1.7251036098	-0.105317
N	 1.0873988402	-2.2870914324	-2.7545890277	-0.080311
C	 0.9076676656	-3.3586407543	-3.6118005148	 0.137374
O	 1.6443287738	-4.3113832078	-3.6957597259	-0.29391
H	 1.1146524478	 1.2436769494	 0.6710456557	 0.112017
H	-0.0083922558	 1.9813014402	-0.5022023726	 0.111306
H	-0.6051739379	 1.4450781078	 1.0929606495	 0.133082
H	 0.530591966	 0.2715215899	-2.0930140597	 0.078431
H	 2.8312834441	-0.6305308472	-1.3870054843	 0.112876
H	 2.0721108258	-1.0040686609	 0.1948795065	 0.120534
H	 1.7790068873	-3.4066391604	-0.9983574653	 0.12532
H	-0.8450855353	-2.3559360578	-1.6518015411	 0.118386
H	 0.040165259	-3.2007873086	-4.281224198	 0.085054
74.7949	103.0772	154.8293	173.7413	203.0585	249.9951	315.0255	339.8479	448.6632	481.0204	669.0756	746.6144	782.0686	840.1548	873.2828	955.0391	959.1544	991.0103	1021.8076	1034.5416	1046.2326	1069.2729	1135.4625	1164.3112	1176.9344	1185.7706	1212.3365	1232.7868	1249.3383	1264.0655	1301.0314	1375.154	1417.2897	1424.8403	1461.387	1482.644	1487.7159	1508.8957	1795.3781	2950.431	2981.6249	3002.6366	3031.5658	3071.9166	3122.7025	3135.5911	3195.6877	3211.3082
COC1CC2C1N2C=O	CO[C@H]1C[C@H]2[C@@H]1N2C=O	
InChI=1S/C6H9NO2/c1-9-5-2-4-6(5)7(4)3-8/h3-6H,2H2,1H3	InChI=1S/C6H9NO2/c1-9-5-2-4-6(5)7(4)3-8/h3-6H,2H2,1H3/t4-,5-,6-,7?/m0/s1
