21
gdb 75546	2.34995	1.75018	1.13445	1.0516	86.13	-0.2183	0.0268	0.2451	1139.6911	0.183179	-387.091358	-387.082952	-387.082008	-387.123977	33.56	
C	-0.0443502058	 1.5285431672	 0.0048181888	-0.499718
C	-0.0188300185	 0.0234770911	-0.0110378517	 0.280361
C	-0.0445026554	-0.6707881469	-1.1540859371	-0.181338
C	 0.014169397	-2.173246901	-1.2029616637	-0.261064
C	 0.4742067819	-2.7155320018	 0.1496515473	-0.094882
O	-0.2434108428	-2.0858342002	 1.201746392	-0.29592
C	 0.0306006895	-0.7119330683	 1.2882707048	 0.373336
C	 1.0306531248	-0.3220725255	 2.3704049566	-0.325668
C	-0.450058239	-0.1150983988	 2.5809992668	-0.329301
H	 0.8051784129	 1.9495073074	 0.5560811025	 0.12506
H	-0.0069307665	 1.9234052878	-1.0135531625	 0.123159
H	-0.9537465293	 1.9139950074	 0.4811256279	 0.129284
H	-0.106235497	-0.1382799145	-2.1002794391	 0.077428
H	-0.9706097609	-2.5877953594	-1.4607153477	 0.112422
H	 0.7028026071	-2.5061173591	-1.9905667325	 0.100029
H	 0.280168447	-3.7871725799	 0.2463325428	 0.101418
H	 1.5553337445	-2.5482238084	 0.2757640298	 0.091171
H	 1.4992429326	-1.1482178734	 2.8927292364	 0.121091
H	 1.6625825234	 0.5461633292	 2.2213792156	 0.11199
H	-0.839753621	 0.8956255868	 2.5804786536	 0.114479
H	-0.9625843146	-0.8020278499	 3.2443665793	 0.126662
82.5025	175.8341	227.2367	261.8054	283.8105	301.4244	376.7433	412.956	457.2291	501.7717	606.7717	632.4191	666.0761	773.2821	815.6793	865.9519	875.1118	900.3089	927.4578	948.8097	980.227	1004.6678	1048.7675	1066.4633	1072.685	1080.3715	1087.999	1106.4611	1159.4433	1193.7211	1227.9762	1251.9156	1292.0555	1311.0457	1364.9328	1403.2886	1409.5297	1414.5023	1449.8104	1471.4265	1482.4611	1488.5476	1495.365	1501.4304	1722.0782	2983.5568	3007.2587	3023.4125	3042.3181	3071.694	3089.8443	3112.67	3138.0538	3145.1048	3149.1144	3224.0424	3238.8764
CC1=CCCOC11CC1	CC1=CCCOC21CC2	
InChI=1S/C8H12O/c1-7-3-2-6-9-8(7)4-5-8/h3H,2,4-6H2,1H3	InChI=1S/C8H12O/c1-7-3-2-6-9-8(7)4-5-8/h3H,2,4-6H2,1H3
