20
gdb 133751	3.14559	0.80325	0.75058	2.1389	68.27	-0.322	0.0777	0.3997	1566.6724	0.165829	-534.678987	-534.668852	-534.667908	-534.715168	36.486	
C	-0.1875186199	 1.6126133128	 0.8015333622	-0.394563
C	-0.1182763885	 0.1375848439	 0.3950611338	-0.174009
C	-1.4655660413	-0.4752018981	-0.037425569	 0.03259
C	-2.0412959339	 0.2143299411	-1.2838363638	-0.402143
C	-1.2846417753	-1.9925867237	-0.2391782095	-0.345242
C	-2.5652219985	-2.8010839096	-0.3090278956	 0.282429
F	-3.2855995561	-2.5548083254	-1.4184466828	-0.080205
F	-2.2953887688	-4.118067108	-0.3070449651	-0.079438
F	-3.3675502335	-2.5583477507	 0.7422524341	-0.08451
H	 0.7820878399	 1.9560471567	 1.1749616635	 0.115673
H	-0.4619446578	 2.2592878471	-0.0368166505	 0.121966
H	-0.9238601122	 1.768285787	 1.5980672078	 0.116823
H	 0.6091541575	 0.0143837597	-0.4195504407	 0.095536
H	 0.2729491121	-0.4424102792	 1.2406711466	 0.094529
H	-2.1733040802	-0.3402531117	 0.7912517906	 0.089217
H	-2.2068386263	 1.2794839422	-1.1032096497	 0.117778
H	-1.3498105618	 0.1232923307	-2.1306316462	 0.111546
H	-2.9942737934	-0.2235510993	-1.5845150322	 0.131692
H	-0.7184025508	-2.2029115213	-1.1532691952	 0.125253
H	-0.7155825013	-2.4140392643	 0.5959515216	 0.125078
31.8419	79.4042	114.3644	150.5729	212.3692	249.2588	271.4982	310.8493	323.4165	372.5316	422.666	477.1899	538.3832	567.2711	658.0271	776.917	833.5679	844.1716	886.5292	932.358	979.4354	1013.0145	1050.556	1070.9164	1125.702	1168.5872	1196.5977	1205.461	1270.7791	1288.6349	1309.3008	1324.1001	1379.5933	1384.8249	1397.3401	1415.1978	1420.4024	1470.9141	1486.1871	1498.2051	1501.147	1507.9153	1516.0993	3008.1012	3021.0617	3034.5489	3036.6361	3046.8973	3051.5145	3096.6956	3100.6956	3105.877	3113.3227	3141.2087
CCC(C)CC(F)(F)F	CC[C@@H](C)CC(F)(F)F	
InChI=1S/C6H11F3/c1-3-5(2)4-6(7,8)9/h5H,3-4H2,1-2H3	InChI=1S/C6H11F3/c1-3-5(2)4-6(7,8)9/h5H,3-4H2,1-2H3/t5-/m1/s1
