19
gdb 104823	1.87303	1.51858	1.27918	3.2364	70.46	-0.2701	0.0066	0.2766	1137.9056	0.158169	-460.187876	-460.178319	-460.177375	-460.222503	34.329	
C	 0.0216197261	 1.599980082	 0.1364149678	-0.39673
C	-0.0174954145	 0.0852681762	-0.1065569308	-0.255189
C	-1.4238873352	-0.5352472193	-0.0721143784	 0.086159
C	-2.3469757769	-0.0158965477	-1.1811148499	-0.137484
O	-3.635063548	-0.6063506764	-1.1441799825	-0.41938
C	-1.467046843	-2.0658122659	 0.1460609813	-0.126323
O	-2.0585324846	-1.8702480137	 1.4760785938	-0.240241
C	-2.0906084842	-0.5156161719	 1.3139091064	 0.434282
O	-2.5421871605	 0.2998251543	 2.0578618959	-0.34745
H	 1.0574720347	 1.9428212324	 0.2128032899	 0.119479
H	-0.4477026207	 2.1597824911	-0.677743599	 0.121868
H	-0.4939428472	 1.8606922324	 1.0649244471	 0.150278
H	 0.4409767245	-0.1530769059	-1.075462053	 0.105491
H	 0.5966815055	-0.4148929225	 0.6518274148	 0.112117
H	-2.4089480211	 1.0780491937	-1.1275454618	 0.11525
H	-1.9178745438	-0.2754337275	-2.1558836197	 0.118092
H	-4.1317420728	-0.1991625139	-0.4260992397	 0.300785
H	-2.1605876008	-2.6105272823	-0.4946857752	 0.140123
H	-0.5039604678	-2.573706825	 0.2245570431	 0.118872
82.4499	95.1911	128.4194	140.3292	199.1569	234.2714	270.3924	312.8038	371.2314	387.2555	491.4168	539.8309	686.2975	735.0402	780.1006	802.5055	863.2127	910.2611	958.1875	988.4854	1029.2684	1045.486	1084.3405	1122.0605	1146.7658	1163.6574	1207.6443	1233.5328	1246.4895	1316.8888	1354.4771	1369.9981	1398.2552	1411.4435	1417.859	1488.7492	1492.3091	1501.4612	1503.4334	1510.8871	1911.5924	3018.3136	3023.7867	3046.021	3055.0245	3072.52	3079.9416	3112.7885	3124.0828	3151.3787	3810.765
CCC1(CO)COC1=O	CC[C@@]1(CO)COC1=O	
InChI=1S/C6H10O3/c1-2-6(3-7)4-9-5(6)8/h7H,2-4H2,1H3	InChI=1S/C6H10O3/c1-2-6(3-7)4-9-5(6)8/h7H,2-4H2,1H3/t6-/m1/s1
