19
gdb 36740	4.68147	0.73757	0.69835	3.4191	76.49	-0.2542	0.0187	0.2729	1598.8549	0.160917	-419.205317	-419.19643	-419.195485	-419.240905	31.635	
N	 0.4717639176	-1.1725230379	-0.2348203407	-0.295909
C	 0.3285436011	-0.0265718055	-0.2393488535	 0.256731
C	 0.1405340024	 1.4261382538	-0.2151692297	-0.267097
N	 1.3934801335	 2.1113971775	 0.0911253704	-0.310421
C	 1.2309344455	 3.5639753743	 0.215533611	 0.023099
C	 2.5415387687	 4.2207386097	 0.7061963184	-0.250233
C	 3.1246839986	 4.8242020954	-0.5774265505	-0.075939
O	 1.9869938816	 5.2503469626	-1.3104324326	-0.244241
C	 1.0163314861	 4.2252886854	-1.1793061217	-0.068352
H	-0.212053545	 1.7409794847	-1.2045686581	 0.161208
H	-0.6775461108	 1.6532228524	 0.4938404069	 0.132775
H	 1.7597705925	 1.7395509185	 0.9616712121	 0.233592
H	 0.3948213537	 3.8165807833	 0.8885931007	 0.065466
H	 2.317567506	 5.0128311003	 1.4251810776	 0.113777
H	 3.2112423511	 3.5012928715	 1.1850342233	 0.104748
H	 3.7648981418	 5.6936783842	-0.4114209714	 0.112221
H	 3.6939652023	 4.0667524408	-1.1391876395	 0.101633
H	 1.1543297237	 3.4592113064	-1.9586311189	 0.098901
H	 0.0313917897	 4.6840392024	-1.3013320137	 0.108042
21.4147	66.5747	126.86	129.0111	239.0072	271.2732	376.5301	389.8935	451.5417	558.8923	638.9008	678.6289	777.0948	848.4259	877.4994	932.3959	952.2004	963.5818	992.8325	1013.8635	1039.6981	1080.1113	1126.3879	1137.5484	1156.366	1230.7227	1234.3493	1241.7241	1276.8668	1307.2321	1329.8446	1350.5687	1374.0251	1383.2957	1415.7006	1473.6374	1491.6649	1499.8085	1502.1361	1519.2087	2369.6192	2932.5999	2949.3896	2978.2524	2984.8563	3055.4903	3063.2283	3087.3227	3100.9615	3114.404	3520.8228
N#CCNC1CCOC1	N#CCN[C@H]1CCOC1	
InChI=1S/C6H10N2O/c7-2-3-8-6-1-4-9-5-6/h6,8H,1,3-5H2	InChI=1S/C6H10N2O/c7-2-3-8-6-1-4-9-5-6/h6,8H,1,3-5H2/t6-/m0/s1
