22
gdb 64439	2.15996	1.68689	1.23234	2.8905	82.92	-0.2542	0.0233	0.2774	1134.3392	0.195099	-404.379682	-404.370558	-404.369614	-404.41309	35.542	
C	 0.038678542	 1.5552336514	-0.0594397462	-0.411648
C	 0.0242596387	 0.0215780974	-0.0004769614	 0.192442
C	-1.4409636343	-0.4684632699	 0.1072708528	-0.412224
C	 0.695034313	-0.5514503776	-1.2716810755	-0.225478
C	 0.9500834891	-2.0555256955	-1.167110788	-0.230159
C	 1.7625969899	-2.3337251063	 0.0876814184	-0.071158
O	 1.1636593428	-1.7789408984	 1.2677433857	-0.263705
C	 0.7485391222	-0.4714708982	 1.2521119959	 0.367536
N	 0.8468335004	 0.2468114723	 2.290032557	-0.505496
H	 1.0621966732	 1.9379157404	-0.1115745269	 0.113172
H	-0.502533202	 1.898002146	-0.9484638205	 0.099296
H	-0.4289516665	 1.9852536124	 0.8273046085	 0.138807
H	-1.9991002182	-0.1842801593	-0.7914408119	 0.110758
H	-1.5070275133	-1.5534881785	 0.222555832	 0.119762
H	-1.9272252047	-0.0118435098	 0.9733843527	 0.133085
H	 0.070280203	-0.3182807804	-2.1410638086	 0.097719
H	 1.653406796	-0.0384026793	-1.4287390853	 0.098026
H	 0.0072201008	-2.6115623441	-1.1306593751	 0.111804
H	 1.5031726253	-2.4200193537	-2.0400339129	 0.102263
H	 1.8549956404	-3.4035878446	 0.2905582588	 0.115277
H	 2.7768253452	-1.9210294099	-0.018002697	 0.10387
H	 1.3139821971	-0.2818753943	 3.0300864875	 0.216051
68.5117	148.9203	208.4841	239.2663	250.1595	299.2377	314.2717	356.2832	375.2491	440.7652	463.988	531.7129	599.6687	672.3731	719.7706	833.4797	874.7508	898.9456	915.5766	940.5477	950.7762	970.5502	1001.6462	1026.669	1058.4633	1076.7774	1124.7648	1183.8326	1199.4866	1232.2989	1248.0433	1260.1136	1308.2254	1332.3261	1375.2669	1381.1634	1396.5715	1419.54	1427.1257	1475.2512	1480.5818	1492.3932	1493.5899	1495.9481	1511.3646	1517.0742	1737.3521	2998.3761	3015.6669	3034.0943	3039.075	3042.1507	3064.7558	3084.0176	3097.9065	3103.1361	3108.8606	3122.0712	3141.2612	3458.0255
CC1(C)CCCOC1=N	CC1(C)CCCO[C]1[NH]	
InChI=1S/C7H13NO/c1-7(2)4-3-5-9-6(7)8/h8H,3-5H2,1-2H3	InChI=1S/C7H13NO/c1-7(2)4-3-5-9-6(7)8/h8H,3-5H2,1-2H3
