17
gdb 79194	2.78565	1.86963	1.57281	3.0642	65.21	-0.2421	0.0599	0.302	889.0377	0.137835	-458.91889	-458.912088	-458.911144	-458.949775	28.318	
O	 0.0758155579	 1.4420462069	-0.0247404801	-0.449266
C	 0.037590009	 0.0171644219	-0.0021461837	 0.061357
C	-1.3699672506	-0.567871457	-0.0611884804	-0.112627
C	-2.1751956512	-0.1599506441	-1.2806647415	 0.080397
O	-1.3009186863	 0.3953665691	-2.2716062974	-0.329429
C	-0.4767106317	-0.8328692111	-2.1869670357	 0.043295
C	-1.5172786969	-1.4963788092	-1.2664499489	-0.155117
C	 0.7292177932	-0.5574796945	-1.2865161678	 0.137047
O	 1.6966788495	 0.3019394505	-1.8170800526	-0.445851
H	-0.4920574037	 1.7022978149	-0.7644925103	 0.295424
H	 0.5681902553	-0.274601406	 0.9064071934	 0.093026
H	-1.9207099934	-0.7874486626	 0.8456945627	 0.098266
H	-3.2105824939	 0.1578550055	-1.2755690834	 0.11398
H	-0.2742202709	-1.237251436	-3.1781442861	 0.094938
H	-1.9002613864	-2.5062313938	-1.2705165302	 0.10714
H	 1.1962669964	-1.5253492711	-1.0518460162	 0.081043
H	 1.5372247038	 1.1588842869	-1.3925252719	 0.286376
138.0225	243.6789	301.7967	355.0678	415.7481	492.7343	517.1575	573.2374	665.7223	711.207	756.603	795.0043	808.5	821.2029	836.4222	889.4217	924.1149	967.9291	993.7066	1019.4494	1032.5194	1054.6195	1062.0442	1090.5437	1112.0063	1143.1467	1203.3024	1217.0159	1249.5355	1271.6372	1290.9061	1294.2451	1334.8815	1372.0843	1396.0816	1431.7915	1451.981	3002.5518	3092.8706	3128.0818	3186.2766	3194.3421	3222.6211	3698.6375	3741.9804
OC1C2C3OC(C23)C1O	O[C@H]1[C@H]2[C@H]3O[C@H]([C@@H]23)[C@H]1O	
InChI=1S/C6H8O3/c7-3-1-2-5(1)9-6(2)4(3)8/h1-8H	InChI=1S/C6H8O3/c7-3-1-2-5(1)9-6(2)4(3)8/h1-8H/t1-,2-,3-,4-,5+,6+/m0/s1
