25
gdb 94846	3.56575	1.02738	0.96205	0.1271	92.34	-0.2777	0.083	0.3606	1395.6563	0.230785	-352.370409	-352.361365	-352.360421	-352.404778	35.871	
C	-0.0912018072	 1.5772393045	-0.0188471903	-0.407652
C	 0.0426169102	 0.0557166222	-0.0320066199	 0.064533
C	 0.9071288237	-0.511847444	-1.1727180838	-0.212834
C	 1.1969342135	-1.9420377658	-0.703067767	-0.267737
C	 1.5047896421	-1.7908828028	 0.805063931	 0.402944
C	 1.3896492169	-3.1158840473	 1.6163515676	-0.281044
C	 2.9237150029	-3.3089066506	 1.4859814213	-0.210518
C	 3.0371377089	-1.8076180166	 1.1152835529	-0.262764
C	 0.6963044975	-0.5407489509	 1.2417074124	-0.314405
H	 0.8916429745	 2.0547154003	 0.0737271814	 0.109807
H	-0.5561619888	 1.9469780292	-0.9393919495	 0.108731
H	-0.7051017082	 1.9175198201	 0.8222488404	 0.110315
H	-0.9617087514	-0.3779652014	-0.1369319553	 0.066238
H	 0.4158106084	-0.4635548608	-2.1497382401	 0.08773
H	 1.8429358332	 0.0592738517	-1.2496177746	 0.091011
H	 0.2963668118	-2.5565998225	-0.8354777422	 0.089227
H	 2.0046835077	-2.4323913725	-1.2557451333	 0.088025
H	 1.0910093016	-2.930244855	 2.6531747315	 0.092941
H	 0.7409324308	-3.8943408444	 1.2028077268	 0.088046
H	 3.4662870528	-3.6504589142	 2.3705205202	 0.092869
H	 3.1856458752	-3.9623474661	 0.6493739626	 0.100713
H	 3.7154822263	-1.5285416973	 0.302655593	 0.089604
H	 3.2753660297	-1.1932646787	 1.9896039076	 0.092055
H	 1.3685259488	 0.1961389754	 1.6986423562	 0.090096
H	-0.053080171	-0.7878556825	 2.001384851	 0.09207
23.4305	130.0738	175.0263	241.9195	248.1934	301.6892	367.1557	382.4432	416.6121	446.1664	550.7555	673.1009	727.3655	782.2706	817.5466	850.7011	869.2601	888.2766	905.1581	937.2605	940.4234	952.9677	980.612	991.4884	1014.6241	1033.7796	1087.6589	1095.1604	1122.3313	1179.0021	1191.8665	1195.2195	1225.2458	1239.5271	1255.7258	1261.1394	1266.915	1277.2168	1296.7625	1304.092	1328.5746	1344.511	1348.964	1385.5593	1410.9455	1473.2164	1484.0055	1485.1165	1489.3677	1496.7812	1499.2417	1502.675	1507.6397	2998.187	3012.3436	3019.1771	3020.8405	3025.2769	3036.2742	3041.5013	3059.961	3066.1229	3073.5709	3078.1893	3083.9739	3089.3311	3089.4198	3091.9043	3113.9688
CC1CCC2(CCC2)C1	C[C@H]1CCC2(CCC2)C1	
InChI=1S/C9H16/c1-8-3-6-9(7-8)4-2-5-9/h8H,2-7H2,1H3	InChI=1S/C9H16/c1-8-3-6-9(7-8)4-2-5-9/h8H,2-7H2,1H3/t8-/m0/s1
