20
gdb 110713	2.48663	1.41299	1.094	1.6599	80.01	-0.2013	0.0149	0.2162	1174.3835	0.170512	-403.063013	-403.054424	-403.05348	-403.096766	33.305	
C	-0.0542859131	 1.4387509518	-0.1338261233	-0.335946
N	-0.0079210208	-0.0149923022	-0.1269028012	-0.083724
C	-1.2065353484	-0.7785287506	 0.4185523488	-0.094741
C	-0.721011843	-2.2015842514	 0.1208255234	-0.065167
C	 0.5470931122	-2.1590072607	 0.5411870359	-0.065204
C	 0.6719456558	-0.7154271996	 1.0411418765	-0.094768
C	-0.6555751684	-0.6156944414	 1.888045241	 0.074619
C	-0.9764368892	 0.6277936711	 2.7296808603	-0.140044
O	-1.3863125699	 0.1531029321	 4.0087323568	-0.429623
H	 0.9450709833	 1.8125903476	-0.3839913431	 0.1197
H	-0.7286653514	 1.756625397	-0.937078951	 0.11969
H	-0.3756259232	 1.9481610156	 0.787201217	 0.094436
H	-2.2059477816	-0.4665643528	 0.1118401878	 0.063071
H	-1.2937943161	-3.0028837972	-0.3218490914	 0.10346
H	 1.3180098414	-2.9151830121	 0.543907488	 0.103459
H	 1.6358394551	-0.3375215404	 1.3851147711	 0.063069
H	-0.8414217244	-1.4749567699	 2.5360786318	 0.097944
H	-0.0948320005	 1.2793045489	 2.8251883378	 0.093568
H	-1.7764827551	 1.2240858398	 2.2658721294	 0.093595
H	-1.5945288826	 0.9158770244	 4.5570370044	 0.282606
28.102	187.1819	197.6809	255.0923	277.6922	292.8379	323.8068	357.3315	473.1512	535.9705	602.294	645.5726	706.3566	780.1461	838.5972	891.633	893.5809	904.4526	913.536	928.7802	1000.0443	1037.7856	1051.5926	1068.5794	1122.3735	1137.0744	1138.5088	1169.5808	1192.7703	1198.6048	1222.4175	1236.4056	1259.1446	1272.973	1287.6446	1312.9818	1353.7768	1445.4837	1452.6346	1491.6183	1504.0338	1521.5137	1614.3508	2969.9957	2994.0759	3003.1247	3053.9892	3085.1703	3086.0256	3109.0375	3112.7928	3228.8692	3255.5525	3821.7955
CN1C2C=CC1C2CO	CN1[C@H]2C=C[C@@H]1[C@H]2CO	
InChI=1S/C7H11NO/c1-8-6-2-3-7(8)5(6)4-9/h2-3,5-7,9H,4H2,1H3	InChI=1S/C7H11NO/c1-8-6-2-3-7(8)5(6)4-9/h2-3,5-7,9H,4H2,1H3/t5-,6-,7+
