18
gdb 76767	2.32308	1.71699	1.38751	2.0927	66.47	-0.2404	0.0494	0.2898	992.3227	0.148012	-476.173455	-476.165291	-476.164347	-476.205968	32.075	
O	 0.4213921725	 1.0560555609	-0.3764343673	-0.442304
C	 0.0774832081	-0.2551459468	-0.0132206027	 0.108282
C	 0.2075770019	-0.5104927995	 1.5372321298	 0.009348
O	 0.7646838228	 0.5579520137	 2.2441669046	-0.435931
C	-1.3369208316	-0.7292935072	 1.626746022	 0.382459
O	-1.7991959683	-1.9029229714	 2.2219177108	-0.486994
C	-2.1721392185	 0.5635309089	 1.809731125	-0.23781
N	-2.1128384174	 0.8201038871	 0.3321452897	-0.344453
C	-1.4616949179	-0.4950985943	 0.087769715	-0.114242
H	-0.4266922048	 1.5423588118	-0.2833331502	 0.289402
H	 0.6258359632	-0.9644342278	-0.6370800588	 0.086478
H	 0.7321889771	-1.4462323339	 1.7744144904	 0.07162
H	 0.9593058969	 1.2233320127	 1.5623518913	 0.289203
H	-1.3670530419	-1.9972761294	 3.0783182005	 0.28611
H	-3.1774898567	 0.3260697527	 2.1700760371	 0.109875
H	-1.7292632703	 1.3591284532	 2.41416273	 0.119016
H	-3.0207702009	 0.9179422508	-0.1044300206	 0.234877
H	-1.950564784	-1.1731666115	-0.6114973466	 0.075063
84.148	159.4232	234.7003	268.6258	287.4577	314.7733	355.057	484.0545	507.8713	562.2648	617.6222	629.0808	722.3671	758.092	805.6686	822.7351	865.261	899.6246	932.047	998.5268	1014.0603	1019.441	1089.0078	1121.7134	1139.4434	1154.6357	1167.1976	1202.2511	1243.3779	1257.7967	1265.9302	1311.8962	1321.793	1345.7062	1366.8557	1404.1839	1427.4206	1457.9743	1498.5977	3009.2095	3050.0462	3082.3276	3111.8066	3116.1299	3473.7034	3557.0834	3653.2868	3797.5428
OC1C(O)C2(O)CNC12	O[C@H]1[C@@H](O)[C@@]2(O)CN[C@@H]12	
InChI=1S/C5H9NO3/c7-2-3-5(9,1-6-3)4(2)8/h2-4,6-9H,1H2	InChI=1S/C5H9NO3/c7-2-3-5(9,1-6-3)4(2)8/h2-4,6-9H,1H2/t2-,3+,4-,5-/m1/s1
