19
gdb 102024	2.49229	1.09342	0.79357	1.5122	73.65	-0.2546	-0.0274	0.2272	1452.8637	0.155581	-460.207913	-460.19722	-460.196276	-460.24546	35.848	
C	 0.0424933116	 1.5540471648	 0.1140250013	-0.395351
C	 0.2028280045	 0.0329805174	 0.156737763	-0.191424
C	 0.7343608343	-0.5584727754	-1.1652255835	-0.20673
C	 2.1979347427	-0.1909665529	-1.3627038838	 0.170935
O	 2.5979874562	 0.6206047321	-2.1539018887	-0.249479
C	 0.5412218515	-2.0719054798	-1.2093367363	 0.444623
O	-0.2477118445	-2.700912311	-0.5532507352	-0.357112
O	 1.3736477456	-2.6232037576	-2.1134155057	-0.228933
C	 1.263551353	-4.0453311542	-2.27632766	-0.243676
H	 0.9865899087	 2.0582634534	-0.114718564	 0.132805
H	-0.681915432	 1.8518610182	-0.6515519975	 0.122726
H	-0.3148944987	 1.9297736676	 1.0770432683	 0.119678
H	 0.8797143273	-0.2547667346	 0.9717685446	 0.106876
H	-0.7510088166	-0.4552174583	 0.3742181327	 0.133866
H	 0.1822539111	-0.1354677264	-2.0138889264	 0.12691
H	 2.8931112311	-0.7075055244	-0.6617701154	 0.082107
H	 0.2605258943	-4.3137272355	-2.6164168732	 0.145687
H	 2.0073506568	-4.3149782351	-3.0254298873	 0.141386
H	 1.464574463	-4.5557049183	-1.331466963	 0.145105
25.1686	68.8452	89.4224	108.5268	140.9257	149.7464	228.9795	249.9206	318.4308	335.5291	343.0085	437.959	475.6167	650.9877	768.5154	775.9975	891.1678	907.6508	971.5158	996.8423	1031.0482	1087.0222	1126.0394	1156.7516	1178.7037	1206.1297	1233.4555	1244.4975	1299.0102	1320.4042	1367.8928	1421.8528	1427.5105	1470.9596	1481.336	1490.2726	1496.1157	1500.6421	1506.8969	1814.8322	1843.675	2869.7939	3028.7038	3038.6041	3047.1256	3055.8117	3089.6396	3108.645	3115.3938	3132.3667	3166.2049
CCC(C=O)C(=O)OC	CC[C@@H](C=O)C(=O)OC	
InChI=1S/C6H10O3/c1-3-5(4-7)6(8)9-2/h4-5H,3H2,1-2H3	InChI=1S/C6H10O3/c1-3-5(4-7)6(8)9-2/h4-5H,3H2,1-2H3/t5-/m0/s1
