17
gdb 47102	2.54008	1.8507	1.29577	1.329	66.65	-0.2514	-0.0357	0.2157	976.723	0.137649	-458.994829	-458.987522	-458.986578	-459.027327	27.596	
O	-0.0877607662	 0.1383369474	 0.5431692972	-0.305895
C	-0.033062945	 1.3109711161	 0.2851128782	 0.374858
C	-1.1846371838	 2.310790414	 0.3607948427	-0.196135
O	-0.6879375562	 3.5335715094	-0.144906526	-0.254459
C	 0.731939825	 3.5554107991	-0.1238860178	 0.22099
O	 1.2631765084	 4.1569617373	 1.0387940381	-0.256647
C	 1.8547389601	 3.171921971	 1.8880952528	-0.096227
C	 2.3125793256	 2.0484723901	 0.9494496691	-0.22969
C	 1.2190153859	 2.0956660853	-0.1276926879	-0.21215
H	-2.0394471594	 1.9819498354	-0.2397052323	 0.140315
H	-1.5189270273	 2.3960340367	 1.4062579725	 0.133396
H	 1.0261668929	 4.1726997751	-0.9756381355	 0.097709
H	 2.672293613	 3.6488414459	 2.4343480112	 0.118339
H	 1.1236864132	 2.80240879	 2.6233673292	 0.103604
H	 3.2868793901	 2.2837548643	 0.512563279	 0.11552
H	 2.3717751447	 1.0713352986	 1.4343497739	 0.130201
H	 1.554728949	 1.7501659044	-1.1079609944	 0.116268
59.4695	112.2701	169.4259	270.8641	431.0594	480.6137	524.4044	569.5586	642.8478	677.1144	746.2009	834.6858	880.9009	896.7841	931.3087	955.5671	963.6675	972.5228	1032.5686	1054.7462	1103.5932	1117.6373	1159.9467	1194.8067	1206.4318	1221.8472	1266.721	1273.3145	1305.841	1332.3938	1359.2604	1388.0544	1404.4621	1481.5088	1489.7548	1530.919	1856.2204	2988.3065	2995.1058	3064.5977	3072.6658	3086.3774	3094.0694	3099.3951	3121.1502
O=C1COC2OCCC12	O=C1CO[C@H]2OCC[C@@H]12	
InChI=1S/C6H8O3/c7-5-3-9-6-4(5)1-2-8-6/h4,6H,1-3H2	InChI=1S/C6H8O3/c7-5-3-9-6-4(5)1-2-8-6/h4,6H,1-3H2/t4-,6+/m0/s1
