21
gdb 74628	3.01137	1.63809	1.47388	0.3522	86.67	-0.2107	0.0333	0.244	1012.0187	0.186306	-349.984876	-349.977761	-349.976817	-350.015883	30.276	
C	-0.0347621962	 1.5212029474	 0.0316611342	-0.506667
C	-0.0003104392	 0.0247623863	-0.0354275811	 0.327944
C	-0.0028036339	-0.7060160588	-1.1576316249	-0.160819
C	 0.0345319058	-2.1812336894	-1.0265006719	-0.068786
C	-0.6826079897	-2.8113985779	 0.1701675482	-0.057488
C	-1.1443601294	-1.8031684885	 1.2080354977	-0.220342
C	 0.0416874674	-0.7959778227	 1.2375249122	-0.135552
C	 1.272406882	-1.7457743275	 1.1652766342	-0.220335
C	 0.8226082193	-2.775658388	 0.1435464802	-0.057485
H	 0.8434611469	 1.9189397248	 0.5576060812	 0.120078
H	-0.0621448643	 1.9680841689	-0.9663387523	 0.118067
H	-0.9127922767	 1.8771935728	 0.5870391415	 0.120098
H	-0.0309105889	-0.2567778935	-2.1461950704	 0.076874
H	 0.0321430471	-2.7619874378	-1.9417182757	 0.07445
H	-1.2430125527	-3.7256451533	 0.0133098106	 0.078249
H	-2.0917565871	-1.3162492304	 0.9555201347	 0.095068
H	-1.2581448709	-2.2920875332	 2.1825830171	 0.09304
H	 0.0425941347	-0.1681497017	 2.131257722	 0.05725
H	 2.1861114299	-1.2146621458	 0.8798312882	 0.095069
H	 1.443638472	-2.2279204314	 2.1347842459	 0.093038
H	 1.4198756838	-3.6624115802	-0.0337806119	 0.078249
154.19	197.3292	298.2869	351.1989	377.0003	455.9644	472.8417	562.6897	651.949	700.4792	734.7391	774.0086	798.3011	852.1056	853.9179	892.8621	895.3787	924.0284	949.2763	989.3233	1010.8787	1018.859	1041.6774	1048.7275	1072.7786	1090.9547	1095.0075	1130.0838	1173.5971	1190.8397	1201.2132	1208.7821	1274.9718	1294.7236	1308.6773	1340.6221	1359.5673	1380.7246	1405.5599	1413.9173	1478.3392	1480.9336	1491.2735	1496.6723	1714.2802	3007.8176	3033.3585	3035.598	3050.3277	3079.8486	3080.9864	3084.1839	3104.1396	3160.38	3171.9229	3173.6125	3187.0727
CC1=CC2C3CC1CC23	CC1=C[C@@H]2[C@@H]3C[C@H]1C[C@H]23	
InChI=1S/C9H12/c1-5-2-7-8-3-6(5)4-9(7)8/h2,6-9H,3-4H2,1H3	InChI=1S/C9H12/c1-5-2-7-8-3-6(5)4-9(7)8/h2,6-9H,3-4H2,1H3/t6-,7+,8-,9+
