19
gdb 35788	3.58369	1.17512	0.98399	4.3791	79.11	-0.2333	0.0286	0.2619	1209.8384	0.162374	-382.072375	-382.06448	-382.063536	-382.104826	30.939	
N	 0.1128522527	-1.164115617	 0.0388952212	-0.318014
C	 0.0561096956	-0.0103891105	 0.0194129593	 0.261417
C	-0.026881152	 1.4547513645	 0.0355167754	-0.089824
C	-0.8353464129	 1.952020636	 1.2557791637	-0.209316
C	-1.0123515589	 3.4735625534	 1.1465913909	-0.246698
C	 0.267062541	 4.2017116737	 0.7684738486	-0.002404
C	 1.5553586283	 4.0277464213	 1.5288059852	-0.301731
C	 1.416303516	 3.4432385448	 0.1374188104	-0.000379
N	 1.3253288537	 2.0110396421	-0.0404283964	-0.313178
H	-0.5682659663	 1.7562665107	-0.8733208901	 0.128201
H	-1.8122595009	 1.4598635925	 1.2925971376	 0.118497
H	-0.2992241122	 1.6719787638	 2.1698203845	 0.111627
H	-1.7630957164	 3.6758170428	 0.371353061	 0.106888
H	-1.4190753077	 3.8741693092	 2.0821449721	 0.108263
H	 0.0998720118	 5.1974260016	 0.368534462	 0.092278
H	 2.1921759246	 4.8948135753	 1.6660027418	 0.11551
H	 1.5760231214	 3.3241500837	 2.3551681095	 0.110745
H	 1.9582690086	 3.947381909	-0.6593343019	 0.095387
H	 1.9412298934	 1.5181471031	 0.5950104155	 0.232731
85.1076	156.9148	176.139	282.599	334.4043	368.712	416.2782	492.1697	549.2402	558.7484	629.259	694.2157	752.3983	828.8246	833.3448	864.0367	918.957	948.2532	982.5543	1034.0817	1038.7204	1055.272	1091.78	1109.945	1128.7516	1149.7303	1195.4909	1215.189	1249.5851	1269.0933	1320.3841	1329.5801	1363.7768	1368.9385	1387.3726	1413.7296	1475.6761	1484.5246	1491.4035	1499.026	2363.4198	3001.8543	3019.1468	3041.9839	3060.7533	3090.3142	3120.7375	3127.3387	3149.3934	3213.4892	3541.4728
N#CC1CCC2CC2N1	N#C[C@H]1CC[C@H]2C[C@H]2N1	
InChI=1S/C7H10N2/c8-4-6-2-1-5-3-7(5)9-6/h5-7,9H,1-3H2	InChI=1S/C7H10N2/c8-4-6-2-1-5-3-7(5)9-6/h5-7,9H,1-3H2/t5-,6+,7+/m0/s1
