21
gdb 86142	2.0537	1.64017	1.1518	2.0339	77.75	-0.2398	-0.0242	0.2157	1165.531	0.181236	-424.266164	-424.256375	-424.255431	-424.300839	36.29	
C	-0.268132517	 1.5864749281	-0.0243384271	-0.395704
C	 0.0257332463	 0.0800919118	-0.0201061219	-0.089417
C	 0.8026127979	-0.4528010311	-1.2486748126	-0.263072
C	 2.2454342846	-0.7265001179	-0.7579002001	 0.108878
O	 3.0840708311	 0.4194199595	-0.8486603828	-0.430974
C	 2.0486140107	-1.2048299509	 0.6968391435	-0.115772
C	 3.2696144322	-1.2282664032	 1.6075245054	-0.403982
C	 0.901356443	-0.3144554734	 1.1855029576	 0.37172
O	 0.7248302982	 0.0526328069	 2.3201105477	-0.324184
H	 0.6384352741	 2.1737167	-0.2109750855	 0.109535
H	-0.9876573411	 1.840138175	-0.8080839422	 0.120925
H	-0.6746324339	 1.8937836935	 0.9425451613	 0.142444
H	-0.9281545124	-0.4478982151	 0.098867402	 0.105952
H	 0.3597476398	-1.385895578	-1.6121319558	 0.102662
H	 0.8143453347	 0.2515142452	-2.0843575096	 0.111896
H	 2.744931091	-1.4791158791	-1.3728740499	 0.088035
H	 2.7332717349	 1.11468132	-0.2812277358	 0.284496
H	 1.610302977	-2.2147825399	 0.6356582768	 0.103517
H	 3.8133862817	-0.2823157751	 1.5488907407	 0.124555
H	 2.9598171726	-1.3798014706	 2.644577886	 0.134337
H	 3.9595239947	-2.0280060453	 1.3239090523	 0.114152
51.3896	102.3406	158.1956	209.0534	218.2299	243.9838	246.4675	276.6402	340.232	387.6203	496.9176	513.8162	542.8331	670.1528	713.6907	773.4703	819.4542	863.4184	905.3888	971.4388	978.0005	1003.4603	1025.2312	1056.777	1074.3673	1117.5345	1160.0579	1170.659	1208.6118	1222.7723	1246.2775	1286.4471	1314.0106	1329.2416	1335.0488	1358.6827	1404.4059	1407.5372	1434.079	1482.4314	1490.0926	1493.8895	1497.9507	1500.5837	1833.5667	2981.1743	3029.1738	3034.987	3050.7472	3052.1361	3085.1029	3098.9651	3103.8817	3121.2357	3126.5475	3130.495	3802.3488
CC1CC(O)C(C)C1=O	C[C@H]1C[C@@H](O)[C@@H](C)C1=O	
InChI=1S/C7H12O2/c1-4-3-6(8)5(2)7(4)9/h4-6,8H,3H2,1-2H3	InChI=1S/C7H12O2/c1-4-3-6(8)5(2)7(4)9/h4-6,8H,3H2,1-2H3/t4-,5+,6+/m0/s1
