17
gdb 37305	2.86181	2.22191	1.85199	1.794	73.68	-0.2205	0.0159	0.2364	813.4185	0.138983	-384.651616	-384.645751	-384.644807	-384.68145	25.614	
O	-0.0142647071	 1.4462091981	-0.0585085307	-0.23808
C	 1.2616011094	 0.8113453525	 0.0038213578	 0.040581
C	 0.0260543576	 0.0125602468	 0.0010963112	 0.020575
C	-0.0775749492	-0.7133454993	-1.3796451001	-0.146379
C	-0.8628919985	 0.1911234368	-2.3162402522	-0.063071
C	-0.0334753068	 1.0283697428	-2.9412408339	-0.068375
C	 1.3951110183	 0.6544110336	-2.7021575685	-0.08737
C	 2.0100336705	 0.5399244815	-1.2830424369	-0.078429
C	 1.3702437113	-0.6488623391	-1.9546943882	-0.085127
H	 1.8413526948	 1.0315363435	 0.8983726033	 0.091759
H	-0.4319866155	-0.4218119052	 0.8864767016	 0.094767
H	-0.4747720175	-1.7230294129	-1.2580960391	 0.070928
H	-1.9422611641	 0.2778243123	-2.2791681967	 0.0967
H	-0.3250715609	 1.8714993273	-3.555618832	 0.095346
H	 2.1225634351	 0.8298198965	-3.488590418	 0.086374
H	 3.0904517985	 0.6281113252	-1.2420915379	 0.085031
H	 1.9055594042	-1.5381344005	-2.2662558995	 0.08477
206.1699	279.7989	452.7729	489.8593	584.8054	661.9604	692.018	706.0738	740.1796	781.096	806.8852	819.6514	832.88	865.9461	896.0124	926.4792	933.3363	971.5239	977.2463	995.7089	1026.4589	1035.1331	1049.1151	1095.7061	1107.6198	1130.9509	1143.7247	1227.7503	1257.0893	1266.6911	1283.9981	1305.8759	1352.6886	1366.6201	1381.3625	1428.0261	1661.0556	3090.1337	3122.4774	3142.1758	3153.976	3165.9234	3178.5777	3193.8442	3219.0082
O1C2C1C1C=CC3C2C13	O1[C@H]2[C@@H]1[C@H]1C=C[C@H]3[C@@H]2[C@@H]13	
InChI=1S/C8H8O/c1-2-4-5-3(1)6(5)8-7(4)9-8/h1-8H	InChI=1S/C8H8O/c1-2-4-5-3(1)6(5)8-7(4)9-8/h1-8H/t3-,4+,5-,6-,7+,8-/m1/s1
