13
gdb 125806	3.54782	1.73965	1.17587	6.1601	64.35	-0.2598	-0.0422	0.2177	954.339	0.090934	-448.90373	-448.897114	-448.89617	-448.934812	24.802	
C	-0.0209789512	 1.5091055521	-0.0275404955	-0.496179
C	-0.012229787	 0.02499414	 0.0086648167	 0.385378
N	-0.0424811908	-0.7287538872	-1.0491509927	-0.165184
O	-0.0211948527	-2.0802599601	-0.6090243944	-0.244627
C	 0.0219058534	-2.0513162146	 0.7317127457	 0.537432
N	 0.0577690692	-2.9136263063	 1.7032331096	-0.350563
N	 0.0906815829	-2.1257937713	 2.8558687466	-0.201673
C	 0.0739112346	-0.8590155754	 2.5292458217	-0.012078
N	 0.0287328977	-0.7505521481	 1.1518205355	-0.115952
H	 0.8792666496	 1.9117639955	 0.4476260211	 0.161999
H	-0.0577117701	 1.8425366462	-1.0649309828	 0.178705
H	-0.8910758994	 1.9027937566	 0.5075057364	 0.161945
H	 0.0915576539	-0.0233603674	 3.2079957119	 0.160797
162.9948	172.4923	250.2179	261.0279	379.3512	535.0774	620.0918	631.4173	650.2183	706.7811	751.071	774.0385	810.0399	910.2109	985.0986	1014.245	1035.5955	1068.4375	1128.8377	1224.7707	1306.2975	1389.2994	1415.2657	1453.9962	1471.1787	1475.0952	1488.7658	1592.2555	1644.599	3048.0788	3108.2067	3160.0855	3290.1126
CC1=NOC2=NN=CN12	Cc1noc2nncn12	
InChI=1S/C4H4N4O/c1-3-7-9-4-6-5-2-8(3)4/h2H,1H3	InChI=1S/C4H4N4O/c1-3-7-9-4-6-5-2-8(3)4/h2H,1H3
