20
gdb 16066	3.08286	1.66621	1.41194	1.2772	75.	-0.2386	0.0777	0.3163	998.9052	0.176841	-348.97791	-348.96948	-348.968535	-349.010559	32.049	
C	 0.0510767805	 1.5386260203	-0.1624380814	-0.372489
C	 0.0066643537	 0.0274720565	 0.1058422247	-0.293543
C	-1.395601261	-0.5202488077	 0.111965767	 0.341711
C	-2.4319513835	-0.2439766359	 1.2167730057	-0.273912
C	-2.9443307316	-1.7126268498	 1.1041931648	-0.218724
C	-1.9220159943	-1.9777987334	-0.0057904753	-0.188973
C	-2.0976703403	-0.9840524383	-1.1209183091	 0.061842
O	-3.34042218	-0.439539639	-1.4721727323	-0.42479
H	 1.079574169	 1.9126587146	-0.1482747038	 0.108265
H	-0.3842286271	 1.7764343415	-1.1383676858	 0.123124
H	-0.5154113479	 2.0904296529	 0.5951040616	 0.119734
H	 0.6006309987	-0.4988928398	-0.6521251737	 0.092725
H	 0.4852172257	-0.1867473475	 1.0711251893	 0.09306
H	-1.9600007243	-0.0425590789	 2.1819172523	 0.094773
H	-3.1576364846	 0.5433986375	 1.0009146105	 0.108183
H	-2.7483644224	-2.2937645157	 2.0075215995	 0.098922
H	-3.9947441172	-1.8395046969	 0.8255903444	 0.090435
H	-1.3700025602	-2.9008655438	-0.1504617386	 0.077061
H	-1.4290517783	-1.1495157132	-1.968009905	 0.077784
H	-3.8680873949	-1.1385364133	-1.8727012748	 0.284815
78.4453	141.4417	205.7466	221.4545	247.6551	284.8197	330.1449	357.5769	472.3929	559.8707	656.0825	760.2674	784.4259	796.1923	805.7526	883.5945	942.4233	961.4745	987.3724	1001.2671	1020.4311	1028.5666	1083.5959	1096.0357	1138.9808	1169.5076	1221.1333	1230.5696	1245.4554	1255.9116	1287.4975	1296.9961	1327.5362	1351.1936	1364.8037	1408.8932	1466.5948	1473.4801	1482.9094	1498.1295	1506.7308	1508.5602	3011.3834	3033.9478	3044.9898	3052.2576	3061.5721	3084.2793	3101.2636	3102.9491	3106.6862	3119.4803	3160.5758	3802.9503
CCC12CCC1C2O	CC[C@]12CC[C@H]1[C@H]2O	
InChI=1S/C7H12O/c1-2-7-4-3-5(7)6(7)8/h5-6,8H,2-4H2,1H3	InChI=1S/C7H12O/c1-2-7-4-3-5(7)6(7)8/h5-6,8H,2-4H2,1H3/t5-,6+,7-/m0/s1
