23
gdb 84803	2.88019	1.21142	0.95482	0.1352	90.37	-0.2344	0.0292	0.2637	1320.8113	0.206888	-351.157257	-351.148333	-351.147388	-351.190999	34.875	
C	-0.1912557649	 1.5171562977	-0.0439716099	-0.391128
C	 0.0075183066	-0.0036618625	 0.0907223688	-0.039403
C	 0.7213512197	-0.5726061508	-1.1175100178	-0.064294
C	 1.9813065837	-0.9122779761	-0.8507766923	-0.071337
C	 2.3339657025	-0.6707504232	 0.5966493701	-0.270031
C	 0.9463677323	-0.4538419973	 1.261638737	 0.00561
C	 0.9679286681	 0.430976054	 2.485703605	 0.028683
C	-0.0973943888	 0.3024874503	 3.5475657471	-0.275578
C	 1.3130349324	-0.1501569784	 3.8349477578	-0.281179
H	 0.7661618956	 2.0360894695	-0.1612118047	 0.113815
H	-0.798218391	 1.7476694233	-0.9259566021	 0.106916
H	-0.7011977489	 1.9304987811	 0.831446383	 0.11726
H	-0.985186941	-0.4541744965	 0.2180660343	 0.068231
H	 0.2515482426	-0.6235991595	-2.094704423	 0.085109
H	 2.6958105966	-1.2895511798	-1.5747257032	 0.087269
H	 2.8835194094	-1.5005321579	 1.0553175818	 0.099763
H	 2.9785789522	 0.2147161671	 0.701961801	 0.099931
H	 0.5896014472	-1.4439168003	 1.5741812646	 0.067581
H	 1.3331354915	 1.4394283595	 2.3084702538	 0.080097
H	-0.4586563273	 1.2027360212	 4.0325051099	 0.107948
H	-0.8560362364	-0.4619509506	 3.4131879457	 0.108469
H	 1.4994049067	-1.2178652613	 3.8933450278	 0.108341
H	 1.9152003514	 0.4413094405	 4.5157760751	 0.107926
75.3858	87.55	162.5743	212.7227	253.7402	278.663	312.5587	411.1693	466.8463	479.9948	661.834	731.3478	754.139	773.4997	796.8261	829.8294	875.2238	901.3351	924.3488	959.3089	974.043	978.6125	982.8478	1019.9018	1055.6276	1074.6671	1075.762	1081.243	1122.6142	1137.1725	1140.5058	1149.6668	1198.5077	1213.7745	1226.8217	1282.1148	1300.1464	1312.791	1331.9075	1358.6377	1367.0282	1404.0353	1428.0268	1471.6648	1487.2112	1497.7797	1498.0129	1507.1718	1686.0467	2996.4515	3006.5217	3021.9506	3030.0125	3055.0445	3095.7203	3106.5225	3126.9702	3130.9951	3136.1571	3171.6733	3198.354	3204.2589	3219.5882
CC1C=CCC1C1CC1	C[C@H]1C=CC[C@H]1C1CC1	
InChI=1S/C9H14/c1-7-3-2-4-9(7)8-5-6-8/h2-3,7-9H,4-6H2,1H3	InChI=1S/C9H14/c1-7-3-2-4-9(7)8-5-6-8/h2-3,7-9H,4-6H2,1H3/t7-,9+/m0/s1
