16
gdb 23523	1.9247	1.78312	1.08868	0.8133	68.52	-0.2552	0.0095	0.2647	1098.005	0.122794	-474.908184	-474.899868	-474.898924	-474.940909	32.133	
O	-0.1499281635	 1.3451528037	-0.0145138946	-0.399871
N	 0.0075056781	-0.0622747715	 0.0092042456	-0.32156
C	-1.1123744758	-0.6447397147	 0.0127768347	 0.415456
C	-2.6216122452	-0.4149095539	 0.0010985639	-0.241857
C	-2.6376375622	-1.5905595627	-1.044904989	 0.183796
O	-2.2342650042	-1.3756188301	-2.3581098314	-0.445077
C	-1.6061805968	-2.0823473663	 0.0335603173	-0.228503
C	-2.6488370667	-1.5559266192	 1.0845554428	 0.183796
O	-2.2592614399	-1.2983249091	 2.3942450861	-0.445077
H	 0.7652610239	 1.646097877	-0.0145902985	 0.308112
H	-3.1722120781	 0.5214723169	-0.0170253669	 0.104964
H	-3.5705632794	-2.1567695459	-1.0843083267	 0.099908
H	-1.3976602702	-0.8934742197	-2.3542062387	 0.293678
H	-1.0274763618	-3.0028538288	 0.0515745965	 0.098651
H	-3.5822235326	-2.1207134531	 1.1325362526	 0.099908
H	-1.4225661256	-0.8164420727	 2.3834632562	 0.293678
83.6712	191.0225	230.8096	247.841	279.3559	347.1054	390.856	391.221	465.6715	503.1232	508.1717	539.1149	690.4124	715.0941	767.7298	859.8434	887.7482	894.7099	942.3341	984.477	1033.668	1072.4182	1114.1156	1130.9783	1138.1924	1154.4445	1221.5353	1251.8391	1258.3834	1289.0188	1323.6155	1407.1343	1433.52	1462.6832	1805.4993	3095.403	3102.8459	3155.0886	3166.9729	3771.3491	3773.9308	3817.3845
ON=C1C2C(O)C1C2O	ON=C1[C@H]2[C@@H](O)[C@@H]1[C@H]2O	
InChI=1S/C5H7NO3/c7-4-1-3(6-9)2(4)5(1)8/h1-2,4-5,7-9H	InChI=1S/C5H7NO3/c7-4-1-3(6-9)2(4)5(1)8/h1-2,4-5,7-9H/t1-,2+,4+,5-
