21
gdb 81544	4.02907	1.19407	1.05586	1.8447	83.13	-0.2309	0.0845	0.3155	1220.9473	0.182319	-387.011271	-387.00308	-387.002136	-387.043836	32.544	
C	-0.0938394482	 1.6104155202	 0.0210229866	-0.436024
C	-0.020701406	 0.0951646697	 0.0196286727	 0.031243
C	 1.2294246009	-0.6027361572	-0.5880245263	-0.040585
O	 2.0415760426	-0.1122245638	 0.5519790405	-0.319843
C	 0.7779584634	-0.6258898131	 1.1429813857	-0.058648
C	 0.9173165543	-1.8726208227	 0.24305655	 0.447589
C	-0.1488483417	-2.9332310402	-0.1209041617	-0.322825
C	 1.004754526	-3.9631753902	-0.2939572271	-0.215763
C	 1.9698039059	-2.9820077204	 0.4330666879	-0.305806
H	 0.8768267022	 2.0371316681	 0.2814461514	 0.137779
H	-0.3892511026	 1.987938385	-0.9640369093	 0.112663
H	-0.8372360751	 1.9643332812	 0.7436317357	 0.112928
H	-0.9777993399	-0.3709623711	-0.2355068185	 0.072212
H	 1.6626931899	-0.5124655912	-1.5864309839	 0.086223
H	 0.6703335187	-0.5606974797	 2.2277918427	 0.082917
H	-0.797435768	-3.1733881801	 0.7276063555	 0.103671
H	-0.7810955775	-2.7376103459	-0.9908969965	 0.099927
H	 0.8600648964	-4.945196777	 0.1608752478	 0.098698
H	 1.2737774967	-4.1060865308	-1.3438073496	 0.10328
H	 2.9525707613	-2.8125851867	-0.0104171909	 0.109202
H	 2.1089144107	-3.2409617041	 1.4872313574	 0.101161
86.3391	165.7562	200.6076	228.8971	256.9754	326.6655	372.052	430.1476	560.1057	680.2707	717.8564	747.0628	758.7124	798.138	801.6625	855.6865	878.274	889.1963	936.8733	955.4478	1024.0729	1042.9115	1044.5286	1065.5491	1094.5017	1114.2134	1147.5157	1162.9578	1163.7736	1176.5947	1204.7557	1210.0519	1240.8705	1253.3394	1267.5111	1278.3171	1279.8933	1345.786	1392.1883	1410.6644	1472.3808	1481.7379	1493.8223	1504.4336	1505.692	3034.0354	3047.3014	3056.4697	3059.5972	3063.5616	3090.5107	3091.3217	3094.9939	3098.6629	3110.0273	3123.4928	3134.1076
CC1C2OC1C21CCC1	C[C@H]1[C@H]2O[C@@H]1C12CCC1	
InChI=1S/C8H12O/c1-5-6-8(3-2-4-8)7(5)9-6/h5-7H,2-4H2,1H3	InChI=1S/C8H12O/c1-5-6-8(3-2-4-8)7(5)9-6/h5-7H,2-4H2,1H3/t5-,6+,7-
