17
gdb 80508	2.28903	1.4622	1.23268	3.8329	74.47	-0.2397	0.0106	0.2504	1091.238	0.135862	-417.972065	-417.963427	-417.962483	-418.005069	32.328	
C	-0.0951901799	 1.444996131	-0.3434601286	-0.427422
C	 0.2396384127	-0.0269446171	-0.2525037093	 0.094638
O	 1.4286203826	-0.4446505699	-0.999943635	-0.309975
C	 1.9076413575	-1.19801244	 0.1088177757	 0.019984
C	 2.2943204619	-0.2805391577	 1.2128471767	-0.056181
N	 2.8153360531	 1.0431645138	 1.0120218617	-0.524553
C	 0.8084427537	-0.6395620096	 1.0385617059	 0.101212
C	 0.0384507828	-1.2622803095	 2.0569769105	 0.187779
N	-0.5921165464	-1.7626391065	 2.8901463935	-0.351889
H	-0.2562678919	 1.7246899402	-1.3895207185	 0.132006
H	-1.024492129	 1.6364573522	 0.2031907267	 0.136794
H	 0.6908043154	 2.0679863763	 0.0845324627	 0.149229
H	-0.6015753383	-0.6373961055	-0.6019875233	 0.106802
H	 2.2429109654	-2.214658744	-0.06660908	 0.124914
H	 2.7001901821	-0.7865501809	 2.084271873	 0.125574
H	 3.7687663862	 1.0907202112	 1.3542460677	 0.242442
H	 2.838920092	 1.2427565461	 0.0155634807	 0.248647
129.1159	141.5131	179.4087	203.3247	226.7851	254.6741	303.935	392.4159	487.7981	518.6586	545.1859	608.1165	660.6569	716.3127	797.7082	852.6836	876.4685	903.4495	959.6267	1009.947	1042.9658	1081.8399	1107.6184	1128.7535	1147.3929	1200.2109	1231.6077	1264.8737	1298.4793	1349.2681	1391.8729	1412.7804	1477.7345	1486.0785	1499.7055	1646.8105	2339.3092	3035.0199	3046.0752	3109.8842	3152.7342	3163.437	3176.5113	3494.4195	3583.179
CC1OC2C(N)C12C#N	C[C@H]1O[C@H]2[C@@H](N)[C@@]12C#N	
InChI=1S/C6H8N2O/c1-3-6(2-7)4(8)5(6)9-3/h3-5H,8H2,1H3	InChI=1S/C6H8N2O/c1-3-6(2-7)4(8)5(6)9-3/h3-5H,8H2,1H3/t3-,4-,5+,6-/m1/s1
