23
gdb 112749	2.42641	1.27863	0.97085	1.0571	87.03	-0.2417	0.0834	0.3251	1338.8126	0.204453	-388.261356	-388.251555	-388.25061	-388.296074	36.885	
C	 0.0237471122	 1.3322782217	-0.2483367297	-0.236794
O	-0.0192138501	 0.0341066146	 0.2982738498	-0.243683
C	-1.2806965969	-0.5720547951	 0.1969545768	 0.08729
C	-1.7187885737	-1.1774863905	-1.1702260978	-0.275941
C	-2.1863941313	-2.4600916812	-0.4148474642	-0.042481
C	-1.8786261883	-3.8149272661	-1.0342307755	-0.409043
C	-1.3661957094	-1.9737725927	 0.7961158247	 0.315755
C	-0.2001633037	-2.6772977453	 1.4277158841	-0.307376
C	-1.4355992606	-2.3626720439	 2.2400911735	-0.339258
H	 1.0331639395	 1.7199858962	-0.0903253362	 0.125055
H	-0.1896520652	 1.3326810653	-1.3278585527	 0.107641
H	-0.6969188634	 2.0047265469	 0.243894217	 0.102689
H	-2.0538634679	 0.100523699	 0.6051233881	 0.058
H	-2.4610585641	-0.6362082606	-1.7613935328	 0.090982
H	-0.8382734542	-1.3815725023	-1.7873275154	 0.104665
H	-3.2584179322	-2.3943950658	-0.1916613852	 0.069483
H	-0.8157817381	-3.9026711148	-1.2828414092	 0.116939
H	-2.1332804797	-4.6356435752	-0.3535052591	 0.112609
H	-2.4526732121	-3.9623497961	-1.9556472209	 0.113065
H	-0.0175008247	-3.712578742	 1.1586383967	 0.107234
H	 0.6929732183	-2.0888886679	 1.6038240499	 0.127377
H	-1.3724856041	-1.5735125486	 2.9832882824	 0.1104
H	-2.0881818404	-3.1855035456	 2.5167312458	 0.10539
63.495	88.7738	161.1794	196.2517	206.3663	228.588	242.0586	318.289	330.2789	440.8957	482.536	505.3583	540.6462	707.3742	777.6174	804.8879	876.6956	881.8056	922.4519	929.9789	973.2412	992.806	1023.449	1050.0528	1075.2348	1087.008	1111.6157	1123.1149	1165.3643	1173.8873	1185.0077	1192.3586	1211.4925	1225.5904	1255.7618	1281.1741	1294.0225	1370.0887	1374.2983	1403.0954	1410.0004	1462.8655	1476.25	1484.7194	1488.8648	1494.2532	1498.3273	1505.9655	1510.3688	2954.299	2973.8276	3020.3151	3023.0361	3025.4947	3053.5326	3087.9814	3098.8483	3112.0741	3114.095	3117.2388	3134.9855	3197.9367	3224.907
COC1CC(C)C11CC1	CO[C@H]1C[C@@H](C)C21CC2	
InChI=1S/C8H14O/c1-6-5-7(9-2)8(6)3-4-8/h6-7H,3-5H2,1-2H3	InChI=1S/C8H14O/c1-6-5-7(9-2)8(6)3-4-8/h6-7H,3-5H2,1-2H3/t6-,7+/m1/s1
