24
gdb 117161	3.35595	0.78034	0.67942	3.2392	88.04	-0.2309	0.0378	0.2687	1791.8871	0.215212	-405.591136	-405.579452	-405.578508	-405.629528	40.464	
C	 0.011040706	 1.5893365857	-0.1110458566	-0.390086
C	 0.0182080314	 0.060097205	-0.0526718615	-0.152272
C	-1.3930970206	-0.5282902212	 0.0144482944	-0.319001
C	-1.3777050007	-2.0575171561	 0.0787672653	 0.420283
O	-0.3240051346	-2.6757678466	 0.1275601732	-0.39021
N	-2.5826193056	-2.7139121275	 0.0717398822	-0.083796
C	-3.8874249185	-2.0822504978	 0.0781314206	-0.34444
C	-2.566689795	-4.1764916917	 0.1119728933	-0.147927
C	-2.562749267	-4.740446696	 1.5355281937	-0.376905
H	 1.029651461	 1.9863311192	-0.1595271832	 0.114153
H	-0.5291621841	 1.9551162418	-0.9919874889	 0.109321
H	-0.4713152497	 2.0226421601	 0.7728991008	 0.109341
H	 0.5338345829	-0.3508937596	-0.926415063	 0.11223
H	 0.5890517811	-0.286130197	 0.8142418487	 0.114571
H	-1.919158416	-0.1331587046	 0.8942226261	 0.116537
H	-1.9781483751	-0.2011877399	-0.8550641167	 0.114719
H	-3.8005960692	-0.9999508963	 0.1437984068	 0.139668
H	-4.4492689671	-2.3258646753	-0.833907422	 0.124934
H	-4.4814959539	-2.4219147529	 0.9361458752	 0.127384
H	-3.443425104	-4.5334431653	-0.4409243639	 0.093922
H	-1.6710887071	-4.5084943199	-0.4157410721	 0.138508
H	-2.5793515438	-5.8348113161	 1.5110673971	 0.115298
H	-1.6582619922	-4.4222548628	 2.0598118831	 0.143254
H	-3.4342969383	-4.4052616352	 2.1078676574	 0.110515
38.8723	53.2756	74.4243	85.5128	138.7733	148.4454	174.3428	229.585	247.6097	318.6585	330.1086	393.9159	409.8614	503.2491	587.8895	615.693	754.644	781.9468	790.4235	890.2479	893.6197	930.4033	1021.432	1052.8795	1088.4499	1101.7511	1110.9693	1117.3925	1154.9946	1166.5308	1252.5322	1262.8228	1292.4812	1327.0167	1340.1123	1384.9256	1391.7749	1406.1584	1413.948	1440.3247	1462.4759	1472.3634	1485.5516	1487.3859	1488.1122	1494.4981	1499.9419	1504.9098	1508.7667	1530.0974	1740.9127	3006.1387	3012.5491	3025.6989	3036.5348	3038.1341	3045.7894	3048.8755	3058.1088	3076.804	3097.7611	3101.9496	3104.7104	3119.6896	3131.4478	3169.9522
CCCC(=O)N(C)CC	CCCC(=O)N(C)CC	
InChI=1S/C7H15NO/c1-4-6-7(9)8(3)5-2/h4-6H2,1-3H3	InChI=1S/C7H15NO/c1-4-6-7(9)8(3)5-2/h4-6H2,1-3H3
