18
gdb 49312	3.18422	1.20114	0.90303	6.1441	80.77	-0.2162	-0.0229	0.1933	1254.9229	0.149657	-439.101015	-439.092842	-439.091898	-439.134052	30.668	
O	-0.1573423606	-0.0056483542	-0.362461314	-0.318901
C	 0.0088610953	 1.1989097442	-0.3242393209	 0.109885
C	 1.2267502044	 1.8636417141	 0.1172355058	 0.102552
C	 1.2103401486	 3.2215816238	 0.0723356546	-0.018288
N	 2.167075932	 4.1338641092	 0.3871912039	-0.30971
C	 3.3254478051	 3.9055583939	 1.2407801064	-0.15835
C	 4.0391089927	 2.5803686639	 0.9885803211	-0.074039
O	 3.2900137157	 1.4816568063	 1.4472543553	-0.236473
C	 2.3757710372	 0.96249745	 0.4965436201	-0.194462
H	-0.8050680899	 1.8938629379	-0.6418332282	 0.047649
H	 0.298711467	 3.6836941048	-0.3040708004	 0.109835
H	 1.8639333458	 5.0935532196	 0.3473318974	 0.252184
H	 4.0257355526	 4.7311869005	 1.0724348972	 0.111105
H	 3.033042102	 3.921029223	 2.301417183	 0.123012
H	 4.2940256884	 2.4741165671	-0.0777512744	 0.098753
H	 4.972935427	 2.5913200458	 1.5617681228	 0.113778
H	 1.9665755233	 0.0446040901	 0.9247264194	 0.138767
H	 2.9269610834	 0.6688716501	-0.4145747792	 0.102703
67.7143	155.8784	184.9294	216.7174	329.6176	336.2926	403.5573	422.926	445.7836	508.5453	561.3644	622.0907	735.2977	830.8501	864.3524	924.8686	943.8327	1007.2503	1023.229	1032.7893	1065.7942	1110.6783	1156.3651	1237.3416	1251.4068	1305.2947	1312.0926	1326.8898	1372.1106	1395.401	1409.5312	1422.4309	1453.8217	1481.1225	1484.8528	1493.9738	1552.6277	1702.56	1767.7747	2835.3154	2944.9828	2984.8521	2997.3349	3066.7113	3070.4559	3105.1608	3137.241	3629.9781
O=CC1=CNCCOC1	O=CC1=CNCCOC1	
InChI=1S/C6H9NO2/c8-4-6-3-7-1-2-9-5-6/h3-4,7H,1-2,5H2	InChI=1S/C6H9NO2/c8-4-6-3-7-1-2-9-5-6/h3-4,7H,1-2,5H2
