20
gdb 81075	2.75459	1.44694	1.17517	2.5452	79.2	-0.2347	0.0727	0.3074	1115.7677	0.172082	-403.065162	-403.05696	-403.056015	-403.098498	32.031	
O	 0.5986985979	 1.1036747892	-0.3221006104	-0.444947
C	 0.2774563955	-0.2301810483	-0.0153901601	 0.126587
C	-0.1344289342	-0.6212889209	 1.4373972698	-0.11127
C	-1.4133080035	 0.2403311232	 1.231718484	-0.277131
C	-1.2386579616	-0.5669613035	-0.1024405207	 0.336165
C	-0.9070097438	-1.8029188154	 0.7906559873	-0.273485
C	-2.0851374738	-0.5253732655	-1.3292380929	-0.14958
C	-3.4407479777	 0.0820388295	-1.2917804143	-0.24259
N	-2.344313514	 0.7630604092	-1.9968923282	-0.31856
H	 1.5262193353	 1.2515485565	-0.1146443583	 0.287099
H	 0.9508438444	-0.9339931944	-0.5234167652	 0.063045
H	 0.5005509149	-0.6569068794	 2.3232490174	 0.069831
H	-2.2783638849	-0.0288455484	 1.8434933382	 0.088736
H	-1.2676705575	 1.3189036607	 1.178499848	 0.108527
H	-0.3131350395	-2.5983864252	 0.3296694187	 0.090089
H	-1.7381684339	-2.2084669695	 1.3712403603	 0.099014
H	-1.9055668693	-1.3412435629	-2.0282711168	 0.083493
H	-4.2282750462	-0.3029858687	-1.9337064103	 0.114941
H	-3.7849768813	 0.4846818851	-0.342647	 0.109725
H	-1.9697108067	 1.5165051287	-1.4245900164	 0.240311
35.7356	142.0506	187.7714	236.696	309.6874	329.1966	394.5086	473.9046	531.5278	610.6222	638.7666	778.4655	816.9255	844.6933	875.1554	884.7081	921.2434	948.8554	957.3991	971.3773	1001.0606	1022.668	1049.5314	1076.3024	1099.9312	1135.1435	1142.6798	1147.3259	1154.8319	1165.8504	1185.6867	1210.953	1221.3699	1236.5395	1256.8924	1291.0174	1304.1431	1320.3105	1419.9011	1439.8919	1489.8778	1509.5687	1534.6137	3010.2687	3049.539	3063.2171	3106.2806	3107.4198	3112.2956	3120.3651	3144.1809	3191.4854	3498.5683	3826.4224
OC1C2CC1(C2)C1CN1	O[C@H]1[C@H]2C[C@@]1(C2)[C@H]1CN1	
InChI=1S/C7H11NO/c9-6-4-1-7(6,2-4)5-3-8-5/h4-6,8-9H,1-3H2	InChI=1S/C7H11NO/c9-6-4-1-7(6,2-4)5-3-8-5/h4-6,8-9H,1-3H2/t4-,5-,6+,7+/m1/s1
