16
gdb 46072	4.07309	1.04101	0.91649	4.1302	64.89	-0.2673	0.0438	0.3111	1237.4293	0.12559	-475.044338	-475.036551	-475.035606	-475.077576	28.358	
O	 0.2132371456	 0.0142992245	-0.2775297922	-0.385697
C	 0.0642202077	 1.1901037602	-0.1063769103	 0.475546
N	-1.0890831028	 1.8589703527	 0.2625220571	-0.360267
C	-0.9639739468	 3.2912569601	 0.0678644724	-0.043857
C	 0.5767394172	 3.409481548	 0.1249869279	-0.098179
O	 1.0641778907	 2.1140367609	-0.2434538618	-0.238518
C	-1.5450988979	 3.7640024756	-1.2509330055	 0.072861
C	-2.8842100772	 4.3605737433	-1.3322836681	-0.187059
O	-1.7101471309	 5.1751193338	-1.3735523306	-0.229077
H	-1.9634179088	 1.3749128265	 0.1353832321	 0.261866
H	-1.4281578902	 3.8605396064	 0.8796573912	 0.102496
H	 0.9708583527	 4.1495754308	-0.5738159263	 0.142238
H	 0.9199899896	 3.6469066252	 1.137225298	 0.125867
H	-1.1385832576	 3.2726670542	-2.1373137063	 0.113414
H	-3.4458232226	 4.3019009948	-2.2627664246	 0.128297
H	-3.4862336789	 4.457924843	-0.429295973	 0.12007
70.848	81.2885	153.9385	227.2516	316.1587	360.9186	450.1141	495.6539	550.7475	719.5958	768.0418	786.5658	827.9608	874.7186	920.7206	932.825	978.1027	1012.1879	1066.1039	1093.3857	1124.3474	1153.6458	1165.5882	1175.2797	1213.0492	1238.6422	1286.5337	1294.4316	1331.7941	1403.6106	1413.7428	1456.809	1519.0471	1528.6757	1897.2313	3047.3093	3060.3531	3085.2218	3098.2902	3121.3203	3175.1807	3650.4286
O=C1NC(CO1)C1CO1	O=C1N[C@@H](CO1)[C@H]1CO1	
InChI=1S/C5H7NO3/c7-5-6-3(1-9-5)4-2-8-4/h3-4H,1-2H2,(H,6,7)	InChI=1S/C5H7NO3/c7-5-6-3(1-9-5)4-2-8-4/h3-4H,1-2H2,(H,6,7)/t3-,4+/m0/s1
