15
gdb 45481	3.07363	1.89034	1.67774	3.2408	64.37	-0.2582	0.0151	0.2733	839.4545	0.11582	-453.935356	-453.929227	-453.928283	-453.965976	24.568	
N	-0.0361750204	 1.2981628519	-0.3087804955	-0.536265
C	 0.007053473	 0.066465661	-0.0562953311	 0.431014
O	 1.1477710985	-0.6887237419	 0.0893978317	-0.242966
C	 0.7881126377	-1.9239789603	 0.7286138849	 0.150434
O	 0.827553689	-1.776832611	 2.1165993672	-0.243246
C	-0.3857937208	-1.1218217692	 2.5268331409	-0.112341
C	-1.3897553814	-1.3663002705	 1.4096506086	-0.066978
C	-0.6850993616	-2.1090977995	 0.3436450139	-0.081905
N	-1.1553808229	-0.7520827906	 0.0666811599	-0.147202
H	 0.9092338759	 1.6782651203	-0.3545888588	 0.233075
H	 1.5061455485	-2.6836262487	 0.4271488178	 0.114182
H	-0.7202892402	-1.5773818934	 3.4630923416	 0.12601
H	-0.2022485364	-0.0544504116	 2.6996150864	 0.135817
H	-2.4370887579	-1.505161463	 1.6508878167	 0.123708
H	-1.0561991408	-2.9419822136	-0.2405630943	 0.116661
119.7951	182.1144	374.2655	450.6932	517.0415	640.22	678.1657	693.186	754.3532	791.0158	822.8642	869.1016	880.854	926.7172	934.2249	947.3108	968.9549	974.015	1013.1955	1043.1058	1068.716	1101.1519	1134.9504	1215.2308	1230.2148	1293.5323	1298.4595	1323.8389	1354.3318	1369.8854	1405.7047	1512.3378	1784.6092	3036.2849	3093.0928	3155.4263	3184.4354	3195.3422	3500.1916
N=C1OC2OCC3C2N13	[NH][C]1O[C@H]2OC[C@@H]3[C@H]2N13	
InChI=1S/C5H6N2O2/c6-5-7-2-1-8-4(9-5)3(2)7/h2-4,6H,1H2	InChI=1S/C5H6N2O2/c6-5-7-2-1-8-4(9-5)3(2)7/h2-4,6H,1H2/t2-,3-,4-,7?/m1/s1
