21
gdb 88074	3.20523	1.29858	1.22259	1.3674	83.	-0.2245	0.0846	0.3091	1149.3508	0.183296	-387.072858	-387.064651	-387.063707	-387.105312	32.744	
C	-0.0496285768	 1.5384222601	 0.0905131441	-0.402125
C	-0.0146361972	 0.0257986038	 0.0704398785	-0.078403
C	 1.2870716019	-0.7134111948	-0.2191967446	-0.373394
C	 0.6653871837	-0.7477376647	 1.1562312204	 0.463151
O	 1.2671089959	 0.0042339626	 2.1911769511	-0.299082
C	 1.8159000944	-0.913130561	 3.1390451515	-0.105636
C	 0.9174600069	-2.1364187404	 3.0873792084	-0.052037
C	-0.565820878	-1.86992752	 3.0892000678	-0.298945
C	 0.1688874963	-2.0208218394	 1.7782272846	-0.119202
H	 0.8555855547	 1.942969014	 0.5491518552	 0.130952
H	-0.1327434222	 1.9415416984	-0.9247463292	 0.110623
H	-0.9044200297	 1.9055840144	 0.668768803	 0.115589
H	-0.9119701127	-0.4427318646	-0.3276093534	 0.083603
H	 1.2631239313	-1.6050106985	-0.8382304223	 0.103184
H	 2.1790651058	-0.1049327703	-0.328148923	 0.114111
H	 2.8476173892	-1.1896618308	 2.8701771155	 0.093205
H	 1.8337032333	-0.4017253533	 4.1071035813	 0.106004
H	 1.301024511	-3.083226602	 3.448222932	 0.088592
H	-1.2153258485	-2.6844576477	 3.3898688508	 0.108679
H	-0.9133206095	-0.8808417464	 3.3707417013	 0.122578
H	-0.0181866298	-2.8776045994	 1.1426324668	 0.088552
112.0067	156.2946	187.2003	202.1874	301.6501	353.4353	369.4405	440.6648	491.1675	587.5327	689.8187	745.1417	786.9836	825.3101	832.9008	884.0741	899.3051	913.0301	952.5657	979.4131	989.6849	1011.6308	1034.4549	1065.0696	1076.6097	1081.0511	1092.6435	1109.7024	1121.2605	1136.3516	1186.6543	1196.0529	1223.2302	1248.3755	1274.8184	1341.8864	1356.8541	1394.093	1411.9727	1431.9438	1479.4002	1488.6549	1493.7027	1507.9395	1516.2923	2980.1365	3032.9133	3069.0691	3090.4097	3116.9916	3120.8188	3129.993	3135.4815	3181.3309	3189.2578	3211.1805	3219.708
CC1CC11OCC2CC12	C[C@H]1C[C@]21OC[C@H]1C[C@@H]21	
InChI=1S/C8H12O/c1-5-3-8(5)7-2-6(7)4-9-8/h5-7H,2-4H2,1H3	InChI=1S/C8H12O/c1-5-3-8(5)7-2-6(7)4-9-8/h5-7H,2-4H2,1H3/t5-,6+,7+,8+/m0/s1
