15
gdb 48644	2.60662	1.58373	1.28355	3.0618	66.71	-0.2439	-0.0515	0.1923	990.6298	0.111835	-457.748618	-457.741058	-457.740113	-457.781083	27.935	
O	-0.0701720601	-0.0017293154	-0.2841908216	-0.246576
C	-0.0019880395	 1.1528402732	 0.0617727523	 0.054677
C	 1.2552968253	 1.9461177484	 0.0393604721	 0.047298
C	 1.6935328427	 2.9468765024	 1.1696281184	-0.302576
C	 2.6513196396	 3.4889528165	 0.0670480903	-0.014139
O	 3.5119690678	 2.3818288928	-0.2033552508	-0.277428
C	 2.5930059939	 1.252081952	-0.257023864	-0.111699
C	 1.455981732	 3.224860639	-0.8727039498	 0.41222
O	 0.8467375956	 3.7656579606	-1.7365163398	-0.29101
H	-0.9005865629	 1.7071825747	 0.409632165	 0.088395
H	 0.9081633846	 3.6458960808	 1.4639652076	 0.133203
H	 2.1871261622	 2.5014405125	 2.0353966735	 0.133703
H	 3.2123018194	 4.4177147068	 0.1267259498	 0.113137
H	 2.8703944244	 0.5125321586	 0.5002498453	 0.12491
H	 2.6224368152	 0.7840737571	-1.2448785586	 0.135885
74.6757	151.0097	174.4045	234.3651	286.2217	420.7734	448.6522	518.2953	601.7973	648.7176	744.0478	767.1632	831.6698	863.0332	910.9485	962.8466	992.0996	1019.7606	1029.5296	1058.2696	1107.8713	1138.5771	1178.2698	1184.8094	1216.5142	1262.0884	1303.6567	1369.7353	1426.885	1474.3538	1527.483	1802.208	1917.1871	2897.3106	3049.8396	3075.8404	3099.4206	3148.6996	3170.7662
O=CC12CC(OC1)C2=O	O=C[C@@]12C[C@@H](OC1)C2=O	
InChI=1S/C6H6O3/c7-2-6-1-4(5(6)8)9-3-6/h2,4H,1,3H2	InChI=1S/C6H6O3/c7-2-6-1-4(5(6)8)9-3-6/h2,4H,1,3H2/t4-,6+/m1/s1
