17
gdb 49258	2.83707	1.21846	0.88918	4.2951	77.38	-0.2459	-0.0625	0.1834	1258.3675	0.13579	-421.880236	-421.872048	-421.871104	-421.913635	30.177	
O	-0.0717773567	-0.0271075628	-0.0149247327	-0.268388
C	-0.0333936267	 1.1809639268	 0.0387295936	 0.09511
C	 1.2076214586	 1.9742980718	-0.0356677118	 0.206728
C	 1.1305254549	 3.3105147637	 0.0471859546	-0.130099
C	 2.3229877952	 4.2183798243	-0.0011821499	-0.272312
C	 3.6274827205	 3.4737327835	 0.3427753059	-0.306641
C	 3.71912745	 2.136914841	-0.377911961	 0.379957
O	 4.6893400972	 1.8044890279	-1.0150944055	-0.301724
C	 2.5054701983	 1.2282724299	-0.2222930259	-0.404924
H	-0.9609694509	 1.7854434323	 0.1555728892	 0.071643
H	 0.150191798	 3.7731822743	 0.1480184697	 0.107115
H	 2.3943790371	 4.6611550163	-1.0056739277	 0.139098
H	 2.1794057912	 5.0651739986	 0.6795858897	 0.124622
H	 4.5130435573	 4.0659453376	 0.1047235233	 0.127005
H	 3.6359352705	 3.26486264	 1.4214461974	 0.127476
H	 2.6788173493	 0.5671828804	 0.6393265697	 0.151305
H	 2.4514194262	 0.5581916943	-1.0855836786	 0.154029
70.034	99.0091	160.7564	190.9662	311.0382	382.9941	411.242	441.0557	485.2163	532.7743	614.2772	688.5188	751.6676	817.1034	865.5413	908.2799	925.6937	966.2175	1027.1423	1058.6118	1064.2801	1134.2569	1171.0554	1205.314	1214.8534	1243.9001	1301.7456	1326.4778	1369.599	1392.7517	1427.2814	1435.852	1466.0696	1475.2254	1708.5849	1791.6232	1824.653	2879.0794	3006.9119	3018.8994	3025.4308	3058.1349	3089.2658	3119.1366	3146.485
O=CC1=CCCC(=O)C1	O=CC1=CCCC(=O)C1	
InChI=1S/C7H8O2/c8-5-6-2-1-3-7(9)4-6/h2,5H,1,3-4H2	InChI=1S/C7H8O2/c8-5-6-2-1-3-7(9)4-6/h2,5H,1,3-4H2
