24
gdb 5814	3.18477	1.53276	1.28432	0.	85.11	-0.2712	0.0731	0.3443	1112.9368	0.221287	-314.281534	-314.271787	-314.270842	-314.317095	37.68	
C	-0.4983773606	 1.5042506794	-0.418703596	-0.443293
C	 0.0036572509	 0.0712079919	-0.2436457013	 0.385218
C	-1.1443055156	-0.9239049584	-0.4116207275	-0.443293
C	 1.2674836768	-0.2674453806	-1.1002449538	-0.322791
C	 2.1150069029	-0.488806159	 0.195289786	 0.385217
C	 2.6174771011	-1.9216851026	 0.3704173463	-0.443292
C	 3.2626698318	 0.5066659699	 0.3632228531	-0.443294
C	 0.8511093173	-0.1504218766	 1.0518892679	-0.322785
H	 0.3126582271	 2.2308678393	-0.3012879911	 0.108731
H	-0.9340573001	 1.6507580934	-1.4143731703	 0.10853
H	-1.270079713	 1.7451904558	 0.3222840865	 0.108529
H	-1.5966898407	-0.8399523694	-1.4070805392	 0.108529
H	-0.8013090774	-1.9568090633	-0.2891387259	 0.108721
H	-1.9326160117	-0.7455684369	 0.3295964063	 0.10853
H	 1.16194001	-1.1575093198	-1.7281431551	 0.086293
H	 1.6169612733	 0.5538242161	-1.7334838873	 0.086294
H	 3.3893074058	-2.1624050592	-0.3705088691	 0.108529
H	 3.0531342676	-2.0680364957	 1.3661204261	 0.10853
H	 1.8066703742	-2.6485522211	 0.2529615261	 0.108721
H	 2.9193987829	 1.539455738	 0.2405525433	 0.108731
H	 3.7149697253	 0.4229903218	 1.3587444746	 0.108531
H	 4.0511084287	 0.3284411536	-0.3778838145	 0.108529
H	 0.9565372853	 0.7394407292	 1.6800933459	 0.086294
H	 0.5016315781	-0.9719263059	 1.6848228391	 0.086293
5.0541	204.8618	236.6024	241.1287	246.1018	271.3854	299.6397	304.4497	341.1433	371.7782	374.913	444.6519	446.8683	565.9271	720.6077	857.7229	863.7469	880.208	885.5577	890.1708	946.1865	959.5081	976.3875	997.219	998.2766	1005.212	1055.4316	1119.2533	1185.3525	1187.9602	1233.4734	1247.0516	1281.4383	1285.613	1306.3077	1321.3333	1399.5122	1403.492	1418.7176	1420.1865	1473.7396	1481.9879	1485.1654	1485.349	1490.0126	1492.5284	1498.8929	1503.4129	1505.2995	1510.2635	3013.4113	3014.0773	3018.1725	3018.3102	3037.3541	3043.4774	3077.3711	3078.0036	3083.2476	3084.0922	3084.2183	3086.2331	3089.3855	3090.3521	3092.9447	3095.9543
CC1(C)CC(C)(C)C1	CC1(C)CC(C)(C)C1	
InChI=1S/C8H16/c1-7(2)5-8(3,4)6-7/h5-6H2,1-4H3	InChI=1S/C8H16/c1-7(2)5-8(3,4)6-7/h5-6H2,1-4H3
