17
gdb 71792	3.02368	1.95104	1.79031	0.3585	69.65	-0.2313	0.0616	0.2928	836.2864	0.137277	-421.745766	-421.739477	-421.738533	-421.775935	27.04	
O	-0.0370218723	 1.4097592201	 0.0109696319	-0.487548
C	-0.0260190601	 0.019107061	-0.042390057	 0.387495
C	 0.4831903752	-0.7686961645	-1.2701152263	-0.29923
C	-0.5465153385	-1.8530718788	-0.8715834217	-0.076691
C	-0.1187922465	-2.5288560264	 0.494021129	 0.088251
O	 1.1182472421	-1.9611302955	 0.983975888	-0.288387
C	 0.3873653237	-0.7545283158	 1.2869214915	 0.008321
C	-0.9787304619	-1.4959954545	 1.2780935727	-0.084304
C	-1.3662006625	-0.7898713264	-0.0529637593	-0.108725
H	 0.8725618935	 1.7166906398	 0.1053724612	 0.278745
H	 0.18109131	-0.2643549144	-2.1923957847	 0.102326
H	 1.538181704	-1.0507749747	-1.3072696154	 0.104196
H	-0.9851399002	-2.5023069404	-1.6278779258	 0.07163
H	-0.1511089753	-3.6153499971	 0.5798835749	 0.079173
H	 0.8180205821	-0.1670910623	 2.1005022202	 0.076578
H	-1.5950942089	-1.7057466576	 2.1498172883	 0.075149
H	-2.3311085344	-0.3801123524	-0.3391720576	 0.073022
229.5913	276.1399	329.2532	390.7494	462.8055	523.2388	570.0606	677.5457	723.7119	770.8319	807.7422	829.0876	840.3854	863.9236	894.3883	911.0667	952.9797	970.4446	977.0901	993.3533	1037.1067	1070.7967	1086.9978	1131.2645	1135.2292	1160.9005	1179.7189	1194.9998	1210.6829	1218.1517	1243.4069	1265.6669	1283.4446	1307.987	1323.0726	1376.8926	1468.9802	3056.7518	3092.9827	3105.7503	3118.9484	3121.4662	3132.7145	3154.8674	3784.6847
OC12CC3C4OC1C4C23	O[C@@]12C[C@H]3[C@H]4O[C@@H]1[C@H]4[C@@H]23	
InChI=1S/C7H8O2/c8-7-1-2-4(7)3-5(2)9-6(3)7/h2-6,8H,1H2	InChI=1S/C7H8O2/c8-7-1-2-4(7)3-5(2)9-6(3)7/h2-6,8H,1H2/t2-,3+,4+,5-,6-,7-/m1/s1
