19
gdb 68349	2.42274	2.01458	1.33525	3.3741	80.7	-0.2358	-0.0484	0.1874	994.9425	0.160819	-385.916696	-385.909111	-385.908166	-385.948253	30.766	
C	-0.0667087556	 1.5298580276	 0.0271262691	-0.47727
C	 0.0213067498	 0.0176642488	 0.015448451	 0.18727
C	 1.0672639386	-0.6965564041	-0.9084773252	-0.254308
C	 1.0958616331	-1.831202697	 0.1621812423	-0.078181
C	 0.715573307	-0.7333293688	 1.203626519	-0.254308
C	-0.1069593444	-2.7153965338	-0.0534963279	-0.052585
C	-1.2986154306	-2.1320976682	-0.2417625171	-0.160284
C	-1.3450450966	-0.6481402885	-0.2236658037	 0.373748
O	-2.3667095671	-0.0118633231	-0.3827021098	-0.349409
H	 0.9198258733	 1.9723803717	 0.1990553169	 0.101883
H	-0.4574079006	 1.9055432753	-0.9230807732	 0.129338
H	-0.7461914696	 1.8753354142	 0.8117462933	 0.129336
H	 0.7657726836	-0.9678457242	-1.9231774438	 0.105988
H	 2.0044126966	-0.132807077	-0.9357859787	 0.102559
H	 2.0176879598	-2.3958887125	 0.3058454694	 0.069406
H	 1.5901460852	-0.1761238179	 1.5521245226	 0.102559
H	 0.1031693315	-1.0371295917	 2.0561392265	 0.105987
H	 0.0110835924	-3.7949786292	-0.0526298288	 0.10918
H	-2.2266648264	-2.6680929915	-0.405619652	 0.10909
128.5907	188.5662	280.2371	289.6655	336.6123	406.8552	422.5837	437.2971	504.1941	610.3011	683.2564	725.6101	786.9945	820.4102	836.1507	864.4852	897.0071	906.7386	979.2413	984.3837	1009.9652	1015.9714	1083.3231	1096.8075	1124.2063	1136.9455	1172.7529	1202.3218	1214.2312	1250.0407	1257.9208	1319.8031	1355.9532	1386.5662	1414.0683	1477.333	1484.1567	1485.3868	1507.496	1659.6476	1780.3152	3037.7308	3048.4704	3054.3818	3100.377	3108.4497	3112.1938	3114.5796	3114.8647	3171.4953	3204.401
CC12CC(C1)C=CC2=O	C[C@@]12C[C@@H](C1)C=CC2=O	
InChI=1S/C8H10O/c1-8-4-6(5-8)2-3-7(8)9/h2-3,6H,4-5H2,1H3	InChI=1S/C8H10O/c1-8-4-6(5-8)2-3-7(8)9/h2-3,6H,4-5H2,1H3/t6-,8+
