12
gdb 20755	5.74866	1.64869	1.29148	3.4462	59.63	-0.267	-0.1078	0.1592	872.9301	0.083204	-414.657993	-414.651265	-414.650321	-414.68911	24.232	
C	-0.2144483852	 1.5297999168	 0.0560323864	-0.452108
C	 0.032760724	 0.0555901492	-0.0293604971	 0.395835
N	 0.026492945	-0.4787437924	-1.2040954452	-0.103504
O	 0.2578795642	-1.8542723301	-1.276440609	-0.245304
C	 0.4838901714	-2.6208142499	-0.1607186957	 0.426578
O	 0.6782069179	-3.7999552933	-0.2682937457	-0.316547
C	 0.4601979432	-1.8685894708	 1.1061719071	-0.091406
N	 0.2486760343	-0.6069683914	 1.1812425978	-0.23563
H	 0.6379721754	 2.0215431139	 0.5352313221	 0.152608
H	-0.3704718	 1.9505786514	-0.9371081963	 0.155517
H	-1.0923387353	 1.7229541395	 0.6805780738	 0.152606
H	 0.6357218651	-2.445857003	 2.0123565018	 0.161355
82.7864	171.3355	294.5605	316.8139	343.0223	446.4832	511.1593	550.5999	613.4394	764.7644	776.9287	796.1261	930.0342	970.4354	982.5124	1070.6885	1071.2302	1222.8775	1288.3819	1367.7035	1415.593	1467.7962	1473.2587	1589.3912	1679.8926	1844.1403	3049.5701	3109.1131	3159.1708	3162.4881
CC1=NOC(=O)C=N1	Cc1noc(=O)cn1	
InChI=1S/C4H4N2O2/c1-3-5-2-4(7)8-6-3/h2H,1H3	InChI=1S/C4H4N2O2/c1-3-5-2-4(7)8-6-3/h2H,1H3
