17
gdb 86505	6.1386	0.59993	0.59763	4.971	90.38	-0.2362	-0.0422	0.194	1841.0933	0.135912	-380.833017	-380.824125	-380.823181	-380.867395	31.771	
C	-0.0040249035	 1.5057487341	-0.0132660328	-0.322132
N	-0.0332437792	 0.066973333	 0.130916961	-0.066932
C	-1.2781736309	-0.567114984	 0.5952204293	-0.172607
C	-0.4087875474	-1.6030153014	 1.374782251	-0.210046
C	 0.729147872	-0.5440425884	 1.232241087	-0.172607
C	-0.82230568	-2.0092997107	 2.6925376335	 0.132772
C	-1.1703642073	-2.3442600607	 3.8014464575	 0.014857
C	-1.5631898579	-2.7196297096	 5.052893911	 0.204517
N	-1.8978817994	-3.0385387499	 6.1191069993	-0.338723
H	 1.0063430993	 1.829196254	-0.2837114988	 0.128382
H	-0.680114414	 1.8098118261	-0.8189031108	 0.128382
H	-0.3026118631	 2.0398981956	 0.9082730433	 0.097578
H	-1.8627856115	 0.0610735652	 1.2863122991	 0.10314
H	-1.9340852382	-0.9520284441	-0.1909368799	 0.119662
H	-0.2016404161	-2.4785735123	 0.7537512493	 0.130955
H	 1.7261920894	-0.9099565144	 0.9706470689	 0.119662
H	 0.795082158	 0.0916228274	 2.1297834724	 0.10314
56.4798	83.6924	140.3916	209.0254	236.8217	264.7524	336.5257	346.4659	430.4427	507.0867	559.209	591.4051	591.8396	725.0848	875.9153	892.3608	971.1164	978.1558	1006.1213	1087.884	1124.2344	1142.5046	1188.3553	1202.7751	1228.2341	1228.7912	1233.2749	1298.0625	1338.9822	1363.3766	1452.4089	1485.9983	1498.8983	1501.5277	1527.8254	2262.6963	2395.4352	2933.4172	2973.8555	2983.3731	3062.6757	3071.0634	3078.2734	3086.8796	3104.5975
CN1CC(C1)C#CC#N	CN1CC(C1)C#CC#N	
InChI=1S/C7H8N2/c1-9-5-7(6-9)3-2-4-8/h7H,5-6H2,1H3	InChI=1S/C7H8N2/c1-9-5-7(6-9)3-2-4-8/h7H,5-6H2,1H3
