20
gdb 55301	2.48149	1.48042	1.04651	3.4955	79.47	-0.2383	0.033	0.2713	1183.7322	0.170887	-403.160152	-403.15101	-403.150066	-403.194453	34.473	
N	 0.0685146454	 1.1736128423	-0.1906481731	-0.522629
C	-0.2777660714	 0.0640822927	 0.5247479023	 0.378607
O	 0.2463763181	-0.2138578419	 1.5892839591	-0.372508
C	-1.3689137943	-0.7982890436	-0.0816672645	-0.151403
C	-1.616459162	-0.8652411421	-1.6191608043	-0.259335
C	-1.814448144	-2.4038504239	-1.4875472412	-0.301521
C	-1.1707203014	-2.3262031763	-0.0963595638	 0.375091
C	 0.0645098504	-3.0693080395	 0.3274398304	-0.318456
C	-1.2513046478	-3.2933593561	 1.0406135813	-0.329239
H	 0.7285248661	 1.8156445099	 0.2172979242	 0.259591
H	-0.4184382905	 1.4442596265	-1.0264745685	 0.260668
H	-2.2972570823	-0.545519246	 0.4468749123	 0.104462
H	-2.452326875	-0.285114426	-2.0177187546	 0.097059
H	-0.7130640425	-0.625316734	-2.1871484052	 0.107237
H	-2.8729805499	-2.6810160123	-1.4477290204	 0.102503
H	-1.3163645434	-3.0294683577	-2.2327204813	 0.101417
H	 0.4270270573	-3.8506019591	-0.3338184475	 0.099831
H	 0.8301814146	-2.5204729047	 0.8615773784	 0.141273
H	-1.3467856516	-2.8821478773	 2.0400353795	 0.12404
H	-1.7762972457	-4.230229031	 0.880232957	 0.103313
44.5817	92.9212	161.4773	192.109	219.2698	275.4284	321.9652	379.0048	449.2932	478.5655	574.1169	618.9731	667.2406	750.2401	783.4558	792.3124	864.7799	897.3213	921.3167	940.5033	955.4674	997.9524	1033.5475	1057.5137	1077.2419	1086.6388	1097.8832	1125.3324	1193.9851	1196.3009	1230.0674	1241.9724	1265.6066	1276.4303	1315.7827	1365.6524	1383.025	1451.1336	1481.0699	1494.2542	1502.8336	1612.7639	1777.577	3024.9721	3045.2557	3054.7565	3094.1938	3112.9019	3122.5163	3129.8079	3209.2301	3231.5713	3601.1545	3739.6418
NC(=O)C1CCC11CC1	NC(=O)[C@H]1CCC21CC2	
InChI=1S/C7H11NO/c8-6(9)5-1-2-7(5)3-4-7/h5H,1-4H2,(H2,8,9)	InChI=1S/C7H11NO/c8-6(9)5-1-2-7(5)3-4-7/h5H,1-4H2,(H2,8,9)/t5-/m1/s1
