23
gdb 105624	1.91261	1.33928	1.18197	0.6626	91.84	-0.2503	0.0517	0.302	1277.6659	0.20376	-351.123226	-351.112972	-351.112027	-351.15775	39.169	
C	 0.0655785961	 1.6240186533	 0.1179913397	-0.394645
C	-0.0445887708	 0.1036220296	-0.0280013284	-0.229207
C	 0.6837971356	-0.4638519213	-1.26579627	 0.127625
C	 2.2457151497	-0.4708995455	-1.0885106536	-0.254836
C	 2.1726677747	-1.9544127375	-0.6506190463	-0.245367
C	 0.7612800896	-2.0463978777	-1.2867091628	 0.017441
C	-0.3199166335	-2.8833522866	-0.6218282204	-0.419873
C	 0.1779731505	 0.1334673327	-2.4909886499	 0.270377
C	-0.2396849824	 0.6036003085	-3.5176109558	-0.458465
H	 1.1083934265	 1.9468441719	 0.2037255836	 0.115456
H	-0.370239694	 2.1324487763	-0.7464315725	 0.132835
H	-0.4606146929	 1.9640897356	 1.0152199775	 0.110116
H	 0.3625697263	-0.3799575551	 0.8679349097	 0.09458
H	-1.1017682322	-0.1801849757	-0.0820707945	 0.104291
H	 2.7550847307	-0.3445103221	-2.0458197657	 0.111154
H	 2.6535304825	 0.2497739957	-0.3759227414	 0.100926
H	 2.9381081783	-2.6305418689	-1.0379142261	 0.097458
H	 2.1392209271	-2.0633523248	 0.4378451791	 0.100011
H	 0.8609921982	-2.3512283882	-2.3331578539	 0.082159
H	-0.4509437627	-2.6233599406	 0.4330971262	 0.114316
H	-1.2860540177	-2.7594417863	-1.1232416004	 0.121781
H	-0.0574534805	-3.9461810246	-0.6688910571	 0.114621
H	-0.6037434592	 1.0226076114	-4.422698247	 0.187247
101.8093	123.6299	145.9809	169.6395	184.9996	229.9147	230.8456	287.7738	336.0411	379.1149	460.9271	527.4101	542.5144	581.5592	616.3738	619.0158	678.8976	786.4127	794.8877	878.5497	892.5286	938.7742	943.042	959.5818	1008.7806	1025.1071	1063.6771	1103.7934	1136.5555	1169.4115	1176.5582	1214.3856	1233.5731	1261.4776	1271.8221	1297.6587	1332.696	1358.6841	1381.8991	1406.9192	1412.6384	1479.1947	1481.5161	1494.649	1495.7934	1497.9623	1502.4969	1507.9607	2222.1756	3026.6262	3030.7352	3039.204	3051.1446	3056.2996	3066.231	3069.3831	3091.9893	3102.1484	3103.7489	3107.6347	3118.683	3127.3524	3501.6839
CCC1(CCC1C)C#C	CC[C@]1(CC[C@H]1C)C#C	
InChI=1S/C9H14/c1-4-9(5-2)7-6-8(9)3/h1,8H,5-7H2,2-3H3	InChI=1S/C9H14/c1-4-9(5-2)7-6-8(9)3/h1,8H,5-7H2,2-3H3/t8-,9+/m1/s1
