19
gdb 66372	2.30837	1.40887	1.32557	0.4265	76.69	-0.2427	0.031	0.2737	1098.0082	0.158792	-422.995967	-422.987219	-422.986274	-423.028845	34.141	
O	-0.0563444237	 1.3919121396	-0.0215221555	-0.458089
C	 0.0237540603	-0.0331112271	 0.0473867007	 0.179056
C	-1.4246326561	-0.5552775819	 0.0525666851	-0.225318
C	-1.4624949941	-2.0733811456	-0.1623680728	-0.219699
C	-0.6530302881	-2.4552748282	-1.4026145373	-0.062188
O	 0.6798750207	-1.9709142074	-1.326689807	-0.239276
C	 0.7294387512	-0.5660916261	-1.2268581965	-0.110037
C	 0.7521327542	-0.4501008233	 1.2504693438	 0.330833
C	 1.3791818181	-0.7466089624	 2.2327405237	-0.510859
H	 0.798440514	 1.7484026985	 0.2437808499	 0.284652
H	-1.9140148892	-0.2657002749	 0.9861641943	 0.111927
H	-1.9451560124	-0.040823214	-0.7643834935	 0.107892
H	-1.0397344721	-2.5828920613	 0.7105749629	 0.119093
H	-2.4969886049	-2.4163407429	-0.2746342057	 0.098771
H	-0.5740715421	-3.5406918956	-1.5088580408	 0.107751
H	-1.1430061609	-2.0586746937	-2.3091262845	 0.085812
H	 0.2398834768	-0.0833842668	-2.0887721976	 0.093975
H	 1.7864348922	-0.2845684213	-1.2221590636	 0.103785
H	 1.9272172962	-1.0176438057	 3.1013873145	 0.201919
108.6971	138.3897	203.52	255.0666	264.8109	320.8708	337.8821	402.0164	432.524	455.4572	547.0052	569.2884	626.9821	639.5255	667.7435	697.8553	848.7064	882.365	908.2474	933.8957	995.1157	1031.4349	1043.1943	1094.0841	1119.671	1143.8037	1184.238	1219.7413	1246.2571	1291.416	1320.9268	1344.467	1364.5768	1379.8982	1398.5601	1416.2715	1477.9707	1484.5039	1490.0093	1503.0079	2228.1666	2955.5176	2974.8954	3038.7412	3040.9944	3083.6845	3087.3337	3090.6563	3099.8856	3499.4858	3812.1979
OC1(CCCOC1)C#C	O[C@]1(CCCOC1)C#C	
InChI=1S/C7H10O2/c1-2-7(8)4-3-5-9-6-7/h1,8H,3-6H2	InChI=1S/C7H10O2/c1-2-7(8)4-3-5-9-6-7/h1,8H,3-6H2/t7-/m0/s1
