20
gdb 79629	2.17126	1.84106	1.53828	2.6092	77.15	-0.2323	0.0607	0.293	996.2912	0.173091	-403.10474	-403.096811	-403.095867	-403.136782	32.037	
C	-0.2908719156	 1.5155042666	 0.3264517233	-0.431328
C	 0.0051647693	 0.0643610614	-0.0015653775	-0.003014
C	 0.5446408603	-0.5310582914	-1.2881318832	-0.067764
C	 1.4206129497	 0.2362681221	-2.2607285221	-0.04294
N	 1.8131322827	 1.6198197204	-1.8821403684	-0.348681
C	 2.7410731752	 0.4976451767	-1.6423644854	-0.081553
C	 2.6982159513	 0.0454655667	-0.174033559	 0.120728
O	 2.9790766246	 1.0989850408	 0.7285757788	-0.43779
C	 1.3346227351	-0.6585703108	 0.0077978551	-0.101206
H	-1.3064247514	 1.7666552745	-0.0008791523	 0.107642
H	-0.2490191941	 1.6680972413	 1.4106842982	 0.115024
H	 0.3886929268	 2.2082213785	-0.162630081	 0.141289
H	-0.7648408678	-0.5834107329	 0.417848841	 0.084223
H	 0.0174899167	-1.3777679721	-1.7158469739	 0.079435
H	 1.3200582223	 0.0168146131	-3.3185023349	 0.087111
H	 2.0992191848	 2.1292078429	-2.7142653332	 0.234254
H	 3.6789713738	 0.4700487738	-2.1874147351	 0.08922
H	 3.4838971539	-0.6993919443	-0.0079990106	 0.084343
H	 2.4827093117	 1.8607722747	 0.40537582	 0.290907
H	 1.3669676707	-1.5988333723	 0.5485789705	 0.080101
114.3285	170.9913	197.5042	259.6711	316.4069	346.1885	423.0063	510.5306	547.1065	609.9276	685.674	696.4692	728.335	773.2243	828.8529	844.0756	875.143	909.1011	931.1174	992.6909	1012.0709	1021.4474	1055.1468	1072.2428	1093.6528	1102.4097	1118.1406	1142.5929	1149.2661	1168.6935	1238.8308	1258.2307	1291.5898	1317.8388	1326.968	1371.9811	1380.8092	1401.9524	1419.0936	1440.6295	1450.7871	1493.8375	1521.0281	3032.8201	3053.3344	3082.9659	3095.2509	3147.6789	3156.0589	3160.3707	3171.8091	3180.1343	3501.2747	3786.9224
CC1C2C3NC3C(O)C12	C[C@H]1[C@H]2[C@H]3N[C@H]3[C@@H](O)[C@@H]12	
InChI=1S/C7H11NO/c1-2-3-4(2)7(9)6-5(3)8-6/h2-9H,1H3	InChI=1S/C7H11NO/c1-2-3-4(2)7(9)6-5(3)8-6/h2-9H,1H3/t2-,3+,4-,5+,6+,7-/m0/s1
