14
gdb 130062	4.13644	1.00307	0.90495	4.1625	68.93	-0.2264	-0.0069	0.2195	1249.4286	0.103347	-429.078265	-429.070324	-429.06938	-429.111756	28.483	
N	 0.0256387744	 1.3564586066	-0.004728634	-0.578283
C	 0.002180532	-0.0171580464	-0.0026872535	 0.42098
N	-1.1066901016	-0.724278891	-0.1831238147	-0.331183
N	-0.6443326039	-2.0058701925	-0.038822637	 0.055012
C	-1.5607398658	-3.1174065152	-0.1027582614	-0.29249
C	-2.3284230576	-3.3114543403	 1.1376285832	 0.284559
N	-2.9298318225	-3.4883771866	 2.1069436648	-0.28881
C	 0.6782400425	-1.9890527333	 0.2152987144	 0.017345
N	 1.1315666389	-0.7533495826	 0.2379591564	-0.320471
H	 0.9270859966	 1.7479711914	-0.2306754499	 0.263627
H	-0.7440961793	 1.7914857354	-0.4899484163	 0.262382
H	-2.2562693899	-2.9493169957	-0.930164578	 0.184735
H	-0.9939726484	-4.0285457865	-0.3157293873	 0.172643
H	 1.2591737046	-2.8870622432	 0.3674273432	 0.149953
44.0551	75.936	227.536	272.4409	322.0975	349.2781	367.3713	454.7289	486.556	571.9028	624.338	715.855	781.3145	807.3361	853.4896	927.523	957.9855	1018.6666	1035.8387	1120.4283	1212.8769	1231.7781	1351.1349	1376.6705	1398.5074	1449.066	1474.8566	1523.0681	1595.1882	1654.5577	2370.7503	3066.0324	3113.087	3252.1264	3585.0459	3694.6079
NC1=NN(CC#N)C=N1	Nc1nn(CC#N)cn1	
InChI=1S/C4H5N5/c5-1-2-9-3-7-4(6)8-9/h3H,2H2,(H2,6,8)	InChI=1S/C4H5N5/c5-1-2-9-3-7-4(6)8-9/h3H,2H2,(H2,6,8)
