15
gdb 42207	3.54574	1.18658	0.90197	1.8828	76.52	-0.2297	-0.0837	0.146	1229.3439	0.112776	-416.793712	-416.785445	-416.784501	-416.827086	29.867	
O	-0.1019195499	 0.0032070446	 0.2910933892	-0.305749
C	-0.0619033884	 1.2151520707	 0.1933297086	 0.150237
C	 1.1749285245	 1.9485990148	 0.0630621244	 0.320785
C	 2.2327375845	 2.5130194417	-0.0354751475	-0.409148
C	-1.3269024094	 2.0109149152	 0.1833400665	 0.309319
N	-1.3772245921	 3.2745684011	-0.028218615	-0.310364
C	-2.8094994011	 3.6242616258	 0.0310620295	-0.170102
C	-3.580698735	 2.2723457895	 0.0089015567	-0.185261
N	-2.5139754391	 1.3515096546	 0.4151089588	-0.344959
H	 3.1615975722	 3.0221879201	-0.1241204527	 0.216578
H	-2.9940562762	 4.1741944277	 0.9632595977	 0.123383
H	-3.0780146764	 4.2878901751	-0.7948817975	 0.120661
H	-4.4222291599	 2.2476140699	 0.705725084	 0.118297
H	-3.9573173612	 2.0350266005	-0.9960268334	 0.108767
H	-2.5545796926	 0.3662181786	 0.2013235607	 0.257556
66.4147	122.304	155.3895	186.4508	240.7038	278.9422	430.2458	487.261	550.3846	565.1984	652.5962	681.9111	713.4895	731.2426	815.864	860.6118	904.4766	969.3844	996.0968	1038.2326	1097.3843	1108.6176	1198.7751	1240.5163	1282.2682	1311.9579	1359.1742	1480.8138	1487.5774	1530.5048	1675.8474	1736.6471	2221.1756	3002.1743	3024.1506	3084.4557	3094.4305	3495.6886	3623.6407
O=C(C#C)C1=NCCN1	O=C(C#C)[C]1[N]CCN1	
InChI=1S/C6H6N2O/c1-2-5(9)6-7-3-4-8-6/h1H,3-4H2,(H,7,8)	InChI=1S/C6H6N2O/c1-2-5(9)6-7-3-4-8-6/h1H,3-4H2,(H,7,8)
