19
gdb 11537	4.07514	1.13484	0.95358	2.5118	72.13	-0.2416	-0.0148	0.2268	1250.9332	0.164254	-365.056366	-365.04727	-365.046326	-365.091533	31.906	
C	-0.5382631005	 1.1761920895	-0.3892579547	-0.373884
C	-0.1272201823	-0.232472698	-0.8098824634	-0.292153
C	 1.3685813921	-0.3824267586	-1.0531399359	 0.379148
O	 2.1374120599	 0.541198561	-0.9164773465	-0.297209
C	 1.8677263575	-1.7613507322	-1.4967925452	-0.315615
C	 1.426144726	-2.1115882913	-2.9064117514	 0.025475
C	 1.3292063227	-3.5251584003	-3.3427704961	-0.246313
N	 0.1076132951	-2.7151284251	-3.1704053536	-0.311198
H	-0.0287049891	 1.4736849397	 0.5306961603	 0.130406
H	-0.2698970249	 1.9052447832	-1.1578895336	 0.132777
H	-1.6175433582	 1.2304514783	-0.2221782521	 0.10978
H	-0.4165594649	-0.9729302282	-0.0500773682	 0.113749
H	-0.6491935711	-0.5437551909	-1.724716883	 0.144942
H	 2.9603220898	-1.7398021358	-1.4397140068	 0.127501
H	 1.5013299537	-2.5303117883	-0.8033494868	 0.099761
H	 1.7076597623	-1.3729166662	-3.6548255112	 0.107692
H	 1.5585065864	-3.7979666347	-4.3686836338	 0.124484
H	 1.5475868638	-4.2976632553	-2.6095368117	 0.113523
H	-0.3382509085	-2.9661131769	-2.2905561764	 0.227135
32.6559	64.3356	91.3947	150.5421	206.3911	241.867	325.4715	351.5847	442.8203	535.2722	627.0408	743.8533	789.6912	815.5144	827.1035	909.5137	935.9372	971.7922	1001.0065	1024.4312	1051.4199	1096.9465	1122.6936	1133.4904	1164.3688	1203.4216	1248.9234	1263.7813	1278.5627	1307.0333	1308.8153	1373.3663	1415.526	1416.1139	1456.2103	1464.426	1493.8652	1498.0466	1509.5085	1808.9101	3011.354	3022.8888	3048.6686	3052.465	3090.943	3108.231	3123.4171	3126.6685	3128.3292	3194.5348	3487.8581
CCC(=O)CC1CN1	CCC(=O)C[C@H]1CN1	
InChI=1S/C6H11NO/c1-2-6(8)3-5-4-7-5/h5,7H,2-4H2,1H3	InChI=1S/C6H11NO/c1-2-6(8)3-5-4-7-5/h5,7H,2-4H2,1H3/t5-/m0/s1
