18
gdb 85237	2.75392	1.54795	1.13732	3.5784	72.37	-0.2441	0.0198	0.2639	1090.5734	0.14807	-439.120155	-439.111815	-439.110871	-439.152636	32.521	
C	-0.1794853778	 1.5775853703	 0.0449271469	-0.391727
C	 0.0669155938	 0.0700235989	 0.0138254569	 0.024449
N	 0.9282925328	-0.3408012685	-1.1009564455	-0.332713
C	 1.84704542	-1.2987609916	-0.7823412342	 0.351519
O	 2.4830285138	-2.0105891276	-1.5353776717	-0.404596
C	 1.9220703506	-1.3703983697	 0.7194415966	 0.344445
O	 2.2935719029	-2.5975219192	 1.2339589911	-0.476777
C	 2.2560678384	-0.0710172627	 1.4106970669	-0.347735
C	 0.8101451617	-0.4918078167	 1.2304145686	-0.130178
H	 0.7576006186	 2.1278942782	 0.1646762711	 0.128295
H	-0.6603574176	 1.9157684772	-0.8790213322	 0.115849
H	-0.8415252567	 1.8328489444	 0.8779321735	 0.125683
H	-0.9038494517	-0.4411506087	-0.0685401523	 0.09111
H	 0.6765655722	-0.1795896671	-2.0638247659	 0.252021
H	 2.751669252	-3.0426306189	 0.5047686125	 0.296504
H	 2.6521983646	-0.1830013858	 2.414172874	 0.128012
H	 2.6618483837	 0.7600609457	 0.8425240282	 0.119776
H	 0.2327906886	-0.7543355482	 2.1078389557	 0.106063
120.8002	147.8537	230.8829	240.3765	289.1749	326.5312	357.2804	408.5249	480.7907	505.6854	531.9118	587.5483	690.6403	718.8311	784.3148	797.3436	881.0006	931.0554	952.7604	972.1737	1001.8318	1038.9113	1065.9569	1081.8645	1127.2641	1152.9831	1181.5122	1240.8778	1298.4853	1325.9277	1378.4855	1404.5058	1415.2293	1428.1187	1439.5411	1491.0447	1494.3231	1500.1679	1817.8552	2987.586	3038.9846	3105.914	3122.9269	3126.3506	3195.4438	3220.717	3634.9789	3721.8087
CC1NC(=O)C2(O)CC12	C[C@H]1NC(=O)[C@@]2(O)C[C@@H]12	
InChI=1S/C6H9NO2/c1-3-4-2-6(4,9)5(8)7-3/h3-4,9H,2H2,1H3,(H,7,8)	InChI=1S/C6H9NO2/c1-3-4-2-6(4,9)5(8)7-3/h3-4,9H,2H2,1H3,(H,7,8)/t3-,4+,6-/m1/s1
