23
gdb 88679	3.15805	0.9369	0.85686	1.6979	87.53	-0.2488	0.0871	0.3358	1507.3077	0.203134	-388.273531	-388.263159	-388.262215	-388.309203	38.581	
C	-0.1772967714	 1.5695964071	-0.0122668238	-0.405369
C	 0.0216440201	 0.0695175316	-0.0151241719	 0.009349
C	 1.3410677362	-0.5462921192	-0.399973368	-0.306163
C	 0.8497568551	-0.6567284911	 1.0294935558	-0.036899
C	 1.5654032011	 0.0777126771	 2.1114246957	 0.013041
O	 0.9160369921	 0.1943025842	 3.389464228	-0.30762
C	 2.1531334135	-0.5374828533	 3.3197826113	 0.384084
C	 2.0492765169	-2.0210208304	 3.6022984917	-0.455044
C	 3.3228536466	 0.152363267	 3.9922373147	-0.450134
H	 0.7358440556	 2.1051063356	 0.2622966009	 0.116148
H	-0.4727320984	 1.9199650452	-1.0073692101	 0.115026
H	-0.9598951093	 1.8661904603	 0.6942063885	 0.12678
H	-0.8574887775	-0.4837439457	-0.3359393802	 0.085881
H	 1.3576467085	-1.4410528575	-1.0122968251	 0.11071
H	 2.1688703211	 0.1318919422	-0.587388456	 0.10912
H	 0.4622264151	-1.6250216843	 1.3256188989	 0.082497
H	 2.0340845801	 1.0078823449	 1.7827158307	 0.075035
H	 1.1433797101	-2.4536444066	 3.1759013525	 0.12883
H	 2.9167757169	-2.5548145379	 3.1990912277	 0.119189
H	 2.0252125998	-2.1942002174	 4.683914451	 0.122252
H	 3.2581653684	 0.0397061665	 5.0802931317	 0.122275
H	 4.2739853422	-0.2834257579	 3.6671461163	 0.11736
H	 3.3309221173	 1.2203193596	 3.7608070197	 0.123652
34.906	107.4138	146.8025	155.4051	188.357	212.1131	233.6198	321.1565	354.7432	388.5957	392.729	445.8364	452.8602	567.1171	708.1542	769.9955	820.1658	854.4639	859.6573	909.3388	921.36	944.4293	986.2613	1011.5543	1027.633	1068.2484	1075.5548	1105.8176	1128.1587	1146.1017	1153.1093	1185.127	1195.9277	1247.7276	1261.681	1333.9337	1375.3343	1402.3182	1407.9372	1417.0307	1424.9494	1471.2828	1475.4137	1486.102	1491.7832	1493.9907	1499.8277	1505.1027	1527.3519	3030.8197	3033.1767	3037.9143	3079.2155	3091.8287	3092.39	3097.0104	3107.5085	3121.1858	3124.3589	3136.4445	3138.6061	3171.0744	3209.6188
CC1CC1C1OC1(C)C	C[C@H]1C[C@H]1[C@H]1OC1(C)C	
InChI=1S/C8H14O/c1-5-4-6(5)7-8(2,3)9-7/h5-7H,4H2,1-3H3	InChI=1S/C8H14O/c1-5-4-6(5)7-8(2,3)9-7/h5-7H,4H2,1-3H3/t5-,6+,7+/m0/s1
