19
gdb 131799	5.40746	0.65335	0.62838	3.7117	78.26	-0.2316	0.0257	0.2573	1769.0923	0.160807	-419.225117	-419.215941	-419.214997	-419.260896	32.58	
O	-0.0278074021	 1.4367885988	-0.2163586098	-0.419974
C	 0.0407998531	 0.0340928746	-0.0201073805	-0.072383
C	-1.3827489067	-0.5072413534	-0.025991714	-0.158292
C	-1.433490769	-2.0359774203	 0.1540897906	-0.334739
C	-2.8242837076	-2.5889041111	 0.1744128814	 0.381065
C	-3.6212464225	-3.0469755817	 1.2069038684	-0.301544
C	-4.8407910624	-3.4098257323	 0.5966222893	-0.002481
N	-4.8206930211	-3.2008668824	-0.7158423546	-0.229654
N	-3.5884598163	-2.7021811416	-0.9449329222	-0.24521
H	 0.8667778037	 1.7888848195	-0.1985992881	 0.287066
H	 0.6282187797	-0.4533607322	-0.8165913849	 0.083156
H	 0.527857634	-0.2139113642	 0.9376545021	 0.086652
H	-1.9533677432	-0.0212170898	 0.7725621645	 0.119439
H	-1.8612846739	-0.2199169223	-0.9695049601	 0.105776
H	-0.852179361	-2.5166036475	-0.6448680352	 0.10827
H	-0.9440486483	-2.3111309458	 1.0944412855	 0.119107
H	-3.3509343787	-3.1092441021	 2.2489264061	 0.097758
H	-5.728281716	-3.8175645384	 1.0583530646	 0.107877
H	-3.3310847517	-2.4633228778	-1.8879015331	 0.268111
25.8743	80.0994	90.2043	118.6359	244.0316	262.4067	313.8203	330.0407	456.258	522.4925	673.1537	691.6367	745.1526	756.1075	803.1321	862.6851	892.8518	937.8	1020.4323	1023.1169	1043.374	1063.1117	1077.0548	1086.4242	1138.6429	1205.3946	1231.6828	1239.7612	1282.9088	1303.4022	1310.8715	1321.8497	1368.8046	1382.1174	1442.8157	1466.0325	1483.5976	1495.6775	1500.3665	1528.8616	1607.0578	2954.2474	2979.4438	3013.824	3041.8292	3068.1126	3092.6716	3241.9457	3265.4103	3667.6894	3831.1238
OCCCC1=CC=NN1	OCCCc1ccn[nH]1	
InChI=1S/C6H10N2O/c9-5-1-2-6-3-4-7-8-6/h3-4,9H,1-2,5H2,(H,7,8)	InChI=1S/C6H10N2O/c9-5-1-2-6-3-4-7-8-6/h3-4,9H,1-2,5H2,(H,7,8)
