21
gdb 74961	2.36095	1.78748	1.41277	1.4728	82.55	-0.226	0.028	0.2541	1036.8117	0.183892	-387.110239	-387.101982	-387.101037	-387.142354	33.456	
C	-0.0243132048	 1.504151584	 0.0379819461	-0.52612
C	-0.0679442928	 0.0156243789	-0.0413175812	 0.300302
C	-0.0804100641	-0.8005727583	-1.1012713022	-0.199292
C	 0.0058512967	-2.2318959963	-0.5915637368	-0.062086
C	 1.4561422121	-2.4246309713	-0.0252965299	-0.202763
C	 1.4622890515	-1.4801091791	 1.2129666016	-0.266531
C	 0.0150090295	-0.8821320115	 1.1996023008	 0.333435
O	-0.4287510732	-0.3305537538	 2.4158730103	-0.501238
C	-0.7943029997	-2.1020668774	 0.7256847685	-0.239134
H	 0.9166925756	 1.8564507092	 0.4844789437	 0.116183
H	-0.1124970464	 1.9630431507	-0.950424622	 0.125655
H	-0.8322264641	 1.8855311684	 0.6733226021	 0.135736
H	-0.0383316799	-0.5128981297	-2.1457706945	 0.084941
H	-0.3079448477	-3.0081404072	-1.289958271	 0.05818
H	 1.6205701804	-3.4655018821	 0.2701128726	 0.096163
H	 2.218987995	-2.1651723082	-0.7629810703	 0.095498
H	 1.6150913094	-2.030928383	 2.1462417527	 0.099629
H	 2.2273284058	-0.699564814	 1.1535064788	 0.087623
H	 0.2384714349	 0.2883416491	 2.7293427872	 0.276679
H	-1.8486927536	-1.8649688519	 0.5692970406	 0.099136
H	-0.6975583045	-2.9639481167	 1.3942988129	 0.088005
154.42	169.1489	215.7194	237.7833	240.5242	348.7784	405.6265	430.1165	481.7832	545.0147	584.2686	643.743	718.9321	780.6829	821.6012	824.7379	868.405	889.1289	925.8112	948.1303	965.0453	976.2908	1015.0715	1048.3341	1060.8192	1081.1169	1122.2127	1145.3621	1187.7324	1199.0145	1234.5262	1244.2611	1259.8448	1282.6085	1308.2115	1313.2331	1347.9879	1378.4	1409.5351	1476.0363	1487.8405	1488.9485	1490.6433	1513.55	1699.2577	3006.514	3042.2189	3049.617	3056.2334	3061.5203	3084.1653	3105.1119	3108.2063	3111.2339	3119.3772	3189.9864	3814.8738
CC1=CC2CCC1(O)C2	CC1=C[C@H]2CC[C@]1(O)C2	
InChI=1S/C8H12O/c1-6-4-7-2-3-8(6,9)5-7/h4,7,9H,2-3,5H2,1H3	InChI=1S/C8H12O/c1-6-4-7-2-3-8(6,9)5-7/h4,7,9H,2-3,5H2,1H3/t7-,8+/m1/s1
