19
gdb 105065	2.74271	1.27677	1.12096	1.2492	70.41	-0.2604	0.0607	0.3211	1161.0216	0.157204	-460.115922	-460.106721	-460.105776	-460.149792	35.013	
O	 0.0397291512	 1.3486388618	 0.4298923609	-0.419486
C	-0.0954421906	-0.0335379834	 0.6651451959	-0.146438
C	-1.3979334759	-0.5880075652	 0.0979723432	 0.323319
C	-2.583075388	 0.273529324	 0.0523813321	-0.220323
O	-1.7859699263	 0.0451416607	-1.1305639494	-0.290882
C	-1.5398182052	-2.0882335758	 0.1347042304	 0.304367
O	-1.5178295558	-2.6083029574	 1.4413947863	-0.460009
C	-2.4542170828	-2.7822238624	-0.8244391792	-0.303212
C	-0.9521938788	-2.9200638545	-0.9776530426	-0.326689
H	-0.2144510376	 1.4806478526	-0.4934655666	 0.291921
H	 0.7433048232	-0.603037688	 0.228529269	 0.090078
H	-0.0725417272	-0.1850320964	 1.7494022271	 0.118836
H	-3.5702722114	-0.1815431698	 0.0304042226	 0.123345
H	-2.5209318397	 1.2831458199	 0.448878787	 0.13185
H	-0.5988250468	-2.7179826473	 1.707774023	 0.287972
H	-2.9984364657	-3.6322901105	-0.4307954213	 0.123252
H	-2.9776661408	-2.1779786128	-1.555401527	 0.131636
H	-0.4797848419	-2.4064370615	-1.8076563189	 0.126106
H	-0.5029852201	-3.867808304	-0.7012529423	 0.114355
59.6418	118.3361	177.3647	218.3154	268.2209	291.8868	320.3203	356.2292	360.3928	481.1784	491.7729	512.0598	543.7806	672.0399	779.3994	812.6779	857.3098	909.8983	928.6693	939.2029	941.9064	992.5305	1054.4562	1066.5685	1086.8451	1097.4523	1129.2024	1154.9359	1176.0893	1197.0732	1224.8814	1261.3212	1323.867	1358.8754	1363.272	1422.2189	1439.2488	1442.4144	1490.3593	1510.8785	1515.4787	2956.2715	3072.792	3107.6735	3133.5402	3148.1284	3205.2539	3222.6662	3244.8889	3759.5241	3805.3968
OCC1(CO1)C1(O)CC1	OC[C@]1(CO1)C1(O)CC1	
InChI=1S/C6H10O3/c7-3-6(4-9-6)5(8)1-2-5/h7-8H,1-4H2	InChI=1S/C6H10O3/c7-3-6(4-9-6)5(8)1-2-5/h7-8H,1-4H2/t6-/m0/s1
