19
gdb 6387	4.56844	0.95356	0.92261	4.4202	68.33	-0.2448	0.0337	0.2785	1303.839	0.163224	-402.235132	-402.224892	-402.223948	-402.271306	35.308	
C	 0.2949444721	 1.6524604571	-0.0858494172	-0.398744
C	 0.0365073054	 0.1416160412	-0.0474827774	 0.060888
C	 0.6091226256	-0.5570760365	-1.2802167506	-0.08728
O	-0.0143124648	-0.0121994446	-2.433168631	-0.421436
C	 0.5914748627	-0.5022358635	 1.2299381359	-0.326572
C	-0.1859901532	-0.0867348333	 2.4798789253	 0.41242
N	 0.5432765179	-0.0797745333	 3.6342932895	-0.522971
O	-1.371756894	 0.1814312418	 2.4620589605	-0.359812
H	 1.369779854	 1.8691311804	-0.0307388977	 0.095636
H	-0.0856510138	 2.0778889476	-1.0165075137	 0.134788
H	-0.1992102271	 2.1521188308	 0.7515864573	 0.127101
H	-1.0466754464	-0.0222512892	-0.0459056579	 0.112544
H	 1.7031041764	-0.4130807871	-1.3159292484	 0.076174
H	 0.4244136721	-1.6416657923	-1.207557162	 0.080045
H	 0.3898045826	-0.4073127978	-3.2106401806	 0.286173
H	 0.5129775333	-1.5964501824	 1.1642855027	 0.123328
H	 1.6589034402	-0.2747949111	 1.3488990793	 0.09196
H	 1.5347779665	-0.2381149793	 3.6479119778	 0.256235
H	 0.0792913706	 0.1771042917	 4.4900862383	 0.259523
31.0372	71.0709	103.7558	116.0529	159.2806	240.6864	240.9999	266.273	331.3579	363.2797	420.8439	503.7744	543.1385	610.0132	679.8381	848.427	854.7798	906.8715	931.3163	968.3257	1068.6912	1078.6314	1107.179	1128.2427	1170.6547	1220.2982	1248.5008	1275.2866	1286.0528	1329.3003	1381.572	1401.4145	1406.8088	1458.6093	1462.8753	1496.3201	1507.2812	1520.3981	1617.1663	1795.7005	2946.8856	2976.8371	3011.4385	3024.2991	3045.8906	3066.8341	3102.807	3135.7727	3604.5351	3743.2403	3836.1996
CC(CO)CC(N)=O	C[C@@H](CO)CC(=O)N	
InChI=1S/C5H11NO2/c1-4(3-7)2-5(6)8/h4,7H,2-3H2,1H3,(H2,6,8)	InChI=1S/C5H11NO2/c1-4(3-7)2-5(6)8/h4,7H,2-3H2,1H3,(H2,6,8)/t4-/m1/s1
