16
gdb 125612	5.96977	0.92089	0.80572	2.2873	76.26	-0.2494	0.0171	0.2665	1380.9748	0.124389	-396.935942	-396.927232	-396.926288	-396.970236	31.189	
C	-0.7474063512	 1.2734715913	-0.7288356855	-0.481511
C	-0.1401319636	 0.0709621186	-0.0891083248	 0.334068
N	 1.0641502763	-0.3787595261	-0.4146391948	-0.26599
N	 1.1963249152	-1.4569979974	 0.3975571504	-0.234081
C	 0.0979145281	-1.6107519407	 1.1592085726	 0.388064
C	-0.085136558	-2.7085105743	 2.1697409033	-0.481647
C	 1.0575903138	-3.6116546858	 2.253226484	 0.285752
C	 2.0111439401	-4.3411168724	 2.303011293	-0.428938
N	-0.7735404351	-0.6602087283	 0.8795943976	-0.360463
H	-0.0632358853	 1.6905141517	-1.4695660327	 0.139293
H	-1.6906912438	 1.015655261	-1.2204277436	 0.138178
H	-0.9710598881	 2.0392687296	 0.0204757869	 0.138177
H	 2.0294770298	-2.0229529439	 0.3822891715	 0.281282
H	-0.2798821984	-2.2545183327	 3.1492055768	 0.169475
H	-0.9927007952	-3.2703484954	 1.9166126585	 0.169476
H	 2.8423669552	-4.9996975651	 2.3650968568	 0.208868
33.2023	107.1697	114.8188	182.9784	259.7915	320.1826	337.2953	387.3457	479.3637	574.7223	629.4137	667.9237	687.2331	700.3807	719.3745	763.7742	950.9376	964.2969	1006.7036	1023.3894	1070.5784	1074.526	1161.4414	1212.3948	1277.4674	1303.7777	1372.7902	1409.0791	1455.5198	1477.5875	1478.2474	1482.6404	1542.4793	1581.1062	2242.9888	3032.5917	3046.4282	3059.6309	3102.292	3144.4767	3502.4085	3659.904
CC1=NNC(CC#C)=N1	Cc1n[nH]c(CC#C)n1	
InChI=1S/C6H7N3/c1-3-4-6-7-5(2)8-9-6/h1H,4H2,2H3,(H,7,8,9)	InChI=1S/C6H7N3/c1-3-4-6-7-5(2)8-9-6/h1H,4H2,2H3,(H,7,8,9)
