17
gdb 111726	2.18372	1.45852	1.06218	1.981	76.46	-0.2352	0.0086	0.2439	1166.5175	0.134237	-421.735665	-421.72694	-421.725996	-421.769347	32.645	
O	 0.0275679419	 1.3176459353	 0.3404956619	-0.418897
C	 0.0296567491	-0.0064385477	-0.1692743072	-0.089901
C	-1.3475596654	-0.6289376404	-0.111145793	-0.106455
C	-1.6505466534	-2.1102273692	-0.1409138855	-0.216291
C	-0.6487966092	-2.8872796406	 0.7032349914	-0.105272
O	-0.8227798057	-1.9848920096	 1.8288132338	-0.32325
C	-1.8818672194	-1.2974397217	 1.1364183561	 0.255729
C	-3.0497094183	-0.9215919698	 1.8512266924	 0.245472
C	-4.0330711527	-0.5888978781	 2.4595975318	-0.405298
H	-0.2087999125	 1.2655983699	 1.2727340308	 0.290006
H	 0.3544685111	 0.0746229612	-1.2120241914	 0.112759
H	 0.7563734267	-0.6352197914	 0.3599321028	 0.105138
H	-2.112163848	-0.0453703238	-0.6187176899	 0.11144
H	-2.3800443278	-2.5442329942	-0.8108494999	 0.116086
H	-1.0016350119	-3.8907180631	 0.9644016369	 0.120254
H	 0.3912718384	-2.9373600036	 0.3643093204	 0.112268
H	-4.901625803	-0.2992150831	 2.9977032885	 0.196214
68.0203	96.9886	159.724	211.8282	242.424	323.7651	353.6833	463.2525	490.1839	497.059	534.4358	572.3688	651.5061	692.1765	786.8583	818.6385	884.9917	942.4239	971.6477	984.69	1007.8033	1027.1628	1064.3478	1095.16	1116.6424	1156.3291	1176.9187	1206.5349	1269.2776	1311.3855	1337.0534	1387.4643	1415.6748	1458.3655	1495.3157	1521.537	2233.1256	3026.3783	3036.5793	3076.2588	3084.7342	3150.3895	3210.0509	3500.3625	3811.5842
OCC1C2COC12C#C	OC[C@H]1[C@H]2CO[C@@]12C#C	
InChI=1S/C7H8O2/c1-2-7-5(3-8)6(7)4-9-7/h1,5-6,8H,3-4H2	InChI=1S/C7H8O2/c1-2-7-5(3-8)6(7)4-9-7/h1,5-6,8H,3-4H2/t5-,6+,7-/m0/s1
