19
gdb 56889	3.04944	1.05401	0.91028	3.1577	75.98	-0.2452	0.0255	0.2707	1318.7803	0.158616	-419.190772	-419.181408	-419.180464	-419.22523	34.213	
C	-0.091824912	 1.5443121676	 0.0192110222	-0.392368
C	 0.0186585918	 0.0134462073	 0.0153926765	-0.098051
C	 0.9323213849	-0.4442113187	 1.0969782182	 0.257325
N	 1.5924219372	-0.8380010051	 1.9611428779	-0.333369
N	-1.2896527688	-0.6070712372	 0.1002618497	-0.086257
C	-2.0919724926	-0.5202670073	 1.346268111	-0.22226
C	-2.6451497541	-1.9356751333	 1.0273106599	 0.147537
O	-3.8989499229	-1.9657337942	 0.3931680882	-0.433848
C	-1.4169722868	-2.0838104199	 0.0899271645	-0.222045
H	 0.8927392806	 2.0043841222	-0.0930468233	 0.138424
H	-0.7337103217	 1.856769586	-0.8074371575	 0.133996
H	-0.5286795727	 1.8983185326	 0.9568945802	 0.140601
H	 0.4689690187	-0.3069197606	-0.9325788315	 0.130433
H	-1.4824557853	-0.5068571477	 2.2618252578	 0.115804
H	-2.8199898356	 0.2965050308	 1.3752195706	 0.108374
H	-2.7057544623	-2.6327536669	 1.862746971	 0.104056
H	-3.8674635372	-1.353784152	-0.351182053	 0.288156
H	-1.5958631417	-2.5245314897	-0.8965061722	 0.107434
H	-0.5790567294	-2.6008953539	 0.5802876097	 0.116057
73.5102	85.9364	136.4138	175.4572	220.5104	244.6933	322.6877	360.2726	386.1976	430.2964	448.9421	560.2523	581.8767	706.248	797.6829	851.4236	858.3973	922.7403	971.8383	1009.2179	1019.8671	1050.8448	1092.6315	1133.4024	1138.7261	1152.2862	1197.0385	1222.051	1247.6911	1278.9314	1316.7786	1325.3026	1333.1906	1361.5452	1406.4847	1441.2206	1487.6801	1492.7119	1497.6471	1516.9873	2339.3067	2994.5122	3002.1822	3035.4013	3053.6804	3072.2789	3077.4944	3122.8881	3130.8332	3139.9953	3798.2439
CC(C#N)N1CC(O)C1	C[C@@H](C#N)N1C[C@@H](O)C1	
InChI=1S/C6H10N2O/c1-5(2-7)8-3-6(9)4-8/h5-6,9H,3-4H2,1H3	InChI=1S/C6H10N2O/c1-5(2-7)8-3-6(9)4-8/h5-6,9H,3-4H2,1H3/t5-/m0/s1
