17
gdb 67635	2.42522	1.92126	1.60637	2.4683	70.71	-0.2202	0.0706	0.2908	912.3139	0.136006	-421.765331	-421.758065	-421.75712	-421.796417	30.018	
O	-0.1543712813	 1.3825846962	-0.082710229	-0.464363
C	-0.0063768849	 0.01667597	-0.0544801644	 0.3399
C	 0.8889477951	-0.8365149951	-1.001015419	-0.159996
C	 1.1375659726	-2.1286893856	-0.2425569391	-0.070258
C	 0.9260215031	-1.925323895	 1.2496298754	-0.236562
C	-0.1650733965	-0.8743817174	 1.1825546733	-0.238013
C	-1.0492120918	-1.0660212168	-0.0547843744	 0.339894
O	-2.4196999412	-0.969336326	-0.0833528193	-0.464364
C	-0.1627785035	-1.9284066506	-1.0013605155	-0.159993
H	 0.5422315784	 1.7771234862	 0.454659565	 0.284994
H	 1.4803093884	-0.46747729	-1.8278650445	 0.090739
H	 1.8708462889	-2.8348823978	-0.6169853369	 0.084609
H	 0.5998687076	-2.8444154858	 1.7511617007	 0.094655
H	 1.8321057134	-1.5650862286	 1.7515096221	 0.094657
H	-0.6297087153	-0.4270970851	 2.0541022925	 0.088367
H	-2.7879927985	-1.680416696	 0.4536831289	 0.284995
H	-0.5091510447	-2.5328958227	-1.828522586	 0.09074
183.2929	241.3924	270.1458	285.5827	357.1187	373.7898	414.7064	579.5202	593.9851	647.6386	723.7568	750.0788	762.0154	768.6359	834.036	865.9335	892.1592	936.623	954.0181	967.741	1004.9746	1025.8047	1041.5476	1067.2838	1071.2787	1170.7202	1186.0334	1202.2395	1212.3202	1253.5016	1268.4522	1302.4369	1314.9551	1358.7269	1365.1059	1494.7224	1530.6331	3026.2726	3063.942	3174.1724	3188.348	3202.8471	3213.9085	3778.6731	3778.7269
OC12C3C4CC1C2(O)C34	O[C@@]12[C@H]3[C@H]4C[C@@H]1[C@]2(O)[C@@H]34	
InChI=1S/C7H8O2/c8-6-3-1-2-4(6)5(2)7(3,6)9/h2-5,8-9H,1H2	InChI=1S/C7H8O2/c8-6-3-1-2-4(6)5(2)7(3,6)9/h2-5,8-9H,1H2/t2-,3+,4+,5-,6-,7+
