19
gdb 99060	4.10564	0.7457	0.69763	5.1317	78.05	-0.2641	0.0144	0.2785	1643.7532	0.157868	-419.264801	-419.254215	-419.25327	-419.301801	36.256	
C	 0.0181984946	 1.4636603598	 0.137959218	-0.336685
N	 0.2284337538	 0.0318154545	 0.0290080514	-0.31736
C	 0.5023593966	-0.5851196676	-1.1525118112	 0.428799
O	 0.6298357345	 0.0115731776	-2.2087105202	-0.374779
C	 0.6103350214	-2.1099608564	-1.0626607296	-0.334295
C	 1.4104057418	-2.6821380403	-2.25032131	-0.123605
C	 2.9088511156	-2.3307074803	-2.181671799	-0.398911
C	 1.2187441531	-4.1329796669	-2.3292329293	 0.26017
N	 1.0722179976	-5.2785521987	-2.3789298561	-0.326403
H	 0.7233172186	 1.9132422639	 0.8450021261	 0.130224
H	 0.1809314611	 1.892150021	-0.8512654571	 0.174832
H	-1.0019713845	 1.6943966	 0.4641086517	 0.131189
H	 0.1330712852	-0.534184803	 0.8560438507	 0.249616
H	 1.0629685798	-2.4172118591	-0.1132278693	 0.120127
H	-0.4075153992	-2.5170222813	-1.0733459301	 0.149251
H	 0.9935597906	-2.2342673332	-3.158909795	 0.154032
H	 3.3633517378	-2.7310675779	-1.27035666	 0.127029
H	 3.4438241153	-2.7458058408	-3.038969791	 0.138578
H	 3.0231332061	-1.2451123115	-2.1941595098	 0.148189
33.8111	63.4849	86.122	117.0034	157.073	192.094	229.4923	268.7404	306.6317	349.3002	406.2091	457.8521	545.713	564.0379	624.5871	706.8954	832.9432	897.3058	907.4941	943.422	1043.0681	1090.4914	1093.8267	1140.2991	1155.3231	1172.013	1215.5619	1259.1491	1289.4516	1342.6959	1377.5313	1408.4013	1440.2704	1461.5266	1493.8225	1497.0252	1499.9437	1504.4424	1564.956	1773.7969	2356.3928	3031.9936	3038.9886	3050.033	3063.945	3083.2509	3086.0653	3124.9815	3143.7732	3158.2222	3644.4438
CNC(=O)CC(C)C#N	CNC(=O)C[C@@H](C)C#N	
InChI=1S/C6H10N2O/c1-5(4-7)3-6(9)8-2/h5H,3H2,1-2H3,(H,8,9)	InChI=1S/C6H10N2O/c1-5(4-7)3-6(9)8-2/h5H,3H2,1-2H3,(H,8,9)/t5-/m1/s1
