19
gdb 119867	3.25753	0.96519	0.79747	2.9319	79.41	-0.24	-0.0429	0.1971	1443.9983	0.159157	-423.066592	-423.057389	-423.056444	-423.101578	33.102	
O	 0.1047941375	 1.436043665	-0.0423818495	-0.414927
C	 0.0649431642	 0.0199437842	-0.0507749788	-0.061733
C	-1.3642660473	-0.5236675647	 0.1391776699	-0.32794
C	-1.4117277156	-2.0191578353	 0.1160402787	 0.212018
C	-1.5754011612	-2.885122067	 1.1269272809	-0.161823
C	-1.5527135511	-4.332717405	 0.7034655211	-0.264449
C	-1.3377715455	-4.2727108478	-0.8211696055	-0.326389
C	-1.2558964854	-2.777574499	-1.1549373266	 0.336049
O	-1.0973690182	-2.296057336	-2.2551849904	-0.340273
H	-0.3197102234	 1.7453485454	-0.8489500651	 0.284626
H	 0.4923310932	-0.3943108326	-0.9738416766	 0.114574
H	 0.6956254301	-0.3036155316	 0.7840853979	 0.108673
H	-1.7719647806	-0.1302420057	 1.0754324502	 0.108422
H	-1.9831486813	-0.1412890622	-0.6831601306	 0.110405
H	-1.7200945316	-2.6000605927	 2.1648236758	 0.109538
H	-0.7558330519	-4.8806047914	 1.2210643467	 0.121606
H	-2.4885011121	-4.8352948745	 0.9769513839	 0.12157
H	-0.4169876425	-4.7665566634	-1.1452262308	 0.135102
H	-2.1541968175	-4.7278788358	-1.3892412114	 0.134951
58.6109	85.2618	90.9734	122.4682	250.2078	271.9878	301.9276	352.4939	399.4004	500.7354	610.8745	659.3062	715.3382	761.4077	796.4277	808.3494	890.6559	927.6984	1004.3411	1020.2093	1026.4326	1046.7598	1066.9064	1082.1099	1151.5102	1160.237	1213.5166	1231.2081	1270.7698	1297.5607	1313.9065	1322.7743	1360.5671	1401.5649	1412.6747	1450.4539	1474.3564	1483.286	1511.3243	1693.4687	1800.9447	3016.111	3025.1663	3030.0824	3054.0637	3066.9147	3071.0648	3094.0006	3106.5633	3179.7338	3817.1418
OCCC1=CCCC1=O	OCCC1=CCCC1=O	
InChI=1S/C7H10O2/c8-5-4-6-2-1-3-7(6)9/h2,8H,1,3-5H2	InChI=1S/C7H10O2/c8-5-4-6-2-1-3-7(6)9/h2,8H,1,3-5H2
