23
gdb 107747	2.68001	1.36684	1.2137	0.4908	89.47	-0.231	0.0826	0.3137	1194.7929	0.205889	-351.121417	-351.112452	-351.111508	-351.154668	35.261	
C	 0.0138786358	 1.5877883667	 0.0350742875	-0.380074
C	 0.0289777236	 0.054132094	-0.0196949451	-0.302726
C	-1.3534411718	-0.551600659	-0.0021957447	 0.298842
C	-2.2758787448	-0.4388466382	 1.2500608738	-0.272285
C	-2.9178596853	-1.7353813073	 0.7713516114	-0.114913
C	-2.9610756615	-1.680934125	-0.7684502647	-0.114896
C	-2.3446164507	-0.3524150049	-1.1894877855	-0.272294
C	-1.7068120054	-2.1135579988	-0.0474839978	 0.295986
C	-0.8682914553	-3.3471582674	-0.1145709176	-0.528829
H	 1.0303043463	 1.9928485541	 0.02077306	 0.110666
H	-0.5255118188	 2.0095775503	-0.8195278318	 0.120119
H	-0.4757295635	 1.947004725	 0.9463590341	 0.120119
H	 0.5577544495	-0.273234657	-0.9250454534	 0.092787
H	 0.6071959347	-0.3353931624	 0.8290495788	 0.092788
H	-1.7125248939	-0.589808644	 2.1767547141	 0.089876
H	-2.8969151803	 0.4605639742	 1.3427925323	 0.082838
H	-3.575035936	-2.4010239388	 1.3178889094	 0.076508
H	-3.6491038936	-2.307662019	-1.3229724063	 0.076507
H	-2.9681842111	 0.5500035133	-1.183269214	 0.082856
H	-1.8345507602	-0.4362428302	-2.1547421769	 0.089868
H	-0.2467054052	-3.3699192961	-1.0178020405	 0.117749
H	-0.1986743858	-3.4334623296	 0.7496518376	 0.117746
H	-1.5009994565	-4.2419410698	-0.1295604406	 0.120759
91.0242	135.8018	186.021	207.22	223.3249	245.7255	339.2878	373.2332	457.3715	471.71	576.93	667.1085	712.4632	737.9565	788.7066	842.4246	867.5325	900.8552	907.2324	952.9607	965.1303	996.183	1005.3947	1009.8654	1018.3971	1060.8079	1096.7482	1105.4115	1127.0305	1134.2462	1168.0953	1200.8976	1221.5932	1245.9839	1249.8263	1280.4596	1322.0027	1322.8704	1375.7362	1409.8989	1411.0318	1454.7244	1483.8538	1484.9016	1490.2933	1499.0583	1500.3666	1507.3798	1512.4906	3008.5342	3015.0902	3017.3318	3025.0471	3035.0444	3039.0414	3071.0039	3076.9151	3079.8049	3083.9841	3102.7356	3104.9669	3179.5835	3189.9717
CCC12CC3C(C1)C23C	CC[C@@]12C[C@H]3[C@@H](C1)[C@@]23C	
InChI=1S/C9H14/c1-3-9-4-6-7(5-9)8(6,9)2/h6-7H,3-5H2,1-2H3	InChI=1S/C9H14/c1-3-9-4-6-7(5-9)8(6,9)2/h6-7H,3-5H2,1-2H3/t6-,7+,8-,9+
