23
gdb 105055	2.58862	1.25449	1.10996	1.6829	84.83	-0.2604	0.0908	0.3513	1265.4083	0.203933	-388.267887	-388.257943	-388.256999	-388.302594	37.882	
C	-0.2811393219	 1.5599127537	-0.0619906242	-0.399537
C	-0.3907997345	 0.0642846223	-0.3692445147	-0.253955
C	 0.7065048784	-0.506496603	-1.2600615929	 0.337566
C	 1.3829531068	 0.3191501316	-2.2736901256	-0.228645
O	 2.0192253369	 0.0246484899	-1.0234953139	-0.274815
C	 0.6548972226	-2.0079295501	-1.4624453753	 0.295702
C	-0.5851567498	-2.5156616906	-2.1779950416	-0.471247
C	 1.954519103	-2.7337661741	-1.7048558307	-0.311245
C	 1.2526806879	-2.8704287107	-0.3745203038	-0.300394
H	 0.7144015107	 1.804400059	 0.3164388224	 0.13832
H	-0.4687645053	 2.1740816536	-0.9484452781	 0.113789
H	-1.0178843557	 1.8466257554	 0.6938567859	 0.111606
H	-0.3722206139	-0.5037198355	 0.569855502	 0.108582
H	-1.3618075292	-0.1500680372	-0.8309262378	 0.105523
H	 1.8257249443	-0.1682793601	-3.1411462896	 0.110306
H	 1.1093074464	 1.3621059612	-2.4157469837	 0.112474
H	-0.6970912158	-2.044325718	-3.1616047257	 0.115039
H	-0.5219159084	-3.5969136926	-2.3331589527	 0.115759
H	-1.4993787907	-2.3205135407	-1.6076292518	 0.119194
H	 1.9388847638	-3.5783512775	-2.3856458454	 0.102291
H	 2.8634124089	-2.1448506496	-1.720035328	 0.128404
H	 1.7077215364	-2.3717051859	 0.4745821861	 0.119513
H	 0.7615544991	-3.8083908611	-0.1371615608	 0.10577
61.5928	72.5163	188.9377	190.5833	221.698	253.3229	289.0222	304.5649	335.7574	367.2577	446.4818	488.1363	524.0489	620.9152	774.2287	791.6409	799.3885	867.403	877.7631	902.996	923.4701	953.4964	964.7478	1013.8287	1042.6956	1068.0574	1078.512	1090.7352	1118.8623	1129.8085	1144.842	1155.3565	1172.6583	1196.9784	1295.6756	1309.4621	1343.9097	1372.163	1398.0562	1416.3995	1417.0491	1455.8924	1483.299	1493.0669	1494.0012	1497.6125	1507.4295	1511.3955	1529.0813	3024.8978	3027.214	3044.0867	3061.3048	3087.6279	3089.8763	3102.66	3107.0738	3128.0291	3128.6665	3136.3482	3178.036	3212.1456	3231.5012
CCC1(CO1)C1(C)CC1	CC[C@]1(CO1)C1(C)CC1	
InChI=1S/C8H14O/c1-3-8(6-9-8)7(2)4-5-7/h3-6H2,1-2H3	InChI=1S/C8H14O/c1-3-8(6-9-8)7(2)4-5-7/h3-6H2,1-2H3/t8-/m0/s1
