20
gdb 67596	2.73816	1.84099	1.77009	1.6623	80.37	-0.2187	0.0932	0.3119	924.6368	0.17444	-366.007601	-366.000766	-365.999822	-366.038298	28.943	
C	-0.0096533243	 1.4867594142	-0.0038418956	-0.511194
C	-0.0027052219	-0.0190772101	-0.0011345625	 0.357901
C	 0.5680400602	-0.8829899659	-1.1164702062	-0.112519
C	 1.3558113508	-2.0407279653	-0.5208703169	-0.249849
C	 0.9080274597	-2.084710953	 0.9326415633	-0.039025
C	 0.216574518	-0.8070164924	 1.2812381483	-0.122455
N	-0.5382015242	-2.0758978537	 1.2210256197	-0.120505
C	-1.403820298	-2.0409494495	 0.0276500252	-0.177893
C	-0.9183204582	-0.8916510844	-0.840815138	-0.120725
H	 0.9469626096	 1.8932786206	 0.3445307611	 0.11918
H	-0.1846543248	 1.8765659867	-1.0114058681	 0.11706
H	-0.7963867466	 1.8860478492	 0.6468343566	 0.120071
H	 0.9135930207	-0.4259860121	-2.0381973477	 0.07809
H	 1.175588042	-2.9903256108	-1.0410265239	 0.103811
H	 2.4340546345	-1.8476839294	-0.5683540909	 0.102683
H	 1.5009989418	-2.6502825879	 1.6469016954	 0.084878
H	 0.2914967986	-0.3007733965	 2.2379830282	 0.08222
H	-1.3710590188	-3.0127575164	-0.4792848172	 0.104151
H	-2.4360367314	-1.8761904239	 0.3568100823	 0.104853
H	-1.5884876376	-0.4496341996	-1.5715777127	 0.079265
194.5475	217.8731	278.8296	286.171	434.6705	475.4821	554.0189	633.5532	692.284	737.8166	740.8843	767.3509	804.9994	858.7249	870.1926	904.4823	935.1937	958.7898	973.4783	1018.94	1034.7165	1051.4129	1072.8115	1091.6121	1096.1966	1104.9798	1124.6138	1187.4433	1208.7311	1224.1355	1246.3604	1270.7008	1291.2333	1324.2727	1326.3137	1340.4177	1384.8764	1418.5555	1453.7492	1486.0219	1489.8541	1501.5193	1506.0635	3022.814	3023.3481	3031.2127	3058.5387	3065.7434	3080.1538	3098.7898	3135.5015	3151.9243	3162.0988	3165.4972
CC12C3CC4C1N4CC23	C[C@@]12[C@H]3C[C@H]4[C@@H]1N4C[C@@H]23	
InChI=1S/C8H11N/c1-8-4-2-6-7(8)9(6)3-5(4)8/h4-7H,2-3H2,1H3	InChI=1S/C8H11N/c1-8-4-2-6-7(8)9(6)3-5(4)8/h4-7H,2-3H2,1H3/t4-,5+,6-,7-,8-,9?/m0/s1
