18
gdb 6885	2.55392	1.57045	1.29734	2.817	70.65	-0.2406	-0.0177	0.2229	1034.057	0.150716	-384.940114	-384.93104	-384.930096	-384.973332	33.329	
C	-0.2627484904	 1.0288184831	-1.8082852438	-0.422633
C	-0.0638361043	-0.1530707311	-0.8835473679	-0.059344
C	 1.3232599488	-0.6363500782	-0.4126990314	-0.195651
C	 2.5720763287	 0.0706269908	-0.7513518016	 0.154283
O	 3.6468313279	-0.4742476918	-0.8607050882	-0.277301
C	 0.2728173805	-0.0443835725	 0.5585376667	 0.379202
C	 0.5041711242	 1.272888886	 1.2635852625	-0.459249
O	-0.3884141501	-0.9919629431	 1.3496245059	-0.451719
H	 0.3605951043	 1.8878353467	-1.5505440282	 0.12231
H	-0.0322311217	 0.7535442701	-2.842404149	 0.131923
H	-1.3060498354	 1.3599160192	-1.7755975365	 0.129094
H	-0.7241995797	-0.9896835226	-1.0941065542	 0.113334
H	 1.4445506327	-1.711473984	-0.3345177803	 0.108836
H	 2.4829762255	 1.169217499	-0.9039877748	 0.061122
H	 0.9823863899	 2.0172785239	 0.6242846045	 0.125656
H	-0.4522239663	 1.6766037317	 1.6104364791	 0.134288
H	 1.1493032024	 1.1312264932	 2.1388595537	 0.120709
H	 0.1562005729	-1.1673007606	 2.1258735535	 0.285139
88.7261	160.4364	188.2225	213.772	220.7919	260.675	272.2422	342.5271	395.3337	432.843	462.606	488.9594	532.0093	668.1789	769.6028	910.8623	932.3239	977.7557	1020.4405	1033.7442	1051.0045	1081.8733	1127.2014	1133.2469	1174.1991	1225.4438	1273.0309	1305.2986	1360.2805	1416.657	1420.8376	1443.4008	1456.216	1485.0386	1492.48	1500.7037	1523.521	1798.0845	2874.9046	3033.4732	3041.3064	3095.4212	3100.4301	3117.7969	3133.7642	3153.2168	3177.0099	3788.6999
CC1C(C=O)C1(C)O	C[C@H]1[C@@H](C=O)[C@]1(C)O	
InChI=1S/C6H10O2/c1-4-5(3-7)6(4,2)8/h3-5,8H,1-2H3	InChI=1S/C6H10O2/c1-4-5(3-7)6(4,2)8/h3-5,8H,1-2H3/t4-,5+,6+/m0/s1
