20
gdb 51314	3.58071	1.04018	0.83779	3.0647	86.	-0.2129	0.0022	0.215	1378.5979	0.173241	-403.201896	-403.193364	-403.19242	-403.235783	32.286	
O	 1.8446172228	 4.2069961332	-0.0764118754	-0.31624
C	 1.0050344324	 3.3396596291	 0.0214054185	 0.150168
N	 1.2065083984	 1.986511558	 0.0229563337	-0.367959
C	 2.4045539883	 1.246630244	-0.1002294825	 0.395569
C	 2.3319126394	-0.0843755288	-0.2370872818	-0.184803
C	 3.5300827855	-0.9799996787	-0.3997616745	-0.232967
C	 4.7977566121	-0.1854591161	-0.740102845	-0.195863
C	 4.9046410162	 1.0517491696	 0.1555494922	-0.212518
C	 3.7136716821	 1.999142344	-0.0485883919	-0.271216
H	-0.0759930183	 3.5634001652	 0.1284389293	 0.076802
H	 0.3633924356	 1.4318791586	 0.0663847825	 0.246163
H	 1.3539062639	-0.563902824	-0.2398473543	 0.064439
H	 3.6898283209	-1.5617447632	 0.5214097329	 0.104484
H	 3.3278501402	-1.7241557722	-1.1807776408	 0.100703
H	 5.6829562257	-0.8211649259	-0.6331237831	 0.091521
H	 4.7574837303	 0.1304400371	-1.7904847013	 0.099236
H	 4.939113414	 0.7328756272	 1.2055547858	 0.098443
H	 5.8354509469	 1.5946266244	-0.0381057059	 0.096555
H	 3.8323655484	 2.5803536363	-0.9710280827	 0.126318
H	 3.6749909852	 2.7459186321	 0.7477918343	 0.131164
35.6921	121.8172	188.3874	216.6848	275.9197	332.7972	341.1964	423.6082	466.9155	528.2483	609.0004	622.0042	768.4198	813.8421	830.9994	851.3966	866.7471	926.4514	951.325	975.108	1020.3224	1058.8379	1094.8038	1101.0595	1123.0537	1163.0956	1197.9032	1251.7939	1267.8	1297.4207	1333.7587	1366.8648	1374.7503	1380.9076	1406.1465	1450.2864	1462.1559	1480.703	1489.9185	1499.8881	1531.7091	1727.0258	1809.3011	2924.3853	2985.3517	3019.2538	3024.4221	3037.369	3041.0783	3072.9926	3076.4213	3101.0182	3126.4864	3598.9689
O=CNC1=CCCCC1	O=CNC1=CCCCC1	
InChI=1S/C7H11NO/c9-6-8-7-4-2-1-3-5-7/h4,6H,1-3,5H2,(H,8,9)	InChI=1S/C7H11NO/c9-6-8-7-4-2-1-3-5-7/h4,6H,1-3,5H2,(H,8,9)
