14
gdb 25528	4.58023	0.89285	0.80322	2.738	66.59	-0.2281	-0.0415	0.1866	1354.2562	0.099509	-473.845431	-473.837372	-473.836428	-473.879556	28.371	
N	-0.0170132801	 1.2512814155	 0.1259516422	-0.573928
C	 0.0606585979	 0.0028402308	 0.0381564232	 0.500322
O	 1.1810443655	-0.781138759	-0.1077558633	-0.214776
C	 0.7484507224	-2.0946622448	-0.1463137527	-0.147483
C	-0.5776394183	-2.1234502499	-0.041340235	 0.299511
C	-1.5930551871	-3.2029844599	 0.0032467745	-0.393438
C	-2.2129756538	-3.3713724928	 1.3924567563	 0.158575
O	-2.4464940529	-4.440936229	 1.8856158911	-0.223871
O	-1.0327589825	-0.8173667898	 0.0759925446	-0.22912
H	 0.9051574643	 1.6755636643	 0.0754884269	 0.2407
H	 1.4964244101	-2.8595189187	-0.2552259244	 0.169064
H	-2.4108320311	-2.958970936	-0.6903818033	 0.157186
H	-1.1610983478	-4.1575628922	-0.3041153761	 0.148246
H	-2.4445801767	-2.4190143385	 1.9150010861	 0.109012
47.991	62.7823	120.1613	199.1402	279.5789	367.662	433.6012	498.2717	606.0659	679.2479	727.355	746.7624	757.3842	778.5484	803.9419	906.531	991.9746	995.8559	1034.8534	1047.4194	1101.8883	1188.7555	1214.2883	1249.3645	1314.6744	1356.365	1419.5138	1440.8019	1739.3535	1817.7259	1840.9672	2913.0568	3017.5931	3123.5389	3305.4094	3551.195
N=C1OC=C(CC=O)O1	[NH][C@@H]1OC=C(CC=O)O1	
InChI=1S/C5H5NO3/c6-5-8-3-4(9-5)1-2-7/h2-3,6H,1H2	InChI=1S/C5H6NO3/c6-5-8-3-4(9-5)1-2-7/h2-3,5-6H,1H2/t5-/m1/s1
