23
gdb 120852	2.89729	0.70058	0.60724	1.9642	83.94	-0.2415	0.0822	0.3237	1915.0717	0.203452	-425.399642	-425.388748	-425.387804	-425.436834	38.615	
C	-0.0128618371	 1.5019951835	-0.1604966255	-0.385237
C	-0.2331929511	 0.0378447703	-0.4989111941	-0.03024
O	 1.0336760176	-0.5729347603	-0.6885385499	-0.245473
C	 0.9551823401	-1.9263330704	-0.998430898	 0.115161
C	 0.7024310649	-2.3469316784	-2.4273719764	-0.325933
C	 2.077871312	-2.5131595158	-1.7991865695	-0.051042
C	 3.2395839557	-1.656570917	-2.2546129623	-0.190077
C	 3.8947074336	-2.1907993648	-3.5230622439	-0.064976
O	 4.9847935498	-1.3381124668	-3.8420342697	-0.421675
H	 0.5851416642	 1.6002645388	 0.7499072771	 0.127436
H	 0.5163545691	 2.0083270972	-0.9728568911	 0.126796
H	-0.9716514406	 2.0051065731	-0.0033904523	 0.113726
H	-0.7765696623	-0.4708498768	 0.3144804889	 0.085712
H	-0.8430166887	-0.0678947959	-1.4096432947	 0.089966
H	 0.5185297369	-2.5380299788	-0.2065852313	 0.080392
H	 0.0947638195	-3.2233065742	-2.6252673966	 0.107212
H	 0.5940063341	-1.5449764028	-3.1508328616	 0.116132
H	 2.3478823928	-3.5311374791	-1.52698137	 0.082926
H	 2.9031760139	-0.6306775411	-2.4276721383	 0.115866
H	 4.000132144	-1.6050360454	-1.4661143997	 0.106269
H	 4.2350156777	-3.2271872629	-3.3595523041	 0.07837
H	 3.1549601794	-2.2185244458	-4.3392058397	 0.08504
H	 5.3964352945	-1.6652071364	-4.6469353372	 0.283649
55.3041	72.7299	82.0898	112.4649	116.5972	183.376	245.6816	259.9033	274.4581	312.5708	371.2196	465.1574	495.9137	583.9782	774.5336	799.4776	818.7721	835.8037	882.6689	926.9231	962.845	1003.3453	1028.4621	1048.6039	1060.6577	1082.5179	1100.2935	1137.8323	1151.1999	1180.7249	1185.975	1192.8387	1238.5379	1244.9809	1253.8576	1294.5801	1306.5197	1325.0893	1373.6252	1403.4197	1415.2085	1439.0024	1462.4879	1483.5326	1485.9792	1496.7255	1499.9361	1527.9018	1529.3023	2957.5087	2966.8246	2986.3827	2998.8206	3042.1573	3044.9531	3077.8133	3099.2893	3119.2127	3121.5179	3127.119	3131.5519	3215.719	3830.5569
CCOC1CC1CCO	CCO[C@H]1C[C@H]1CCO	
InChI=1S/C7H14O2/c1-2-9-7-5-6(7)3-4-8/h6-8H,2-5H2,1H3	InChI=1S/C7H14O2/c1-2-9-7-5-6(7)3-4-8/h6-8H,2-5H2,1H3/t6-,7+/m1/s1
