17
gdb 36226	3.68179	1.0719	0.9625	4.4116	78.1	-0.2321	-0.0086	0.2235	1237.9475	0.137351	-380.863823	-380.856047	-380.855103	-380.896834	29.285	
N	-0.1058501261	-1.0492318757	 0.5783416384	-0.307685
C	-0.0531861981	 0.0554889759	 0.2443857524	 0.265347
C	 0.0262871963	 1.4607954207	-0.1679814725	-0.451769
C	 1.4359694864	 1.9923911652	-0.1437379905	 0.348739
C	 2.1023017177	 2.5582028906	-1.1511082215	-0.209409
C	 3.4945985803	 2.9516974766	-0.7133531971	-0.200353
N	 3.5833757787	 2.6033569796	 0.7242103103	-0.095152
C	 2.6631347268	 3.346413748	 1.58865912	-0.238153
C	 2.2835063914	 1.9932079399	 1.0874300111	-0.128907
H	-0.4005248173	 1.5555065219	-1.1714143503	 0.160335
H	-0.6153293278	 2.0409506488	 0.5090429603	 0.162947
H	 1.7155215546	 2.7356706963	-2.1483554935	 0.103864
H	 4.2639846027	 2.3961418049	-1.2656845478	 0.123456
H	 3.7064596156	 4.0181788868	-0.8612867961	 0.118487
H	 3.0137594172	 3.4738989264	 2.6091999182	 0.122096
H	 2.124947337	 4.1969707457	 1.173904888	 0.109197
H	 2.2900575245	 1.1265539583	 1.7431855708	 0.11696
50.8334	101.304	210.4841	283.6995	320.0152	385.9062	397.4723	461.9632	586.1051	679.5524	723.273	765.7554	825.5518	843.1546	865.4407	928.8625	940.3222	964.9687	997.3989	1031.6543	1045.2422	1095.4563	1110.8953	1152.2828	1186.7976	1210.1727	1215.0524	1262.3844	1289.0254	1329.2369	1340.3377	1383.6476	1454.3207	1484.1589	1497.7856	1709.6541	2363.4935	3015.5606	3023.7928	3047.8911	3085.4413	3093.6932	3147.1205	3185.7158	3197.1558
N#CCC1=CCN2CC12	N#CCC1=CCN2C[C@@H]12	
InChI=1S/C7H8N2/c8-3-1-6-2-4-9-5-7(6)9/h2,7H,1,4-5H2	InChI=1S/C7H8N2/c8-3-1-6-2-4-9-5-7(6)9/h2,7H,1,4-5H2/t7-,9?/m0/s1
