18
gdb 65720	3.7883	1.07566	0.99589	2.5464	73.77	-0.2628	0.0174	0.2801	1226.5896	0.145723	-439.039218	-439.030607	-439.029663	-439.072604	32.284	
C	-0.0060117799	 1.622466766	 0.1274114814	-0.452176
C	 0.0095474785	 0.1089742391	 0.0099256209	 0.389617
C	 1.0539759642	-0.5647632183	-0.9684676926	-0.320336
C	 1.6539164675	-1.2803884967	 0.2472177451	 0.037438
O	 2.0533154113	-0.263920332	 1.179200414	-0.246764
C	 0.684257797	-0.6668825284	 1.1628645203	-0.022126
O	-1.3075743776	-0.4350478153	-0.1255503102	-0.242966
C	-1.9665865264	-0.2161336294	-1.2809947644	 0.112672
N	-3.1561604113	-0.6191255771	-1.4096290055	-0.440617
H	 0.9925255333	 1.9740482737	 0.3965379947	 0.145663
H	-0.2956724936	 2.0985200534	-0.8148094271	 0.11806
H	-0.7152450185	 1.9328733508	 0.9006886284	 0.133922
H	 0.5628674223	-1.2470615504	-1.6650566249	 0.123089
H	 1.7332170066	 0.1001450603	-1.5070808532	 0.112771
H	 2.1706843138	-2.2307379994	 0.2987602032	 0.113006
H	 0.229010446	-1.0115819994	 2.0835533164	 0.116163
H	-1.3746712324	 0.3087185779	-2.0412704535	 0.093802
H	-3.5013730608	-0.3864254649	-2.3386124628	 0.228782
72.5553	143.9005	157.0558	198.6551	239.9243	291.1541	364.8325	381.5924	444.9058	474.9853	603.2526	716.2967	798.2112	820.7712	837.559	864.956	880.0876	925.6864	951.4489	988.9889	999.9285	1044.2075	1049.9687	1093.117	1124.3343	1165.6214	1174.0818	1225.8625	1237.2844	1258.9284	1279.6232	1307.8142	1385.9012	1407.6454	1422.5859	1463.0416	1489.0884	1494.8207	1741.16	3037.2234	3043.7697	3070.2492	3110.4527	3132.9904	3135.7906	3190.974	3205.9896	3515.7632
CC1(CC2OC12)OC=N	C[C@]1(C[C@H]2O[C@@H]12)O[CH][NH]	
InChI=1S/C6H9NO2/c1-6(8-3-7)2-4-5(6)9-4/h3-5,7H,2H2,1H3	InChI=1S/C6H9NO2/c1-6(8-3-7)2-4-5(6)9-4/h3-5,7H,2H2,1H3/t4-,5-,6-/m1/s1
