20
gdb 121320	2.66704	1.16491	0.95442	2.0321	77.36	-0.2498	0.0185	0.2683	1322.3989	0.171361	-440.301619	-440.292488	-440.291544	-440.336228	33.2	
C	 0.0846044505	 1.5105580987	 0.4863069949	-0.3854
C	-0.0822423259	 0.0204871292	 0.2454831867	-0.044442
O	 0.8391703173	-0.665845825	 1.0887408993	-0.272879
C	 0.8039759347	-2.077970204	 0.9712468098	 0.043108
C	 1.9647927051	-2.6429199894	 1.7880876356	-0.260157
C	 1.3561670323	-2.70586184	 3.1940827703	-0.079585
O	-0.0443893059	-2.974528436	 2.9835697652	-0.243417
C	-0.4044670489	-2.6461204077	 1.7106298028	 0.411434
N	-1.5674044863	-2.7682691942	 1.2300588775	-0.540861
H	 1.1092089929	 1.8269182864	 0.2699574207	 0.122021
H	-0.5966241157	 2.0749597949	-0.1574259814	 0.117376
H	-0.1382931963	 1.7598401724	 1.5277880865	 0.125233
H	-1.1081710533	-0.3045503031	 0.4577918233	 0.125046
H	 0.1290740409	-0.2319078275	-0.8065470854	 0.086862
H	 0.7998425953	-2.3834487274	-0.0817651474	 0.089484
H	 2.2164268128	-3.6474056038	 1.4352956906	 0.117297
H	 2.8502479886	-2.0088957306	 1.7271510925	 0.122588
H	 1.7573556876	-3.5058850696	 3.8197235263	 0.119042
H	 1.4561925013	-1.7515183292	 3.7217705034	 0.126222
H	-2.2111180872	-3.1292796242	 1.937949609	 0.221026
63.5622	79.2237	125.2895	175.3668	218.5928	239.0545	267.5501	376.2435	425.1391	458.668	670.621	675.3474	703.029	818.8781	842.9503	886.1601	902.2101	908.6664	931.5872	969.8411	1008.32	1045.4066	1090.1941	1112.54	1137.792	1157.5267	1189.2794	1215.0328	1231.5651	1288.3028	1301.9311	1303.0315	1341.5742	1353.4744	1401.5161	1410.6794	1438.2368	1475.7199	1483.5486	1501.0401	1520.3337	1533.0809	1768.5872	2974.6551	3039.4621	3043.545	3050.7802	3051.8881	3069.6459	3111.8135	3118.7575	3119.0927	3136.5165	3455.7499
CCOC1CCOC1=N	CCO[C@H]1CCO[C]1[NH]	
InChI=1S/C6H11NO2/c1-2-8-5-3-4-9-6(5)7/h5,7H,2-4H2,1H3	InChI=1S/C6H11NO2/c1-2-8-5-3-4-9-6(5)7/h5,7H,2-4H2,1H3/t5-/m0/s1
