17
gdb 31284	2.41604	1.54301	0.9999	2.3149	71.42	-0.2154	0.0121	0.2274	1152.3965	0.136738	-458.978487	-458.970146	-458.969202	-459.011761	31.115	
O	 0.2843988915	 0.7607278163	-1.0440927979	-0.426266
C	-0.2897951648	 0.4033954547	 0.1894881615	-0.161893
C	-1.4807036888	-0.4965645188	 0.0388213792	 0.246576
C	-2.1742998624	-0.9757220809	-1.0376579567	 0.174527
C	-1.892961141	-0.7399042957	-2.487800453	-0.232484
O	-1.9220787961	 0.6771897747	-2.7507716444	-0.415147
C	-3.2549438996	-1.7521664845	-0.4914823524	-0.270455
C	-3.1341759677	-1.6874393009	 0.8560568229	-0.023332
O	-2.0604662077	-0.9193247121	 1.1939485565	-0.177636
H	-0.4295469307	 1.0774029355	-1.6221567823	 0.291387
H	 0.4879366988	-0.1115642993	 0.7682705858	 0.125212
H	-0.5833683637	 1.2851720077	 0.7858720656	 0.105892
H	-0.9113653526	-1.1443662196	-2.765886954	 0.120299
H	-2.6547661465	-1.2478045381	-3.0935025847	 0.104276
H	-1.6856397682	 0.8086057806	-3.6759382963	 0.293445
H	-4.012137186	-2.2839784339	-1.0472203897	 0.110486
H	-3.6903189243	-2.1032110459	 1.6793982696	 0.135113
64.0413	135.8649	195.6664	219.5395	228.5099	314.2579	386.7381	423.305	458.6351	619.3638	651.3572	672.0486	715.383	725.6168	742.9023	822.7107	910.3664	989.1337	1013.5202	1022.7897	1071.2728	1105.9638	1123.122	1173.1873	1220.8361	1232.4146	1240.1239	1265.9795	1289.6885	1378.8986	1432.2561	1465.2525	1478.6582	1502.9678	1509.135	1548.9748	1645.5553	2948.2353	3008.6058	3035.3609	3045.0136	3248.8283	3287.1677	3648.9738	3803.0323
OCC1=C(CO)C=CO1	OCc1c(CO)cco1	
InChI=1S/C6H8O3/c7-3-5-1-2-9-6(5)4-8/h1-2,7-8H,3-4H2	InChI=1S/C6H8O3/c7-3-5-1-2-9-6(5)4-8/h1-2,7-8H,3-4H2
