23
gdb 83580	2.41829	1.61568	1.53045	1.3623	83.33	-0.2357	0.0738	0.3095	1054.5828	0.209847	-388.317331	-388.309559	-388.308615	-388.348919	32.454	
C	-0.0589507212	 1.5306547373	 0.0237025315	-0.429768
C	 0.0447573799	 0.0036159875	-0.0016885978	 0.030034
C	 0.9011501871	-0.5655815381	-1.1571564754	 0.000173
C	 2.3533653316	-0.2490531981	-0.7070988727	-0.223121
C	 2.2987768818	-0.2774961178	 0.8497489352	-0.24158
C	 0.8231559978	-0.5939450529	 1.1872981553	 0.125738
O	 0.5653873054	-1.9979714544	 1.2642399588	-0.274574
C	 1.0263448749	-2.7340102614	 0.139303047	-0.068111
C	 0.6507045793	-2.0867785871	-1.2029145447	-0.233968
H	 0.9209767644	 2.0169483057	 0.0518698861	 0.116802
H	-0.580936248	 1.8974081946	-0.8665904514	 0.114106
H	-0.6205655193	 1.8698571411	 0.9009617833	 0.114401
H	-0.9658819592	-0.4186258669	-0.0167689584	 0.067459
H	 0.6635380338	-0.1157585141	-2.1264169556	 0.054883
H	 3.0680999772	-0.9719040166	-1.1123454683	 0.095112
H	 2.6627662875	 0.7345088754	-1.0708852223	 0.097631
H	 2.9652937452	-1.0216435528	 1.2930138919	 0.108131
H	 2.5774282653	 0.6904044623	 1.275281595	 0.099449
H	 0.5143799384	-0.1986206077	 2.1588043783	 0.067646
H	 2.1192014621	-2.8614976301	 0.1918688284	 0.087856
H	 0.5849471976	-3.7306553175	 0.2332045705	 0.104069
H	-0.4074747938	-2.2696832847	-1.4233134273	 0.097423
H	 1.2359666723	-2.5595065536	-2.0010480076	 0.09021
193.1803	208.1562	224.8377	272.0662	295.8554	357.9172	423.7408	445.915	465.0283	607.0501	733.2162	744.8451	780.1689	811.283	821.0299	873.7208	892.243	939.3422	953.064	959.9084	989.3035	1013.1881	1050.0882	1055.3035	1075.6877	1109.5059	1133.0636	1141.3306	1176.1263	1202.8143	1231.7724	1251.9737	1267.9528	1276.8555	1306.1574	1321.2421	1332.2626	1346.6092	1361.5433	1371.3469	1401.1642	1413.5596	1417.0855	1481.7792	1485.8245	1497.7346	1502.6806	1507.3309	1521.6702	2977.985	3024.6696	3031.7192	3044.7825	3047.849	3057.3388	3062.1896	3066.958	3078.0054	3081.1841	3085.5025	3094.3337	3103.9939	3110.3586
CC1C2CCC1OCC2	C[C@H]1[C@H]2CC[C@@H]1OCC2	
InChI=1S/C8H14O/c1-6-7-2-3-8(6)9-5-4-7/h6-8H,2-5H2,1H3	InChI=1S/C8H14O/c1-6-7-2-3-8(6)9-5-4-7/h6-8H,2-5H2,1H3/t6-,7-,8-/m0/s1
