23
gdb 40966	3.12465	1.22281	1.0924	2.0724	84.3	-0.2412	0.0709	0.3121	1223.9433	0.208612	-388.295788	-388.287502	-388.286558	-388.329041	32.736	
C	 0.0373845905	 1.5518737971	-0.0614351536	-0.138393
O	 1.3896734265	 1.6052020039	 0.434876529	-0.273842
C	 1.4783817509	 0.1685116141	 0.4876358526	-0.113059
C	 0.0273079313	 0.0048063023	-0.04345979	 0.327827
C	-0.9566808822	-0.6275851205	 0.9466642658	-0.265585
C	-0.7811039396	-2.1506911681	 1.0380345941	-0.19922
C	-0.8954819981	-2.8104975115	-0.3432128507	-0.177896
C	 0.0920789641	-2.1839772729	-1.337429849	-0.19922
C	-0.0870517049	-0.6607351994	-1.4191306818	-0.265584
H	-0.6711697732	 2.0372100088	 0.6233452325	 0.092068
H	-0.0547130712	 2.013716469	-1.0537776846	 0.092068
H	 2.2715631579	-0.2177761228	-0.1664841825	 0.093226
H	 1.6556784908	-0.194276688	 1.5089973562	 0.093225
H	-0.836310216	-0.1680967463	 1.9350592274	 0.094955
H	-1.9814089323	-0.3991317991	 0.6196410774	 0.091834
H	 0.2054474133	-2.3773177601	 1.4663698556	 0.095794
H	-1.5203431058	-2.5723037948	 1.7278853812	 0.09292
H	-0.7248972584	-3.889939342	-0.2653826498	 0.091014
H	-1.9194540461	-2.6820448136	-0.7214088723	 0.092367
H	 1.1191150054	-2.4121475765	-1.0192319306	 0.095794
H	-0.0283201324	-2.6291790137	-2.3311222837	 0.09292
H	-1.0775549123	-0.4335848311	-1.8392604683	 0.091834
H	 0.6488698417	-0.2247144046	-2.1053147749	 0.094955
46.8871	122.348	189.7497	284.2997	286.7314	366.679	398.9725	435.36	453.6976	526.3028	655.8932	793.2111	829.2237	853.8532	855.5811	870.7836	933.8559	960.3714	962.5579	964.8769	990.706	1006.4177	1040.3529	1049.4753	1080.6983	1109.8774	1139.904	1157.108	1166.6295	1169.7658	1193.5137	1276.6645	1281.8489	1308.705	1312.4728	1314.6233	1354.1569	1367.5423	1375.831	1378.7478	1388.7467	1395.9122	1480.5054	1483.9936	1487.8918	1492.3979	1504.485	1514.9821	1537.7722	2990.8208	3000.3215	3000.7991	3007.2387	3009.4786	3010.997	3016.6527	3037.3588	3037.9065	3053.9866	3055.0533	3063.6896	3064.392	3068.6049
C1OCC11CCCCC1	C1OCC21CCCCC2	
InChI=1S/C8H14O/c1-2-4-8(5-3-1)6-9-7-8/h1-7H2	InChI=1S/C8H14O/c1-2-4-8(5-3-1)6-9-7-8/h1-7H2
