14
gdb 129680	3.31031	1.40466	0.99269	1.6048	67.82	-0.2061	-0.0014	0.2047	1091.2226	0.103664	-466.208759	-466.201095	-466.200151	-466.241415	28.421	
N	-0.4998057642	 0.4886067323	-1.3888773027	-0.619917
C	-0.2118735369	-0.4004474096	-0.3740896328	 0.280072
C	-0.9726691014	-1.2902684325	 0.3713435496	 0.353279
N	-2.3475077175	-1.5673164584	 0.4057192024	-0.391434
C	-3.3626756911	-0.8587505803	-0.1390312312	 0.146241
O	-3.2565474998	 0.1635230908	-0.7975417911	-0.337883
N	-0.1559890323	-2.0129930027	 1.1814854715	-0.259005
N	 1.0744338978	-1.6386443526	 1.0094261654	-0.133732
N	 1.0461117309	-0.6623896596	 0.0676653231	-0.21979
H	-1.5054830988	 0.6570730453	-1.4287588044	 0.286817
H	 0.0252450318	 1.3527225711	-1.3439184138	 0.247762
H	-2.5800987501	-2.3788948149	 0.9608484801	 0.270962
H	-4.3415675633	-1.3211699782	 0.0767194311	 0.098107
H	 1.9102969951	-0.2508061108	-0.2459088572	 0.278522
46.1414	219.3027	231.259	264.7767	306.9345	365.0149	416.2407	448.8433	520.1952	602.7829	625.141	689.2214	731.9748	738.7448	831.5562	875.48	1004.8775	1011.362	1061.7699	1118.9631	1173.5299	1278.6841	1299.1041	1340.2081	1410.811	1434.4718	1502.7483	1582.6788	1636.3281	1686.1734	1775.58	2985.8762	3427.8503	3589.9315	3609.3407	3659.2064
NC1=C(NC=O)N=NN1	Nc1c(NC=O)nn[nH]1	
InChI=1S/C3H5N5O/c4-2-3(5-1-9)7-8-6-2/h1H,(H4,4,5,6,7,8,9)	InChI=1S/C3H5N5O/c4-2-3(5-1-9)7-8-6-2/h1H,(H4,4,5,6,7,8,9)
