21
gdb 53312	4.95384	0.78322	0.74825	0.1912	92.94	-0.2363	0.058	0.2943	1629.1905	0.18115	-349.911683	-349.901859	-349.900915	-349.94775	35.804	
C	 0.0028300937	 1.5412490111	-0.0895792735	-0.497514
C	 0.0122026256	 0.0867661931	-0.019922059	 0.042698
C	 0.0235093963	-1.1175061178	 0.0293165183	 0.097167
C	 0.0255784854	-2.5684180066	 0.1116072201	-0.17322
C	 0.2424910566	-3.2441744391	 1.5211832791	-0.301147
C	-1.0921022959	-3.9868750809	 1.360028663	 0.372243
C	-1.330990679	-5.4050188107	 1.791929037	-0.49831
C	-2.1946912136	-2.9772939177	 1.1852562875	-0.325676
C	-1.3234705908	-3.3106682192	 0.0056663424	-0.097109
H	 0.7465209969	 1.9120871493	-0.8039705547	 0.145062
H	-0.9757112075	 1.9193947159	-0.4064784374	 0.14565
H	 0.2293209677	 1.9898265746	 0.8843480759	 0.144574
H	 0.7448648676	-2.9794085407	-0.6034996871	 0.096337
H	 1.1110858598	-3.9074376343	 1.5196360731	 0.100693
H	 0.317898492	-2.5618539449	 2.372766286	 0.099627
H	-1.3738204433	-5.4860234417	 2.8852179105	 0.119192
H	-2.2793742518	-5.784866236	 1.397436188	 0.116485
H	-0.5326014311	-6.070695068	 1.4431596504	 0.113395
H	-3.197321873	-3.3922399154	 1.1453261597	 0.105206
H	-2.1354673534	-1.9934951614	 1.6451238573	 0.111941
H	-1.7278374423	-3.7192900898	-0.9132804166	 0.082708
20.3455	69.4277	89.0748	186.2383	207.6286	252.9563	286.4249	333.5662	367.85	415.4743	464.6733	536.2377	623.1202	687.1882	763.1814	810.3024	895.4638	923.673	955.2848	961.8647	975.8486	990.1571	1040.7474	1052.539	1053.449	1068.343	1087.4505	1107.5276	1147.8771	1188.7792	1219.3611	1237.8569	1260.9792	1300.7111	1342.7556	1394.5793	1414.4007	1425.1171	1478.8924	1479.117	1481.5876	1486.2486	1497.454	1507.3245	2363.4318	3017.1769	3023.5758	3049.9862	3054.3039	3073.8234	3082.7331	3083.3061	3092.7292	3107.423	3108.0156	3173.6339	3196.6519
CC#CC1CC2(C)CC12	CC#C[C@H]1C[C@@]2(C)C[C@@H]12	
InChI=1S/C9H12/c1-3-4-7-5-9(2)6-8(7)9/h7-8H,5-6H2,1-2H3	InChI=1S/C9H12/c1-3-4-7-5-9(2)6-8(7)9/h7-8H,5-6H2,1-2H3/t7-,8-,9-/m0/s1
