18
gdb 35923	3.06482	1.40295	1.08024	4.9777	75.66	-0.272	0.0171	0.2891	1117.3375	0.149865	-401.949933	-401.942256	-401.941312	-401.982237	29.697	
N	-0.0648468954	-1.1232679121	-0.2232429278	-0.318732
C	-0.0440953178	 0.0234808192	-0.0896948776	 0.282274
C	 0.0170719386	 1.4904125655	 0.0286934729	-0.047734
O	-0.6746930306	 1.8542461166	 1.2090869203	-0.255053
C	-0.6915591174	 3.270223584	 1.3760676393	-0.071328
C	 0.6911995264	 3.8076430182	 1.7512843203	-0.23273
C	 1.79052505	 3.1778878405	 0.8966873284	-0.04612
C	 2.3059537915	 1.801359216	 1.2449255903	-0.279791
C	 1.4574629558	 1.9861747765	 0.0195483155	-0.031868
H	-0.508100132	 1.9107634863	-0.8471971094	 0.11347
H	-1.0482659784	 3.7410537377	 0.4458660882	 0.095693
H	-1.4263986682	 3.4695299919	 2.1596593193	 0.118367
H	 0.6914562681	 4.8953416008	 1.6238030881	 0.106887
H	 0.8839067004	 3.6147571893	 2.8122618284	 0.116274
H	 2.5190164122	 3.8710035825	 0.4894532502	 0.095101
H	 3.3592510555	 1.5856796587	 1.1086455719	 0.118561
H	 1.846321504	 1.307010671	 2.0947268023	 0.132727
H	 1.9384257573	 1.9159887374	-0.9505620307	 0.104002
87.3847	142.0987	195.7677	281.8724	358.9015	368.02	445.1921	452.2166	555.2356	617.6541	680.236	762.5919	814.8172	850.3981	864.86	917.1724	956.481	971.2755	1016.57	1068.2312	1077.5833	1084.1303	1098.9971	1131.9773	1141.8148	1158.3486	1226.2092	1258.1966	1286.3578	1328.274	1349.192	1360.5981	1372.719	1411.1581	1416.0314	1480.0687	1493.6268	1499.592	2367.7837	2949.3718	2978.3584	3040.2509	3079.5251	3102.0068	3136.1059	3156.4316	3166.1963	3225.2495
N#CC1OCCC2CC12	N#C[C@H]1OCC[C@H]2C[C@@H]12	
InChI=1S/C7H9NO/c8-4-7-6-3-5(6)1-2-9-7/h5-7H,1-3H2	InChI=1S/C7H9NO/c8-4-7-6-3-5(6)1-2-9-7/h5-7H,1-3H2/t5-,6+,7+/m0/s1
