16
gdb 16989	3.98632	2.22554	2.11647	2.4076	64.32	-0.2364	0.0432	0.2797	715.5662	0.132189	-383.613007	-383.607277	-383.606333	-383.642451	24.015	
C	 0.0688090568	 1.5737681708	-0.1551570589	-0.196175
O	 1.5198460821	 1.5227273394	 0.1330400633	-0.317175
C	 1.2181439072	 0.3272613711	 0.9386529034	 0.143796
C	 1.358974141	-1.2434336748	 0.9337382742	 0.029347
C	-0.2480063477	-1.1503953755	 1.1139918094	-0.3406
C	 0.0032463274	 0.0440609323	 0.1172651033	 0.160664
C	 0.603975335	-0.7423338385	-1.0715828431	-0.089685
O	 1.5130830533	-1.6462040687	-0.4031810827	-0.254764
H	-0.4487217461	 2.1992110311	 0.5803148675	 0.114844
H	-0.1287126429	 1.926007057	-1.1710280591	 0.118771
H	 0.9994638324	 0.6610507306	 1.9594188983	 0.084624
H	 2.0075523486	-1.8209773426	 1.5923161478	 0.092089
H	-0.7892041693	-2.0268340799	 0.7501652743	 0.115706
H	-0.581592233	-0.8592849406	 2.1086412184	 0.118022
H	-0.1568512934	-1.3157991134	-1.6132812824	 0.100547
H	 1.1624518786	-0.1140672682	-1.7698837338	 0.119989
258.531	318.0327	352.0126	441.0238	472.8195	597.2334	643.7014	745.946	803.4905	819.894	847.0063	882.5016	927.9759	947.893	964.6122	975.677	1006.162	1023.6096	1043.7876	1098.6397	1124.9396	1131.4769	1176.978	1186.0515	1199.6954	1240.4598	1248.2474	1283.7755	1302.1152	1377.4554	1396.8777	1480.2715	1508.113	1512.469	3032.1754	3035.7054	3041.0386	3077.766	3098.4552	3107.7875	3130.2049	3161.744
C1OC2C3CC12CO3	C1O[C@@H]2[C@H]3C[C@@]12CO3	
InChI=1S/C6H8O2/c1-4-5-6(1,2-7-4)3-8-5/h4-5H,1-3H2	InChI=1S/C6H8O2/c1-4-5-6(1,2-7-4)3-8-5/h4-5H,1-3H2/t4-,5-,6-/m1/s1
