21
gdb 89512	2.32413	1.675	1.26628	0.4602	76.91	-0.2452	0.0566	0.3018	1085.8232	0.182833	-424.227701	-424.219104	-424.21816	-424.260691	33.874	
C	-0.2403903108	 1.6040410573	 0.3726923529	-0.463873
C	 0.1270350004	 0.1714931416	 0.0503481315	 0.437067
C	-1.0494512139	-0.8567828874	-0.0129243181	-0.337792
C	-0.4299494463	-1.6393033829	 1.1766823105	 0.143167
O	-0.2549087479	-3.0321540788	 1.053885108	-0.429921
C	 0.8283049009	-0.71042744	 1.139706533	-0.116562
C	 2.0723790559	-1.2593297274	 0.4316036286	-0.24808
C	 1.7803521654	-0.9958264062	-1.0581066414	-0.09866
O	 0.9696755751	 0.1677981932	-1.0979567688	-0.289041
H	 0.6592611725	 2.1979437772	 0.5601028248	 0.120571
H	-0.7812225898	 2.0574847866	-0.4643356983	 0.125842
H	-0.8812970873	 1.6505438387	 1.258459602	 0.113361
H	-2.0520287662	-0.4522267513	 0.1457540334	 0.102684
H	-1.0547662851	-1.4245634449	-0.9488783089	 0.101057
H	-0.9944399466	-1.5037841297	 2.1028297047	 0.090304
H	 0.0648579653	-3.2220113026	 0.1658459905	 0.279719
H	 1.0672683423	-0.2288989103	 2.0897229411	 0.06717
H	 2.9570604797	-0.6991138415	 0.7459041289	 0.109525
H	 2.2487661538	-2.31666579	 0.6489970917	 0.108337
H	 2.6751522823	-0.8028927228	-1.6560111354	 0.111595
H	 1.2580272202	-1.8539653985	-1.5162862607	 0.07353
62.0944	209.4188	223.4761	232.8158	261.3134	274.7204	309.7449	409.5256	441.8072	519.489	585.5114	610.6406	689.9959	760.8765	801.2385	858.1138	888.4665	913.1007	919.8295	940.7896	967.7835	1032.0418	1048.5361	1069.9767	1085.7019	1120.9417	1142.0297	1171.645	1194.1394	1217.5459	1226.043	1252.4607	1267.6845	1290.4346	1322.285	1327.8689	1335.6836	1386.2455	1409.8374	1430.4766	1468.4565	1481.787	1487.7819	1494.9035	1523.0475	2946.0042	3035.7983	3051.797	3058.0883	3070.6471	3086.7744	3090.3163	3106.3634	3107.2901	3109.6226	3114.2936	3808.9132
CC12CC(O)C1CCO2	C[C@]12C[C@@H](O)[C@H]1CCO2	
InChI=1S/C7H12O2/c1-7-4-6(8)5(7)2-3-9-7/h5-6,8H,2-4H2,1H3	InChI=1S/C7H12O2/c1-7-4-6(8)5(7)2-3-9-7/h5-6,8H,2-4H2,1H3/t5-,6-,7+/m1/s1
