22
gdb 96316	2.12519	1.55679	0.96385	1.7029	84.94	-0.2356	0.0188	0.2544	1292.6628	0.194386	-404.375111	-404.365795	-404.364851	-404.409042	35.446	
C	 0.0601373219	 1.5720379847	 0.0689415964	-0.391261
C	 0.0088677893	 0.042574762	 0.0005819464	 0.066906
C	 0.5919732982	-0.4737481989	-1.326290499	-0.187993
C	 0.2345970797	-1.9309271993	-1.6204083792	-0.212423
C	 0.7966642557	-2.9108372123	-0.5992694119	-0.070603
O	 0.2671142714	-2.7664802949	 0.7232779157	-0.266445
C	 0.7133664529	-1.7072659251	 1.4848251855	 0.361462
C	 1.2386352413	-2.1889715429	 2.8079398491	-0.445808
N	 0.6659142853	-0.4779225747	 1.2001999964	-0.277246
H	 1.0947355612	 1.9240056376	-0.0043105513	 0.115024
H	-0.5184375146	 2.0235259565	-0.7436581436	 0.100585
H	-0.342895768	 1.9221522378	 1.0226200586	 0.117515
H	-1.0479713664	-0.2688314558	 0.0352375782	 0.080363
H	 0.2153559243	 0.158181208	-2.1389327388	 0.095314
H	 1.6826164937	-0.345647259	-1.3082116969	 0.097104
H	-0.8559469464	-2.0469498441	-1.6600295811	 0.105348
H	 0.6201979723	-2.2224335558	-2.6057012397	 0.096418
H	 0.553240713	-3.938709756	-0.8829561324	 0.111535
H	 1.8917695914	-2.8226796156	-0.5563789814	 0.099636
H	 0.4750380659	-2.7952056474	 3.3071758012	 0.138091
H	 2.1098766687	-2.8370748082	 2.6612846173	 0.128426
H	 1.5085674091	-1.3432343368	 3.4392017003	 0.138051
65.3873	151.2159	173.2627	195.7724	236.0475	255.4322	315.4579	350.7651	357.2714	413.4931	480.7512	518.5471	598.8711	667.9983	775.2508	828.1497	862.7976	881.2094	924.4627	955.2398	987.8539	1049.9948	1053.2122	1063.7298	1102.1052	1126.5677	1139.1756	1159.3682	1215.3268	1227.2894	1261.4335	1314.2081	1329.607	1357.9141	1380.9777	1391.464	1400.2056	1409.1859	1421.69	1471.2941	1472.8084	1478.2055	1479.1086	1487.6197	1497.4969	1499.9493	1757.5384	2967.9073	3003.9439	3018.7438	3022.1524	3034.8076	3039.5592	3060.1535	3068.1896	3087.9433	3094.2161	3104.0145	3119.3163	3161.9211
CC1CCCOC(C)=N1	C[C@H]1CCCOC(=N1)C	
InChI=1S/C7H13NO/c1-6-4-3-5-9-7(2)8-6/h6H,3-5H2,1-2H3	InChI=1S/C7H13NO/c1-6-4-3-5-9-7(2)8-6/h6H,3-5H2,1-2H3/t6-/m0/s1
