17
gdb 127405	3.05904	1.67131	1.11642	5.4041	75.79	-0.1973	0.0152	0.2124	1055.0811	0.139007	-414.171229	-414.163686	-414.162742	-414.203187	28.622	
C	-0.1147627623	 1.5310425216	-0.0476313437	-0.341133
N	 0.0920114221	 0.0969668085	 0.0340025549	-0.175566
C	 0.7191220023	-0.5524353237	-1.1591653953	-0.167162
C	 1.376690176	-1.8842113344	-0.6601618276	-0.353908
C	 1.5175955406	-1.5707371964	 0.8017484517	 0.245312
C	 0.7789689259	-0.4566299362	 1.0987130202	 0.448598
N	 0.8917674659	-0.304266163	 2.4268117494	-0.353653
N	 1.6980368555	-1.3130182415	 2.9396014022	-0.147703
N	 2.0492192215	-2.0717270932	 1.93920161	-0.280095
H	 0.8248368886	 2.0942272915	-0.1792028577	 0.115766
H	-0.7707951513	 1.7545035212	-0.8934285289	 0.135971
H	-0.6116763939	 1.8878225226	 0.8592976055	 0.126815
H	-0.034221931	-0.7091458091	-1.9353988619	 0.117436
H	 1.4944014972	 0.1159361139	-1.5644257864	 0.105709
H	 0.7133913589	-2.7400542952	-0.8345660778	 0.124252
H	 2.314235475	-2.083472865	-1.1855482214	 0.125718
H	 0.5314901288	 0.3954797285	 3.0527871067	 0.273642
127.8263	160.1513	213.9568	233.149	271.9837	359.5909	485.0226	489.1138	582.6642	640.6624	689.9359	725.7071	753.1555	836.3587	919.9223	936.4865	982.068	1023.7475	1069.9744	1110.6698	1143.5599	1179.9907	1200.5163	1222.5731	1249.1864	1268.4896	1297.1287	1354.238	1380.7664	1428.1173	1459.4833	1487.2744	1493.6902	1501.5595	1514.2394	1556.6011	1638.5961	2962.1728	2985.4122	3031.0365	3075.339	3086.355	3094.9377	3114.9431	3678.623
CN1CCC2=C1NN=N2	CN1CCc2c1[nH]nn2	
InChI=1S/C5H8N4/c1-9-3-2-4-5(9)7-8-6-4/h2-3H2,1H3,(H,6,7,8)	InChI=1S/C5H8N4/c1-9-3-2-4-5(9)7-8-6-4/h2-3H2,1H3,(H,6,7,8)
