16
gdb 79666	2.69763	1.52742	1.20454	4.9631	74.32	-0.2316	0.0056	0.2372	1039.6589	0.124167	-400.680442	-400.672667	-400.671723	-400.7125	30.158	
O	-0.0625382718	 1.4828836582	-0.1536184303	-0.408742
C	-0.1062183848	 0.1019380218	 0.0307895905	 0.031206
C	-0.4781482098	-0.6508882946	 1.2711471425	-0.160757
C	-1.6827065561	-0.1357893007	 2.091775141	-0.06447
C	-2.3269353477	 1.1285622396	 1.5753109555	-0.307385
C	-2.5704830857	-0.1726529388	 0.8653938496	-0.102301
C	-1.3878342009	-0.6859229195	-0.0123884911	 0.136511
C	-1.5646523886	-1.7591375396	-0.9308014776	 0.211448
N	-1.7216361768	-2.6363366578	-1.6713167041	-0.350002
H	 0.7122553234	 1.8170282126	 0.3130161417	 0.295318
H	 0.6720170434	-0.4299705503	-0.5220082398	 0.120007
H	 0.1392400523	-1.4681660724	 1.6234907182	 0.116445
H	-1.8945927266	-0.5359210123	 3.0736669851	 0.104721
H	-3.175115381	 1.4452979183	 2.176152288	 0.118444
H	-1.7590716713	 1.9261473102	 1.1228062295	 0.147784
H	-3.548861408	-0.6205483249	 0.7608578113	 0.111775
135.9413	155.978	188.811	251.2924	275.1792	405.4437	443.0121	476.6642	537.7007	586.0373	651.9551	699.9994	767.8444	773.0064	832.8229	904.4834	913.6439	948.0784	1004.3355	1014.1509	1035.5986	1067.179	1084.8243	1099.4191	1130.1561	1189.6966	1208.7775	1262.6039	1286.0994	1293.863	1330.2989	1361.0584	1472.1749	1485.3318	2336.4901	3078.5873	3140.0951	3191.5975	3205.1637	3214.8367	3266.0916	3796.535
OC1C2C3CC3C12C#N	O[C@H]1[C@H]2[C@H]3C[C@H]3[C@@]12C#N	
InChI=1S/C7H7NO/c8-2-7-4-1-3(4)5(7)6(7)9/h3-6,9H,1H2	InChI=1S/C7H7NO/c8-2-7-4-1-3(4)5(7)6(7)9/h3-6,9H,1H2/t3-,4+,5+,6-,7+/m0/s1
