17
gdb 33923	3.57128	1.33022	1.12848	1.7984	80.43	-0.2404	-0.0076	0.2327	1097.1223	0.135954	-384.65218	-384.644416	-384.643471	-384.684127	30.745	
C	 0.0048670974	-1.1756947487	-0.0220030195	-0.356247
C	 0.0350301129	 0.0259778384	-0.0048142333	 0.222949
C	 0.0293968429	 1.468145736	-0.0129198822	 0.191685
C	-1.1753356521	 2.1281507341	-0.6669762869	-0.292051
C	-1.1170239355	 3.6669430213	-0.5949556957	-0.272955
C	 0.2359136105	 4.207484911	-0.9765867295	-0.08849
C	 1.3576987243	 3.5327454843	-0.7197531826	-0.0324
C	 1.3159329926	 2.2142944515	-0.0427001499	-0.047895
O	 0.534901113	 2.1078676202	 1.1668653913	-0.290257
H	-0.0100636828	-2.2375201627	-0.0275777365	 0.193249
H	-1.2011284351	 1.7998748216	-1.7130883008	 0.119197
H	-2.0934832709	 1.7627296662	-0.1964676803	 0.118576
H	-1.8936944744	 4.0879106755	-1.2415936665	 0.103974
H	-1.3569468475	 3.9873884772	 0.426106678	 0.136276
H	 0.2819337059	 5.1806167629	-1.4570696959	 0.099106
H	 2.3317288759	 3.923180736	-0.9967224133	 0.093478
H	 2.2375947628	 1.6378797952	-0.0109110964	 0.101804
125.0564	144.1577	201.7524	281.0727	351.9932	419.3033	447.7585	515.3046	556.8432	597.0559	617.5093	663.5869	668.93	706.8693	754.152	840.1095	875.8243	890.3962	972.6195	985.0503	988.7866	1048.8736	1058.8093	1092.5842	1178.8625	1197.3133	1213.0417	1267.5806	1310.5553	1346.7731	1372.6382	1415.8549	1435.5738	1473.9012	1484.4835	1707.6031	2237.6888	3035.8095	3038.8246	3074.6578	3086.708	3140.4988	3163.4179	3188.0774	3502.6586
C#CC12CCC=CC1O2	C#C[C@]12CCC=C[C@H]1O2	
InChI=1S/C8H8O/c1-2-8-6-4-3-5-7(8)9-8/h1,3,5,7H,4,6H2	InChI=1S/C8H8O/c1-2-8-6-4-3-5-7(8)9-8/h1,3,5,7H,4,6H2/t7-,8+/m1/s1
