16
gdb 55942	4.33084	1.01166	0.90946	1.2145	65.16	-0.2588	0.0542	0.3129	1257.8635	0.123618	-475.020533	-475.012188	-475.011244	-475.054975	30.367	
N	-0.1800088183	 1.2872440603	 0.0491213489	-0.564175
C	 0.0086908564	-0.0604809526	 0.1288601298	 0.499343
O	 1.029485426	-0.6086160605	 0.4742690226	-0.402582
O	-1.1395745248	-0.7048683327	-0.2131087309	-0.27029
C	-1.095558108	-2.1195069658	-0.0950242705	 0.147568
C	-1.4201335545	-2.7667188375	 1.2967275514	-0.284451
C	-2.5767928841	-3.4976908532	 0.6031494622	 0.026805
O	-3.4553825432	-2.4853860952	 0.1087239578	-0.236257
C	-2.314475738	-2.8233937392	-0.6843924049	-0.023291
H	 0.641750725	 1.8635420154	 0.094963603	 0.26971
H	-0.995517203	 1.6437031887	-0.4183903205	 0.268146
H	-0.1521289523	-2.4962720617	-0.4939150333	 0.112642
H	-0.6113281584	-3.4038896982	 1.6574609915	 0.119668
H	-1.7342280118	-2.0727701163	 2.0782806155	 0.121275
H	-2.9954939875	-4.4771118533	 0.7987295641	 0.110761
H	-2.4922370437	-3.1320351481	-1.7077591666	 0.105129
24.8373	88.4835	117.6721	229.3432	284.8909	348.179	380.0291	467.4085	526.6369	597.0743	636.6635	750.8972	784.3249	819.5084	852.8784	883.1248	924.5341	933.6367	983.8599	1012.9007	1032.669	1067.0458	1108.5114	1120.2163	1167.3263	1206.7774	1238.1555	1242.5377	1290.74	1343.2316	1385.7116	1407.0196	1466.5052	1610.0954	1832.8304	3082.6764	3103.2594	3145.8412	3187.0614	3203.7546	3620.344	3753.0204
NC(=O)OC1CC2OC12	NC(=O)O[C@H]1C[C@H]2O[C@@H]12	
InChI=1S/C5H7NO3/c6-5(7)9-3-1-2-4(3)8-2/h2-4H,1H2,(H2,6,7)	InChI=1S/C5H7NO3/c6-5(7)9-3-1-2-4(3)8-2/h2-4H,1H2,(H2,6,7)/t2-,3+,4-/m1/s1
