22
gdb 96363	2.28118	1.66266	1.11083	2.4614	81.52	-0.2373	0.0709	0.3082	1161.8752	0.196354	-404.332888	-404.324461	-404.323517	-404.365527	33.661	
C	-0.1061661424	 1.5661111154	-0.0802630339	-0.429885
C	 0.0619566515	 0.0467251642	 0.0123123111	-0.062731
C	 0.7596073232	-0.516980229	-1.2429732141	-0.197385
C	 0.9491746259	-2.0311216756	-1.1423404968	-0.081238
O	 1.6696058796	-2.3907749477	 0.0223193283	-0.241593
C	 0.9995956973	-1.9753370788	 1.1990790898	-0.12623
C	 0.8069050525	-0.4676754793	 1.2452928596	 0.328211
C	 1.808413094	 0.3568802949	 1.9665502322	-0.27887
N	 0.5140762281	 0.0230436121	 2.5989218715	-0.370525
H	 0.8532715575	 2.0695917892	-0.2366844114	 0.123604
H	-0.7509278287	 1.8197511383	-0.9274579062	 0.119868
H	-0.5709658067	 1.9925041474	 0.8152306643	 0.11066
H	-0.9449851684	-0.3990234175	 0.0548818656	 0.076326
H	 0.1763869318	-0.2761998378	-2.1402276576	 0.091504
H	 1.742584991	-0.0423828232	-1.3543403223	 0.10446
H	-0.0353806194	-2.5324195574	-1.1474786367	 0.082047
H	 1.5238341865	-2.4139342355	-1.9908776039	 0.105024
H	 0.0127367442	-2.466679385	 1.2706732224	 0.083213
H	 1.6025426453	-2.3082468909	 2.0470457118	 0.111008
H	 2.6751289531	-0.1183649836	 2.4183162315	 0.116876
H	 1.9752496025	 1.3811261737	 1.6469935079	 0.109482
H	-0.1034159984	 0.8303289456	 2.5593209066	 0.226174
90.6459	176.1292	230.0837	279.946	293.8465	313.9601	349.7078	397.6907	430.9518	474.9104	515.6246	608.6986	688.3656	829.4848	852.6558	884.9731	912.4143	931.1841	970.7364	976.7777	987.2387	1011.1327	1031.0921	1054.4896	1092.6028	1116.1828	1133.3113	1141.1967	1181.9149	1222.7227	1240.939	1264.6954	1307.665	1315.5069	1336.6467	1363.0896	1379.8234	1389.9528	1400.55	1414.8067	1425.7599	1476.0622	1488.0329	1498.8951	1499.0023	1501.976	1518.2615	2945.1919	2951.4903	2975.2948	3023.5443	3033.1925	3068.1914	3082.8944	3095.8927	3101.3947	3104.4703	3112.6265	3195.1625	3497.7013
CC1CCOCC11CN1	C[C@H]1CCOC[C@]21CN2	
InChI=1S/C7H13NO/c1-6-2-3-9-5-7(6)4-8-7/h6,8H,2-5H2,1H3	InChI=1S/C7H13NO/c1-6-2-3-9-5-7(6)4-8-7/h6,8H,2-5H2,1H3/t6-,7-/m0/s1
