16
gdb 16975	4.0456	2.30166	2.16569	2.0397	68.87	-0.2283	-0.0076	0.2207	710.7264	0.131234	-346.466033	-346.460251	-346.459306	-346.495348	24.907	
C	-0.012869325	 1.6226331731	-0.259601302	-0.284426
C	 1.5497935058	 1.4094102617	 0.0499621017	-0.328116
C	 1.0395648993	 0.2517781282	 0.9436230535	 0.359078
O	 1.0577404972	-1.2466041545	 1.1205126819	-0.36223
C	-0.4262351759	-1.0063014278	 1.1539958605	-0.062981
C	-0.5720823742	-0.185628766	 2.4340567861	-0.053428
C	 0.4371141598	 0.6739981969	 2.2972825837	-0.139506
C	-0.1459345183	 0.0878422017	 0.0424687756	 0.015361
H	-0.4717787302	 2.2716776222	 0.4882075541	 0.122999
H	-0.2793243384	 1.9564510922	-1.2643243088	 0.10699
H	 2.0792752302	 1.0747186189	-0.8437515044	 0.125388
H	 2.09730323	 2.2269288341	 0.5274593643	 0.105762
H	-1.0083686767	-1.9139054716	 0.9939199149	 0.082412
H	-1.2993903004	-0.3233737794	 3.220262322	 0.112296
H	 0.7907493442	 1.4712770166	 2.9354660015	 0.104986
H	 0.1576506925	-0.4516922063	-0.8588703545	 0.095414
278.4998	297.9376	386.7432	505.4655	554.3524	584.6846	656.9156	677.5565	715.8042	754.3623	797.6075	818.4591	844.7038	858.4277	901.527	905.2273	932.796	1012.7873	1034.976	1066.3413	1071.5791	1114.8614	1146.0671	1183.1204	1194.8647	1211.3975	1226.6258	1249.1802	1262.8483	1315.7398	1385.6784	1469.3416	1481.8256	1621.3889	3060.9715	3069.2262	3074.2586	3124.9919	3129.299	3144.7939	3225.8748	3255.958
C1CC23OC(C=C2)C13	C1C[C@@]23O[C@@H](C=C2)[C@@H]13	
InChI=1S/C7H8O/c1-3-7-4-2-6(8-7)5(1)7/h2,4-6H,1,3H2	InChI=1S/C7H8O/c1-3-7-4-2-6(8-7)5(1)7/h2,4-6H,1,3H2/t5-,6+,7-/m1/s1
