18
gdb 112206	2.6301	1.36501	1.00211	4.4052	73.38	-0.2345	-0.0269	0.2076	1177.4567	0.146764	-439.054393	-439.045555	-439.044611	-439.088263	32.688	
O	 0.0273210077	 0.5345416398	 1.2740729084	-0.41432
C	-0.1134612819	 0.322628192	-0.1273104486	-0.094029
C	-1.3912138188	-0.4302647728	-0.4641272823	-0.113158
C	-1.5535397567	-0.9560707215	-1.9277613886	-0.391887
C	-1.8585228084	-2.3585769536	-1.3485541253	 0.365088
O	-2.2243248322	-3.3938159092	-1.8225609912	-0.29807
C	-1.5117424913	-1.8840849755	 0.0448990483	 0.232516
C	-0.6319469278	-2.5912427028	 1.0252233835	-0.291876
N	-2.059583543	-2.4062490215	 1.2961874371	-0.354535
H	-0.6282306935	 1.185744077	 1.5437142627	 0.286512
H	-0.0683209978	 1.2728675604	-0.6804354506	 0.100121
H	 0.7573743173	-0.270902044	-0.4262001932	 0.115465
H	-2.261920908	 0.1657042282	-0.1623660442	 0.076534
H	-2.3515256361	-0.515410235	-2.5291432	 0.133952
H	-0.6259960298	-0.9405830812	-2.5102853818	 0.132189
H	-0.3383910548	-3.6154051698	 0.8135750963	 0.135026
H	 0.0864380487	-1.9837914994	 1.5661644259	 0.14517
H	-2.1795726838	-1.629048941	 1.9438802535	 0.235303
53.138	129.5077	174.7686	212.034	227.2593	247.1867	305.2063	362.8648	442.3215	515.3801	569.4819	622.6936	683.4649	787.7519	820.3258	889.6842	939.1801	968.5774	986.8777	1008.9059	1035.6513	1050.3771	1069.011	1095.3574	1113.2085	1134.0125	1180.511	1218.4269	1250.1935	1267.7695	1291.1681	1345.646	1384.7273	1393.3168	1411.938	1443.213	1492.0766	1502.3236	1893.4526	2992.505	3024.1236	3056.2929	3074.5796	3118.3377	3120.1665	3217.4871	3482.6122	3816.7055
OCC1CC(=O)C11CN1	OC[C@H]1CC(=O)[C@]21CN2	
InChI=1S/C6H9NO2/c8-2-4-1-5(9)6(4)3-7-6/h4,7-8H,1-3H2	InChI=1S/C6H9NO2/c8-2-4-1-5(9)6(4)3-7-6/h4,7-8H,1-3H2/t4-,6-/m1/s1
