21
gdb 88109	3.3863	1.2283	1.04343	1.7063	84.04	-0.2385	0.0296	0.2681	1230.1085	0.183003	-387.098634	-387.090034	-387.08909	-387.131708	33.444	
C	-0.0668998624	 1.5190225124	-0.1563095315	-0.426626
C	-0.0078689712	 0.0342326548	 0.0992980158	 0.009469
O	 1.2664706163	-0.6129149078	-0.0235330911	-0.304869
C	 0.6139024498	-0.618242497	 1.2635493622	 0.400301
C	 1.3459688089	 0.1302877081	 2.358697133	-0.28667
C	 2.5524939857	-0.6947253181	 2.8390744463	-0.244235
C	 2.1787694048	-2.1312168736	 3.0968311051	-0.053279
C	 1.0800393242	-2.6988791108	 2.6018903064	-0.045289
C	 0.1007485679	-1.9800407005	 1.7082076347	-0.319397
H	 0.7454480321	 2.0543904037	 0.3380756706	 0.126988
H	 0.0059579627	 1.7158453772	-1.2312107538	 0.129335
H	-1.0210498313	 1.9286050584	 0.1933200726	 0.120109
H	-0.8178316261	-0.523307021	-0.3801851255	 0.077153
H	 1.6729886055	 1.1133538608	 2.0141345402	 0.099729
H	 0.6560063973	 0.2853864994	 3.1982195103	 0.101187
H	 3.3485988557	-0.6498983771	 2.0825228606	 0.124465
H	 2.9742894414	-0.2455555516	 3.7461217982	 0.099021
H	 2.8563471769	-2.7166859518	 3.7136034761	 0.083917
H	 0.8553281927	-3.7380429935	 2.8300140967	 0.084097
H	-0.8622109556	-1.8627384463	 2.2284462865	 0.107542
H	-0.1079336552	-2.5805950559	 0.8147856165	 0.117051
84.6721	143.1705	167.6258	196.9646	245.2511	352.7787	386.6873	414.1986	464.1567	521.0647	538.1151	670.6199	676.4965	749.3007	782.8767	877.104	898.1522	932.854	956.0925	966.0649	1002.3002	1004.9007	1034.6018	1049.9378	1057.4777	1118.8677	1147.0505	1175.9877	1194.57	1228.915	1254.3799	1275.1886	1322.991	1349.2608	1363.5432	1397.4235	1408.429	1416.3043	1453.303	1469.9731	1473.18	1480.4282	1491.5032	1516.5907	1727.0948	2993.654	3012.1359	3028.6386	3038.1575	3052.3796	3052.9617	3062.2707	3097.4384	3105.2177	3137.7422	3143.135	3166.768
CC1OC11CCC=CC1	C[C@H]1O[C@]21CCC=CC2	
InChI=1S/C8H12O/c1-7-8(9-7)5-3-2-4-6-8/h2-3,7H,4-6H2,1H3	InChI=1S/C8H12O/c1-7-8(9-7)5-3-2-4-6-8/h2-3,7H,4-6H2,1H3/t7-,8+/m1/s1
