23
gdb 99769	1.82878	1.32544	0.95334	2.1155	78.36	-0.2466	0.0733	0.32	1377.8901	0.201887	-462.552479	-462.540864	-462.539919	-462.589241	41.741	
C	 0.1553849161	 1.1779586296	-0.4653062335	-0.241181
O	 0.0268209427	-0.0520249972	 0.217560978	-0.270051
C	-1.2782248661	-0.6362589924	 0.1986467017	 0.094964
C	-1.1529411386	-2.0223845616	-0.462621496	 0.141919
C	-0.9251253795	-1.935844759	-1.9726181349	-0.415128
O	-0.1109675768	-2.7536422866	 0.1729315103	-0.44506
C	-1.808350579	-0.7436659227	 1.6368957433	 0.112314
C	-1.7666246725	 0.5796045384	 2.3971421292	-0.413005
O	-3.1477905965	-1.220983283	 1.5016787544	-0.439065
H	 1.2036450721	 1.4793572183	-0.3889979953	 0.126823
H	-0.1095971954	 1.0882668232	-1.5280485339	 0.113408
H	-0.4692977426	 1.962009711	-0.0153515155	 0.112785
H	-1.9744530021	-0.0103635902	-0.3761322954	 0.074318
H	-2.0756727021	-2.5728993241	-0.25879607	 0.102806
H	-0.0229627322	-1.3564330101	-2.1978971225	 0.112663
H	-0.7927427166	-2.9394810248	-2.3850802627	 0.122268
H	-1.7742449611	-1.4621527727	-2.4774267215	 0.108303
H	 0.6497598968	-2.1580638883	 0.1847450494	 0.283237
H	-1.1869331101	-1.4882527569	 2.1547450805	 0.085362
H	-0.7421089161	 0.952764447	 2.4715830221	 0.127985
H	-2.388091841	 1.3308991084	 1.898411065	 0.11558
H	-2.1520274523	 0.4471263379	 3.4144209296	 0.1032
H	-3.4627072774	-1.4741633144	 2.3742024776	 0.285556
63.9115	82.2527	83.505	171.9781	175.759	202.7977	223.3451	247.1181	249.5917	287.3326	308.9763	356.765	420.2814	440.0568	468.0995	486.9926	517.3758	655.2059	849.2778	875.1682	919.5582	954.7868	982.6036	1053.2631	1054.8193	1092.8772	1111.9018	1126.3052	1137.6598	1166.727	1183.8062	1211.8179	1248.1976	1294.9531	1309.8102	1362.9216	1368.4188	1385.9138	1396.5989	1401.0081	1424.6658	1434.7759	1481.8006	1488.5461	1490.7061	1494.6491	1498.1312	1501.4229	1513.7885	2991.2344	3005.9968	3023.2746	3030.8292	3032.398	3045.9964	3078.2982	3095.7672	3102.4885	3109.7905	3118.1001	3125.5511	3767.9037	3832.208
COC(C(C)O)C(C)O	CO[C@@H]([C@@H](C)O)[C@@H](C)O	
InChI=1S/C6H14O3/c1-4(7)6(9-3)5(2)8/h4-8H,1-3H3	InChI=1S/C6H14O3/c1-4(7)6(9-3)5(2)8/h4-8H,1-3H3/t4-,5-/m1/s1
