21
gdb 91125	3.55679	1.40644	1.30635	1.2838	81.4	-0.2564	0.083	0.3393	1061.5975	0.186361	-387.09346	-387.086299	-387.085355	-387.124652	30.089	
O	-0.0857719892	 1.3975168602	-0.0181365334	-0.444677
C	-0.0381622445	-0.0226207536	 0.0190917418	 0.112786
C	 0.5048810713	-0.6119548852	 1.3601121512	-0.275881
C	-0.7614850607	-1.3221398049	 1.8453361991	-0.014658
C	-1.3208266734	-2.0392208268	 0.5723409503	-0.020829
C	-2.7450311005	-2.4640408497	 0.9475371203	-0.231379
C	-3.2080725653	-1.167468234	 1.6816370618	-0.233956
C	-1.9316721961	-0.330605483	 1.5396702362	-0.002271
C	-1.4615999237	-0.5673288022	 0.0668362079	-0.013378
H	 0.8186882572	 1.7255856498	-0.0164190183	 0.279519
H	 0.5150756542	-0.4044108337	-0.8514006524	 0.057863
H	 1.3452909804	-1.2988473667	 1.2156439281	 0.089643
H	 0.8265789485	 0.1913285659	 2.0308473178	 0.092949
H	-0.7169087972	-1.8476723856	 2.8026043684	 0.051574
H	-0.7042582262	-2.7582997764	 0.0268129313	 0.051059
H	-3.3557696173	-2.6953237162	 0.0694769135	 0.094351
H	-2.7543490357	-3.344409404	 1.5975780553	 0.0935
H	-4.0692394749	-0.6943233644	 1.2000216567	 0.095678
H	-3.4729214802	-1.3464119767	 2.7283135506	 0.093079
H	-1.9292012057	 0.6769018615	 1.9564540464	 0.067307
H	-2.110447881	-0.3207798442	-0.7761016428	 0.05772
147.4089	244.6093	264.7235	282.8757	322.3414	424.235	474.9688	593.4193	685.5818	701.2094	786.0107	824.4923	850.7854	906.364	907.2318	911.6844	933.9812	956.3765	963.0258	990.4375	1007.2116	1027.3198	1039.8989	1051.0335	1060.0922	1109.725	1120.3416	1161.6722	1179.6033	1196.9746	1234.8043	1253.2261	1257.7921	1259.8627	1265.4969	1269.0136	1284.7217	1310.46	1319.8842	1340.5089	1383.0081	1426.1326	1492.0208	1493.4356	1513.6713	2986.6349	3040.9975	3042.9632	3052.2223	3076.194	3076.5474	3082.7131	3087.1905	3095.2162	3097.3525	3116.3442	3819.0507
OC1CC2C3CCC2C13	O[C@H]1C[C@@H]2[C@H]3CC[C@@H]2[C@@H]13	
InChI=1S/C8H12O/c9-7-3-6-4-1-2-5(6)8(4)7/h4-9H,1-3H2	InChI=1S/C8H12O/c9-7-3-6-4-1-2-5(6)8(4)7/h4-9H,1-3H2/t4-,5+,6-,7-,8+/m0/s1
