16
gdb 47848	2.64334	1.63186	1.11669	4.5167	66.87	-0.2658	-0.0238	0.242	1047.8651	0.125233	-475.03536	-475.027641	-475.026697	-475.067917	28.634	
O	-0.0128843163	 0.0208250598	-0.4042105737	-0.297649
C	-0.058092407	 1.141649503	 0.0132081835	 0.406286
C	-1.3534001906	 1.9548289055	 0.0884939171	-0.281228
N	-1.4467866672	 2.8469357952	-1.0652637237	-0.200137
C	-0.9665051068	 4.0090576204	-0.9876403162	 0.097033
O	-0.3722042469	 4.5938672628	 0.1005892012	-0.233099
C	 0.9849392591	 4.2377869912	 0.3882764239	-0.086668
C	 1.1505861	 2.9415967595	 1.1697961243	-0.092844
O	 1.102757072	 1.752817178	 0.3792753477	-0.221998
H	-2.1654589446	 1.2305728377	 0.0257410636	 0.14151
H	-1.426927708	 2.5010815546	 1.0365856201	 0.119078
H	-1.068407834	 4.6889838931	-1.8348698919	 0.127341
H	 1.5713412926	 4.1889264364	-0.5373533228	 0.129456
H	 1.3709296418	 5.0584739435	 1.000634592	 0.12881
H	 2.156442844	 2.9365860819	 1.6013508796	 0.134363
H	 0.4325419917	 2.8998336075	 1.9956747452	 0.129747
77.5357	153.7285	186.4409	247.5146	289.7846	356.864	468.3565	473.3966	499.465	588.0435	698.8224	709.1782	816.0097	857.2266	929.2323	968.467	983.4327	1010.755	1040.8077	1100.1278	1115.9049	1122.1444	1193.7425	1269.1387	1286.9022	1337.6007	1345.5626	1393.7849	1409.0557	1412.01	1478.5667	1481.9027	1505.9585	1736.0523	1854.1702	3031.844	3035.6244	3049.3997	3097.7941	3099.7337	3128.2441	3130.7937
O=C1CN=COCCO1	O=C1CN=COCCO1	
InChI=1S/C5H7NO3/c7-5-3-6-4-8-1-2-9-5/h4H,1-3H2/b6-4-	InChI=1S/C5H7NO3/c7-5-3-6-4-8-1-2-9-5/h4H,1-3H2/b6-4-
