21
gdb 59685	2.14067	1.33951	0.98873	2.0267	84.41	-0.2483	0.0491	0.2974	1292.0017	0.180418	-387.046549	-387.036585	-387.035641	-387.081352	37.389	
C	-0.0325719976	 1.5746138089	-0.0150293299	-0.408974
C	 0.0223432803	 0.0531904865	 0.1343169666	 0.114164
O	 0.658313534	-0.3289635461	 1.3527815016	-0.434541
C	-1.3544973646	-0.5861923947	 0.0222441922	 0.030239
C	-2.1674804873	-0.4716791654	-1.2952497216	-0.239481
C	-2.6717798488	-1.9193881699	-1.0717953522	-0.224739
C	-1.4833772773	-2.1534863357	-0.0753397802	-0.201574
C	-0.3497215349	-2.8271511503	-0.6809896278	 0.358567
C	 0.5732544347	-3.3903131365	-1.2087890859	-0.491939
H	 0.9696966099	 1.998629994	 0.0898567248	 0.124515
H	-0.4335722619	 1.8668479856	-0.9907230695	 0.120552
H	-0.6747914639	 2.0203149306	 0.7558655395	 0.10187
H	 0.6650829189	-0.3651044122	-0.6484001188	 0.099443
H	 0.1610552319	 0.0678779854	 2.0769604156	 0.272327
H	-1.9709721921	-0.2499169095	 0.8667478102	 0.061475
H	-2.911815754	 0.3243508439	-1.3654743588	 0.098279
H	-1.5045210459	-0.4104174209	-2.1638628474	 0.112259
H	-3.629595969	-1.9444735423	-0.5456528309	 0.102976
H	-2.7201173384	-2.5826508225	-1.9362396759	 0.111344
H	-1.7465741962	-2.6509130812	 0.8620161179	 0.098725
H	 1.3954427924	-3.8917863377	-1.6556910997	 0.194516
65.724	106.5343	116.0207	181.2064	209.0988	231.1242	285.0121	318.1151	346.154	409.2989	473.8713	504.9261	591.1334	617.6385	627.3227	687.771	765.6275	805.6749	890.5833	904.127	939.8089	964.4707	976.2487	1020.7404	1064.8526	1076.0267	1098.0386	1122.9996	1178.4065	1194.8218	1233.7315	1245.2807	1261.0377	1269.0133	1292.3487	1329.2948	1347.5084	1398.2842	1399.7331	1423.259	1479.8893	1490.4624	1493.7378	1495.6945	2228.8727	3012.6411	3021.1053	3055.6106	3058.1556	3062.1535	3071.5606	3093.1885	3109.6809	3118.2775	3132.1474	3505.113	3793.0974
CC(O)C1CCC1C#C	C[C@@H](O)[C@H]1CC[C@H]1C#C	
InChI=1S/C8H12O/c1-3-7-4-5-8(7)6(2)9/h1,6-9H,4-5H2,2H3	InChI=1S/C8H12O/c1-3-7-4-5-8(7)6(2)9/h1,6-9H,4-5H2,2H3/t6-,7-,8-/m1/s1
