21
gdb 116378	2.9804	1.11747	0.85541	2.5104	81.06	-0.2392	0.0242	0.2635	1365.9177	0.183267	-424.216516	-424.207389	-424.206445	-424.250696	34.106	
O	-0.0134795547	 1.4796612232	-0.1946621323	-0.421647
C	 0.0512916668	 0.0770484736	 0.0170530829	-0.090077
C	-1.3757392832	-0.4757280484	 0.0531526305	 0.017342
C	-2.066294331	-0.2703672718	-1.300565513	-0.08837
O	-3.4761271961	-0.2949434543	-1.1906797971	-0.236899
C	-4.077872796	-1.5636673986	-1.2742572535	-0.13204
C	-3.7375316906	-2.5769758663	-0.2111356378	-0.0548
C	-2.6343184489	-2.7211749739	 0.5231637985	-0.066828
C	-1.3481948137	-1.935682402	 0.5243959017	-0.266939
H	 0.8822287632	 1.8120616097	-0.3010601382	 0.287655
H	 0.6210450604	-0.4199510293	-0.7868930221	 0.083216
H	 0.5595908088	-0.1568031809	 0.9661045637	 0.085925
H	-1.9415590121	 0.1230661499	 0.7771728843	 0.097117
H	-1.8078696947	 0.7228582053	-1.6765437586	 0.122473
H	-1.7172913477	-1.0162114432	-2.0356114023	 0.075884
H	-5.1566396726	-1.3715157068	-1.2449135421	 0.112525
H	-3.8727452875	-2.0175631701	-2.2640005544	 0.094468
H	-4.5206105646	-3.3230733268	-0.0779738068	 0.085411
H	-2.6166682662	-3.5723982976	 1.2025305942	 0.085064
H	-0.6222842538	-2.4927410013	-0.0926764179	 0.10716
H	-0.9301186961	-1.9659514702	 1.5391987704	 0.103358
74.0524	94.1771	126.4893	205.0288	246.596	275.5345	339.8571	380.2355	398.6181	430.4903	460.6497	560.7725	681.9743	779.5023	823.6736	873.9248	903.8738	918.3554	967.8254	1003.7799	1026.9063	1039.9369	1067.4342	1081.9332	1119.4377	1152.1149	1180.2811	1214.1504	1243.3838	1259.6764	1279.9967	1295.6086	1314.4618	1333.1039	1369.0481	1389.8302	1407.7979	1423.8544	1430.0003	1457.7859	1473.2523	1478.3626	1503.0156	1520.4427	1740.8318	2911.0941	2951.848	2958.2494	2967.5754	2985.4414	3027.6252	3049.5277	3053.9518	3097.1842	3117.3908	3142.2188	3834.8972
OCC1COCC=CC1	OC[C@H]1COCC=CC1	
InChI=1S/C7H12O2/c8-5-7-3-1-2-4-9-6-7/h1-2,7-8H,3-6H2	InChI=1S/C7H12O2/c8-5-7-3-1-2-4-9-6-7/h1-2,7-8H,3-6H2/t7-/m0/s1
