21
gdb 95548	2.37867	1.73392	1.1432	1.	84.94	-0.2264	0.021	0.2474	1130.9185	0.184012	-387.083505	-387.075262	-387.074318	-387.116178	32.751	
C	 0.2034130943	 1.5563120271	 0.0021217508	-0.38827
C	 0.1748094052	 0.0296912534	-0.0594801913	 0.086947
O	 1.197050179	-0.3656128259	-0.9629499943	-0.248899
C	 0.9672880411	-1.5660197709	-1.6698051165	-0.136619
C	 1.0761519391	-2.8398089626	-0.8783383216	-0.07992
C	 1.0016860825	-3.0103364419	 0.4431066706	-0.053112
C	 0.7780921625	-2.0212490979	 1.5255142939	-0.080012
C	 1.752891878	-0.8847763217	 1.8235985524	-0.288691
C	 0.3707861896	-0.5797100381	 1.3208085593	-0.011853
H	 1.1747475894	 1.8995725114	 0.370349156	 0.127523
H	 0.041491033	 1.9787678556	-0.992892092	 0.116649
H	-0.5740805483	 1.9331986162	 0.673578705	 0.110048
H	-0.8014183625	-0.2934154942	-0.4587028488	 0.067096
H	-0.0181870105	-1.5255470602	-2.1707477282	 0.096765
H	 1.7167599027	-1.580717995	-2.471126246	 0.112147
H	 1.2344175486	-3.7226005996	-1.4962861389	 0.084049
H	 1.1160931058	-4.0299369516	 0.8074668305	 0.085111
H	 0.3553663898	-2.4781810129	 2.4163629053	 0.084101
H	 2.0019652378	-0.6773736858	 2.8585643029	 0.105892
H	 2.5620111218	-0.75775395	 1.1143876851	 0.131498
H	-0.3378816589	-0.1976845655	 2.052219666	 0.079551
65.3262	210.545	217.3781	227.5695	288.0871	325.6345	380.3666	406.2715	469.2097	585.2541	639.0763	714.6598	747.7885	761.7664	820.3912	853.9798	877.0614	906.5326	962.1223	991.5824	1002.9039	1021.3048	1034.8856	1056.4139	1079.7034	1124.1195	1138.3103	1147.1089	1159.9679	1177.0217	1228.6638	1270.2784	1293.9568	1340.2921	1380.373	1388.7616	1405.9478	1413.5337	1420.868	1435.5149	1476.8239	1485.1748	1488.1556	1498.2569	1734.9957	2928.4894	2957.9957	3039.8206	3042.7525	3115.7861	3121.0124	3123.3421	3128.0729	3134.691	3140.0557	3151.1232	3234.6447
CC1OCC=CC2CC12	C[C@H]1OCC=C[C@H]2C[C@@H]12	
InChI=1S/C8H12O/c1-6-8-5-7(8)3-2-4-9-6/h2-3,6-8H,4-5H2,1H3	InChI=1S/C8H12O/c1-6-8-5-7(8)3-2-4-9-6/h2-3,6-8H,4-5H2,1H3/t6-,7+,8+/m1/s1
