20
gdb 79058	2.53768	1.88543	1.44999	0.4607	84.22	-0.1997	0.0169	0.2166	996.4491	0.171538	-365.971254	-365.963375	-365.962431	-366.0031	31.714	
C	-0.0659386435	 1.5388444925	-0.055641841	-0.328575
N	 0.10694789	 0.0939777492	-0.0084652254	-0.069221
C	 0.6442775506	-0.5833142949	-1.1572555543	-0.020863
C	 2.2355851925	-0.6038026442	-1.191285445	-0.0974
C	 2.9448433932	 0.3376175324	-0.2957402777	-0.183338
C	 2.3968566288	 0.3156617494	 0.9325126767	 0.304948
C	 2.7396150448	 1.1579977592	 2.1196089521	-0.50003
C	 1.1720093515	-0.5727566494	 0.8664788264	-0.112618
C	 1.4291778979	-1.5418085196	-0.329748535	-0.118295
H	 0.8354172189	 2.0994062198	-0.3463549732	 0.104527
H	-0.8526189243	 1.7611856832	-0.7853221522	 0.116787
H	-0.4070388075	 1.8991426077	 0.9206058671	 0.115071
H	 0.071234831	-0.7074810539	-2.070014338	 0.095144
H	 2.6750590854	-0.963674399	-2.1143448216	 0.079526
H	 3.7440568437	 0.9940132843	-0.6212153696	 0.089106
H	 3.6529364542	 1.7347203459	 1.9472182378	 0.122594
H	 1.9386171346	 1.8683103095	 2.3634056837	 0.124786
H	 2.8915388704	 0.5424313894	 3.0157579082	 0.121808
H	 0.7661110393	-0.9446330182	 1.8088982178	 0.064601
H	 1.4656249284	-2.6232922235	-0.3225619767	 0.091441
152.4993	168.6389	193.1112	219.1429	300.2068	326.586	462.6091	529.743	571.4811	619.9913	642.6374	710.3573	784.1086	804.8075	831.9013	853.8227	886.341	893.9321	941.4534	966.1307	996.6289	1027.3593	1042.308	1061.2174	1082.8238	1092.4974	1151.6028	1165.6069	1185.9087	1213.3337	1226.2263	1260.9297	1269.6223	1314.9457	1348.174	1367.7039	1414.4867	1440.4339	1477.1764	1481.4068	1489.5507	1510.5756	1674.5716	2983.1054	3011.5353	3054.5427	3060.8978	3091.899	3095.2866	3104.2702	3166.1638	3180.2159	3194.0268	3199.9937
CN1C2C3C=C(C)C1C23	CN1[C@H]2[C@H]3C=C(C)[C@@H]1[C@@H]23	
InChI=1S/C8H11N/c1-4-3-5-6-7(4)9(2)8(5)6/h3,5-8H,1-2H3	InChI=1S/C8H11N/c1-4-3-5-6-7(4)9(2)8(5)6/h3,5-8H,1-2H3/t5-,6-,7+,8-/m0/s1
