17
gdb 20838	5.19079	1.31487	1.14746	0.3687	71.61	-0.2456	0.0027	0.2483	1085.0984	0.143472	-360.06151	-360.053299	-360.052355	-360.095528	28.356	
C	 0.0656141115	 1.4715137484	-0.3962112496	-0.368708
C	-0.0416464577	 0.0808696188	 0.2532751513	-0.287758
C	-1.4120114706	-0.5122327254	 0.1413603893	 0.307655
N	-2.374449528	-0.2552918851	 1.0354516956	-0.303848
N	-3.4312817734	-0.9145784679	 0.572316769	 0.15881
C	-4.6847958657	-0.9608743781	 1.295191985	-0.31001
N	-3.239133965	-1.594436017	-0.5511398416	-0.228073
C	-1.9608707313	-1.3488473327	-0.8453976663	-0.137759
H	 1.0789013749	 1.8719046116	-0.2930552215	 0.112705
H	-0.1758626319	 1.4276828294	-1.462922561	 0.118659
H	-0.6295284336	 2.171747394	 0.0760051753	 0.130193
H	 0.6801092988	-0.5989628575	-0.2130390812	 0.106883
H	 0.2258386646	 0.1510632159	 1.3124750015	 0.119713
H	-4.8985042568	 0.0294992289	 1.6991480093	 0.155414
H	-5.4634660276	-1.2628205633	 0.595848956	 0.160281
H	-4.6318149991	-1.6809235293	 2.1177775516	 0.148022
H	-1.505053979	-1.7689257309	-1.7283143827	 0.117821
35.7628	55.3128	133.8492	205.755	214.8667	294.487	408.3207	430.6349	622.6575	679.0651	738.4109	758.2095	792.162	871.4891	970.0961	1017.6894	1041.6714	1059.6991	1081.3925	1106.3263	1147.4603	1203.1666	1283.2963	1338.9765	1347.5759	1365.3196	1408.215	1427.1253	1446.1281	1448.9714	1482.2822	1483.5158	1497.2576	1504.6879	1508.0465	1554.5958	3037.9152	3043.3889	3053.0277	3081.9377	3109.6363	3118.3951	3130.4945	3174.8423	3262.8308
CCC1=NN(C)N=C1	CCc1nn(C)nc1	
InChI=1S/C5H9N3/c1-3-5-4-6-8(2)7-5/h4H,3H2,1-2H3	InChI=1S/C5H9N3/c1-3-5-4-6-8(2)7-5/h4H,3H2,1-2H3
