21
gdb 80427	2.538	1.72312	1.29035	1.7688	77.5	-0.2419	0.0801	0.3221	1066.6233	0.182555	-424.21891	-424.210298	-424.209354	-424.251467	34.4	
C	-0.1764694715	 1.5075381498	-0.0048421123	-0.414711
C	 0.0184391758	-0.0054865873	-0.0223383959	-0.024715
C	 1.0239450802	-0.5059442777	-1.0818749432	 0.073523
C	 1.2028508484	-1.9945663759	-0.7372659253	-0.289512
C	 1.9144460395	-1.3325792333	 0.4629335667	 0.372654
C	 3.0298697505	-1.9626884023	 1.2455537328	-0.497303
O	 2.3193141123	-0.2350585659	-0.4440245528	-0.350038
C	 0.7767669716	-0.6033170473	 1.2267337659	 0.112384
O	 1.2906542321	 0.3569418299	 2.1226117632	-0.436069
H	 0.7830612055	 2.0314149238	-0.05186057	 0.117378
H	-0.7697416978	 1.8257893413	-0.8684077148	 0.108905
H	-0.6910699342	 1.832831292	 0.9029832146	 0.128339
H	-0.9511925216	-0.4984316768	-0.1516605625	 0.070866
H	 0.9512996797	-0.1256851462	-2.1012235614	 0.077909
H	 0.3151341058	-2.6074546647	-0.5582708251	 0.094416
H	 1.9108533588	-2.4989512667	-1.3966913147	 0.108367
H	 3.8414120786	-2.2766072305	 0.5839347622	 0.125737
H	 3.4229369777	-1.2592881661	 1.9847196417	 0.133383
H	 2.6576318205	-2.8417877808	 1.7823303766	 0.123719
H	 0.1550450489	-1.2758800699	 1.8235276062	 0.080306
H	 1.9307637391	 0.8736744346	 1.615811488	 0.284462
108.1322	191.9885	209.3893	243.7877	271.0482	284.1027	318.1139	429.0408	459.0392	483.764	505.2658	624.6827	669.4749	734.3443	791.1796	826.5475	850.3695	854.7351	879.3559	929.2379	972.5426	1016.8959	1022.8336	1037.6754	1083.1492	1108.6594	1130.8645	1144.8959	1185.0664	1218.5167	1229.4176	1259.8941	1276.1062	1295.8972	1306.433	1340.396	1370.4451	1409.6465	1414.0639	1437.6334	1480.9135	1487.8374	1490.6409	1493.8831	1507.4193	3038.5854	3042.1715	3043.751	3061.2293	3081.505	3103.4922	3112.0422	3116.7309	3119.5458	3125.7486	3134.5539	3767.5761
CC1C2CC(C)(O2)C1O	C[C@H]1[C@@H]2C[C@@](C)(O2)[C@H]1O	
InChI=1S/C7H12O2/c1-4-5-3-7(2,9-5)6(4)8/h4-6,8H,3H2,1-2H3	InChI=1S/C7H12O2/c1-4-5-3-7(2,9-5)6(4)8/h4-6,8H,3H2,1-2H3/t4-,5-,6-,7+/m0/s1
