16
gdb 125929	4.7006	1.1735	0.97928	3.7855	71.57	-0.2261	0.0153	0.2414	1176.8505	0.126049	-434.063642	-434.056	-434.055056	-434.095988	28.752	
C	-0.5552205667	 1.5547420958	-0.2448578606	-0.403396
C	 0.1062930535	 0.2195803547	 0.027963955	 0.06217
C	 0.8723981306	-0.5219775865	-1.1532321843	-0.384035
C	 2.0737030281	-0.4490459749	-0.2282559683	 0.347535
N	 3.2304148528	-0.9038222154	 0.220190228	-0.453485
C	 3.2011376755	-0.385944918	 1.4986208464	 0.411962
O	 4.2285939122	-0.5529684771	 2.3391554792	-0.39852
N	 2.1207254665	 0.301270052	 1.8714908185	-0.353125
N	 1.4407141692	 0.2766395264	 0.6854970695	 0.059022
H	 0.1238651893	 2.224245423	-0.7806780605	 0.132535
H	-1.4555250935	 1.4103817943	-0.8506787488	 0.129212
H	-0.8494604589	 2.0380327513	 0.6912908843	 0.145301
H	-0.5645156556	-0.4627849379	 0.558995892	 0.116125
H	 0.5076427937	-1.5298939696	-1.3609202218	 0.141593
H	 0.9394701356	 0.0447466307	-2.0845604972	 0.134888
H	 4.8850833477	-1.0777150687	 1.8650009386	 0.31222
66.5953	184.0021	215.8349	259.2569	322.4604	382.9282	410.5837	421.0041	551.0455	622.6324	679.3436	735.1429	761.1768	813.9399	884.6733	913.7245	998.9085	1038.7461	1063.5352	1097.7915	1124.2649	1174.0469	1195.9207	1214.8469	1238.2782	1281.2277	1362.4764	1399.0236	1413.3323	1468.706	1485.612	1494.846	1505.4679	1558.1266	1621.4589	3041.5744	3067.1644	3076.5411	3115.7878	3122.6776	3132.7492	3811.5338
CC1CC2=NC(O)=NN12	C[C@H]1Cc2nc(O)nn12	
InChI=1S/C5H7N3O/c1-3-2-4-6-5(9)7-8(3)4/h3H,2H2,1H3,(H,7,9)	InChI=1S/C5H7N3O/c1-3-2-4-6-5(9)7-8(3)4/h3H,2H2,1H3,(H,7,9)/t3-/m0/s1
