21
gdb 117208	3.51381	0.90193	0.77127	3.5656	81.13	-0.241	-0.0084	0.2326	1545.7161	0.179416	-424.219821	-424.209523	-424.208579	-424.256033	36.824	
C	-0.108286985	 1.3616409323	-0.0381642532	-0.225258
O	 0.2791778117	 0.0174736846	 0.1210307044	-0.20813
C	 0.6116298089	-0.5955915872	-1.0858677611	-0.174728
C	 1.0209906414	-2.0459788314	-0.8421516772	 0.299525
O	 1.0280690715	-2.5176096853	 0.27212376	-0.308908
C	 1.4126579445	-2.8540326091	-2.0499962036	 0.233819
C	 1.3869837484	-2.2157440164	-3.4266304548	-0.489859
C	 2.4807766554	-3.9067116418	-1.7660520668	-0.273938
C	 1.0636584524	-4.335706678	-1.9385694145	-0.273933
H	 0.6979881783	 1.972589607	-0.4749405871	 0.103439
H	-0.9978732162	 1.4593474573	-0.6809720588	 0.103443
H	-0.3460774849	 1.7485818888	 0.9552288446	 0.13371
H	-0.2336291169	-0.5812229739	-1.7989474552	 0.106072
H	 1.4431829669	-0.0735570517	-1.5949051316	 0.106075
H	 2.0688253277	-1.3612368365	-3.4990746415	 0.122839
H	 1.6990871217	-2.9420995017	-4.1826029263	 0.119298
H	 0.3846142957	-1.8714222021	-3.7041942655	 0.122841
H	 3.1903073879	-4.1060188421	-2.5617728111	 0.113011
H	 2.8840129256	-3.9157192827	-0.7605148723	 0.138838
H	 0.521685839	-4.6308645987	-1.0481018981	 0.138838
H	 0.7748239561	-4.8372382816	-2.8558316704	 0.113009
30.8734	86.9008	93.8548	138.9841	213.0732	240.2638	280.9549	288.4717	298.8762	351.1428	372.6627	419.3383	569.4947	592.2586	772.6112	797.1971	826.2361	875.0385	937.1129	958.8659	987.3158	1025.9789	1052.6464	1076.4427	1090.4871	1098.6352	1117.8351	1175.3401	1183.0946	1205.5466	1239.9907	1262.7133	1312.533	1318.9863	1407.1867	1422.183	1450.4154	1465.2776	1482.9744	1486.3747	1490.0161	1495.333	1501.5637	1516.0314	1797.1721	2932.864	2951.9415	2968.0446	3010.8616	3028.256	3088.0161	3101.8204	3119.3946	3137.7302	3139.7025	3228.1757	3241.5248
COCC(=O)C1(C)CC1	COCC(=O)C1(C)CC1	
InChI=1S/C7H12O2/c1-7(3-4-7)6(8)5-9-2/h3-5H2,1-2H3	InChI=1S/C7H12O2/c1-7(3-4-7)6(8)5-9-2/h3-5H2,1-2H3
