15
gdb 80785	2.04349	1.82079	1.17322	3.0047	73.78	-0.2374	-0.004	0.2334	1047.0058	0.110921	-420.550173	-420.542103	-420.541158	-420.582595	30.932	
O	-0.0471214123	 1.4248101919	-0.0629326891	-0.429992
C	 0.0140523511	 0.0299396766	-0.0024770803	 0.113425
C	-0.0191675241	-0.6650692943	 1.415925215	-0.251936
C	-1.500903107	-0.1574064279	 1.5128072241	-0.270273
C	-1.3965665805	-0.6615436363	 0.0143652712	 0.095126
C	-2.3954909376	-0.6528707075	-1.0018148965	 0.041179
C	-3.2366238229	-0.6628238686	-1.8613543187	-0.343265
C	-0.6258793156	-1.8460361057	 0.6643056138	 0.414032
O	-0.5833793143	-3.0331818057	 0.6172223188	-0.310134
H	 0.8379190594	 1.7733656501	 0.0834437555	 0.295356
H	 0.7326848714	-0.3784659205	-0.7217454343	 0.096709
H	 0.7456193254	-0.6561060371	 2.187702977	 0.101295
H	-2.1789422285	-0.7044729979	 2.1674491146	 0.123218
H	-1.6024504938	 0.9212337216	 1.5996157555	 0.140782
H	-3.9797064307	-0.6731327988	-2.6199247166	 0.184478
114.7634	151.6243	172.6258	266.0539	285.501	361.6176	376.7692	492.4093	549.9879	560.8411	617.0001	628.8925	650.4165	719.1815	773.1573	789.6102	810.3814	921.4336	933.9203	1003.1178	1054.9807	1082.9197	1120.9508	1137.0032	1169.6694	1180.8048	1217.1198	1288.1613	1329.7441	1437.1318	1505.3929	1925.2875	2237.7598	3045.022	3100.9595	3163.6674	3189.0283	3500.8999	3822.8623
OC1C2CC1(C#C)C2=O	O[C@H]1[C@H]2C[C@]1(C#C)C2=O	
InChI=1S/C7H6O2/c1-2-7-3-4(5(7)8)6(7)9/h1,4-5,8H,3H2	InChI=1S/C7H6O2/c1-2-7-3-4(5(7)8)6(7)9/h1,4-5,8H,3H2/t4-,5+,7+/m1/s1
