19
gdb 50766	2.98339	1.19671	0.91762	0.8377	71.92	-0.2571	-0.0314	0.2258	1250.7803	0.159741	-460.164703	-460.156223	-460.155279	-460.198399	31.199	
O	-0.6751791889	 0.8071187069	-0.6229684875	-0.238571
C	 0.1318574831	 1.0204251873	 0.2446367768	 0.139825
C	 1.3526103071	 1.9120541115	 0.1075968612	-0.092459
C	 1.4307094537	 2.5904571289	-1.2649067039	-0.246149
C	 2.848197796	 3.0210506064	-1.6672861502	-0.086516
O	 3.6852583919	 3.4576031991	-0.5987927792	-0.235292
C	 3.117753219	 4.2803403156	 0.3782452235	 0.014142
O	 2.6118870052	 3.5603238198	 1.4758384304	-0.229502
C	 1.3652163472	 2.9317136231	 1.2708440674	-0.093696
H	 0.0270606506	 0.5463892449	 1.2482653471	 0.082852
H	 2.2205752713	 1.2534684119	 0.2679646988	 0.119364
H	 1.0385233158	 1.914864098	-2.0313623279	 0.128057
H	 0.7533374287	 3.4522787732	-1.2632534219	 0.109191
H	 3.3875697484	 2.1738919096	-2.1025681781	 0.117371
H	 2.7873928307	 3.8012415707	-2.4406689045	 0.09966
H	 3.9294690601	 4.8884317481	 0.7846807555	 0.118892
H	 2.3382737855	 4.9347622304	-0.0486128062	 0.079441
H	 0.5803539584	 3.6850654125	 1.0887833218	 0.100804
H	 1.1341216064	 2.4308556223	 2.2168850669	 0.112587
65.6151	100.6085	167.4613	199.6174	254.5167	304.1632	368.5668	386.0486	446.7742	519.9061	618.7479	696.3671	797.7177	828.8286	900.1412	916.3627	948.5549	982.199	1008.5082	1049.934	1096.2518	1121.1217	1131.8992	1163.9844	1202.9035	1230.6647	1270.3123	1287.0049	1291.7639	1335.7261	1346.7826	1385.8602	1409.2216	1411.4873	1435.3475	1443.6744	1488.282	1493.1107	1504.7411	1515.2625	1829.0072	2862.7065	2954.7401	2966.6109	2994.7165	3003.5166	3043.9286	3071.002	3071.4043	3092.5078	3101.9956
O=CC1CCOCOC1	O=C[C@H]1CCOCOC1	
InChI=1S/C6H10O3/c7-3-6-1-2-8-5-9-4-6/h3,6H,1-2,4-5H2	InChI=1S/C6H10O3/c7-3-6-1-2-8-5-9-4-6/h3,6H,1-2,4-5H2/t6-/m1/s1
