18
gdb 36612	3.32576	1.12217	0.94412	1.7648	76.88	-0.2218	0.0382	0.26	1249.7632	0.146414	-401.847687	-401.839019	-401.838075	-401.881631	32.699	
C	-0.6148930989	 0.0844999436	 0.984228449	-0.468557
C	-0.0001561652	 0.5349583367	 0.0535221633	 0.317032
C	 0.7888114079	 1.0932313612	-1.0517898255	-0.331019
N	 1.8798622618	 1.991457457	-0.6525813186	-0.365254
C	 1.4682065314	 3.2003983632	-0.0358728557	 0.290786
C	 1.0053845279	 4.3829541666	-0.8680498168	-0.318376
C	 2.173885	 4.5341904405	 0.0591290649	 0.032842
O	 1.7299374568	 4.7619849941	 1.397411016	-0.286856
C	 1.0843913019	 3.4584602244	 1.4293682634	-0.128042
H	-1.1653505017	-0.315607847	 1.7996777091	 0.201391
H	 1.2195363568	 0.2745515305	-1.6399253998	 0.133538
H	 0.130314712	 1.6503266982	-1.728080475	 0.143623
H	 2.5391819633	 1.4916028141	-0.0642130101	 0.225609
H	 1.2625521767	 4.2958583333	-1.9189015261	 0.119423
H	 0.0743290423	 4.8971368676	-0.6463136705	 0.114606
H	 3.1665282389	 4.8677301743	-0.2194898004	 0.108508
H	 0.0211924458	 3.5199638917	 1.6851982187	 0.108905
H	 1.5983195024	 2.7922854699	 2.1330064442	 0.101841
53.1294	69.8777	170.5727	203.3552	305.5147	334.0816	359.123	402.0831	463.2509	575.0094	623.7935	648.591	659.8276	745.3621	768.2754	872.201	891.3542	921.1555	926.5695	984.1924	990.8332	1003.1666	1037.4966	1050.2043	1079.5441	1088.341	1121.0256	1152.4195	1209.8988	1275.3882	1279.874	1307.0932	1359.3969	1413.1186	1460.227	1482.8612	1494.4185	1513.1241	2226.1155	3022.5286	3035.2062	3071.6742	3078.6199	3117.4722	3186.5992	3215.9732	3503.2144	3515.0802
C#CCNC12CC1OC2	C#CCN[C@]12C[C@H]1OC2	
InChI=1S/C7H9NO/c1-2-3-8-7-4-6(7)9-5-7/h1,6,8H,3-5H2	InChI=1S/C7H9NO/c1-2-3-8-7-4-6(7)9-5-7/h1,6,8H,3-5H2/t6-,7+/m1/s1
