14
gdb 14498	3.75991	2.07096	1.57103	4.1935	62.21	-0.26	0.0179	0.2779	795.9314	0.107528	-378.648712	-378.641819	-378.640875	-378.679528	26.328	
N	 0.0049590154	 1.5104232757	-0.0567164868	-0.572681
C	-0.0035152383	 0.0639182745	-0.013782478	 0.161855
C	 0.9432996661	-0.5666259822	-0.9452205001	 0.235064
N	 1.721255491	-0.9426976867	-1.7139277983	-0.33628
C	-0.1121667606	-0.6476811526	 1.3775352539	 0.033514
C	-1.5534735237	-0.115119764	 1.5398610479	-0.237058
C	-1.377559932	-0.6778433637	 0.1116694264	 0.033515
O	-0.6488562242	-1.8313455755	 0.6764769035	-0.294061
H	 0.9356344792	 1.8599855357	 0.1548084862	 0.248776
H	-0.2141646051	 1.8325804732	-0.9954884717	 0.248776
H	 0.677440435	-0.8062843399	 2.1112699071	 0.113461
H	-2.1829838113	-0.7279848458	 2.1837393103	 0.119849
H	-1.6962892647	 0.9570589767	 1.6570750482	 0.131806
H	-2.1067886066	-0.8726508053	-0.6739999287	 0.113462
152.6901	173.0575	226.4136	321.2146	335.8546	488.0205	499.5434	548.1243	638.1563	669.0558	762.7584	807.8151	870.9411	895.0872	898.1995	927.8622	1009.7596	1047.6118	1093.1517	1136.2804	1159.8843	1177.3496	1208.1283	1219.9837	1276.8031	1280.711	1289.8973	1469.9113	1660.1755	2344.6123	3102.3926	3129.5039	3134.9478	3187.7269	3491.048	3564.7084
NC1(C#N)C2CC1O2	N[C@@]1(C#N)[C@H]2C[C@@H]1O2	
InChI=1S/C5H6N2O/c6-2-5(7)3-1-4(5)8-3/h3-4H,1,7H2	InChI=1S/C5H6N2O/c6-2-5(7)3-1-4(5)8-3/h3-4H,1,7H2/t3-,4+,5+
