22
gdb 120295	2.68635	1.1573	0.98434	2.8982	83.27	-0.2425	0.0827	0.3253	1316.3183	0.193811	-404.304293	-404.294965	-404.294021	-404.338718	35.556	
C	 0.5244588742	 1.2514775728	 0.0970476933	-0.486561
C	 0.1385498416	-0.1967300307	 0.166317184	 0.332908
C	-1.2552966794	-0.7640196528	-0.1822575371	-0.288802
C	-1.0848584192	-1.8318337589	 0.9426957615	-0.24076
C	 0.2984496695	-1.2350810329	 1.2600530726	-0.096252
N	 1.1699403303	-1.2206201026	 0.1050785723	-0.127346
C	 1.2262817913	-2.2916885612	-0.887123934	-0.164429
C	 2.2235792712	-1.8785538062	-1.9705270983	-0.043436
O	 3.4853337859	-1.5741135334	-1.4158020442	-0.422912
H	 1.4927159791	 1.413290868	 0.578115112	 0.128085
H	 0.6049723313	 1.5882636151	-0.9436528449	 0.123866
H	-0.2223392047	 1.881354675	 0.5923129252	 0.117718
H	-2.0499834462	-0.050262	 0.0469526261	 0.107253
H	-1.4009067584	-1.1200956251	-1.2067890359	 0.100176
H	-1.7971955013	-1.6925756987	 1.758508313	 0.106673
H	-1.0996328696	-2.8842911265	 0.6446001643	 0.103188
H	 0.7482624242	-1.1524502765	 2.244788346	 0.089856
H	 1.5980120382	-3.1895631511	-0.3803291462	 0.109847
H	 0.2577960757	-2.5385943104	-1.345309025	 0.089766
H	 2.3639557708	-2.6980619723	-2.6840599966	 0.100619
H	 1.8127246344	-1.0208924151	-2.5316034077	 0.078785
H	 3.2847018111	-1.0708138767	-0.6146509603	 0.281758
44.1996	115.8038	156.4536	201.1996	225.6573	243.6741	317.2129	334.3085	438.7367	497.9114	515.0286	547.7119	630.1063	710.2227	785.3461	791.0082	886.6107	904.516	919.0093	936.0708	955.9637	973.8164	1002.6411	1029.116	1092.8619	1116.3035	1131.2288	1142.9172	1158.9926	1208.0671	1216.726	1225.025	1239.4483	1269.9312	1274.942	1287.3614	1376.0486	1382.6693	1404.2514	1440.2946	1446.2456	1469.2379	1485.2397	1488.2001	1493.568	1505.6572	1511.4086	2951.4572	2999.3182	3026.5646	3051.9522	3060.0701	3061.5128	3069.6924	3085.7364	3100.3959	3117.0269	3118.8117	3157.3202	3744.5979
CC12CCC1N2CCO	C[C@]12CC[C@H]1N2CCO	
InChI=1S/C7H13NO/c1-7-3-2-6(7)8(7)4-5-9/h6,9H,2-5H2,1H3	InChI=1S/C7H13NO/c1-7-3-2-6(7)8(7)4-5-9/h6,9H,2-5H2,1H3/t6-,7+,8?/m1/s1
