21
gdb 82202	2.35789	1.77726	1.31413	1.0481	80.49	-0.2399	0.0758	0.3157	1057.1835	0.183193	-387.069167	-387.0609	-387.059956	-387.101274	33.862	
C	-0.0053175378	 1.6026125343	-0.0063189207	-0.398204
C	 0.0482887918	 0.0711847086	-0.0134801328	-0.061047
C	 0.7289109821	-0.5606101822	-1.2337977508	-0.045589
C	 2.1986410866	-0.3528645886	-1.5048872377	-0.303448
C	 1.745388231	-1.5801296811	-0.7520989057	-0.039589
C	 1.7326816875	-1.5664093703	 0.7638949653	-0.092724
C	 2.1729692127	-0.3164913719	 1.5130764602	-0.367673
C	 0.7149477031	-0.5581765971	 1.2260698284	 0.393738
O	-0.1283502678	-0.8625448764	 2.301162052	-0.470314
H	 0.998341141	 2.0389300716	-0.0283947682	 0.113118
H	-0.5525155762	 1.9837745417	-0.8743883679	 0.114188
H	-0.5120895529	 1.9731655062	 0.8922451061	 0.102601
H	-0.9811891522	-0.3071124392	 0.0101452371	 0.085733
H	 0.0966871016	-0.7690534913	-2.0904466752	 0.081728
H	 2.5233948883	-0.4984839625	-2.5300437472	 0.107094
H	 2.7508818186	 0.424735758	-0.9900887196	 0.108512
H	 1.848979757	-2.5452264588	-1.2343256437	 0.082102
H	 1.834414779	-2.5127066504	 1.28189781	 0.091529
H	 2.4731313172	-0.4742174606	 2.5442303642	 0.108398
H	 2.7243013358	 0.4675615248	 1.0072735236	 0.109563
H	-0.1932273163	-0.0803955348	 2.8595691127	 0.280283
133.9449	200.8133	225.2867	239.0586	279.9527	313.5793	398.5128	415.5336	490.369	547.6463	600.7437	655.7503	672.7193	776.481	800.127	821.4197	886.9137	914.3345	925.6501	933.7534	979.7287	1001.7406	1033.6856	1039.3427	1050.7042	1066.8384	1076.2722	1104.71	1106.8946	1120.1056	1133.38	1205.0257	1217.0319	1269.581	1308.1069	1327.2471	1348.0651	1361.4783	1380.5449	1399.1672	1410.1727	1479.2373	1494.5667	1497.3498	1506.9832	3027.6072	3030.8328	3091.2621	3103.0972	3129.9996	3137.3976	3157.549	3170.499	3185.0693	3212.2397	3219.2037	3797.316
CC1C2CC2C2CC12O	C[C@H]1[C@H]2C[C@H]2[C@H]2C[C@@]12O	
InChI=1S/C8H12O/c1-4-5-2-6(5)7-3-8(4,7)9/h4-7,9H,2-3H2,1H3	InChI=1S/C8H12O/c1-4-5-2-6(5)7-3-8(4,7)9/h4-7,9H,2-3H2,1H3/t4-,5+,6+,7+,8+/m0/s1
