17
gdb 71333	3.27917	1.43232	1.18628	2.6687	74.34	-0.2359	0.0155	0.2514	1051.7019	0.135484	-417.917561	-417.90986	-417.908915	-417.949865	29.463	
C	-0.1818722662	 1.3833789072	 0.207192873	-0.532948
C	-0.0433795584	-0.0976748408	 0.0391496926	 0.342474
N	 0.6316036637	-0.7569494484	-1.129401031	-0.372746
C	 0.1849910823	-1.9092925523	-0.2881285655	-0.035749
C	 0.5569307583	-1.1690247506	 1.0268940589	-0.072776
N	-0.7587942662	-1.4914201357	 1.6401428431	-0.074636
C	-1.3333863258	-0.9167681358	 2.7411407215	 0.130877
O	-2.5017994914	-0.6067967982	 2.8334590255	-0.321845
C	-1.131508702	-1.2390479503	 0.2254646016	-0.084151
H	 0.7998738045	 1.8659548302	 0.1841185924	 0.138941
H	-0.7931486734	 1.8105262642	-0.5948052046	 0.1317
H	-0.6680116319	 1.6166477364	 1.1596409536	 0.14753
H	 0.0462882839	-0.6806992878	-1.9656155627	 0.212661
H	 0.3597360272	-2.9545810474	-0.5394293391	 0.099101
H	 1.5012270817	-1.1599127713	 1.5683963128	 0.108061
H	-0.6161713521	-0.8412458106	 3.585006389	 0.072322
H	-2.1514119343	-1.3057218386	-0.1491731511	 0.111185
81.3208	166.4774	210.4806	230.2258	290.0685	323.0196	457.8965	515.5649	602.4268	683.6312	727.1158	757.3522	795.7515	823.4567	847.4088	900.9894	948.9225	987.6397	1026.5632	1035.2601	1083.3158	1094.106	1103.937	1123.4476	1160.1631	1165.085	1188.2855	1224.3543	1272.7596	1311.1505	1357.6418	1383.9752	1413.6045	1420.762	1478.0666	1488.9978	1786.6393	2917.3422	3036.7812	3105.5237	3116.9318	3129.1321	3143.196	3149.1969	3404.6044
CC12NC3C1N(C=O)C23	C[C@@]12N[C@H]3[C@@H]1N(C=O)[C@@H]23	
InChI=1S/C6H8N2O/c1-6-4-3(7-6)5(6)8(4)2-9/h2-5,7H,1H3	InChI=1S/C6H8N2O/c1-6-4-3(7-6)5(6)8(4)2-9/h2-5,7H,1H3/t3-,4-,5+,6+
