18
gdb 52441	5.70122	0.51797	0.50161	5.0679	75.02	-0.253	0.0176	0.2706	2089.7964	0.147445	-435.287173	-435.277016	-435.276072	-435.324531	33.996	
O	 0.6273081277	 0.519244222	 1.2314316316	-0.323523
C	 0.2721108138	 1.2923764804	 0.3668009999	 0.153104
N	 1.045714648	 1.6895389476	-0.6787138797	-0.267666
C	 2.4049005281	 1.208818363	-0.8581960397	-0.185605
C	 3.430594386	 2.0233552366	-0.0615326978	-0.121781
N	 4.7686753348	 1.4866763884	-0.2886321629	-0.302435
C	 5.8019212118	 2.2389293283	 0.4134909526	-0.261323
C	 7.1282915983	 1.6619570316	 0.1759094093	 0.2574
N	 8.1718933069	 1.1973640517	 0.0064198374	-0.295424
H	-0.7351851632	 1.7526983478	 0.3381257386	 0.080067
H	 0.6684280685	 2.3578247479	-1.3305725537	 0.252876
H	 2.4294169659	 0.1666245121	-0.5241229787	 0.14025
H	 2.6583981068	 1.2318965613	-1.9211752972	 0.124525
H	 3.417583655	 3.0654827946	-0.4065663099	 0.103284
H	 3.1320033228	 2.0281703686	 1.0002743088	 0.115171
H	 4.8038846605	 0.5162165894	 0.0096973596	 0.237262
H	 5.8038150177	 3.2698084894	 0.0375344889	 0.156611
H	 5.6500209607	 2.3061593092	 1.5062580829	 0.137207
36.204	41.0522	90.0847	105.0402	127.443	176.7201	266.9804	278.8724	369.1259	393.3343	428.6493	512.9022	586.9981	734.6167	783.7279	839.1351	938.7152	976.5543	999.9104	1032.5601	1038.6347	1092.664	1145.8648	1158.3342	1205.7078	1237.2221	1286.4566	1319.453	1339.3002	1383.9729	1425.0223	1429.2713	1471.655	1489.5121	1498.4904	1516.5553	1527.0644	1803.4833	2369.3544	2941.3894	2942.3483	2967.4815	3037.7266	3047.3849	3058.5314	3113.0545	3511.6637	3644.5719
O=CNCCNCC#N	O=CNCCNCC#N	
InChI=1S/C5H9N3O/c6-1-2-7-3-4-8-5-9/h5,7H,2-4H2,(H,8,9)	InChI=1S/C5H9N3O/c6-1-2-7-3-4-8-5-9/h5,7H,2-4H2,(H,8,9)
