13
gdb 33278	3.39685	0.84572	0.70874	1.6853	89.4	-0.2515	-0.0401	0.2113	1511.7408	0.084952	-382.165328	-382.156434	-382.15549	-382.199277	32.391	
C	 0.0634965777	-3.7424310229	-0.0441236178	-0.566202
C	 0.0408291966	-2.5354935986	-0.0192776306	 0.293765
C	 0.0139612567	-1.176744282	 0.0087013416	-0.266114
C	-0.0019015068	 0.0326628091	 0.038824681	 0.450363
C	-0.0451126718	 1.4721354682	 0.0685798149	 0.042539
C	 0.5530122286	 2.1951290466	 1.2261524797	-0.202722
O	 1.2376225664	 2.1389440211	-0.0107486227	-0.246837
C	-1.1203050094	 2.0874533333	-0.6728979315	 0.268015
C	-2.0240367833	 2.5881224834	-1.2851028642	-0.448281
H	 0.0853242518	-4.8039271727	-0.0667766984	 0.198187
H	 0.134454578	 3.1629125188	 1.4964966965	 0.13489
H	 0.9816953387	 1.6080327723	 2.0362966677	 0.133911
H	-2.8197185034	 3.0306156334	-1.832542446	 0.208486
66.0705	98.756	166.7366	215.7703	235.1204	258.4463	424.1871	454.1362	496.3231	525.4738	537.0159	573.95	581.034	603.8107	612.3109	632.3326	670.9793	802.8654	854.4283	942.9675	1042.1	1136.0491	1167.485	1283.2464	1326.9563	1509.4751	2184.4437	2246.0846	2361.0528	3088.6255	3188.0994	3500.4582	3502.7946
C#CC#CC1(CO1)C#C	C#CC#C[C@]1(CO1)C#C	
InChI=1S/C8H4O/c1-3-5-6-8(4-2)7-9-8/h1-2H,7H2	InChI=1S/C8H4O/c1-3-5-6-8(4-2)7-9-8/h1-2H,7H2/t8-/m0/s1
