16
gdb 131450	3.05162	1.30964	0.97434	2.1496	70.58	-0.2461	-0.0002	0.2459	1176.3635	0.125167	-437.867104	-437.85938	-437.858435	-437.900409	29.051	
O	-0.7379428203	 1.1222730434	 0.3060455013	-0.414614
C	-0.2060168567	-0.0948137738	 0.1113071751	 0.385893
N	-0.2117417891	-0.6805883208	-1.0596333032	-0.2547
O	 0.4286657495	-1.9051973408	-0.848425962	-0.17816
C	 0.7914830534	-1.9824594394	 0.4419404045	 0.002038
C	 0.4212765426	-0.8737663364	 1.1348635945	 0.069423
C	 0.5954243506	-0.5090813566	 2.5547778337	-0.121924
C	-0.4327671828	-0.9172545408	 3.5931873882	-0.247149
C	 0.9335216699	-1.5487455129	 3.5945024294	-0.277378
H	-1.0827368169	 1.431608777	-0.5423646213	 0.312374
H	 1.3104064336	-2.8844724456	 0.727754999	 0.15016
H	 1.0308478664	 0.4743497246	 2.7073907734	 0.103468
H	-0.6764287017	-0.202856791	 4.3712559397	 0.118416
H	-1.2673560254	-1.5213441691	 3.2560285889	 0.120049
H	 1.0098862606	-2.5834075962	 3.2791300826	 0.113741
H	 1.6329241763	-1.2726625816	 4.3752084563	 0.118364
31.3651	148.9783	153.5462	294.0013	317.6839	407.2944	476.0652	521.7344	585.5349	603.261	737.8532	748.9962	794.737	827.8439	849.4367	903.6063	925.3591	929.6485	956.5776	1061.1458	1083.816	1092.0314	1129.9986	1158.4194	1189.4793	1197.9821	1222.7215	1249.3983	1309.8548	1413.1385	1468.2277	1492.2453	1503.0387	1563.3711	1680.8922	3137.0204	3140.6047	3144.6805	3216.563	3232.4873	3261.1042	3780.111
OC1=NOC=C1C1CC1	Oc1nocc1C1CC1	
InChI=1S/C6H7NO2/c8-6-5(3-9-7-6)4-1-2-4/h3-4H,1-2H2,(H,7,8)	InChI=1S/C6H7NO2/c8-6-5(3-9-7-6)4-1-2-4/h3-4H,1-2H2,(H,7,8)
