17
gdb 97036	3.16784	1.30547	0.94079	3.4262	73.76	-0.2479	-0.0014	0.2465	1215.7339	0.135946	-455.2075	-455.198386	-455.197442	-455.242077	31.422	
C	 0.0272161892	 1.4142253817	 0.0937845429	-0.333956
N	 0.0831512189	-0.0335545682	 0.0421757152	-0.3176
C	 0.5613739011	-0.5984156191	-0.9825452229	 0.376101
C	 1.1404935319	-0.056623874	-2.2841366296	-0.195
O	 1.5077212562	-1.2162516574	-3.0347490552	-0.242621
C	 1.2123465417	-2.346231977	-2.3299202592	 0.500488
O	 1.4176799043	-3.4564244968	-2.7282135971	-0.386672
N	 0.6535317147	-1.9726573555	-1.1177735888	-0.190727
C	 0.2189712693	-2.9247693471	-0.1166447292	-0.339188
H	 0.5883719933	 1.7688834745	 0.9660526258	 0.134763
H	 0.4199083075	 1.9323810811	-0.7936330954	 0.104808
H	-1.0116938664	 1.7330844157	 0.2371217279	 0.134753
H	 0.408093168	 0.5250499614	-2.8526648808	 0.148438
H	 2.0279396914	 0.5617705458	-2.1169010238	 0.148445
H	 0.4175522617	-3.923135301	-0.5064764138	 0.164994
H	 0.7645428862	-2.7672600471	 0.8176727993	 0.146485
H	-0.8486443891	-2.801765907	 0.0845412946	 0.146488
77.277	90.3303	99.854	168.71	197.6465	198.0955	288.7379	290.5545	418.4702	551.2458	580.0037	637.4755	686.1403	765.4664	768.851	937.5133	1024.0871	1068.1241	1083.3581	1121.748	1126.3302	1129.364	1163.7471	1171.4498	1218.6651	1332.7473	1364.1478	1422.0148	1448.529	1471.1771	1482.8906	1484.3645	1499.0139	1506.076	1516.242	1784.7683	1895.5558	2989.3986	3050.4393	3052.2879	3062.3811	3076.0382	3092.8038	3114.5794	3164.5502
CN=C1COC(=O)N1C	CN=C1COC(=O)N1C	
InChI=1S/C5H8N2O2/c1-6-4-3-9-5(8)7(4)2/h3H2,1-2H3	InChI=1S/C5H8N2O2/c1-6-4-3-9-5(8)7(4)2/h3H2,1-2H3
