19
gdb 90907	3.53269	1.49869	1.42361	1.7652	80.3	-0.222	0.0076	0.2297	1000.6568	0.159428	-385.763142	-385.755909	-385.754965	-385.794227	30.297	
C	-0.3887324168	 1.4847934279	-0.1735388506	-0.405156
C	 0.031305281	 0.0359349849	-0.0365587894	 0.036223
O	 1.173894327	-0.3096673404	-0.9407809179	-0.331666
C	 2.0509708339	-0.1291173091	 0.2149303191	 0.15391
C	 2.9249408862	-0.9495004587	 1.2618408545	-0.153217
C	 1.9921479569	-0.1239243852	 2.3041615353	-0.313179
C	 0.9283902177	-0.4318457301	 1.1541050651	 0.161516
C	 0.9453970821	-1.9728899377	 1.2025468111	-0.093143
C	 2.2326737845	-2.3019302526	 1.2848890966	-0.077629
H	 0.4240334358	 2.1722752882	 0.0751549653	 0.120168
H	-0.7041001495	 1.6866852838	-1.2014134999	 0.131341
H	-1.2330474463	 1.6938646875	 0.4919494841	 0.119802
H	-0.8070519887	-0.6376511262	-0.2439705113	 0.084985
H	 2.4055536792	 0.9077214552	 0.2028750278	 0.080363
H	 4.0130110043	-0.8905378296	 1.3087415841	 0.068967
H	 1.8385267521	-0.6056319787	 3.2717499075	 0.11035
H	 2.2681106122	 0.9274565467	 2.4205194557	 0.107252
H	 0.058804245	-2.591945935	 1.1845487939	 0.095419
H	 2.7110979435	-3.2681263808	 1.3503319291	 0.103695
172.5672	214.6051	226.6245	331.6881	361.5385	464.2926	486.7761	529.7927	596.8298	684.1191	716.5072	751.0092	789.7826	811.6518	836.3421	845.9644	907.555	932.5669	957.4452	966.5114	978.4561	1007.8767	1024.3792	1052.6748	1092.0479	1117.4843	1120.068	1153.26	1186.4672	1195.2498	1221.8425	1249.0797	1272.0607	1325.9493	1363.5386	1399.8291	1409.6574	1481.5237	1485.6498	1493.1066	1638.5518	3033.3167	3040.58	3049.1238	3061.2564	3109.8396	3112.3693	3121.5086	3136.7032	3216.1597	3247.0352
CC1OC2C3CC12C=C3	C[C@H]1O[C@@H]2[C@H]3C[C@@]12C=C3	
InChI=1S/C8H10O/c1-5-8-3-2-6(4-8)7(8)9-5/h2-3,5-7H,4H2,1H3	InChI=1S/C8H10O/c1-5-8-3-2-6(4-8)7(8)9-5/h2-3,5-7H,4H2,1H3/t5-,6-,7-,8+/m1/s1
