15
gdb 98374	2.22271	1.1964	0.8149	2.839	68.9	-0.2632	-0.0515	0.2118	1331.6567	0.107416	-457.738249	-457.728353	-457.727409	-457.774499	33.787	
O	-0.0941863004	 1.435369377	-0.5375288412	-0.417182
C	-0.6175561604	 0.1752983801	-0.8283277119	-0.135202
C	-1.00445928	-0.5696340837	 0.434097207	 0.350935
O	-0.9101891855	-0.0341583859	 1.5152227192	-0.306659
C	-1.4809870951	-2.0305300934	 0.3272855797	-0.348696
C	-2.2167366136	-2.4166618278	 1.6284933968	 0.183835
O	-1.8297035127	-3.2712275784	 2.3715491192	-0.227011
C	-2.333299374	-2.2879237224	-0.8244210187	 0.28665
C	-3.0856273142	-2.5097072414	-1.7352233355	-0.43478
H	-0.1592554718	 1.5342982991	 0.4246533532	 0.298326
H	-1.514693648	 0.2414788674	-1.4644582799	 0.138022
H	 0.1048013238	-0.4415020031	-1.3881025068	 0.126526
H	-0.5767116183	-2.6531737472	 0.2805148507	 0.160418
H	-3.1490946264	-1.8434621046	 1.8033307279	 0.108581
H	-3.7350433734	-2.7082641157	-2.5525661797	 0.216239
32.3633	71.3236	96.6404	121.0054	182.1128	200.4537	297.3931	354.564	362.6957	416.4666	475.5502	495.7275	515.5057	645.7281	665.2737	717.3509	823.1945	909.7803	990.3522	1035.6088	1074.8208	1101.2988	1151.0265	1214.5715	1241.5265	1273.1281	1313.066	1412.8657	1446.395	1482.1455	1791.7916	1850.3598	2233.5905	2936.0876	2982.2188	3001.1599	3027.3679	3498.6724	3709.2066
OCC(=O)C(C=O)C#C	OCC(=O)[C@@H](C=O)C#C	
InChI=1S/C6H6O3/c1-2-5(3-7)6(9)4-8/h1,3,5,8H,4H2	InChI=1S/C6H6O3/c1-2-5(3-7)6(9)4-8/h1,3,5,8H,4H2/t5-/m1/s1
