19
gdb 58454	2.58154	1.33202	1.11482	3.8593	71.2	-0.2732	0.0113	0.2845	1166.8355	0.157015	-460.202921	-460.193594	-460.192649	-460.236855	35.19	
C	-0.0177298752	 1.6380787307	 0.0764516978	-0.421649
C	 0.0484555841	 0.1212846212	-0.1127084974	 0.086367
O	 0.9748564787	-0.4641315216	 0.7908041135	-0.437673
C	-1.3212333289	-0.5683613137	 0.0079477244	 0.404179
C	-2.3924960908	-0.0258899883	-0.919227653	-0.458734
C	-1.2629704901	-2.1078993666	 0.1446475775	-0.467285
C	-1.7390513473	-1.8497601132	 1.5686300321	 0.438326
O	-2.0144647415	-2.4760652005	 2.5400514218	-0.316517
O	-1.7710825878	-0.4818109619	 1.4249927917	-0.296105
H	 0.9974528177	 2.0419604036	 0.087849728	 0.131331
H	-0.5728105334	 2.1289433112	-0.727315318	 0.122197
H	-0.5027030387	 1.8852354487	 1.0271768158	 0.133421
H	 0.4415512458	-0.1084131389	-1.1111154382	 0.097087
H	 0.6813756172	-0.2409945932	 1.6825015143	 0.292192
H	-2.0683641483	-0.1045102406	-1.962481137	 0.128558
H	-3.320650393	-0.5927077456	-0.8056733052	 0.130902
H	-2.6095508286	 1.0228813946	-0.7040497135	 0.140122
H	-1.9630077129	-2.6725661911	-0.4730702968	 0.134696
H	-0.2662405271	-2.5451401749	 0.0971559023	 0.158586
79.5479	82.8013	208.1575	216.7094	252.9695	272.2918	340.4575	356.2334	380.5599	412.0641	467.0255	526.9329	534.0496	577.3726	634.5236	800.8449	839.7032	865.1015	918.8258	949.2331	975.1153	1018.4782	1059.3987	1079.9064	1102.2303	1126.8489	1185.9128	1220.314	1255.9579	1270.2627	1307.2282	1353.821	1403.2111	1413.4825	1420.4991	1440.9605	1484.7106	1489.401	1498.4515	1504.9483	1938.4484	3036.2679	3042.3678	3043.9203	3095.1544	3112.9457	3114.8348	3125.9794	3131.5385	3161.7525	3791.7394
CC(O)C1(C)CC(=O)O1	C[C@@H](O)[C@@]1(C)CC(=O)O1	
InChI=1S/C6H10O3/c1-4(7)6(2)3-5(8)9-6/h4,7H,3H2,1-2H3	InChI=1S/C6H10O3/c1-4(7)6(2)3-5(8)9-6/h4,7H,3H2,1-2H3/t4-,6-/m1/s1
