20
gdb 6777	7.17518	0.7035	0.65366	1.6842	73.41	-0.2459	-0.0112	0.2347	1740.1457	0.173289	-386.161004	-386.150658	-386.149714	-386.197914	34.639	
C	-0.1279437948	 1.535010575	-0.0215824189	-0.384748
C	-0.0293325598	 0.0191501952	 0.0064977387	-0.028063
O	-1.3361426159	-0.5185279642	-0.008854381	-0.249589
C	-1.3550673546	-1.929236695	 0.0155122502	-0.048999
C	-2.8088318102	-2.3765071996	-0.0030150726	-0.314473
C	-2.9731641261	-3.8875702733	 0.0205881165	 0.37792
C	-4.3989578453	-4.409835616	 0.0032461643	-0.472568
O	-2.019480976	-4.6330103757	 0.0516588412	-0.293118
H	 0.8702360457	 1.9828206632	-0.0105293132	 0.114536
H	-0.6487013992	 1.8691112111	-0.9235505971	 0.125059
H	-0.6820858004	 1.8997745574	 0.8480338309	 0.125053
H	 0.5428267619	-0.3482245877	-0.8624550399	 0.086021
H	 0.5093923943	-0.317627483	 0.9085808461	 0.086025
H	-0.817897689	-2.3462737798	-0.8504684939	 0.099781
H	-0.8499209872	-2.3153786043	 0.9144481582	 0.099806
H	-3.3461532337	-1.9458179127	 0.8522401845	 0.128499
H	-3.3146577423	-1.9762913153	-0.8916018481	 0.128474
H	-4.9236949916	-4.0578629192	-0.8920456438	 0.138835
H	-4.3939316828	-5.5002107201	 0.0217905139	 0.142669
H	-4.9556653129	-4.0282450259	 0.8665484938	 0.138878
38.3861	53.3975	96.1275	100.4008	124.4021	138.2878	226.074	246.2148	304.5923	425.4035	480.5589	480.7969	598.9363	761.8255	821.946	831.2165	906.8487	938.1674	941.0355	1045.1592	1085.3549	1121.4349	1143.1621	1168.1764	1186.8324	1187.6158	1224.5156	1295.4448	1299.7482	1333.0666	1384.128	1392.0896	1409.2646	1446.7695	1459.1286	1468.1022	1477.5434	1483.6594	1499.6971	1514.4971	1536.1313	1806.773	2953.5132	2978.3797	2981.8421	3007.129	3027.6896	3038.6205	3044.3777	3061.3708	3097.9201	3118.8743	3120.1865	3152.425
CCOCCC(C)=O	CCOCCC(=O)C	
InChI=1S/C6H12O2/c1-3-8-5-4-6(2)7/h3-5H2,1-2H3	InChI=1S/C6H12O2/c1-3-8-5-4-6(2)7/h3-5H2,1-2H3
