19
gdb 57008	2.70037	1.24937	1.09904	3.2626	80.53	-0.2231	0.0128	0.2359	1192.3946	0.159679	-382.081189	-382.072336	-382.071392	-382.115046	32.585	
C	-0.0816413534	 1.5393198178	 0.0643821374	-0.397726
C	 0.039251164	 0.0104718158	-0.0181900569	-0.104788
C	 0.555256811	-0.3943124694	-1.3580652765	 0.261881
N	 0.9980215241	-0.7377531088	-2.3698496084	-0.332798
N	 0.8265936805	-0.5380238077	 1.0656560132	-0.060414
C	 2.2357092961	-0.1204820611	 1.1636228933	-0.214491
C	 2.8822243168	-1.2923555492	 1.8502902818	-0.065092
C	 2.0535123096	-2.3295280493	 1.902448045	-0.069352
C	 0.7388445813	-1.9951849526	 1.2545397288	-0.210832
H	 0.8912337626	 2.0201322101	-0.0631877024	 0.13949
H	-0.7490963036	 1.9129411194	-0.7159973659	 0.135221
H	-0.4827930234	 1.8103191954	 1.043736458	 0.133921
H	-0.9679171539	-0.4159396309	 0.0649800984	 0.127472
H	 2.6997548373	 0.0549420672	 0.1750504318	 0.113948
H	 2.332007509	 0.814193623	 1.7324210756	 0.110774
H	 3.9004953809	-1.2602768994	 2.2163388376	 0.10526
H	 2.2664483263	-3.3059713794	 2.3182953235	 0.105532
H	-0.1305232639	-2.2540593742	 1.8758133984	 0.109312
H	 0.6267257886	-2.5437396667	 0.3006997573	 0.112682
77.2309	83.1338	157.1646	197.8436	231.9838	246.2722	334.6237	394.7773	408.4876	523.2577	576.7173	682.3858	695.568	791.5714	796.8132	841.2475	948.5303	964.3518	985.3898	1006.8452	1039.3271	1047.0854	1086.1005	1095.7433	1131.2931	1179.0532	1202.4674	1212.848	1226.8387	1320.0828	1328.3332	1352.2645	1387.6252	1401.1888	1409.0692	1487.8139	1498.9325	1508.5805	1519.8786	1697.4027	2337.7659	2926.8747	2931.2902	3003.5653	3014.3162	3037.2944	3054.5706	3132.9835	3138.3501	3206.8983	3231.0673
CC(C#N)N1CC=CC1	C[C@@H](C#N)N1CC=CC1	
InChI=1S/C7H10N2/c1-7(6-8)9-4-2-3-5-9/h2-3,7H,4-5H2,1H3	InChI=1S/C7H10N2/c1-7(6-8)9-4-2-3-5-9/h2-3,7H,4-5H2,1H3/t7-/m0/s1
