14
gdb 10875	3.24094	2.02955	1.62519	2.0155	57.81	-0.2416	-0.0029	0.2387	801.1298	0.105789	-419.63043	-419.622983	-419.622039	-419.66199	27.684	
O	-0.0460589361	 1.4447079749	-0.0627388984	-0.429371
C	-0.0399758414	 0.0458179457	-0.0265184796	 0.097569
C	-0.0255868729	-0.6703158453	 1.3836541851	-0.246534
C	-1.4729290842	-0.0996479213	 1.5820519747	-0.29433
C	-1.4617893991	-0.5962853136	 0.0740633067	 0.256518
O	-2.4588010373	-0.5273637935	-0.8594341508	-0.464206
C	-0.7320493641	-1.8104154287	 0.6512357009	 0.380387
O	-0.7710823708	-3.0024919719	 0.582763612	-0.335793
H	 0.8545611707	 1.7537919352	 0.0762456235	 0.293001
H	 0.6281146689	-0.3792372464	-0.784758543	 0.087684
H	 0.7824140417	-0.7039316862	 2.1065256337	 0.100863
H	-2.1260500321	-0.6259616632	 2.2785377288	 0.112982
H	-1.5179150567	 0.9814149114	 1.6851029562	 0.138053
H	-2.8002636365	-1.4182451273	-1.0016415497	 0.303176
106.1294	168.6113	218.805	253.6258	293.4067	359.2657	401.8745	552.0694	565.0473	640.2085	742.0396	773.9464	796.7353	810.7891	919.4946	940.0782	999.3393	1055.2399	1068.491	1111.4676	1126.1114	1154.5547	1173.6291	1204.8949	1292.6444	1327.2707	1386.9402	1449.6569	1508.1315	1912.8221	3037.5574	3096.4625	3184.9307	3187.9131	3792.951	3822.7975
OC1C2CC1(O)C2=O	O[C@H]1[C@H]2C[C@]1(O)C2=O	
InChI=1S/C5H6O3/c6-3-2-1-5(3,8)4(2)7/h2-3,6,8H,1H2	InChI=1S/C5H6O3/c6-3-2-1-5(3,8)4(2)7/h2-3,6,8H,1H2/t2-,3+,5-/m1/s1
