21
gdb 75301	2.85816	1.50037	1.1796	1.5485	84.15	-0.2293	0.0318	0.2611	1129.915	0.184304	-387.09675	-387.088801	-387.087857	-387.128842	31.936	
C	-0.6276749955	 1.4290420246	 0.0657058788	-0.462876
C	-0.0189435218	 0.0459533234	 0.0314982251	 0.300558
C	-0.1083786069	-0.6942989546	-1.0805165144	-0.132242
C	 0.3708327917	-2.0916581982	-1.3822287408	-0.26329
C	 1.2504338973	-2.7546455579	-0.3345670783	 0.111777
C	 2.3874849925	-1.8728919361	 0.2195531045	-0.28758
C	 1.4081990768	-1.6470262689	 1.3891287003	 0.103902
C	 0.6227897239	-0.345958205	 1.3469063853	-0.289507
O	 0.598016458	-2.7707952109	 0.9611167977	-0.298738
H	 0.1326537968	 2.1947239874	 0.2686636625	 0.117464
H	-1.1191666674	 1.6813410904	-0.8771649091	 0.117562
H	-1.3712918103	 1.5130295983	 0.8691274974	 0.120644
H	-0.6315101458	-0.2381787423	-1.9206740107	 0.073556
H	-0.5062095506	-2.7337240886	-1.5533240672	 0.116703
H	 0.9155877431	-2.0842691931	-2.3386889375	 0.101976
H	 1.5247301047	-3.7672364403	-0.6509577174	 0.071147
H	 3.2703711673	-2.4456585328	 0.5076632281	 0.105341
H	 2.6813743204	-1.0017242305	-0.3681400234	 0.106436
H	 1.8067346737	-1.8112771374	 2.3967503455	 0.071255
H	 1.2889507918	 0.467617126	 1.6736092518	 0.099992
H	-0.1660088496	-0.3960365736	 2.1125444917	 0.11592
107.8603	181.3234	256.078	290.0577	307.4666	333.7001	358.3154	415.5301	454.0226	578.225	663.9274	780.9016	808.8192	816.9955	860.6233	887.1741	901.3771	910.0323	964.688	993.2355	1000.4787	1052.4103	1054.5551	1065.6118	1081.6537	1126.5255	1141.3141	1162.0314	1209.4935	1220.8205	1260.7494	1282.9889	1325.3629	1351.5951	1358.3493	1383.4539	1397.6203	1410.6008	1420.6611	1450.7001	1454.944	1479.8351	1486.2135	1495.1761	1736.6658	2989.8317	2992.7531	3012.4763	3017.6725	3019.3642	3038.6664	3042.4711	3056.2642	3079.3805	3111.4115	3123.6562	3136.0473
CC1=CCC2CC(C1)O2	CC1=CC[C@H]2C[C@@H](C1)O2	
InChI=1S/C8H12O/c1-6-2-3-7-5-8(4-6)9-7/h2,7-8H,3-5H2,1H3	InChI=1S/C8H12O/c1-6-2-3-7-5-8(4-6)9-7/h2,7-8H,3-5H2,1H3/t7-,8+/m0/s1
