16
gdb 42508	3.36343	1.15374	0.99527	5.5286	76.36	-0.2623	-0.0451	0.2172	1194.0283	0.123832	-400.758196	-400.749964	-400.749019	-400.791737	30.149	
O	 0.0446972502	 0.0864470707	 0.4596932356	-0.288625
C	-0.0166821511	 1.2564093953	 0.2356428474	 0.351483
C	-1.2156987183	 2.2606853424	 0.0321479031	-0.270451
C	-0.1421322907	 3.3712763919	-0.2649951167	-0.349768
C	 0.9724595456	 2.3574438171	 0.0395241364	 0.230255
C	 2.2412792352	 2.5256366512	 0.85366639	-0.306212
C	 2.3365087316	 2.1887077838	-0.5967865525	-0.30219
C	-2.1677919026	 1.9468601093	-1.0121959858	 0.280299
N	-2.9056308269	 1.6931073586	-1.8658496339	-0.319798
H	-1.7396558854	 2.4167448659	 0.9802757172	 0.152714
H	-0.165283377	 3.7185253679	-1.2990581262	 0.138454
H	-0.2025777745	 4.2291413618	 0.4065507649	 0.125822
H	 2.4822646239	 3.5354197161	 1.168395548	 0.13241
H	 2.4568629116	 1.7508080762	 1.5814327249	 0.144197
H	 2.61429624	 1.1784522104	-0.8770607937	 0.147206
H	 2.6454082484	 2.9629390515	-1.2907124288	 0.134206
42.3826	130.8151	180.5265	201.6757	223.343	313.0057	411.2562	454.2891	540.721	560.596	697.8187	754.2538	780.7395	803.515	824.3482	903.1896	932.3405	957.649	1026.2864	1034.9737	1062.8091	1071.0875	1089.0151	1118.6119	1177.2117	1199.7964	1232.6909	1254.3562	1304.4218	1366.6865	1458.0151	1489.4891	1489.866	1896.568	2353.4276	3072.8818	3081.9868	3134.3234	3137.1138	3137.9838	3219.5648	3234.3045
O=C1C(CC11CC1)C#N	O=C1[C@@H](CC21CC2)C#N	
InChI=1S/C7H7NO/c8-4-5-3-7(1-2-7)6(5)9/h5H,1-3H2	InChI=1S/C7H7NO/c8-4-5-3-7(1-2-7)6(5)9/h5H,1-3H2/t5-/m0/s1
