16
gdb 43638	4.56614	1.04061	0.89333	2.4544	74.18	-0.2505	-0.039	0.2115	1258.3629	0.124928	-437.876231	-437.868622	-437.867678	-437.909102	28.337	
N	 0.1469141123	 1.397456699	 0.1051912262	-0.520731
C	 0.1658243812	 0.1324731653	 0.0590584222	 0.385697
O	-1.0078393527	-0.5689587447	 0.1737808665	-0.226023
C	-0.7527039897	-1.972902758	 0.0938547133	 0.024139
C	 0.7363993643	-2.0771531522	-0.0920226035	-0.091424
C	 1.2551034933	-0.8507572354	-0.1048631587	-0.189869
C	-1.2547246163	-2.6533599142	 1.3537520246	 0.071248
C	-2.5626823578	-3.3122285878	 1.3962851408	-0.173098
O	-1.3562071625	-4.0726231919	 1.2657725931	-0.235055
H	 1.0917001379	 1.7634511819	 0.0044124274	 0.222823
H	-1.2965683961	-2.3881053949	-0.7663852381	 0.110405
H	 1.2470018373	-3.0261047746	-0.1845160281	 0.139632
H	 2.2918842051	-0.5652954657	-0.2161457381	 0.124427
H	-0.8207350039	-2.2725832555	 2.2786018815	 0.107582
H	-3.0794764304	-3.4182818346	 2.3479025486	 0.126421
H	-3.2011455422	-3.2939763569	 0.5144315325	 0.123826
66.9771	94.437	170.9702	260.4337	326.3594	401.776	455.7925	510.0234	688.3827	713.1075	789.8742	810.5464	842.8584	867.6549	876.7641	916.8304	929.9382	969.6643	1001.7217	1048.9494	1078.9107	1093.1507	1123.9208	1145.9312	1160.4946	1176.7059	1262.8356	1282.2619	1291.304	1344.9435	1371.7525	1441.1458	1527.6005	1657.8948	1748.5522	3012.4509	3091.5017	3115.1276	3182.3983	3225.4527	3248.2362	3511.5654
N=C1OC(C=C1)C1CO1	[NH]C1=C[CH][C@H](O1)[C@H]1CO1	
InChI=1S/C6H7NO2/c7-6-2-1-4(9-6)5-3-8-5/h1-2,4-5,7H,3H2	InChI=1S/C6H7NO2/c7-6-2-1-4(9-6)5-3-8-5/h1-2,4-5,7H,3H2/t4-,5+/m0/s1
