19
gdb 6575	3.74743	1.66652	1.46002	2.701	71.44	-0.2418	0.0692	0.311	947.1848	0.164271	-365.032012	-365.023676	-365.022732	-365.063971	32.431	
C	 0.0586840385	 1.5368040526	-0.0390362827	-0.483545
C	-0.0478569867	 0.0454318814	 0.064635105	 0.357232
C	-1.3488277115	-0.7740863994	 0.0221772138	-0.366217
C	-0.7008780516	-1.7847797255	 1.0415328285	 0.390248
C	-1.3982264462	-1.8440005823	 2.3937235863	-0.447974
O	-0.4345206437	-3.0861405338	 0.5372860388	-0.4741
C	 0.5741259982	-0.9302216984	 1.0285346638	-0.111185
N	 1.0867300101	-0.7842800208	-0.3281571476	-0.365234
H	 1.0789483506	 1.8607974561	 0.1818369903	 0.132741
H	-0.1899193396	 1.8771079945	-1.0514587999	 0.120264
H	-0.6270721367	 2.0321532827	 0.6569430144	 0.112623
H	-2.2145218987	-0.2530493168	 0.4413872428	 0.099437
H	-1.6168208185	-1.1873362019	-0.9562898634	 0.088941
H	-2.3877742454	-2.3085178249	 2.3035160618	 0.106692
H	-0.8045523619	-2.4358332148	 3.0974304144	 0.126719
H	-1.5372228186	-0.8423625814	 2.8121774971	 0.121084
H	-1.2741682134	-3.5490241119	 0.4433862332	 0.27714
H	 1.2493970358	-0.7803201587	 1.8649525499	 0.082021
H	 0.8264901294	-1.5819510369	-0.9060871866	 0.233115
116.2388	199.4833	225.4012	248.0327	291.4739	304.1656	337.8443	359.6187	440.0637	451.3446	564.6778	585.9053	695.0037	797.4439	838.4112	908.193	909.9581	938.1137	954.452	993.3903	1014.5105	1054.3986	1113.1258	1120.1647	1143.7165	1154.3744	1205.1301	1230.1432	1242.1207	1280.1582	1291.1108	1370.6177	1400.3231	1403.8784	1451.0046	1481.6831	1484.5409	1488.1089	1493.5739	1495.3568	3023.9696	3027.1551	3037.5226	3085.5413	3091.6152	3095.3108	3112.6489	3119.806	3162.7018	3469.5672	3803.7558
CC12CC(C)(O)C1N2	C[C@]12C[C@@](C)(O)[C@H]1N2	
InChI=1S/C6H11NO/c1-5-3-6(2,8)4(5)7-5/h4,7-8H,3H2,1-2H3	InChI=1S/C6H11NO/c1-5-3-6(2,8)4(5)7-5/h4,7-8H,3H2,1-2H3/t4-,5-,6+/m0/s1
