16
gdb 127796	3.164	1.25716	1.01298	4.5205	75.97	-0.2529	-0.0003	0.2526	1163.3362	0.124152	-396.895692	-396.887122	-396.886177	-396.929479	30.742	
C	 0.3355006076	 1.3587520996	 0.1885623515	-0.342483
N	 0.096911459	-0.0694765307	 0.1250259952	 0.002193
N	-0.0488754338	-0.6737963289	-1.0749538397	-0.147771
N	-0.2597484679	-1.9396461058	-0.8571284136	-0.19061
C	-0.2508482193	-2.1612847974	 0.4835864008	-0.153385
C	-0.0226903569	-0.9704806622	 1.1344539791	 0.327089
C	 0.0743963727	-0.630030349	 2.593729527	-0.468652
C	 1.3891550668	-0.1320839578	 3.0005299044	 0.304598
C	 2.46834161	 0.2840149797	 3.325491534	-0.444111
H	 1.2457967186	 1.5671043817	 0.7551016237	 0.161258
H	 0.442512076	 1.710340308	-0.8372335548	 0.170052
H	-0.5071427367	 1.8729814991	 0.6614375789	 0.142771
H	-0.4025177693	-3.1438825868	 0.9015664606	 0.123071
H	-0.6915692817	 0.1104043002	 2.8634285623	 0.149612
H	-0.1678518291	-1.5320488417	 3.1662671617	 0.158771
H	 3.4248164742	 0.6394944021	 3.6204657286	 0.207598
58.5644	108.4569	116.7145	219.2245	240.8965	283.6927	330.8087	413.0055	452.2189	632.3995	645.0104	659.3879	715.081	717.6463	769.5232	847.5801	929.9036	955.0793	984.2632	1032.922	1140.3415	1154.1271	1185.1816	1240.605	1274.0107	1309.3144	1318.7513	1359.9354	1441.0763	1458.7424	1484.4066	1496.7321	1506.345	1588.1919	2240.789	3012.6926	3048.9095	3068.6784	3119.7276	3167.7671	3264.3523	3503.3635
CN1N=NC=C1CC#C	Cn1nncc1CC#C	
InChI=1S/C6H7N3/c1-3-4-6-5-7-8-9(6)2/h1,5H,4H2,2H3	InChI=1S/C6H7N3/c1-3-4-6-5-7-8-9(6)2/h1,5H,4H2,2H3
