21
gdb 59508	3.26615	0.78464	0.71126	3.7958	80.16	-0.244	-0.0168	0.2271	1640.6664	0.17948	-424.221107	-424.210676	-424.209732	-424.25787	37.186	
C	-0.292118073	 1.5202187976	 0.0945401897	-0.402594
C	 0.017334909	 0.0345987416	-0.097509574	 0.125205
O	 0.6773018358	-0.2007167224	-1.3431093442	-0.433837
C	 0.8088868217	-0.5314774183	 1.0656409854	-0.029206
C	 0.1209107503	-1.2027024082	 2.2328719358	-0.3013
C	 0.9609552647	-2.017748219	 1.2788124409	-0.023873
C	 0.3302145907	-3.0379471566	 0.3455183822	-0.291674
C	 0.2829292453	-4.4109123427	 0.9805631259	 0.161922
O	-0.6941235137	-5.1108572878	 1.0442641395	-0.239321
H	 0.6354434337	 2.1002631098	 0.1808411743	 0.105251
H	-0.8561859443	 1.9042177988	-0.7594535357	 0.12464
H	-0.8741432716	 1.6868099307	 1.0063454968	 0.122015
H	-0.9280703908	-0.510888119	-0.1904411591	 0.088204
H	 1.5162140841	 0.2731423147	-1.3221456257	 0.274944
H	 1.6875424446	 0.0628074999	 1.3145891387	 0.075995
H	 0.4886920792	-1.0182780137	 3.2360540023	 0.114748
H	-0.957002573	-1.3222752173	 2.1720249872	 0.119985
H	 1.9333012326	-2.3259441997	 1.6572916933	 0.087188
H	-0.6850166047	-2.7650322533	 0.0495382922	 0.122195
H	 0.9322545708	-3.1113918272	-0.5716325944	 0.132817
H	 1.2577753185	-4.7520184276	 1.4051748491	 0.066697
38.7453	60.5375	74.4225	112.7482	198.6277	245.8014	268.3911	273.0521	313.0363	370.7063	400.0458	491.8538	511.1202	595.0693	742.2133	780.1845	850.9272	863.3768	900.8121	931.2258	982.8843	1017.062	1037.1974	1071.0128	1078.4968	1090.0003	1100.6917	1140.5175	1168.6649	1190.8086	1231.2914	1239.8314	1283.46	1288.0389	1333.1839	1401.718	1403.9045	1417.2487	1429.9993	1437.3939	1456.4824	1491.3209	1493.1171	1496.62	1837.3251	2843.4815	3018.1732	3025.5603	3052.0564	3095.5274	3107.7085	3110.3343	3121.9314	3126.9711	3129.3058	3212.0534	3798.3587
CC(O)C1CC1CC=O	C[C@@H](O)[C@H]1C[C@H]1CC=O	
InChI=1S/C7H12O2/c1-5(9)7-4-6(7)2-3-8/h3,5-7,9H,2,4H2,1H3	InChI=1S/C7H12O2/c1-5(9)7-4-6(7)2-3-8/h3,5-7,9H,2,4H2,1H3/t5-,6-,7-/m1/s1
