20
gdb 100213	2.54747	1.11902	0.95378	4.0758	84.68	-0.2743	0.0274	0.3017	1328.7434	0.167787	-366.003991	-365.993447	-365.992503	-366.03928	38.492	
C	-0.1109761257	 1.5409321124	 0.1452058182	-0.405053
C	 0.0277178291	 0.0260621653	-0.0165699853	-0.186051
C	 0.7600187913	-0.4401509383	-1.3079216651	 0.039899
C	 2.2183738415	 0.0666894141	-1.3420680159	-0.417793
C	 0.7447050109	-2.0027327395	-1.2952643375	-0.361599
C	 1.4124553655	-2.6143390213	-2.4414451454	 0.275559
N	 1.9515430013	-3.0999929121	-3.340709492	-0.314729
C	 0.036637275	 0.0308649736	-2.492511587	 0.375091
C	-0.563248838	 0.4112697236	-3.4620659845	-0.496938
H	 0.8599088632	 2.032081078	 0.2571576438	 0.121904
H	-0.6174691036	 1.982045695	-0.7178535426	 0.136344
H	-0.6997416891	 1.771608677	 1.037883624	 0.118953
H	 0.5699486285	-0.3906030942	 0.8419653799	 0.097915
H	-0.9698462424	-0.4288720455	-0.0093530122	 0.106421
H	 2.7508251932	-0.2529573554	-0.4395601125	 0.115013
H	 2.7445067014	-0.3285929042	-2.2140883188	 0.152136
H	 2.250292607	 1.156376416	-1.3951922308	 0.134161
H	 1.2353016202	-2.3557188321	-0.3807305561	 0.148032
H	-0.2907436632	-2.3569144054	-1.2662683924	 0.156267
H	-1.082689236	 0.743001263	-4.3271367077	 0.204469
71.6675	97.5279	123.5602	154.6858	182.649	226.5587	262.8271	273.9304	340.1237	370.6222	389.8472	396.9932	475.0879	546.65	624.4359	639.6485	648.9286	712.3377	790.1736	866.6898	902.694	943.3748	966.9117	1019.1897	1035.7991	1080.0992	1156.0635	1178.5141	1201.6011	1265.585	1325.3337	1343.8483	1370.9263	1411.6458	1414.2159	1458.047	1480.0379	1491.2577	1497.1032	1506.5447	1511.4139	2233.6056	2362.7721	3020.2351	3041.5663	3045.5114	3045.8864	3060.6242	3090.9699	3111.8563	3119.3949	3121.5542	3140.1906	3500.857
CCC(C)(CC#N)C#C	CC[C@@](C)(CC#N)C#C	
InChI=1S/C8H11N/c1-4-8(3,5-2)6-7-9/h1H,5-6H2,2-3H3	InChI=1S/C8H11N/c1-4-8(3,5-2)6-7-9/h1H,5-6H2,2-3H3/t8-/m0/s1
