16
gdb 32461	3.28155	1.16485	0.86834	0.8851	68.3	-0.1963	0.0313	0.2276	1267.6961	0.124092	-475.031602	-475.022581	-475.021637	-475.065779	32.818	
N	-0.08721596	 1.3916877443	-0.0465728407	-0.610198
C	-0.0880404703	-0.0026310885	-0.0189577973	 0.16572
C	-1.1448763583	-0.857413994	-0.0830715943	 0.169005
O	-2.4608641281	-0.5402581674	-0.1903118908	-0.45039
C	-0.6291313574	-2.1924959542	-0.0170439275	 0.174841
C	-1.4125989873	-3.4624415224	-0.0519242559	-0.187383
O	-0.5063399841	-4.5507903629	 0.0384343635	-0.422513
C	 0.7195416267	-2.0437550552	 0.0834368271	-0.096362
O	 1.0781927942	-0.7334765663	 0.0850232237	-0.178042
H	 0.4187113289	 1.7752048758	-0.8395216557	 0.247223
H	 0.293052124	 1.8077185475	 0.7984888838	 0.247222
H	-2.5095740539	 0.4250408545	-0.2132160282	 0.297073
H	-2.1384071787	-3.4739477192	 0.7782782442	 0.103889
H	-2.0043171666	-3.5083148876	-0.9813947488	 0.103894
H	-1.0164531855	-5.3648921241	 0.0150950384	 0.290257
H	 1.5173555462	-2.7619120704	 0.1588147284	 0.145763
40.9419	147.4626	156.7376	231.3679	249.9076	265.9607	299.8686	341.9707	351.4021	484.9228	527.6642	607.9566	632.8203	689.1597	753.3704	759.3643	776.0802	800.8308	991.6752	1047.4777	1083.9452	1140.0393	1169.8978	1209.3294	1218.7282	1241.19	1256.2767	1306.7881	1336.2113	1463.6347	1506.2452	1516.9079	1615.382	1658.6951	1731.5354	2958.1233	2972.7738	3292.7996	3482.9325	3544.0199	3765.5529	3842.1941
NC1=C(O)C(CO)=CO1	Nc1c(O)c(CO)co1	
InChI=1S/C5H7NO3/c6-5-4(8)3(1-7)2-9-5/h2,7-8H,1,6H2	InChI=1S/C5H7NO3/c6-5-4(8)3(1-7)2-9-5/h2,7-8H,1,6H2
