19
gdb 126277	3.07007	1.29533	0.9854	2.901	83.64	-0.224	0.034	0.2579	1243.2422	0.161389	-382.062865	-382.054533	-382.053589	-382.096967	30.505	
C	 0.0095564959	 1.5826621491	-0.0916276299	-0.361203
C	 0.0322288702	 0.0580207301	 0.1136371768	-0.303476
C	-1.3272084261	-0.5736098164	 0.0596511806	-0.012036
C	-2.1629156341	-0.8430591453	-1.0149781464	 0.329953
C	-2.6684623184	-0.9717303604	-2.4496284915	-0.383198
C	-3.9587990936	-1.6202518747	-1.7991223366	-0.16737
N	-3.2814232618	-1.389549668	-0.5168563047	 0.087635
N	-3.3167292651	-1.5397733171	 0.8100261799	-0.314632
C	-2.1192003047	-1.0314848788	 1.1548547453	-0.056586
H	 1.0191353188	 2.0029279781	-0.0357055228	 0.108285
H	-0.4100582214	 1.8404987428	-1.0695230284	 0.112466
H	-0.6065934463	 2.0692530254	 0.6707634199	 0.120497
H	 0.6870367949	-0.3951845113	-0.6409894191	 0.100791
H	 0.4887285739	-0.1680676137	 1.0840873669	 0.105017
H	-2.8525456918	-0.0350188194	-2.9808145224	 0.129772
H	-2.1037784009	-1.6472061014	-3.0965165233	 0.130207
H	-4.8879994602	-1.0576855232	-1.9209674051	 0.13382
H	-4.1251149836	-2.6753228065	-2.0314179809	 0.134674
H	-1.8414505757	-1.0067913594	 2.2000364317	 0.105383
33.9135	87.2316	155.4395	192.4306	234.9781	285.9882	411.3524	496.5699	615.3623	657.4646	688.1595	714.5314	789.9221	812.8149	851.2072	862.3611	893.4808	969.1899	1047.4887	1056.7841	1068.151	1085.0385	1134.0129	1166.0001	1171.8987	1202.9504	1219.0021	1267.9831	1289.3979	1317.5284	1350.7466	1380.5374	1405.4496	1409.1263	1475.5401	1485.7042	1489.6662	1495.6236	1506.6905	1529.2183	1608.201	3024.925	3032.6181	3060.6121	3061.0032	3070.298	3102.6175	3109.5962	3110.7706	3124.6173	3229.5513
CCC1=C2CCN2N=C1	CCc1c2CCn2nc1	
InChI=1S/C7H10N2/c1-2-6-5-8-9-4-3-7(6)9/h5H,2-4H2,1H3	InChI=1S/C7H10N2/c1-2-6-5-8-9-4-3-7(6)9/h5H,2-4H2,1H3
