16
gdb 50621	2.94844	1.48395	1.03656	6.5314	73.75	-0.244	-0.0583	0.1857	1106.3925	0.125483	-437.946621	-437.938817	-437.937873	-437.979401	28.77	
O	-0.2297147433	 0.0026876016	 0.1903869729	-0.270238
C	-0.054412663	 1.1869325669	 0.1209792398	 0.157923
N	 1.1649875441	 1.856267213	-0.0086375878	-0.15772
C	 1.1550324604	 3.3225672525	-0.0791107265	-0.186178
C	 2.2270297371	 3.938098494	 0.8171543206	-0.264413
C	 3.5454414601	 3.2658963087	 0.5602011042	-0.068039
C	 3.6037173255	 2.0312048366	 0.0561131875	-0.135042
C	 2.4055210039	 1.1839117222	-0.1708037385	 0.410987
O	 2.4939076766	 0.0077371229	-0.4271930416	-0.316412
H	-0.884592061	 1.9220403964	 0.17719588	 0.077605
H	 1.3319692617	 3.6395681504	-1.1152044906	 0.126998
H	 0.1579560562	 3.6691399617	 0.2041257509	 0.124716
H	 2.294418784	 5.0124244694	 0.6148917627	 0.124071
H	 1.9577443453	 3.8384056651	 1.8784354694	 0.134424
H	 4.4571278557	 3.8024029442	 0.8087879136	 0.116708
H	 4.5399968969	 1.5196628843	-0.1342220165	 0.12461
60.4661	142.0278	208.0901	235.2012	305.5984	339.5592	415.0914	481.4284	493.7805	636.2167	664.0974	716.6408	762.8876	845.9102	907.2623	951.1519	1012.8741	1022.611	1025.7256	1068.7749	1132.1703	1179.0158	1187.7372	1242.1392	1254.5378	1347.3471	1376.231	1400.7992	1413.3668	1462.5022	1468.2081	1505.0117	1694.1853	1776.8065	1858.4666	2905.8187	3011.5318	3022.8515	3073.0836	3095.0047	3167.6859	3210.9921
O=CN1CCC=CC1=O	O=CN1CCC=CC1=O	
InChI=1S/C6H7NO2/c8-5-7-4-2-1-3-6(7)9/h1,3,5H,2,4H2	InChI=1S/C6H7NO2/c8-5-7-4-2-1-3-6(7)9/h1,3,5H,2,4H2
