15
gdb 106907	3.08523	1.27685	1.0498	1.618	62.17	-0.2445	-0.0422	0.2023	1115.7722	0.109467	-494.850338	-494.841388	-494.840444	-494.884696	31.481	
O	 0.0220188194	 1.4452439699	 0.191035126	-0.403663
C	 0.0284432777	 0.0397656577	 0.0327922004	-0.182588
C	-1.3509837525	-0.5111730173	-0.1517060802	 0.382187
O	-2.1467459893	-0.7483384203	 1.0140000521	-0.274093
C	-1.8872527228	-1.8715856647	 0.1423744992	-0.202081
C	-2.9307606329	-1.6955792777	-0.9552968391	 0.398287
O	-3.7953091222	-2.3671513032	-1.4317199163	-0.301081
C	-2.342267725	-0.2819841404	-1.3021557679	-0.052103
O	-3.1376635186	 0.8614401048	-1.2037060492	-0.422825
H	-0.5546405153	 1.6561923774	 0.9336854326	 0.29878
H	 0.6296714648	-0.1615064257	-0.8600489428	 0.122229
H	 0.5002738423	-0.4739482799	 0.8839966549	 0.105958
H	-1.4124343409	-2.7467813197	 0.5697794381	 0.131575
H	-1.8316456228	-0.3633164576	-2.2781474861	 0.097873
H	-3.9345871018	 0.7148955066	-1.7253150916	 0.301545
58.4179	86.6053	125.6868	178.8298	221.8563	252.1609	308.7616	376.0056	393.1056	504.877	569.2499	641.7913	703.579	738.0952	830.2423	893.2378	915.2667	983.2649	1004.2213	1041.0999	1084.1177	1145.6357	1163.6609	1192.2034	1205.4158	1266.8905	1299.3282	1348.634	1397.0161	1421.5335	1460.8271	1487.9296	1904.8555	2957.3215	2995.8583	3078.5749	3196.4544	3808.7794	3808.9824
OCC12OC1C(=O)C2O	OC[C@]12O[C@H]1C(=O)[C@H]2O	
InChI=1S/C5H6O4/c6-1-5-3(8)2(7)4(5)9-5/h3-4,6,8H,1H2	InChI=1S/C5H6O4/c6-1-5-3(8)2(7)4(5)9-5/h3-4,6,8H,1H2/t3-,4+,5-/m1/s1
