17
gdb 21154	3.27056	1.82454	1.19089	2.7555	71.86	-0.1847	0.0316	0.2163	1004.3044	0.143767	-360.057403	-360.0491	-360.048155	-360.09049	29.762	
C	-0.0323526529	 1.4721666901	 0.0120579697	-0.322829
N	 0.0566765567	 0.0243520589	-0.0821411271	-0.393976
C	-1.1467075274	-0.6919514053	 0.0202577773	 0.156153
C	-1.2780715607	-2.0739829515	 0.0258488298	 0.278778
C	-0.2482422842	-3.1514332187	-0.0285594809	-0.516729
N	-2.6197174254	-2.3064784243	 0.0940173186	-0.246224
N	-3.3661748956	-1.1929026336	 0.1147995741	-0.238513
C	-2.4738842039	-0.2022439749	 0.0769866666	-0.074461
H	 0.9719109508	 1.8976158492	-0.0590865924	 0.118498
H	-0.6190469071	 1.8590609254	-0.8278209042	 0.133763
H	-0.4992300304	 1.8342245563	 0.9432891338	 0.107533
H	 0.7719492743	-0.3439524109	 0.5304674751	 0.229163
H	 0.1229144859	-3.4376115571	 0.9644273778	 0.131583
H	-0.6404170973	-4.056739896	-0.5037030087	 0.12768
H	 0.6114905017	-2.8152557046	-0.6169199251	 0.14383
H	-3.0781403634	-3.2015488789	 0.115895946	 0.265102
H	-2.8129261009	 0.8223805257	 0.0815246295	 0.100649
58.7269	103.37	178.9409	211.3101	243.9054	283.8294	331.7382	472.908	479.9472	583.7724	645.6041	680.3441	708.826	767.9486	853.8424	949.4674	997.7624	1058.7799	1077.1019	1130.4368	1151.6348	1161.5923	1212.4492	1273.7885	1310.223	1394.0536	1412.5978	1432.7428	1463.9188	1475.0712	1483.3272	1489.05	1497.6584	1523.0334	1550.2133	1640.2932	2964.2413	3014.3083	3065.0692	3071.4095	3103.8149	3113.9119	3253.6352	3560.309	3669.6384
CNC1=C(C)NN=C1	CNc1c(C)[nH]nc1	
InChI=1S/C5H9N3/c1-4-5(6-2)3-7-8-4/h3,6H,1-2H3,(H,7,8)	InChI=1S/C5H9N3/c1-4-5(6-2)3-7-8-4/h3,6H,1-2H3,(H,7,8)
