23
gdb 118973	2.50348	1.04466	0.98536	2.0243	82.65	-0.2477	0.0796	0.3273	1401.5225	0.203974	-425.411317	-425.40104	-425.400096	-425.446398	38.323	
C	-0.0791888659	 1.3612537181	 0.14289872	-0.227821
O	-0.1118504513	-0.0388002353	-0.0077933921	-0.253273
C	 0.6578626775	-0.5069077814	-1.1027129289	-0.124275
C	 0.6180820865	-2.0300670899	-1.0430829025	 0.402072
O	 1.103327848	-2.458212732	 0.2097380891	-0.492669
C	-0.7436917128	-2.6186950484	-1.5266734066	-0.27833
C	-0.090802084	-2.8925913959	-2.9075863347	-0.241701
C	 1.3057730843	-2.747289424	-2.2388206224	 0.004719
C	 2.4539689264	-2.0971482022	-2.9975709472	-0.425759
H	 0.9453541561	 1.7293867934	 0.3072978512	 0.108661
H	-0.4907884356	 1.8733498186	-0.7403342294	 0.108342
H	-0.6907748252	 1.6118828706	 1.0130511872	 0.129467
H	 0.2491859598	-0.1267836965	-2.0521311649	 0.088724
H	 1.6971514213	-0.1528931452	-1.0120826889	 0.092599
H	 0.7188651684	-1.8602370981	 0.8638495426	 0.280671
H	-0.9589293406	-3.5422034949	-0.9843862128	 0.105395
H	-1.6166906407	-1.9637826555	-1.4854328867	 0.097321
H	-0.3151384559	-3.8451263954	-3.392159189	 0.097168
H	-0.2846833317	-2.0891406058	-3.6255797224	 0.095031
H	 1.6224889276	-3.7241525563	-1.8576070203	 0.087444
H	 2.1712162436	-1.1230057374	-3.4117824725	 0.109176
H	 3.3265577492	-1.9500741139	-2.3519638128	 0.122639
H	 2.7667837648	-2.7282398325	-3.8365628659	 0.114399
74.1163	118.258	131.9059	136.3763	218.8971	232.9017	252.653	267.9231	330.5212	388.7273	411.1224	450.4219	503.3773	516.1606	625.0421	760.1228	790.8324	889.0217	892.4529	921.2211	950.5126	958.8103	999.3224	1047.4853	1063.5051	1135.4834	1154.4991	1158.1594	1169.9226	1190.5257	1201.1484	1219.7728	1230.3921	1245.7551	1259.8028	1285.518	1317.888	1368.3134	1385.9246	1408.7775	1431.5607	1477.9004	1480.2138	1485.8615	1495.7256	1497.5482	1500.8544	1503.1975	1521.9132	2966.3991	2979.2426	3007.0943	3023.4154	3026.5037	3047.4897	3054.1417	3067.5627	3091.7544	3095.8935	3105.3601	3115.176	3127.2995	3768.5512
COCC1(O)CCC1C	COC[C@@]1(O)CC[C@H]1C	
InChI=1S/C7H14O2/c1-6-3-4-7(6,8)5-9-2/h6,8H,3-5H2,1-2H3	InChI=1S/C7H14O2/c1-6-3-4-7(6,8)5-9-2/h6,8H,3-5H2,1-2H3/t6-,7+/m1/s1
