21
gdb 121975	6.12201	0.52657	0.50439	2.9823	82.03	-0.2558	0.048	0.3038	2143.1441	0.178747	-424.184793	-424.173527	-424.172583	-424.222159	39.701	
O	-0.0068728838	 1.4515740941	-0.0776386311	-0.419828
C	 0.0586353969	 0.0341662024	-0.0480195861	-0.074662
C	-1.3661663064	-0.4999638196	 0.0051188421	-0.169398
C	-1.427150452	-2.02854459	 0.0478206657	-0.206866
C	-2.8628120667	-2.571147851	 0.0362879459	 0.128453
O	-3.5890572459	-2.1303044565	-1.099971897	-0.417478
C	-2.8759781788	-4.1125730621	 0.1565031545	-0.39254
C	-4.2152077433	-4.6824595628	 0.2146443183	 0.312641
C	-5.3209932058	-5.14864436	 0.2744614153	-0.435358
H	 0.8910413795	 1.7943793295	-0.1037657861	 0.284852
H	 0.5710307324	-0.3602333606	-0.9418561546	 0.080315
H	 0.6244999497	-0.3201429914	 0.830068892	 0.080812
H	-1.8619498643	-0.0805651025	 0.8891125583	 0.106134
H	-1.919425107	-0.1345048288	-0.8652969282	 0.120682
H	-0.8863008061	-2.4502000691	-0.8136985523	 0.083855
H	-0.9129452919	-2.4023224777	 0.943353185	 0.095878
H	-3.411557197	-2.1552498055	 0.8894679475	 0.102259
H	-3.1879869664	-2.5247249257	-1.8829677779	 0.27813
H	-2.3279432514	-4.5363820765	-0.6981750219	 0.117422
H	-2.3105352274	-4.4046211216	 1.0507324301	 0.130702
H	-6.2995487442	-5.5574894045	 0.3223349904	 0.193996
46.3391	66.6488	82.1973	101.6621	154.8411	167.5753	263.8134	271.7113	278.628	306.3853	345.9905	383.1729	452.9049	500.4166	591.4336	618.2795	637.3718	761.1238	850.1676	864.8212	949.2918	960.5529	1015.018	1040.7267	1058.7629	1081.9516	1113.4142	1120.9986	1192.5622	1205.491	1228.9068	1279.6367	1289.5283	1307.4184	1322.079	1360.9795	1365.2155	1394.2277	1422.8789	1462.8326	1463.5328	1481.9519	1501.8106	1529.1222	2241.9566	2951.1997	2975.2898	2989.8407	3000.576	3034.8491	3039.8871	3043.1013	3060.302	3097.491	3508.1871	3792.7744	3831.2061
OCCCC(O)CC#C	OCCC[C@@H](O)CC#C	
InChI=1S/C7H12O2/c1-2-4-7(9)5-3-6-8/h1,7-9H,3-6H2	InChI=1S/C7H12O2/c1-2-4-7(9)5-3-6-8/h1,7-9H,3-6H2/t7-/m0/s1
