17
gdb 10414	2.66313	1.99018	1.45181	3.402	68.5	-0.2764	0.0167	0.2931	927.3444	0.14148	-363.855539	-363.847287	-363.846343	-363.888209	29.843	
C	 0.1307964726	 1.5463822749	 0.0037892195	-0.267195
O	 0.2182085228	 0.137519066	-0.1515934317	-0.272237
C	 0.5562493459	-0.5650301457	 1.0111942799	 0.286034
C	-0.4943048794	-0.640245037	 2.17392106	-0.273421
C	-0.2333048058	-2.1678010453	 2.2570105119	-0.220032
C	 0.4216619611	-2.1051457565	 0.8520071525	-0.270295
C	 1.8906736809	-0.172487705	 1.5071303424	 0.243075
N	 2.9322200098	 0.1449149192	 1.8960309679	-0.348738
H	 1.0944897908	 1.9811122261	 0.2991452359	 0.137307
H	-0.1616701285	 1.9471572918	-0.9682108431	 0.137828
H	-0.6274654243	 1.8236332869	 0.749001042	 0.115697
H	-0.3168643158	-0.0342392173	 3.0631893628	 0.120641
H	-1.4819577571	-0.4142340776	 1.7637773505	 0.120554
H	 0.490352076	-2.4163108648	 3.0363729442	 0.126095
H	-1.1047568552	-2.8136857313	 2.3694683589	 0.113063
H	-0.2930059693	-2.2999280853	 0.0494566447	 0.126665
H	 1.3363263154	-2.671062689	 0.6737954217	 0.12496
111.0424	111.5874	170.109	191.7277	195.2999	267.3277	395.953	428.5971	512.8488	580.5586	648.7988	688.8287	795.8228	843.9991	904.5462	937.15	961.3034	1046.0902	1051.4988	1063.1035	1172.2732	1184.2845	1186.2396	1208.4191	1230.4151	1250.3592	1277.9649	1281.1616	1287.7087	1466.2921	1478.0702	1484.1527	1489.1294	1504.0956	1507.8134	2345.1406	3001.7881	3061.6404	3071.0783	3079.1862	3082.2814	3125.883	3134.1126	3138.8198	3148.1399
COC1(CCC1)C#N	COC1(CCC1)C#N	
InChI=1S/C6H9NO/c1-8-6(5-7)3-2-4-6/h2-4H2,1H3	InChI=1S/C6H9NO/c1-8-6(5-7)3-2-4-6/h2-4H2,1H3
