24
gdb 110143	2.08353	1.12789	0.84742	2.6722	86.93	-0.2126	0.0661	0.2787	1501.6235	0.215537	-405.514325	-405.503296	-405.502351	-405.550807	39.939	
C	-0.4762625913	 1.4135944193	-0.7311268186	-0.381885
C	-0.4427709513	 0.4639997526	 0.4730618587	-0.201499
C	-1.7044194691	-0.3780899643	 0.5623443427	-0.016139
C	-1.8545193369	-1.7329679794	-0.0608557416	 0.000115
C	-0.753860574	-2.3964995175	-0.8511204413	-0.108727
O	-0.9978665849	-3.800602062	-0.8317633301	-0.412091
N	-1.8390369327	-1.5701207801	 1.3960515513	-0.106782
C	-0.727023264	-2.0597490111	 2.2053032697	-0.11831
C	-0.9680147195	-3.5156873899	 2.6015381733	-0.384516
H	 0.4081213755	 2.0575849092	-0.7514440978	 0.113513
H	-0.5109162028	 0.8586022505	-1.6744402043	 0.118295
H	-1.3592356367	 2.0612129371	-0.6980094507	 0.119626
H	 0.4541535686	-0.1589225319	 0.4234631471	 0.097527
H	-0.3533644024	 1.0526915599	 1.3956032521	 0.102872
H	-2.6028489647	 0.2428028428	 0.5783618411	 0.082297
H	-2.835958295	-2.0099064371	-0.4463296171	 0.091664
H	-0.7845768785	-2.0111174196	-1.8832089608	 0.092867
H	 0.239941776	-2.1660311504	-0.4468268138	 0.088565
H	-0.3195347823	-4.2297475298	-1.3619921948	 0.28669
H	 0.2570725756	-1.9735660216	 1.718830837	 0.076508
H	-0.6837234323	-1.4271545929	 3.1004723357	 0.097864
H	-0.1672416865	-3.8741444607	 3.2565641202	 0.099983
H	-1.921261786	-3.6147032723	 3.1284761346	 0.12062
H	-1.000264405	-4.1474046309	 1.7097146476	 0.140942
55.3936	78.9587	113.0234	124.7279	167.15	219.2177	233.7553	258.188	273.3851	307.7584	314.3662	366.6666	527.7268	530.5071	579.028	713.1193	777.4513	807.7524	833.5791	834.9932	954.0455	1000.9003	1017.9355	1042.7051	1061.0432	1068.8196	1079.7166	1111.8214	1154.8359	1166.7272	1186.5886	1195.9593	1250.2033	1258.194	1277.9642	1306.6026	1341.6884	1350.3515	1374.9938	1393.5265	1409.2893	1411.2039	1437.7256	1472.1313	1486.5227	1491.4164	1496.7166	1498.5641	1507.9275	1514.6832	1526.2543	2969.9838	2975.2628	3023.5895	3030.3805	3032.7206	3039.8867	3041.4413	3068.118	3083.7571	3102.7394	3105.9941	3107.2878	3111.9852	3128.0845	3824.7102
CCC1C(CO)N1CC	CC[C@H]1[C@@H](CO)N1CC	
InChI=1S/C7H15NO/c1-3-6-7(5-9)8(6)4-2/h6-7,9H,3-5H2,1-2H3	InChI=1S/C7H15NO/c1-3-6-7(5-9)8(6)4-2/h6-7,9H,3-5H2,1-2H3/t6-,7+,8?/m0/s1
