21
gdb 64163	2.16134	1.48855	1.34486	3.0808	82.6	-0.2482	0.0243	0.2725	1122.9117	0.18128	-383.275791	-383.265962	-383.265017	-383.309623	37.338	
C	-0.1151725288	 1.5194534017	-0.0053065817	-0.442455
C	-0.0338943015	-0.0076267598	-0.0444370777	 0.282385
C	-1.3947716235	-0.6178509371	-0.3535119894	-0.468321
C	 1.1730299407	-0.4938009552	-0.8968752963	-0.208558
N	 1.9942107716	-0.550827829	 0.335217522	-0.33416
C	 0.7819904679	-0.5983010324	 1.192103423	 0.124935
C	 0.8813610619	 0.1851707223	 2.5003349509	-0.446286
C	 0.3771967539	-1.984770216	 1.4905437653	 0.259528
N	 0.1042809586	-3.085155912	 1.7225482697	-0.357576
H	 0.8665949791	 1.972964537	 0.1518047471	 0.134486
H	-0.5056752344	 1.8872044909	-0.9603309151	 0.118603
H	-0.7897749052	 1.8680576551	 0.7835811654	 0.11895
H	-1.7515097517	-0.2620480569	-1.3264420018	 0.117747
H	-1.3607705634	-1.7093951765	-0.3831374788	 0.141251
H	-2.1384484643	-0.3242270549	 0.3959517349	 0.121235
H	 0.9848768821	-1.4704284545	-1.3619407314	 0.105527
H	 1.5559570681	 0.197183713	-1.6549859359	 0.104206
H	 2.6162278109	-1.3482322778	 0.4202806915	 0.230229
H	 1.2266813789	 1.2007209937	 2.3044534915	 0.132731
H	-0.0870303034	 0.2228999729	 3.0087966838	 0.131219
H	 1.5963893725	-0.2964290046	 3.174199113	 0.134323
93.2159	150.7256	182.5269	197.0265	220.6459	261.8224	280.9278	299.8246	351.8463	356.3882	405.5145	439.3315	533.7621	573.0215	635.1042	664.9885	730.4541	849.4346	895.1337	931.6013	960.886	966.4596	997.4324	1025.0001	1039.8631	1121.2445	1146.9804	1165.123	1181.419	1208.6982	1266.0835	1281.6558	1322.4805	1376.5517	1400.9375	1406.7579	1426.2896	1476.1603	1483.4036	1486.9382	1493.7497	1502.9958	1511.5024	1520.9018	2334.0575	3012.5501	3030.5989	3036.068	3046.8118	3070.1746	3091.6216	3098.8875	3112.8801	3119.8343	3122.7728	3148.1056	3525.7135
CC1(C)CNC1(C)C#N	CC1(C)CN[C@]1(C)C#N	
InChI=1S/C7H12N2/c1-6(2)5-9-7(6,3)4-8/h9H,5H2,1-3H3	InChI=1S/C7H12N2/c1-6(2)5-9-7(6,3)4-8/h9H,5H2,1-3H3/t7-/m1/s1
