16
gdb 30258	2.8193	1.53615	1.0443	3.6174	74.44	-0.1835	0.0341	0.2176	1103.111	0.126465	-434.054546	-434.046617	-434.045673	-434.087116	29.864	
N	-0.0351333521	 1.4187028851	 0.2203196224	-0.600029
C	-0.037475155	 0.0333014806	 0.0517032521	 0.128707
C	-1.0732220637	-0.8466281728	-0.187598948	 0.288202
C	-2.4841062199	-1.3845870525	-0.2805120494	-0.094605
O	-3.1844908222	-1.0033614776	-1.4403405706	-0.419407
C	-1.7931698471	-2.818228671	-0.304332096	-0.199194
N	-0.5053627793	-2.0991591508	-0.2027487029	-0.006445
C	 0.8132557943	-1.9789394353	 0.0434513214	-0.039115
N	 1.1240277405	-0.6906459835	 0.1717812227	-0.313921
H	 0.903288699	 1.7853488173	 0.1232186546	 0.248211
H	-0.6666810521	 1.8985306501	-0.406846874	 0.245934
H	-3.0982617665	-1.2305188836	 0.616676951	 0.090204
H	-4.1051635362	-1.2663599674	-1.3385087735	 0.286502
H	-2.0011438734	-3.4722193613	 0.5466234524	 0.125129
H	-1.9238871352	-3.3515651101	-1.2486293596	 0.129768
H	 1.5098447089	-2.8001421672	 0.0999247075	 0.13006
92.1007	125.9227	224.5967	239.0952	288.3168	333.7937	391.0347	464.1602	537.1356	642.7144	655.0311	686.1571	753.3021	769.4327	779.0763	799.5835	862.7361	1007.9266	1041.0624	1076.0436	1120.513	1156.3031	1180.3859	1210.9435	1222.6453	1258.1295	1300.1901	1348.9556	1370.4753	1416.6807	1446.2588	1475.4507	1503.2179	1627.379	1656.5406	3010.2062	3059.5764	3125.1431	3263.9018	3541.9126	3637.8454	3809.8768
NC1=C2C(O)CN2C=N1	Nc1c2[C@@H](O)Cn2cn1	
InChI=1S/C5H7N3O/c6-5-4-3(9)1-8(4)2-7-5/h2-3,9H,1,6H2	InChI=1S/C5H7N3O/c6-5-4-3(9)1-8(4)2-7-5/h2-3,9H,1,6H2/t3-/m0/s1
