25
gdb 94563	2.80656	1.13176	0.88734	0.1019	92.75	-0.2696	0.0811	0.3507	1424.7098	0.23009	-352.340455	-352.331084	-352.33014	-352.374757	36.266	
C	-0.7259168716	 1.2164352011	-0.0664593414	-0.411418
C	 0.1052720614	-0.0578104051	-0.1160945975	 0.046631
C	 1.5603607028	 0.0076268098	-0.6567965241	-0.223569
C	 1.9713070475	-1.0392041757	 0.4114787716	-0.229501
C	 0.6594208697	-0.7215182453	 1.194560056	-0.02518
C	 0.870346254	 0.193978351	 2.3883256598	 0.068406
C	-0.3429277671	 0.5850412259	 3.2846159073	-0.232398
C	 0.5682155079	 0.4239991426	 4.5299470175	-0.215108
C	 1.5490543505	-0.40427934	 3.6574708692	-0.233043
H	-0.2107468782	 2.0173531338	 0.473909263	 0.112294
H	-0.9282297709	 1.5830298896	-1.0795395493	 0.108925
H	-1.6917856562	 1.0504888045	 0.4233748308	 0.113511
H	-0.4477397864	-0.8209856584	-0.6764228549	 0.066906
H	 1.7209699689	-0.2461513353	-1.7078804156	 0.090273
H	 2.0166910508	 0.9850761863	-0.4689117871	 0.095524
H	 1.9764492948	-2.0565942468	 0.0108594437	 0.094738
H	 2.9132018392	-0.8737453535	 0.9417876742	 0.092846
H	 0.0953437668	-1.6006160203	 1.5281539967	 0.050527
H	 1.4096903124	 1.0996755266	 2.084454737	 0.061634
H	-0.8142163186	 1.5562767862	 3.1158920408	 0.093463
H	-1.1201727194	-0.1861124669	 3.2511538493	 0.09452
H	 1.0064529158	 1.3780661476	 4.8373898791	 0.099029
H	 0.1424354655	-0.0589704844	 5.412783969	 0.093507
H	 1.3513842855	-1.4786450309	 3.7387649573	 0.095564
H	 2.620963835	-0.2396150225	 3.7932234975	 0.091919
84.6566	98.4204	125.8681	152.2141	222.445	233.1737	315.8491	357.3392	387.3156	504.5551	618.5448	655.2257	750.4551	761.9548	785.0309	887.529	892.3615	894.9871	915.1501	933.6776	943.8203	954.2066	966.1476	985.1112	1016.8115	1035.9621	1077.6587	1108.0856	1130.9155	1156.7737	1193.5785	1202.5867	1223.8128	1239.1766	1254.3981	1257.2521	1262.9008	1264.0942	1271.6247	1279.4503	1292.1959	1297.573	1323.3922	1376.4151	1405.7854	1411.4132	1478.3974	1481.955	1486.7944	1493.1051	1497.5603	1500.5735	1510.8035	3014.7864	3023.8841	3028.103	3034.3141	3042.6976	3046.2871	3048.6726	3055.0706	3056.1574	3086.817	3090.6018	3092.9033	3097.247	3099.3922	3109.2322	3114.3797
CC1CCC1C1CCC1	C[C@H]1CC[C@H]1C1CCC1	
InChI=1S/C9H16/c1-7-5-6-9(7)8-3-2-4-8/h7-9H,2-6H2,1H3	InChI=1S/C9H16/c1-7-5-6-9(7)8-3-2-4-8/h7-9H,2-6H2,1H3/t7-,9+/m0/s1
