15
gdb 47272	2.19838	1.78581	1.04991	5.3191	66.44	-0.2415	-0.1166	0.125	1082.9805	0.111745	-457.804183	-457.796132	-457.795188	-457.837766	29.097	
O	 0.0019579189	-0.0325704544	 0.1803533992	-0.261649
C	-0.0441336177	 1.1646771509	 0.0688844702	 0.303482
C	-1.3272487795	 1.9756509112	 0.037691544	-0.314832
C	-1.2913284114	 3.0795065618	-1.0325747405	-0.239094
C	-0.1165134133	 4.0478639548	-0.8149745594	-0.314831
C	 1.2239388441	 3.3350227253	-0.8241418323	 0.303481
O	 2.2107692588	 3.7478769364	-1.3752025567	-0.261649
C	 1.281172675	 1.9710680526	-0.0735729892	 0.221281
O	 2.3136838666	 1.5517971608	 0.3736004985	-0.239254
H	-2.1652509365	 1.2877796027	-0.0984169713	 0.138836
H	-1.4428608335	 2.4400783527	 1.0288314884	 0.135127
H	-1.2210389885	 2.6282493526	-2.0294470967	 0.127997
H	-2.2310898438	 3.6382412457	-1.0091030701	 0.127143
H	-0.0870208203	 4.8447249024	-1.5620243524	 0.138836
H	-0.223659379	 4.5268001844	 0.1701937283	 0.135127
43.4708	72.9818	217.464	279.019	319.8081	346.8442	360.0786	414.154	532.4873	560.6276	593.075	645.3828	765.2332	833.0152	890.6389	911.7862	961.5399	1045.5588	1062.6682	1084.1544	1140.2833	1179.9791	1236.7305	1273.347	1333.7371	1344.4629	1363.9372	1452.1515	1464.6647	1500.9319	1807.7412	1811.3174	1835.4859	3007.3653	3007.8997	3043.5023	3092.8547	3106.0803	3107.7097
O=C1CCCC(=O)C1=O	O=C1CCCC(=O)C1=O	
InChI=1S/C6H6O3/c7-4-2-1-3-5(8)6(4)9/h1-3H2	InChI=1S/C6H6O3/c7-4-2-1-3-5(8)6(4)9/h1-3H2
