15
gdb 29366	3.38047	1.22686	0.90334	3.1253	75.4	-0.2044	-0.0332	0.1712	1196.7318	0.113	-453.989297	-453.980613	-453.979669	-454.022573	31.796	
N	 0.1134387478	 1.4024266909	-0.1437767784	-0.617259
C	 0.029787278	 0.0195743156	-0.0536057966	 0.112082
C	-1.1023879523	-0.8054133737	-0.0166817864	 0.17952
N	-0.6488844061	-2.116581184	 0.0159607945	-0.305566
C	 0.7031905747	-2.1469476869	-0.0049759406	-0.13022
C	 1.1575363351	-0.8386153614	-0.0532234818	 0.213404
O	 2.4664296305	-0.4167166739	-0.0178304673	-0.45462
C	-2.5085819983	-0.5364553856	-0.0030572042	 0.063122
O	-3.3691377038	-1.4041706983	 0.0359176048	-0.338764
H	 0.9808952425	 1.7570810934	 0.2385106723	 0.254033
H	-0.6798059784	 1.9059479239	 0.2261515124	 0.254513
H	-1.2891952517	-2.89174257	 0.053515999	 0.278969
H	 1.2630548627	-3.0679357361	 0.023978707	 0.137497
H	 2.7265460759	-0.1303733649	-0.9008100609	 0.301035
H	-2.7837887767	 0.540689791	-0.0321255938	 0.052254
104.5789	115.1112	167.4942	227.442	249.7769	301.221	347.8334	350.5205	397.0569	507.3506	536.3775	643.3156	644.1333	685.7804	737.5592	761.7253	794.4882	827.5962	970.8639	1015.5567	1105.5762	1214.3346	1223.8343	1242.2551	1280.3962	1383.8433	1408.5006	1464.6867	1502.0156	1578.0745	1620.3547	1656.295	1738.2267	2880.3913	3266.7865	3545.7329	3647.2948	3674.5445	3782.1632
NC1=C(NC=C1O)C=O	Nc1c([nH]cc1O)C=O	
InChI=1S/C5H6N2O2/c6-5-3(2-8)7-1-4(5)9/h1-2,7,9H,6H2	InChI=1S/C5H6N2O2/c6-5-3(2-8)7-1-4(5)9/h1-2,7,9H,6H2
