19
gdb 70366	2.73365	1.6731	1.36384	0.9582	73.27	-0.2409	0.0718	0.3127	1001.762	0.160767	-422.998024	-422.990527	-422.989583	-423.029764	30.291	
O	-0.0173645481	 1.3650495397	-0.09168586	-0.476302
C	-0.00192053	-0.0240198511	 0.0446102277	 0.392596
C	-0.3277119989	-0.9106941287	-1.1268927576	-0.349177
C	-1.3030185573	-0.7910874309	 0.02703914	-0.073164
C	-1.2967633965	-1.8598345774	 1.1175878575	-0.261236
C	 0.0973825028	-1.7948997035	 1.7852040675	-0.06372
C	 1.2438913762	-2.6819373387	 1.2555340181	-0.089884
O	 1.9123628485	-1.5520325662	 0.6543287025	-0.292703
C	 0.886885185	-0.6364894622	 1.1217409751	 0.030424
H	 0.7434600901	 1.6199030122	-0.6252395589	 0.284583
H	-0.6123666951	-0.4013076494	-2.0413074366	 0.111388
H	 0.2500949632	-1.8172799809	-1.2673356827	 0.124907
H	-2.224973098	-0.2561160283	-0.1715782794	 0.094205
H	-2.0770179814	-1.6369063195	 1.8523444823	 0.106024
H	-1.5113585852	-2.8608913159	 0.7246870923	 0.102777
H	 0.0293828179	-1.7677410937	 2.8733281377	 0.082922
H	 1.865729901	-3.1528686162	 2.0265430551	 0.100981
H	 0.9623262146	-3.4419285384	 0.5144901642	 0.096581
H	 1.3070387812	 0.1488244092	 1.7587133954	 0.078799
102.5035	176.26	277.5992	305.0477	344.454	365.3915	422.4716	491.9579	580.604	650.5706	715.2846	767.2057	839.8021	869.2682	879.726	891.5407	936.9888	958.9784	972.1112	998.2889	1019.1481	1044.1881	1059.2127	1074.2556	1111.8058	1116.5107	1165.3074	1193.0065	1216.3656	1241.698	1250.7578	1277.1904	1310.7713	1324.0995	1331.326	1349.2918	1366.6143	1414.1312	1484.3859	1496.1227	1526.4488	3006.251	3033.4199	3049.5841	3056.32	3071.7281	3103.1455	3134.784	3174.453	3225.0715	3795.0646
OC12CC1CC1COC21	O[C@]12C[C@H]1C[C@H]1CO[C@@H]21	
InChI=1S/C7H10O2/c8-7-2-5(7)1-4-3-9-6(4)7/h4-6,8H,1-3H2	InChI=1S/C7H10O2/c8-7-2-5(7)1-4-3-9-6(4)7/h4-6,8H,1-3H2/t4-,5+,6+,7+/m0/s1
