19
gdb 104517	2.81537	1.15781	0.95103	1.1664	77.13	-0.231	0.0462	0.2772	1274.4623	0.15554	-422.954719	-422.944718	-422.943773	-422.989736	36.891	
C	 0.4009470561	-0.6500224825	 1.5471451795	-0.267191
O	 0.0429337227	-0.491168837	 0.1782733738	-0.291125
C	-1.289214742	-0.8209995352	-0.1166587318	 0.391488
C	-2.3701064442	-0.0475018199	 0.6286196661	-0.455077
C	-2.3093223264	 1.3940041142	 0.4072074155	 0.331419
C	-2.2457100698	 2.5796583224	 0.2233172669	-0.455062
C	-1.49174542	-1.1910570519	-1.5646136849	-0.382004
C	-1.4947198631	-2.2699738059	-0.5006660034	 0.076401
O	-0.4255104017	-3.1567610041	-0.3863757697	-0.434163
H	 1.4853498778	-0.5289652278	 1.5989048175	 0.131412
H	-0.0640766604	 0.1171595843	 2.1786526124	 0.126537
H	 0.1294504004	-1.6445565993	 1.9233623053	 0.125639
H	-3.3446976724	-0.4319696578	 0.304682777	 0.135289
H	-2.3113401411	-0.258338858	 1.7040033455	 0.132449
H	-2.1915351384	 3.6269807203	 0.0574586273	 0.197352
H	-2.42268225	-0.9097230462	-2.0451129667	 0.118418
H	-0.6135285772	-1.1333099264	-2.1990366832	 0.124185
H	-2.4309882059	-2.7614667649	-0.2554704941	 0.104052
H	 0.3748946255	-2.6158339044	-0.3922749829	 0.289979
47.5868	108.052	116.345	178.0956	218.9645	269.579	287.8568	315.8431	356.8487	403.3498	421.5249	451.3868	496.9978	624.7236	639.9693	681.0167	727.1271	824.2433	886.7655	903.7991	928.8351	986.2293	1008.6579	1044.7656	1088.541	1090.4802	1145.3847	1177.981	1189.8617	1212.939	1263.0898	1314.3181	1329.4129	1354.5653	1432.7542	1461.0205	1476.6322	1484.2474	1497.5209	1508.983	2240.2918	3007.2276	3026.2355	3057.6766	3070.8547	3121.9513	3131.3608	3161.7265	3223.2806	3506.475	3770.6718
COC1(CC#C)CC1O	CO[C@@]1(CC#C)C[C@H]1O	
InChI=1S/C7H10O2/c1-3-4-7(9-2)5-6(7)8/h1,6,8H,4-5H2,2H3	InChI=1S/C7H10O2/c1-3-4-7(9-2)5-6(7)8/h1,6,8H,4-5H2,2H3/t6-,7+/m1/s1
