20
gdb 93767	2.98904	1.28969	0.93165	4.2798	84.61	-0.2283	-0.0237	0.2046	1284.6821	0.171641	-403.207958	-403.19883	-403.197885	-403.241727	33.721	
C	-0.0322526923	 1.4610897387	-0.0035912795	-0.34375
N	 0.0213733232	 0.0212412265	-0.1758238817	-0.119153
C	-1.2365232326	-0.7079536636	-0.0841789434	-0.161169
C	-1.1564422244	-2.0670506019	-0.776362492	-0.307345
C	 0.097153621	-2.8118196962	-0.3865390782	 0.2917
C	 0.0894601536	-4.3061333592	-0.5143869054	-0.479017
C	 1.1677370811	-2.1113220943	 0.0040716544	-0.234987
C	 1.2186174729	-0.6292977717	 0.0412589593	 0.410531
O	 2.2721086751	-0.0347685013	 0.2218364801	-0.400986
H	 0.9839240574	 1.847805322	-0.0657751486	 0.166615
H	-0.6511379712	 1.9132364368	-0.7864234803	 0.116621
H	-0.4557973938	 1.7381835748	 0.9729848384	 0.115076
H	-1.5242464387	-0.848100522	 0.9715741156	 0.103139
H	-2.0186722129	-0.0973158676	-0.5468974098	 0.109712
H	-2.0482676002	-2.6527928945	-0.5259509769	 0.109539
H	-1.1688866974	-1.9395186712	-1.868764377	 0.123828
H	-0.1654559263	-4.606966495	-1.5389976915	 0.132654
H	 1.0591320092	-4.740347987	-0.2600965035	 0.13203
H	-0.6730036092	-4.7514808747	 0.1371944628	 0.130929
H	 2.1071338854	-2.5891675286	 0.2602989572	 0.104032
96.298	126.369	145.2446	182.1922	214.4292	255.4239	291.7128	354.0036	413.2075	446.239	494.839	532.8944	682.4767	732.1255	752.2588	808.8277	897.4139	913.609	1003.837	1026.4665	1032.8485	1063.6556	1095.4889	1140.6708	1156.3035	1190.0403	1226.5598	1262.2895	1286.7207	1324.0434	1359.2912	1391.9072	1411.9134	1427.0593	1457.1792	1469.1385	1478.7759	1483.806	1496.7645	1503.1116	1532.1133	1709.1616	1753.9003	2959.6893	2998.0718	3006.0487	3018.2427	3062.0063	3063.8223	3065.2488	3065.7458	3121.6204	3164.8057	3193.7861
CN1CCC(C)=CC1=O	CN1CCC(=CC1=O)C	
InChI=1S/C7H11NO/c1-6-3-4-8(2)7(9)5-6/h5H,3-4H2,1-2H3	InChI=1S/C7H11NO/c1-6-3-4-8(2)7(9)5-6/h5H,3-4H2,1-2H3
