18
gdb 51739	2.8849	1.12197	0.94903	2.6625	74.15	-0.2377	0.0204	0.2581	1269.7538	0.147057	-439.071356	-439.062662	-439.061718	-439.105908	31.714	
O	-0.0010981703	-0.1657775303	 0.2946985913	-0.3162
C	 0.0287535361	 1.0427591192	 0.2206903964	 0.154491
N	 1.1425980471	 1.7903079809	-0.0294295469	-0.279622
C	 2.4510383021	 1.2243453504	-0.2193905865	-0.115273
C	 3.2499068483	 1.6313689544	-1.4828315197	-0.095693
O	 4.3550346601	 2.1002753544	-0.6788136391	-0.304065
C	 3.6234845594	 1.8690510854	 0.5249928648	 0.448501
C	 3.5944809644	 2.8582431091	 1.6466424977	-0.340948
C	 4.2862045408	 1.5091105899	 1.8070118985	-0.332702
H	-0.867973397	 1.6803004931	 0.3503579556	 0.079099
H	 1.0468840483	 2.7941529724	-0.0507206783	 0.251162
H	 2.3546924992	 0.1486640202	-0.0749214489	 0.136182
H	 3.5456224195	 0.820338508	-2.1557255537	 0.119055
H	 2.7888662743	 2.4406520419	-2.063694197	 0.098769
H	 4.225964003	 3.7344211238	 1.5465880525	 0.128032
H	 2.6576711782	 3.0226456546	 2.1702500746	 0.113737
H	 3.8214547494	 0.7585687516	 2.4382242131	 0.125648
H	 5.370862357	 1.503752351	 1.8136336955	 0.129825
36.8953	71.6227	157.4889	186.4017	242.3359	271.17	362.7914	418.9353	508.9587	548.7738	580.1568	714.0603	761.9544	846.0924	868.137	881.6621	912.6496	977.6918	995.3164	1013.7324	1034.1395	1048.9003	1070.6083	1080.2781	1115.9401	1156.0034	1189.8776	1219.8572	1226.7963	1253.6909	1333.615	1353.297	1387.5429	1432.3367	1446.4527	1492.2701	1523.9398	1535.0264	1809.3317	2940.6822	3015.9329	3078.5744	3125.8159	3130.4236	3131.5237	3211.7548	3225.7032	3623.2955
O=CNC1COC11CC1	O=CN[C@H]1COC21CC2	
InChI=1S/C6H9NO2/c8-4-7-5-3-9-6(5)1-2-6/h4-5H,1-3H2,(H,7,8)	InChI=1S/C6H9NO2/c8-4-7-5-3-9-6(5)1-2-6/h4-5H,1-3H2,(H,7,8)/t5-/m0/s1
