18
gdb 77579	2.84898	1.42168	1.23134	3.9014	72.52	-0.2339	0.0615	0.2954	1083.5481	0.146654	-439.013917	-439.005532	-439.004588	-439.046631	32.278	
C	-0.0825953336	 1.5190487118	 0.0654383715	-0.51999
C	 0.1407463183	 0.0425877045	-0.0194790785	 0.332233
N	-0.7583573609	-0.9463816977	 0.618288494	-0.393154
C	 0.6960127566	-0.938520759	 0.9682100092	-0.242801
C	 1.3637011819	-1.7149730097	-0.1348866023	 0.480157
C	 2.6448480115	-2.4154202624	-0.161662394	-0.281015
O	 1.3971242744	-3.1217511634	-0.2394211229	-0.266238
C	 0.7474301646	-0.753094512	-1.2020431859	-0.017613
O	-0.1390315718	-1.2861778723	-2.1362833919	-0.432571
H	 0.8201759391	 2.0693761885	-0.2198104296	 0.129968
H	-0.8893382076	 1.8305511184	-0.6075124146	 0.139871
H	-0.3552759462	 1.8227048558	 1.0822069457	 0.119081
H	-1.2542919915	-0.4726564529	 1.3729036394	 0.231058
H	 1.0201046259	-0.7867259004	 1.9905612177	 0.100969
H	 3.2395334549	-2.4125585002	-1.074579265	 0.119323
H	 3.2070353265	-2.5645972882	 0.7598575823	 0.114451
H	 1.5099876448	-0.1929457256	-1.7509284802	 0.09063
H	-0.8280638971	-1.7256773553	-1.6187989047	 0.295642
91.0583	194.5633	201.0921	224.7029	231.5907	283.7777	335.2839	471.7799	485.3473	512.2811	567.1514	621.3534	717.1075	779.105	830.0743	874.3298	894.1471	926.74	962.0263	984.5735	998.3325	1056.3015	1103.828	1109.5844	1119.204	1146.5363	1156.4513	1179.3652	1198.851	1280.1167	1290.3475	1327.6406	1403.6906	1432.6799	1448.8139	1463.4687	1481.9395	1496.4572	1540.1931	3026.1813	3076.157	3076.8986	3092.0048	3097.1451	3162.8104	3191.8148	3473.2857	3755.5787
CC12NC1C1(CO1)C2O	C[C@]12N[C@H]1[C@]1(CO1)[C@H]2O	
InChI=1S/C6H9NO2/c1-5-3(7-5)6(2-9-6)4(5)8/h3-4,7-8H,2H2,1H3	InChI=1S/C6H9NO2/c1-5-3(7-5)6(2-9-6)4(5)8/h3-4,7-8H,2H2,1H3/t3-,4+,5+,6-/m1/s1
