20
gdb 39488	2.24891	1.85578	1.28574	1.4345	80.89	-0.2243	0.0109	0.2352	1051.2775	0.173988	-403.110269	-403.102566	-403.101622	-403.142258	30.917	
C	-0.3190353013	 1.4155888582	-0.0456483216	-0.065446
C	 0.7994321511	 2.4787002924	-0.0036328648	-0.29748
C	 1.8320175821	 2.2206882019	-1.0655051841	-0.069393
C	 2.8170887006	 1.3257728603	-0.9784193296	-0.00749
C	 3.2109249381	 0.4692395837	 0.1766410301	-0.063008
N	 2.9351367285	 0.9062787327	 1.5626989507	-0.333147
C	 2.3175446285	-0.3319364083	 1.0822260844	-0.027252
C	 0.7898586754	-0.4361127448	 1.0250970319	-0.093212
O	 0.1505175798	 0.0843887503	-0.1186691218	-0.228457
H	-0.9785235672	 1.5450106991	 0.827884563	 0.086397
H	-0.9290129056	 1.5437277685	-0.9464378411	 0.103344
H	 0.3334861228	 3.4616248381	-0.1393384771	 0.090453
H	 1.269472433	 2.4638112587	 0.9809553869	 0.145998
H	 1.7133750013	 2.7493872605	-2.0089575351	 0.084052
H	 3.4570507368	 1.1875577042	-1.8473476208	 0.079539
H	 4.181866553	 0.0009984261	 0.0203022559	 0.081267
H	 3.7314619204	 0.7138209113	 2.1631027303	 0.231685
H	 2.7664868847	-1.2584292746	 1.4417248849	 0.082389
H	 0.5429029374	-1.504536942	 1.0363557471	 0.103512
H	 0.3737902507	 0.0068265637	 1.943430361	 0.096247
91.1123	220.1344	234.7346	264.0047	320.6365	371.5998	392.472	475.8829	549.7936	659.3134	689.6823	745.4893	767.6262	793.8212	840.1636	883.6226	895.4925	958.6768	978.0003	990.5398	1002.4764	1024.4056	1054.5712	1106.9128	1130.5302	1158.8484	1184.4232	1218.2815	1239.7357	1261.0269	1284.8182	1305.7204	1337.5191	1360.8384	1393.7486	1417.9328	1420.0733	1438.0848	1469.9983	1480.4663	1491.0068	1498.7439	1728.027	2973.3597	2983.858	3044.9746	3047.8524	3065.7852	3093.0994	3107.5684	3121.3914	3137.6102	3159.5831	3505.9329
C1CC=CC2NC2CO1	C1CC=C[C@H]2N[C@H]2CO1	
InChI=1S/C7H11NO/c1-2-4-9-5-7-6(3-1)8-7/h1,3,6-8H,2,4-5H2/b3-1-	InChI=1S/C7H11NO/c1-2-4-9-5-7-6(3-1)8-7/h1,3,6-8H,2,4-5H2/b3-1-/t6-,7+/m1/s1
