20
gdb 94656	3.96578	0.76374	0.68681	3.0286	78.36	-0.2504	0.0181	0.2686	1651.7635	0.169554	-440.260034	-440.250129	-440.249185	-440.296954	34.087	
C	-0.3555230167	 1.5062574681	-0.101814607	-0.409542
C	 0.1947759578	 0.0944272754	-0.0478968232	 0.140467
O	 1.5381542682	-0.0045925979	-0.5765977386	-0.291113
C	 1.9508986836	-0.8470855393	 0.5208763234	-0.075799
C	 0.6449025177	-0.5600283733	 1.2884177779	-0.068086
C	 0.8060044431	 0.3603399286	 2.4818572548	-0.09615
O	 1.4353901722	-0.4045377641	 3.5142530543	-0.187279
C	 1.8431545337	 0.2771359674	 4.6020344948	 0.130003
N	 2.3507968642	-0.3384458648	 5.579494795	-0.436275
H	 0.2789695475	 2.2136823465	 0.4387746309	 0.120202
H	-0.409561898	 1.8356397234	-1.1441412757	 0.13383
H	-1.3672029038	 1.5444115051	 0.3162676781	 0.118911
H	-0.478704203	-0.5770873166	-0.6017553819	 0.075852
H	 2.0777020017	-1.8922864555	 0.2117788702	 0.103827
H	 2.8785610779	-0.4975590341	 0.9872513847	 0.111112
H	 0.0726289639	-1.4393084999	 1.5906717896	 0.091973
H	 1.4304552284	 1.2268721218	 2.2277092067	 0.113704
H	-0.1677841887	 0.7290886181	 2.831897284	 0.110592
H	 1.6901089197	 1.3629885022	 4.5232673381	 0.084024
H	 2.6139314605	 0.322717719	 6.3072485339	 0.229746
28.7493	62.8324	73.7386	108.8301	140.8969	205.8348	233.0307	316.9784	367.6653	442.4648	489.4991	638.203	738.6909	822.2568	860.1619	875.9206	895.3217	941.7446	994.1643	1017.2097	1020.7556	1045.0874	1090.6629	1113.8789	1138.8043	1153.1706	1164.0256	1194.2284	1236.3805	1266.4282	1297.5312	1300.0964	1351.0429	1371.5154	1390.7279	1408.4015	1413.7636	1434.4749	1481.0959	1496.7196	1512.0761	1528.403	1749.7184	2981.9084	2998.741	3018.7081	3019.0618	3038.2203	3046.2881	3068.0447	3095.8474	3107.7069	3119.1716	3518.7138
CC1OCC1COC=N	C[C@H]1OC[C@H]1CO[CH][NH]	
InChI=1S/C6H11NO2/c1-5-6(3-9-5)2-8-4-7/h4-7H,2-3H2,1H3	InChI=1S/C6H11NO2/c1-5-6(3-9-5)2-8-4-7/h4-7H,2-3H2,1H3/t5-,6-/m1/s1
