20
gdb 77576	2.63815	1.48054	1.2548	2.0933	79.91	-0.2342	0.064	0.2982	1108.4695	0.16965	-403.090065	-403.081181	-403.080237	-403.12308	34.474	
C	 0.0978078162	 1.5078344485	 0.1193657676	-0.500513
C	-0.0355025236	 0.0214723688	-0.0292055451	 0.313731
C	-0.8881232946	-0.8305599561	 0.8239529032	-0.286225
N	 0.581353814	-0.9668634079	 0.9622827089	-0.206048
C	 0.9814367238	-1.8013324105	-0.2005974352	 0.393556
C	 2.2483258545	-2.5859037882	-0.2222138059	-0.354749
C	 0.9051726311	-3.2924559031	-0.2356371439	-0.318825
C	 0.4752807181	-0.796701845	-1.2287804735	-0.058492
O	-0.4530779068	-1.3213327643	-2.153025102	-0.428332
H	 1.0946599527	 1.8497640783	-0.1801191371	 0.122298
H	-0.6395591917	 2.0313312778	-0.5015870049	 0.117026
H	-0.0639066151	 1.8095911744	 1.1581308723	 0.132308
H	-1.3518447784	-0.3589193099	 1.6853550863	 0.113015
H	-1.4500685057	-1.6508784127	 0.3855329663	 0.126906
H	 2.8417854296	-2.5816954726	-1.1311853276	 0.111908
H	 2.8216490497	-2.6143538373	 0.6980349688	 0.122807
H	 0.5928424136	-3.7968925269	 0.6729585605	 0.117872
H	 0.5705742101	-3.7560878113	-1.1570501842	 0.127318
H	 1.2967441525	-0.2777280025	-1.7430188638	 0.071105
H	-0.6960802599	-0.6246967497	-2.7714746506	 0.283334
101.8777	173.0435	196.9246	222.0693	230.6203	258.3006	272.688	342.4512	455.7895	504.4438	537.1128	589.9871	685.8499	763.0424	781.8082	787.3005	864.5404	914.4881	928.8704	969.9388	979.0246	1003.3295	1032.1599	1047.487	1072.5001	1087.3455	1113.2625	1121.757	1146.8155	1188.3306	1204.514	1226.3205	1264.3606	1304.3654	1366.4617	1387.4903	1418.6452	1441.6017	1452.4014	1483.3459	1491.3723	1495.4565	1511.8651	2999.3354	3024.4805	3084.5462	3110.3629	3113.5785	3126.7623	3132.6641	3203.4446	3211.4786	3226.0734	3813.7072
CC12CN1C1(CC1)C2O	C[C@]12CN1C1(CC1)[C@H]2O	
InChI=1S/C7H11NO/c1-6-4-8(6)7(2-3-7)5(6)9/h5,9H,2-4H2,1H3	InChI=1S/C7H11NO/c1-6-4-8(6)7(2-3-7)5(6)9/h5,9H,2-4H2,1H3/t5-,6+,8?/m0/s1
