14
gdb 19039	4.23507	2.32904	2.00679	4.9029	60.09	-0.2475	0.0192	0.2667	691.5079	0.110285	-378.711906	-378.706398	-378.705454	-378.741347	22.399	
O	-0.0503842654	 0.0388164953	 0.2824325924	-0.353406
C	-0.0521295293	 1.2119431138	 0.0289216359	 0.405532
N	-1.1553438881	 2.0190212302	-0.2283472211	-0.307352
C	-0.7494064162	 3.4020735897	-0.025155964	-0.048415
C	-0.1760721164	 3.6040076925	 1.4211571644	-0.254975
C	 1.1944365231	 3.2062881477	 0.8584955745	-0.045513
C	 0.7163105983	 3.3684929144	-0.5401971783	-0.035831
N	 1.1312889588	 2.0429488896	-0.0879379076	-0.161733
H	-2.0384479847	 1.6869696159	 0.1338357427	 0.252104
H	-1.4606635015	 4.1256499835	-0.4165081765	 0.097024
H	-0.1669521456	 4.6591856885	 1.7072630941	 0.117837
H	-0.6188942435	 3.0042712278	 2.2223099419	 0.110005
H	 2.1652065216	 3.3989701634	 1.2967863767	 0.114699
H	 1.1506799987	 3.8077961176	-1.429266715	 0.110025
160.2901	351.5603	441.4852	493.2504	567.5151	676.0156	690.2644	733.1692	802.1219	842.7628	869.0494	871.4581	904.7468	932.5164	959.495	989.3793	1027.5598	1062.5955	1087.0155	1129.9074	1158.9917	1168.2584	1225.3893	1257.4245	1265.9991	1333.5277	1347.8068	1389.4561	1484.2045	1874.0615	3050.7452	3110.9211	3146.1716	3192.8091	3206.3288	3605.3653
O=C1NC2CC3C2N13	O=C1N[C@H]2C[C@@H]3[C@H]2N13	
InChI=1S/C5H6N2O/c8-5-6-2-1-3-4(2)7(3)5/h2-4H,1H2,(H,6,8)	InChI=1S/C5H6N2O/c8-5-6-2-1-3-4(2)7(3)5/h2-4H,1H2,(H,6,8)/t2-,3+,4-,7?/m0/s1
