19
gdb 38040	3.47365	1.53467	1.22034	1.8723	79.71	-0.2348	0.0021	0.2369	1044.2161	0.162242	-385.889427	-385.882443	-385.881499	-385.920853	28.408	
C	-0.0232758048	 1.5290082435	-0.0320729415	-0.205285
C	 1.4476386434	 2.0222738443	 0.0131410818	-0.229865
C	 2.2252933993	 0.8524311829	-0.6161775786	-0.082422
C	 3.681881918	 0.5713259874	-0.2776277203	 0.000137
O	 3.9751465995	 0.4403980213	 1.1123657609	-0.259968
C	 3.7389410013	-0.7691149654	 0.3413604935	 0.013738
C	 2.3307821127	-1.2556069711	 0.479674582	-0.262115
C	 1.4947625185	-0.3410727582	-0.0191417948	 0.341852
C	 0.0327478208	-0.0251237755	 0.1457752738	-0.323421
H	-0.6458808584	 2.0106382364	 0.7261002706	 0.102836
H	-0.4629423965	 1.7735651995	-1.0048344475	 0.101916
H	 1.5849602573	 2.9752646807	-0.5048681033	 0.094707
H	 1.781485597	 2.1452857946	 1.0486180537	 0.120408
H	 2.1091848675	 0.8793383111	-1.7099279528	 0.078057
H	 4.4857200515	 0.9747632717	-0.8877671359	 0.089797
H	 4.5955683189	-1.4328169747	 0.2718673889	 0.093904
H	 2.0596660307	-2.1489624945	 1.0294653795	 0.095922
H	-0.3378528317	-0.3437005555	 1.1247544719	 0.117256
H	-0.5887530451	-0.5285458586	-0.6037574118	 0.112547
99.5233	177.0378	216.9955	349.3185	462.0455	478.5527	565.8843	632.998	690.6129	717.2907	779.3052	819.1486	833.6393	856.6399	867.6419	896.359	899.9768	942.153	984.5859	997.0997	1014.5238	1060.0458	1077.5635	1109.1151	1155.0823	1165.6779	1192.7416	1227.6581	1245.2084	1268.8117	1281.8372	1301.1948	1308.3727	1332.2979	1344.7116	1358.2012	1405.956	1477.1553	1491.7094	1506.1847	1703.4486	2996.0767	3034.8198	3050.1695	3053.0722	3074.6454	3096.2212	3108.2108	3143.9505	3161.9299	3202.4183
C1CC2C3OC3C=C2C1	C1C[C@H]2[C@H]3O[C@H]3[CH][C]2C1	
InChI=1S/C8H10O/c1-2-5-4-7-8(9-7)6(5)3-1/h4,6-8H,1-3H2	InChI=1S/C8H10O/c1-2-5-4-7-8(9-7)6(5)3-1/h4,6-8H,1-3H2/t6-,7+,8-/m1/s1
