19
gdb 83619	2.4299	1.90141	1.26627	2.5201	74.79	-0.2281	0.0638	0.2918	1020.6478	0.159961	-422.968887	-422.961269	-422.960325	-423.000761	30.516	
O	-0.0833035695	 1.4832637741	 0.0122239031	-0.43057
C	-0.0278957353	 0.0716518447	 0.0261081276	 0.105574
C	-1.4412543478	-0.5541447246	-0.0053757717	-0.109887
C	-1.5494752018	-2.0131898174	 0.547351764	-0.240463
C	-1.5911843396	-2.5868656079	-0.9087377636	-0.328816
C	-1.1416948655	-1.2197767737	-1.3924717446	 0.497915
O	-1.4247931964	-0.635711022	-2.6505490545	-0.329495
C	-0.1666347647	 0.0943015728	-2.6112967608	-0.101112
C	 0.2974188147	-0.6381591874	-1.3303792584	-0.205024
H	 0.8166162049	 1.8204873406	-0.0507496616	 0.282612
H	 0.5962506865	-0.286336782	 0.8581885225	 0.064248
H	-2.2851065116	 0.1083621575	 0.1858925926	 0.081646
H	-0.673255996	-2.3290948198	 1.1201320087	 0.101264
H	-2.4395035063	-2.2097057814	 1.1463990326	 0.111132
H	-0.9683780285	-3.4521065453	-1.1529923359	 0.097725
H	-2.6192745782	-2.7919565981	-1.2236645051	 0.116418
H	 0.4298774901	-0.1050108062	-3.5071359744	 0.103629
H	-0.3224874734	 1.1712285842	-2.4936832845	 0.114539
H	 1.2059757183	-1.2367624382	-1.4106453761	 0.068664
98.5505	219.4031	249.4295	266.0058	300.2101	365.2392	376.5856	517.7419	534.2101	677.5162	722.2427	767.4561	818.2389	849.4845	887.9638	901.0706	924.8092	974.5977	984.996	1001.5014	1024.532	1058.1237	1070.4057	1104.0515	1145.6968	1147.7771	1173.2458	1195.7726	1211.0009	1218.2345	1239.8904	1261.5666	1273.5695	1288.2265	1310.969	1327.1882	1356.8313	1414.9668	1474.7774	1492.6296	1514.3063	2982.7139	3037.7597	3049.4281	3064.0628	3088.2698	3098.4281	3099.6649	3116.6872	3129.2093	3807.6449
OC1C2CCC22OCC12	O[C@H]1[C@@H]2CC[C@]32OC[C@@H]13	
InChI=1S/C7H10O2/c8-6-4-1-2-7(4)5(6)3-9-7/h4-6,8H,1-3H2	InChI=1S/C7H10O2/c8-6-4-1-2-7(4)5(6)3-9-7/h4-6,8H,1-3H2/t4-,5-,6-,7+/m0/s1
