14
gdb 129374	2.92798	1.52477	1.00407	8.5633	69.96	-0.213	-0.034	0.1789	1082.2986	0.102111	-470.038212	-470.030361	-470.029417	-470.070437	29.783	
N	 0.0822018312	 1.3821845541	 0.1393322168	-0.560587
C	-0.0166653012	 0.028712469	 0.0090458754	 0.311006
N	 1.123292361	-0.6795934225	-0.0971645937	-0.551104
H	 2.0001925098	-0.2747786813	 0.1839932035	 0.261647
H	 0.9994192684	-1.6951191551	-0.0624714105	 0.303786
C	-1.2329375832	-0.6460119378	 0.0038075298	 0.024808
C	-1.3120005344	-2.0877626033	 0.0004927794	 0.458389
O	-0.4357131563	-2.9394925199	-0.018314808	-0.432303
O	-2.6457510108	-2.4026664084	 0.0203037952	-0.243858
N	-3.4283847543	-1.2178785507	 0.029070624	-0.131243
C	-2.5929054509	-0.224003353	 0.0188148391	-0.100163
H	 0.9118036899	 1.8342895412	-0.2116412633	 0.26726
H	-0.7626886341	 1.920392922	 0.0443928753	 0.277626
H	-3.0005811951	 0.7799632159	 0.0230542971	 0.114733
117.8561	157.0509	212.684	270.7074	325.8053	384.4851	412.751	446.8779	454.9534	570.4503	606.4408	642.737	698.0187	737.1282	756.5376	799.177	878.2369	884.8626	916.327	1059.301	1110.3155	1120.4339	1229.7039	1281.8495	1368.7785	1509.6561	1575.2417	1603.7467	1656.3405	1698.8573	1781.9222	3200.5838	3359.1011	3599.5277	3680.5465	3712.5485
NC(=[NH2+])C1=C([O-])ON=C1	NC(=[NH2])[C]1C(=O)ON=C1	
InChI=1S/C4H5N3O2/c5-3(6)2-1-7-9-4(2)8/h1,8H,(H3,5,6)	InChI=1S/C4H5N3O2/c5-3(6)2-1-7-9-4(2)8/h1H,5-6H2
