21
gdb 112919	2.522	1.20406	1.0491	1.45	73.93	-0.2484	0.0614	0.3097	1242.15	0.183296	-461.367067	-461.357868	-461.356924	-461.401104	35.426	
O	-0.0527408165	 1.3889515443	-0.0288345262	-0.429157
C	 0.0231974366	-0.0291107143	-0.1319114757	-0.092742
C	-1.3823328479	-0.5777037375	 0.0541324477	 0.012922
C	-2.3957351188	-0.1277280065	-1.0399221394	-0.218213
C	-3.1523988054	-1.3976308381	-1.4772136317	 0.09584
O	-2.5245428284	-1.8643935534	-2.6898620715	-0.436244
C	-2.9179381085	-2.3922585083	-0.3282414773	-0.266613
C	-1.4526083265	-2.1275303882	 0.0603657748	 0.115454
O	-0.547754324	-2.7331124208	-0.8536801821	-0.448752
H	 0.8156287153	 1.7485872155	-0.2311921472	 0.284841
H	 0.415201759	-0.3401972751	-1.1098790146	 0.092026
H	 0.6922104906	-0.4495094677	 0.6354719153	 0.085687
H	-1.7404926399	-0.2259350695	 1.0293717225	 0.076425
H	-3.0895587453	 0.6204107327	-0.6504578143	 0.106589
H	-1.9006652973	 0.3181831967	-1.9062251543	 0.119902
H	-4.2145587198	-1.2075047239	-1.6734670341	 0.068372
H	-2.9691654757	-2.6765932161	-2.9568261829	 0.28626
H	-3.5823881202	-2.1496703759	 0.5099370889	 0.100834
H	-3.0958593032	-3.434803039	-0.6116301759	 0.091936
H	-1.1969210941	-2.5364182588	 1.0424258117	 0.073629
H	-0.8808514999	-2.5269277361	-1.7398375937	 0.281006
58.2752	104.3291	180.1204	210.6872	273.051	309.2309	344.3858	383.3409	390.7798	411.8957	456.3017	499.6252	641.9913	724.2721	786.4711	811.9642	835.7655	858.2546	901.0249	963.8952	977.0313	994.0145	1002.7931	1064.2802	1071.0019	1086.956	1148.8059	1171.6356	1185.7805	1227.4392	1241.7836	1253.0854	1272.9248	1284.0096	1307.5745	1340.8742	1348.0882	1353.2364	1383.3053	1410.9528	1457.7772	1465.7067	1477.0131	1486.1779	1518.1823	2977.9186	3018.128	3021.7491	3036.0178	3038.7091	3068.7591	3075.8369	3086.3608	3116.9342	3705.4216	3804.9358	3830.7751
OCC1CC(O)CC1O	OC[C@H]1C[C@@H](O)C[C@H]1O	
InChI=1S/C6H12O3/c7-3-4-1-5(8)2-6(4)9/h4-9H,1-3H2	InChI=1S/C6H12O3/c7-3-4-1-5(8)2-6(4)9/h4-9H,1-3H2/t4-,5-,6-/m1/s1
