17
gdb 47169	2.41019	1.90436	1.11867	4.1631	75.43	-0.2195	0.0022	0.2218	1052.8784	0.138884	-418.010453	-418.003012	-418.002068	-418.04246	28.78	
O	-0.0461051345	-0.0622167939	 0.0107365015	-0.377332
C	-0.0270591475	 1.1519124484	-0.0002297842	 0.402939
N	-1.161160183	 1.9159623084	-0.1219379541	-0.324641
C	-1.3016782835	 3.3690288199	-0.0056778025	-0.192008
C	-0.1234240212	 4.0009459285	 0.6996255083	-0.249844
C	 1.0267726347	 3.3530589355	 0.6666884385	 0.330596
C	 2.3431709658	 3.2085560998	 1.3973138342	-0.259321
N	 2.2541138835	 1.7375801081	 1.1133809023	-0.316977
C	 1.236146327	 1.9961764289	 0.0583884198	-0.162102
H	-2.0080770118	 1.3760273679	-0.2233031137	 0.248095
H	-1.4574798681	 3.8251086802	-0.9969224953	 0.12161
H	-2.2138253142	 3.5736414578	 0.5681806622	 0.123436
H	-0.2880016727	 4.9217665718	 1.2488293835	 0.103339
H	 3.1801820845	 3.7148386682	 0.8938674004	 0.105377
H	 2.3625101198	 3.4658690078	 2.4612875787	 0.123236
H	 3.1121696918	 1.3192237581	 0.7712472626	 0.225428
H	 1.6570677295	 2.0398990248	-0.9597670921	 0.098169
103.2097	137.3386	232.7571	259.5552	335.2	475.6055	483.1808	497.5081	555.785	638.7205	697.4405	714.165	784.4167	860.1692	891.9031	932.96	970.2347	987.9697	1018.5036	1020.3229	1069.1098	1115.9482	1127.4733	1133.074	1211.2768	1245.2754	1267.4499	1294.1704	1334.6978	1348.7144	1375.3173	1393.5811	1471.8465	1501.16	1514.9841	1796.5157	1804.0463	2961.8562	2967.2503	2991.4297	3039.5603	3068.0233	3186.7613	3533.1844	3613.4233
O=C1NCC=C2CNC12	O=C1NC[CH][C]2CN[C@@H]12	
InChI=1S/C6H8N2O/c9-6-5-4(3-8-5)1-2-7-6/h1,5,8H,2-3H2,(H,7,9)	InChI=1S/C6H8N2O/c9-6-5-4(3-8-5)1-2-7-6/h1,5,8H,2-3H2,(H,7,9)/t5-/m1/s1
