20
gdb 109512	1.90383	1.44614	1.05557	3.623	81.39	-0.2225	0.0331	0.2556	1249.691	0.170118	-399.317288	-399.307025	-399.306081	-399.352254	37.501	
C	 0.4046029362	 1.3038173499	 0.2969111737	-0.321035
N	-0.2867053804	 0.1475446053	-0.2733516976	-0.291412
C	 0.4408688409	-0.5079227423	-1.3030301067	 0.036756
C	 1.5687739883	-1.5560052955	-1.0395896126	-0.254986
C	 1.8476201229	-1.9293053268	 0.3099674815	 0.29649
N	 2.0408418647	-2.213444846	 1.4169672463	-0.360314
C	 0.2176807624	-1.9348072259	-1.678197011	 0.202272
C	-0.7584804108	-2.8014714634	-0.9037179942	-0.466084
N	 0.3358217752	-2.1838847415	-3.0990544747	-0.545818
H	 1.3835653562	 1.0635891879	 0.738664535	 0.122911
H	 0.5590151321	 2.0534315229	-0.4866712978	 0.124453
H	-0.2255922732	 1.7524525805	 1.069080978	 0.12483
H	-0.5513997433	-0.4960502536	 0.4625195603	 0.233083
H	 0.6779440677	 0.1466691599	-2.1367190412	 0.115017
H	 2.4176792765	-1.5453722092	-1.7129585432	 0.130908
H	-0.7125310719	-2.6460532211	 0.1771355564	 0.137968
H	-1.7835979012	-2.6048482899	-1.2358717566	 0.124654
H	-0.5397225898	-3.8598553282	-1.0827459872	 0.125284
H	 0.5222303633	-3.1698587471	-3.2657123787	 0.230665
H	-0.545898456	-1.9719462261	-3.5594430398	 0.234357
78.7735	108.5749	138.3278	167.727	184.4262	216.9702	228.5878	292.3229	335.2573	385.5305	392.7106	432.528	522.5442	566.8336	654.4966	678.3407	708.7512	817.7525	858.8956	890.6226	924.9407	1001.8438	1022.5527	1042.6626	1078.4977	1097.0993	1155.2168	1162.4829	1203.1545	1263.0617	1285.9248	1301.5836	1342.87	1404.4973	1427.1019	1459.9738	1483.4803	1488.985	1494.9815	1509.037	1529.738	1656.388	2333.3779	2990.2546	3033.2426	3069.9365	3097.1123	3114.9818	3116.8767	3157.2784	3185.0037	3473.7614	3550.9413	3554.3134
CNC1C(C#N)C1(C)N	CN[C@H]1[C@@H](C#N)[C@]1(C)N	
InChI=1S/C6H11N3/c1-6(8)4(3-7)5(6)9-2/h4-5,9H,8H2,1-2H3	InChI=1S/C6H11N3/c1-6(8)4(3-7)5(6)9-2/h4-5,9H,8H2,1-2H3/t4-,5+,6+/m1/s1
