18
gdb 15145	6.39776	0.84851	0.80511	4.5138	70.43	-0.239	0.0316	0.2706	1410.8667	0.153821	-381.110092	-381.10139	-381.100446	-381.145362	30.232	
O	 0.3748280438	 0.2827938568	 1.0031818061	-0.320203
C	 0.1757031232	 1.1879314977	 0.2216630557	 0.153555
N	 1.0893518009	 1.6774131689	-0.6594524204	-0.270457
C	 2.4522400155	 1.1774390737	-0.7393117677	-0.16806
C	 3.430065634	 1.9850829346	 0.1230514019	-0.134621
N	 4.7723295071	 1.4381453664	-0.0039375471	-0.055493
C	 5.6134882257	 2.0081012267	-1.0529413396	-0.221523
C	 5.8709363836	 2.3140910405	 0.3811230734	-0.21749
H	-0.7972645499	 1.712997742	 0.1371571635	 0.071954
H	 0.8215477625	 2.4636735476	-1.2292265955	 0.246541
H	 2.4439946459	 0.1403276221	-0.3989674117	 0.157392
H	 2.7752448622	 1.1899523946	-1.7857957892	 0.107917
H	 3.3820903259	 3.0543274062	-0.1600645441	 0.068368
H	 3.121028286	 1.9096353629	 1.1711402812	 0.127275
H	 6.2428515268	 1.3060384781	-1.5919108667	 0.120014
H	 5.1982640371	 2.8103096459	-1.6626103596	 0.104406
H	 5.6266082191	 3.3182772634	 0.7248051153	 0.109628
H	 6.6915992404	 1.838805462	 0.9105513447	 0.120797
18.0974	68.9672	103.6977	148.4304	236.8911	277.6627	373.1064	423.3072	446.0323	522.3039	732.085	774.4592	823.551	856.8147	897.7711	986.4838	1016.9015	1032.1566	1039.3236	1071.9435	1112.3241	1118.6751	1135.3773	1174.9271	1186.5102	1218.3074	1267.1925	1322.1147	1331.9655	1340.4481	1412.9122	1431.3131	1473.7656	1489.0672	1498.7705	1524.5267	1531.3013	1808.6899	2917.9218	2929.1171	3049.8226	3072.6315	3090.0165	3096.5074	3130.1369	3176.5973	3190.7731	3637.8841
O=CNCCN1CC1	O=CNCCN1CC1	
InChI=1S/C5H10N2O/c8-5-6-1-2-7-3-4-7/h5H,1-4H2,(H,6,8)	InChI=1S/C5H10N2O/c8-5-6-1-2-7-3-4-7/h5H,1-4H2,(H,6,8)
