13
gdb 131763	1.96661	1.81562	1.00136	2.4686	67.99	-0.2778	-0.064	0.2138	1104.353	0.087898	-452.661217	-452.653131	-452.652187	-452.694804	28.805	
O	 0.1251991772	 1.3464187607	-0.3542576525	-0.402542
C	 0.0257595016	 0.0094137329	 0.1049498992	-0.191761
C	-1.3809540959	-0.50424677	 0.0209963678	 0.187547
N	-2.1024366429	-0.7590668863	 1.0758551327	-0.122494
O	-3.3257718359	-1.1602785102	 0.6116772665	-0.15021
N	-3.3738328675	-1.1534608623	-0.7482830352	-0.162306
C	-2.1866204558	-0.7502406513	-1.1427658091	 0.174506
C	-1.8212439071	-0.6128903742	-2.5003374976	 0.299071
C	-1.4741161681	-0.4921361736	-3.6446610565	-0.407211
H	-0.3788156533	 1.9039727402	 0.2484653301	 0.294928
H	 0.6717583265	-0.5801998118	-0.5520860109	 0.138512
H	 0.3838438214	-0.1113334769	 1.1351279622	 0.128533
H	-1.1753019102	-0.3820235574	-4.6583942468	 0.213428
42.8487	120.6533	163.5286	181.9177	287.5999	368.1598	408.3936	502.425	533.5121	603.2262	642.7418	648.5343	684.8811	713.2797	810.7553	907.6268	936.6741	977.5023	1052.0745	1077.9994	1202.8315	1236.8821	1377.1795	1403.3185	1423.5728	1491.8122	1497.5703	1598.4523	2250.9901	3030.8292	3095.431	3499.3234	3810.3896
OCC1=NON=C1C#C	OCc1nonc1C#C	
InChI=1S/C5H4N2O2/c1-2-4-5(3-8)7-9-6-4/h1,8H,3H2	InChI=1S/C5H4N2O2/c1-2-4-5(3-8)7-9-6-4/h1,8H,3H2
