19
gdb 26396	4.31808	0.91977	0.78716	1.7473	78.69	-0.2071	0.0288	0.2359	1453.6016	0.158843	-423.058386	-423.04938	-423.048436	-423.09321	33.324	
C	 0.0174741743	 1.5103202698	 0.1824683098	-0.400002
C	-0.1789148435	 0.0076725555	-0.0205504999	 0.128068
O	-1.477384418	-0.2704033289	-0.5443618219	-0.425952
C	 0.8264385855	-0.5714568607	-1.0217610047	-0.31336
C	 0.8096785079	-2.0625324173	-1.1100684024	 0.357365
C	-0.1711930247	-3.0063774943	-1.1521578747	-0.253136
C	 0.4866367712	-4.2763614748	-1.2495900773	-0.175174
C	 1.817435182	-4.0107070459	-1.2621051416	-0.026795
O	 2.0335585228	-2.6701046957	-1.1761118051	-0.179504
H	 1.0033405601	 1.7270257371	 0.6065461592	 0.117361
H	-0.0798679688	 2.0416278776	-0.769615757	 0.125717
H	-0.7356432254	 1.9085140021	 0.8718947301	 0.104703
H	-0.0451099308	-0.510569522	 0.9420761396	 0.073488
H	-2.1274813736	 0.0176779564	 0.1039493222	 0.282409
H	 0.61603939	-0.1202529009	-2.0012955667	 0.122797
H	 1.8363817043	-0.2598820828	-0.7381603163	 0.115716
H	-1.2287982775	-2.8053525878	-1.1195034702	 0.115937
H	 0.0262592506	-5.2506813291	-1.3026805627	 0.104383
H	 2.7016368537	-4.6235320184	-1.3214216304	 0.125978
27.2886	83.4592	132.3827	239.4699	275.8761	294.8447	303.0114	316.5797	459.9682	465.2324	616.6995	653.5882	731.9556	745.053	818.0824	850.0117	860.2961	895.2448	906.6613	944.4047	968.9049	1029.0824	1056.657	1099.6892	1114.0949	1122.3565	1170.2248	1193.4197	1232.2524	1252.9034	1311.0045	1330.65	1382.1134	1406.8718	1417.7599	1431.7015	1465.2727	1493.1219	1498.2661	1534.5237	1631.2711	2977.0956	3017.3186	3029.5029	3087.4314	3096.7187	3113.0088	3251.1995	3281.3337	3287.4215	3820.8257
CC(O)CC1=CC=CO1	C[C@@H](O)Cc1ccco1	
InChI=1S/C7H10O2/c1-6(8)5-7-3-2-4-9-7/h2-4,6,8H,5H2,1H3	InChI=1S/C7H10O2/c1-6(8)5-7-3-2-4-9-7/h2-4,6,8H,5H2,1H3/t6-/m1/s1
