18
gdb 39182	2.81994	1.69703	1.14146	1.3453	80.23	-0.2253	-0.0094	0.2159	1062.2184	0.149023	-401.913443	-401.905879	-401.904935	-401.946097	29.018	
C	 0.391808067	 1.8664510384	 1.0149590703	-0.284114
C	 1.3204815394	 1.5024124476	-0.1856251145	 0.021509
O	 0.946157475	 2.1197349312	-1.398787671	-0.23932
C	 1.568674355	 1.5346552275	-2.5190319039	-0.136344
C	 1.1183769778	 0.1286201858	-2.9398039606	 0.023275
N	 0.93109767	-0.9538441475	-2.3084104811	-0.17743
C	 1.1071002923	-1.1135592054	-0.8630725889	-0.291821
C	 0.8293885317	 0.0786644516	-0.0200389176	 0.349597
C	 0.0643804727	 0.380189083	 1.0375875238	-0.229989
H	 0.8882503131	 2.2886652547	 1.8951041491	 0.103248
H	-0.4329280339	 2.520188691	 0.7177595568	 0.121404
H	 2.3969945488	 1.6557358024	-0.0013642204	 0.064869
H	 1.3668244044	 2.2071432181	-3.3582636987	 0.11768
H	 2.6676213652	 1.5075141836	-2.3868600404	 0.103769
H	 0.9925623435	 0.0520486032	-4.0272075625	 0.101986
H	 0.4747355774	-1.9512654309	-0.5486490559	 0.123561
H	 2.1450100458	-1.4545388234	-0.7191833895	 0.125852
H	-0.5701426151	-0.2115186107	 1.6883979749	 0.102268
39.0039	159.4045	253.2794	292.1092	314.4881	379.4612	418.4897	470.7733	615.955	685.2658	756.2576	814.282	816.831	873.4566	887.5221	931.0756	943.0184	961.7262	998.0676	1035.5411	1059.2566	1073.1008	1131.8399	1164.9353	1205.0985	1210.3893	1241.8073	1258.2677	1289.0462	1314.2928	1359.1895	1370.0971	1400.8591	1427.5186	1465.0586	1474.1635	1477.5346	1706.13	1754.2849	2924.5137	2961.6214	2985.4086	3038.6528	3044.6344	3058.6003	3082.4404	3098.6983	3190.2496
C1C2OCC3N4CC23C14	C1[C@@H]2OCC=NCC2=C1	
InChI=1S/C7H9NO/c1-4-7-3-8(4)5(7)2-9-6(1)7/h4-6H,1-3H2	InChI=1S/C7H9NO/c1-2-7-6(1)5-8-3-4-9-7/h1,3,7H,2,4-5H2/t7-/m0/s1
