23
gdb 101458	3.11066	1.02065	0.83274	1.3682	88.21	-0.2288	0.0172	0.246	1475.1107	0.204936	-388.30245	-388.292527	-388.291583	-388.337949	36.548	
C	 0.0637585362	 1.4943456539	 0.2234613661	-0.393975
C	-0.032747027	-0.0162672888	-0.0126038892	-0.169387
C	-1.4714289103	-0.5636246728	-0.0757600434	 0.034861
C	-2.2280951368	-0.068215671	-1.3162390056	-0.40866
C	-1.4509215944	-2.107455357	-0.0304093792	 0.083108
O	-0.7495490556	-2.5624525106	 1.1362365344	-0.279609
C	-1.5658479013	-3.4321050626	 1.9129470892	-0.11465
C	-2.8708109116	-3.5056998506	 1.1738679423	-0.102153
C	-2.8016383213	-2.7688021677	 0.0719971803	-0.096477
H	 1.1091803642	 1.8077648103	 0.3082851229	 0.111193
H	-0.3840239465	 2.0737840095	-0.5902282142	 0.112922
H	-0.4429889681	 1.7810073462	 1.152044641	 0.112572
H	 0.4877191206	-0.277964228	-0.945038027	 0.084676
H	 0.492388096	-0.5398680818	 0.7914458475	 0.118954
H	-2.0071809106	-0.2288989159	 0.8238108198	 0.068443
H	-1.768121263	-0.4528616904	-2.234958989	 0.112431
H	-3.2759168323	-0.3827045162	-1.3095472383	 0.111607
H	-2.2191116101	 1.0231789328	-1.3768407318	 0.118686
H	-0.9064407827	-2.4627519919	-0.9242981515	 0.075321
H	-1.082029249	-4.418164953	 2.0043136726	 0.103321
H	-1.6774502901	-3.0335985528	 2.9337674353	 0.10418
H	-3.7147238236	-4.0915483269	 1.5157173594	 0.104638
H	-3.5791520527	-2.6437259046	-0.6695892515	 0.107996
57.2221	69.2782	87.9071	164.7272	210.1723	222.7244	283.9724	296.6862	365.4296	397.8344	443.7837	525.9489	709.6683	767.5045	776.9007	812.8898	849.2583	877.5336	938.0605	950.9717	961.257	977.0842	999.3182	1016.2096	1045.7804	1057.8642	1108.4649	1126.0977	1141.9644	1151.3576	1182.93	1199.8099	1268.6099	1299.0193	1310.0526	1350.1429	1363.7481	1372.0259	1385.3598	1387.6581	1406.3742	1413.5031	1486.4469	1496.0159	1500.1584	1508.2506	1512.7945	1521.3942	1692.0609	2932.5606	2969.7571	2986.3059	3003.4576	3016.1072	3030.302	3031.8935	3080.5253	3095.9075	3097.2234	3104.5364	3113.9197	3208.679	3235.1709
CCC(C)C1OCC=C1	CC[C@@H](C)[C@H]1OCC=C1	
InChI=1S/C8H14O/c1-3-7(2)8-5-4-6-9-8/h4-5,7-8H,3,6H2,1-2H3	InChI=1S/C8H14O/c1-3-7(2)8-5-4-6-9-8/h4-5,7-8H,3,6H2,1-2H3/t7-,8+/m1/s1
