21
gdb 65562	3.59976	0.95011	0.88252	1.4097	78.37	-0.246	0.0744	0.3205	1387.1755	0.181298	-424.180966	-424.171667	-424.170722	-424.215872	34.04	
C	-0.207767552	 1.5867383697	 0.1496138627	-0.462488
C	-0.0161660212	 0.0794060925	 0.0154625492	 0.289564
C	-1.3460256929	-0.6862775589	-0.0776528534	-0.28256
C	-2.188876654	-0.3227809716	-1.2768327621	 0.088013
C	-3.6544695576	-0.4002971953	-1.2559377754	-0.182198
O	-2.9893103833	 0.8615357322	-1.1800671926	-0.231551
C	 1.0356801451	-0.3928609769	-1.0263409252	-0.109639
O	 1.7666341072	-1.1288097341	-0.0269858305	-0.274319
C	 0.9604704628	-0.5722531707	 1.0299879233	-0.119607
H	 0.7583789361	 2.094788428	 0.2337375048	 0.111331
H	-0.7419465245	 2.0040557782	-0.7082037452	 0.141434
H	-0.7944416953	 1.8275700442	 1.0431211552	 0.118346
H	-1.1316107673	-1.7627408175	-0.1181342566	 0.110216
H	-1.9357086035	-0.5089202773	 0.8304010205	 0.102099
H	-1.6996135138	-0.4363063383	-2.2465436162	 0.09249
H	-4.2032186838	-0.5867435419	-2.1779702142	 0.115301
H	-4.1599671904	-0.716795444	-0.3441387902	 0.113791
H	 0.6803788715	-1.0441072087	-1.8350219648	 0.095255
H	 1.6372433793	 0.4163454215	-1.4625547128	 0.095629
H	 1.5242246281	 0.1458412949	 1.6413016416	 0.092533
H	 0.5445680395	-1.348800396	 1.684328942	 0.096358
58.5499	69.3727	103.4078	159.2708	227.8105	286.6921	313.1397	336.0137	394.7327	437.3797	486.1551	679.2898	789.7548	845.7358	863.6722	895.3898	914.5572	927.0152	968.0734	980.2751	993.5529	1016.0712	1038.9277	1087.9482	1097.4637	1157.9077	1160.4994	1164.6998	1165.5937	1181.3986	1205.1746	1275.4505	1296.052	1305.016	1311.0403	1342.6682	1385.3908	1421.9198	1448.455	1466.6512	1493.3468	1496.0051	1512.2509	1531.55	1535.6554	2993.6825	3004.2527	3015.455	3034.2905	3042.683	3046.7423	3059.3055	3081.8814	3091.1756	3097.8557	3117.8709	3168.3483
CC1(CC2CO2)COC1	CC1(C[C@H]2CO2)COC1	
InChI=1S/C7H12O2/c1-7(4-8-5-7)2-6-3-9-6/h6H,2-5H2,1H3	InChI=1S/C7H12O2/c1-7(4-8-5-7)2-6-3-9-6/h6H,2-5H2,1H3/t6-/m0/s1
