14
gdb 24851	2.38824	1.78894	1.0228	3.1609	76.46	-0.261	-0.1057	0.1553	1071.6945	0.103681	-432.903159	-432.895821	-432.894876	-432.936161	27.051	
N	-0.0959779433	 1.3449095924	 0.0095010519	-0.513896
C	 0.0325888275	 0.0696609228	 0.0010265329	 0.351602
N	-1.1651703548	-0.6497254835	 0.0035515077	-0.396201
C	-1.5045051636	-1.9822579505	-0.0013486163	 0.387991
O	-2.6745659792	-2.3172797125	 0.0037822069	-0.341374
C	-0.4685226358	-3.0723621554	-0.0124636436	-0.025231
N	 0.8052652369	-3.0684700182	-0.0201689035	-0.242581
C	 1.6151308284	-1.9374554634	-0.0198672308	-0.019242
C	 1.3199275498	-0.6254380241	-0.0110972437	-0.094366
H	 0.8143176764	 1.8005016238	 0.0066849141	 0.228011
H	-1.9766311664	-0.0410598193	 0.011649088	 0.271243
H	-0.9690351113	-4.0417051294	-0.013925927	 0.151625
H	 2.6702714171	-2.1987708363	-0.0281641396	 0.12739
H	 2.1666516684	 0.0551347036	-0.013030947	 0.115028
29.8688	115.9815	245.335	346.7948	379.8039	413.9997	462.6923	521.0899	594.5033	641.9165	753.3324	763.1237	809.1674	824.6403	854.2358	880.2315	957.8562	971.2245	1015.1039	1041.9328	1164.8616	1297.5953	1366.683	1393.2341	1427.0981	1445.7836	1469.5711	1630.2725	1682.8078	1710.0143	1759.7026	3131.2852	3156.8332	3178.3681	3511.056	3562.7505
N=C1NC(=O)C=NC=C1	[NH]C1=C[CH]N=CC(=O)N1	
InChI=1S/C5H5N3O/c6-4-1-2-7-3-5(9)8-4/h1-3H,(H2,6,8,9)	InChI=1S/C5H5N3O/c6-4-1-2-7-3-5(9)8-4/h1-3H,(H2,6,8,9)
