17
gdb 30944	2.28563	1.40963	0.91872	5.5625	72.5	-0.1958	0.0396	0.2354	1257.717	0.13623	-455.204664	-455.195593	-455.194648	-455.23869	33.064	
C	-0.0068737706	 1.6266310683	 0.2860345508	-0.370006
C	-0.0277995517	 0.1369482366	-0.0996119105	-0.303688
C	-1.397661627	-0.4279363023	-0.198629275	 0.327089
C	-2.0975530612	-1.0211876346	-1.1809541959	 0.160342
N	-1.7796711448	-1.4280523409	-2.4810782828	-0.608275
N	-3.3670119401	-1.2989485514	-0.660713886	-0.3918
C	-3.4257046769	-0.9276459211	 0.6669662604	 0.472433
O	-4.324743452	-1.0398373897	 1.4552397143	-0.40474
O	-2.199627263	-0.3703607659	 0.945880351	-0.25649
H	 1.0218425517	 1.987294877	 0.3776101088	 0.113984
H	-0.5196126821	 2.2333038622	-0.4665399093	 0.117571
H	-0.5111786066	 1.7812764588	 1.2432326828	 0.143736
H	 0.4715782157	-0.0062650882	-1.0652018019	 0.097289
H	 0.5569765533	-0.4326827938	 0.6356090464	 0.122635
H	-0.7903561705	-1.3317565586	-2.6706072916	 0.253886
H	-2.2984994961	-0.9165824545	-3.1893881106	 0.252398
H	-4.0500198581	-1.9058422116	-1.0801858212	 0.273636
67.9042	121.1204	179.8212	185.9539	207.1419	273.2745	297.1596	329.7199	395.6216	463.791	582.0079	608.4309	650.2744	663.5999	761.4961	779.8725	795.699	828.8417	959.2937	981.8904	1014.1874	1082.0033	1099.9467	1164.5903	1244.1091	1271.5721	1293.6412	1333.3246	1370.8896	1407.2957	1458.1693	1471.9546	1495.3134	1508.2233	1640.8776	1770.1165	1895.0996	3012.2929	3043.3202	3057.6559	3113.7168	3127.2936	3494.7681	3610.2713	3684.6559
CCC1=C(N)NC(=O)O1	CCc1c(N)[nH]c(=O)o1	
InChI=1S/C5H8N2O2/c1-2-3-4(6)7-5(8)9-3/h2,6H2,1H3,(H,7,8)	InChI=1S/C5H8N2O2/c1-2-3-4(6)7-5(8)9-3/h2,6H2,1H3,(H,7,8)
