19
gdb 81605	3.83926	0.93485	0.89407	1.6652	81.68	-0.2389	0.0515	0.2903	1376.9309	0.15735	-385.783878	-385.77515	-385.774206	-385.817697	33.428	
C	-0.1138223255	 1.5796685382	 0.1912993523	-0.43063
C	-0.0762603612	 0.0626934651	 0.1867677893	 0.03034
C	 1.1440987284	-0.6605260385	-0.4521492509	 0.031257
O	 1.9844681302	-0.1770370051	 0.6720246482	-0.310612
C	 0.7347939874	-0.6764331214	 1.2914009645	-0.001357
C	 0.8638677881	-1.9362233785	 0.3887671505	 0.04694
C	-0.2934233944	-2.9021060765	 0.1106786468	-0.410881
C	-0.0360128296	-3.7349454271	-1.0597607922	 0.309338
C	 0.202048233	-4.4039813101	-2.0294251076	-0.453491
H	 0.8705683534	 1.9867628525	 0.4291657096	 0.140252
H	-0.4242786193	 1.962572899	-0.7869074354	 0.115777
H	-0.8337642102	 1.9486596938	 0.9299164101	 0.114102
H	-1.0544913157	-0.3643132045	-0.049654944	 0.068157
H	 1.5560221199	-0.5752999426	-1.4583171398	 0.095722
H	 0.653867176	-0.607847261	 2.377774113	 0.090215
H	 1.7873763091	-2.4814713764	 0.5930998802	 0.097551
H	-0.4303422261	-3.5439672232	 0.991031548	 0.135566
H	-1.2413808813	-2.3705486061	-0.0239979372	 0.133978
H	 0.4022685377	-5.0023779975	-2.8833192253	 0.197776
41.718	110.447	218.2925	225.4911	253.505	329.6682	333.3357	349.3689	457.408	589.6192	622.0642	637.3795	658.5227	743.2061	772.3757	796.9648	827.2398	887.4579	911.0065	969.1687	985.8212	1017.2552	1057.6785	1079.4239	1087.7741	1129.3962	1147.0711	1155.5475	1200.758	1208.102	1236.2048	1259.8821	1275.9794	1322.2722	1393.4127	1399.7507	1410.7323	1472.0342	1493.9819	1506.7135	2238.9277	3024.2647	3036.2369	3060.3372	3075.5455	3092.4203	3099.5459	3104.6586	3117.2775	3138.3513	3506.9478
CC1C2OC1C2CC#C	C[C@H]1[C@H]2O[C@@H]1[C@H]2CC#C	
InChI=1S/C8H10O/c1-3-4-6-7-5(2)8(6)9-7/h1,5-8H,4H2,2H3	InChI=1S/C8H10O/c1-3-4-6-7-5(2)8(6)9-7/h1,5-8H,4H2,2H3/t5-,6-,7+,8-
