19
gdb 92940	2.29013	1.5315	1.3298	3.0933	81.67	-0.2255	0.0215	0.247	1087.4241	0.15857	-382.05043	-382.041352	-382.040408	-382.08367	35.1	
C	 0.1103572591	 1.5935039635	-0.2358465307	-0.417004
C	-0.053066459	 0.1014705865	 0.0583380199	-0.005485
N	 0.5210001051	-0.7304788648	-1.0138534363	-0.294427
C	 1.7446706406	-1.1754228967	-0.5538309077	 0.052592
N	 1.9858679119	-1.0774015269	 0.6962482794	-0.262706
C	 0.7677044962	-0.456057055	 1.2968522037	 0.061229
C	 1.1828743113	 0.5947415955	 2.3362621764	-0.428309
C	-0.0164705354	-1.5095702357	 1.955411364	 0.406111
C	-0.6719779448	-2.3554046123	 2.5029866202	-0.512513
H	 1.1627325305	 1.8635153693	-0.3660966363	 0.12991
H	-0.4239194517	 1.8537190023	-1.15654491	 0.112893
H	-0.3070574169	 2.2051606651	 0.5686883373	 0.129688
H	-1.1124507246	-0.1323295448	 0.1870867682	 0.098794
H	 0.460146482	-0.3900478496	-1.963173734	 0.23725
H	 2.442168841	-1.621870144	-1.2579319586	 0.123297
H	 1.8057794769	 1.3658946129	 1.8776305675	 0.117162
H	 0.3091014002	 1.0633061139	 2.7978242544	 0.117818
H	 1.7666801309	 0.1052745808	 3.1182374977	 0.139554
H	-1.2401525032	-3.1139547898	 2.9819134949	 0.194146
76.9108	147.0771	181.2567	250.8533	274.7927	292.8748	297.591	364.1295	423.7515	500.4929	521.0409	559.7093	591.9116	624.1297	636.5308	640.7791	745.4674	831.6022	872.2651	917.3982	961.104	967.4551	1040.9728	1066.1142	1113.2067	1130.296	1134.5436	1184.5326	1203.1658	1284.7407	1339.6066	1380.0499	1400.8871	1408.3837	1435.1282	1478.2736	1486.2351	1500.8767	1504.1931	1682.8332	2231.0816	3033.7681	3051.093	3074.5106	3100.5679	3120.4754	3128.8435	3138.3714	3176.3698	3502.1264	3593.6924
CC1NC=NC1(C)C#C	C[C@H]1N[CH][N][C@]1(C)C#C	
InChI=1S/C7H10N2/c1-4-7(3)6(2)8-5-9-7/h1,5-6H,2-3H3,(H,8,9)	InChI=1S/C7H10N2/c1-4-7(3)6(2)8-5-9-7/h1,5-6H,2-3H3,(H,8,9)/t6-,7-/m1/s1
