18
gdb 60868	2.0641	1.29013	1.14654	3.4278	76.77	-0.2571	-0.0348	0.2223	1193.5783	0.145429	-401.962464	-401.952867	-401.951923	-401.997679	34.089	
C	 0.0788915248	 1.4641695167	-0.2602343738	-0.426526
C	 0.0036142355	-0.0474034575	 0.0090248025	-0.146869
C	 0.671518119	-0.379990939	 1.3364379968	 0.160166
O	 1.6489209803	-1.0730030899	 1.4464204303	-0.246567
C	-1.4384183224	-0.5714613574	 0.0093178344	 0.172395
C	-2.0294761911	-1.0779582631	-1.3008416599	-0.301896
C	-1.6729453488	-2.0582755302	-0.2260950464	-0.297599
C	-2.3428471559	 0.0966564223	 0.9129754456	 0.24643
N	-3.0570883591	 0.643386426	 1.64135872	-0.351451
H	 1.1197333678	 1.7951247197	-0.3122654296	 0.135582
H	-0.4073836964	 1.7063834629	-1.2095773301	 0.132912
H	-0.4239122499	 2.0317391981	 0.5290294745	 0.150021
H	 0.5554770331	-0.594524028	-0.7617746477	 0.101135
H	 0.1818096281	 0.0775175901	 2.2259726526	 0.099787
H	-3.0778413816	-0.8768834034	-1.4854174588	 0.146618
H	-1.3912117368	-1.0065399343	-2.1744044292	 0.134932
H	-0.7824172055	-2.6647252769	-0.3480978705	 0.144544
H	-2.4758886811	-2.5333128062	 0.3240658693	 0.146386
46.9981	60.9972	139.144	180.446	217.7416	232.2102	247.0814	295.7682	395.6451	404.831	483.7177	577.9363	595.8734	707.2895	787.9294	875.1546	895.5827	916.3018	954.4204	960.4201	982.3278	1061.9626	1076.7396	1094.7891	1113.2168	1160.711	1194.8926	1250.196	1280.969	1304.056	1366.5439	1407.385	1429.8188	1468.9795	1495.8042	1496.5702	1498.4144	1834.6065	2345.1367	2882.8332	3042.6672	3066.0888	3116.9698	3121.2864	3144.1827	3148.3739	3230.7256	3244.3289
CC(C=O)C1(CC1)C#N	C[C@@H](C=O)C1(CC1)C#N	
InChI=1S/C7H9NO/c1-6(4-9)7(5-8)2-3-7/h4,6H,2-3H2,1H3	InChI=1S/C7H9NO/c1-6(4-9)7(5-8)2-3-7/h4,6H,2-3H2,1H3/t6-/m0/s1
