12
gdb 132480	3.23571	1.365	0.96001	2.7071	61.97	-0.2297	-0.0414	0.1883	1062.6427	0.078051	-518.088642	-518.08177	-518.080825	-518.120169	26.023	
F	 0.1003683448	 0.0727661329	 0.0023596934	-0.056012
C	-0.0548319291	 1.3844614467	 0.0113166035	 0.417303
N	-1.2171999384	 1.9012311476	 0.0297820091	-0.353755
C	-1.2401390294	 3.2871786016	 0.0374292161	-0.122994
C	-0.1259513989	 4.0478881302	 0.0263941229	 0.218866
F	-0.190396767	 5.3712465404	 0.0342629857	-0.04832
C	 1.2101917096	 3.4664956287	 0.0052902691	 0.292175
N	 2.2793239143	 4.1598712241	-0.0054947641	-0.535543
N	 1.1270204785	 2.053341675	-0.0010752083	-0.433996
H	-2.2183474211	 3.7537663367	 0.053119012	 0.139443
H	 3.1188620463	 3.5804528876	-0.019907367	 0.210886
H	 1.9838838002	 1.5175565284	-0.0154619624	 0.271948
133.7693	166.8063	311.1892	362.9312	397.4361	419.5494	459.6348	542.5369	581.7939	612.7732	714.4315	754.8543	765.5028	779.6253	810.3359	941.6736	1017.1083	1087.5503	1249.6067	1268.8977	1278.5269	1303.0588	1414.2216	1508.6761	1653.7385	1694.552	1744.261	3203.3309	3477.6411	3604.3803
FC1=NC=C(F)C(=N)N1	FC1=NCC(=C([NH])N1)F	
InChI=1S/C4H3F2N3/c5-2-1-8-4(6)9-3(2)7/h1H,(H2,7,8,9)	InChI=1S/C4H4F2N3/c5-2-1-8-4(6)9-3(2)7/h7H,1H2,(H,8,9)
