14
gdb 61135	6.25137	0.59789	0.55708	4.8302	85.4	-0.2669	-0.0425	0.2244	1839.0939	0.097972	-399.499227	-399.489635	-399.48869	-399.534438	33.498	
O	-0.0814294314	 1.4474371653	-0.0023466196	-0.395988
C	 0.0020215388	 0.0357219487	 0.0102738527	-0.106383
C	 0.6859461494	-0.5149325024	-1.2742337784	-0.349579
C	 0.0034443485	-0.0775778817	-2.4884956659	 0.267782
N	-0.5404232474	 0.2548360983	-3.4516630506	-0.296342
C	 0.6895565476	-0.4764879775	 1.1951426033	 0.367389
C	 1.2927853977	-0.8750997925	 2.1658046446	-0.201716
C	 1.9645907592	-1.3237826212	 3.2603724146	 0.280982
C	 2.5624773006	-1.7217407701	 4.2305311811	-0.53507
H	 0.7925011217	 1.8055447622	 0.1921812208	 0.293913
H	-1.0379758315	-0.3106485103	 0.014557512	 0.14909
H	 1.7280108106	-0.177883943	-1.3012713621	 0.156442
H	 0.7020914105	-1.60932852	-1.2408796805	 0.1672
H	 3.0860211155	-2.0721917258	 5.0856923881	 0.20228
55.5387	63.5378	118.8931	159.6372	226.6434	251.0275	308.6559	352.2565	396.2901	447.0587	492.6509	520.6723	550.5989	562.6373	605.549	620.0826	780.0071	862.9792	957.0366	1006.7731	1071.2827	1165.9788	1201.6713	1273.3903	1307.6876	1354.666	1418.9533	1457.5352	2182.8917	2361.1088	2368.7181	3046.922	3055.9658	3096.9584	3501.7864	3800.7585
OC(CC#N)C#CC#C	O[C@@H](CC#N)C#CC#C	
InChI=1S/C7H5NO/c1-2-3-4-7(9)5-6-8/h1,7,9H,5H2	InChI=1S/C7H5NO/c1-2-3-4-7(9)5-6-8/h1,7,9H,5H2/t7-/m1/s1
