17
gdb 99566	2.26171	1.21844	0.83889	2.906	74.79	-0.2627	0.0134	0.2761	1331.0151	0.134033	-417.965218	-417.955106	-417.954162	-418.000586	36.165	
N	-0.0810819572	 1.484547554	 0.1465387638	-0.50496
C	-0.0086436048	 0.0330255385	 0.0006274211	-0.178706
C	-1.3513670086	-0.5364676427	 0.1126340454	 0.34816
C	-2.4587143231	-0.9988067908	 0.1565078552	-0.426095
C	 0.6671127676	-0.46557385	-1.3291239899	-0.17079
C	 2.1061544367	 0.0791466909	-1.5105282483	-0.073266
O	 2.7037020591	-0.3605136854	-2.7053059506	-0.41665
C	 0.7247600963	-1.9271898519	-1.3792494001	 0.273704
N	 0.8526356466	-3.0757426727	-1.4231137217	-0.328678
H	 0.841380488	 1.9046558356	 0.1442447528	 0.240439
H	-0.6227330512	 1.8982872566	-0.6056740986	 0.239278
H	 0.6017205765	-0.3435271118	 0.832302643	 0.132286
H	-3.4331440342	-1.4176079347	 0.2157851808	 0.208019
H	 0.0592789949	-0.1224225878	-2.1746039303	 0.136752
H	 2.0630661422	 1.169245684	-1.5777751688	 0.113055
H	 2.7045128989	-0.1846918256	-0.6240970296	 0.106546
H	 2.8045972123	-1.3187325262	-2.6577402441	 0.300906
52.2438	98.8618	122.07	150.7727	205.2962	211.0531	270.3575	317.712	352.9992	397.5112	418.7387	480.6265	527.0929	585.7869	622.0679	648.4888	668.6395	796.761	847.0168	894.2574	1018.2326	1039.1676	1051.209	1092.6501	1129.0474	1181.0662	1206.2459	1248.7226	1324.1834	1346.9011	1389.4726	1402.9499	1426.3752	1507.4089	1648.967	2245.2941	2348.7586	2982.7622	3022.2373	3055.2902	3096.5083	3503.0003	3506.4016	3600.847	3791.7157
NC(C#C)C(CO)C#N	N[C@@H](C#C)[C@@H](CO)C#N	
InChI=1S/C6H8N2O/c1-2-6(8)5(3-7)4-9/h1,5-6,9H,4,8H2	InChI=1S/C6H8N2O/c1-2-6(8)5(3-7)4-9/h1,5-6,9H,4,8H2/t5-,6+/m1/s1
