13
gdb 132886	3.08667	1.44473	0.98411	1.9814	68.05	-0.1945	-0.0559	0.1386	1078.0476	0.090165	-494.065496	-494.058191	-494.057247	-494.097241	28.102	
O	 0.0424200102	 1.3604779791	 0.279674739	-0.43363
C	-0.0109287508	 0.0251830464	 0.0455864724	 0.375812
C	-1.1884339456	-0.6375214096	-0.051138504	-0.094606
N	-1.1613580969	-1.9943770256	-0.290464516	-0.330799
C	-0.0072461624	-2.7446757537	-0.4421171051	 0.265688
N	-0.0591615882	-4.0073083914	-0.6636412763	-0.567631
C	 1.1748540045	-1.8850358595	-0.3107058064	 0.262872
F	 2.3329429525	-2.5166292714	-0.4414960293	-0.056663
N	 1.1875317664	-0.6279206859	-0.0896280392	-0.371004
H	 0.9776892224	 1.5962341995	 0.3057438884	 0.303833
H	-2.1537838349	-0.1645598421	 0.0484919881	 0.146092
H	-2.0239965956	-2.5127660884	-0.3671976036	 0.273795
H	 0.8819903783	-4.3835521875	-0.7458075979	 0.226239
104.0836	238.4305	302.132	320.4789	344.8063	365.6442	435.2392	490.3398	543.5396	596.3729	622.058	649.5589	709.462	752.1499	792.1871	812.073	836.2081	1009.1402	1058.8412	1196.7674	1217.7755	1279.3727	1335.4722	1408.575	1420.12	1482.9012	1624.3697	1688.7019	1728.5009	3248.525	3531.2556	3625.8043	3806.809
OC1=CNC(=N)C(F)=N1	OC1=CN[C@@H]([NH])C(=N1)F	
InChI=1S/C4H4FN3O/c5-3-4(6)7-1-2(9)8-3/h1H,(H2,6,7)(H,8,9)	InChI=1S/C4H5FN3O/c5-3-4(6)7-1-2(9)8-3/h1,4,6-7,9H/t4-/m1/s1
