15
gdb 8736	3.83607	1.30127	1.17774	2.8321	67.2	-0.2776	0.005	0.2826	1033.5127	0.11614	-362.634845	-362.625868	-362.624923	-362.668316	31.905	
C	-0.0699186422	 1.5812247579	-0.054922641	-0.421064
C	 0.0388243893	 0.044794381	-0.0254823061	-0.177728
C	 0.6850501336	-0.4750304327	-1.2267328377	 0.316418
C	 1.2181735078	-0.8988935262	-2.2162961377	-0.440176
C	 0.794827944	-0.4666057539	 1.2411584565	-0.014731
O	 2.1126818277	 0.0191092825	 1.3510149688	-0.404033
C	 0.0080344601	-0.1635213192	 2.4563993283	 0.257679
N	-0.6029209828	 0.1060939172	 3.3996006407	-0.318945
H	 0.9194463957	 2.0403754018	-0.1391502067	 0.129914
H	-0.6519593649	 1.8992399933	-0.9221712688	 0.143532
H	-0.5645943787	 1.9511188896	 0.8481341953	 0.143482
H	-0.975168714	-0.372644453	 0.0354442832	 0.129988
H	 1.6866843424	-1.2759806423	-3.0917556559	 0.203058
H	 0.8889441437	-1.5540451554	 1.1640069546	 0.152316
H	 2.0803906183	 0.9649032893	 1.5334563764	 0.300289
64.7076	123.5535	168.0579	210.9081	220.4835	252.872	287.9134	339.7555	380.6934	498.2556	532.4777	583.5845	635.1242	655.7346	677.692	808.8323	882.5186	963.1037	1005.3622	1086.6386	1096.3296	1135.8145	1257.395	1283.8264	1332.1706	1350.5377	1408.0143	1424.4654	1494.0461	1508.6192	2241.2298	2353.1008	3022.686	3046.4751	3077.9785	3120.4697	3133.8873	3503.3246	3810.8093
CC(C#C)C(O)C#N	C[C@@H](C#C)[C@@H](O)C#N	
InChI=1S/C6H7NO/c1-3-5(2)6(8)4-7/h1,5-6,8H,2H3	InChI=1S/C6H7NO/c1-3-5(2)6(8)4-7/h1,5-6,8H,2H3/t5-,6-/m0/s1
