14
gdb 123996	4.7402	1.20346	1.02986	4.2649	70.87	-0.2511	-0.088	0.1632	1105.6267	0.102473	-428.990018	-428.982931	-428.981987	-429.022259	25.655	
C	 0.4225024979	 1.5412155658	 0.1914936747	-0.226571
N	 1.1905082894	 0.3992610492	-0.287975306	-0.292182
C	-0.2268708845	 0.1989585944	 0.097124376	-0.122777
C	-0.470277628	-0.6276602854	 1.2992198526	 0.462126
N	-1.4684758954	-1.510990954	 1.2578480741	-0.273801
C	-1.5937027023	-2.2114471534	 2.3788679447	 0.110213
N	-0.8339016443	-2.0853721154	 3.4686620509	-0.172688
N	 0.1220754778	-1.165921023	 3.4434731449	-0.05002
N	 0.3182205402	-0.430742027	 2.3729876428	-0.216496
H	 0.7171425949	 1.8985890083	 1.1727939686	 0.152703
H	 0.0907671893	 2.3001671722	-0.5120818549	 0.124188
H	 1.2530602715	 0.4113858757	-1.3032025597	 0.245527
H	-0.9595469828	 0.0331588255	-0.6859144342	 0.111491
H	-2.3818501637	-2.958634483	 2.4280351856	 0.148288
68.4017	123.6177	186.244	292.0368	311.091	411.0466	581.3529	610.7691	707.0549	811.7863	823.3509	882.971	915.6922	926.1158	957.9694	978.9218	1008.2034	1036.6393	1105.1345	1134.2536	1159.7559	1178.6628	1231.6133	1276.3336	1290.9045	1321.7387	1409.3492	1450.0892	1496.9415	1540.6623	1571.0662	3116.4459	3171.3579	3174.5768	3215.1491	3503.0639
C1NC1C1=NC=NN=N1	C1N[C@H]1c1ncnnn1	
InChI=1S/C4H5N5/c1-3(5-1)4-6-2-7-9-8-4/h2-3,5H,1H2	InChI=1S/C4H5N5/c1-3(5-1)4-6-2-7-9-8-4/h2-3,5H,1H2/t3-/m1/s1
