25
gdb 121224	2.84313	0.78177	0.65826	1.3082	89.52	-0.2612	0.0814	0.3426	1799.9866	0.228377	-389.481419	-389.470727	-389.469783	-389.517684	39.171	
C	-0.0285597078	 1.6474283937	-0.1421058614	-0.386951
C	 0.0037155339	 0.1342694057	 0.0982364525	-0.173666
C	-1.3869590269	-0.5024124015	 0.0409059071	 0.000656
C	-1.9543126816	-0.6727708662	-1.4020080588	-0.2272
C	-1.5567668427	-2.1713939361	-1.3585334612	-0.225741
C	-1.4428971478	-2.061984881	 0.1889960961	 0.025872
C	-0.334902547	-2.8108364322	 0.9189394687	-0.199169
C	-0.536237361	-4.3213752911	 0.8960259799	-0.076673
O	 0.548330391	-4.9202728216	 1.5911692486	-0.422402
H	 0.9773424946	 2.0773631615	-0.1062465598	 0.110212
H	-0.458036461	 1.8898646174	-1.1200456975	 0.116381
H	-0.6348249328	 2.1530970728	 0.6178878823	 0.112757
H	 0.6632479664	-0.3378300111	-0.641918061	 0.092763
H	 0.4556792599	-0.0646685027	 1.0779859538	 0.097363
H	-2.0441127042	 0.035091131	 0.7341318602	 0.0571
H	-3.0383132192	-0.5344232713	-1.4407599714	 0.096397
H	-1.5031634811	-0.0591495735	-2.1867817027	 0.092792
H	-2.2662645823	-2.8956691231	-1.7669926905	 0.090893
H	-0.5812987094	-2.3508774156	-1.8226311661	 0.098018
H	-2.4082644415	-2.3300418708	 0.6371282722	 0.064635
H	 0.6417368633	-2.5895302787	 0.4732553155	 0.102614
H	-0.2822341388	-2.4875039216	 1.9663443105	 0.101562
H	-1.5000795614	-4.5747694243	 1.3683756634	 0.08098
H	-0.5834421746	-4.6757038474	-0.1464856043	 0.087228
H	 0.4332629822	-5.8744185723	 1.5618257038	 0.28358
75.9056	85.9718	99.0387	128.4236	132.7302	209.0272	236.9287	262.554	290.3257	337.4233	367.4084	450.079	519.3345	691.5466	760.1605	785.6031	803.9327	824.6483	894.8975	934.2587	936.4583	966.1364	987.3322	1011.3121	1020.5976	1061.2948	1070.8102	1098.9764	1131.4787	1157.8067	1180.2045	1213.8822	1228.5639	1241.9288	1259.9263	1265.0705	1275.7519	1280.6585	1307.4686	1314.4309	1331.3806	1344.7942	1391.3119	1393.5319	1412.4546	1460.2344	1481.7308	1486.1444	1491.0378	1500.0645	1503.2934	1508.6624	1526.6205	2957.2416	2984.1552	3011.5769	3017.0006	3028.0193	3029.8921	3032.891	3044.8373	3052.4143	3055.769	3074.0736	3090.2724	3097.0101	3101.6257	3108.4853	3828.9484
CCC1CCC1CCO	CC[C@H]1CC[C@H]1CCO	
InChI=1S/C8H16O/c1-2-7-3-4-8(7)5-6-9/h7-9H,2-6H2,1H3	InChI=1S/C8H16O/c1-2-7-3-4-8(7)5-6-9/h7-9H,2-6H2,1H3/t7-,8-/m0/s1
