19
gdb 18720	3.10778	2.16182	1.47412	1.9952	70.67	-0.2399	0.0681	0.308	897.3151	0.167942	-365.043911	-365.036615	-365.035671	-365.075174	28.602	
C	-0.0511341997	 1.5348478697	 0.0263521772	-0.403175
C	 0.036988813	 0.0056007789	 0.0046599856	 0.013666
C	 0.7375019532	-0.5051489506	-1.264014849	-0.092291
O	 0.8888781446	-1.9139051108	-1.235064595	-0.252385
C	 1.8426371034	-2.3413076965	-0.2777119799	-0.076373
C	 1.6501746279	-1.7100968378	 1.0949325988	-0.061883
N	 2.2065155696	-0.352139414	 1.267979641	-0.336482
C	 0.746061859	-0.5381087116	 1.2321399343	-0.019783
H	 0.9501886118	 1.9752913749	 0.0669520242	 0.131353
H	-0.5573047378	 1.9164509785	-0.8669529288	 0.111275
H	-0.6095907258	 1.8871155054	 0.9001181357	 0.109112
H	-0.9768257468	-0.4169127402	 0.0055326368	 0.077704
H	 0.1319500013	-0.2789475682	-2.1468750504	 0.101276
H	 1.7145375189	-0.0109980171	-1.3788507546	 0.103018
H	 1.7259719697	-3.4272862374	-0.2094536246	 0.104108
H	 2.8636213763	-2.1258240665	-0.6321413058	 0.096508
H	 1.7283485961	-2.3915409894	 1.9387950428	 0.086475
H	 2.5230866112	-0.2191782249	 2.2243572866	 0.229567
H	 0.2033510342	-0.4287772223	 2.169981535	 0.078311
113.3766	207.9939	231.0329	286.6274	315.664	385.8917	442.1148	486.2695	580.589	688.6777	778.656	808.2153	875.3255	901.8162	936.0939	950.1406	959.9437	984.6178	1034.5231	1074.3405	1111.6371	1125.5072	1137.4722	1152.9661	1196.0125	1226.5473	1263.4053	1266.3767	1322.2458	1326.7143	1361.8529	1380.0903	1400.7676	1409.9275	1420.4692	1460.5789	1485.2871	1494.5449	1498.2179	1504.5816	2974.8035	2991.773	3019.1504	3030.6175	3076.5584	3081.8802	3095.4103	3107.4084	3112.3199	3134.1146	3507.0189
CC1COCC2NC12	C[C@H]1COC[C@H]2N[C@@H]12	
InChI=1S/C6H11NO/c1-4-2-8-3-5-6(4)7-5/h4-7H,2-3H2,1H3	InChI=1S/C6H11NO/c1-4-2-8-3-5-6(4)7-5/h4-7H,2-3H2,1H3/t4-,5+,6-/m0/s1
