18
gdb 126648	6.4902	0.69467	0.63759	5.6088	78.13	-0.2187	-0.0095	0.2092	1730.3562	0.146562	-435.24945	-435.240067	-435.239123	-435.285064	32.962	
C	 0.0005847618	 1.553253774	 0.0124470401	-0.382194
C	 0.1571194401	 0.0308909409	 0.0189498854	-0.194834
C	 0.5587396573	-0.5148151564	-1.3502661736	-0.125746
N	 0.6901905031	-1.9681451038	-1.3091371196	-0.402252
C	 1.312623477	-2.6734024227	-2.2828828412	 0.516891
C	 1.3565624457	-4.0361969591	-2.5332805154	-0.24943
N	 2.172636344	-4.2002091426	-3.6070395113	-0.074195
N	 2.6326866857	-3.1375057884	-4.0552413579	-0.049465
O	 2.0549242402	-2.0359256266	-3.1623921024	-0.251017
H	 0.9392815177	 2.0462151102	-0.2614606126	 0.126118
H	-0.7639008787	 1.8719860992	-0.7041073628	 0.122802
H	-0.2933840049	 1.9210142986	 0.9993198305	 0.122611
H	 0.909539254	-0.271320502	 0.7564782251	 0.115294
H	-0.789318822	-0.4333031732	 0.3299113625	 0.097319
H	-0.1748275315	-0.2048054634	-2.110236916	 0.112237
H	 1.5243685815	-0.1032198878	-1.6566669259	 0.14248
H	-0.0120439154	-2.4701761417	-0.7885457011	 0.253606
H	 0.8802638747	-4.8575236851	-2.0279983138	 0.119774
33.8639	64.7697	89.9237	157.5318	241.0944	247.6217	291.8851	332.2277	380.5847	438.1981	564.2666	660.0461	711.4693	744.5951	756.1097	771.0274	893.0903	915.6939	953.7663	1026.5493	1056.0246	1101.8394	1139.5884	1153.7909	1173.0952	1266.3439	1311.0859	1324.9572	1332.5195	1374.6223	1410.8593	1420.0463	1490.3805	1495.3216	1500.8369	1505.7606	1508.131	1523.561	1638.13	2989.1625	3012.5047	3037.34	3061.3261	3093.5227	3106.0282	3114.3641	3290.8602	3626.7777
CCCNC1=CN=NO1	CCCNc1cnno1	
InChI=1S/C5H9N3O/c1-2-3-6-5-4-7-8-9-5/h4,6H,2-3H2,1H3	InChI=1S/C5H9N3O/c1-2-3-6-5-4-7-8-9-5/h4,6H,2-3H2,1H3
