16
gdb 51214	3.76904	1.28059	1.07857	5.1283	70.11	-0.2467	0.0027	0.2495	1094.0659	0.124319	-437.804811	-437.797478	-437.796534	-437.837602	27.584	
O	 0.3602550689	 0.0478502338	-0.2793326473	-0.266799
C	 0.6222599165	 1.200765296	-0.4388597483	 0.122946
O	 0.3479976194	 2.1232206124	 0.5293928256	-0.25484
C	 0.6720221491	 3.4570763932	 0.2975011505	 0.443559
C	 0.408213661	 4.567717897	 1.3134712937	-0.323195
C	 1.0581455413	 5.2904379232	 0.1129547124	-0.069296
C	 2.0165003276	 4.0926501617	-0.2043580686	-0.082362
N	 1.6129058697	 3.9603228418	-1.6449108873	-0.348996
C	 0.3519480096	 4.3692736247	-0.9389810884	-0.08235
H	 1.0902954577	 1.6416233749	-1.3329607233	 0.135072
H	-0.6399617278	 4.7991941724	 1.5182072416	 0.112649
H	 0.9901007544	 4.528302533	 2.2376053772	 0.112648
H	 1.2905607335	 6.3449453786	-0.0165855619	 0.092677
H	 3.0277075926	 3.9147386488	 0.1621526908	 0.096959
H	 1.9835146482	 4.7433925313	-2.1897933378	 0.214369
H	-0.6043411416	 4.5183280471	-1.4407935987	 0.09696
38.2392	133.7447	167.6288	349.0271	361.0678	432.0929	435.3648	561.686	716.0265	779.8513	786.8231	853.7318	874.9546	882.3452	913.8645	937.9279	991.3418	1046.6427	1048.5537	1073.3125	1076.1938	1118.0392	1121.9081	1129.9115	1145.7083	1170.747	1190.5249	1227.8402	1252.1634	1288.647	1291.131	1349.4584	1431.8954	1515.3056	1861.9877	3030.2288	3062.1225	3118.3537	3120.8289	3123.8136	3152.1654	3406.5746
O=COC12CC3C1NC23	O=CO[C@@]12C[C@H]3[C@@H]1N[C@@H]23	
InChI=1S/C6H7NO2/c8-2-9-6-1-3-4(6)7-5(3)6/h2-5,7H,1H2	InChI=1S/C6H7NO2/c8-2-9-6-1-3-4(6)7-5(3)6/h2-5,7H,1H2/t3-,4-,5+,6-
