18
gdb 37526	3.69007	1.92901	1.68737	1.8378	72.84	-0.2287	0.0726	0.3013	843.2369	0.15237	-401.897477	-401.891811	-401.890867	-401.92723	24.705	
C	-0.0435189205	 1.5082678156	-0.0562813369	-0.176211
C	 1.4906791003	 1.4096724831	 0.0019070639	-0.05961
C	 1.2390430809	 0.0948436123	 0.8417868203	-0.041139
C	 1.8122084777	-1.0730286992	 0.0181055821	 0.134371
O	 3.1532776797	-0.9770094553	-0.3955666742	-0.280204
C	 3.2091541326	 0.09706022	-1.3492669712	-0.096562
C	 1.8110139674	 0.7191684631	-1.3411567468	-0.058719
C	 0.860101392	-0.4895423708	-1.0468928404	-0.055435
N	-0.0735121893	 0.0084316928	 0.0526991914	-0.161983
H	-0.4992780913	 1.9393364553	 0.8397985846	 0.10846
H	-0.512085042	 1.9316709198	-0.9518017015	 0.098014
H	 2.1409413848	 2.2237798273	 0.3262511794	 0.066447
H	 1.19334458	 0.1442198464	 1.929635996	 0.07578
H	 1.6043518705	-2.0678315079	 0.4098358099	 0.095245
H	 3.9888164795	 0.808284964	-1.0507972617	 0.104375
H	 3.4759040402	-0.3065415967	-2.3360349986	 0.098762
H	 1.5898249676	 1.3209770104	-2.2242339248	 0.072815
H	 0.4265934199	-1.0547950703	-1.8694917516	 0.075596
209.657	334.0527	395.6098	485.2682	626.5706	642.2929	757.9871	788.8324	802.558	809.672	858.1888	890.268	899.3797	922.4486	948.986	957.1349	971.4194	995.6694	1009.7932	1026.4776	1031.8787	1086.738	1117.6913	1145.5433	1154.9376	1169.9629	1198.304	1205.304	1223.5895	1229.5013	1250.6923	1273.8857	1285.9474	1299.2014	1327.3314	1342.6784	1399.7023	1505.725	1524.7914	3003.3752	3037.4255	3047.7382	3094.8616	3100.7643	3102.57	3118.0463	3131.0176	3141.0118
C1C2C3C4OCC2C4N13	C1[C@H]2[C@@H]3[C@@H]4OC[C@H]2[C@@H]4N13	
InChI=1S/C7H9NO/c1-3-4-2-9-7-5(3)8(1)6(4)7/h3-7H,1-2H2	InChI=1S/C7H9NO/c1-3-4-2-9-7-5(3)8(1)6(4)7/h3-7H,1-2H2/t3-,4-,5-,6+,7+/m1/s1
