13
gdb 24821	3.01639	1.51149	1.00693	9.2374	74.8	-0.2433	-0.0562	0.1871	1071.1408	0.092196	-415.680189	-415.67306	-415.672115	-415.71197	26.682	
O	 0.0135802782	-0.0680419716	 0.0037692816	-0.358107
C	-0.0088002189	 1.1514358786	 0.0095908084	 0.320992
C	-1.2422337722	 1.9436467802	 0.0300112278	-0.223977
C	-1.2321785724	 3.2933127499	 0.0364530453	 0.024117
N	-0.0486883692	 3.9935478822	 0.0241286383	-0.327955
C	 1.1470849527	 3.3493226177	 0.0051604813	-0.015996
C	 1.2183902573	 1.9867146126	-0.0024166966	-0.049446
C	 2.4954769496	 1.3562677212	-0.0223104748	 0.241362
N	 3.5428489342	 0.8630761598	-0.0385191796	-0.331814
H	-2.1799836655	 1.4026645783	 0.0399080785	 0.13067
H	-2.1302760998	 3.89851076	 0.051377385	 0.147486
H	-0.0658061436	 4.9998597558	 0.0292575074	 0.280408
H	 2.0297352095	 3.9766273454	-0.0034373726	 0.16226
106.4641	149.9917	206.1311	383.3097	403.5828	449.8584	459.7392	547.3054	572.949	589.4708	601.1181	707.1026	766.8783	856.596	886.155	923.4888	970.1961	1023.9593	1121.8081	1175.029	1253.668	1273.3209	1371.9069	1423.3242	1537.9322	1620.412	1681.9843	1749.9329	2344.069	3207.4985	3216.605	3226.8916	3660.5669
O=C1C=CNC=C1C#N	O=c1cc[nH]cc1C#N	
InChI=1S/C6H4N2O/c7-3-5-4-8-2-1-6(5)9/h1-2,4H,(H,8,9)	InChI=1S/C6H4N2O/c7-3-5-4-8-2-1-6(5)9/h1-2,4H,(H,8,9)
