14
gdb 129941	3.37524	1.65796	1.11421	3.5557	69.99	-0.2011	0.0017	0.2028	1000.0276	0.104912	-432.872017	-432.865139	-432.864195	-432.90307	26.897	
N	 0.0678336106	 1.4335560521	 0.1481397013	-0.611992
C	 0.0498062478	 0.0342493581	 0.0241318548	 0.051177
C	-1.0267967139	-0.8121776108	-0.0127322051	-0.083412
O	-0.6706475443	-2.1479674529	-0.033379656	-0.219385
C	 0.685654129	-2.138870829	-0.0281391038	 0.274022
C	 1.1801014287	-0.850168935	 0.0155868585	 0.314796
N	 2.5328986257	-0.9763633172	 0.0203242288	-0.368911
N	 2.9140628897	-2.2812904692	-0.0057852482	-0.218623
C	 1.7917242077	-3.0042194305	-0.0402088575	-0.150811
H	 0.6651816645	 1.874327047	-0.542579589	 0.245731
H	-0.8590757723	 1.8341717112	 0.0707400722	 0.246686
H	-2.0870252432	-0.6171186573	-0.0103238972	 0.126493
H	 3.2439529509	-0.2721538984	 0.1031841628	 0.272434
H	 1.8448130092	-4.0807072481	-0.0715040315	 0.121795
183.3781	226.9059	252.1262	277.0118	375.4487	433.8959	537.9544	592.2448	622.2022	661.9265	687.3896	705.8629	741.6445	793.0562	808.1152	856.704	973.0003	1079.6583	1085.1696	1106.9624	1154.3151	1244.6851	1269.1201	1315.3964	1369.6423	1420.8374	1483.6025	1547.1398	1600.754	1632.8096	1664.8297	3264.1107	3269.4088	3515.4687	3605.6709	3692.5169
NC1=COC2=C1NN=C2	Nc1coc2c1[nH]nc2	
InChI=1S/C5H5N3O/c6-3-2-9-4-1-7-8-5(3)4/h1-2H,6H2,(H,7,8)	InChI=1S/C5H5N3O/c6-3-2-9-4-1-7-8-5(3)4/h1-2H,6H2,(H,7,8)
