15
gdb 32065	3.82747	1.15626	0.89294	0.6467	71.12	-0.2523	-0.0546	0.1977	1214.5441	0.114533	-454.014497	-454.0068	-454.005855	-454.047271	28.443	
O	 0.1421341334	 1.4111764726	-0.048463366	-0.415185
C	 0.0641233988	 0.0191058479	-0.0832171241	-0.129099
C	-1.371937965	-0.4613172609	-0.0420036014	 0.39698
N	-2.3150868208	 0.4310769757	 0.0179417369	-0.352399
C	-3.605270121	-0.0387571653	 0.0539267904	 0.013718
C	-3.9423756661	-1.3536008452	 0.0309465024	-0.236361
C	-2.9130715712	-2.3716191043	-0.0356016332	 0.417138
O	-3.0421849185	-3.577875042	-0.0634532423	-0.377746
N	-1.6163261066	-1.7914877782	-0.0689507366	-0.3816
H	-0.7778169216	 1.7218431226	-0.0049687083	 0.298753
H	 0.5370522006	-0.3794168638	-0.9965961532	 0.12026
H	 0.6036726025	-0.4271904902	 0.769103236	 0.12025
H	-4.3718523363	 0.7291552901	 0.1037637656	 0.129168
H	-4.972061967	-1.6846476172	 0.0608887531	 0.127418
H	-0.8530413912	-2.4560178917	-0.1158754794	 0.268704
59.8415	153.6563	192.9056	213.1444	376.5809	387.9587	416.5454	492.1171	541.5229	594.5314	654.808	730.7701	773.6276	774.8464	861.3848	909.1394	1010.6269	1012.011	1039.4666	1095.8237	1132.377	1211.51	1224.2226	1253.9488	1297.3473	1324.7123	1429.3481	1464.894	1497.2495	1509.1332	1595.3569	1650.2496	1811.5777	2965.3733	2979.7816	3175.3395	3228.8274	3574.4614	3656.9652
OCC1=NC=CC(=O)N1	OCc1nccc(=O)[nH]1	
InChI=1S/C5H6N2O2/c8-3-4-6-2-1-5(9)7-4/h1-2,8H,3H2,(H,6,7,9)	InChI=1S/C5H6N2O2/c8-3-4-6-2-1-5(9)7-4/h1-2,8H,3H2,(H,6,7,9)
