18
gdb 9288	5.87333	0.9049	0.82798	5.3228	66.16	-0.2712	0.0141	0.2853	1374.1952	0.151408	-422.09911	-422.089741	-422.088797	-422.133717	32.614	
C	 0.0581548192	 1.5695396389	 0.3140966298	-0.379432
C	 0.0136645959	 0.0539076605	 0.1026218949	-0.204959
C	 0.9006415502	-0.7135313344	 1.0882805125	 0.133095
O	 0.5508690282	-0.4630925447	 2.445384586	-0.424724
C	 0.8933755382	-2.2179280517	 0.8066649102	-0.108773
O	 1.8552014165	-2.8935523416	 1.6146496347	-0.175441
C	 1.4556000326	-3.3433706055	 2.821698814	 0.190346
O	 2.2090549883	-3.8315413	 3.6076048092	-0.277015
H	 1.0661952041	 1.9590665632	 0.137667146	 0.123733
H	-0.6249600114	 2.0823232186	-0.3687704845	 0.116505
H	-0.2198332366	 1.8279142232	 1.3391903016	 0.128896
H	-1.0207707522	-0.3090157616	 0.2007982232	 0.090682
H	 0.3249734033	-0.1928816833	-0.9199166355	 0.10667
H	 1.9363528154	-0.3637487386	 1.0006539516	 0.108887
H	-0.4019042758	-0.5821392473	 2.5359183155	 0.280735
H	-0.1110056373	-2.63155183	 0.980587252	 0.101157
H	 1.1705556738	-2.4234172382	-0.2308007891	 0.125652
H	 0.3665099575	-3.2348111876	 2.9807826878	 0.063988
67.6053	73.3357	110.204	185.517	205.6605	223.6911	301.8265	338.1583	341.8649	390.1272	465.8676	528.8999	675.958	782.5889	871.2886	923.3255	997.2353	1022.7631	1033.778	1054.6277	1097.2522	1102.6743	1147.6509	1173.6279	1258.8225	1282.7369	1305.4314	1364.3262	1381.0853	1404.3523	1410.1924	1424.3021	1432.6892	1480.1465	1493.0353	1496.2779	1508.2785	1870.2599	2959.8838	2996.411	3004.9949	3042.6306	3046.7066	3058.0102	3099.8417	3109.927	3124.2002	3790.2359
CCC(O)COC=O	CC[C@@H](O)COC=O	
InChI=1S/C5H10O3/c1-2-5(7)3-8-4-6/h4-5,7H,2-3H2,1H3	InChI=1S/C5H10O3/c1-2-5(7)3-8-4-6/h4-5,7H,2-3H2,1H3/t5-/m1/s1
