17
gdb 64925	2.15566	1.55869	1.06467	3.8997	70.73	-0.257	-0.0583	0.1987	1149.6838	0.130361	-458.963216	-458.953137	-458.952193	-458.998829	34.736	
C	-0.1091900546	 1.5144771063	-0.0389715451	-0.470329
C	 0.0301047766	 0.0163188889	 0.0830660774	 0.19625
O	 1.3235464604	-0.5731659546	-0.0954594128	-0.289291
C	 0.7834413596	-0.6408866533	 1.2140628795	 0.248062
C	 1.4658003072	 0.1683844318	 2.2992603255	-0.483947
C	 0.3720393433	-2.0216939099	 1.6837758189	 0.11084
O	 0.2838619948	-2.9961341229	 0.9851935938	-0.244756
C	-1.0696790781	-0.7673568	-0.5988160233	 0.107054
O	-2.1254430863	-0.2709750171	-0.90233347	-0.248849
H	 0.6741223115	 2.0514204181	 0.4936962367	 0.126973
H	-0.0649274513	 1.7974359447	-1.0950197875	 0.147493
H	-1.0868634484	 1.8224240291	 0.33895061	 0.151213
H	 1.8607993662	 1.1051400418	 1.909526737	 0.148843
H	 0.7718290629	 0.3886902525	 3.116818421	 0.138838
H	 2.3045811776	-0.4004522741	 2.7152244517	 0.144034
H	 0.16669285	-2.070936811	 2.7766115033	 0.088403
H	-0.8122478114	-1.8191372902	-0.816086786	 0.129168
58.6357	89.6465	93.4949	121.6161	161.7662	230.6978	269.3703	292.2606	318.1563	364.3661	435.9864	463.9236	527.7532	632.1686	745.5971	752.7647	846.5743	892.9689	977.5723	992.542	1008.2538	1079.5763	1109.2251	1135.1387	1197.207	1254.4534	1364.9116	1400.6662	1410.7431	1426.1149	1438.4156	1470.2254	1479.5929	1486.7417	1507.3053	1815.9015	1832.6789	2883.4719	2992.4774	3043.6799	3061.0649	3103.1934	3125.473	3157.3022	3170.3588
CC1(OC1(C)C=O)C=O	C[C@]1(O[C@]1(C)C=O)C=O	
InChI=1S/C6H8O3/c1-5(3-7)6(2,4-8)9-5/h3-4H,1-2H3	InChI=1S/C6H8O3/c1-5(3-7)6(2,4-8)9-5/h3-4H,1-2H3/t5-,6+
