21
gdb 115377	2.74319	1.19987	1.16062	3.1768	74.49	-0.2585	0.0759	0.3344	1207.8262	0.183091	-461.365965	-461.356968	-461.356024	-461.399634	34.151	
C	-0.043470193	 1.6031813032	-0.0471866902	-0.389771
C	 0.0522235327	 0.0743880826	 0.0198723948	-0.000995
C	 0.754254291	-0.5041720054	-1.2175477657	-0.088216
O	 2.130203527	-0.143849782	-1.2248510971	-0.252001
C	 2.7996059502	-0.5915915018	-0.0762818256	 0.204017
C	 4.2409535803	-0.0967205604	-0.11028627	-0.078694
O	 4.3255062561	 1.2999038932	 0.0532689121	-0.418738
O	 2.2286518222	-0.0733616653	 1.1095672957	-0.277625
C	 0.8495383458	-0.4036073213	 1.2413407291	-0.088101
H	 0.9505044489	 2.0446850747	-0.1513146563	 0.143365
H	-0.6443156534	 1.9194260916	-0.9059406104	 0.113053
H	-0.5089486489	 2.0099591576	 0.8564681903	 0.109372
H	-0.9551984474	-0.3575202258	 0.0811227594	 0.07458
H	 0.6550715706	-1.6031028869	-1.2310931919	 0.085802
H	 0.32920968	-0.1121618204	-2.1456361643	 0.11088
H	 2.7632492185	-1.698968382	-0.0386227997	 0.054486
H	 4.8009443542	-0.6379059625	 0.6690863661	 0.08946
H	 4.6756736616	-0.3448207842	-1.0825858202	 0.11839
H	 3.7510488728	 1.5127713317	 0.7983512202	 0.291144
H	 0.5069207633	 0.0732849599	 2.1640496735	 0.109699
H	 0.7438257075	-1.4947429065	 1.3592143003	 0.089892
79.4332	107.1011	205.6945	210.3378	224.5632	294.1404	312.3528	378.1138	397.8404	420.3009	500.4125	548.1607	696.8731	766.5252	797.8767	860.8949	897.5594	927.6159	962.6838	984.9	1008.9665	1027.018	1048.3631	1084.1574	1120.7994	1147.432	1162.0409	1190.702	1233.6985	1276.2636	1286.3155	1328.5853	1363.3971	1372.5222	1380.5838	1395.4622	1402.6965	1411.5754	1429.0828	1449.4414	1490.8	1492.6228	1494.9859	1506.8942	1508.1557	2904.4614	2960.4593	2973.2623	2982.6434	3028.1066	3038.8183	3085.1225	3088.861	3096.2821	3101.3015	3128.2636	3794.0212
CC1COC(CO)OC1	C[C@H]1CO[C@@H](CO)OC1	
InChI=1S/C6H12O3/c1-5-3-8-6(2-7)9-4-5/h5-7H,2-4H2,1H3	InChI=1S/C6H12O3/c1-5-3-8-6(2-7)9-4-5/h5-7H,2-4H2,1H3/t5-,6+
