19
gdb 106056	2.65567	1.59055	1.27939	2.0822	74.46	-0.2438	0.0616	0.3054	1042.884	0.159882	-422.968779	-422.96067	-422.959726	-423.001326	31.853	
O	-0.0366875127	 1.3976763107	 0.0195435543	-0.416966
C	-0.0452286435	-0.0243916887	-0.162924329	-0.21888
C	-1.4423302943	-0.5440487481	-0.0720064902	 0.309035
C	-2.1008754774	-0.9899110667	 1.2491509935	-0.129323
C	-3.611760626	-0.8164340248	 1.0995280478	-0.227156
C	-3.4053253605	-1.2751466885	-0.3685736114	-0.10277
C	-2.0284179351	-1.9313388251	 0.0696974066	-0.168089
C	-2.5706546442	-0.1388567719	-1.0080660046	 0.112282
O	-3.0961047483	 1.1658818092	-0.9311751897	-0.44964
H	-0.3792366884	 1.5685279998	 0.9040913816	 0.286518
H	 0.3680716581	-0.1837953064	-1.1649327951	 0.115432
H	 0.6238860951	-0.5247913236	 0.5533891225	 0.094619
H	-1.5133550174	-1.0387520013	 2.1588493284	 0.081064
H	-4.1548555991	-1.567353907	 1.6796580344	 0.095749
H	-4.0485082774	 0.1745751933	 1.2483693736	 0.106726
H	-4.2033727788	-1.7584779034	-0.9271330737	 0.073014
H	-1.593370891	-2.9114771144	-0.0580077753	 0.094542
H	-2.3032466774	-0.4026955697	-2.0433171507	 0.060731
H	-2.3362390419	 1.7594836364	-0.8998008732	 0.283112
96.7418	114.7565	221.2149	238.8806	317.9397	329.5803	387.6295	459.2751	487.5977	603.2931	663.4669	720.7635	797.4248	820.2148	842.1065	872.7788	910.3429	958.0789	966.1355	985.3184	990.9812	1015.2809	1028.8334	1058.0885	1098.7688	1128.8664	1142.5612	1147.5589	1176.7857	1196.4301	1244.3325	1261.4293	1273.4285	1320.8087	1333.0513	1370.4195	1403.0274	1411.3547	1441.2473	1489.1033	1503.6251	2981.8534	2990.3353	3056.4191	3067.1315	3113.641	3143.8682	3178.1462	3227.1656	3789.3122	3802.5413
OCC12C3CC(C13)C2O	OC[C@]12[C@H]3C[C@H]([C@@H]13)[C@H]2O	
InChI=1S/C7H10O2/c8-2-7-4-1-3(5(4)7)6(7)9/h3-6,8-9H,1-2H2	InChI=1S/C7H10O2/c8-2-7-4-1-3(5(4)7)6(7)9/h3-6,8-9H,1-2H2/t3-,4+,5-,6-,7+/m1/s1
