17
gdb 29517	3.03757	1.58733	1.06482	0.5826	75.41	-0.1892	0.0238	0.213	1107.6382	0.137405	-421.843953	-421.836133	-421.835188	-421.876572	29.062	
C	-0.0593618609	 1.5374118185	 0.0046672226	-0.503999
C	-0.0026452464	 0.0432444295	 0.0344530584	 0.070813
C	 0.1381081013	-0.8116348336	-1.0285594022	-0.096337
O	 0.1505794804	-2.129869118	-0.6527961513	-0.197456
C	 0.0249763683	-2.1082956303	 0.6981334849	 0.223703
C	-0.0781209339	-0.8457974099	 1.1523887861	 0.254627
O	-0.2693264622	-0.7391153746	 2.4983382914	-0.294714
C	-0.121322741	-2.1058984751	 2.9957878577	-0.090797
C	-0.156953646	-3.1099336144	 1.7843714746	-0.373932
H	 0.7484942087	 1.9809727747	 0.5971797083	 0.134413
H	 0.0289242918	 1.9127963862	-1.0184659161	 0.124323
H	-1.0021537238	 1.9106999877	 0.4197219588	 0.135013
H	 0.2551545325	-0.6305660653	-2.0848155186	 0.131585
H	 0.8434084084	-2.1649613119	 3.5104260786	 0.119491
H	-0.9205646377	-2.2798497247	 3.7185420713	 0.121845
H	-1.1103206185	-3.6517041703	 1.7217543532	 0.119818
H	 0.6389669091	-3.8565483285	 1.8749129326	 0.121606
102.8478	125.8369	143.2679	221.636	247.1533	353.0575	484.18	589.3313	604.198	616.3781	685.4502	709.758	760.9817	787.4622	841.6657	924.384	962.4481	1008.2602	1061.3253	1065.1383	1076.8216	1128.6649	1185.1986	1205.1251	1240.1725	1251.2311	1284.7434	1367.0998	1381.6026	1421.6183	1471.5055	1480.9394	1496.3857	1508.7602	1517.5484	1581.4965	1695.2425	3007.657	3031.201	3043.9775	3061.3039	3082.4892	3112.1565	3116.2525	3269.9672
CC1=COC2=C1OCC2	Cc1coc2c1OCC2	
InChI=1S/C7H8O2/c1-5-4-9-6-2-3-8-7(5)6/h4H,2-3H2,1H3	InChI=1S/C7H8O2/c1-5-4-9-6-2-3-8-7(5)6/h4H,2-3H2,1H3
