20
gdb 113883	2.71792	1.19374	1.02389	1.9798	77.06	-0.2207	-0.0295	0.1912	1262.5604	0.168826	-440.256843	-440.247136	-440.246191	-440.291888	35.498	
C	-0.1113453669	 1.1565381498	 0.4162207999	-0.474317
C	-0.3812899969	-0.0148198181	-0.5040041567	 0.397438
O	-1.5143965793	-0.4076785742	-0.7044562599	-0.320914
C	 0.8541611331	-0.6318669371	-1.1619786785	-0.250118
N	 0.9409623196	-2.0830830735	-1.3208045618	-0.098576
C	-0.1668901749	-3.0136031966	-1.0999195241	-0.278483
C	 0.4203466358	-2.8293276758	-2.4582469957	 0.000455
C	-0.3475446174	-2.230878272	-3.6302734575	-0.093882
O	-1.0800196671	-1.0550991386	-3.3794836161	-0.432126
H	 0.3918737542	 0.8001883825	 1.3229932766	 0.151762
H	 0.5673179523	 1.8730213817	-0.0597519202	 0.145499
H	-1.0473141628	 1.6458789628	 0.6866650072	 0.1463
H	 0.9270538778	-0.1383463726	-2.1397627163	 0.158495
H	 1.7311103399	-0.3133316064	-0.5841119898	 0.110892
H	 0.0840456832	-3.8918881394	-0.5084602279	 0.110171
H	-1.1576900529	-2.6143616284	-0.9151701065	 0.137684
H	 1.1126746711	-3.5980626949	-2.8074813071	 0.087554
H	 0.3722994102	-1.9718473318	-4.4173816074	 0.106036
H	-0.9856867486	-3.0312672249	-4.0447412534	 0.094643
H	-1.5403566604	-1.1174762925	-2.5299006546	 0.301487
39.1694	103.3329	144.0096	172.4695	200.7722	220.2342	272.1315	350.497	360.9483	404.579	475.3374	544.1298	599.0274	656.1464	728.878	784.8381	800.2102	875.9077	928.4663	954.7321	978.9787	1045.9811	1065.2713	1090.37	1113.2586	1135.4904	1161.5715	1172.8916	1198.2927	1259.0981	1270.0228	1331.1293	1368.615	1380.6739	1392.5632	1423.0016	1443.204	1459.6014	1460.8615	1475.1678	1510.8608	1520.8201	1782.8652	2950.007	3016.2858	3034.9682	3036.1929	3056.1954	3081.7843	3095.9433	3105.3916	3156.3219	3207.0629	3709.4477
CC(=O)CN1CC1CO	CC(=O)CN1C[C@H]1CO	
InChI=1S/C6H11NO2/c1-5(9)2-7-3-6(7)4-8/h6,8H,2-4H2,1H3	InChI=1S/C6H11NO2/c1-5(9)2-7-3-6(7)4-8/h6,8H,2-4H2,1H3/t6-,7?/m0/s1
