16
gdb 112325	2.86568	1.3615	1.02988	4.3686	65.02	-0.243	0.0079	0.2509	1126.2006	0.124927	-475.030898	-475.022898	-475.021954	-475.063739	29.771	
O	-0.066061551	 1.4171395648	-0.0900824528	-0.426883
C	 0.0386864926	 0.0100131965	 0.0759622143	-0.083319
C	-1.3828500993	-0.5418587477	 0.0319958359	 0.001779
N	-2.0473948009	-0.2290774356	-1.2246457312	-0.327295
C	-2.5656621424	-1.2916516037	-1.9178506125	 0.436885
O	-3.1899829877	-1.2553767958	-2.9536551527	-0.378296
C	-2.1946903437	-2.523816567	-1.1068644842	-0.098094
O	-0.7652485913	-2.685073992	-1.0146721462	-0.245289
C	-1.4519052562	-2.0650016574	 0.0718923686	 0.013355
H	 0.8150499723	 1.7746881634	-0.231294615	 0.296314
H	 0.620868118	-0.4556444821	-0.7292984364	 0.117677
H	 0.503198302	-0.2499643044	 1.0400753994	 0.093292
H	-1.9462427415	-0.1263899773	 0.8794744415	 0.099454
H	-2.0012575422	 0.6958788328	-1.6218785374	 0.263867
H	-2.7834974053	-3.4314363466	-1.1734309097	 0.123793
H	-1.4322921235	-2.5942857979	 1.0192336683	 0.112758
92.3037	136.2421	158.5841	236.1047	254.1644	341.4761	441.0577	485.8519	509.1	531.6456	633.468	730.9632	784.0567	841.6804	873.3213	899.3955	925.6326	985.2803	1027.1346	1071.3055	1085.2797	1101.8711	1144.187	1230.4585	1238.5959	1252.4888	1266.324	1304.4435	1326.8669	1377.7867	1415.6149	1429.3371	1456.0371	1518.3317	1836.9296	2982.1101	3007.8936	3050.9983	3169.1362	3194.6137	3649.5554	3838.9341
OCC1NC(=O)C2OC12	OC[C@H]1NC(=O)[C@H]2O[C@@H]12	
InChI=1S/C5H7NO3/c7-1-2-3-4(9-3)5(8)6-2/h2-4,7H,1H2,(H,6,8)	InChI=1S/C5H7NO3/c7-1-2-3-4(9-3)5(8)6-2/h2-4,7H,1H2,(H,6,8)/t2-,3+,4+/m1/s1
