19
gdb 65107	3.07995	1.36602	1.12522	2.0204	74.98	-0.2278	0.0737	0.3015	1120.4163	0.158268	-422.955885	-422.947648	-422.946704	-422.98886	32.505	
O	 0.3432158207	 0.9134548731	-1.1565116198	-0.458471
C	 0.1330780842	-0.0932568262	-0.1993714613	 0.280074
C	 1.303181173	-0.998677017	 0.1176154837	-0.333279
C	 0.9054057333	 0.1118300893	 1.0694829428	-0.301996
C	-1.2559311057	-0.6424563743	-0.1725796552	 0.25433
C	-2.2365121506	-0.5206468479	-1.3282332439	-0.36994
C	-2.6113371509	 0.0029531881	 0.0241571875	 0.055724
O	-3.0863667654	-1.0553860149	 0.8601465028	-0.287041
C	-1.7926788831	-1.7098267783	 0.7832123567	-0.149056
H	 0.3687312023	 0.4900445167	-2.0220734447	 0.283554
H	 1.1061652522	-2.0257236009	 0.4070919691	 0.114585
H	 2.2054319801	-0.8552583174	-0.4666323598	 0.116406
H	 1.5386217865	 0.9904332055	 1.1023415689	 0.127066
H	 0.4404685208	-0.1519859658	 2.0127685421	 0.11829
H	-1.9757383041	 0.2450386814	-2.0515774563	 0.114594
H	-2.7473793327	-1.3933816829	-1.7277655311	 0.110628
H	-2.9244593999	 1.0154238837	 0.2499568103	 0.110963
H	-1.8631115724	-2.7376638453	 0.406926545	 0.104306
H	-1.3087892983	-1.7114033669	 1.7669869634	 0.109263
47.1418	162.168	194.9345	307.2565	321.8335	354.6102	387.9112	423.0408	459.0837	507.6853	555.5681	760.0101	769.1941	827.5779	850.5545	904.9917	918.1356	926.0814	931.7019	983.6082	988.5267	1002.949	1019.1698	1050.2156	1062.7427	1076.3733	1080.4014	1105.1714	1156.8479	1184.0204	1188.882	1222.444	1262.0349	1295.946	1340.4275	1364.2584	1422.9642	1452.7167	1476.658	1500.4702	1517.9707	3017.8272	3065.4965	3110.5706	3129.6102	3141.5021	3186.1629	3212.0583	3215.9568	3234.2635	3794.0382
OC1(CC1)C12CC1OC2	OC1(CC1)[C@]12C[C@H]1OC2	
InChI=1S/C7H10O2/c8-7(1-2-7)6-3-5(6)9-4-6/h5,8H,1-4H2	InChI=1S/C7H10O2/c8-7(1-2-7)6-3-5(6)9-4-6/h5,8H,1-4H2/t5-,6+/m1/s1
