19
gdb 105738	2.24173	1.50568	1.24801	3.1847	77.8	-0.2289	-0.0302	0.1987	1122.3354	0.157119	-423.038135	-423.028956	-423.028012	-423.072443	33.356	
C	 0.1575524233	 1.5373386668	 0.2175026863	-0.390814
C	-0.0190467678	 0.0345981057	-0.020457328	-0.219954
C	 0.6673584709	-0.4599997981	-1.3069996009	 0.259736
O	 2.0472654574	-0.1228824078	-1.2874345056	-0.286984
C	 2.8405812877	-1.2420990648	-1.6733654318	-0.131998
C	 1.8857891816	-2.4027521835	-1.6901553641	-0.0867
C	 0.6493908622	-1.9686874088	-1.4750233231	-0.148821
C	-0.0166546867	 0.149383064	-2.5430424521	 0.143441
O	 0.5554263978	 0.7051886059	-3.4396510555	-0.248915
H	 1.2186277002	 1.7933044842	 0.2632224154	 0.14432
H	-0.2933597896	 2.1301485358	-0.5856922301	 0.122796
H	-0.3127889377	 1.8378207306	 1.158131551	 0.11302
H	 0.4008171896	-0.5344201903	 0.8157955749	 0.108631
H	-1.0849445167	-0.2224712619	-0.0729702826	 0.096476
H	 3.2960514521	-1.0709880192	-2.6611627069	 0.120739
H	 3.6585071561	-1.3690812985	-0.9501914163	 0.111748
H	 2.1937461091	-3.4259491405	-1.8641205801	 0.115094
H	-0.2590363896	-2.555882345	-1.4438267863	 0.111339
H	-1.1239536601	 0.0034187954	-2.5552121942	 0.066846
70.0036	91.5378	113.4302	182.5175	208.3753	250.957	286.0442	341.775	414.0629	457.2619	581.6679	685.5461	725.7225	772.7372	791.5185	837.6742	923.8538	941.734	955.3227	970.3779	980.1565	1032.2409	1045.8086	1068.2393	1122.2554	1152.8217	1167.2062	1199.2966	1207.5824	1308.7372	1338.8997	1356.162	1378.5912	1409.9012	1414.3018	1478.8957	1496.4985	1506.6865	1514.4347	1680.6515	1843.7551	2836.6044	2985.3814	3017.1797	3027.8131	3041.4493	3072.2688	3106.8342	3130.7957	3209.7339	3234.1618
CCC1(OCC=C1)C=O	CC[C@]1(OCC=C1)C=O	
InChI=1S/C7H10O2/c1-2-7(6-8)4-3-5-9-7/h3-4,6H,2,5H2,1H3	InChI=1S/C7H10O2/c1-2-7(6-8)4-3-5-9-7/h3-4,6H,2,5H2,1H3/t7-/m1/s1
