17
gdb 108730	3.25801	1.26438	0.97112	7.1007	78.73	-0.2201	-0.0177	0.2023	1202.3524	0.136979	-418.021482	-418.013227	-418.012283	-418.054445	30.707	
C	 0.0800896654	 1.4240207833	 0.0181318451	-0.327185
N	-0.0319967687	-0.0200007375	 0.0376473049	-0.382446
C	-1.2217468171	-0.6582046559	 0.0153115808	 0.425631
C	-2.4839423029	-0.1499209988	 0.0601130334	-0.367424
C	-3.4502044263	-1.243414365	 0.0676407299	 0.378885
O	-4.6537382813	-1.2139796945	 0.0284583767	-0.34821
N	-2.7026459243	-2.5157924282	 0.1161398693	-0.130489
C	-2.0058934095	-2.7932697426	-1.1477512322	-0.239263
C	-1.2924386065	-2.1501235721	-0.0016412933	-0.153323
H	 1.1241891275	 1.7064746247	 0.1644922143	 0.135002
H	-0.2728044089	 1.8564204012	-0.9277724658	 0.13568
H	-0.5118065564	 1.8550972287	 0.8324754513	 0.150216
H	 0.7933179223	-0.5598849244	-0.1612218413	 0.253503
H	-2.780116131	 0.8872830458	 0.019883563	 0.10422
H	-1.8334189271	-3.8445802468	-1.3631224483	 0.127548
H	-2.2423634244	-2.1699447946	-2.0067183945	 0.130124
H	-0.5777483609	-2.7171233933	 0.5897302468	 0.107532
102.4007	127.2884	173.7613	185.6457	250.6857	318.9976	362.3845	435.2696	486.2423	622.8601	655.509	680.4549	768.135	775.5149	823.2967	847.2579	893.2394	947.1913	1016.525	1066.2636	1079.0166	1104.8416	1142.6143	1152.5031	1157.4703	1175.4685	1252.638	1292.2571	1297.9575	1374.7024	1459.7023	1481.3721	1494.5394	1512.9879	1552.8177	1662.7458	1834.732	3012.6504	3076.6873	3103.1881	3133.2827	3141.1319	3196.3248	3247.2003	3649.0447
CNC1=CC(=O)N2CC12	CNC1=CC(=O)N2C[C@@H]12	
InChI=1S/C6H8N2O/c1-7-4-2-6(9)8-3-5(4)8/h2,5,7H,3H2,1H3	InChI=1S/C6H8N2O/c1-7-4-2-6(9)8-3-5(4)8/h2,5,7H,3H2,1H3/t5-,8?/m0/s1
