17
gdb 58855	2.62873	1.46573	1.0702	3.571	67.84	-0.2746	-0.0004	0.2742	1118.4326	0.134388	-458.957349	-458.948729	-458.947785	-458.990833	32.052	
C	 0.0350331533	 1.5135091155	 0.0265815149	-0.423339
C	 0.0469638331	-0.0145564766	 0.0106409179	 0.005682
O	 0.7653188404	-0.5661955776	 1.108047207	-0.424438
C	-1.3609506773	-0.5690165498	-0.0512501111	 0.112007
C	-2.167627283	-1.0722171832	 1.1597696764	-0.344348
C	-1.9344861963	-1.9610778518	-0.0045358581	 0.039901
O	-2.9033508495	-1.6452322625	-1.0489588837	-0.265236
C	-2.3420030565	-0.3836081159	-1.185638131	 0.438922
O	-2.5957211934	 0.4407747163	-2.0039021738	-0.333724
H	 1.0579082888	 1.8995956583	 0.0254488557	 0.126046
H	-0.4958836346	 1.9006538863	-0.8475711431	 0.157585
H	-0.4808923504	 1.8851055635	 0.9208296976	 0.112341
H	 0.5870895139	-0.3560432114	-0.8810252563	 0.106047
H	 0.575415008	-0.02698189	 1.8834467717	 0.284841
H	-1.5439480547	-1.2681266931	 2.0264879107	 0.131575
H	-3.1667107594	-0.7002993742	 1.3629819301	 0.136435
H	-1.4669855025	-2.9341879939	-0.037834215	 0.139702
58.6892	132.1151	195.4648	208.2852	269.6642	289.1732	312.9095	367.2922	450.0616	488.026	583.1573	662.323	701.6058	780.3093	850.4451	884.8346	910.9288	941.0748	941.6768	1018.9823	1043.5613	1057.6127	1074.2264	1082.1016	1092.7282	1139.3608	1237.5038	1256.9378	1306.6002	1354.4904	1394.8058	1405.477	1417.9275	1473.7834	1492.3726	1497.7154	1929.1429	3026.2833	3036.5287	3102.9893	3126.2529	3129.7015	3222.2746	3236.5809	3805.5573
CC(O)C12CC1OC2=O	C[C@@H](O)[C@]12C[C@H]1OC2=O	
InChI=1S/C6H8O3/c1-3(7)6-2-4(6)9-5(6)8/h3-4,7H,2H2,1H3	InChI=1S/C6H8O3/c1-3(7)6-2-4(6)9-5(6)8/h3-4,7H,2H2,1H3/t3-,4-,6-/m1/s1
