19
gdb 100621	2.23549	1.16806	0.91379	3.2061	82.39	-0.2409	0.0037	0.2447	1355.6605	0.156419	-382.026624	-382.016178	-382.015234	-382.062256	37.142	
C	 0.0156841931	 1.5560576311	 0.1059636015	-0.398387
C	-0.0262832512	 0.0346683665	-0.0254122754	-0.12089
N	-1.3945363789	-0.4923336395	-0.0966657714	-0.048954
C	-2.110501502	-0.1007250179	-1.3091809429	-0.34653
C	-1.4361938616	-1.9312908156	 0.1508231314	-0.319183
C	-2.7978014987	-2.4243360986	 0.3801459732	 0.319394
C	-3.9027830133	-2.8434293362	 0.5878014433	-0.3832
C	-0.7809056339	-2.732373951	-0.9282753462	 0.289528
N	-0.2348319637	-3.2833049519	-1.7850190852	-0.334079
H	 1.0444868439	 1.8798348189	 0.2892377745	 0.122507
H	-0.3272495513	 2.0604532491	-0.8013614126	 0.126387
H	-0.6072241725	 1.8879391467	 0.9416270737	 0.128649
H	 0.5756056125	-0.2835360014	-0.8955409708	 0.105924
H	 0.4446368863	-0.4072785433	 0.8606193737	 0.104323
H	-1.6039660577	-0.430013425	-2.2323356739	 0.119294
H	-3.1144124083	-0.5303544941	-1.2906262488	 0.140725
H	-2.2114570943	 0.98544144	-1.3376723239	 0.130486
H	-0.8528654545	-2.1161264407	 1.0627725279	 0.155085
H	-4.8826883842	-3.2121883774	 0.768655702	 0.208921
70.048	80.1589	122.6716	140.1014	160.6571	208.0665	252.6982	296.0984	355.5204	361.6512	374.4293	404.2509	506.7013	571.9261	647.4182	654.2549	677.6739	812.013	827.1659	878.2526	949.8966	1030.9653	1059.5451	1089.5751	1123.5973	1165.837	1202.3023	1251.3585	1302.6751	1335.219	1349.0472	1401.5515	1422.3902	1459.0123	1488.0687	1491.8989	1505.6089	1507.3617	1515.8127	2250.163	2345.2612	2948.6772	2969.1827	3022.0146	3046.3335	3047.0879	3097.9941	3116.627	3122.5056	3139.1939	3501.4048
CCN(C)C(C#C)C#N	CCN(C)[C@@H](C#C)C#N	
InChI=1S/C7H10N2/c1-4-7(6-8)9(3)5-2/h1,7H,5H2,2-3H3	InChI=1S/C7H10N2/c1-4-7(6-8)9(3)5-2/h1,7H,5H2,2-3H3/t7-/m0/s1
