21
gdb 83533	2.16973	1.92888	1.32749	2.8159	77.38	-0.2327	0.0615	0.2943	1044.1921	0.183696	-424.214239	-424.206081	-424.205136	-424.246007	34.123	
C	-0.1505663429	 1.6074215911	-0.0465392118	-0.476804
C	 0.011919255	 0.0946197862	-0.0239193148	 0.432556
O	-1.2791308175	-0.4913217218	-0.268189252	-0.497553
C	 1.1637882719	-0.6143569633	-0.8195997982	-0.134914
C	 2.4247379467	 0.058249385	-0.2498941036	-0.232156
C	 2.0475348187	 0.0408793165	 1.2789980183	-0.233136
C	 0.6717026383	-0.6404182018	 1.1861114822	-0.10368
C	 1.0063943444	-1.8104959112	 0.1903661105	 0.18902
O	 0.042073585	-2.7879872661	-0.0564788093	-0.463654
H	 0.7718090615	 2.144930929	 0.178065159	 0.12557
H	-0.4873386656	 1.9380742491	-1.0376774025	 0.106015
H	-0.9115661543	 1.9080890253	 0.6801718	 0.128926
H	-1.5664834754	-0.2091076932	-1.1439127189	 0.281579
H	 1.0998857296	-0.7632115872	-1.8996383634	 0.053288
H	 3.3239630136	-0.5262707547	-0.462904122	 0.103842
H	 2.5904023533	 1.067111496	-0.6358658268	 0.098185
H	 2.7483304884	-0.5507508907	 1.8738550996	 0.104171
H	 2.0061937144	 1.0404603944	 1.7185827373	 0.099753
H	 0.111978302	-0.8126050396	 2.1061910842	 0.066298
H	 1.9361474283	-2.3455694247	 0.4089117532	 0.071046
H	-0.7887707454	-2.3113339685	-0.1953561412	 0.281648
191.1677	202.026	272.5095	309.7458	315.322	340.3483	361.4674	413.9	433.0152	453.4498	586.7526	625.7135	644.8444	653.7752	808.2115	832.7671	870.4137	889.9308	931.2196	940.8833	943.0995	973.1381	1008.0955	1025.7924	1059.1882	1090.6442	1126.3214	1147.535	1177.2198	1198.2738	1203.0226	1221.1255	1226.1867	1260.6978	1275.8922	1305.5278	1318.2996	1349.4413	1372.1137	1411.2045	1483.95	1485.9752	1490.9953	1511.3525	1526.2692	3026.1653	3055.3266	3057.2013	3065.6008	3091.6992	3092.8232	3094.7184	3109.416	3113.9542	3138.9641	3722.0128	3796.3271
CC1(O)C2CCC1C2O	C[C@@]1(O)[C@H]2CC[C@@H]1[C@H]2O	
InChI=1S/C7H12O2/c1-7(9)4-2-3-5(7)6(4)8/h4-6,8-9H,2-3H2,1H3	InChI=1S/C7H12O2/c1-7(9)4-2-3-5(7)6(4)8/h4-6,8-9H,2-3H2,1H3/t4-,5+,6-,7+
