18
gdb 45090	2.71685	1.72209	1.24026	3.5341	75.1	-0.2295	-0.0078	0.2217	1014.8009	0.150274	-401.941106	-401.933952	-401.933008	-401.972747	28.927	
O	 0.0431461002	-0.0181168646	 0.2143734573	-0.334152
C	 0.0033626947	 1.180909172	 0.0363593606	 0.400323
C	-1.3367788945	 1.9091652601	-0.1049332034	-0.33525
C	-1.3497290416	 3.0188714204	-1.1512037684	-0.038596
N	-1.0939308189	 4.389224938	-0.6773796492	-0.334908
C	-0.0810307522	 3.7117315986	-1.5061022867	-0.044983
C	 1.2149586043	 3.3049449147	-0.8538669543	-0.025964
C	 1.3563200779	 3.3410794812	 0.6297637078	-0.305008
C	 1.2465099588	 1.9907259812	-0.0670956371	-0.127503
H	-2.0833576208	 1.1437383168	-0.3264959741	 0.126356
H	-1.5943961338	 2.3385228441	 0.8714490469	 0.139185
H	-2.0844117034	 2.8953745506	-1.9428961632	 0.094273
H	-1.6142947791	 5.0639704396	-1.231058894	 0.233575
H	 0.0258183582	 4.044269611	-2.5352735446	 0.086381
H	 2.1025003249	 3.5129335579	-1.4416992433	 0.094635
H	 2.3237435615	 3.5849842899	 1.0526822505	 0.123159
H	 0.5054021471	 3.7013830927	 1.1949838062	 0.145037
H	 2.1438855469	 1.3853958959	-0.117406751	 0.103438
81.7415	181.716	260.6081	375.6834	420.6585	446.9863	479.0741	549.4694	578.9161	690.1648	734.9316	797.4158	823.788	841.1308	867.5882	900.0873	928.1197	959.1122	984.0389	1010.0837	1017.8711	1060.2863	1091.5928	1117.772	1126.8372	1163.6194	1188.7115	1205.9276	1216.5604	1259.4798	1274.2267	1312.4128	1365.6666	1390.3677	1409.4163	1449.127	1457.0491	1487.3905	1790.1217	3038.343	3110.636	3131.2869	3140.5168	3147.7575	3165.2769	3185.1778	3239.0657	3508.7523
O=C1CC2NC2C2CC12	O=C1C[C@H]2N[C@H]2[C@H]2C[C@@H]12	
InChI=1S/C7H9NO/c9-6-2-5-7(8-5)4-1-3(4)6/h3-5,7-8H,1-2H2	InChI=1S/C7H9NO/c9-6-2-5-7(8-5)4-1-3(4)6/h3-5,7-8H,1-2H2/t3-,4+,5-,7+/m1/s1
