23
gdb 86545	3.6332	0.9344	0.91016	1.2722	86.21	-0.2336	0.0664	0.3	1440.3773	0.204208	-388.266771	-388.256829	-388.255884	-388.30201	37.516	
C	-0.2546799348	 1.4593477526	-0.0482544093	-0.390042
C	 0.0147647914	-0.0423354437	-0.0840511902	 0.031601
C	 1.2862069305	-0.4479804554	-0.8876865243	-0.251677
C	 2.0595090654	-0.6081990765	 0.4545159397	 0.018384
C	 0.692838537	-0.6041540587	 1.2010800384	-0.251773
C	 2.9596436644	-1.8026374112	 0.6209046547	 0.415482
O	 2.2510753672	-2.9844477672	 0.3326835277	-0.474059
C	 4.4157210326	-1.7029302291	 0.2474639671	-0.333087
C	 4.0016986482	-1.8114255098	 1.7089260193	-0.332575
H	 0.6401627948	 2.0197181816	 0.2481954782	 0.108964
H	-0.5647500915	 1.8300199508	-1.031761876	 0.109896
H	-1.0479591318	 1.702741891	 0.6674922075	 0.109909
H	-0.8972786367	-0.5678446648	-0.3824385949	 0.063755
H	 1.1701395243	-1.409929026	-1.3910776116	 0.11247
H	 1.6742810743	 0.2837401763	-1.6023710483	 0.084746
H	 2.6377017038	 0.2910284488	 0.6860224085	 0.061661
H	 0.6208524557	 0.0066056085	 2.10582559	 0.084785
H	 0.3682054698	-1.6208650619	 1.4315581432	 0.112677
H	 2.8417974854	-3.7360225321	 0.4352359783	 0.280006
H	 4.8808270246	-2.5724475473	-0.2077674754	 0.104188
H	 4.8025729225	-0.7562273439	-0.1151124329	 0.115222
H	 4.1057523771	-0.9389593911	 2.3455958411	 0.115139
H	 4.1937330657	-2.7525737709	 2.2157768294	 0.104328
62.2126	64.8675	101.4232	153.3575	225.2312	251.8908	287.1274	318.9424	372.5562	388.9642	477.8191	530.969	615.229	760.9567	778.8538	809.1365	830.3627	877.8812	889.4521	900.7916	938.0696	944.8474	974.0783	976.936	1005.4268	1051.4795	1055.1288	1065.8621	1069.5074	1132.9054	1141.6218	1183.6822	1186.2387	1228.2768	1235.2753	1264.2315	1267.3978	1281.2868	1297.7296	1354.9264	1371.1506	1407.4276	1449.3175	1460.7337	1468.6145	1490.215	1497.4129	1498.1085	1503.4793	3019.572	3047.4693	3052.129	3053.7203	3062.6741	3086.811	3089.1479	3117.2355	3118.7272	3120.9434	3123.4744	3198.0792	3213.1696	3834.3676
CC1CC(C1)C1(O)CC1	C[C@H]1C[C@@H](C1)C1(O)CC1	
InChI=1S/C8H14O/c1-6-4-7(5-6)8(9)2-3-8/h6-7,9H,2-5H2,1H3	InChI=1S/C8H14O/c1-6-4-7(5-6)8(9)2-3-8/h6-7,9H,2-5H2,1H3/t6-,7-
