14
gdb 129683	3.23584	1.32847	0.94651	4.6669	67.55	-0.2329	-0.0239	0.209	1142.1641	0.103308	-466.205738	-466.197779	-466.196834	-466.238787	28.447	
N	-0.08463653	 1.4614631958	 0.0134304363	-0.615985
C	-0.0184299268	 0.0495534183	-0.0143075414	 0.139485
C	-1.1084178443	-0.7949419381	 0.0032136966	 0.46879
N	-2.4572024225	-0.4872935797	 0.0495188374	-0.407829
C	-3.463183978	-1.4095565953	 0.0629173055	 0.147102
O	-3.2880935176	-2.6115967286	 0.0360260634	-0.324627
N	-0.5836650924	-2.0358106976	-0.0349520489	-0.244128
N	 0.7695818212	-1.9802420974	-0.0756020532	-0.125898
N	 1.1033598613	-0.7218300674	-0.062197804	-0.22735
H	 0.4141766544	 1.8288542704	 0.8190258624	 0.252723
H	 0.3653107638	 1.8585032791	-0.8067398176	 0.252721
H	-2.6670770815	 0.5012405562	 0.0736692915	 0.277077
H	-4.460271112	-0.9390181873	 0.1017536552	 0.105613
H	-1.0999242856	-2.9035582183	-0.0350754232	 0.302308
80.7832	113.0053	167.492	226.3444	253.632	293.8144	406.2664	465.6172	622.2084	635.6663	638.3422	729.9967	730.9905	752.6938	868.0893	900.5985	1015.6536	1018.3202	1044.8564	1136.3826	1210.3247	1225.551	1255.099	1303.0596	1379.0184	1425.7081	1501.3667	1544.5501	1647.5021	1690.8651	1782.7139	2996.1697	3490.8789	3552.9456	3604.204	3636.3047
NC1=C(NC=O)NN=N1	Nc1c(NC=O)[nH]nn1	
InChI=1S/C3H5N5O/c4-2-3(5-1-9)7-8-6-2/h1H,(H4,4,5,6,7,8,9)	InChI=1S/C3H5N5O/c4-2-3(5-1-9)7-8-6-2/h1H,(H4,4,5,6,7,8,9)
