19
gdb 22145	4.71492	0.55127	0.53916	3.8331	80.69	-0.2518	0.0001	0.2519	2009.3588	0.156962	-419.19291	-419.182406	-419.181461	-419.229948	36.302	
C	-0.0823571072	 1.5314590972	-0.0428064383	-0.471726
C	-0.0044282822	 0.027842538	-0.0433803847	 0.355335
C	 0.0511198555	-0.7291016899	 1.2583122185	-0.283657
C	 1.358459073	-0.4865265947	 2.0325648802	-0.182515
C	 1.3737689609	-1.2538211092	 3.369481161	-0.338217
C	 2.6028938469	-1.0343034766	 4.128523602	 0.256352
N	 3.5803667647	-0.8475078948	 4.7158735994	-0.302205
N	 0.0230522489	-0.684984814	-1.1047460895	-0.160178
O	-0.0154228474	 0.1080224159	-2.2617831768	-0.397957
H	 0.8427515746	 1.9680966803	-0.4349169929	 0.151005
H	-0.886625155	 1.866443195	-0.7040370481	 0.152826
H	-0.2540586029	 1.9242373533	 0.9615728056	 0.117965
H	-0.799447108	-0.4279065592	 1.8862425314	 0.107513
H	-0.0603224794	-1.7956821473	 1.0411350498	 0.121315
H	 2.2102382818	-0.8039338399	 1.4225879648	 0.133676
H	 1.4936675498	 0.5815300523	 2.2328882133	 0.125136
H	 0.5233660018	-0.9503945314	 3.9918011585	 0.151915
H	 1.262268206	-2.3296407302	 3.1903628094	 0.155602
H	-0.0142187317	-0.5539524848	-2.9611671937	 0.307816
44.3787	70.2091	82.0078	89.6509	126.0032	200.2705	268.9539	314.3141	351.2648	381.8017	399.5712	420.8108	530.5282	576.8679	651.4145	744.9228	816.5141	850.1655	943.1308	985.0079	1010.5465	1011.9287	1037.0456	1061.1238	1099.7844	1173.587	1262.0357	1267.2316	1300.739	1327.217	1349.165	1385.6904	1401.3031	1403.0131	1468.4916	1473.9498	1476.8044	1485.1997	1503.0956	1728.7122	2362.8578	3010.8944	3037.5492	3043.1431	3053.2765	3070.9534	3084.202	3102.513	3105.3597	3132.6224	3820.4828
CC(CCCC#N)=NO	CC(=NO)CCCC#N	
InChI=1S/C6H10N2O/c1-6(8-9)4-2-3-5-7/h9H,2-4H2,1H3	InChI=1S/C6H10N2O/c1-6(8-9)4-2-3-5-7/h9H,2-4H2,1H3
