18
gdb 84947	2.06644	1.74903	1.3286	3.3882	73.33	-0.2127	-0.0292	0.1835	1038.7044	0.148717	-439.081584	-439.073057	-439.072113	-439.114763	32.146	
O	-0.0199309368	 1.3673100821	-0.2937347519	-0.436114
C	 0.0233941177	-0.044754267	-0.0748380084	-0.001612
C	 0.7465095559	-0.391890413	 1.2157847808	-0.121583
C	 0.340776684	-0.0160749997	 2.430201126	-0.060456
C	-0.9477200129	 0.733882707	 2.7521330347	-0.207805
N	-2.1954644082	 0.1773739269	 2.2313906652	-0.282448
C	-2.4165463425	 0.2774552558	 0.7846049766	-0.251368
C	-1.4255809789	-0.5528142714	-0.0307798154	 0.377351
O	-1.7260455302	-1.5979077141	-0.5592049616	-0.314444
H	 0.8378410654	 1.7261048496	-0.0434729467	 0.286607
H	 0.505944778	-0.5550756437	-0.9172657919	 0.090084
H	 1.6674162264	-0.9585440494	 1.1108062151	 0.103468
H	 0.9726659908	-0.2641522405	 3.2808273436	 0.101597
H	-1.0482512753	 0.7955674868	 3.8407920813	 0.108825
H	-0.8707045447	 1.7646883775	 2.3851181229	 0.128617
H	-2.2883955964	-0.7910116576	 2.5222115469	 0.224764
H	-3.4211933512	-0.0890710307	 0.5574311438	 0.118688
H	-2.3440536712	 1.3299576213	 0.4966860091	 0.135829
80.5484	101.443	212.2342	223.6967	249.7627	328.9002	346.6941	385.7827	469.3914	491.0633	611.4295	655.5524	673.1576	750.2654	767.507	871.1915	893.8549	939.625	945.953	982.6882	992.0159	1055.6061	1079.1586	1151.1075	1168.2434	1226.2322	1249.4735	1273.5218	1335.5842	1346.7395	1349.4458	1377.4328	1384.6955	1404.8137	1458.5936	1469.5806	1505.1538	1701.0673	1812.66	3031.8477	3032.1605	3059.459	3073.2214	3117.3946	3141.846	3172.2988	3516.1022	3813.2163
OC1C=CCNCC1=O	O[C@H]1C=CCNCC1=O	
InChI=1S/C6H9NO2/c8-5-2-1-3-7-4-6(5)9/h1-2,5,7-8H,3-4H2	InChI=1S/C6H9NO2/c8-5-2-1-3-7-4-6(5)9/h1-2,5,7-8H,3-4H2/t5-/m0/s1
