21
gdb 120673	4.48853	0.74735	0.70186	0.9139	79.93	-0.2564	0.0755	0.3318	1662.9883	0.181235	-424.193521	-424.183959	-424.183014	-424.228709	34.998	
O	-0.1320842226	 1.4215015219	 0.0372789329	-0.422184
C	-0.1072024254	 0.0079760864	 0.1633668189	-0.065339
C	-1.4065648289	-0.5326984521	-0.4263722557	-0.209903
C	-1.4660949098	-2.037489264	-0.3800447153	-0.060259
O	-1.6685560638	-2.6362923156	 0.9177034641	-0.297588
C	-2.68211917	-2.7916410098	-0.0586685522	 0.455301
C	-4.1262940228	-2.2975912115	 0.0720432463	-0.308346
C	-4.544943629	-3.4797006006	-0.8547085338	-0.211976
C	-3.1492130242	-4.1351433381	-0.6256714532	-0.312203
H	 0.6553702275	 1.7744218713	 0.4612845782	 0.286085
H	 0.753640477	-0.4257210834	-0.3723508861	 0.082427
H	-0.0315421468	-0.3045365626	 1.2153250583	 0.105961
H	-2.2488141187	-0.1044406907	 0.1255313311	 0.112672
H	-1.4896788825	-0.1950476016	-1.467178663	 0.107244
H	-0.7068356539	-2.5517955695	-0.9750858766	 0.08598
H	-4.4939778252	-2.4189735929	 1.0952253296	 0.1146
H	-4.3514140449	-1.2826642899	-0.2642264326	 0.107332
H	-5.4149202417	-4.0602088388	-0.5442036281	 0.104884
H	-4.6876789755	-3.1615440034	-1.8899113335	 0.107727
H	-2.619496964	-4.5307844449	-1.4957857487	 0.103106
H	-3.173371435	-4.9037933803	 0.1526901795	 0.11448
61.3365	88.3963	100.102	120.8082	211.2313	259.0706	267.274	332.3204	390.3174	473.9457	528.0583	569.1379	716.1245	784.4553	788.4641	845.3329	856.714	908.7939	923.4258	966.0476	998.4368	1031.2668	1046.3349	1065.8657	1093.3905	1136.7059	1144.6678	1171.9132	1205.0047	1222.68	1228.031	1244.1423	1245.4362	1268.5993	1277.5621	1312.7133	1327.7264	1364.0664	1459.3529	1468.6586	1478.0151	1481.086	1493.1486	1522.754	1529.3898	2962.963	3008.9761	3037.0339	3055.2362	3059.3791	3071.6785	3074.1683	3096.894	3104.5904	3109.8222	3131.8051	3832.0203
OCCC1OC11CCC1	OCC[C@H]1OC21CCC2	
InChI=1S/C7H12O2/c8-5-2-6-7(9-6)3-1-4-7/h6,8H,1-5H2	InChI=1S/C7H12O2/c8-5-2-6-7(9-6)3-1-4-7/h6,8H,1-5H2/t6-/m1/s1
