17
gdb 104385	2.65685	1.53638	1.21076	3.4242	63.76	-0.2587	-0.0046	0.2541	1046.0921	0.136685	-496.142499	-496.134306	-496.133362	-496.175171	31.083	
O	-0.2040687427	 1.474757866	-0.500459618	-0.432465
C	 0.0431880699	 0.1132884238	-0.1934861066	-0.134633
C	-1.2858999786	-0.5829642848	 0.1029399361	 0.233734
O	-2.2014866652	-0.3442899866	-0.9578713458	-0.475632
C	-1.2534373838	-2.0765210381	 0.3987485686	-0.28698
C	-2.4602088397	-2.2469514683	 1.3342795655	-0.090405
O	-2.5786773686	-0.9930969315	 2.046278132	-0.217778
C	-1.918122696	-0.0187211492	 1.3952702935	 0.440882
O	-1.8711500059	 1.1202527749	 1.7872498045	-0.376392
H	-0.6081182265	 1.855993121	 0.2956098647	 0.304566
H	 0.5030124964	-0.3356024577	-1.079829748	 0.118934
H	 0.7352839898	-0.0016063896	 0.653657749	 0.100724
H	-2.0319848024	 0.570314726	-1.2312546217	 0.293953
H	-1.3331593744	-2.6720726475	-0.511586051	 0.132651
H	-0.3272834325	-2.3392743399	 0.9200496031	 0.118856
H	-3.3879929225	-2.4128330746	 0.7796591794	 0.139673
H	-2.3387014871	-3.033583304	 2.0804363148	 0.130312
97.1994	172.1386	197.069	203.7409	270.1647	328.8131	363.0271	412.9285	509.8038	540.8421	642.4647	680.3064	698.5725	735.9778	763.9346	849.9576	928.2305	960.3969	1015.4282	1038.6436	1057.304	1080.3621	1114.576	1172.1163	1209.5824	1223.9184	1243.2648	1296.3989	1321.1366	1370.0334	1397.8173	1430.3575	1456.6536	1474.6057	1495.1043	1517.2396	1839.2256	3000.1541	3060.4372	3069.1458	3082.0523	3125.1935	3137.0758	3693.0271	3721.1997
OCC1(O)CCOC1=O	OC[C@@]1(O)CCOC1=O	
InChI=1S/C5H8O4/c6-3-5(8)1-2-9-4(5)7/h6,8H,1-3H2	InChI=1S/C5H8O4/c6-3-5(8)1-2-9-4(5)7/h6,8H,1-3H2/t5-/m0/s1
