22
gdb 95843	2.27013	1.32089	1.06716	3.869	85.39	-0.3035	0.0388	0.3424	1256.216	0.196515	-367.264392	-367.255548	-367.254603	-367.297678	34.355	
C	 0.0035337007	 1.591242316	-0.001009597	-0.405634
C	 0.0229293634	 0.0606643258	-0.0377251198	 0.039752
C	 0.7386269421	-0.4737161222	-1.2913107878	-0.182126
C	 0.7871113556	-2.0075423656	-1.3235442601	-0.214058
C	 1.4321955415	-2.5765813792	-0.0541914886	-0.20163
C	 0.7302296861	-2.0609993634	 1.2262556321	-0.157957
C	 0.6710775893	-0.5141204835	 1.2326591771	-0.20149
C	-0.6139034731	-2.6376131487	 1.3523683001	 0.279593
N	-1.6732742506	-3.0915163838	 1.446740704	-0.340119
H	 1.0213477767	 1.9976871157	 0.0369986708	 0.111932
H	-0.4842533361	 2.0006617713	-0.8915815618	 0.114888
H	-0.5362862026	 1.9620636737	 0.8766783496	 0.114716
H	-1.017360011	-0.2935995459	-0.0680623832	 0.094796
H	 0.240880791	-0.0942923261	-2.191139573	 0.095527
H	 1.7638064552	-0.075163211	-1.3130948762	 0.089201
H	-0.2310511638	-2.4053395492	-1.4204821018	 0.119755
H	 1.3414262288	-2.3520080965	-2.2031380519	 0.098129
H	 1.4244087846	-3.6706318187	-0.0687203399	 0.113595
H	 2.4820812871	-2.26280746	 0.0017397395	 0.101991
H	 1.2968944441	-2.3975486581	 2.1027231526	 0.119314
H	 1.7027733766	-0.1467602937	 1.3138753323	 0.098733
H	 0.1386127344	-0.1668416468	 2.1242584929	 0.111095
100.4353	111.8631	196.2942	231.2076	260.5455	305.255	326.4176	393.03	407.2755	435.4159	501.9946	598.5848	677.1135	758.8833	799.1334	859.4088	867.3765	883.2402	928.8554	974.4296	982.1964	994.2795	1045.7317	1075.4578	1106.5253	1117.1175	1152.7713	1162.8873	1225.3895	1258.3078	1282.6963	1304.208	1334.7268	1340.1879	1346.8012	1374.4953	1380.3091	1394.6384	1398.4141	1415.5369	1478.2721	1481.864	1491.5425	1497.966	1500.5589	1501.9568	2350.1553	2998.4244	3009.2657	3022.0197	3027.3515	3027.8599	3030.927	3043.3133	3060.1179	3074.3757	3075.7459	3086.2222	3092.167	3100.6242
CC1CCCC(C1)C#N	C[C@H]1CCC[C@@H](C1)C#N	
InChI=1S/C8H13N/c1-7-3-2-4-8(5-7)6-9/h7-8H,2-5H2,1H3	InChI=1S/C8H13N/c1-7-3-2-4-8(5-7)6-9/h7-8H,2-5H2,1H3/t7-,8-/m0/s1
