15
gdb 131444	3.26919	1.55539	1.07313	2.713	67.79	-0.2018	0.0035	0.2053	1052.615	0.115531	-453.922272	-453.915258	-453.914314	-453.953733	27.147	
O	 0.1043217124	 1.3546386476	 0.0936570238	-0.422221
C	 0.118715337	 0.0114487741	 0.079885032	 0.33147
N	 0.3092291329	-0.6674438607	-1.037051304	-0.266075
O	 0.2597270932	-2.0301408637	-0.6820211619	-0.235791
C	 0.0761631431	-2.0805721333	 0.6435740898	 0.374227
C	-0.0315747376	-0.8532264612	 1.1926752197	 0.115101
N	-0.3801612826	-0.8868370827	 2.5579793562	-0.422629
C	-0.1162223192	-2.3116257734	 2.9488364131	-0.168264
C	-0.1883370808	-3.1655891754	 1.6342027393	-0.349395
H	 0.2400134931	 1.6551124637	-0.8152853338	 0.311029
H	 0.1391709722	-0.2366947817	 3.136100775	 0.238442
H	 0.8878555	-2.4116533573	 3.3814008746	 0.111483
H	-0.843622938	-2.6388864815	 3.694948583	 0.119995
H	-1.1833093084	-3.6059056613	 1.4906150015	 0.133174
H	 0.5375015729	-3.9831764431	 1.6369733417	 0.129452
138.8895	165.4164	271.3254	271.8549	385.1571	460.6496	506.6705	591.0234	605.0826	635.5199	698.9639	719.6273	794.4109	833.0815	867.641	939.2365	955.862	1006.0901	1072.8848	1090.0922	1176.9868	1205.7847	1229.8753	1285.3653	1298.0487	1338.2088	1374.4787	1425.19	1488.2055	1513.5331	1522.8565	1592.8241	1704.0535	3015.2767	3026.2786	3086.0604	3101.496	3541.0366	3777.2379
OC1=NOC2=C1NCC2	Oc1noc2c1NCC2	
InChI=1S/C5H6N2O2/c8-5-4-3(9-7-5)1-2-6-4/h6H,1-2H2,(H,7,8)	InChI=1S/C5H6N2O2/c8-5-4-3(9-7-5)1-2-6-4/h6H,1-2H2,(H,7,8)
