18
gdb 56205	3.81086	0.86666	0.81008	1.906	68.49	-0.2422	0.0255	0.2678	1425.8569	0.146684	-476.215562	-476.20621	-476.205266	-476.25166	32.82	
N	 0.6060372741	-0.7249312545	 0.4085224825	-0.503419
C	-0.1871306352	-0.1155829804	-0.511191924	 0.359173
O	 0.202482054	 0.6747002377	-1.3467278108	-0.355767
C	-1.6754697887	-0.4734638949	-0.3993530088	-0.183446
O	-1.9542737101	-1.5802387579	 0.4442984463	-0.259663
C	-2.2347792656	-2.7897298434	-0.218732347	 0.082324
C	-1.0650333406	-3.7066206793	-0.6603686115	-0.102589
O	-1.5717401892	-4.7861807446	 0.1523903894	-0.270615
C	-2.5784880779	-3.9380382481	 0.7411838117	-0.098487
H	 1.5754592075	-0.4609239942	 0.4668231608	 0.264985
H	 0.1898496807	-1.2941026958	 1.1258738889	 0.268439
H	-2.1831670732	 0.4024490902	 0.0216963846	 0.141338
H	-2.0615112268	-0.6207735263	-1.4141859963	 0.130099
H	-2.9784985362	-2.6232802658	-1.0075088878	 0.092564
H	-1.0194893294	-3.9769335315	-1.7212431654	 0.109747
H	-0.0795916791	-3.3575060043	-0.3291828389	 0.105864
H	-2.3606730521	-3.6900855429	 1.7881467867	 0.108619
H	-3.5821555921	-4.370086924	 0.6678027496	 0.110835
38.3473	48.4627	68.654	107.6267	227.5176	299.0346	330.4346	364.5966	432.175	505.8645	535.1069	573.9128	679.5163	723.6184	860.9671	871.0292	890.0706	974.7694	1013.4301	1032.4409	1050.4361	1063.5557	1095.3026	1136.3898	1155.322	1156.1085	1193.7497	1272.3872	1292.0605	1305.0001	1346.074	1362.9184	1369.7091	1416.8038	1471.7678	1503.3778	1529.8063	1595.4499	1811.5777	3015.8128	3026.0507	3029.1197	3035.6381	3074.0841	3078.1138	3083.6694	3599.6569	3739.2294
NC(=O)COC1COC1	NC(=O)COC1COC1	
InChI=1S/C5H9NO3/c6-5(7)3-9-4-1-8-2-4/h4H,1-3H2,(H2,6,7)	InChI=1S/C5H9NO3/c6-5(7)3-9-4-1-8-2-4/h4H,1-3H2,(H2,6,7)
