17
gdb 6916	4.87133	1.06349	0.99686	4.6603	69.25	-0.2668	0.0345	0.3014	1180.6518	0.140486	-363.864858	-363.856173	-363.855229	-363.898147	31.784	
C	 0.0624278726	 1.5616894308	-0.1801839935	-0.45099
C	 0.0112779856	 0.0619159981	 0.0093534427	 0.381748
O	-1.1622428557	-0.5277007654	-0.4911582815	-0.463102
C	 1.2738572023	-0.7691930239	-0.0436517196	-0.342093
C	 0.5021158471	-0.6223427647	 1.2540296533	-0.022995
C	 1.0780328844	 0.1346554054	 2.4400028357	-0.37718
C	 1.9714541638	-0.7009342866	 3.2457788109	 0.268809
N	 2.6731459967	-1.3686173869	 3.8757248301	-0.305961
H	 0.971688647	 2.0039940047	 0.2351648333	 0.118351
H	 0.0455512826	 1.806932537	-1.2490126234	 0.115979
H	-0.8050791918	 2.0393473295	 0.2863608564	 0.131326
H	-1.1505743528	-0.4402591434	-1.4511750797	 0.282708
H	 1.2271301406	-1.7290880454	-0.5447376472	 0.122949
H	 2.2252227376	-0.253207014	-0.1319964859	 0.11563
H	-0.0927123323	-1.4863002954	 1.5318448595	 0.119853
H	 1.6435421091	 1.0129345445	 2.1117820285	 0.14803
H	 0.2750326833	 0.5043208057	 3.0890200605	 0.156939
58.0061	114.9804	205.648	208.9123	254.3772	307.0646	376.1389	389.4627	393.7181	424.0121	468.7593	561.0996	707.0823	846.7081	868.4064	897.9015	924.1787	944.7394	985.1008	1021.8487	1061.0832	1088.0494	1118.604	1152.7244	1229.3649	1260.3513	1294.8657	1319.6431	1360.6221	1414.9249	1424.5244	1461.3113	1483.865	1489.2142	1511.7722	2362.9262	3028.8984	3041.5612	3082.2644	3090.4807	3118.3737	3129.6512	3169.5965	3222.7888	3790.7348
CC1(O)CC1CC#N	C[C@@]1(O)C[C@H]1CC#N	
InChI=1S/C6H9NO/c1-6(8)4-5(6)2-3-7/h5,8H,2,4H2,1H3	InChI=1S/C6H9NO/c1-6(8)4-5(6)2-3-7/h5,8H,2,4H2,1H3/t5-,6-/m1/s1
