19
gdb 115893	2.48557	1.38277	1.05388	3.508	70.41	-0.2259	0.0654	0.2913	1169.3908	0.158638	-460.132283	-460.123463	-460.122519	-460.165641	33.584	
O	-0.0945421027	 1.4478434784	-0.0891884538	-0.42227
C	 0.029099324	 0.0368728921	 0.0184668148	-0.099184
C	-1.3729729312	-0.5492378559	 0.0458710531	-0.05566
C	-2.1870771795	-0.2551273752	-1.2336517756	-0.101022
O	-3.0908368015	-1.3506292363	-1.4171591926	-0.259398
C	-2.5434667875	-2.4694807011	-0.7801325436	 0.070143
C	-1.1148670891	-2.8767237775	-1.0988231771	-0.400591
C	-1.4466767927	-2.0704888566	 0.149221992	 0.336589
O	-1.337531544	-2.6575474008	 1.4092907966	-0.470549
H	 0.7872156123	 1.8285394866	-0.1374642539	 0.28857
H	 0.589268026	-0.3810696559	-0.8337563046	 0.085698
H	 0.5671109815	-0.24639582	 0.9382178655	 0.081447
H	-1.8971503981	-0.151775565	 0.9228021036	 0.097453
H	-2.7759198898	 0.6613544632	-1.1698538543	 0.125012
H	-1.5184791479	-0.1648445364	-2.1025496509	 0.095017
H	-3.2799598632	-3.2241872461	-0.5328632279	 0.112833
H	-0.8791934013	-3.9224752591	-0.9318676066	 0.116843
H	-0.5922501986	-2.4160451358	-1.9303141005	 0.115874
H	-0.4023745069	-2.7831939487	 1.6031069356	 0.283194
92.5917	129.5383	171.1413	238.4057	274.8286	288.9007	297.1791	344.8576	441.6873	469.068	488.8042	577.4338	690.5509	721.2773	835.4125	882.2985	917.914	943.9802	978.4807	998.2914	1014.846	1024.8056	1067.2817	1076.0073	1093.7125	1135.4183	1161.1198	1202.8483	1228.146	1253.7148	1264.408	1268.3233	1319.4819	1326.2461	1355.0779	1393.0689	1413.2926	1458.5923	1481.0886	1516.034	1526.3581	2957.5154	2985.3964	2992.5456	3049.8364	3112.2888	3130.8945	3194.4021	3222.3569	3796.8377	3829.5101
OCC1COC2CC12O	OC[C@H]1CO[C@H]2C[C@@]12O	
InChI=1S/C6H10O3/c7-2-4-3-9-5-1-6(4,5)8/h4-5,7-8H,1-3H2	InChI=1S/C6H10O3/c7-2-4-3-9-5-1-6(4,5)8/h4-5,7-8H,1-3H2/t4-,5-,6+/m0/s1
