17
gdb 75648	2.86909	1.60281	1.28584	2.6141	73.8	-0.2374	-0.0312	0.2061	1001.6348	0.13561	-421.719351	-421.711826	-421.710882	-421.751371	29.442	
O	 0.1281815915	 1.4152691894	-0.0728427699	-0.413684
C	 0.0809201134	 0.0317376329	 0.0228729857	-0.046641
C	 0.2437791623	-0.6781411458	 1.4438034794	 0.274182
O	 0.7296702334	-0.3078231584	 2.4675040248	-0.283421
C	-0.6569337382	-1.8498790554	 0.9462879548	-0.127397
C	-2.2152851372	-2.0596456507	 0.9514279706	-0.074611
C	-2.3588421368	-0.5221307266	 1.0195204844	-0.267444
C	-1.229403525	-0.7922465558	-0.0326901659	 0.230987
C	-2.1524198889	-1.9139507131	-0.6227337905	-0.308574
H	-0.2916554214	 1.7879740409	 0.7106673777	 0.293338
H	 0.8213113246	-0.3782691191	-0.6741240128	 0.122253
H	-0.0595798751	-2.6470242476	 0.4911372312	 0.095603
H	-2.7863417803	-2.8080630029	 1.5044746633	 0.084109
H	-3.2820418006	-0.0906656902	 0.6262215085	 0.099147
H	-2.0714984485	-0.051262102	 1.9634627194	 0.112483
H	-1.6537374777	-2.7170651001	-1.1702330575	 0.104976
H	-3.0751048455	-1.5968552455	-1.1156518432	 0.104694
91.1405	167.6839	190.5065	285.1626	295.2556	416.3242	514.3812	548.6843	605.7882	636.6557	696.359	778.0107	802.6861	833.4545	856.1253	914.166	949.4974	959.4659	992.5144	1013.0306	1036.9722	1089.2614	1098.3902	1120.1175	1135.6826	1142.5354	1175.8013	1196.9541	1203.73	1216.9413	1251.7619	1301.2734	1316.1963	1416.7787	1494.8922	1533.8274	1883.1205	3050.3698	3054.9762	3056.6159	3059.2872	3091.2636	3121.1732	3128.1481	3802.9645
OC1C(=O)C2C3CC12C3	O[C@H]1C(=O)[C@H]2[C@H]3C[C@@]12C3	
InChI=1S/C7H8O2/c8-5-4-3-1-7(4,2-3)6(5)9/h3-4,6,9H,1-2H2	InChI=1S/C7H8O2/c8-5-4-3-1-7(4,2-3)6(5)9/h3-4,6,9H,1-2H2/t3-,4-,6+,7-/m1/s1
