21
gdb 80851	2.55144	1.57583	1.25428	1.1148	83.94	-0.2153	0.0235	0.2389	1112.9482	0.18156	-387.067655	-387.058591	-387.057647	-387.100686	35.459	
C	-0.2060539652	 1.5056988539	 0.0352021602	-0.435762
C	 0.020087773	-0.0001666791	 0.0148965429	 0.030224
C	 1.2120390907	-0.5947773803	-0.8374377337	-0.086968
C	 2.1536738899	-0.2009201245	 0.3507477945	-0.291633
C	 0.8820209884	-0.6376852307	 1.1605341394	 0.314913
O	 0.6226769399	-0.2615601797	 2.4776111911	-0.490143
C	 0.8007431364	-2.1319807266	 0.7645919113	 0.27607
C	 0.5096955005	-3.240053593	 1.7137743296	-0.522794
C	 1.0216532408	-2.0901311646	-0.5538933122	-0.206798
H	 0.7134531458	 2.0843924841	 0.1515960525	 0.116544
H	-0.6878532704	 1.8287798499	-0.8942188402	 0.111758
H	-0.869874636	 1.7726513475	 0.8641032416	 0.12829
H	-0.931711585	-0.5145102007	-0.1489278077	 0.065132
H	 1.4064933092	-0.2699980543	-1.8581137078	 0.060859
H	 3.0599529319	-0.797653955	 0.4800973612	 0.084822
H	 2.3784706154	 0.8656496818	 0.4205440786	 0.09615
H	 1.2997846012	-0.6433665302	 3.0462158087	 0.279082
H	-0.4368524611	-3.0704153901	 2.2416063865	 0.135942
H	 0.4495570619	-4.2024358121	 1.1979409179	 0.12663
H	 1.283004142	-3.3267802779	 2.4897480261	 0.114232
H	 1.0452119708	-2.8939200484	-1.2774362906	 0.093447
141.716	158.5382	169.379	201.6784	207.246	232.2695	320.9587	386.5403	433.6026	498.6614	518.0759	573.8671	613.5971	659.4592	759.4305	788.4228	831.9329	843.6889	895.532	922.2678	945.4814	1004.1119	1030.8871	1052.9347	1066.5587	1076.3962	1094.0753	1131.0054	1155.6234	1173.7003	1225.6829	1237.61	1251.0369	1263.228	1311.1497	1338.3423	1384.6859	1409.7317	1412.3302	1476.3196	1485.1559	1488.458	1495.9835	1510.3405	1695.3065	3008.1783	3035.9407	3055.8546	3056.0994	3062.7132	3096.4278	3108.1611	3115.6114	3128.0989	3131.0227	3216.4629	3808.139
CC1C2CC1(O)C(C)=C2	C[C@H]1[C@H]2C[C@]1(O)C(=C2)C	
InChI=1S/C8H12O/c1-5-3-7-4-8(5,9)6(7)2/h3,6-7,9H,4H2,1-2H3	InChI=1S/C8H12O/c1-5-3-7-4-8(5,9)6(7)2/h3,6-7,9H,4H2,1-2H3/t6-,7+,8-/m0/s1
