13
gdb 20584	3.52854	1.92764	1.2564	4.859	66.55	-0.2574	-0.018	0.2394	892.3166	0.09769	-357.692718	-357.685539	-357.684595	-357.725006	25.153	
C	-0.0013936357	 1.5079876491	 0.0748220875	-0.514658
C	 0.0225207479	 0.0217662445	-0.04117691	 0.28673
C	-0.030385327	-0.8109239439	-1.1565756375	 0.030401
C	 0.0303941162	-2.1321330748	-0.6358994356	-0.082974
N	 0.1136150437	-2.1292028359	 0.6823841205	-0.210292
N	 0.1069258573	-0.816705596	 1.0141205668	-0.242213
C	-0.1243387681	-0.3990554822	-2.5054849862	 0.194139
N	-0.20136518	-0.052330531	-3.6085408801	-0.35239
H	 0.9079191152	 1.888139375	 0.5528226619	 0.149506
H	-0.073518257	 1.9542119166	-0.9186421178	 0.171397
H	-0.8584029318	 1.8510574621	 0.6644557842	 0.149502
H	 0.0153108984	-3.0612679607	-1.1846656727	 0.13886
H	 0.1630569209	-0.5645552727	 1.9875239089	 0.281992
42.0417	138.341	173.5891	254.757	327.4905	528.002	536.3628	561.439	598.6172	678.4114	701.7821	705.718	895.8145	948.2277	1007.8352	1061.86	1125.5265	1166.5443	1233.8144	1323.0229	1369.4433	1418.9424	1448.1368	1482.774	1482.9668	1520.7336	1609.8115	2344.4572	3038.2488	3093.1852	3139.4626	3262.2371	3661.252
CC1=C(C=NN1)C#N	Cc1c(cn[nH]1)C#N	
InChI=1S/C5H5N3/c1-4-5(2-6)3-7-8-4/h3H,1H3,(H,7,8)	InChI=1S/C5H5N3/c1-4-5(2-6)3-7-8-4/h3H,1H3,(H,7,8)
