23
gdb 108505	2.4848	1.48857	1.14267	1.657	84.41	-0.2398	0.0773	0.3171	1196.1747	0.207192	-388.298791	-388.290003	-388.289059	-388.332301	34.194	
C	 0.080351215	 1.4901973717	-0.1023772422	-0.386947
C	-0.0467441796	-0.0009254618	 0.2272504042	-0.241471
C	-1.4610802336	-0.5365706567	 0.0425026362	 0.47449
C	-2.4977452588	-0.0369566997	 1.0739989923	-0.272915
C	-2.8759175242	-1.2959037142	 1.8803347292	-0.198093
C	-2.8401368502	-2.4348434297	 0.8412008047	-0.233783
C	-1.6457007255	-2.0794313519	-0.0638707927	-0.112117
C	-1.9296576561	-1.7980498385	-1.550744967	-0.094586
O	-1.9034183077	-0.3719350895	-1.3420158333	-0.335397
H	 1.1196062625	 1.8219940842	-0.0201025643	 0.108656
H	-0.2618107176	 1.6793724026	-1.1234203655	 0.137699
H	-0.5198346583	 2.1079390974	 0.5735809773	 0.115102
H	 0.630918932	-0.5737633489	-0.417861532	 0.092504
H	 0.2673801579	-0.1945677672	 1.2619894097	 0.090988
H	-2.1207375026	 0.7696845611	 1.7087394627	 0.092843
H	-3.3647073614	 0.3471202917	 0.5275987076	 0.111716
H	-2.1223894458	-1.4790754219	 2.6568493469	 0.097855
H	-3.8413625179	-1.2068828337	 2.3868251759	 0.096902
H	-2.7510387995	-3.4244645062	 1.297717761	 0.096512
H	-3.7693536264	-2.4312347482	 0.2589109955	 0.100664
H	-0.7608917768	-2.6849164989	 0.1442212482	 0.06951
H	-1.1421373253	-2.1205428699	-2.2443478699	 0.094666
H	-2.8991996399	-2.143554312	-1.9316971249	 0.095204
68.8569	116.3193	180.134	187.2122	222.3729	315.3558	355.2124	400.8644	434.0884	542.6551	608.5573	670.9937	781.363	795.9428	830.7066	868.147	884.9629	923.9265	946.6087	961.7123	990.0409	996.6385	1015.9618	1033.0583	1040.0544	1083.1063	1116.8019	1141.0826	1170.9209	1189.96	1201.2232	1209.8275	1248.0233	1278.9572	1297.3665	1321.8693	1325.7972	1344.0813	1350.9084	1362.1845	1373.9597	1406.8417	1474.6852	1484.9465	1491.6934	1498.6121	1505.2118	1510.337	1523.405	3003.3905	3014.5227	3027.1812	3036.0672	3040.6552	3044.532	3051.7777	3054.3144	3076.4295	3086.8038	3095.7723	3103.2288	3106.3059	3122.2265
CCC12CCCC1CO2	CC[C@]12CCC[C@H]1CO2	
InChI=1S/C8H14O/c1-2-8-5-3-4-7(8)6-9-8/h7H,2-6H2,1H3	InChI=1S/C8H14O/c1-2-8-5-3-4-7(8)6-9-8/h7H,2-6H2,1H3/t7-,8-/m0/s1
