19
gdb 91304	2.43829	1.54123	1.09551	4.7183	80.6	-0.2214	0.0302	0.2516	1142.8382	0.160032	-382.043966	-382.035574	-382.034629	-382.077216	31.443	
C	 0.0286182919	 1.5404495366	 0.0917571498	-0.329268
N	 0.0654199872	 0.1000013443	 0.1819984254	-0.055525
C	-1.1897611065	-0.6655673426	 0.3183938246	-0.175696
C	-0.4692553908	-1.6228191155	 1.2881462571	-0.051749
C	 0.5434433898	-2.6060441025	 0.6299390699	-0.251692
C	 1.7227175635	-1.6302735664	 0.9812145312	-0.145694
C	 2.6924508903	-1.3008126269	-0.0482503416	 0.281641
N	 3.4659883335	-1.0340955091	-0.8653488483	-0.335827
C	 0.6614092986	-0.5505666182	 1.3568876208	-0.001293
H	 1.0489573845	 1.9349803388	 0.0633533254	 0.135822
H	-0.4673833214	 1.8365121135	-0.8383672059	 0.127628
H	-0.5082363757	 2.0202866157	 0.9320141917	 0.090161
H	-1.9914150718	-0.1001788009	 0.8216723855	 0.088791
H	-1.5831270725	-1.078878039	-0.6183512311	 0.104951
H	-1.010456401	-1.9854790447	 2.1592609267	 0.083352
H	 0.6276324377	-3.5876859182	 1.0984882369	 0.115786
H	 0.3924395726	-2.7366800617	-0.442804629	 0.129864
H	 2.2519120113	-1.9738932016	 1.8757192361	 0.118294
H	 0.8659469989	 0.0936411484	 2.2183764449	 0.070454
84.2938	91.3535	190.6258	202.0963	272.2486	290.622	355.5477	382.7153	513.8311	554.9025	679.8146	695.116	777.7706	834.2644	843.714	909.7759	944.5989	987.7606	1008.7118	1019.9225	1055.545	1078.4981	1111.4389	1153.0897	1157.9977	1173.9088	1198.6492	1223.3719	1242.1872	1260.2069	1270.6317	1299.4101	1320.7388	1339.7326	1355.2519	1453.8733	1479.1861	1487.0173	1500.0568	1518.0016	2353.8306	2926.7209	2965.6223	3043.8982	3048.7545	3062.8219	3064.6351	3080.8039	3106.6359	3130.7513	3143.0778
CN1CC2CC(C#N)C12	CN1C[C@H]2C[C@@H](C#N)[C@@H]12	
InChI=1S/C7H10N2/c1-9-4-6-2-5(3-8)7(6)9/h5-7H,2,4H2,1H3	InChI=1S/C7H10N2/c1-9-4-6-2-5(3-8)7(6)9/h5-7H,2,4H2,1H3/t5-,6+,7+/m0/s1
