20
gdb 101532	2.44925	0.93176	0.83499	3.6166	84.41	-0.2548	-0.0228	0.232	1510.4342	0.167986	-403.153917	-403.143147	-403.142203	-403.191146	38.249	
C	-0.2083707652	 1.5648168686	-0.0276576156	-0.383824
C	-0.0681170066	 0.042076382	 0.0203804161	-0.17313
C	-1.4091663503	-0.7100575272	 0.0473380509	 0.035681
C	-1.2187975646	-2.2286282549	-0.0524695819	-0.395064
N	-2.1727346833	-0.3653414637	 1.2447377221	-0.315727
C	-3.453364346	 0.1024002806	 1.2119864837	 0.298457
O	-4.0861094763	 0.3160121854	 0.193043325	-0.365152
C	-4.0138577286	 0.3368283549	 2.5398242435	 0.20129
C	-4.5044262673	 0.5368048938	 3.6192100265	-0.400625
H	 0.7728528582	 2.0484546549	-0.0440135326	 0.113421
H	-0.7545442274	 1.8819964768	-0.9221641614	 0.126338
H	-0.754292011	 1.9410425786	 0.8426256436	 0.122203
H	 0.4950911394	-0.3071443107	-0.8532181083	 0.102994
H	 0.5241990027	-0.2543053782	 0.8982054967	 0.088152
H	-2.0302166337	-0.3709260592	-0.7866962884	 0.126161
H	-2.1844857457	-2.741019092	-0.051880616	 0.130376
H	-0.6900955294	-2.4900896816	-0.9742674699	 0.120941
H	-0.6292267802	-2.6084113904	 0.7904304418	 0.109466
H	-1.7601744102	-0.5385524841	 2.1489387256	 0.249892
H	-4.9518581348	 0.7186610363	 4.5658502684	 0.208149
21.2218	53.4022	113.4124	124.8378	203.3715	225.7913	232.1796	255.1106	288.7702	364.3358	428.2453	478.2151	505.9714	518.7913	601.1188	655.6745	673.807	763.1778	785.2743	834.2787	912.189	955.4718	986.6075	1013.556	1044.675	1127.3533	1175.0925	1183.913	1233.2302	1297.2692	1331.8963	1373.2042	1386.8188	1409.6109	1414.5979	1480.3635	1491.1462	1496.2323	1498.5598	1507.7401	1532.7976	1755.2483	2225.6168	3006.7531	3030.6736	3039.6126	3055.337	3082.6281	3103.8129	3108.0888	3113.1895	3120.5017	3496.3141	3620.3195
CCC(C)NC(=O)C#C	CC[C@@H](C)NC(=O)C#C	
InChI=1S/C7H11NO/c1-4-6(3)8-7(9)5-2/h2,6H,4H2,1,3H3,(H,8,9)	InChI=1S/C7H11NO/c1-4-6(3)8-7(9)5-2/h2,6H,4H2,1,3H3,(H,8,9)/t6-/m1/s1
