21
gdb 63948	2.7273	1.62441	1.46623	1.7737	76.2	-0.2496	0.0819	0.3314	1018.719	0.184187	-424.242204	-424.234303	-424.233359	-424.274047	32.241	
C	-0.1351846091	 1.578577776	-0.0343359439	-0.461961
C	 0.0036944595	 0.0526951728	-0.0221578531	 0.343472
C	-1.3865096718	-0.5951433828	 0.0814367739	-0.443586
C	 0.7907840254	-0.5135081953	-1.2582802263	-0.293112
C	 1.9010324014	-1.3099659079	-0.5516741888	 0.193938
O	 2.8832541661	-0.3954007246	-0.0616896981	-0.277091
C	 2.2961227135	 0.1421932725	 1.1354719324	-0.099391
C	 0.9037183501	-0.511137172	 1.1210006496	 0.000212
O	 1.261734198	-1.8095999997	 0.6087965449	-0.254316
H	 0.8140113285	 2.082580905	-0.234152391	 0.123236
H	-0.838275199	 1.8878392812	-0.8148869433	 0.118504
H	-0.5249707797	 1.9509919246	 0.9203940318	 0.111797
H	-1.9891601763	-0.3606741296	-0.8026939528	 0.11123
H	-1.3010954772	-1.6822694696	 0.1584180007	 0.130462
H	-1.9290551113	-0.2290230053	 0.9608024446	 0.106933
H	 0.1636141636	-1.1653028949	-1.8733065716	 0.099888
H	 1.2123660683	 0.2680265827	-1.8939023512	 0.106801
H	 2.390535107	-2.1094127009	-1.1074573669	 0.090159
H	 2.8754595593	-0.1783460621	 2.0095003283	 0.104963
H	 2.2864336304	 1.2345547814	 1.0961343944	 0.105451
H	 0.4186493335	-0.6080386516	 2.0923927765	 0.082409
116.8592	220.5648	262.8477	277.2283	297.9081	361.9672	379.8555	426.5863	454.6807	565.7231	628.8842	701.6286	799.6802	816.5032	858.2021	885.0885	936.8445	953.1644	960.1006	971.653	975.0669	994.8522	1022.6875	1030.6806	1056.7644	1090.4666	1128.6138	1190.5201	1217.0108	1222.7405	1255.7449	1272.0992	1287.4338	1315.9369	1328.8124	1349.1989	1378.1791	1401.2028	1423.0509	1484.7273	1489.6813	1491.3239	1503.5232	1512.4065	1529.5968	3025.3233	3029.7027	3032.3587	3058.9484	3087.8088	3091.6631	3092.9005	3111.4105	3116.4917	3118.0597	3123.376	3132.2248
CC1(C)CC2OCC1O2	CC1(C)C[C@H]2OC[C@@H]1O2	
InChI=1S/C7H12O2/c1-7(2)3-6-8-4-5(7)9-6/h5-6H,3-4H2,1-2H3	InChI=1S/C7H12O2/c1-7(2)3-6-8-4-5(7)9-6/h5-6H,3-4H2,1-2H3/t5-,6-/m0/s1
