14
gdb 47189	2.34687	1.92663	1.14725	4.0887	67.02	-0.2801	-0.066	0.214	1003.7381	0.101726	-473.860744	-473.853359	-473.852414	-473.893383	27.151	
N	 0.0733511154	 1.0859282711	 0.8522983169	-0.475681
C	-0.0361647961	 0.1836681474	-0.0251009257	 0.343184
O	 0.8910437226	 0.0842933071	-1.0688563164	-0.280212
C	 1.5261318395	-1.1124416207	-1.3639843835	 0.465455
O	 2.6866549186	-1.2721454698	-1.1622041625	-0.329769
O	 0.7608583971	-2.0353348428	-1.9547820797	-0.228903
C	-0.6095990778	-1.7280537613	-2.2753766269	-0.132469
C	-1.4709498283	-1.5571356342	-1.053620661	-0.106719
C	-1.1830920418	-0.7254394374	-0.0504197088	-0.051607
H	 0.922143918	 1.6335835674	 0.7021270706	 0.244226
H	-0.6394807286	-0.8369485046	-2.9122386126	 0.147416
H	-0.9388682658	-2.5834061009	-2.8658695924	 0.141354
H	-2.3732537132	-2.1582720707	-1.0023892715	 0.126776
H	-1.8286789396	-0.6415719604	 0.8158794434	 0.136947
56.7924	97.955	237.1054	302.2591	323.6154	416.24	466.7742	545.7661	626.8017	691.4874	698.6297	759.2349	836.7084	847.425	914.7277	933.2981	945.5602	1017.9905	1027.8839	1081.2561	1098.0145	1166.8072	1220.576	1283.048	1337.5029	1404.2862	1422.546	1491.668	1696.3927	1740.599	1898.9752	3049.1793	3131.0497	3182.0872	3214.5367	3487.6037
N=C1OC(=O)OCC=C1	[NH]C1=C[CH]COC(=O)O1	
InChI=1S/C5H5NO3/c6-4-2-1-3-8-5(7)9-4/h1-2,6H,3H2	InChI=1S/C5H5NO3/c6-4-2-1-3-8-5(7)9-4/h1-2,6H,3H2
