15
gdb 45072	2.56402	1.68287	1.15047	3.1893	70.5	-0.2483	-0.0285	0.2198	1033.5018	0.111123	-420.596446	-420.588686	-420.587742	-420.62914	29.314	
O	-0.026433584	-0.0010212083	-0.226058281	-0.285227
C	-0.0491629808	 1.1669557136	 0.0316141291	 0.393049
C	-1.3021110055	 1.998355067	 0.3472954083	-0.353117
C	-0.7666404636	 3.2813633759	 0.9331925113	 0.035085
O	 0.0992350754	 3.0527468339	 2.05369271	-0.247027
C	 0.6972948675	 3.3413361905	 0.7905210153	 0.037652
C	 1.2044247175	 2.103405179	 0.066694904	-0.337371
C	 2.3852039797	 1.4850490075	 0.6407925602	 0.349436
C	 3.3625958071	 0.9815002494	 1.1233748256	-0.437932
H	-1.8612917313	 2.1750850681	-0.5803763327	 0.135951
H	-1.9557509898	 1.4457010356	 1.0274394742	 0.152172
H	-1.3817017175	 4.1750350844	 0.9875559055	 0.108737
H	 1.2529099361	 4.2724065207	 0.7276073369	 0.113329
H	 1.4052044198	 2.3731390051	-0.9828547548	 0.133576
H	 4.2222417593	 0.5291160675	 1.5522743081	 0.201688
60.5848	127.7614	152.2512	319.0111	363.5415	386.9477	469.3236	498.9427	577.186	631.0494	643.3963	663.0354	694.1084	755.534	836.5297	869.0624	900.848	955.0054	1005.4254	1054.6236	1057.5808	1093.1394	1120.9817	1179.8786	1222.8892	1259.01	1284.8588	1301.61	1346.7465	1430.2235	1442.9928	1869.2711	2246.3553	2986.9377	3042.6561	3104.7501	3153.5938	3165.3137	3504.4409
O=C1CC2OC2C1C#C	O=C1C[C@H]2O[C@H]2[C@H]1C#C	
InChI=1S/C7H6O2/c1-2-4-5(8)3-6-7(4)9-6/h1,4,6-7H,3H2	InChI=1S/C7H6O2/c1-2-4-5(8)3-6-7(4)9-6/h1,4,6-7H,3H2/t4-,6+,7-/m0/s1
