17
gdb 53215	3.18582	0.93699	0.84237	2.2875	79.75	-0.2433	0.0169	0.2602	1428.8694	0.135005	-417.972417	-417.962727	-417.961783	-418.008696	33.633	
C	 0.1457880453	 1.5501379289	-0.200712748	-0.49999
C	 0.084636083	 0.1032250468	-0.0648507631	 0.056823
C	 0.0426764357	-1.0953250165	 0.0462114305	 0.138792
C	-0.0239775579	-2.5335662256	 0.1690224457	-0.102248
O	 0.0370765993	-2.9914896511	 1.5727406245	-0.254612
C	-1.2488290764	-3.4884450397	 1.5237378454	 0.409887
N	-1.9751752929	-3.9731009722	 2.4227494496	-0.548971
C	-1.4365776454	-3.1995848183	 0.0364661949	-0.105123
N	-2.5173989776	-2.3848913211	-0.4549873524	-0.511797
H	 1.1506521165	 1.8808457783	-0.4840797899	 0.155559
H	-0.5521649012	 1.9025990574	-0.9677680905	 0.157413
H	-0.116168585	 2.0445314385	 0.7409004257	 0.156724
H	 0.76638564	-3.0238066368	-0.4056394473	 0.117197
H	-1.5008741041	-3.9833426993	 3.3276276522	 0.228582
H	-1.3860577693	-4.1197218818	-0.552856696	 0.118012
H	-3.3890195259	-2.9019105001	-0.3950656204	 0.245307
H	-2.6219137243	-1.5555814174	 0.121950609	 0.238446
25.3406	57.0547	87.7483	151.2907	209.9251	226.9964	266.4833	327.6159	371.7263	439.8006	473.1561	589.4829	655.4255	737.5947	784.7433	853.2311	867.3007	885.8385	923.75	968.478	1019.0391	1051.0988	1052.8346	1134.5251	1180.3591	1210.2903	1230.3319	1252.4533	1303.5351	1364.6003	1412.5792	1423.1352	1474.4342	1476.5706	1655.9177	1822.642	2369.1093	3031.3699	3068.6655	3080.133	3095.0168	3095.3276	3471.3253	3500.6667	3581.3435
CC#CC1OC(=N)C1N	CC#C[C@H]1O[C]([NH])[C@H]1N	
InChI=1S/C6H8N2O/c1-2-3-4-5(7)6(8)9-4/h4-5,8H,7H2,1H3	InChI=1S/C6H8N2O/c1-2-3-4-5(7)6(8)9-4/h4-5,8H,7H2,1H3/t4-,5+/m1/s1
