17
gdb 64839	2.9108	1.18692	1.11631	3.0738	75.52	-0.2477	-0.0541	0.1936	1154.9665	0.13428	-421.872624	-421.863981	-421.863036	-421.906641	31.585	
C	 0.0507808445	 1.6450526883	-0.1821063056	-0.445131
C	-0.0061601828	 0.1010958622	-0.1244909589	 0.138893
C	 0.8214705275	-0.5603345254	-1.2585182638	-0.404043
C	 1.9357738169	-1.3504850998	-0.5439130859	 0.385932
O	 2.8236001246	-1.9583017547	-1.0910172277	-0.32097
C	 1.6961813691	-1.2139956655	 0.9109672378	-0.201754
C	 0.6334185344	-0.4372220307	 1.1385748587	-0.053151
C	-1.4741628266	-0.3011556851	-0.2198663851	 0.132441
O	-2.0939200384	-0.8725663366	 0.6376770583	-0.24578
H	 1.0909234361	 1.9818880366	-0.2106015264	 0.136852
H	-0.4536951817	 2.0195588484	-1.0791609577	 0.13004
H	-0.4320156437	 2.0920410367	 0.6925502249	 0.133544
H	 0.2338808123	-1.2567177761	-1.8670298314	 0.138837
H	 1.2616413336	 0.1668267681	-1.946069264	 0.135274
H	 2.3224485797	-1.697070962	 1.6498509272	 0.123911
H	 0.2302949207	-0.1843321345	 2.1123979594	 0.131286
H	-1.9553246662	-0.0041257399	-1.1812189498	 0.083819
45.9285	75.7637	171.8487	243.3771	265.5983	303.1528	319.4382	380.5682	460.7502	514.3074	588.7727	677.6451	696.5919	807.2	829.2622	837.5139	887.7404	943.5939	965.6946	997.9786	1007.9063	1086.9714	1096.276	1159.2097	1186.6863	1234.256	1236.6187	1279.3039	1360.6567	1400.4832	1425.4549	1456.8725	1492.674	1497.2363	1654.5575	1820.9111	1829.0591	2860.5611	3033.6201	3053.0765	3101.3804	3106.6424	3115.7875	3202.8761	3230.3575
CC1(CC(=O)C=C1)C=O	C[C@]1(CC(=O)C=C1)C=O	
InChI=1S/C7H8O2/c1-7(5-8)3-2-6(9)4-7/h2-3,5H,4H2,1H3	InChI=1S/C7H8O2/c1-7(5-8)3-2-6(9)4-7/h2-3,5H,4H2,1H3/t7-/m0/s1
