16
gdb 24052	6.95405	0.73376	0.69182	1.3549	77.39	-0.2416	-0.0014	0.2402	1559.8773	0.124353	-400.749321	-400.740994	-400.74005	-400.783401	29.971	
C	-0.0149844429	-1.2107379799	-0.1533235623	-0.436611
C	-0.0384799172	-0.0093260289	-0.1298534161	 0.294938
C	-0.0263620527	 1.4466300401	-0.0930385991	-0.350302
C	 1.3937616968	 2.0188396113	 0.1579732913	-0.317931
C	 1.4196809067	 3.5035908831	 0.1923218163	 0.344063
C	 1.6966469859	 4.4422291977	 1.1310440817	-0.19905
N	 1.5457303587	 5.7131610139	 0.5858015933	-0.254186
C	 1.1880383882	 5.4866637523	-0.6335083144	 0.07175
O	 1.08605733	 4.1764612329	-0.9599133546	-0.181339
H	-0.0108565055	-2.2722335046	-0.1782682481	 0.197814
H	-0.4098064709	 1.8475540408	-1.0383523037	 0.146767
H	-0.7021545127	 1.8069301059	 0.6919439173	 0.139013
H	 1.7746385298	 1.6442154803	 1.1119371099	 0.133747
H	 2.0657930543	 1.6451089092	-0.6229726095	 0.135044
H	 1.9973400673	 4.2972376361	 2.1566450914	 0.125688
H	 0.9649866243	 6.1986866499	-1.4125268634	 0.150596
58.8291	68.9275	95.1109	182.844	304.4481	353.822	371.4434	474.4671	622.4625	648.1543	662.5297	672.7077	750.7502	767.5779	835.9746	859.3427	940.5601	960.261	973.0578	1012.4087	1029.5689	1123.4836	1133.0639	1173.0789	1236.8659	1259.0926	1288.4881	1308.13	1359.9541	1369.4073	1472.2364	1484.0738	1551.7173	1639.698	2240.3736	3032.409	3047.2874	3067.4693	3105.7281	3263.7837	3276.2094	3506.8086
C#CCCC1=CN=CO1	C#CCCc1cnco1	
InChI=1S/C7H7NO/c1-2-3-4-7-5-8-6-9-7/h1,5-6H,3-4H2	InChI=1S/C7H7NO/c1-2-3-4-7-5-8-6-9-7/h1,5-6H,3-4H2
