16
gdb 61719	3.91278	0.88384	0.77333	0.6802	76.06	-0.2349	-0.0139	0.221	1430.2144	0.123581	-434.068302	-434.059049	-434.058105	-434.102748	33.565	
N	-0.5823401508	-0.1232078247	-1.2069859845	-0.566666
C	-0.6792609734	-0.7000116577	 0.0245112036	 0.476527
N	 0.4832332767	-1.3594316211	 0.4829129891	-0.342046
C	 1.6335651561	-1.6420555961	-0.1916251318	 0.176869
O	 1.8894447299	-1.3361693013	-1.3406670256	-0.327279
N	-1.6559840257	-0.6916682558	 0.8533264813	-0.338828
C	-2.8533161168	 0.054127753	 0.4845531389	-0.309639
C	-3.5570367677	-0.4415212542	-0.7059642604	 0.299764
C	-4.0991238865	-0.8475524047	-1.7006297743	-0.464354
H	 0.2294149565	-0.3825884376	-1.7559885296	 0.283142
H	-1.4523820918	 0.0201009242	-1.697297176	 0.267403
H	 0.3843007805	-1.6911124387	 1.4316041165	 0.269324
H	 2.3447105814	-2.2007291638	 0.4431469229	 0.102339
H	-3.5419048629	 0.0169140281	 1.3355617837	 0.140067
H	-2.6180144094	 1.1199400513	 0.3255067633	 0.131591
H	-4.6006232261	-1.2168962212	-2.5610244771	 0.201787
69.4709	79.5172	122.1509	198.0616	244.3947	301.7933	319.9171	335.4825	378.6278	494.7015	515.1028	624.8634	639.0212	647.0697	661.4277	681.8784	734.7384	807.0077	918.0818	927.9328	1009.3982	1022.3005	1029.2623	1171.7301	1196.8346	1269.2022	1352.4441	1404.0093	1446.9745	1474.1915	1499.2176	1637.734	1739.6687	1791.2005	2222.7364	2966.404	2975.5959	3056.9412	3502.0198	3505.299	3621.4271	3649.8047
NC(NC=O)=NCC#C	NC(=NCC#C)NC=O	
InChI=1S/C5H7N3O/c1-2-3-7-5(6)8-4-9/h1,4H,3H2,(H3,6,7,8,9)	InChI=1S/C5H7N3O/c1-2-3-7-5(6)8-4-9/h1,4H,3H2,(H3,6,7,8,9)
