19
gdb 55397	3.20669	1.26762	0.96644	3.4426	78.32	-0.2293	0.0191	0.2484	1217.5687	0.162012	-419.259129	-419.250732	-419.249787	-419.292472	32.112	
N	-0.0078384718	 1.3963798745	-0.1941172427	-0.571413
C	 0.0718334447	 0.0054203351	-0.1111510306	 0.448497
O	 1.1466555641	-0.5710021815	-0.1542004188	-0.410597
N	-1.1273009317	-0.6444661425	 0.0766258182	-0.115767
C	-1.1517719223	-2.1017817305	 0.0359884706	-0.174354
C	-1.8329862094	-2.6733962154	 1.2822591207	-0.251812
C	-3.1281238436	-1.954460699	 1.5477455726	-0.055371
C	-3.3847462048	-0.7502430701	 1.0437362842	-0.054285
C	-2.4011402862	 0.0400969202	 0.2221011865	-0.221371
H	 0.8768276028	 1.7842490607	-0.4869730071	 0.25803
H	-0.7984347229	 1.7979709896	-0.675263632	 0.250061
H	-1.7009667847	-2.4348743901	-0.8572870681	 0.097676
H	-0.1182883064	-2.4332176182	-0.052287454	 0.150024
H	-2.0148964739	-3.7454762095	 1.1392040135	 0.10488
H	-1.1649731035	-2.5886499184	 2.1502901887	 0.123507
H	-3.8707218808	-2.4514548354	 2.1662333455	 0.091203
H	-4.3364550939	-0.2584970014	 1.2247007986	 0.092642
H	-2.2272973815	 1.0001189824	 0.7220320133	 0.135701
H	-2.8544890842	 0.2756250394	-0.7595150992	 0.10275
56.2418	109.9275	176.188	237.1006	304.4296	380.9147	399.6018	423.4617	499.4129	539.9618	583.5508	603.9506	679.4641	730.3487	780.0468	788.406	890.7406	947.9399	987.2279	998.4229	1017.9455	1032.8148	1062.9115	1091.9313	1142.7658	1171.7224	1227.4319	1253.8656	1284.1165	1323.1618	1361.0029	1373.5142	1407.0858	1419.9262	1458.9285	1473.1192	1492.0293	1500.6433	1624.6046	1732.9483	1779.1028	2918.4692	2991.2839	3018.003	3047.7991	3055.4186	3148.7755	3154.3168	3177.5565	3572.6753	3681.9399
NC(=O)N1CCC=CC1	NC(=O)N1CCC=CC1	
InChI=1S/C6H10N2O/c7-6(9)8-4-2-1-3-5-8/h1-2H,3-5H2,(H2,7,9)	InChI=1S/C6H10N2O/c7-6(9)8-4-2-1-3-5-8/h1-2H,3-5H2,(H2,7,9)
