15
gdb 27319	3.34353	1.40345	0.99563	4.4596	72.63	-0.2186	-0.0363	0.1823	1132.2611	0.113045	-454.005091	-453.996927	-453.995983	-454.038007	30.313	
C	-0.0201120447	 1.4822211196	 0.0581219803	-0.470144
C	-0.0098028925	-0.010937516	-0.0349300865	 0.402091
N	-0.1185574759	-0.6357436754	-1.1512153531	-0.351886
C	-0.1022146279	-2.0307275777	-1.1691771351	 0.367678
O	-0.1596506451	-2.6741654449	-2.2016321403	-0.367653
C	 0.0038290258	-2.7181826437	 0.1402492921	 0.139136
N	-0.0678218564	-4.091172525	 0.0907464306	-0.581948
C	 0.1299927889	-1.9560835142	 1.245006737	-0.054212
O	 0.1274966001	-0.5870997105	 1.1743710899	-0.19659
H	 0.9017168369	 1.8411513977	 0.5265514673	 0.149984
H	-0.1148457374	 1.9038777194	-0.9410558646	 0.162407
H	-0.8547488264	 1.8182745204	 0.681678597	 0.15103
H	 0.0788247438	-4.4342155788	-0.8506078895	 0.270019
H	 0.3980694272	-4.6155688716	 0.814327277	 0.250627
H	 0.2368887233	-2.3049609793	 2.2629607779	 0.129459
78.3218	100.1277	193.8391	296.8372	329.7787	332.3179	381.989	427.0391	485.1547	543.5436	575.7267	605.8959	634.2814	740.5552	791.8096	816.6937	824.2667	917.9833	1044.6138	1062.5451	1101.3654	1184.8153	1212.4685	1282.8988	1365.8272	1407.2259	1429.2711	1469.6725	1476.1931	1607.1075	1652.5528	1705.0657	1765.9294	3050.2873	3108.2722	3174.7287	3226.8355	3545.1259	3671.8548
CC1=NC(=O)C(N)=CO1	Cc1nc(=O)c(N)co1	
InChI=1S/C5H6N2O2/c1-3-7-5(8)4(6)2-9-3/h2H,6H2,1H3	InChI=1S/C5H6N2O2/c1-3-7-5(8)4(6)2-9-3/h2H,6H2,1H3
