19
gdb 57865	2.54858	1.0251	0.93362	4.4473	73.94	-0.2548	-0.0551	0.1997	1366.4023	0.154867	-460.187696	-460.177225	-460.176281	-460.224122	36.665	
C	 0.5763402338	 1.6497867206	-0.3930818188	-0.39088
C	 0.0651432994	 0.3044809489	 0.1364219527	-0.072856
C	 0.1542468454	-0.8012674461	-0.9393045628	-0.391912
C	 0.8662329691	-0.1499791271	 1.3448124434	 0.361515
O	 2.0603203382	 0.0231876372	 1.4494278328	-0.330337
C	 0.1510435923	-0.9036725821	 2.4854905389	-0.047194
O	 1.0695580827	-1.480554484	 3.3456212748	-0.407661
C	-0.7977033378	 0.0712048183	 3.2129033494	 0.131169
O	-0.5953316151	 0.4944888453	 4.314823522	-0.21539
H	 1.6371952459	 1.5793860248	-0.644642572	 0.14459
H	 0.0212533908	 1.9398477247	-1.2897305599	 0.118174
H	 0.4605610278	 2.4424445694	 0.3518663956	 0.126061
H	-0.9865375163	 0.3979762016	 0.4353851764	 0.085888
H	 1.190793666	-0.9319213461	-1.2637071347	 0.142635
H	-0.2117436494	-1.7642372235	-0.5698985235	 0.125652
H	-0.447229106	-0.5226540205	-1.8090477945	 0.129364
H	-0.496829144	-1.6712663171	 2.0271688891	 0.110167
H	 1.9214588086	-1.0657361151	 3.1326519866	 0.3003
H	-1.7070818311	 0.3483746208	 2.6314216045	 0.080713
38.4693	63.6216	84.1588	181.9835	204.3139	222.4466	246.413	279.7543	294.636	339.524	361.5894	420.8786	443.3959	620.2557	685.6748	765.1711	777.7717	872.4595	890.2632	934.0638	972.2113	999.7094	1037.5259	1110.3809	1124.1399	1173.0672	1197.9097	1215.5144	1322.3201	1331.7089	1377.1547	1396.7859	1410.0606	1418.6713	1424.9038	1486.5217	1489.3788	1501.3898	1512.2446	1791.5289	1851.9401	2859.1588	2967.3828	3028.8171	3040.026	3046.9859	3111.8661	3115.8031	3121.4754	3133.0783	3682.3187
CC(C)C(=O)C(O)C=O	CC(C)C(=O)[C@@H](O)C=O	
InChI=1S/C6H10O3/c1-4(2)6(9)5(8)3-7/h3-5,8H,1-2H3	InChI=1S/C6H10O3/c1-4(2)6(9)5(8)3-7/h3-5,8H,1-2H3/t5-/m0/s1
