16
gdb 99470	2.01339	1.31993	0.95669	1.7954	73.8	-0.2439	-0.0945	0.1494	1260.8631	0.120362	-437.844227	-437.83414	-437.833196	-437.880245	34.44	
C	-0.5895819782	-1.5706125415	 0.2550718514	-0.322983
N	 0.422401814	-0.5403740518	 0.0326058748	-0.288186
C	 0.822474173	-0.3721911098	-1.3703689242	-0.282573
C	-0.1436526931	 0.3170097681	-2.2219593641	 0.344885
C	-0.9630710173	 0.8936716544	-2.8857874595	-0.434472
C	 2.166961031	 0.354538185	-1.2434112622	 0.299975
O	 2.328664275	 1.5459258243	-1.311729593	-0.272844
C	 3.3723410686	-0.5463584628	-0.9379410687	 0.09902
O	 3.3693816253	-1.7383806342	-1.0919178095	-0.221296
H	-1.5081609323	-1.4204771279	-0.3327282868	 0.118891
H	-0.1707869519	-2.5486010053	-0.0024176353	 0.137712
H	-0.851868016	-1.5868563566	 1.3161760032	 0.12894
H	 0.0990374401	 0.3560079413	 0.3823986874	 0.235828
H	 1.0374128214	-1.3724460151	-1.7636662952	 0.140187
H	-1.6795911378	 1.4023432631	-3.4826224878	 0.203473
H	 4.2650525884	 0.0292249087	-0.6157331805	 0.113444
39.8369	86.1548	122.377	128.4638	161.8207	176.0153	227.7817	268.3703	346.1718	383.7937	530.438	541.2228	590.1999	635.0917	637.2972	664.0384	753.2355	885.8777	976.1212	983.8593	1032.7976	1129.1647	1141.734	1153.9663	1178.5913	1330.2221	1342.5752	1365.9413	1454.5837	1486.2426	1492.308	1515.9177	1818.8579	1824.5104	2233.017	2929.035	2988.2012	3056.643	3076.9881	3117.4722	3501.7409	3523.996
CNC(C#C)C(=O)C=O	CN[C@@H](C#C)C(=O)C=O	
InChI=1S/C6H7NO2/c1-3-5(7-2)6(9)4-8/h1,4-5,7H,2H3	InChI=1S/C6H7NO2/c1-3-5(7-2)6(9)4-8/h1,4-5,7H,2H3/t5-/m0/s1
