15
gdb 124804	3.99689	1.08074	0.87629	5.0503	63.08	-0.2574	-0.0107	0.2466	1254.1476	0.11217	-491.106316	-491.097973	-491.097028	-491.139775	30.423	
C	 0.0943824619	 1.559896577	 0.3633973991	-0.407966
C	-0.0258487483	 0.1126830557	-0.0987264821	 0.010062
O	 0.8086188888	-0.7861306799	 0.6249085612	-0.425836
C	-1.4473505395	-0.3906149322	-0.058330408	 0.403118
N	-2.5096029126	 0.3430960763	-0.0774475759	-0.189747
O	-3.5933451374	-0.5731308146	-0.0552711162	-0.23381
C	-3.1253329432	-1.8639010075	-0.0073260939	 0.510937
O	-3.8010040442	-2.8501510612	 0.03792666	-0.388424
N	-1.7449327337	-1.7241494319	-0.0230867008	-0.41433
H	 1.1323639179	 1.8874323581	 0.2723381169	 0.133462
H	-0.5441842972	 2.2105737748	-0.2385065568	 0.15838
H	-0.2230407091	 1.6606967445	 1.4066843094	 0.127855
H	 0.32158965	 0.0300630678	-1.1363611368	 0.131542
H	 0.6932450026	-0.6067249765	 1.5655716298	 0.292263
H	-1.082363386	-2.4753326103	 0.0670876241	 0.292493
54.9046	129.706	166.3745	227.5752	273.122	335.5686	358.5969	423.3442	475.6629	539.1381	557.8386	613.5485	730.21	755.3843	783.2396	893.1636	917.4181	959.6607	1008.9404	1051.1358	1086.3223	1136.1584	1199.2332	1243.0524	1294.1535	1349.4502	1409.12	1414.9818	1482.1646	1487.6472	1496.4585	1648.907	1907.2644	3037.1384	3047.6792	3121.1299	3142.6919	3685.825	3792.9428
CC(O)C1=NOC(=O)N1	C[C@@H](O)c1noc(=O)[nH]1	
InChI=1S/C4H6N2O3/c1-2(7)3-5-4(8)9-6-3/h2,7H,1H3,(H,5,6,8)	InChI=1S/C4H6N2O3/c1-2(7)3-5-4(8)9-6-3/h2,7H,1H3,(H,5,6,8)/t2-/m1/s1
