18
gdb 8781	4.2585	1.27942	1.00229	3.467	75.05	-0.242	-0.017	0.225	1161.7384	0.151843	-381.151768	-381.142116	-381.141171	-381.186936	32.963	
C	 0.0905070547	 1.4173299678	 0.0572304339	-0.325637
N	-0.0078636462	-0.0303330498	 0.0462215927	-0.274948
C	-1.138754399	-0.6128490573	 0.0455506189	 0.393706
C	-2.4949307814	 0.0609701747	 0.0553072753	-0.506849
N	-1.1144659652	-2.0223519655	 0.0344031343	-0.129619
C	 0.1901053098	-2.6857946753	 0.0245680495	-0.332878
C	-2.2464447234	-2.8109295655	 0.0326879486	 0.161324
O	-2.2441710549	-4.0221187769	 0.0235222602	-0.327287
H	 1.1476600473	 1.6950779099	 0.0552670754	 0.127601
H	-0.3720772201	 1.8821530845	-0.8245514304	 0.120046
H	-0.3651042794	 1.8681355892	 0.9498494926	 0.120068
H	-3.0838786579	-0.20400309	-0.8280939109	 0.1512
H	-3.078235787	-0.217834702	 0.9381709492	 0.1512
H	-2.3708971669	 1.1426201638	 0.0633719464	 0.141261
H	 0.7637761157	-2.3978160245	 0.9076832166	 0.14057
H	 0.0057743751	-3.7580743179	 0.0160839087	 0.158644
H	 0.7580120705	-2.3826823212	-0.8571773835	 0.140602
H	-3.1803892917	-2.2313411439	 0.0405228325	 0.090998
45.2634	54.4992	141.3094	148.0173	188.3652	218.7969	278.2435	338.1006	353.7116	364.2617	449.4952	478.6763	568.885	685.6705	819.8661	916.5261	1025.3267	1038.5282	1048.4352	1076.6467	1108.1094	1147.9414	1159.6685	1172.923	1345.6207	1365.748	1402.2182	1437.6507	1442.0418	1460.1206	1479.1381	1486.1812	1487.6913	1502.42	1509.8311	1516.014	1722.7264	1796.1366	2991.7394	3032.2238	3044.8901	3052.6847	3067.987	3098.6284	3108.5861	3130.9367	3160.1442	3182.9352
CN=C(C)N(C)C=O	CN=C(C)N(C)C=O	
InChI=1S/C5H10N2O/c1-5(6-2)7(3)4-8/h4H,1-3H3	InChI=1S/C5H10N2O/c1-5(6-2)7(3)4-8/h4H,1-3H3
