18
gdb 72560	2.38856	1.99876	1.51703	2.3747	71.34	-0.2616	0.0258	0.2874	944.9102	0.149554	-439.120606	-439.113183	-439.112239	-439.152158	29.635	
C	-0.0791853929	 1.4911017555	 0.0115104057	-0.480065
C	 0.031607164	-0.0087722311	-0.0076137415	 0.268898
C	 0.6856748307	-0.6863316845	-1.2484473902	-0.259874
C	 0.1148814586	-2.1302070785	-1.1417520016	-0.242295
C	-0.7546144054	-1.9735018374	 0.1185369297	 0.172651
O	 0.1425002819	-1.924591902	 1.26092445	-0.26236
C	 0.6763869519	-0.6634222396	 1.2096877563	 0.425244
N	 1.5352411547	-0.1645831528	 1.9838060192	-0.565011
O	-1.2613358159	-0.6702957391	 0.030703536	-0.272414
H	 0.9197624839	 1.9274175574	 0.0864764525	 0.147739
H	-0.562699178	 1.8548955679	-0.8990780193	 0.122281
H	-0.6572619684	 1.819558115	 0.8782506475	 0.140148
H	 0.3470749706	-0.1831852323	-2.1568414004	 0.113326
H	 1.7756557435	-0.6435004599	-1.2120352718	 0.126081
H	-0.502484273	-2.3950943868	-2.0028486897	 0.115628
H	 0.8779457273	-2.8987689309	-1.0082304098	 0.120577
H	-1.5362059875	-2.704939414	 0.3131058785	 0.103765
H	 1.8173779641	-0.8345776569	 2.7014446989	 0.225681
142.0381	180.1779	219.7612	273.382	312.8718	407.4803	463.9839	540.4071	622.997	644.6061	713.0403	745.7934	826.2076	841.4754	872.0393	878.8981	899.083	908.7139	932.7389	975.1509	1013.5856	1033.6416	1104.044	1114.2106	1152.3689	1206.7975	1214.478	1243.3875	1259.9913	1308.7906	1334.1812	1341.8661	1388.0864	1419.5644	1476.0315	1481.4642	1491.1685	1499.7828	1800.753	3054.2035	3072.3585	3081.4493	3121.2232	3130.6825	3137.055	3138.206	3154.941	3471.4586
CC12CCC(OC1=N)O2	C[C@@]12CC[C@@H](O[C]1[NH])O2	
InChI=1S/C6H9NO2/c1-6-3-2-4(9-6)8-5(6)7/h4,7H,2-3H2,1H3	InChI=1S/C6H9NO2/c1-6-3-2-4(9-6)8-5(6)7/h4,7H,2-3H2,1H3/t4-,6+/m0/s1
