13
gdb 14566	8.02637	0.69781	0.67579	3.5743	71.62	-0.2709	0.0118	0.2827	1568.6047	0.093128	-324.270309	-324.261609	-324.260664	-324.306019	29.336	
C	-0.0615642008	-1.1921214926	 0.4063947997	-0.437579
C	-0.0215251186	-0.0276149504	 0.1187785696	 0.313252
C	 0.0135462468	 1.3922308231	-0.2349504731	-0.48991
C	 1.3631855794	 1.9602134924	-0.2316861464	 0.115401
C	 2.4673819346	 2.4321804068	-0.2276647335	 0.077678
C	 3.8149702873	 2.9959465588	-0.2236152503	-0.47113
C	 3.8893611895	 4.3053146719	 0.4386725012	 0.279311
N	 3.9607603789	 5.3353191898	 0.9551712047	-0.298993
H	-0.0953461885	-2.2221276309	 0.6626857114	 0.205226
H	-0.4399584267	 1.5338814003	-1.225409088	 0.166978
H	-0.6169098562	 1.959206939	 0.4635600826	 0.171416
H	 4.511942706	 2.3157861723	 0.2827199363	 0.18549
H	 4.1892057683	 3.1096110795	-1.2491617442	 0.182858
8.071	74.0042	105.1682	205.0458	270.3655	318.6597	357.8191	378.0911	382.5597	500.6099	589.8621	628.7516	657.1541	800.2295	924.3755	932.4692	937.914	954.3774	1160.5344	1230.3177	1234.6162	1333.4908	1340.8988	1448.0495	1451.4952	2249.5289	2371.7206	2391.5867	3012.705	3026.5084	3038.4715	3056.88	3506.0663
C#CCC#CCC#N	C#CCC#CCC#N	
InChI=1S/C7H5N/c1-2-3-4-5-6-7-8/h1H,3,6H2	InChI=1S/C7H5N/c1-2-3-4-5-6-7-8/h1H,3,6H2
