15
gdb 20953	7.57764	1.16852	1.02536	2.7676	64.09	-0.2228	0.0002	0.223	1112.0023	0.119875	-395.973743	-395.966274	-395.96533	-396.006241	26.539	
C	-0.0402430807	 1.4857061289	 0.0108225223	-0.391801
C	 0.0004956451	-0.0301274044	 0.0023316148	-0.042159
O	-1.3586953467	-0.4953497721	 0.0106998756	-0.28032
C	-1.5251986397	-1.8242925092	 0.0048810071	 0.411815
C	-2.7285049572	-2.4993362148	 0.0107603376	-0.202536
N	-2.3408062031	-3.800495828	 0.0001253212	-0.141331
N	-1.011449069	-3.9336763525	-0.0099497137	-0.128033
N	-0.5079732159	-2.722733884	-0.0078958996	-0.275524
H	 0.9781858824	 1.8850198304	 0.0048125927	 0.121595
H	-0.5661268897	 1.8656147944	-0.8697044942	 0.128104
H	-0.5519182067	 1.8560668254	 0.9037020429	 0.128107
H	 0.5108718023	-0.4181467896	-0.8865285017	 0.120136
H	 0.5249863452	-0.4276506877	 0.8786873209	 0.120152
H	-3.7545414449	-2.178854495	 0.0205077828	 0.147385
H	-2.9167176515	-4.6270150917	-0.0002204686	 0.284409
64.2943	83.6247	164.2421	251.0816	342.3523	351.9846	470.7378	570.1034	685.5616	717.0924	738.5062	755.1001	812.2323	916.817	984.4187	1032.2635	1063.2178	1087.409	1131.6106	1138.1927	1182.789	1275.7862	1292.2814	1344.6946	1348.3809	1395.5742	1420.7448	1484.8112	1498.1423	1507.7464	1522.0912	1626.0699	3034.8164	3046.1255	3072.1031	3121.8098	3123.8829	3301.0537	3659.2852
CCOC1=CNN=N1	CCOc1c[nH]nn1	
InChI=1S/C4H7N3O/c1-2-8-4-3-5-7-6-4/h3H,2H2,1H3,(H,5,6,7)	InChI=1S/C4H7N3O/c1-2-8-4-3-5-7-6-4/h3H,2H2,1H3,(H,5,6,7)
