18
gdb 118378	1.67663	1.27381	0.75851	4.2592	79.31	-0.2788	0.0125	0.2913	1483.0645	0.144359	-401.921573	-401.911268	-401.910324	-401.957882	35.804	
C	-0.015542408	 1.5111352924	 0.0280245369	-0.38702
C	-0.1564942961	 0.0020351779	 0.1094041939	-0.04549
O	 0.7924286225	-0.4786667668	 1.0556028297	-0.237134
C	 0.8050346553	-1.8790602732	 1.2106325646	-0.068579
C	 2.0771245812	-2.2171330386	 2.0186040743	-0.352424
C	 3.2946896429	-1.8573939026	 1.2960133621	 0.267982
N	 4.2602380563	-1.5938318802	 0.7194952352	-0.305442
C	-0.3877183523	-2.3872673112	 1.9022374585	 0.327929
C	-1.3575014888	-2.7991551289	 2.4800290126	-0.442711
H	 0.9962227963	 1.7865931085	-0.2815014946	 0.13673
H	-0.7256983413	 1.9165032741	-0.6986175336	 0.119446
H	-0.2152066947	 1.9686199496	 1.0009411517	 0.130533
H	-1.1718953069	-0.2826139793	 0.4204938307	 0.104956
H	 0.0338236225	-0.4626965052	-0.8712482443	 0.096011
H	 0.8756416298	-2.3677469524	 0.2248582756	 0.113674
H	 2.0403062436	-1.6718786532	 2.9664446572	 0.170909
H	 2.0935927385	-3.2865047499	 2.2479747502	 0.162793
H	-2.2197737209	-3.1633182909	 2.9829310492	 0.207835
56.2111	76.4147	81.0302	120.7359	168.7905	203.8717	246.4345	257.2845	375.9382	389.9607	399.2444	494.2874	567.1773	601.5124	647.4311	685.2497	822.2173	828.13	937.5115	939.993	977.9275	1054.6403	1060.9874	1126.2673	1152.694	1188.3312	1242.437	1293.1666	1300.7713	1349.3921	1368.864	1402.543	1435.7333	1453.0672	1483.337	1500.1002	1526.7733	2233.6181	2368.3281	2970.	2978.7283	3021.5741	3047.6507	3066.9092	3113.7379	3122.3556	3126.9649	3500.0332
CCOC(CC#N)C#C	CCO[C@@H](CC#N)C#C	
InChI=1S/C7H9NO/c1-3-7(5-6-8)9-4-2/h1,7H,4-5H2,2H3	InChI=1S/C7H9NO/c1-3-7(5-6-8)9-4-2/h1,7H,4-5H2,2H3/t7-/m1/s1
