17
gdb 35529	3.15969	1.50702	1.40527	5.7588	71.19	-0.2427	0.0207	0.2634	971.5808	0.139403	-418.01063	-418.003624	-418.00268	-418.042123	27.758	
N	-0.1500805367	-1.1572054432	-0.2517677325	-0.329172
C	-0.0562221621	-0.0151538215	-0.1077486136	 0.304125
C	 0.0112471438	 1.4463617855	 0.0128349156	-0.019676
O	-0.5737886989	 1.8873729633	 1.2532644378	-0.285434
C	 0.4514061296	 2.6550259184	 1.919494947	 0.098355
C	 1.5384563962	 1.6736074885	 2.395457796	-0.179422
N	 2.1577315701	 1.2357643812	 1.108601694	-0.289219
C	 1.4517906328	 2.0143150935	 0.0772870358	-0.046232
C	 1.1438099657	 3.369541187	 0.7527767575	-0.238791
H	-0.5509743582	 1.8800576948	-0.8246130515	 0.124009
H	-0.0255260238	 3.2535608222	 2.6939080792	 0.092428
H	 2.2607480625	 2.1575996845	 3.0628277952	 0.100654
H	 1.0899801647	 0.8264416196	 2.9217856275	 0.129592
H	 3.146149292	 1.455214565	 1.0897718984	 0.22788
H	 1.9733735112	 2.0111282845	-0.8785686246	 0.092697
H	 0.4685049373	 4.0235164359	 0.1965775124	 0.114146
H	 2.0503836037	 3.9109432507	 1.0329295757	 0.104057
99.3364	156.4276	255.8475	357.2028	404.8768	459.1196	510.6584	562.7879	626.2831	717.9199	812.6936	815.5053	849.1675	870.0384	915.5078	937.2474	956.8464	973.5734	975.9681	1019.1255	1045.0776	1057.5985	1098.4011	1141.789	1185.8335	1217.2254	1257.4142	1273.1339	1288.2496	1307.4271	1336.0498	1361.3202	1374.1336	1434.1195	1487.5956	1506.2484	2365.1189	3021.8875	3035.974	3071.2384	3090.5845	3130.0319	3136.7242	3142.28	3549.4538
N#CC1OC2CNC1C2	N#C[C@H]1O[C@H]2CN[C@@H]1C2	
InChI=1S/C6H8N2O/c7-2-6-5-1-4(9-6)3-8-5/h4-6,8H,1,3H2	InChI=1S/C6H8N2O/c7-2-6-5-1-4(9-6)3-8-5/h4-6,8H,1,3H2/t4-,5-,6-/m1/s1
