21
gdb 57076	3.00624	1.12613	0.85542	0.7336	90.29	-0.2364	0.0267	0.2631	1378.7322	0.182065	-349.938991	-349.929724	-349.92878	-349.973069	35.375	
C	-0.0706429024	 1.5824072568	 0.016427241	-0.394004
C	-0.0466428869	 0.0405405971	-0.0058645979	-0.168542
C	-1.4095278123	-0.4883953185	 0.0457409465	 0.326149
C	-2.5372688316	-0.905971015	 0.0679131543	-0.470572
C	 0.7200670909	-0.5103493586	-1.2382781499	-0.000829
C	 2.2153348743	-0.0885313819	-1.2823245398	-0.231923
C	 2.9825236643	-1.3077461313	-1.855173897	-0.262788
C	 2.0206286984	-2.4488279861	-1.6258713057	-0.077158
C	 0.8034472625	-2.0203785559	-1.2994224675	-0.070086
H	 0.9456871506	 1.9848615433	 0.0438818466	 0.118835
H	-0.5721475667	 1.9705848312	-0.8756423161	 0.124252
H	-0.6102033167	 1.9491389823	 0.8933288205	 0.124376
H	 0.4865399148	-0.3089590404	 0.8900339425	 0.102507
H	-3.5303471446	-1.2803662462	 0.0994927046	 0.192202
H	 0.1892339861	-0.1400080567	-2.1288081127	 0.082762
H	 2.3829173957	 0.8251674205	-1.8575065877	 0.099182
H	 2.5609980798	 0.1055069923	-0.2599284097	 0.101964
H	 3.1929653488	-1.1884897107	-2.9275948883	 0.1059
H	 3.9536172578	-1.4579666228	-1.3697806435	 0.102
H	 2.3024188549	-3.4876678936	-1.7601055713	 0.090849
H	-0.0638017877	-2.6458149956	-1.123092449	 0.104922
71.3334	108.0144	128.7841	208.0798	228.2645	245.6609	316.9363	375.8093	431.3276	498.2582	558.7875	621.3316	632.3614	638.4077	751.607	776.6312	834.3002	860.4693	878.9069	927.7688	962.1297	979.0361	989.1766	1017.911	1056.3456	1091.4612	1099.2398	1127.5035	1152.4801	1177.6254	1229.9636	1263.882	1293.5713	1317.8783	1328.541	1332.2441	1354.7728	1383.5774	1407.4383	1483.3995	1493.5898	1497.7691	1501.8512	1687.9499	2230.3905	2980.0648	3005.1907	3006.8375	3034.9363	3043.0463	3055.6117	3098.9867	3115.9381	3122.9036	3184.045	3212.7096	3504.2442
CC(C#C)C1CCC=C1	C[C@@H](C#C)[C@H]1CCC=C1	
InChI=1S/C9H12/c1-3-8(2)9-6-4-5-7-9/h1,4,6,8-9H,5,7H2,2H3	InChI=1S/C9H12/c1-3-8(2)9-6-4-5-7-9/h1,4,6,8-9H,5,7H2,2H3/t8-,9+/m0/s1
