16
gdb 133729	3.77827	0.8275	0.78223	3.8701	58.41	-0.2615	-0.026	0.2355	1456.9107	0.117846	-569.422177	-569.412512	-569.411568	-569.459381	33.087	
C	 0.1313893216	 1.5534867381	 0.0089487141	-0.378751
C	-0.0416832873	 0.0369248393	 0.0027464071	-0.276221
C	-1.4980768375	-0.404103779	 0.0139741983	 0.378241
O	-2.4164801096	 0.3774968297	 0.0269653325	-0.279012
C	-1.7169436136	-1.920196441	 0.0079369433	-0.460123
C	-3.1730182189	-2.3485631398	 0.0198668965	 0.306183
F	-3.8341124783	-1.9073177305	-1.0543205958	-0.072751
F	-3.2505734366	-3.6941485967	 0.0134455373	-0.087335
F	-3.8129492639	-1.9188711476	 1.111417234	-0.072759
H	 1.1917356466	 1.8193890343	 0.0005426125	 0.114477
H	-0.3467512523	 2.0034589533	-0.8644771512	 0.13629
H	-0.3305353205	 1.994402497	 0.8956166902	 0.136308
H	 0.4397713726	-0.4162540736	-0.8752897133	 0.125199
H	 0.4558395662	-0.4251823833	 0.8670714605	 0.125226
H	-1.2405112673	-2.3561115435	-0.8765857538	 0.152519
H	-1.2233345212	-2.3656180266	 0.8781885178	 0.152509
10.998	57.663	98.8348	126.9952	184.7289	245.126	313.6356	338.3373	338.9296	459.5204	528.6646	538.236	625.7157	688.4861	744.6166	845.7238	861.0274	899.2584	998.4437	1024.428	1055.0142	1118.2226	1157.5458	1179.635	1278.7953	1280.9703	1319.3327	1362.6074	1387.561	1416.0268	1441.0139	1455.9335	1492.0116	1497.5323	1823.777	3015.7114	3042.1434	3054.5369	3060.2781	3102.3627	3126.813	3131.2019
CCC(=O)CC(F)(F)F	CCC(=O)CC(F)(F)F	
InChI=1S/C5H7F3O/c1-2-4(9)3-5(6,7)8/h2-3H2,1H3	InChI=1S/C5H7F3O/c1-2-4(9)3-5(6,7)8/h2-3H2,1H3
