21
gdb 108324	3.10889	1.26722	1.06624	2.0161	78.52	-0.2388	0.0612	0.3	1221.1313	0.181354	-424.183226	-424.174074	-424.173129	-424.217126	34.234	
C	-0.0986070538	 1.4727272387	 0.1538604707	-0.265703
O	 0.004378552	 0.0616380547	 0.1424137708	-0.2923
C	-1.2120776432	-0.5802003703	-0.0525811704	 0.390814
C	-2.2213206572	-0.6439416595	 1.1140785759	-0.128311
O	-2.3649289839	-2.0744049244	 0.9447008326	-0.290164
C	-1.3232741113	-2.1258121921	-0.0556686822	 0.026336
C	-1.8656620137	-2.1037183586	-1.5083311092	 0.022991
C	-3.1726991327	-2.8276493957	-1.7869922582	-0.404235
C	-1.8708264496	-0.5359178107	-1.4664079466	-0.323991
H	 0.9086740958	 1.8671724784	 0.3035972759	 0.131438
H	-0.4956449019	 1.8618470992	-0.794674943	 0.112941
H	-0.7425445637	 1.828554958	 0.9718546674	 0.111103
H	-1.7718248402	-0.3994660075	 2.0856648315	 0.101596
H	-3.1746530916	-0.1141329999	 1.0007483351	 0.096869
H	-0.5196350473	-2.8166783841	 0.2112771072	 0.076204
H	-1.081884897	-2.4535694013	-2.1891357741	 0.076899
H	-3.9296955333	-2.5496640514	-1.0485946018	 0.129107
H	-3.5523098068	-2.5810270999	-2.7841942727	 0.110314
H	-3.0421918288	-3.9141872607	-1.736734572	 0.115531
H	-2.8594968236	-0.069386983	-1.5048027776	 0.095427
H	-1.2316841082	-0.07399097	-2.2220442693	 0.107133
73.8218	106.765	176.9848	195.747	218.2814	234.0925	314.7922	343.4105	372.0105	417.5591	553.7222	634.3048	646.1305	784.8916	858.9028	880.0944	902.3306	928.3939	965.7753	998.3482	1006.743	1036.5083	1073.1684	1115.7111	1139.923	1158.8779	1181.246	1183.2196	1191.3204	1193.5771	1227.3728	1252.3114	1277.0851	1292.0846	1320.1839	1354.8876	1372.7751	1409.3513	1470.2576	1484.2346	1491.0144	1491.6508	1501.8147	1506.709	1513.8996	2985.8361	3006.1267	3032.88	3036.4489	3043.2258	3055.3461	3060.5125	3081.0744	3095.6942	3114.8339	3118.9664	3121.962
COC12COC1C(C)C2	CO[C@]12CO[C@H]1[C@@H](C)C2	
InChI=1S/C7H12O2/c1-5-3-7(8-2)4-9-6(5)7/h5-6H,3-4H2,1-2H3	InChI=1S/C7H12O2/c1-5-3-7(8-2)4-9-6(5)7/h5-6H,3-4H2,1-2H3/t5-,6-,7+/m0/s1
