15
gdb 45462	2.79693	1.68333	1.19635	5.4643	65.53	-0.2515	-0.0819	0.1696	1000.7445	0.113322	-457.801156	-457.793864	-457.792919	-457.834421	26.934	
O	-0.0824818922	-0.0204363701	-0.1322247819	-0.305377
C	-0.0455809369	 1.1715075829	-0.1009286913	 0.330551
O	-1.1390447133	 1.9680761947	-0.2024442281	-0.221537
C	-0.8149933899	 3.3716902798	-0.1495611178	 0.093005
C	-1.112269775	 4.0117723977	 1.2261604632	-0.235997
C	 0.4125882325	 4.0605725235	 1.5303633872	-0.241026
C	 0.7105692377	 3.4944052697	 0.0940849295	-0.169025
C	 1.2057969222	 2.0742018705	 0.0625901794	 0.286045
O	 2.3239343564	 1.6516050921	 0.1557847203	-0.274099
H	-1.2528230759	 3.841508204	-1.030900477	 0.107677
H	-1.5827417165	 4.9943120531	 1.1525743537	 0.120832
H	-1.715908785	 3.3801641296	 1.8801769526	 0.130836
H	 0.8222437586	 5.0582614569	 1.6903480372	 0.129932
H	 0.7512432749	 3.4167795532	 2.344527419	 0.129818
H	 1.2881411025	 4.1492561724	-0.557443276	 0.118366
21.9614	108.6861	199.111	327.3825	370.2245	452.1623	529.2079	600.951	640.1023	698.4298	750.477	800.9017	804.5902	883.5252	899.1363	953.2896	965.9256	1015.1568	1050.9147	1084.9008	1122.8922	1202.4498	1204.4982	1223.1789	1252.5812	1269.0538	1278.4111	1297.6979	1365.7868	1469.6338	1492.7796	1861.345	1884.6559	3077.9368	3082.1371	3104.6916	3121.6072	3129.3901	3144.9261
O=C1OC2CCC2C1=O	O=C1O[C@H]2CC[C@H]2C1=O	
InChI=1S/C6H6O3/c7-5-3-1-2-4(3)9-6(5)8/h3-4H,1-2H2	InChI=1S/C6H6O3/c7-5-3-1-2-4(3)9-6(5)8/h3-4H,1-2H2/t3-,4+/m1/s1
