21
gdb 36850	4.24105	0.94435	0.86412	1.6759	82.72	-0.2442	0.0823	0.3264	1413.045	0.182378	-387.042358	-387.033791	-387.032847	-387.076314	32.897	
C	-0.099261296	 1.5837885046	 0.021288507	-0.35464
C	-0.1513797507	 0.087640243	-0.2283847937	 0.044084
C	-0.2439001595	-0.8821840637	 0.9238826809	-0.254255
C	-1.4253530576	-0.6804063895	 0.0063295064	-0.281582
C	 1.29702086	 2.0816928987	 0.2411892383	 0.450147
C	 2.2261311752	 1.8725117239	 1.4546338943	-0.282474
C	 2.9325672313	 3.22600192	 1.091095749	-0.237872
C	 1.9757257429	 3.3458667732	-0.1022604756	-0.050557
O	 2.1606611328	 2.1725144559	-0.9065537393	-0.295193
H	-0.5267056156	 2.1214878627	-0.8338271186	 0.108767
H	-0.7129202896	 1.8312070519	 0.8975550918	 0.095177
H	 0.4526977972	-0.2330009627	-1.0723744291	 0.098882
H	 0.3055557726	-1.8148873548	 0.8616396308	 0.1123
H	-0.310044339	-0.4748405603	 1.9278576939	 0.107894
H	-2.2805409592	-0.1363943544	 0.3949868978	 0.108213
H	-1.6844597693	-1.4746664222	-0.6849265699	 0.111941
H	 1.7033826239	 1.9188050778	 2.4133744006	 0.101198
H	 2.8375557219	 0.968525793	 1.416020735	 0.108815
H	 2.7773612532	 3.9969100009	 1.8497853378	 0.102917
H	 3.9923735221	 3.1779756726	 0.8301049689	 0.10988
H	 1.6133144733	 4.2349996195	-0.6073186864	 0.096359
57.7782	73.6429	117.0199	239.1189	278.1574	318.0593	370.6406	427.8386	493.5806	700.1102	729.403	771.0997	775.2112	804.5064	838.0408	863.3171	902.2197	913.6909	921.1856	949.6125	969.7109	979.7127	1031.1206	1043.1104	1060.2428	1079.7628	1116.2944	1144.5185	1162.766	1190.6915	1199.3115	1211.4258	1214.8326	1227.772	1254.5252	1261.3944	1308.1251	1324.8179	1411.5204	1449.6412	1463.7962	1466.5074	1473.9586	1492.9565	1508.0642	3017.2269	3060.4516	3062.1783	3069.698	3113.4116	3127.5987	3129.7065	3132.4533	3150.2854	3174.7613	3205.4171	3220.6489
C(C1CC1)C12CCC1O2	C(C1CC1)[C@]12CC[C@H]1O2	
InChI=1S/C8H12O/c1-2-6(1)5-8-4-3-7(8)9-8/h6-7H,1-5H2	InChI=1S/C8H12O/c1-2-6(1)5-8-4-3-7(8)9-8/h6-7H,1-5H2/t7-,8-/m1/s1
