19
gdb 104680	2.29083	1.65876	1.18089	3.1906	71.11	-0.2402	0.0637	0.304	1093.4031	0.157514	-460.067431	-460.058597	-460.057653	-460.101196	33.105	
C	 0.6701844442	-0.1898225975	 1.2385602297	-0.260579
O	-0.12832675	 0.0772265746	 0.0963383825	-0.31255
C	-1.3187055719	-0.6813735739	 0.0084427925	 0.407764
C	-2.4012146955	-0.0669546379	 0.8864225943	-0.128301
O	-2.5839182375	 1.2976816522	 0.5530500076	-0.424393
C	-1.7128391795	-1.0935877354	-1.4394069376	-0.001768
C	-0.5071747781	-2.0605723803	-1.4981999619	-0.238736
C	-1.2255529995	-2.2377136392	-0.1375406454	-0.028226
O	-2.5204236183	-2.1880262712	-0.8513854934	-0.311243
H	 1.5299776951	 0.4815743514	 1.1864783417	 0.134983
H	 0.1340009202	-0.0040556721	 2.1782323349	 0.121221
H	 1.0308489256	-1.227717898	 1.2413844812	 0.117203
H	-3.3472495037	-0.5818725885	 0.7208377062	 0.134492
H	-2.133288703	-0.1866823934	 1.9496992139	 0.078444
H	-1.6980582217	 1.6702609359	 0.4654561714	 0.284528
H	-2.1726215606	-0.489261847	-2.220250282	 0.106488
H	-0.6349502879	-2.9000271978	-2.1816055798	 0.110803
H	 0.4939325756	-1.6311099546	-1.5120642894	 0.114985
H	-1.1063344034	-3.0105719871	 0.6226903034	 0.094886
65.015	104.1554	162.2831	174.0694	237.3038	304.988	349.9148	409.8927	443.5924	477.7354	561.9433	606.8929	709.0929	775.9402	825.7015	876.5953	898.5412	916.6503	992.3139	1015.4519	1050.9207	1067.0969	1079.3121	1103.0901	1133.1397	1162.7738	1175.315	1180.8763	1189.6152	1206.8251	1232.7083	1234.654	1275.5524	1316.4084	1360.3641	1430.0745	1472.88	1482.0475	1488.782	1505.3029	1518.0647	2961.1373	3000.2824	3056.1544	3089.5133	3113.3073	3123.2369	3135.0595	3135.8662	3169.8611	3782.2963
COC1(CO)C2CC1O2	CO[C@@]1(CO)[C@H]2C[C@@H]1O2	
InChI=1S/C6H10O3/c1-8-6(3-7)4-2-5(6)9-4/h4-5,7H,2-3H2,1H3	InChI=1S/C6H10O3/c1-8-6(3-7)4-2-5(6)9-4/h4-5,7H,2-3H2,1H3/t4-,5+,6+
