19
gdb 38239	3.1339	1.79427	1.43798	1.1728	80.6	-0.2359	0.0157	0.2515	954.092	0.162047	-385.834563	-385.827923	-385.826979	-385.865228	28.228	
C	-0.0104139393	 1.6340389017	 0.1722310653	-0.290373
C	 1.476106658	 1.2230899209	 0.0659624071	-0.093592
C	 1.1352256237	 0.0082906542	 1.0113823046	-0.298135
C	 0.0181825336	 0.0792602688	-0.0495613115	 0.438139
O	-1.0603067355	-0.7485482602	-0.2888856696	-0.313476
C	-1.7034321679	-0.3714472194	-1.5126191866	-0.142157
C	-0.8277552058	 0.2488158642	-2.5835257065	-0.051947
C	 0.4509396363	 0.607245545	-2.4313057089	-0.154213
C	 1.0991234008	 0.2703038461	-1.1280876357	-0.042631
H	-0.3508911471	 1.9739013263	 1.1531522607	 0.089188
H	-0.412790303	 2.246580069	-0.6349254435	 0.099487
H	 2.345201728	 1.8720037229	 0.1458026149	 0.080364
H	 1.8034938247	-0.8551853136	 0.9627625197	 0.095515
H	 0.8702085868	 0.2640319642	 2.040138462	 0.094778
H	-2.1730366145	-1.2833907422	-1.9001137478	 0.121553
H	-2.5234750425	 0.3325377544	-1.288289196	 0.110144
H	-1.3456648632	 0.4158288975	-3.525798148	 0.094853
H	 1.0108989386	 1.0453695371	-3.2537512421	 0.087271
H	 1.8004493183	-0.5666556967	-1.2343342983	 0.075231
142.477	245.8521	344.6726	414.602	431.4435	486.4709	546.1785	599.987	644.9099	690.6218	768.4272	809.2664	842.2865	889.5005	903.5447	920.5573	957.2652	974.5404	991.8145	1021.1282	1027.4406	1049.9414	1065.2263	1081.3603	1110.6151	1141.8678	1159.151	1170.0677	1192.4892	1206.4601	1218.7569	1245.7302	1269.149	1283.9965	1374.1975	1409.4374	1410.9054	1488.6937	1494.2376	1540.4217	1692.316	2957.038	3023.773	3049.6452	3056.5861	3069.4961	3125.289	3141.1416	3142.0273	3142.9276	3164.5508
C1C2CC11OCC=CC21	C1[C@H]2C[C@]31OCC=C[C@@H]23	
InChI=1S/C8H10O/c1-2-7-6-4-8(7,5-6)9-3-1/h1-2,6-7H,3-5H2	InChI=1S/C8H10O/c1-2-7-6-4-8(7,5-6)9-3-1/h1-2,6-7H,3-5H2/t6-,7-,8-/m0/s1
