21
gdb 92167	2.20054	2.03641	1.45786	1.5839	81.08	-0.2329	0.0885	0.3214	1013.2295	0.183476	-387.072784	-387.06479	-387.063846	-387.104645	32.463	
C	-0.2891913773	 1.5255039566	 0.0070487342	-0.402803
C	 0.03034558	 0.0328288863	-0.0263886448	 0.070245
O	 0.7199431785	-0.331646529	-1.2352886382	-0.284625
C	 2.0111734166	-0.8000821678	-0.8776851023	 0.081395
C	 2.8799931133	 0.338235702	-0.2555753849	-0.259836
C	 2.3915104484	-0.1280208217	 1.1177996494	-0.123881
C	 1.8997065302	-1.4484011176	 0.525780242	-0.140361
C	 0.9079851863	-0.4923215887	 1.1125878171	 0.333944
C	 0.2564592454	-0.7750303113	 2.4451505142	-0.497892
H	 0.6181640255	 2.1313972488	 0.0687688273	 0.120634
H	-0.8380319333	 1.8140845544	-0.893812905	 0.123448
H	-0.9167597463	 1.7586358731	 0.8744039056	 0.11067
H	-0.9197275578	-0.5234948086	-0.0161946906	 0.069376
H	 2.4229124055	-1.3619866335	-1.7150973872	 0.079431
H	 3.9486917087	 0.1340984027	-0.3750368182	 0.0985
H	 2.6647050208	 1.3557009266	-0.5947469625	 0.095131
H	 2.9038299025	 0.0280840877	 2.0609965227	 0.080105
H	 2.0554034993	-2.4766204896	 0.824823867	 0.083984
H	 0.9657243907	-1.2303398571	 3.1431736116	 0.119687
H	-0.1186901712	 0.1437292377	 2.9100733521	 0.122396
H	-0.5906733558	-1.4613606608	 2.3332112305	 0.120455
152.8372	210.4385	211.9527	230.0334	276.7972	309.9381	408.2382	442.2671	532.5718	580.4111	661.9164	674.7839	803.5003	828.1741	846.9095	860.4975	885.7926	900.4658	943.4816	976.9184	1002.2676	1018.7585	1030.5719	1066.1715	1098.1568	1104.0003	1109.0257	1123.1072	1146.6026	1184.941	1211.8898	1254.0793	1269.8522	1284.3801	1335.395	1358.0648	1386.2947	1404.6906	1416.9392	1420.1644	1484.9595	1491.1837	1495.1793	1499.1397	1503.6337	2977.077	3025.9538	3040.2688	3044.3177	3084.871	3095.1655	3100.9935	3107.6792	3125.0187	3130.0806	3168.2931	3199.4318
CC1OC2CC3C2C13C	C[C@H]1O[C@H]2C[C@@H]3[C@H]2[C@]13C	
InChI=1S/C8H12O/c1-4-8(2)5-3-6(9-4)7(5)8/h4-7H,3H2,1-2H3	InChI=1S/C8H12O/c1-4-8(2)5-3-6(9-4)7(5)8/h4-7H,3H2,1-2H3/t4-,5-,6+,7-,8-/m1/s1
