19
gdb 32598	2.69233	1.22697	0.89996	2.3402	79.74	-0.1713	0.0541	0.2254	1310.6149	0.159147	-419.233482	-419.22368	-419.222736	-419.268481	35.828	
C	-0.1101300046	 1.6153080134	-0.0125343851	-0.370182
C	 0.0486105872	 0.0916604537	-0.0050153109	-0.155014
N	 0.7029985047	-0.4255268561	-1.1931502806	-0.007232
C	 0.0767058615	-0.6624439051	-2.4077779751	-0.205367
C	 1.0217331025	-1.1635903846	-3.2693848964	 0.323018
O	 0.762631375	-1.5288972819	-4.5615797968	-0.452644
C	 2.2645956857	-1.2171131835	-2.5808362367	-0.388112
C	 2.0307881063	-0.7490284091	-1.2998511869	 0.290507
N	 2.8763014637	-0.6342855917	-0.1738482127	-0.609362
H	 0.8649651732	 2.110904444	-0.0500012397	 0.117196
H	-0.6888854711	 1.9453600399	-0.8802256089	 0.128491
H	-0.6278404645	 1.9482723105	 0.8928634245	 0.115898
H	 0.6476274847	-0.2252905533	 0.8522566783	 0.135085
H	-0.9330025093	-0.3876202284	 0.0762072903	 0.112741
H	-0.971599741	-0.4628687612	-2.5503772753	 0.109833
H	 1.5827971464	-1.8372416638	-4.9561576508	 0.292317
H	 3.2163346013	-1.5458494717	-2.9725823129	 0.075477
H	 3.2678383955	 0.2979585003	-0.0716811073	 0.242338
H	 3.6503502728	-1.2833924814	-0.244121527	 0.245013
46.0396	97.5461	136.8384	188.6035	203.8718	219.8981	292.2538	315.3378	334.2936	404.7366	518.7868	592.9526	612.5227	641.1747	652.3711	664.9939	722.0995	786.5342	818.7149	822.6442	966.0132	1012.4943	1095.0849	1097.1987	1143.4451	1172.5935	1191.359	1211.0474	1263.9561	1317.1802	1380.1696	1397.414	1407.7755	1453.6636	1479.6533	1488.1432	1502.6184	1510.9289	1546.064	1642.6544	1661.9096	3037.1199	3046.5799	3099.2141	3110.0195	3123.2546	3229.3112	3275.3163	3485.5485	3589.0961	3848.2103
CCN1C=C(O)C=C1N	CCn1cc(O)cc1N	
InChI=1S/C6H10N2O/c1-2-8-4-5(9)3-6(8)7/h3-4,9H,2,7H2,1H3	InChI=1S/C6H10N2O/c1-2-8-4-5(9)3-6(8)7/h3-4,9H,2,7H2,1H3
