16
gdb 27909	1.99428	1.79447	0.94595	2.3908	77.81	-0.1971	0.0209	0.218	1176.0289	0.127141	-434.151939	-434.143992	-434.143048	-434.183804	32.078	
N	 0.0010267978	 1.407263712	 0.2257022364	-0.592269
C	 0.0036564772	 0.0317364684	 0.0692603147	 0.395464
C	-1.2003965658	-0.6822334947	 0.0281037539	-0.334956
C	-1.1172781433	-2.0646647869	-0.0717893975	 0.446859
O	-2.2656024634	-2.7786274686	-0.1110518656	-0.427475
N	 0.0135554503	-2.7628982102	-0.1314517156	-0.453046
C	 1.1611732529	-2.0677750227	-0.0989840054	 0.390038
N	 2.3178200827	-2.8191692354	-0.2239583892	-0.569914
C	 1.2094183374	-0.6762644431	 0.0012220015	-0.293899
H	 0.832835936	 1.8877239737	-0.0810173192	 0.249073
H	-0.8465280103	 1.8785646071	-0.0507696203	 0.25138
H	-2.1639413528	-0.1917008819	 0.0803366331	 0.086006
H	-1.9906905077	-3.7026560766	-0.185120827	 0.290559
H	 2.1834776118	-3.7966712042	-0.0119818387	 0.249684
H	 3.1519602543	-2.4250587014	 0.1822498677	 0.246645
H	 2.160808513	-0.1557935254	 0.021887631	 0.065851
198.3151	201.6917	244.3289	315.471	331.7199	360.8029	388.688	516.3629	517.5592	525.8461	535.6169	551.3134	572.9976	634.8897	670.3713	696.373	757.0677	794.2938	819.8889	994.7296	1011.3601	1037.8255	1113.3869	1138.4054	1199.5862	1237.3882	1296.3828	1372.3739	1452.2846	1504.1605	1538.986	1622.1657	1638.1341	1657.1211	1675.5945	3178.3332	3206.4929	3576.7128	3579.2438	3682.6975	3689.0139	3772.3616
NC1=CC(O)=NC(N)=C1	Nc1cc(O)nc(N)c1	
InChI=1S/C5H7N3O/c6-3-1-4(7)8-5(9)2-3/h1-2H,(H5,6,7,8,9)	InChI=1S/C5H7N3O/c6-3-1-4(7)8-5(9)2-3/h1-2H,(H5,6,7,8,9)
