17
gdb 43110	2.82617	1.86847	1.46089	3.6139	70.91	-0.2322	-0.0313	0.2009	920.8744	0.13801	-421.819727	-421.812917	-421.811973	-421.851349	26.717	
O	-0.0367381642	 0.0379791972	-0.4005174861	-0.301208
C	-0.0226413255	 1.2079732211	-0.1562478168	 0.420929
C	-1.1351650571	 2.2635203009	 0.0681437032	-0.158674
C	-1.7394703923	 2.2890386397	 1.4977839033	-0.235751
C	-0.8461837666	 3.2519719102	 2.328416826	-0.223164
C	 0.3566018486	 3.5891668605	 1.4529433023	 0.129175
O	 1.3284163693	 2.5011821788	 1.3877752444	-0.313095
C	 1.0828698123	 2.2760938422	-0.0221039019	-0.016006
C	-0.0314683138	 3.3667185886	-0.0199528006	-0.124398
H	-1.8905707292	 2.2420383055	-0.7203515414	 0.100492
H	-2.773162315	 2.6434568584	 1.4712680017	 0.109056
H	-1.7633750318	 1.2800936428	 1.9180164249	 0.126745
H	-1.3863093951	 4.1759439405	 2.5632624475	 0.104658
H	-0.5182466941	 2.8173645685	 3.2769700367	 0.121864
H	 0.8561909593	 4.5242853385	 1.7253116627	 0.080588
H	 1.995447461	 2.2366610457	-0.6204113291	 0.09193
H	-0.1159947457	 4.1819151111	-0.7325343268	 0.086859
67.1736	159.2768	230.9505	343.4902	437.4033	538.7128	638.508	696.6676	734.7316	763.458	796.0108	815.3817	860.6339	890.3519	910.8306	932.0912	981.3552	995.7077	1017.1524	1036.9507	1058.0853	1082.5272	1136.5229	1170.2097	1187.4862	1197.0643	1217.8918	1250.6713	1261.8696	1273.6886	1285.6534	1327.1329	1340.2503	1359.2091	1471.7693	1507.0614	1890.602	3042.8728	3059.0014	3064.97	3088.0559	3094.506	3095.9569	3109.1262	3160.1948
O=C1C2CCC3OC1C23	O=C1[C@H]2CC[C@H]3O[C@@H]1[C@@H]23	
InChI=1S/C7H8O2/c8-6-3-1-2-4-5(3)7(6)9-4/h3-5,7H,1-2H2	InChI=1S/C7H8O2/c8-6-3-1-2-4-5(3)7(6)9-4/h3-5,7H,1-2H2/t3-,4+,5-,7+/m0/s1
