15
gdb 133133	2.34429	1.81568	1.03064	4.0541	71.79	-0.229	-0.0354	0.1936	1070.5428	0.112833	-458.123328	-458.115444	-458.1145	-458.155532	29.926	
C	-0.0537142694	 1.5561825505	 0.0377507371	-0.528655
C	-0.0114577631	 0.0558630701	 0.0219942894	 0.079215
C	-0.03040837	-0.6972652772	-1.1762196452	 0.344947
N	-0.1268224025	-0.067493795	-2.3991150637	-0.556524
N	-0.010202233	-2.0364268744	-1.2183465602	-0.28169
N	 0.0154830373	-2.7351249587	-0.0905733961	-0.198646
C	 0.0388486168	-2.1072367321	 1.0767200669	-0.109737
C	 0.0288495317	-0.713945327	 1.1601203443	 0.23894
F	 0.0504455364	-0.1356423977	 2.3620062258	-0.06843
H	 0.852195088	 1.9877173923	-0.4074175572	 0.136132
H	-0.9082787147	 1.925758674	-0.5399048529	 0.148842
H	-0.1332738836	 1.9329795471	 1.0579868304	 0.15064
H	 0.2980093592	 0.8420064332	-2.4870144243	 0.255107
H	 0.0498685169	-0.6873818476	-3.177093001	 0.263073
H	 0.0670130897	-2.7181899276	 1.9720953566	 0.126787
131.3415	158.6446	236.6732	273.367	281.7177	326.6263	389.9721	479.4154	521.4887	548.3685	571.9837	585.5462	672.155	696.3157	795.1311	864.5828	899.6264	947.9457	1057.0187	1062.0721	1144.7	1184.8542	1229.0729	1257.3509	1337.5657	1404.8548	1422.2807	1483.0637	1490.0961	1504.4468	1592.1889	1627.2501	1652.0226	3022.3551	3076.0737	3144.7881	3195.5857	3572.0996	3687.1175
CC1=C(N)N=NC=C1F	Cc1c(N)nncc1F	
InChI=1S/C5H6FN3/c1-3-4(6)2-8-9-5(3)7/h2H,1H3,(H2,7,9)	InChI=1S/C5H6FN3/c1-3-4(6)2-8-9-5(3)7/h2H,1H3,(H2,7,9)
