17
gdb 25995	4.68955	0.96218	0.92469	3.5262	75.76	-0.2163	0.0324	0.2486	1307.9856	0.136506	-418.047104	-418.038549	-418.037605	-418.081588	31.417	
C	-1.6357068268	 1.3683750698	 1.1446888121	-0.444955
C	-1.6360835934	-0.1250238803	 1.2804395146	 0.38071
N	-1.9548772896	-0.7234318894	 2.3458714281	-0.512797
O	-1.2386412209	-0.6930325579	 0.0847774563	-0.28157
C	-1.2177528441	-2.0655953224	-0.0137799634	 0.302166
C	-0.0781806326	-2.836837796	-0.0055565093	-0.180819
N	-0.4770023907	-4.1330926581	-0.2140035619	-0.224608
C	-1.8393398974	-4.1945410936	-0.3461218342	-0.064736
C	-2.3374976509	-2.9177466942	-0.2254533064	-0.250662
H	-1.9325582164	 1.8212718829	 2.0894024257	 0.146118
H	-0.6399036572	 1.7219116675	 0.8596304581	 0.137436
H	-2.3258813258	 1.6758357855	 0.3527569049	 0.138765
H	-1.8897172934	-1.7372904692	 2.2351921844	 0.221932
H	 0.956523889	-2.5646389623	 0.1158136342	 0.129536
H	 0.1435264398	-4.9212061065	-0.2657915247	 0.268282
H	-2.3401394969	-5.1338604729	-0.5148409421	 0.125751
H	-3.3715486326	-2.618655243	-0.2868352764	 0.109452
29.2936	78.8466	124.7088	147.8243	339.6913	356.258	407.5651	469.8872	552.4539	557.7009	639.3133	644.6919	680.3593	736.947	788.6545	829.4665	889.4316	897.048	906.3161	980.2287	1026.3807	1076.0435	1079.8949	1089.2519	1102.8547	1165.0208	1266.8033	1307.1348	1329.7354	1408.0749	1410.0425	1467.5267	1475.4921	1477.5558	1524.007	1608.4178	1754.179	3050.8288	3107.9503	3169.9438	3257.7381	3276.1516	3279.9672	3461.6022	3690.1015
CC(=N)OC1=CNC=C1	C[C]([NH])Oc1c[nH]cc1	
InChI=1S/C6H8N2O/c1-5(7)9-6-2-3-8-4-6/h2-4,7-8H,1H3	InChI=1S/C6H8N2O/c1-5(7)9-6-2-3-8-4-6/h2-4,7-8H,1H3
