16
gdb 128743	3.87186	1.28696	1.02007	3.0002	71.16	-0.2593	0.0103	0.2697	1136.6808	0.126158	-434.032804	-434.0251	-434.024156	-434.065812	27.396	
C	-0.2562605799	 1.3368323861	-0.1541244784	-0.249436
O	 0.4043500882	 0.1094650064	 0.1077887193	-0.223355
C	 0.7582489095	-0.5728955838	-1.0505982315	-0.039668
C	 1.3203107787	-2.0199464824	-0.7419843613	-0.194658
N	 0.173503203	-2.5065620991	-1.5325874546	 0.078472
N	-0.460677758	-3.5121251516	-2.1665991654	-0.282508
C	-1.3936493701	-2.8019112005	-2.817579599	 0.020577
N	-1.3656426452	-1.4361259634	-2.6625159924	-0.383491
C	-0.3420342761	-1.3200803917	-1.8327695353	 0.358364
H	 0.3847032801	 2.0213957991	-0.7292504251	 0.114005
H	-1.1898842611	 1.1767048067	-0.7098765515	 0.139412
H	-0.4836242945	 1.7872607223	 0.813601859	 0.137829
H	 1.4173934617	 0.0298075906	-1.6921993165	 0.101141
H	 2.2929074444	-2.2562481404	-1.1778617894	 0.14348
H	 1.280797862	-2.2897673781	 0.3144197378	 0.151016
H	-2.1315049228	-3.2958641603	-3.4326560858	 0.128819
76.0614	101.3816	140.4809	199.8499	247.447	373.5477	444.6956	523.7511	669.602	689.2393	786.3063	811.7048	881.3693	889.659	965.2574	1004.6428	1070.249	1106.2667	1138.0733	1160.0613	1165.6052	1183.9614	1228.5208	1236.1667	1246.4901	1261.3951	1310.8827	1369.0653	1404.1787	1475.7836	1484.2538	1489.8375	1504.0151	1508.0363	1559.3089	2991.1748	3005.502	3052.4519	3080.0555	3133.8755	3147.7755	3258.9576
COC1CN2N=CN=C12	CO[C@H]1Cn2ncnc12	
InChI=1S/C5H7N3O/c1-9-4-2-8-5(4)6-3-7-8/h3-4H,2H2,1H3	InChI=1S/C5H7N3O/c1-9-4-2-8-5(4)6-3-7-8/h3-4H,2H2,1H3/t4-/m0/s1
