21
gdb 119611	4.2453	0.90394	0.83067	2.3543	78.74	-0.2513	0.0828	0.3342	1471.0877	0.182234	-424.218363	-424.209336	-424.208392	-424.25263	33.504	
C	-0.1938466967	 1.5685851059	-0.1121930002	-0.383566
C	-0.1580641044	 0.0390999575	-0.1412642122	-0.165561
C	 0.9459177229	-0.5112052096	-1.0581988859	-0.294776
C	 0.9495556212	-2.0150134793	-1.1379351096	 0.407985
C	 1.3206438506	-2.8802128385	 0.0566379903	-0.136666
O	 1.528139057	-4.193122157	-0.4500335896	-0.256624
C	 1.851131283	-4.1282530747	-1.8347900341	-0.102185
C	 1.2768740269	-2.818327069	-2.3212678546	-0.059985
O	-0.0870564082	-2.6309950996	-1.9259435374	-0.295515
H	 0.7541989191	 1.9821909282	 0.2499837683	 0.113544
H	-0.3720797434	 1.9788406997	-1.1123809443	 0.117146
H	-0.9889916602	 1.934832952	 0.5441795801	 0.115328
H	-0.0145491176	-0.3429789327	 0.8773768479	 0.099952
H	-1.1233139545	-0.3515938107	-0.483844091	 0.118409
H	 0.8129148923	-0.1095461666	-2.0692175784	 0.106475
H	 1.9275641964	-0.1675727766	-0.7051295802	 0.099667
H	 2.2327063983	-2.4783209568	 0.5292586758	 0.090344
H	 0.5335388492	-2.9390867073	 0.8152853003	 0.117232
H	 2.9410482772	-4.1392208038	-2.0036523706	 0.092358
H	 1.414347264	-5.0068011825	-2.3210180867	 0.119095
H	 1.5715382169	-2.3925959587	-3.2771020578	 0.097344
65.7819	91.0411	118.7288	203.5802	246.0085	266.1486	302.7389	331.9585	414.0912	457.6938	668.0826	704.1297	743.9908	779.4795	856.3885	894.0812	900.5528	910.0434	932.8405	976.0832	1008.1191	1046.1219	1047.9709	1089.7783	1109.5736	1124.0685	1135.7083	1219.6208	1232.8537	1245.2166	1265.8967	1289.1309	1322.8194	1334.6576	1362.0087	1383.0079	1394.9226	1415.1865	1466.5495	1480.4976	1492.4907	1499.8851	1500.6414	1509.3343	1511.8894	2964.1908	2971.9353	3018.6081	3026.7904	3030.5711	3056.001	3069.9101	3073.1623	3075.018	3098.4461	3104.8966	3150.5259
CCCC12COCC1O2	CCC[C@]12COC[C@H]1O2	
InChI=1S/C7H12O2/c1-2-3-7-5-8-4-6(7)9-7/h6H,2-5H2,1H3	InChI=1S/C7H12O2/c1-2-3-7-5-8-4-6(7)9-7/h6H,2-5H2,1H3/t6-,7+/m1/s1
