21
gdb 83254	1.81744	1.74579	1.51486	1.3554	77.95	-0.246	0.0716	0.3176	1076.063	0.181919	-424.22059	-424.211451	-424.210507	-424.253598	35.459	
C	-0.2299027545	 1.5153047826	-0.1302165825	-0.428859
C	 0.0116600067	 0.0272353882	 0.0318376891	-0.079551
C	 1.3526766678	-0.6571804363	-0.1877921245	-0.138119
C	 2.6075063421	 0.1839754404	-0.0425384046	-0.100186
O	 2.4692944366	 0.8970315264	 1.1888768549	-0.270389
C	 1.6688027097	 0.1198395449	 2.0782728338	 0.086029
C	 1.044465286	 1.0297648086	 3.1250788382	-0.42065
C	 0.7177069613	-0.6650047956	 1.1769219039	 0.345256
O	 0.1962974317	-1.8491099902	 1.7029356207	-0.470483
H	 0.6175002447	 2.1074320426	 0.2174146067	 0.145385
H	-0.4045010259	 1.7571829458	-1.1848044064	 0.113155
H	-1.1189230106	 1.832304613	 0.4268109739	 0.110947
H	-0.8078059986	-0.5888042097	-0.3344853236	 0.08737
H	 1.3916202869	-1.5594450315	-0.7867883027	 0.09585
H	 3.4947780417	-0.4683240244	-0.0219299923	 0.09758
H	 2.7513105704	 0.9302950359	-0.8313130073	 0.106484
H	 2.2909141448	-0.636492651	 2.5886296665	 0.073993
H	 0.3916832656	 1.7768574937	 2.6672537298	 0.12469
H	 0.4553444842	 0.4337160515	 3.8303048812	 0.10955
H	 1.8217584122	 1.5496724162	 3.6919623399	 0.127513
H	-0.6014604227	-1.6302887713	 2.1960686754	 0.284435
142.1329	199.9344	209.3952	213.5225	233.0088	239.7675	261.8402	305.2778	360.222	416.5345	504.2635	561.9181	578.158	660.7478	734.4901	785.4819	866.8466	889.0542	905.4236	981.4571	998.9914	1026.8395	1077.9414	1085.2577	1100.8134	1119.417	1132.6052	1138.7559	1159.5477	1215.6516	1239.9816	1281.9838	1330.2265	1337.9179	1346.3374	1371.1514	1393.8236	1409.2976	1415.374	1465.8054	1487.2683	1496.8164	1503.6792	1511.936	1520.9044	2947.4513	2981.5768	3030.1925	3042.517	3062.6648	3081.3106	3110.0348	3119.8328	3129.5607	3144.1372	3183.3083	3802.9605
CC1C2COC(C)C12O	C[C@H]1[C@H]2CO[C@@H](C)[C@@]12O	
InChI=1S/C7H12O2/c1-4-6-3-9-5(2)7(4,6)8/h4-6,8H,3H2,1-2H3	InChI=1S/C7H12O2/c1-4-6-3-9-5(2)7(4,6)8/h4-6,8H,3H2,1-2H3/t4-,5-,6+,7-/m0/s1
