23
gdb 100127	3.66607	0.70949	0.69056	1.4129	88.17	-0.2574	0.0602	0.3175	1727.5604	0.201898	-388.260107	-388.248657	-388.247712	-388.296689	41.921	
C	-0.0730461442	 1.5803412663	 0.1069176199	-0.414206
C	 0.0171990462	 0.0430068335	 0.0703440919	 0.257177
C	 0.6964478542	-0.4774701036	 1.3511876233	-0.414153
C	-1.4071797172	-0.5380902637	-0.0098501025	-0.090627
O	-2.1490964306	-0.1270115107	 1.1299053555	-0.427358
C	 0.7580539938	-0.4459530558	-1.1963207584	-0.20078
C	 2.2239145149	 0.0183613369	-1.3362189249	-0.380258
C	 2.8461305955	-0.4863202409	-2.5547314448	 0.296364
C	 3.3351930328	-0.9151075518	-3.5657799447	-0.436092
H	 0.9084540225	 2.0404771611	 0.2557328044	 0.108539
H	-0.4908375502	 1.9730784484	-0.8274524743	 0.104576
H	-0.721976096	 1.9001163525	 0.925337875	 0.13398
H	 0.0818345854	-0.2462118183	 2.2240831774	 0.133966
H	 0.8306756731	-1.5648083213	 1.3122462264	 0.104572
H	 1.6801482698	-0.0226159603	 1.5017005395	 0.108526
H	-1.8885605081	-0.1880798114	-0.937306131	 0.082193
H	-1.3466587353	-1.6371913897	-0.061901779	 0.08219
H	-3.033037161	-0.498287337	 1.0641834136	 0.288498
H	 0.7455262007	-1.5425060615	-1.220034013	 0.102901
H	 0.2097703694	-0.1118987399	-2.0856757222	 0.102893
H	 2.2743428677	 1.1136250282	-1.3358704696	 0.132912
H	 2.8093568311	-0.3147908679	-0.4711095439	 0.132902
H	 3.7795959655	-1.2867569733	-4.4552235284	 0.191284
52.8227	84.7183	108.3512	125.8813	213.7902	220.6283	237.8463	250.8963	284.5496	326.5993	349.8196	360.5347	378.857	414.8714	486.1764	598.4157	613.5584	633.1764	753.724	763.3924	896.8636	929.9318	955.2988	962.033	973.6366	1005.4433	1027.2862	1077.899	1088.9957	1172.1268	1198.047	1216.7301	1238.4654	1283.7113	1296.1413	1313.5557	1351.8701	1385.671	1399.7779	1414.1577	1458.4954	1472.6541	1482.0007	1489.0002	1500.4074	1500.708	1515.3909	1522.3052	2238.154	2960.4299	2993.0573	3020.8084	3029.6855	3034.3466	3036.276	3052.856	3076.0575	3095.2354	3098.9207	3123.9535	3127.5352	3509.1006	3839.4839
CC(C)(CO)CCC#C	CC(C)(CO)CCC#C	
InChI=1S/C8H14O/c1-4-5-6-8(2,3)7-9/h1,9H,5-7H2,2-3H3	InChI=1S/C8H14O/c1-4-5-6-8(2,3)7-9/h1,9H,5-7H2,2-3H3
