23
gdb 64483	2.46713	1.42233	1.18289	1.6016	81.72	-0.2446	0.0746	0.3193	1185.9393	0.205983	-425.423334	-425.414026	-425.413082	-425.456739	36.198	
C	-0.1291268458	 1.6138453367	 0.0105213895	-0.400258
C	-0.0123169254	 0.0814277244	-0.006587605	 0.223774
C	-1.4077068352	-0.5645884732	 0.0275751003	-0.42146
C	 0.6968286459	-0.3687638331	-1.3062238885	-0.099232
O	 1.8937923338	 0.3388206135	-1.5657725073	-0.24752
C	 3.0879575797	-0.1459606246	-0.9836113126	-0.060812
C	 2.9463377214	-0.7666442595	 0.4121051499	-0.108481
O	 2.125731145	-0.017935768	 1.2831701427	-0.241892
C	 0.7601520491	-0.3958751867	 1.2399328713	-0.092394
H	 0.859565435	 2.0735850394	 0.0519921072	 0.136094
H	-0.6375587271	 1.9802827925	-0.8878603402	 0.105803
H	-0.7040781854	 1.9459223685	 0.8819472367	 0.10216
H	-2.025634674	-0.2037225995	-0.801115628	 0.116362
H	-1.3497551879	-1.6568408228	-0.0473431222	 0.110211
H	-1.9306294626	-0.3227864096	 0.9591328547	 0.116209
H	 0.8612987988	-1.457923711	-1.2996101179	 0.083245
H	 0.0387592109	-0.1507137982	-2.1557032207	 0.101577
H	 3.5674573326	-0.8958250023	-1.6370182875	 0.0846
H	 3.7530622993	 0.7227421269	-0.9346881023	 0.112991
H	 2.5716076981	-1.7991483683	 0.3406647555	 0.091473
H	 3.9466017209	-0.8189983998	 0.8596078755	 0.105487
H	 0.3042990972	 0.0365346941	 2.1375152878	 0.102332
H	 0.6809949159	-1.4934552493	 1.3234113612	 0.079733
94.8167	163.7308	199.7614	228.7173	243.845	283.1322	288.571	319.8272	382.0406	401.4204	440.1338	469.1926	567.3673	613.651	766.1949	842.452	856.7586	902.8317	908.2398	947.9678	956.055	979.5526	1019.9014	1044.6837	1051.2845	1120.1994	1166.4696	1178.1502	1196.0447	1246.6864	1257.4782	1285.8227	1305.6017	1331.6598	1352.3657	1375.3997	1393.5896	1400.5232	1416.8426	1418.9123	1436.1535	1479.2234	1485.1933	1487.9209	1490.9643	1500.2454	1502.515	1508.4373	1513.8218	2954.6216	2955.9725	2976.4292	2992.9963	3024.5536	3033.1537	3047.5259	3052.6103	3063.5985	3072.0754	3090.2375	3092.9588	3099.8711	3136.9572
CC1(C)COCCOC1	CC1(C)COCCOC1	
InChI=1S/C7H14O2/c1-7(2)5-8-3-4-9-6-7/h3-6H2,1-2H3	InChI=1S/C7H14O2/c1-7(2)5-8-3-4-9-6-7/h3-6H2,1-2H3
