15
gdb 24777	4.21869	1.3748	1.05074	8.2238	76.01	-0.225	-0.026	0.199	1073.0405	0.11539	-416.842963	-416.83604	-416.835096	-416.874652	26.17	
O	 0.0312050887	-0.0399952306	 0.0017182701	-0.364863
C	-0.0224142266	 1.173802117	 0.0105365889	 0.395711
C	-1.3038368322	 1.9097779134	 0.0315486003	-0.426369
C	-1.2432505146	 3.2504841822	 0.0372474777	 0.450725
C	-2.0278893027	 4.5528163373	 0.0548322725	-0.374124
C	-0.6255455103	 5.2648771567	 0.0391054852	-0.176846
N	-0.0376428526	 3.9127319517	 0.0235316351	-0.078388
C	 1.136290713	 3.232327949	 0.0039613621	 0.068405
N	 1.180459087	 1.9442496474	-0.0029141855	-0.323496
H	-2.2296075018	 1.3500919449	 0.0415840999	 0.118169
H	-2.645232881	 4.7367231859	-0.8260131537	 0.147148
H	-2.6205786076	 4.727493078	 0.9542939911	 0.147146
H	-0.4030616033	 5.8515169793	-0.8556841694	 0.14128
H	-0.3780751286	 5.841770513	 0.9336734823	 0.141293
H	 2.0518641724	 3.8234011148	-0.0058858767	 0.134209
97.4638	132.9711	199.2844	366.0492	439.1303	460.6485	533.3182	555.4595	647.9675	769.7419	782.0772	797.6595	846.0305	875.1291	880.2322	943.8994	961.5374	1060.312	1101.9733	1132.6424	1145.5922	1190.7157	1193.8451	1232.3692	1282.2107	1304.7562	1412.4624	1460.3934	1483.745	1513.2941	1591.8086	1717.7241	1768.1725	3063.4293	3088.6013	3116.0605	3133.5144	3142.7168	3225.2593
O=C1C=C2CCN2C=N1	O=c1cc2CCn2cn1	
InChI=1S/C6H6N2O/c9-6-3-5-1-2-8(5)4-7-6/h3-4H,1-2H2	InChI=1S/C6H6N2O/c9-6-3-5-1-2-8(5)4-7-6/h3-4H,1-2H2
