16
gdb 54369	3.96073	1.41001	1.22056	3.5653	72.72	-0.2314	0.0224	0.2538	1011.9665	0.124076	-400.67102	-400.663477	-400.662533	-400.703287	29.221	
N	 0.0555525002	 1.2336572861	-0.3935122603	-0.542668
C	-0.0243155757	-0.0189492954	 0.1530892571	 0.243454
O	 0.9103460502	-0.5503705112	 0.7291634371	-0.376202
C	-1.3347505607	-0.6814354266	 0.0234117984	 0.309007
C	-2.737835511	-0.37722315	-0.5869729657	-0.211088
C	-3.3864486665	-1.251037042	 0.4762918877	-0.086776
C	-2.9455287407	-1.8625041969	-0.8445375277	-0.088177
C	-1.5528721862	-2.1814450536	-0.2221591606	-0.127187
C	-1.9892418834	-1.5762489605	 1.0845032701	-0.125518
H	 0.9631321972	 1.6693358847	-0.4245529729	 0.259137
H	-0.6635797189	 1.5854239824	-1.0012776296	 0.257244
H	-3.1422345051	 0.4776243174	-1.1140217124	 0.084188
H	-4.373363109	-1.1861253308	 0.9128560319	 0.094324
H	-3.5315770969	-2.3547064162	-1.6082080933	 0.09389
H	-0.7896039467	-2.9183441693	-0.4286564826	 0.107712
H	-1.6299024971	-1.7516657181	 2.0885726228	 0.108659
67.7667	155.228	165.4299	213.6383	364.1119	465.6354	540.2989	635.346	649.7751	731.5459	752.3809	764.3054	794.0517	794.8758	842.4659	870.2908	898.6308	902.8008	948.2483	973.2441	980.984	1004.7937	1019.7925	1051.2073	1073.0808	1119.0571	1164.7674	1165.5837	1259.6073	1262.1853	1296.9642	1336.3824	1434.4639	1613.2891	1771.4511	3186.6499	3201.1609	3215.3221	3217.2539	3226.8428	3598.3799	3733.6194
NC(=O)C12C3C4C3C1C24	NC(=O)[C@@]12[C@@H]3[C@H]4[C@@H]3[C@@H]1[C@@H]24	
InChI=1S/C7H7NO/c8-6(9)7-3-1-2(3)5(7)4(1)7/h1-5H,(H2,8,9)	InChI=1S/C7H7NO/c8-6(9)7-3-1-2(3)5(7)4(1)7/h1-5H,(H2,8,9)/t1-,2+,3-,4+,5-,7-
