21
gdb 41195	3.11588	1.69561	1.4227	1.6361	81.22	-0.2344	0.0848	0.3192	1002.9424	0.185806	-387.068857	-387.061829	-387.060885	-387.099743	29.964	
C	-0.0792564903	 1.5306376018	-0.0750169649	-0.247546
C	 1.4683556515	 1.6047548179	 0.165989625	-0.312376
C	 1.417921923	 0.1300965421	 0.5636941191	 0.462911
C	 2.3945360944	-1.0106597291	 0.4201980602	-0.300327
C	 1.5279946638	-2.3086792165	 0.4077630306	-0.203693
C	 0.2162122789	-2.1921881438	 1.240178153	-0.204544
C	-0.2699166672	-0.7351492361	 1.2968211312	 0.085228
O	 0.8230645499	 0.0113411361	 1.9042654766	-0.344863
C	-0.0119472092	-0.0311524089	-0.0338885406	-0.082437
H	-0.6706203767	 1.9683935801	 0.731066658	 0.112894
H	-0.4197750585	 1.9434304378	-1.0263902616	 0.09819
H	 2.0196845691	 1.7613839376	-0.7667727763	 0.098252
H	 1.8359446857	 2.2973489076	 0.9268402313	 0.106268
H	 2.9840958024	-0.9441969379	-0.5009830616	 0.091682
H	 3.0912077331	-0.998239758	 1.2653802232	 0.108399
H	 1.2597847306	-2.5178869177	-0.6333182935	 0.103398
H	 2.1134339864	-3.1683346942	 0.7462942064	 0.097779
H	-0.5519575961	-2.8524138119	 0.8195397233	 0.089907
H	 0.3862294567	-2.5081127817	 2.2751096707	 0.107694
H	-1.2164762712	-0.6076792628	 1.8342738448	 0.065067
H	-0.2227496962	-0.5513431024	-0.9689196349	 0.068118
206.5239	217.4879	262.8248	322.7647	377.8627	448.1153	471.6901	563.5202	659.1993	710.5164	745.8529	807.2629	821.0431	852.6066	873.9134	905.0507	918.5429	920.4897	935.0979	964.5326	999.5682	1027.3559	1053.7122	1092.9551	1102.63	1144.4777	1157.8249	1190.5059	1209.076	1217.3729	1228.8047	1244.2091	1270.1678	1284.4651	1298.9112	1326.3888	1338.6869	1356.4364	1369.5146	1385.2812	1463.5948	1474.3213	1478.2139	1482.5447	1506.9489	3027.7275	3035.5141	3044.0798	3048.5975	3051.6057	3070.8528	3075.0093	3078.4049	3093.6979	3101.8382	3110.0768	3133.331
C1CC23CCCC(O2)C13	C1C[C@@]23CCC[C@@H](O2)[C@@H]13	
InChI=1S/C8H12O/c1-2-7-6-3-5-8(6,4-1)9-7/h6-7H,1-5H2	InChI=1S/C8H12O/c1-2-7-6-3-5-8(6,4-1)9-7/h6-7H,1-5H2/t6-,7-,8-/m1/s1
