13
gdb 12350	3.29606	2.3141	1.42484	1.2377	54.52	-0.2768	-0.041	0.2359	802.3532	0.096319	-435.773484	-435.766788	-435.765844	-435.804438	24.727	
O	 0.4877348919	 0.5510026245	 0.9642543554	-0.430177
C	-0.0869038595	-0.2440430667	-0.0323199526	-0.010639
C	-1.5534643364	 0.1279107101	-0.2857294555	-0.189009
N	-2.0993705116	-0.6013672797	-1.4244801443	-0.231563
C	-1.3038420494	-0.9259449817	-2.3399888411	 0.133402
O	 0.0534932998	-0.6340668195	-2.4340102787	-0.209474
C	 0.6828397383	-0.1211236368	-1.3341733612	 0.411685
O	 1.7747476771	 0.3633134708	-1.4244567619	-0.32247
H	 1.3618134714	 0.8099863687	 0.6382852161	 0.302611
H	-0.053118064	-1.3145451598	 0.2416307669	 0.115756
H	-2.151720883	-0.0897605268	 0.6020199368	 0.138876
H	-1.6356895179	 1.2071177302	-0.4703454511	 0.139105
H	-1.6155636666	-1.4655203534	-3.228801589	 0.151897
118.8432	159.9249	289.8323	360.5054	372.801	452.8669	489.1997	510.7918	586.7243	681.776	777.2814	891.5465	943.5696	980.8861	1032.6852	1068.8821	1095.4835	1125.2269	1176.7313	1207.1954	1285.7158	1323.8457	1381.2446	1404.298	1440.5077	1490.9074	1748.8422	1863.007	2943.517	3035.7887	3102.0395	3199.2725	3737.2915
OC1CN=COC1=O	O[C@H]1CN=COC1=O	
InChI=1S/C4H5NO3/c6-3-1-5-2-8-4(3)7/h2-3,6H,1H2	InChI=1S/C4H5NO3/c6-3-1-5-2-8-4(3)7/h2-3,6H,1H2/t3-/m0/s1
