19
gdb 108851	2.93448	1.1306	0.88716	2.0274	79.34	-0.2403	-0.05	0.1904	1336.9597	0.158563	-423.068777	-423.059516	-423.058572	-423.103562	33.87	
C	-0.2300871376	 1.5389922361	-0.0383466486	-0.380195
C	 0.0758140682	 0.031706857	 0.0393055327	-0.291288
C	 0.7994264299	-0.4699870695	-1.1728565796	 0.216302
C	 2.0730814656	-0.8686006768	-1.3010096833	-0.22173
C	 2.4494075798	-1.2999118742	-2.70153882	 0.097881
O	 3.0594018778	-2.5846284587	-2.7334575956	-0.427953
C	 1.1253512774	-1.1815629273	-3.4877023136	-0.364113
C	 0.1202196	-0.5836278314	-2.4978213524	 0.331601
O	-1.0204035393	-0.2604187643	-2.7403080095	-0.328342
H	 0.6926894712	 2.1238138283	-0.1059795201	 0.11498
H	-0.8436115553	 1.7590120652	-0.9150212583	 0.148545
H	-0.7742874686	 1.8649038118	 0.8528869533	 0.116012
H	 0.6631866061	-0.1877041813	 0.9373388393	 0.102211
H	-0.8718989306	-0.5127267906	 0.1280448647	 0.121918
H	 2.8048836339	-0.9096287233	-0.4996041505	 0.11289
H	 3.213845336	-0.6322046313	-3.1150483485	 0.105981
H	 2.4628864701	-3.2023826765	-2.2953064619	 0.278256
H	 1.1929244458	-0.5583628841	-4.3834027849	 0.134233
H	 0.7838412097	-2.1692881691	-3.8137625432	 0.132813
53.7013	66.6949	118.0947	198.5002	207.4267	287.869	337.1165	361.7847	399.2453	494.0166	516.1678	583.9651	640.5438	698.5603	751.3575	798.7037	869.65	904.423	939.1731	960.2588	1035.8437	1059.6301	1073.4005	1093.7842	1111.0714	1146.1672	1206.9913	1257.2141	1275.1298	1283.4618	1312.1321	1351.7024	1358.5224	1403.5414	1424.4048	1449.2512	1478.0551	1496.5001	1511.3578	1690.5348	1806.4278	3033.6749	3042.5982	3045.8646	3063.2198	3074.8945	3108.2852	3110.8224	3133.1133	3181.7211	3794.5504
CCC1=CC(O)CC1=O	CCC1=C[C@@H](O)CC1=O	
InChI=1S/C7H10O2/c1-2-5-3-6(8)4-7(5)9/h3,6,8H,2,4H2,1H3	InChI=1S/C7H10O2/c1-2-5-3-6(8)4-7(5)9/h3,6,8H,2,4H2,1H3/t6-/m1/s1
