21
gdb 60642	2.85301	1.07521	0.91467	2.165	78.71	-0.2347	-0.0142	0.2206	1369.0512	0.180032	-424.232703	-424.222441	-424.221496	-424.269524	35.868	
C	 1.1270775578	 1.6857181106	 0.6738783962	-0.412218
C	 0.4725310795	 0.4321515184	 0.0567845382	-0.116796
C	 1.1969689487	 0.0301810044	-1.2234264626	 0.177995
C	 0.5137970858	-0.9762672264	-2.1741266916	-0.29644
C	 0.6097703797	 0.1584225123	-3.2122251986	-0.067196
O	 1.1319534894	 1.0757669907	-2.2270145493	-0.302293
C	 0.4756541776	-0.7186173274	 1.0628830408	 0.391616
C	-0.6275339831	-0.7197968877	 2.1057219021	-0.479256
O	 1.3178843601	-1.5887682515	 1.0265064162	-0.310668
H	 2.1518070878	 1.4687405296	 0.9924009998	 0.130682
H	 1.1595117567	 2.4789642453	-0.0768228986	 0.149888
H	 0.5698422399	 2.0531218282	 1.5403431925	 0.115269
H	-0.5685854673	 0.6790638359	-0.1919737781	 0.078051
H	 2.2368575452	-0.2256521199	-0.990139042	 0.090855
H	 1.0739275111	-1.8858780574	-2.3900456012	 0.119899
H	-0.5058716682	-1.2431986854	-1.8867846267	 0.102561
H	 1.3271202722	-0.0152973808	-4.0244283385	 0.102452
H	-0.3327445309	 0.5142152266	-3.6444831043	 0.102287
H	-1.5830090249	-0.9522083722	 1.6196376038	 0.142512
H	-0.4206970871	-1.4733389974	 2.8666304431	 0.142523
H	-0.7409657001	 0.2648692642	 2.5699977988	 0.138277
27.9627	67.688	79.2793	120.5775	145.7076	219.8146	235.7051	242.6072	337.1316	409.0567	431.3987	578.6112	601.223	753.4531	791.0954	815.8887	874.7044	943.3169	956.924	968.3223	982.6476	1010.1098	1026.3781	1054.9977	1091.1387	1125.8488	1161.7076	1170.1898	1198.5084	1220.6168	1254.544	1275.977	1310.3534	1324.0505	1360.2837	1381.2386	1398.4358	1407.7612	1462.2588	1474.779	1489.3342	1495.0931	1504.3806	1531.1373	1800.0863	3013.8714	3017.2805	3036.0227	3040.143	3044.8085	3055.0549	3075.9448	3098.7375	3111.2939	3128.4817	3138.9899	3152.0693
CC(C1CCO1)C(C)=O	C[C@@H]([C@H]1CCO1)C(=O)C	
InChI=1S/C7H12O2/c1-5(6(2)8)7-3-4-9-7/h5,7H,3-4H2,1-2H3	InChI=1S/C7H12O2/c1-5(6(2)8)7-3-4-9-7/h5,7H,3-4H2,1-2H3/t5-,7-/m1/s1
