20
gdb 110398	5.57036	0.98245	0.96943	1.0288	80.51	-0.2119	0.0863	0.2982	1308.8917	0.170047	-403.032103	-403.023766	-403.022822	-403.065055	31.882	
C	 0.0569080217	 1.3572064055	-0.3718816276	-0.238709
O	-0.0471561208	 0.1598410299	 0.3659360091	-0.255003
C	-1.2989016255	-0.4616809003	 0.2435009532	 0.129609
C	-1.5572740566	-1.3531750849	-0.9890986407	-0.105701
C	-0.6776933533	-2.5084380937	-0.414981691	-0.004364
C	-1.3589536473	-1.8615816378	 0.8546393043	-0.122084
C	-2.4738418422	-2.3070783164	-0.1658455919	-0.023712
N	-1.7526962711	-3.5141817738	-0.6755896983	-0.116961
C	-1.7614706356	-4.6795279658	 0.2024533009	-0.324726
H	 1.0478111633	 1.7746325572	-0.1777077538	 0.127263
H	-0.0494765647	 1.1869194907	-1.4537317513	 0.107307
H	-0.7036760615	 2.0915437523	-0.0630165852	 0.10416
H	-2.1092811243	 0.233354336	 0.5144294513	 0.060998
H	-1.6831993434	-1.1088968297	-2.0428894292	 0.081493
H	 0.3800582086	-2.702982776	-0.5886334806	 0.087893
H	-1.2445264064	-2.1383172484	 1.9013701344	 0.08208
H	-3.5573679913	-2.2601112428	-0.0457947848	 0.07933
H	-2.7276783001	-5.187946547	 0.1162127786	 0.117465
H	-0.9870267994	-5.3808880021	-0.1257349717	 0.118812
H	-1.58799663	-4.4510483427	 1.2675487242	 0.094849
80.2852	137.3945	176.3047	221.2065	237.3236	284.2009	327.2131	446.1056	514.189	601.7477	740.5695	765.9411	817.2438	824.1774	849.6161	877.0319	926.8036	950.4316	983.8834	1014.0061	1028.7175	1088.7234	1110.0387	1125.3509	1136.824	1150.7819	1154.7851	1163.1626	1183.6967	1184.3264	1198.5909	1207.5552	1226.9282	1263.4409	1299.6653	1321.5423	1400.8163	1447.9305	1483.5593	1488.5544	1492.6912	1498.2829	1509.3021	2964.3712	2972.625	2982.2941	3023.0262	3060.9036	3096.1446	3100.8186	3114.6947	3119.891	3128.9097	3137.4957
COC1C2C3C1C2N3C	CO[C@H]1[C@H]2[C@H]3[C@@H]1[C@@H]2N3C	
InChI=1S/C7H11NO/c1-8-5-3-6(8)4(5)7(3)9-2/h3-7H,1-2H3	InChI=1S/C7H11NO/c1-8-5-3-6(8)4(5)7(3)9-2/h3-7H,1-2H3/t3-,4+,5-,6+,7-
