19
gdb 39045	2.45139	2.19682	1.77566	1.565	78.1	-0.2288	0.0063	0.2351	879.9595	0.162822	-385.862956	-385.856563	-385.855619	-385.893225	27.587	
C	 0.0508459685	 1.6624600232	 0.0400313107	-0.250265
C	 1.5959452646	 1.4732410117	-0.1088132269	-0.06613
C	 2.3764017026	 1.5876353382	 1.2154504259	-0.253555
C	 1.6673455808	 1.0210184469	 2.4251502368	-0.060173
C	 0.7918417326	 0.0140226264	 2.3938169666	-0.046727
C	 0.4656494981	-0.7116138593	 1.121766469	 0.039585
O	 1.6791788082	-1.0069399603	 0.358702598	-0.292815
C	 1.3304807614	-0.0019037187	-0.5941255576	 0.124564
C	-0.1136673344	 0.138581515	-0.0773002693	-0.083655
H	-0.3020136458	 2.1436741216	 0.9555100812	 0.100794
H	-0.3891509391	 2.1725270379	-0.8214033302	 0.098029
H	 2.0657754574	 2.1108017901	-0.8624238977	 0.069496
H	 3.3556715367	 1.1031758803	 1.1021322	 0.125287
H	 2.5846885398	 2.6480456538	 1.404576447	 0.099728
H	 1.8962246913	 1.491612362	 3.3785601295	 0.090653
H	 0.3047305558	-0.317776647	 3.3064215993	 0.084953
H	-0.0881594226	-1.6342914204	 1.3178317097	 0.078927
H	 1.6286257026	-0.2553084299	-1.6140858583	 0.070524
H	-0.9882721385	-0.2908583914	-0.5659532937	 0.070782
211.8932	291.2953	309.5773	371.4433	463.0631	499.577	600.1339	671.2421	692.4233	757.5112	765.6072	818.8571	843.0423	873.6464	897.4039	900.8421	950.3286	976.6201	982.5679	1000.7209	1033.7759	1050.7214	1078.4826	1084.7908	1121.9594	1152.5464	1205.3815	1212.45	1227.186	1242.9688	1274.4143	1283.0981	1307.7905	1316.3419	1326.3214	1366.2863	1376.6619	1415.2981	1461.8818	1481.5787	1705.7779	3016.8727	3047.4665	3055.4312	3059.8682	3066.954	3084.0315	3106.3873	3111.6092	3146.0636	3172.481
C1C2CC=CC3OC2C13	C1[C@H]2CC=C[C@@H]3O[C@H]2[C@H]13	
InChI=1S/C8H10O/c1-2-5-4-6-7(3-1)9-8(5)6/h1,3,5-8H,2,4H2	InChI=1S/C8H10O/c1-2-5-4-6-7(3-1)9-8(5)6/h1,3,5-8H,2,4H2/t5-,6-,7+,8-/m1/s1
