20
gdb 60153	4.10935	0.76599	0.75456	3.6248	77.67	-0.2573	0.0313	0.2887	1592.4619	0.169612	-440.290707	-440.281153	-440.280209	-440.32579	35.22	
C	 0.1461238008	 1.5841841349	 0.2570861864	-0.409655
C	 0.0070994608	 0.08147806	 0.0236225504	 0.137578
O	 0.9257327871	-0.6593344536	 0.8259012836	-0.430874
C	-1.4319034919	-0.4132727615	 0.2381970602	-0.220624
C	-1.6007192892	-1.877477212	-0.1116633059	 0.135987
C	-3.0283143703	-2.4625241	-0.1593944594	-0.390375
C	-2.7408463254	-2.6395072085	-1.6352240141	 0.440297
N	-3.3784268009	-3.1001054697	-2.6114847718	-0.54072
O	-1.4706798539	-2.1065786879	-1.5638351011	-0.267573
H	 1.1845874857	 1.8945733035	 0.1144935413	 0.128718
H	-0.4852681329	 2.1535771872	-0.4323101556	 0.122092
H	-0.1544996624	 1.8499688235	 1.2790856451	 0.105838
H	 0.2961848091	-0.1528694089	-1.0072171041	 0.112074
H	 0.8019621979	-0.3847595438	 1.7416577841	 0.276352
H	-1.7115167967	-0.2693142289	 1.2922985437	 0.092361
H	-2.1271964593	 0.1852402324	-0.3631274662	 0.105022
H	-0.8637525238	-2.4888100583	 0.4138446379	 0.107558
H	-3.1898483608	-3.3911123899	 0.3900607328	 0.137192
H	-3.833848562	-1.7604751808	 0.066070337	 0.132339
H	-2.8251595118	-3.0512158877	-3.4689441743	 0.226412
61.4119	65.0368	113.2649	154.1687	243.3907	291.3775	313.9898	326.6233	421.4099	451.6369	479.0918	497.3364	523.8918	717.3113	823.9927	834.5347	865.6035	874.229	933.297	945.2711	961.6207	1022.1444	1023.5818	1066.4686	1084.2569	1097.2809	1148.5898	1155.6797	1216.8983	1231.5425	1249.368	1285.6954	1325.7484	1343.5714	1378.7508	1402.1547	1409.6596	1425.0787	1461.5358	1465.8823	1491.1364	1496.7583	1824.3537	3006.5043	3021.5053	3051.7156	3063.8117	3083.3754	3094.3343	3097.5046	3120.8786	3139.1461	3473.8099	3793.6818
CC(O)CC1CC(=N)O1	C[C@@H](O)C[C@H]1C[C]([NH])O1	
InChI=1S/C6H11NO2/c1-4(8)2-5-3-6(7)9-5/h4-5,7-8H,2-3H2,1H3	InChI=1S/C6H11NO2/c1-4(8)2-5-3-6(7)9-5/h4-5,7-8H,2-3H2,1H3/t4-,5+/m1/s1
