16
gdb 14914	4.87208	1.46138	1.19414	1.8102	66.74	-0.2597	0.0322	0.2919	980.7204	0.130953	-383.701841	-383.69462	-383.693676	-383.733214	27.573	
C	 0.0315686754	-1.1971216955	-0.0377317209	-0.411747
C	 0.0448296026	 0.0031702268	-0.0060100069	 0.302094
C	 0.0129410136	 1.4590081553	 0.0519548399	-0.066904
C	-0.7274336654	 1.988986986	 1.2957792633	-0.208755
C	-0.5782317971	 3.5116150726	 1.3416855242	-0.09684
O	 0.7908093353	 3.882386809	 1.2508650407	-0.231066
C	 1.3759397481	 3.3579990426	 0.091177998	 0.024085
O	 1.3548671634	 1.9529421102	 0.0505862686	-0.248218
H	 0.0320902233	-2.2586509167	-0.0722436607	 0.199181
H	-0.5020038086	 1.8391575499	-0.8493144754	 0.09488
H	-1.7826862307	 1.7005515502	 1.2597861131	 0.110237
H	-0.2758559219	 1.5425077488	 2.1862139348	 0.126633
H	-1.1462563611	 3.9725126924	 0.5149832202	 0.090631
H	-0.9537725422	 3.9238905765	 2.2813851739	 0.117402
H	 0.8634929507	 3.7632088897	-0.8038934167	 0.075154
H	 2.4256324546	 3.6562771423	 0.094504644	 0.123232
114.862	150.1201	255.5913	276.626	398.032	414.317	467.0484	530.2209	546.2403	624.6939	666.3235	676.9458	838.086	875.9112	923.327	983.6094	1043.2255	1048.2558	1054.1761	1111.8409	1146.2263	1197.8512	1229.2157	1267.6204	1308.0757	1332.6838	1362.6886	1385.2691	1397.1893	1444.1433	1467.7325	1494.6273	1507.1989	2247.3968	2908.4868	2934.9151	2960.9309	3056.7971	3097.1901	3111.4827	3120.3779	3503.9952
C#CC1CCOCO1	C#C[C@H]1CCOCO1	
InChI=1S/C6H8O2/c1-2-6-3-4-7-5-8-6/h1,6H,3-5H2	InChI=1S/C6H8O2/c1-2-6-3-4-7-5-8-6/h1,6H,3-5H2/t6-/m0/s1
