23
gdb 74488	2.66107	1.31171	0.98381	0.2861	94.51	-0.2126	0.0338	0.2464	1307.3973	0.207261	-351.175529	-351.166802	-351.165858	-351.208476	35.029	
C	 0.0123788936	 1.5245976672	-0.0320892665	-0.471532
C	-0.0116656627	 0.0214358606	 0.0177214896	 0.279692
C	-1.1522991867	-0.6766485281	-0.0050801843	-0.191117
C	-1.2277116619	-2.1591652351	 0.0002482563	 0.366336
C	-2.2180896608	-2.8109969062	 0.9555546705	-0.301922
C	-2.4872920374	-2.815411003	-0.5241603506	-0.320784
C	 0.10519614	-2.8446468716	-0.2579724917	-0.286941
C	 1.2278254098	-2.139999745	 0.5125052412	-0.214957
C	 1.3338339723	-0.6677638345	 0.0910279017	-0.28285
H	 0.5957945314	 1.8831645214	-0.8908849403	 0.118507
H	-0.9942991184	 1.9447947837	-0.1095262639	 0.115942
H	 0.4906709224	 1.9456335842	 0.8622666428	 0.117945
H	-2.1022158198	-0.1440567312	-0.0345640382	 0.068722
H	-1.9222146688	-3.7424886664	 1.4275305286	 0.109244
H	-2.819025127	-2.1635392446	 1.5849742053	 0.109415
H	-3.2754656591	-2.1743092193	-0.9056550193	 0.109061
H	-2.3768851069	-3.7514452417	-1.0624526956	 0.107928
H	 0.0482313249	-3.9040856393	 0.0159676536	 0.08643
H	 0.3290907124	-2.8077235741	-1.3333049993	 0.09515
H	 1.013582355	-2.1944721632	 1.5871440776	 0.100248
H	 2.1844032616	-2.6489306608	 0.3521982199	 0.087841
H	 1.8338163161	-0.5898580994	-0.8870843376	 0.101982
H	 1.98364486	-0.1232175436	 0.7892612801	 0.09566
99.5779	145.1742	204.5916	224.299	257.8963	347.96	380.3678	383.834	444.6755	454.4372	518.2733	568.5122	735.467	778.4361	807.562	849.5216	859.9407	889.3831	914.7573	946.6718	953.2977	967.8285	989.9685	1043.5963	1047.1301	1055.0904	1064.9674	1074.1033	1108.5235	1163.5196	1179.9175	1191.433	1217.8313	1264.4804	1301.9152	1327.2897	1363.0775	1372.0794	1384.3753	1402.3813	1415.4227	1465.8459	1474.3389	1479.9076	1486.3479	1492.8037	1497.0856	1500.0747	1732.8312	2987.1093	3008.6254	3009.0604	3020.9116	3034.5771	3052.1589	3062.0488	3072.3874	3105.6315	3122.3292	3125.5708	3129.1709	3201.3815	3217.393
CC1=CC2(CC2)CCC1	CC1=CC2(CC2)CCC1	
InChI=1S/C9H14/c1-8-3-2-4-9(7-8)5-6-9/h7H,2-6H2,1H3	InChI=1S/C9H14/c1-8-3-2-4-9(7-8)5-6-9/h7H,2-6H2,1H3
