22
gdb 87391	2.02441	1.53698	1.07138	2.6083	82.85	-0.2226	0.0707	0.2933	1236.2366	0.19271	-404.307131	-404.297415	-404.296471	-404.34122	37.002	
C	-0.7556629326	 1.2707977569	-0.0649388388	-0.410962
C	 0.0428880146	-0.0227556748	-0.1613430931	-0.048191
C	 1.4319960964	 0.0354135467	-0.8684585219	-0.288298
C	 2.022258271	-0.8889427816	 0.2345409457	 0.086744
O	 3.2979521329	-0.6230924949	 0.7582761579	-0.429613
C	 0.7750775129	-0.5906215783	 1.0771120708	 0.311585
C	 0.7508383582	-0.0586101857	 2.4667184178	-0.329022
N	 0.2972291721	-1.4173958993	 2.164903503	-0.132489
C	-1.1339508693	-1.6718144584	 2.2522988184	-0.32188
H	-0.1652493722	 2.0636186134	 0.4069438541	 0.111896
H	-1.0468349989	 1.6198777091	-1.0620969567	 0.117853
H	-1.6729459645	 1.1442339919	 0.5199273929	 0.118381
H	-0.5769040135	-0.8063233814	-0.6139712628	 0.078615
H	 1.4925799801	-0.3087703143	-1.9028224194	 0.103062
H	 1.864072356	 1.0407260719	-0.806650044	 0.091412
H	 2.0416798432	-1.9382235788	-0.0758928629	 0.095905
H	 3.3076327855	 0.2931610351	 1.0557977461	 0.275838
H	 1.6690637072	 0.0106709451	 3.0456314317	 0.114235
H	-0.0019936891	 0.6920397069	 2.7067156179	 0.105217
H	-1.7627748898	-0.8122546386	 1.9693726228	 0.102304
H	-1.3916033575	-2.5129129224	 1.6003977718	 0.122685
H	-1.3846218025	-1.9519159285	 3.2802364888	 0.124724
80.4291	150.6543	166.6898	193.1473	221.4737	232.7451	272.6284	312.5268	344.7704	392.6401	472.9323	486.1251	543.2067	564.5835	676.4879	793.559	829.0251	878.986	908.3778	933.2985	963.6337	1031.7673	1052.28	1066.2189	1073.8689	1116.3479	1133.244	1146.3044	1166.2448	1177.1007	1194.9552	1212.1614	1224.4655	1265.1485	1286.3234	1315.5046	1367.3455	1399.6535	1412.7745	1438.2048	1450.4091	1483.5226	1491.0967	1492.9035	1496.6501	1500.4644	1510.4235	2975.1964	3025.4684	3030.0483	3044.2582	3066.8539	3068.3123	3080.8546	3091.849	3097.3514	3101.5577	3114.248	3167.6514	3802.8935
CC1CC(O)C11CN1C	C[C@H]1C[C@@H](O)[C@]21CN2C	
InChI=1S/C7H13NO/c1-5-3-6(9)7(5)4-8(7)2/h5-6,9H,3-4H2,1-2H3	InChI=1S/C7H13NO/c1-5-3-6(9)7(5)4-8(7)2/h5-6,9H,3-4H2,1-2H3/t5-,6+,7+,8?/m0/s1
