23
gdb 118294	2.4644	0.71117	0.57955	3.4665	85.05	-0.2448	-0.0147	0.2301	1950.3643	0.201725	-425.440477	-425.429019	-425.428075	-425.478976	39.406	
C	-0.1255341531	 1.5282414568	 0.0172789074	-0.384014
C	-0.0200945722	 0.0201049855	 0.1733867756	-0.037809
O	-1.3074154859	-0.5377918407	-0.0136600426	-0.257651
C	-1.3643290565	-1.9582047368	-0.0305827254	 0.145001
C	-1.2723263576	-2.5511789722	 1.3782579055	-0.405719
C	-2.6812224315	-2.334639295	-0.715672812	-0.205947
C	-2.7716846283	-1.8191302687	-2.1609512046	-0.275756
C	-4.1508306202	-2.0019004633	-2.7435890356	 0.157032
O	-4.4022575454	-2.5715082294	-3.7745531879	-0.241972
H	 0.8536447591	 1.9948432641	 0.1605006597	 0.116073
H	-0.4922340294	 1.7881354841	-0.9798869465	 0.125019
H	-0.8182447131	 1.942434993	 0.7553575656	 0.127622
H	 0.6827735017	-0.3973588323	-0.5668665646	 0.087199
H	 0.3758131419	-0.2288416022	 1.1700317736	 0.090716
H	-0.5257537479	-2.3422642165	-0.6374336762	 0.065774
H	-0.3266932136	-2.2926406156	 1.862548512	 0.119201
H	-2.0902442957	-2.176157165	 2.0017258939	 0.123962
H	-1.3369687497	-3.6432012638	 1.340164732	 0.117409
H	-2.7918821904	-3.4246192464	-0.697163131	 0.108219
H	-3.5053736153	-1.9186134842	-0.1215559297	 0.10898
H	-2.5522263792	-0.7433302514	-2.1454408293	 0.135276
H	-2.0456041154	-2.3113010702	-2.8150746205	 0.113733
H	-4.9664928524	-1.5534049399	-2.1265897394	 0.067655
44.1072	53.9954	63.629	90.2703	121.2833	161.5695	213.4411	217.2888	252.5909	301.439	329.9459	421.0222	473.3556	506.4533	538.8214	760.1264	814.0058	821.1032	867.7336	900.1401	959.6091	996.233	1025.3244	1044.5095	1096.3655	1118.5485	1139.5219	1154.6704	1173.5014	1187.6895	1221.805	1260.813	1296.1866	1317.005	1346.4657	1370.3231	1394.2368	1401.9283	1404.7952	1430.308	1436.1909	1464.4163	1480.827	1483.0155	1489.916	1497.838	1500.186	1530.2572	1834.944	2843.0016	2949.7592	2964.8289	2996.8595	3025.2042	3032.7585	3039.8716	3044.4262	3072.2818	3100.861	3111.5121	3115.4071	3119.2222	3121.1193
CCOC(C)CCC=O	CCO[C@@H](C)CCC=O	
InChI=1S/C7H14O2/c1-3-9-7(2)5-4-6-8/h6-7H,3-5H2,1-2H3	InChI=1S/C7H14O2/c1-3-9-7(2)5-4-6-8/h6-7H,3-5H2,1-2H3/t7-/m0/s1
