15
gdb 29740	3.47346	1.33327	0.96934	2.1678	78.7	-0.2001	-0.0017	0.1984	1141.7893	0.112429	-416.823166	-416.814456	-416.813512	-416.857371	31.392	
C	-0.001716797	 1.4540333672	 0.0686898689	-0.346812
N	 0.0228576885	 0.0048956717	 0.0263727647	-0.137845
C	 0.0699431601	-0.7844930105	-1.0703087097	 0.442055
O	 0.0747789337	-0.2309844154	-2.2930414042	-0.430052
N	 0.1056332711	-2.0689523703	-0.8031057713	-0.361902
C	 0.0854314073	-2.131902519	 0.5684067314	-0.195447
C	 0.0365880988	-0.8732964576	 1.1242018202	 0.138034
C	-0.0046232453	-0.4245612452	 2.4533860255	 0.269948
C	-0.041496247	-0.0251820305	 3.5911118747	-0.469422
H	 0.9730016791	 1.8566928773	 0.3619224206	 0.147204
H	-0.2589429792	 1.8268916077	-0.9227314239	 0.160578
H	-0.7498016808	 1.7895808477	 0.7901899042	 0.154135
H	 0.0911393004	-0.9652759682	-2.9200878124	 0.317088
H	 0.1038438834	-3.0739782925	 1.0933631912	 0.121618
H	-0.0721292732	 0.3128788076	 4.5969387902	 0.190819
28.4813	116.488	138.2829	188.4187	288.4579	310.9831	413.4041	415.7763	460.4003	499.831	539.9314	592.7853	658.9726	686.5341	717.91	728.1592	780.8035	845.2628	985.1714	1136.007	1155.7009	1183.3625	1227.3136	1294.4856	1303.3001	1357.1575	1453.3969	1487.4275	1504.819	1542.2122	1593.3065	1604.9204	2220.8653	3048.1572	3116.1202	3160.3854	3260.8701	3502.9131	3802.0508
CN1C(O)=NC=C1C#C	Cn1c(O)ncc1C#C	
InChI=1S/C6H6N2O/c1-3-5-4-7-6(9)8(5)2/h1,4H,2H3,(H,7,9)	InChI=1S/C6H6N2O/c1-3-5-4-7-6(9)8(5)2/h1,4H,2H3,(H,7,9)
