16
gdb 18631	3.1073	2.02381	1.74707	2.5562	64.33	-0.2352	-0.0099	0.2253	814.2973	0.131543	-383.756069	-383.749092	-383.748148	-383.787201	26.982	
O	 0.0398926449	 1.3722695695	 0.054836235	-0.412796
C	-0.0217715154	-0.0196401112	-0.0278865905	 0.098073
C	-1.3480729427	-0.6787809948	 0.0378220963	-0.089926
C	-2.5848739456	 0.1955017439	-0.1979059509	-0.223626
C	-2.3791847974	 0.8833431811	-1.5614330927	-0.320868
C	-1.2823248145	 0.0857250272	-2.2768361248	 0.419196
O	-1.0679981377	 0.0905452677	-3.4644806652	-0.335221
C	-0.5483043659	-0.7438610685	-1.2686604705	-0.222461
H	 0.7939410237	 1.6730529725	-0.4639746508	 0.29603
H	 0.8020852739	-0.5368916339	 0.4633981955	 0.100914
H	-1.4549461314	-1.5557893711	 0.6663291307	 0.097821
H	-3.4679569649	-0.4500873905	-0.2270244437	 0.109437
H	-2.7302404122	 0.9114225173	 0.6155211918	 0.117969
H	-3.2781839774	 0.9139520821	-2.181012658	 0.123433
H	-2.0191276051	 1.9100284966	-1.4461733796	 0.138115
H	-0.0165857423	-1.6184115878	-1.6224811425	 0.103908
98.1829	175.709	224.2835	342.4001	388.8837	450.4928	510.1503	603.9163	640.2888	673.5844	743.2338	783.719	829.9385	847.6804	948.6548	974.5946	986.3472	1028.3064	1038.7133	1089.1489	1112.5407	1166.4264	1193.9163	1227.5696	1238.1268	1269.1415	1290.6925	1322.378	1334.3593	1363.6441	1444.6579	1458.5674	1500.4405	1827.1693	3055.2067	3067.9149	3094.4541	3103.9245	3119.2884	3172.2868	3195.5581	3804.3085
OC1C2CCC(=O)C12	O[C@H]1[C@H]2CCC(=O)[C@@H]12	
InChI=1S/C6H8O2/c7-4-2-1-3-5(4)6(3)8/h3,5-6,8H,1-2H2	InChI=1S/C6H8O2/c7-4-2-1-3-5(4)6(3)8/h3,5-6,8H,1-2H2/t3-,5-,6-/m0/s1
