15
gdb 51456	3.45455	1.30053	1.22075	3.1029	66.32	-0.2554	0.0001	0.2555	1040.7273	0.11355	-453.918934	-453.911563	-453.910619	-453.951536	26.986	
N	-0.2298480694	 1.133113382	 0.0748140749	-0.437013
C	-0.4910671579	-0.0574795233	-0.2402793868	 0.135992
O	-0.881456095	-0.9299609481	 0.7277457171	-0.188199
C	-0.9811985938	-2.2672790774	 0.3485734446	 0.050674
C	-2.1671332889	-3.0429382796	 0.8295710189	 0.011062
O	-3.284791835	-2.2717851465	 1.2264706148	-0.194902
C	-3.6756996946	-1.5957792751	 0.1170101204	 0.126143
N	-3.070788811	-1.8164332077	-0.9812245356	-0.26003
C	-2.0121880712	-2.7423564569	-0.668409677	-0.098334
H	 0.0258540479	 1.6628324507	-0.7560620703	 0.233214
H	-0.4548571356	-0.5085752146	-1.2381969918	 0.106461
H	-0.0394714404	-2.8118041057	 0.3458251554	 0.119776
H	-2.0911989585	-3.9890687769	 1.3484836313	 0.125474
H	-4.5021920943	-0.9135396324	 0.2673893543	 0.15771
H	-1.7282305425	-3.4516306285	-1.4362604902	 0.111971
70.8076	118.3603	147.6531	220.5485	311.5471	450.9408	577.8822	616.6597	705.511	756.8908	778.3882	817.0211	830.2248	884.9974	945.5275	957.8038	997.3054	1039.9721	1044.1362	1072.2797	1081.7516	1096.388	1110.6115	1149.184	1231.0972	1282.0274	1284.1704	1325.4241	1353.0131	1400.7581	1420.8076	1663.0105	1748.83	3062.8701	3131.551	3186.1491	3207.2251	3244.5604	3518.6608
N=COC1C2OC=NC12	[NH][CH]O[C@H]1[C@H]2OC=N[C@@H]12	
InChI=1S/C5H6N2O2/c6-1-8-4-3-5(4)9-2-7-3/h1-6H	InChI=1S/C5H6N2O2/c6-1-8-4-3-5(4)9-2-7-3/h1-6H/t3-,4+,5-/m0/s1
