21
gdb 56161	3.23299	0.99304	0.85803	2.9311	79.79	-0.2371	-0.0139	0.2232	1439.128	0.178424	-424.224564	-424.214179	-424.213235	-424.260766	37.456	
C	 0.2999021128	 1.1726762095	 0.2009672954	-0.478755
C	 0.1484456735	-0.310804737	-0.089259404	 0.378018
O	 0.5568933108	-1.1637043376	 0.6607074812	-0.282982
C	-0.5672270208	-0.6427520892	-1.4042299714	-0.198691
O	-0.9834413587	-1.9780324192	-1.4912170225	-0.266668
C	-0.2028534544	-2.8296755359	-2.3002839393	 0.425369
C	-0.4839314117	-2.6852578947	-3.779871043	-0.442892
C	 1.175487196	-3.2063405229	-1.8144121375	-0.331232
C	 0.0220098883	-4.1863848359	-1.7088498552	-0.305674
H	 0.6159126909	 1.725575721	-0.6902494339	 0.133629
H	-0.6691128972	 1.5851546682	 0.5064983148	 0.148341
H	 1.0179362085	 1.3202343701	 1.0082836807	 0.147464
H	-1.4507048439	 0.0064058528	-1.4885212545	 0.11815
H	 0.1071957474	-0.3533205181	-2.2248514726	 0.118116
H	-0.2224345681	-1.685847173	-4.1472907383	 0.109681
H	 0.0962882489	-3.4100065672	-4.3581089391	 0.117648
H	-1.5468490623	-2.852196449	-3.983104356	 0.124473
H	 1.9456880876	-3.3894649731	-2.5565896938	 0.103875
H	 1.5130104692	-2.7589411296	-0.8884070151	 0.145462
H	-0.3861099743	-4.3501799066	-0.7187622379	 0.130299
H	-0.0014980925	-5.0473028226	-2.3680385479	 0.106368
50.7086	59.209	91.6976	104.3746	215.2741	231.7134	247.2301	300.5436	346.4135	380.3244	418.5406	455.4042	529.7908	617.7725	697.4179	784.3977	804.1669	848.1267	869.7279	914.0463	931.55	968.357	969.269	1039.3603	1061.3178	1086.6965	1094.9977	1135.386	1139.1862	1187.8858	1195.2685	1273.1625	1307.2301	1340.144	1378.8848	1392.7068	1416.0954	1449.7282	1454.2988	1464.8667	1476.3597	1483.9337	1488.7553	1505.5221	1825.6061	2989.5065	3027.7278	3030.8271	3036.3149	3088.7965	3096.5533	3112.9198	3136.4891	3140.1578	3153.1996	3229.1776	3243.9342
CC(=O)COC1(C)CC1	CC(=O)COC1(C)CC1	
InChI=1S/C7H12O2/c1-6(8)5-9-7(2)3-4-7/h3-5H2,1-2H3	InChI=1S/C7H12O2/c1-6(8)5-9-7(2)3-4-7/h3-5H2,1-2H3
