22
gdb 17130	5.30345	1.06298	1.00284	0.0942	82.76	-0.2629	0.0883	0.3511	1275.8063	0.200707	-313.051919	-313.043422	-313.042478	-313.085119	32.515	
C	-0.2309782431	 1.5036791216	-0.0512861335	-0.389408
C	-0.0143303274	-0.006936409	-0.0466552484	 0.032766
C	 1.2261618369	-0.4810751432	-0.861147978	-0.248214
C	 2.0295885619	-0.6027797446	 0.4680155985	 0.055058
C	 0.6763888597	-0.5534855951	 1.2383421852	-0.24821
C	 2.9334729704	-1.7878543388	 0.6638386535	 0.017538
C	 4.3884068396	-1.720683217	 0.2669381251	-0.271647
C	 4.0063235816	-1.7710372803	 1.7257166161	-0.271645
H	 0.6881332174	 2.0421081415	 0.2079582838	 0.111646
H	-0.551192001	 1.854105689	-1.0389073772	 0.110882
H	-0.9995595116	 1.7950507274	 0.6733632087	 0.110882
H	-0.9517435327	-0.506678551	-0.3093624776	 0.062275
H	 1.0662830565	-1.4606578425	-1.3227385941	 0.091908
H	 1.6138057893	 0.200075889	-1.6245865063	 0.089677
H	 2.6008775188	 0.3149869946	 0.6492657937	 0.06016
H	 0.6290815462	 0.0703784151	 2.1359105659	 0.089676
H	 0.3275664689	-1.5579537848	 1.4982955512	 0.091909
H	 2.4455974951	-2.7475615493	 0.5029237477	 0.072513
H	 4.8458360067	-2.5981212994	-0.1768541822	 0.10813
H	 4.7610489683	-0.7805906354	-0.1270967041	 0.107988
H	 4.122338895	-0.8647632884	 2.3114704926	 0.107988
H	 4.2026064837	-2.6828895295	 2.2789694992	 0.10813
71.1925	84.365	149.1273	243.5239	265.0441	303.4072	327.3148	428.068	447.5624	640.7378	777.6797	795.1783	812.9363	825.217	869.4591	897.9497	907.4708	921.1104	946.5975	972.8276	1004.6174	1048.5881	1054.1128	1056.3849	1075.1974	1116.9807	1136.5165	1138.7155	1197.1715	1214.3291	1226.6625	1227.5486	1252.8209	1268.4176	1277.9466	1281.1979	1322.4097	1367.4247	1411.4184	1431.4658	1468.0835	1474.0051	1494.3971	1497.8011	1499.952	1504.529	3021.7404	3032.7508	3040.6734	3041.5547	3053.8945	3089.0082	3089.3196	3094.4202	3098.2525	3120.2878	3126.7235	3132.0464	3204.3094	3219.5406
CC1CC(C1)C1CC1	C[C@H]1C[C@@H](C1)C1CC1	
InChI=1S/C8H14/c1-6-4-8(5-6)7-2-3-7/h6-8H,2-5H2,1H3	InChI=1S/C8H14/c1-6-4-8(5-6)7-2-3-7/h6-8H,2-5H2,1H3/t6-,8-
