15
gdb 125366	3.28815	1.81648	1.17863	4.2482	72.51	-0.2158	0.0188	0.2346	981.361	0.116206	-413.031089	-413.023964	-413.02302	-413.062543	26.97	
C	-0.0186023599	 1.5052830116	 0.104694048	-0.491855
C	-0.008858476	 0.0235360985	-0.0084718593	 0.281161
C	-0.0318405033	-0.8111440962	-1.0878625719	-0.173677
N	-0.0078609363	-2.1391504114	-0.6511108191	-0.421773
C	 0.0300972718	-2.1265737341	 0.7100155851	 0.496564
N	 0.0664576154	-2.9454056906	 1.7493613975	-0.404507
C	 0.0869986268	-2.0391590454	 2.773005444	 0.032437
N	 0.066628609	-0.743845701	 2.4532443514	-0.29709
N	 0.0293675751	-0.824599514	 1.0928831418	-0.002676
H	 0.8743364458	 1.8685842369	 0.6249109667	 0.14997
H	-0.0502366377	 1.9605564863	-0.8875792405	 0.133003
H	-0.8873514849	 1.8532510243	 0.6740345775	 0.149968
H	-0.0632886708	-0.5679930994	-2.1359282633	 0.146426
H	-0.0174520758	-2.9588375469	-1.2299463223	 0.281002
H	 0.1186835608	-2.3471891387	 3.8080181143	 0.121047
140.2938	179.7338	236.0198	236.3251	304.0981	410.2338	541.2639	609.7341	621.4032	653.3065	714.2415	730.7567	769.4149	824.5927	899.645	982.2571	1004.6199	1068.9567	1085.9902	1141.6948	1193.5926	1224.7914	1261.8748	1283.826	1351.5071	1419.9893	1423.8533	1436.8498	1471.2268	1479.9325	1500.6655	1646.5993	1654.5024	3036.5684	3088.9929	3130.2779	3254.6844	3287.3464	3707.0086
CC1=CNC2=NC=NN12	Cc1c[nH]c2ncnn12	
InChI=1S/C5H6N4/c1-4-2-6-5-7-3-8-9(4)5/h2-3H,1H3,(H,6,7,8)	InChI=1S/C5H6N4/c1-4-2-6-5-7-3-8-9(4)5/h2-3H,1H3,(H,6,7,8)
