22
gdb 86942	3.56731	0.88784	0.80711	3.6977	84.57	-0.2459	0.0319	0.2778	1505.3294	0.193721	-404.374852	-404.3649	-404.363955	-404.410439	36.622	
C	-0.1192877546	 1.6393439196	 0.090954265	-0.414091
C	 0.0473195908	 0.1290062583	 0.0124599049	 0.047702
C	 1.0408766874	-0.4684471927	-1.0226107287	-0.274119
C	 1.3879762556	-1.5657819867	 0.011770222	 0.064336
N	 2.7493004978	-2.0369677219	 0.0938774408	-0.287963
C	 3.0910034898	-3.3535169813	 0.1623318858	 0.149099
O	 2.313372959	-4.2838044814	 0.1602821271	-0.322125
C	 0.804651547	-0.6520078175	 1.1420399328	-0.029126
C	 1.849456345	 0.1440345187	 1.9194430782	-0.406761
H	 0.8397012943	 2.14867415	 0.2307294535	 0.112091
H	-0.5657789245	 2.0266060154	-0.8316402309	 0.116635
H	-0.7745501456	 1.928506277	 0.9201858547	 0.116141
H	-0.9357567811	-0.3335349449	-0.1284693475	 0.077984
H	 0.6549762647	-0.7890991313	-1.9932954039	 0.105145
H	 1.8886527114	 0.2051957798	-1.1942353931	 0.089804
H	 0.7705427031	-2.4546679683	-0.1216508858	 0.1227
H	 3.4951616599	-1.3593141015	 0.1137918579	 0.243277
H	 4.1903851843	-3.4869206103	 0.2171193022	 0.070166
H	 0.1566039289	-1.1751548879	 1.8516676855	 0.073008
H	 2.5300632628	 0.7006772247	 1.2644228261	 0.104178
H	 1.3738706226	 0.8723636034	 2.5835395728	 0.12206
H	 2.4585533016	-0.5225893011	 2.5385440905	 0.119859
30.6053	76.4219	162.4747	195.6885	212.9022	235.978	260.2696	264.0795	331.23	410.6273	471.5628	508.9459	533.7363	625.2569	734.4209	777.4462	836.9828	881.6946	908.694	951.2364	998.5971	1012.1756	1030.4991	1043.1181	1062.0701	1137.5736	1141.1152	1171.7931	1178.2829	1219.9806	1250.1913	1263.8345	1283.2097	1297.6033	1356.1426	1369.7652	1382.5776	1409.7419	1411.5237	1433.1332	1489.396	1491.4585	1493.2015	1503.5291	1506.2998	1531.3079	1806.2	2927.6731	3025.0416	3028.0569	3036.3078	3042.4258	3055.8038	3090.0359	3091.2705	3097.1765	3102.0449	3103.4501	3121.4907	3628.2866
CC1CC(NC=O)C1C	C[C@H]1C[C@@H](NC=O)[C@H]1C	
InChI=1S/C7H13NO/c1-5-3-7(6(5)2)8-4-9/h4-7H,3H2,1-2H3,(H,8,9)	InChI=1S/C7H13NO/c1-5-3-7(6(5)2)8-4-9/h4-7H,3H2,1-2H3,(H,8,9)/t5-,6-,7+/m0/s1
