18
gdb 107597	2.66927	1.60476	1.15542	1.8088	72.1	-0.2114	-0.019	0.1925	1081.3863	0.147608	-439.067855	-439.059425	-439.05848	-439.100832	31.727	
C	 0.3691128089	 1.3852360013	-0.1912560045	-0.263607
O	-0.1100141844	 0.0631305261	 0.0479624211	-0.286989
C	 0.4574527999	-0.5467938402	 1.1448587398	 0.315377
C	 1.870482514	-1.1449965454	 1.0627480476	-0.350183
C	 0.6926372512	-2.0479171213	 1.22486283	-0.081898
N	 0.4431533446	-2.5515619574	 2.5685317037	-0.303274
C	 0.2699698141	-1.3726499033	 3.4398091086	-0.298607
C	 0.0429569301	-0.1505720202	 2.528849062	 0.341166
O	-0.4308921019	 0.9069577371	 2.8668344495	-0.333604
H	 1.4553020668	 1.3867717576	-0.358736533	 0.105465
H	-0.1324535434	 1.7364288892	-1.0953387083	 0.126427
H	 0.1297474087	 2.0477544679	 0.6455434007	 0.146908
H	 2.3026268216	-1.1000188097	 0.0692948825	 0.133883
H	 2.5729438478	-1.0110985907	 1.8786983128	 0.125694
H	 0.4092987109	-2.6994898947	 0.4074955699	 0.114536
H	-0.4259328422	-3.0740192666	 2.5534815273	 0.230469
H	-0.5745906834	-1.4908462759	 4.1218794129	 0.139876
H	 1.1594292466	-1.199638014	 4.0601132875	 0.138361
109.728	121.9866	172.9129	183.1511	240.7958	302.574	372.0234	425.9173	487.6273	535.7848	631.1668	659.6624	681.8507	799.4138	829.5251	891.2751	915.2657	975.5402	978.517	1015.0072	1034.6941	1046.5147	1079.6038	1103.009	1153.9184	1180.9967	1204.1363	1223.6574	1252.8625	1293.2677	1329.6863	1396.1024	1448.5862	1470.8052	1473.4186	1483.5637	1495.5183	1514.3786	1828.3342	3005.5878	3025.1643	3091.2358	3110.3682	3132.9945	3134.1083	3195.1706	3227.3076	3527.6083
COC12CC1NCC2=O	CO[C@]12C[C@H]1NCC2=O	
InChI=1S/C6H9NO2/c1-9-6-2-4(6)7-3-5(6)8/h4,7H,2-3H2,1H3	InChI=1S/C6H9NO2/c1-9-6-2-4(6)7-3-5(6)8/h4,7H,2-3H2,1H3/t4-,6-/m1/s1
