18
gdb 6868	3.37516	1.86568	1.62704	1.9858	63.1	-0.2475	0.0793	0.3268	868.7414	0.154273	-422.080975	-422.073285	-422.07234	-422.112378	29.866	
C	-0.0194640445	 1.5685737578	 0.0145235557	-0.426187
C	 0.0125513877	 0.0477374627	-0.016826102	 0.34501
O	-1.3362340076	-0.4018917836	-0.0518652862	-0.472911
C	 0.757179941	-0.4867664695	-1.2542120463	-0.114439
O	 0.8087098686	-1.9111133784	-1.2091497528	-0.248474
C	 1.4484409322	-2.3522555566	-0.0400414228	 0.009626
O	 0.7645068851	-1.9601072729	 1.1214764179	-0.248477
C	 0.7101524362	-0.5388657386	 1.2243521764	-0.114449
H	 0.9909407492	 1.9873347974	 0.0420416874	 0.114265
H	-0.5334328467	 1.9521086672	-0.8716256301	 0.129643
H	-0.5661923287	 1.9150605635	 0.8963206106	 0.129625
H	-1.2974687898	-1.3662596813	-0.0713141246	 0.286607
H	 0.2162330516	-0.2205824583	-2.1652675551	 0.118661
H	 1.7772915032	-0.0720590622	-1.3061449909	 0.085777
H	 1.4480627537	-3.4435846248	-0.0629884231	 0.121537
H	 2.4858990351	-1.9666056812	-0.0122598222	 0.079742
H	 1.727221942	-0.1275058511	 1.3323288692	 0.085781
H	 0.1348149715	-0.3107772501	 2.1246080787	 0.118663
169.7017	189.3728	200.6492	288.8358	322.6675	380.1087	381.8503	434.5619	449.1156	526.6633	536.8324	667.043	819.0423	882.3425	928.3994	944.5401	963.3145	1006.3652	1021.6344	1059.2693	1092.6965	1134.5645	1194.4976	1220.5426	1236.7883	1278.5399	1324.8862	1335.3467	1356.1474	1364.9076	1412.9175	1435.3558	1437.5549	1478.3428	1484.8733	1485.2836	1499.8104	1507.1232	2920.3337	2970.7789	2981.6709	3042.5125	3104.1867	3105.6374	3117.1876	3117.2272	3119.0611	3786.7769
CC1(O)COCOC1	CC1(O)COCOC1	
InChI=1S/C5H10O3/c1-5(6)2-7-4-8-3-5/h6H,2-4H2,1H3	InChI=1S/C5H10O3/c1-5(6)2-7-4-8-3-5/h6H,2-4H2,1H3
