13
gdb 129306	2.59242	1.91488	1.22923	2.8493	70.41	-0.2731	-0.104	0.1691	948.7691	0.089388	-448.862913	-448.855644	-448.8547	-448.895175	26.781	
N	-0.0013167333	 1.244075377	-0.5213695182	-0.455468
C	-0.0438891711	 0.1678568388	 0.1305247006	 0.375385
O	 0.8896339544	-0.1371395383	 1.0998695429	-0.262587
N	 1.4204750952	-1.4677055032	 1.1308681624	-0.128594
C	 0.5896180244	-2.3746429597	 1.4941681038	 0.12953
N	-0.7341955975	-2.2877198301	 1.9007628146	-0.188909
C	-1.545122401	-1.5297339567	 1.2738032982	-0.04208
C	-1.2290702317	-0.7508790687	 0.0396245171	 0.208279
N	-1.9303582454	-0.799501251	-1.0202749768	-0.424254
H	 0.8590264627	 1.7541447269	-0.3085689102	 0.246072
H	 1.0295632309	-3.367201936	 1.5624761104	 0.156095
H	-2.5775059613	-1.4831926826	 1.6288643951	 0.148591
H	-2.7426711664	-1.4121033563	-0.8926290699	 0.237941
52.3124	148.3504	272.2421	308.0261	338.8472	398.8542	421.6081	524.2545	596.3584	669.8239	706.7591	803.9133	853.2021	872.2245	915.1811	919.4306	961.8226	992.1938	1037.1401	1072.123	1097.3951	1253.6891	1345.9295	1363.5003	1383.5218	1626.8318	1690.5186	1709.5179	1733.7367	3106.7436	3171.0727	3416.6415	3472.8456
N=C1ON=CN=CC1=N	[NH][C]1ON=CN=C[C]1[NH]	
InChI=1S/C4H4N4O/c5-3-1-7-2-8-9-4(3)6/h1-2,5-6H	InChI=1S/C4H4N4O/c5-3-1-7-2-8-9-4(3)6/h1-2,5-6H
