22
gdb 120581	3.64618	0.77083	0.72904	1.4566	91.21	-0.2288	0.0463	0.2751	1684.724	0.190917	-367.154565	-367.143919	-367.142975	-367.190361	39.124	
C	-0.0587648078	 1.5166791351	-0.1913653285	-0.383107
C	 0.1727070534	 0.0078085994	-0.0818287965	-0.16544
C	 0.5242203001	-0.4312613313	 1.3414092861	-0.120188
N	 0.6896578735	-1.8799881814	 1.3902683658	-0.100977
C	 2.0205575302	-2.436110841	 1.2314422206	-0.279972
C	 1.3209386864	-2.5210719843	 2.5601190294	 0.097257
C	 1.8487074608	-1.7100998041	 3.736099597	-0.460905
C	 0.70717056	-3.7715684078	 2.9494714626	 0.299501
C	 0.2185895505	-4.8084726294	 3.3124160986	-0.428353
H	 0.8326608618	 2.0815410055	 0.1041795917	 0.112981
H	-0.3081762926	 1.8046907995	-1.2169039497	 0.115673
H	-0.8830781799	 1.8404886194	 0.453923963	 0.115712
H	-0.7189149966	-0.5407610539	-0.4044350675	 0.11131
H	 0.9826258604	-0.2955496384	-0.7572425964	 0.098492
H	 1.4192612363	 0.1190767734	 1.6779652277	 0.080182
H	-0.2930740748	-0.1626532887	 2.0222644002	 0.10475
H	 2.1053767388	-3.3155653699	 0.599338477	 0.120457
H	 2.8645545957	-1.7468488087	 1.1791197315	 0.105048
H	 2.3826925745	-0.815583295	 3.4104989914	 0.120399
H	 1.0299884458	-1.4077754933	 4.3966157089	 0.131773
H	 2.5396386166	-2.3220995725	 4.3228118199	 0.134431
H	-0.2236038129	-5.7247381824	 3.6161196871	 0.190974
64.5987	87.5018	106.653	159.4084	173.1671	196.5363	236.9567	274.7136	320.0307	359.352	407.9061	458.3746	541.3412	587.9494	611.2429	643.6403	689.0932	761.7984	797.1441	873.9744	899.1556	908.82	934.1321	988.0063	1047.6114	1074.1159	1090.0189	1124.9799	1126.3291	1173.2302	1201.7499	1254.0405	1277.3135	1323.2194	1331.9854	1359.2766	1400.0276	1413.4095	1416.9191	1483.1465	1487.6847	1494.1355	1498.5313	1500.2868	1506.4969	1516.6532	2237.0085	2955.2974	3028.5044	3030.0898	3045.5048	3046.5004	3071.0209	3078.8114	3097.7312	3105.2925	3110.3466	3132.8924	3177.7658	3503.4287
CCCN1CC1(C)C#C	CCCN1C[C@]1(C)C#C	
InChI=1S/C8H13N/c1-4-6-9-7-8(9,3)5-2/h2H,4,6-7H2,1,3H3	InChI=1S/C8H13N/c1-4-6-9-7-8(9,3)5-2/h2H,4,6-7H2,1,3H3/t8-,9?/m0/s1
