19
gdb 54450	3.26917	1.36966	1.11411	3.0717	80.53	-0.2183	-0.01	0.2082	1129.7117	0.158246	-385.844499	-385.836271	-385.835326	-385.877349	32.212	
C	 0.0966091024	 1.3019654287	-0.5343610664	-0.492822
C	-0.0723292417	 0.0352599521	 0.2866895084	 0.295901
O	 0.8120745722	-0.368797121	 1.0192506496	-0.333095
C	-1.3497349686	-0.6939554635	 0.1404520847	 0.224099
C	-1.7170987519	-1.7667673866	 1.1492686834	-0.34302
C	-1.4355844646	-2.2001984498	-0.2407648906	-0.074596
C	-2.5415826664	-1.8727979693	-1.2722676071	-0.055154
C	-3.7403758683	-1.1703021193	-0.6928832097	-0.308821
C	-2.4665537318	-0.3998263934	-0.9034245477	-0.125871
H	 1.0553279213	 1.7629961487	-0.2953758843	 0.139094
H	 0.0597923172	 1.0719320074	-1.6055847644	 0.137413
H	-0.7167942473	 2.0080576293	-0.3318837333	 0.136298
H	-0.9070335181	-1.9482583023	 1.8472996702	 0.147633
H	-2.7093141082	-1.8042207618	 1.5820836467	 0.117778
H	-0.5747565734	-2.8095546969	-0.4839749612	 0.112882
H	-2.5546397408	-2.3128496445	-2.26048698	 0.095676
H	-4.5104522634	-0.9480809981	-1.4258756823	 0.118082
H	-4.1405954744	-1.3951880286	 0.2890764888	 0.11738
H	-2.4188133344	 0.4480893391	-1.5736609547	 0.091144
67.3297	143.0351	172.209	195.7707	319.354	381.7908	434.5557	454.2701	533.2091	583.912	624.2515	698.7832	741.7843	773.6868	812.4652	892.1289	903.1106	907.9481	951.9118	961.7278	981.0508	1023.0812	1033.0197	1046.5907	1066.1406	1073.7803	1094.1234	1103.5689	1132.9389	1192.8062	1209.9346	1277.355	1310.1375	1323.1183	1372.7512	1395.6654	1464.4743	1467.9106	1476.8143	1509.623	1763.9911	3032.4215	3091.9578	3129.6342	3144.8839	3152.8683	3192.5612	3198.2365	3204.9083	3211.7822	3230.7652
CC(=O)C12CC1C1CC21	CC(=O)[C@]12C[C@H]1[C@H]1C[C@@H]21	
InChI=1S/C8H10O/c1-4(9)8-3-7(8)5-2-6(5)8/h5-7H,2-3H2,1H3	InChI=1S/C8H10O/c1-4(9)8-3-7(8)5-2-6(5)8/h5-7H,2-3H2,1H3/t5-,6+,7-,8-/m0/s1
