17
gdb 98378	3.06944	1.06375	0.80237	3.0038	73.64	-0.2588	-0.0388	0.22	1391.452	0.133854	-455.189268	-455.17947	-455.178526	-455.225142	33.506	
C	-0.0342748439	 1.5618632068	-0.0169965131	-0.382133
C	-0.0438939585	 0.0334406788	-0.0574193218	-0.327218
C	 0.687833665	-0.5000252463	-1.2831342498	 0.452431
O	 1.1718795842	 0.2421161176	-2.1061540303	-0.328327
N	 0.8029317899	-1.9074310377	-1.4484539106	-0.185898
C	 1.5858162049	-2.3394732664	-2.5605600269	 0.083101
N	 1.4447648199	-3.4828634476	-3.0752755271	-0.398479
C	 0.2506613849	-2.8217534857	-0.5234636786	 0.173535
O	 0.4588365807	-4.0005062691	-0.4990127343	-0.25527
H	 0.9872627406	 1.9466267977	 0.0168402307	 0.138513
H	-0.5136366125	 1.9808096719	-0.9041263997	 0.140739
H	-0.5693672183	 1.913480886	 0.8689854398	 0.117105
H	 0.416601249	-0.3788756534	 0.8479682903	 0.13981
H	-1.0755672743	-0.3394207821	-0.0672421121	 0.143165
H	 2.2661744866	-1.5528072024	-2.8842534095	 0.144605
H	 2.1081376622	-3.5932380906	-3.842631148	 0.240167
H	-0.4058275307	-2.3202844474	 0.202568091	 0.104154
42.9402	68.9899	92.7473	148.5364	201.6731	227.3489	254.7909	267.9389	335.4124	397.2932	493.5286	519.6881	571.9461	706.9952	824.9674	840.3316	867.4445	950.1694	1013.4301	1024.4686	1082.9142	1096.4037	1099.6326	1161.4361	1252.9649	1293.3635	1336.5977	1373.0311	1417.3134	1419.4871	1454.3491	1479.5247	1493.3594	1498.577	1724.2457	1786.2216	1852.4093	3022.2729	3038.5479	3058.7513	3069.5444	3131.7649	3137.9182	3140.3513	3483.347
CCC(=O)N(C=N)C=O	CCC(=O)N(C=N)C=O	
InChI=1S/C5H8N2O2/c1-2-5(9)7(3-6)4-8/h3-4,6H,2H2,1H3	InChI=1S/C5H8N2O2/c1-2-5(9)7(3-6)4-8/h3-4,6H,2H2,1H3
