18
gdb 16226	2.79058	2.39771	1.46493	1.6048	75.24	-0.2059	0.0237	0.2296	896.7257	0.15324	-347.799717	-347.791996	-347.791052	-347.831665	29.441	
C	-0.1560811452	 1.4864025179	 0.0256234294	-0.507065
C	-0.0481983259	-0.0035829051	-0.0079238043	 0.2678
C	 0.0710145415	-0.8014950606	-1.0690171531	-0.222427
C	 0.1476500745	-2.2364478376	-0.6339687995	-0.132185
O	 0.061121835	-2.1957895738	 0.7902685959	-0.312365
C	-0.0595692799	-0.8528921396	 1.2138691921	 0.39269
C	 0.5992217196	-0.4844305645	 2.5187750784	-0.327532
C	-0.9116936345	-0.5921698314	 2.4297962934	-0.327542
H	 0.6632993813	 1.9343157736	 0.6008629375	 0.132485
H	-0.1281054959	 1.905993244	-0.98284076	 0.129346
H	-1.0904183656	 1.8096691329	 0.5003873253	 0.13245
H	 0.109780034	-0.4906931651	-2.1054453849	 0.096769
H	-0.6745963974	-2.8488960917	-1.0376629671	 0.103593
H	 1.0895081662	-2.7232742648	-0.934051571	 0.103598
H	 1.1275214627	-1.2841486466	 3.0254102599	 0.12499
H	 1.0457694609	 0.4985184233	 2.6253320167	 0.110201
H	-1.5021319197	 0.3168163537	 2.4753316349	 0.110204
H	-1.3770946715	-1.4627790245	 2.8778706562	 0.124991
74.5217	161.2627	220.2537	234.6769	259.5015	380.5749	395.4391	528.0379	590.6859	644.4318	761.9047	779.444	792.2362	865.7496	881.3503	921.3425	948.4619	973.4839	1019.8296	1044.9037	1049.9772	1060.416	1069.8558	1091.5976	1157.4555	1190.9479	1195.1242	1238.6889	1301.2123	1381.7316	1396.6518	1416.4994	1444.8331	1481.8299	1486.7912	1491.7505	1524.2619	1721.7483	2967.7268	2981.5068	3023.4905	3070.9875	3118.4194	3130.153	3132.8521	3213.4605	3215.698	3230.6494
CC1=CCOC11CC1	CC1=CCOC21CC2	
InChI=1S/C7H10O/c1-6-2-5-8-7(6)3-4-7/h2H,3-5H2,1H3	InChI=1S/C7H10O/c1-6-2-5-8-7(6)3-4-7/h2H,3-5H2,1H3
