20
gdb 109443	2.42246	1.37402	0.97691	2.5047	81.18	-0.2485	0.028	0.2765	1266.9279	0.170203	-403.139693	-403.130718	-403.129774	-403.173464	33.966	
C	 0.102741162	 1.5825324447	 0.0357031232	-0.387996
C	-0.1483113499	 0.0865614881	-0.1791278695	-0.193993
C	 0.6795419725	-0.4837327788	-1.3308006544	-0.230202
C	 2.1644307177	-0.6871217233	-1.0769472605	 0.437772
N	 3.1200197678	 0.0598991786	-0.7562108891	-0.550755
O	 2.1300353974	-2.0506929582	-1.3010185463	-0.277584
C	 0.7019809889	-1.9989085595	-1.5460687993	 0.447417
C	-0.1962213159	-3.0846573012	-1.070421424	-0.334382
C	 0.064412089	-2.8776772754	-2.5602114295	-0.337024
H	 1.1623794369	 1.7715928707	 0.2270349086	 0.15657
H	-0.1864355157	 2.1611610972	-0.8486324747	 0.112504
H	-0.4769423263	 1.9571120602	 0.8845717937	 0.110667
H	 0.0839813538	-0.4686911539	 0.7370825627	 0.107423
H	-1.210964718	-0.0905230314	-0.3895518907	 0.096751
H	 0.494508665	 0.0770980052	-2.2530992134	 0.105676
H	 3.9885486023	-0.4687498528	-0.6568462859	 0.226832
H	 0.2692764125	-3.9426881085	-0.5979841859	 0.132359
H	-1.1672192328	-2.814676888	-0.6685226246	 0.12375
H	-0.7287581816	-2.4654896567	-3.1755771134	 0.122282
H	 0.6987080043	-3.6017702469	-3.0596884768	 0.131935
88.4629	107.7862	142.3802	189.4681	235.6331	261.2184	322.4677	359.2353	457.497	510.3208	537.1124	657.1763	758.6298	769.7542	807.0583	854.9041	869.4186	886.173	902.8768	959.9854	979.486	991.5315	1022.7191	1050.7728	1075.403	1082.9465	1107.2416	1156.9426	1181.4672	1185.5059	1222.7251	1277.1323	1305.3894	1349.2071	1368.4468	1395.9077	1415.4754	1450.515	1489.0864	1498.301	1503.4794	1512.2459	1822.185	3022.6077	3036.5776	3051.9874	3068.7283	3103.3091	3125.8005	3131.2075	3134.0554	3214.4841	3227.8355	3472.3962
CCC1C(=N)OC11CC1	CC[C@H]1[C]([NH])OC21CC2	
InChI=1S/C7H11NO/c1-2-5-6(8)9-7(5)3-4-7/h5,8H,2-4H2,1H3	InChI=1S/C7H11NO/c1-2-5-6(8)9-7(5)3-4-7/h5,8H,2-4H2,1H3/t5-/m0/s1
