19
gdb 124815	4.36503	0.95094	0.81035	4.1853	77.97	-0.2263	0.0305	0.2568	1413.9443	0.160832	-419.236302	-419.227594	-419.22665	-419.26996	32.766	
C	 0.1350202161	 1.5227292957	 0.1392802605	-0.406846
C	 0.0446846349	 0.0015409493	 0.2218462041	 0.124117
O	 0.3014370019	-0.4538976768	 1.558681462	-0.427932
C	-1.3033879798	-0.5351492929	-0.2916927401	-0.328592
C	-1.3801628741	-2.0300080612	-0.3674835656	 0.37766
C	-1.9607651162	-2.8754840008	-1.2960116955	-0.315604
C	-1.7158318767	-4.174681986	-0.8042664252	-0.007727
N	-1.0344584407	-4.1528876944	 0.3382470992	-0.233984
N	-0.8511638392	-2.8422411115	 0.5843996934	-0.234621
H	 1.0868562614	 1.8681331361	 0.5509732581	 0.131091
H	 0.0588263601	 1.8667921141	-0.8967185631	 0.125689
H	-0.6776920897	 1.9936683744	 0.7068026293	 0.111054
H	 0.8505511109	-0.4450930655	-0.3708534843	 0.10631
H	-0.3026556366	 0.013644266	 2.1474768561	 0.282697
H	-2.0969090702	-0.1388434085	 0.3611328324	 0.105632
H	-1.5003652905	-0.1258342887	-1.2880054308	 0.118783
H	-2.4833319202	-2.5880465	-2.194513035	 0.093421
H	-2.0052358127	-5.121804436	-1.2360008944	 0.104904
H	-0.3085547386	-2.5283710231	 1.3745807389	 0.273947
73.7509	93.4942	153.7709	238.5769	288.8823	298.0562	322.5569	355.2002	456.8764	481.4091	624.0905	663.9534	731.5999	751.993	804.5577	839.1331	888.9316	903.666	938.3663	940.6505	1041.0562	1052.6147	1063.923	1078.6138	1130.1418	1145.8756	1194.7805	1239.0386	1295.9218	1308.4	1321.3707	1367.5754	1386.9828	1403.8141	1420.806	1440.7149	1468.6318	1489.9617	1494.3911	1499.0371	1601.7584	2986.1135	3025.8991	3057.3462	3075.6376	3099.3967	3123.4284	3240.1636	3263.1004	3640.8508	3790.3321
CC(O)CC1=CC=NN1	C[C@@H](O)Cc1ccn[nH]1	
InChI=1S/C6H10N2O/c1-5(9)4-6-2-3-7-8-6/h2-3,5,9H,4H2,1H3,(H,7,8)	InChI=1S/C6H10N2O/c1-5(9)4-6-2-3-7-8-6/h2-3,5,9H,4H2,1H3,(H,7,8)/t5-/m1/s1
