18
gdb 127426	2.33257	1.62053	0.97279	1.8674	76.34	-0.2035	0.0458	0.2493	1204.3793	0.147666	-435.28885	-435.278992	-435.278048	-435.324781	34.688	
C	-0.0083086892	 1.4124775833	-0.0808033511	-0.327463
N	 0.0021572263	-0.028349372	 0.0076993057	-0.039962
N	-0.0375342855	-0.7967588638	-1.1239085267	-0.364128
C	 0.0103837654	-2.0564715653	-0.6987530325	 0.329033
C	-0.0192743712	-3.1905529548	-1.6722767508	-0.496269
C	 0.0849235106	-2.1186388269	 0.7172406949	-0.11201
N	 0.1520159922	-3.1804648108	 1.6660274326	-0.628457
C	 0.0779364379	-0.7951429737	 1.1118539201	 0.4754
O	 0.1313882348	-0.2727578177	 2.3502592882	-0.439581
H	 0.9089584656	 1.7796838399	-0.5518508573	 0.140126
H	-0.8647961411	 1.7422938226	-0.6744208196	 0.144432
H	-0.0842005366	 1.822193126	 0.9273361639	 0.152697
H	 0.8785435571	-3.8151069984	-1.593086321	 0.119032
H	-0.8817097525	-3.846429404	-1.5034215164	 0.119029
H	-0.0782077781	-2.8016207727	-2.6909312671	 0.141917
H	 0.9748563945	-3.7608137418	 1.5338978706	 0.239924
H	-0.6540760023	-3.7956109597	 1.6101710532	 0.239888
H	 0.1699571721	-1.0405907001	 2.9415437832	 0.306393
17.5555	91.2404	135.6216	169.4417	220.9944	233.2773	267.7084	277.8051	293.0647	376.6041	516.9442	581.9695	588.4991	619.9399	666.1865	715.2145	758.5281	829.8569	944.1126	1001.1486	1060.1991	1061.3917	1131.1921	1154.1025	1209.9133	1259.4575	1318.9936	1322.6882	1405.4243	1438.2157	1456.1583	1480.4538	1481.1894	1491.0391	1508.6761	1516.9704	1618.7912	1632.362	1676.2649	3024.7445	3044.5275	3071.119	3107.9423	3130.7444	3152.6669	3486.191	3548.2043	3722.5019
CN1N=C(C)C(N)=C1O	Cn1nc(C)c(N)c1O	
InChI=1S/C5H9N3O/c1-3-4(6)5(9)8(2)7-3/h9H,6H2,1-2H3	InChI=1S/C5H9N3O/c1-3-4(6)5(9)8(2)7-3/h9H,6H2,1-2H3
