13
gdb 129037	2.77764	1.71241	1.05933	5.1223	70.84	-0.259	-0.1045	0.1545	1027.6089	0.089726	-448.909509	-448.902166	-448.901222	-448.942031	26.49	
N	-0.0817736795	 1.349127731	 0.0107050849	-0.544944
C	 0.048562902	 0.0788151749	 0.0032949761	 0.435444
C	 1.2655771088	-0.7117947932	-0.0079859638	-0.191322
C	 1.1878257605	-2.0516070866	-0.0148407112	 0.047573
N	-0.0222938504	-2.7496506828	-0.0115947847	-0.198412
N	-1.1107199246	-2.115858794	-0.0017500516	-0.004812
N	-1.1110726943	-0.7469806653	 0.0057132186	-0.15853
C	-2.419174486	-0.1533244029	 0.0168463168	 0.185627
O	-3.4298534589	-0.7889792986	 0.0192266946	-0.242072
H	 0.8314848039	 1.7998164417	 0.007810066	 0.228518
H	 2.2155345179	-0.1889423934	-0.0106490478	 0.130647
H	 2.0617354564	-2.6921109177	-0.0234077718	 0.146494
H	-2.3381018158	 0.939880187	 0.0227974839	 0.165789
62.7054	110.1733	233.0304	252.902	333.5746	386.5884	512.3157	555.5255	575.6649	656.4811	757.2995	797.5054	799.1685	875.3062	882.1894	1001.8827	1011.5853	1049.5476	1085.7128	1128.1843	1176.5402	1217.3491	1353.9748	1409.5912	1431.6087	1526.5327	1638.1502	1714.2994	1849.2181	3088.9475	3194.559	3216.0134	3501.2148
N=C1C=CN=NN1C=O	[NH]c1ccnnn1C=O	
InChI=1S/C4H4N4O/c5-4-1-2-6-7-8(4)3-9/h1-3,5H	InChI=1S/C4H9N4O/c5-4-1-2-6-7-8(4)3-9/h3-7H,1-2H2
