18
gdb 6691	4.94994	0.90649	0.81087	1.9521	76.16	-0.2503	-0.0177	0.2326	1415.318	0.152634	-381.158663	-381.149557	-381.148613	-381.192868	32.296	
C	 0.2789010279	 1.7166530223	-0.144818301	-0.36704
C	 0.2042650606	 0.1865969519	-0.2582098328	 0.082528
C	 0.6490962682	-0.4927716702	 1.0425775901	-0.404537
N	-1.1219145588	-0.1595582604	-0.766573477	-0.260338
C	-1.8785848223	-0.9411174974	-0.1231465555	 0.112193
N	-3.1436394197	-1.2451687892	-0.622851035	-0.306957
C	-4.036554859	-2.0841330037	-0.0022473199	 0.158299
O	-3.8370718505	-2.6561680558	 1.0438703099	-0.300219
H	 1.2977812832	 2.0388641598	 0.0911164081	 0.11028
H	-0.0296374057	 2.1839665152	-1.0832055193	 0.12359
H	-0.3864936035	 2.0751834784	 0.6482015608	 0.11509
H	 0.9038197516	-0.11385831	-1.0516900153	 0.090363
H	 0.0140124921	-0.2036867339	 1.8877201091	 0.121606
H	 0.6344131621	-1.5843505	 0.9605770365	 0.121047
H	 1.6732335784	-0.1926675521	 1.2827685925	 0.115386
H	-1.6736307329	-1.4448457206	 0.8215286918	 0.137824
H	-3.3943328705	-0.8078324806	-1.4985697235	 0.261861
H	-4.9757419612	-2.1777446338	-0.5798146296	 0.089022
48.9799	117.1016	145.3018	166.7483	239.8659	277.8661	294.0711	340.3036	357.1428	428.1639	474.7101	573.3199	657.2488	769.6166	845.2363	923.1132	948.7996	968.8251	1011.755	1031.2347	1088.641	1140.5218	1154.9038	1191.5844	1243.4775	1338.2367	1349.3347	1370.2955	1395.4528	1413.5619	1437.825	1484.7513	1488.9738	1498.3228	1500.6812	1513.4388	1750.8062	1816.4372	2955.7208	2997.2661	3029.9334	3036.2629	3097.9677	3104.4011	3109.5628	3123.3703	3137.6044	3609.9681
CC(C)N=CNC=O	CC(C)N=CNC=O	
InChI=1S/C5H10N2O/c1-5(2)7-3-6-4-8/h3-5H,1-2H3,(H,6,7,8)	InChI=1S/C5H10N2O/c1-5(2)7-3-6-4-8/h3-5H,1-2H3,(H,6,7,8)
