21
gdb 108508	2.67464	1.46947	1.20425	0.9389	77.43	-0.2465	0.0754	0.3219	1135.7551	0.183298	-424.224419	-424.215951	-424.215007	-424.257443	32.589	
C	 0.0851148065	 1.5804714005	-0.0593755862	-0.384844
C	 0.0006251793	 0.0510222656	-0.0052283872	-0.256539
C	 0.6507956861	-0.5338326977	 1.233547838	 0.382636
C	 2.199423975	-0.5155224934	 1.3336869795	-0.129297
O	 2.24380978	-1.9418828813	 1.5591574746	-0.300923
C	 0.8107806754	-2.0705789544	 1.4125393613	 0.055508
C	 0.1001179938	-2.3878745311	 2.7223681534	-0.243192
C	 0.118543891	-1.0241680834	 3.4306344679	-0.094303
O	-0.0201994633	-0.057165844	 2.3898385372	-0.305867
H	 1.1264160312	 1.9213165573	-0.0742877416	 0.115039
H	-0.4030571273	 1.9672751681	-0.9585986648	 0.111766
H	-0.3999758812	 2.0235108381	 0.8138605834	 0.138838
H	-1.0494520965	-0.2647778896	-0.0227296645	 0.101957
H	 0.4805678887	-0.3859211639	-0.8889171979	 0.099678
H	 2.7249017781	-0.2323375063	 0.4129451418	 0.096576
H	 2.6057183623	 0.055691826	 2.1763901324	 0.10501
H	 0.5443855113	-2.7278418969	 0.5787323146	 0.072322
H	-0.9281864439	-2.7045251126	 2.5170704749	 0.106351
H	 0.6062370186	-3.1756107794	 3.2853471218	 0.115243
H	-0.7033102779	-0.8740207185	 4.1347300309	 0.110001
H	 1.0669212828	-0.8832598131	 3.9686185904	 0.10404
101.111	122.6559	171.7521	210.0994	229.3669	310.7305	353.2143	410.4999	448.0321	627.5332	634.6347	674.156	784.96	834.6615	886.2553	891.6296	910.5094	956.5599	978.3093	987.8635	1005.9806	1022.9565	1040.0655	1063.5535	1103.8081	1138.9818	1150.7608	1173.1535	1198.101	1224.8531	1260.6505	1280.484	1309.3055	1313.8924	1339.1369	1359.4379	1384.8492	1391.5568	1411.9623	1467.1624	1476.7635	1498.5946	1508.5085	1511.437	1520.3807	3004.3656	3013.4116	3029.7397	3039.1134	3047.9764	3063.1601	3064.1524	3068.9335	3099.9464	3103.3964	3116.7151	3126.8048
CCC12COC1CCO2	CC[C@]12CO[C@H]1CCO2	
InChI=1S/C7H12O2/c1-2-7-5-8-6(7)3-4-9-7/h6H,2-5H2,1H3	InChI=1S/C7H12O2/c1-2-7-5-8-6(7)3-4-9-7/h6H,2-5H2,1H3/t6-,7-/m0/s1
