17
gdb 30788	3.52208	0.78119	0.65287	8.2243	77.95	-0.2569	-0.0773	0.1795	1689.3459	0.131119	-455.192725	-455.181287	-455.180343	-455.232402	37.163	
C	 0.6678479966	 0.900310015	 0.0462661506	-0.506458
C	-0.1620009173	-0.3203796635	 0.2429014806	 0.249613
C	-0.6580516014	-1.1874238697	-0.8368947083	 0.351452
C	-0.446128741	-1.1213492956	-2.1503482984	-0.438755
N	 2.2294048899	 0.9507356418	-3.3229164079	-0.701872
H	 1.8482114875	 1.1252898707	-4.2493401896	 0.248374
H	 2.7029731649	 1.8086378011	-3.0518421039	 0.248106
H	 2.9606771209	 0.2557219331	-3.4490940004	 0.249764
O	-1.410864498	-2.1488898707	-0.2233615816	-0.247323
C	-1.358151469	-1.8935525975	 1.1535498162	 0.442661
O	-1.9215881677	-2.5824275758	 1.9429789078	-0.32508
N	-0.5650625079	-0.7429679581	 1.3949025338	-0.350403
H	 1.3855241092	 0.7706627183	-0.7681073961	 0.167533
H	 0.0186418735	 1.7390321612	-0.2334894488	 0.154732
H	 1.1763483296	 1.1583936726	 0.976227357	 0.154318
H	-0.8843977606	-1.8493108206	-2.8219473589	 0.135968
H	 0.1924027508	-0.3453181324	-2.557435122	 0.167372
20.5261	28.2679	54.746	92.6198	119.9186	161.6718	191.0761	196.656	207.9292	283.5773	352.0324	372.2312	585.7397	624.0234	680.6524	697.6486	761.4767	795.9056	809.5034	893.3254	938.0485	1002.8404	1038.1822	1051.0206	1061.927	1114.5467	1248.5114	1367.3951	1416.2701	1448.0859	1472.5665	1485.5885	1642.7613	1678.9624	1679.4002	1723.3643	1909.2881	3040.2258	3104.3347	3153.6899	3157.948	3258.9325	3466.4025	3581.3064	3583.5295
CC1=C(C[NH3+])OC([O-])=N1	CC1=NC(=O)OC1=C.N	
InChI=1S/C5H8N2O2/c1-3-4(2-6)9-5(8)7-3/h2,6H2,1H3,(H,7,8)	InChI=1S/C5H5NO2.H3N/c1-3-4(2)8-5(7)6-3;/h2H2,1H3;1H3
