19
gdb 47400	2.6209	1.62676	1.24806	2.4626	74.97	-0.2253	-0.0278	0.1975	1064.0034	0.159875	-423.042737	-423.0346	-423.033655	-423.075936	30.755	
O	-0.1600071584	 0.1176952502	 0.6372643605	-0.321448
C	-0.1168655194	 1.2588287704	 0.2567070124	 0.381558
C	-1.2869724686	 2.1109113418	-0.2399199455	-0.323613
C	-0.6542073433	 3.4507940874	-0.6636685076	-0.221543
C	 0.6397420781	 3.5469426401	 0.1796362136	-0.294556
C	 1.1639903928	 2.1220405443	 0.1906550007	 0.368302
C	 2.357499254	 1.6425816327	 1.0283495529	-0.367207
C	 2.9479086384	 1.1864240682	-0.3194789139	-0.06591
O	 1.8495478692	 1.7794891685	-1.0548488787	-0.330408
H	-1.8400018125	 1.5948828519	-1.0287559302	 0.135574
H	-1.9798667532	 2.2349527064	 0.602003594	 0.133281
H	-0.3885995762	 3.4208332862	-1.7246386259	 0.126186
H	-1.3195726133	 4.3036190802	-0.5132062175	 0.103112
H	 1.3722251412	 4.2490760021	-0.2254202236	 0.110796
H	 0.4047901396	 3.8511158097	 1.2085570824	 0.10415
H	 2.908481458	 2.4412875243	 1.5276571286	 0.109942
H	 2.1192590814	 0.8468928761	 1.735044111	 0.129187
H	 3.9069334095	 1.6269667357	-0.612934288	 0.105763
H	 2.9882598228	 0.1007945437	-0.4597990555	 0.116834
69.4556	83.1148	164.5134	217.6378	265.1782	354.6227	429.5539	535.3339	549.2979	612.6642	657.217	756.1393	813.1906	823.1776	859.6482	899.7789	927.8033	954.4798	983.856	1005.6322	1014.1623	1044.3001	1058.2463	1157.3779	1166.9999	1180.3135	1204.7816	1227.093	1233.164	1268.1469	1279.0781	1298.8797	1329.6608	1345.2693	1364.9298	1445.318	1470.3867	1476.7882	1499.2943	1522.7277	1846.4391	3025.3937	3031.5075	3040.4397	3062.2751	3075.9276	3082.8688	3100.7138	3104.0478	3114.6318	3143.5592
O=C1CCCC11CCO1	O=C1CCC[C@]21CCO2	
InChI=1S/C7H10O2/c8-6-2-1-3-7(6)4-5-9-7/h1-5H2	InChI=1S/C7H10O2/c8-6-2-1-3-7(6)4-5-9-7/h1-5H2/t7-/m1/s1
