15
gdb 93486	3.13319	1.41376	1.00443	1.4253	65.06	-0.2671	-0.0237	0.2434	1100.9827	0.114426	-491.134927	-491.127262	-491.126318	-491.167301	28.984	
O	 0.1981960195	 1.2770273961	 0.3732293723	-0.432334
C	 0.0136999008	-0.0684424487	 0.0466175097	 0.017964
C	-1.4672641871	-0.4096199063	-0.0819835935	-0.118688
O	-1.6103798585	-1.7920993446	-0.4472093901	-0.249659
C	-0.9167117529	-2.2545240839	-1.5142138412	 0.465906
N	-1.1708998429	-3.3326531986	-2.1220369169	-0.55301
N	 0.1618622868	-1.4682273716	-1.9371903465	-0.367696
C	 0.6833523435	-0.3832463936	-1.2858290394	 0.401853
O	 1.586496148	 0.2992421684	-1.7250269383	-0.372464
H	 0.9351608602	 1.5786869867	-0.1818361797	 0.301733
H	 0.4567751141	-0.7365300966	 0.8059421227	 0.112946
H	-1.9912019992	-0.2981294011	 0.8675908961	 0.14321
H	-1.9430252409	 0.2359261853	-0.8299304362	 0.131477
H	-2.0042361881	-3.769895267	-1.7342082908	 0.23617
H	 0.6049375166	-1.7705484045	-2.7945204781	 0.282592
87.6404	138.8226	219.2037	293.9823	369.3555	373.3038	426.7377	457.1071	510.6101	577.6763	659.934	709.0491	724.3769	757.0321	796.5313	841.1178	903.9736	1037.9227	1055.7971	1094.1579	1139.9087	1166.3503	1230.5569	1282.4693	1296.7182	1323.2695	1390.4794	1417.9843	1434.1849	1453.7172	1513.0192	1767.548	1806.2617	2957.3409	3044.6793	3136.4953	3529.0448	3608.0813	3694.7038
OC1COC(=N)NC1=O	O[C@H]1CO[C]([NH])NC1=O	
InChI=1S/C4H6N2O3/c5-4-6-3(8)2(7)1-9-4/h2,7H,1H2,(H2,5,6,8)	InChI=1S/C4H6N2O3/c5-4-6-3(8)2(7)1-9-4/h2,7H,1H2,(H2,5,6,8)/t2-/m0/s1
