18
gdb 75792	2.69982	1.21652	1.10112	1.5874	74.56	-0.2489	-0.0411	0.2079	1178.2389	0.144893	-439.123008	-439.113339	-439.112395	-439.157882	34.061	
C	 0.0942244584	 1.4504293189	-0.0213966612	-0.356125
N	 0.0139592497	 0.009716861	 0.0086558327	-0.096249
C	-0.0521840231	-0.9172310186	-1.0046018475	 0.424689
O	-0.1252544795	-0.8005611475	-2.1984107073	-0.367856
C	 0.0022869241	-2.0807360502	 0.0080560129	-0.448978
C	 0.1133894286	-0.9685271862	 1.1118484611	 0.201484
C	 1.4003198663	-0.9278901022	 1.920718827	-0.452204
C	-1.1330549573	-0.9252546085	 1.9846310908	 0.13495
O	-1.135735225	-0.9681207563	 3.186432175	-0.244207
H	 1.0460040442	 1.8102898672	 0.3863410414	 0.135882
H	 0.0214617696	 1.75737876	-1.067338488	 0.168037
H	-0.7241963184	 1.9146306802	 0.5402975788	 0.136105
H	-0.9007515448	-2.6951754536	 0.0358984365	 0.137645
H	 0.8811096496	-2.7227542254	-0.0682847073	 0.142631
H	 2.270249979	-1.0004792566	 1.262418453	 0.12221
H	 1.4718609247	-0.0015884375	 2.4980600044	 0.133862
H	 1.4220168659	-1.7550750608	 2.6342992799	 0.144508
H	-2.076904782	-0.8455608938	 1.3964523079	 0.083614
71.4304	86.0955	132.2638	134.5687	200.1904	228.5716	259.7425	317.6694	329.7406	414.2078	471.1442	535.7659	556.3376	705.2785	741.29	806.1645	892.8555	928.3461	966.8077	1015.4014	1067.9024	1073.0211	1131.091	1151.2057	1174.8693	1201.1296	1271.1632	1294.4337	1393.6263	1402.1042	1421.1405	1443.2955	1461.5799	1481.4523	1482.8064	1492.6912	1516.7087	1833.5726	1885.2245	2867.8284	3023.2989	3048.7513	3078.3246	3081.3048	3120.0433	3132.0592	3133.421	3142.6359
CN1C(=O)CC1(C)C=O	CN1C(=O)C[C@]1(C)C=O	
InChI=1S/C6H9NO2/c1-6(4-8)3-5(9)7(6)2/h4H,3H2,1-2H3	InChI=1S/C6H9NO2/c1-6(4-8)3-5(9)7(6)2/h4H,3H2,1-2H3/t6-/m1/s1
