14
gdb 9107	7.79501	0.96287	0.86157	4.6334	73.34	-0.2449	-0.0476	0.1974	1280.817	0.104809	-378.70468	-378.695956	-378.695011	-378.738443	29.893	
C	-0.2581214066	 1.6012443236	 0.0854513623	-0.312772
N	 0.0425548065	 0.1875856869	 0.138631031	-0.161079
C	-0.8936595381	-0.6125954318	-0.1277908871	 0.098809
N	-0.7817333112	-2.0038340112	-0.1248061622	-0.359659
C	 0.3299250276	-2.7895547991	 0.1578632266	 0.309273
O	 1.4245739987	-2.3813588213	 0.4579087177	-0.302345
C	 0.0185407164	-4.2122241645	 0.0483474784	 0.195206
C	-0.2028206109	-5.3914507443	-0.0325283396	-0.394248
H	 0.406521445	 2.0871263939	-0.6377442016	 0.13468
H	-1.3018837358	 1.8288177632	-0.1899870731	 0.093389
H	-0.0491018271	 2.0541036335	 1.0612257165	 0.134668
H	-1.9148886088	-0.3007740687	-0.3956011275	 0.08507
H	-1.6205884409	-2.512109169	-0.3581333984	 0.264359
H	-0.3812447749	-6.4372706511	-0.0993541531	 0.21465
54.9794	106.2235	116.471	191.5316	208.0319	255.1428	333.4505	362.393	420.612	568.5721	591.3424	664.2912	680.9272	722.396	760.8809	887.9324	972.2922	1064.7179	1111.9049	1139.5952	1167.2269	1232.4114	1417.6316	1445.188	1477.6919	1502.3874	1530.4467	1764.2455	1805.3489	2222.6087	2960.2022	2995.6342	3061.4683	3082.1937	3493.939	3633.6428
CN=CNC(=O)C#C	CN=CNC(=O)C#C	
InChI=1S/C5H6N2O/c1-3-5(8)7-4-6-2/h1,4H,2H3,(H,6,7,8)	InChI=1S/C5H6N2O/c1-3-5(8)7-4-6-2/h1,4H,2H3,(H,6,7,8)
