15
gdb 13295	5.17699	1.30428	1.16373	1.475	67.5	-0.2475	0.0184	0.2659	1031.5186	0.11886	-362.645184	-362.637455	-362.636511	-362.678196	27.293	
C	-0.5235157656	-0.6693723467	-0.9579633776	-0.454999
C	-0.1338514329	 0.1580032389	-0.1800898733	 0.311699
C	 0.3357722792	 1.1530338909	 0.7791807379	-0.42511
C	 1.6286953948	 1.806968213	 0.3737966557	 0.416883
N	 2.7006137207	 1.7989650598	 1.0517140596	-0.306666
C	 3.6807104279	 2.58218157	 0.2822287352	-0.184563
C	 2.9240626604	 3.003348228	-1.0052454374	-0.109682
O	 1.5937181571	 2.4687874763	-0.8116548241	-0.247748
H	-0.8676073711	-1.3977185221	-1.6497028959	 0.200723
H	-0.4250977372	 1.9360684564	 0.8960654353	 0.152991
H	 0.4949137727	 0.7003058882	 1.7613949639	 0.164229
H	 4.0162474966	 3.4409546512	 0.8733209551	 0.118246
H	 4.562769963	 1.969921434	 0.0693811257	 0.120571
H	 2.8413242695	 4.0854819452	-1.1356396214	 0.120618
H	 3.3376087049	 2.566301327	-1.9183935687	 0.122807
47.5991	93.7211	113.6355	250.0718	318.4275	332.6374	439.8666	610.0175	622.2558	650.7506	755.4271	769.8418	830.2	905.2768	933.303	961.6764	979.4662	1013.4918	1034.1051	1120.2177	1203.2084	1216.0797	1246.9484	1270.2313	1318.9267	1352.817	1392.3405	1451.8037	1502.6126	1527.2852	1743.4369	2247.5612	3028.8756	3043.0893	3058.2821	3072.6656	3101.4117	3107.0548	3506.8883
C#CCC1=NCCO1	C#CCC1=NCCO1	
InChI=1S/C6H7NO/c1-2-3-6-7-4-5-8-6/h1H,3-5H2	InChI=1S/C6H7NO/c1-2-3-6-7-4-5-8-6/h1H,3-5H2
