17
gdb 65434	4.72916	0.79347	0.76729	1.8152	77.86	-0.2522	-0.0363	0.2159	1476.7774	0.132535	-421.788732	-421.779362	-421.778418	-421.823424	34.354	
O	-0.0522745111	 1.3524229962	 0.161543626	-0.467453
C	-0.020095166	-0.0238169653	-0.0015671759	 0.332719
C	-0.6309909118	-0.8898510294	 1.0853144645	-0.333617
C	-1.3385704673	-0.7694570085	-0.2299576848	-0.080014
C	-2.6075907562	 0.0600499847	-0.3618779832	-0.380783
C	-3.7995227213	-0.6838165098	 0.0320218725	 0.305388
C	-4.7694176577	-1.315695568	 0.3549216139	-0.44179
C	 1.1658107044	-0.5065879411	-0.733736937	 0.101152
O	 1.9948055475	 0.2593286702	-1.174471465	-0.291918
H	 0.7149216364	 1.6773752161	-0.3372731238	 0.298943
H	-0.1487678231	-1.82607385	 1.3457612078	 0.125005
H	-1.0285180344	-0.3286886803	 1.9240658067	 0.144193
H	-1.2962638761	-1.6365807281	-0.8833287326	 0.105876
H	-2.5086076669	 0.9689333215	 0.2406936654	 0.154796
H	-2.7119309281	 0.3992331059	-1.4002722143	 0.138047
H	-5.6340305892	-1.8609755757	 0.6418434426	 0.197006
H	 1.2459441411	-1.6045420584	-0.8675166627	 0.092451
46.0577	88.5851	113.3912	208.2075	257.9073	285.8487	339.5367	352.9754	395.3527	423.1558	498.4906	530.6656	621.7281	632.5927	644.6829	794.4302	835.3334	870.2644	898.8288	923.6339	957.8027	1030.0745	1060.0437	1062.199	1079.3262	1146.1703	1212.4943	1245.1792	1322.1383	1342.0483	1371.6839	1400.3684	1451.0602	1472.8915	1492.0421	1787.079	2240.2141	2930.1806	3032.0723	3078.2732	3133.2476	3146.6582	3226.462	3506.88	3687.9546
OC1(CC1CC#C)C=O	O[C@]1(C[C@H]1CC#C)C=O	
InChI=1S/C7H8O2/c1-2-3-6-4-7(6,9)5-8/h1,5-6,9H,3-4H2	InChI=1S/C7H8O2/c1-2-3-6-4-7(6,9)5-8/h1,5-6,9H,3-4H2/t6-,7-/m1/s1
