20
gdb 108059	2.63516	1.54508	1.13034	3.1666	79.27	-0.2161	0.0697	0.2857	1128.3661	0.170735	-403.066309	-403.057684	-403.05674	-403.099433	33.122	
C	-0.07516461	 1.4781805327	 0.076247452	-0.512278
C	 0.0657561309	-0.0132958596	-0.0089886409	 0.251269
C	-0.03937791	-0.8901668675	-1.2488115344	-0.221151
N	-0.2465807622	-2.0983072831	-0.3607036791	-0.171517
C	 1.1129982144	-2.2037947191	 0.3024786425	-0.226674
C	 0.8396060055	-0.8889999501	 1.01616415	 0.302961
C	 1.5269579703	-0.3501783798	 2.227609416	-0.218042
O	 1.5195388136	-1.3641222196	 3.2281564223	-0.418477
C	-0.6298172956	-1.10414392	 0.7597705121	-0.115729
H	 0.8014850259	 1.9881544268	-0.3405296041	 0.121602
H	-0.9529232489	 1.8145573311	-0.4872624523	 0.123473
H	-0.1990377432	 1.8220074116	 1.10778943	 0.122543
H	-0.9554378004	-0.690905521	-1.8136972223	 0.103101
H	 0.8083348735	-0.9698568716	-1.940534565	 0.090919
H	 1.1196708104	-3.0466480913	 0.9966456564	 0.121013
H	 1.9554002056	-2.2870760788	-0.3952939086	 0.087686
H	 2.5602328191	-0.0640166598	 1.9694969762	 0.090095
H	 1.0200039997	 0.5598564028	 2.5846289105	 0.085785
H	 2.0608281619	-1.0602479092	 3.9629635111	 0.286978
H	-1.5051355406	-1.1604819945	 1.3916421578	 0.096441
77.8881	145.7905	196.1191	203.1007	257.5132	278.8126	319.506	380.5899	483.9725	500.9113	588.4716	690.0004	731.7212	784.619	847.3212	855.7007	893.845	930.8486	953.1172	958.4876	987.4057	1037.9425	1059.635	1088.9985	1127.1921	1136.5191	1148.4961	1166.4735	1186.0427	1216.3404	1237.5892	1252.4461	1281.0012	1298.3369	1369.9512	1410.3887	1424.1018	1471.6912	1488.7908	1498.6799	1501.7651	1512.0445	1523.6539	2959.4476	2990.3948	3019.3328	3023.6568	3031.1317	3080.9084	3083.8439	3098.4098	3111.7727	3214.7335	3826.4913
CC12CN3CC1(CO)C23	C[C@@]12CN3C[C@]1(CO)[C@@H]23	
InChI=1S/C7H11NO/c1-6-2-8-3-7(6,4-9)5(6)8/h5,9H,2-4H2,1H3	InChI=1S/C7H11NO/c1-6-2-8-3-7(6,4-9)5(6)8/h5,9H,2-4H2,1H3/t5-,6+,7+/m1/s1
