18
gdb 6882	2.63774	1.57288	1.32462	2.8827	70.41	-0.2397	-0.0179	0.2219	1023.1601	0.150918	-384.938592	-384.929504	-384.92856	-384.97185	33.176	
C	-0.0402328948	 1.5543467858	-0.1035601292	-0.456252
C	 0.0224997052	 0.0387690786	-0.0349583322	 0.271321
C	-1.2175624796	-0.65733363	-0.5644194227	-0.446406
C	 1.3294416451	-0.6452505324	-0.2214356151	 0.048366
O	 2.4423611328	 0.1553535374	-0.4739551076	-0.414652
C	 0.6924516316	-0.6514286631	 1.1793195229	-0.199498
C	 1.2997846341	 0.1190897224	 2.2826094994	 0.14924
O	 1.2447909951	-0.2177447228	 3.4437939472	-0.279941
H	 0.914071438	 2.0224711446	 0.1374361336	 0.141773
H	-0.3087208291	 1.8629476659	-1.1199558174	 0.121666
H	-0.8058679419	 1.9438764117	 0.5753865996	 0.123103
H	-1.4009779853	-0.3732050575	-1.6070238278	 0.123411
H	-1.1212560949	-1.746421437	-0.5236628182	 0.118215
H	-2.1005296221	-0.3774424684	 0.0204037967	 0.127191
H	 1.3293503714	-1.6053812478	-0.7383340497	 0.096617
H	 3.2228300572	-0.2891712409	-0.1262564025	 0.296808
H	 0.2413537502	-1.5821801489	 1.5090276862	 0.099654
H	 1.836908927	 1.0430848622	 1.9851760368	 0.079385
89.0633	158.1833	181.9365	206.023	218.7044	257.457	272.8364	342.7737	352.3486	422.4848	482.1759	500.8851	567.7268	674.4721	819.2739	899.0535	971.4427	974.9339	1002.9545	1028.8651	1050.5895	1083.6087	1148.0256	1151.2267	1176.7909	1243.7807	1274.0356	1326.8924	1348.7135	1408.7525	1421.1265	1444.0127	1464.3592	1483.0881	1489.3205	1502.2771	1518.1747	1798.1217	2917.0379	3027.0558	3038.7689	3091.3615	3093.8372	3095.4318	3105.6492	3148.3343	3165.1479	3806.3961
CC1(C)C(O)C1C=O	CC1(C)[C@@H](O)[C@H]1C=O	
InChI=1S/C6H10O2/c1-6(2)4(3-7)5(6)8/h3-5,8H,1-2H3	InChI=1S/C6H10O2/c1-6(2)4(3-7)5(6)8/h3-5,8H,1-2H3/t4-,5+/m1/s1
