21
gdb 66158	4.3317	0.79511	0.77161	1.7751	80.06	-0.245	0.0847	0.3297	1576.7198	0.180689	-424.182249	-424.172766	-424.171822	-424.217463	35.695	
O	 0.248342779	 1.3932106208	 0.2148392044	-0.473574
C	 0.1091721867	 0.0146624423	 0.0099888208	 0.429426
C	 1.190941541	-0.559210132	-0.8658319844	-0.132838
O	 2.4325949433	-0.2794482349	-0.2253702557	-0.271331
C	 3.547014888	-0.5736970812	-1.0086881239	 0.154743
C	 4.0106959187	 0.4268169727	-2.0368890705	-0.287063
C	 4.779067591	 0.2270905206	-0.7442148917	-0.287877
C	-0.4778126711	-0.8130597326	 1.1280932458	-0.314109
C	-1.2963806516	-0.4782494708	-0.105707964	-0.315551
H	 1.1488192499	 1.5168462097	 0.5398106488	 0.284801
H	 1.0578683095	-1.6436804136	-0.998527115	 0.08695
H	 1.1684504719	-0.0839344274	-1.8574883884	 0.099651
H	 3.6590398768	-1.6331745039	-1.2424543357	 0.084569
H	 4.4394227709	 0.0650449144	-2.9648755285	 0.114593
H	 3.4310997125	 1.338881603	-2.1264119314	 0.122986
H	 4.6960187682	 1.0064954997	 0.0046359574	 0.122457
H	 5.7394926432	-0.2746301913	-0.7737850214	 0.116189
H	-0.1340089968	-1.8328702602	 1.2634490839	 0.110764
H	-0.7229206195	-0.2844220576	 2.0417358592	 0.117781
H	-2.0729461364	 0.2706680462	-0.0017983728	 0.126032
H	-1.5177142052	-1.2675352838	-0.8163916069	 0.111402
42.3092	61.4898	121.958	145.5143	248.2916	297.9544	347.7248	388.4533	412.6038	441.2734	473.1564	523.8888	739.795	765.3949	777.4871	819.5575	834.6167	897.1624	926.0675	937.1305	968.5562	979.2689	995.221	1045.9261	1049.9976	1067.9026	1072.3479	1080.4827	1088.6214	1129.7665	1188.7364	1193.7934	1201.7426	1224.7074	1243.9482	1284.9346	1320.0103	1362.2481	1407.5179	1440.9836	1453.7789	1454.286	1497.2044	1507.5433	1510.8663	2981.8724	3023.5444	3092.7204	3134.4071	3136.2249	3137.9383	3142.2757	3219.9364	3220.2272	3233.9532	3234.5263	3783.5383
OC1(COC2CC2)CC1	OC1(COC2CC2)CC1	
InChI=1S/C7H12O2/c8-7(3-4-7)5-9-6-1-2-6/h6,8H,1-5H2	InChI=1S/C7H12O2/c8-7(3-4-7)5-9-6-1-2-6/h6,8H,1-5H2
