13
gdb 5460	3.68991	1.94266	1.27421	2.0785	71.95	-0.1861	0.0013	0.1874	883.491	0.096879	-357.654283	-357.646997	-357.646053	-357.685456	27.604	
N	 0.0710981082	 1.392514551	 0.1615680398	-0.6031
C	 0.0058581635	 0.0162031222	 0.054674334	 0.205167
C	-1.1300242658	-0.7864870119	 0.0217363907	 0.127352
N	-0.6200683359	-2.088133386	-0.0186128663	-0.325488
C	 0.725854101	-1.9962797567	-0.0131567364	 0.009451
N	 1.1411335507	-0.7437342464	 0.0289068933	-0.297281
C	-2.493386342	-0.4716809524	 0.0229355657	 0.2292
C	-3.6652371884	-0.1789920039	 0.0134652256	-0.443833
H	 0.9435863508	 1.7691271154	-0.1808174195	 0.254485
H	-0.7337937401	 1.8802204021	-0.2046574292	 0.253391
H	-1.1748851995	-2.9264598933	-0.0501019487	 0.270761
H	 1.3661789729	-2.8650048253	-0.0428503907	 0.13447
H	-4.6947695554	 0.078645825	 0.0258668816	 0.185426
130.8984	154.1281	288.2948	310.9421	370.0678	402.3405	464.0637	494.3225	529.3581	600.0669	625.9695	660.2959	692.3682	744.631	770.3614	814.8633	955.2969	1053.1703	1132.3825	1193.2085	1276.7803	1323.6626	1402.7685	1492.559	1518.507	1603.6624	1648.7446	2211.0179	3254.7707	3503.1553	3561.8265	3667.3136	3673.2355
NC1=C(NC=N1)C#C	Nc1c([nH]cn1)C#C	
InChI=1S/C5H5N3/c1-2-4-5(6)8-3-7-4/h1,3H,6H2,(H,7,8)	InChI=1S/C5H5N3/c1-2-4-5(6)8-3-7-4/h1,3H,6H2,(H,7,8)
