14
gdb 128594	5.19577	1.09313	0.90828	2.8195	68.37	-0.2398	-0.072	0.1679	1204.3653	0.101588	-470.018312	-470.010708	-470.009764	-470.050688	27.844	
C	 0.0094093829	 1.3809995732	 0.0574970112	-0.237137
O	 0.0245302863	-0.0474983961	-0.0209226251	-0.267086
C	 0.6132326643	-0.5878441754	-1.0982062206	 0.434167
C	 0.6430064152	-1.9926247745	-1.2009844934	-0.068727
N	 1.2102596646	-2.5622353626	-2.2407685469	-0.313879
C	 1.7314702424	-1.7143042617	-3.1479174416	 0.490417
O	 2.3197223317	-2.2553888827	-4.2249178642	-0.390482
N	 1.7271347938	-0.3913144178	-3.0936074086	-0.248325
N	 1.1478553146	 0.1774080937	-2.0322879963	-0.272961
H	 1.026577407	 1.782537494	 0.0698086682	 0.144168
H	-0.524512743	 1.8135318315	-0.793290126	 0.144189
H	-0.5049449594	 1.6134153712	 0.9901999713	 0.134707
H	 0.2026253285	-2.620845173	-0.4312666816	 0.142019
H	 2.2464013511	-3.2138056699	-4.1269524462	 0.308933
91.1831	136.4605	193.3156	218.0522	394.0933	406.3867	437.5132	474.4095	503.4069	590.7899	593.2583	661.4023	798.3937	826.5117	885.7228	970.5535	1038.8527	1063.5759	1154.5618	1177.4856	1187.9286	1224.6357	1323.4611	1376.644	1420.8215	1463.8374	1478.8207	1495.8086	1512.8976	1568.8009	1641.5307	3044.9665	3117.1966	3155.6272	3170.1943	3793.0194
COC1=CN=C(O)N=N1	COc1cnc(O)nn1	
InChI=1S/C4H5N3O2/c1-9-3-2-5-4(8)7-6-3/h2H,1H3,(H,5,7,8)	InChI=1S/C4H5N3O2/c1-9-3-2-5-4(8)7-6-3/h2H,1H3,(H,5,7,8)
