16
gdb 26967	3.10792	1.26688	0.95738	2.257	72.51	-0.189	0.0497	0.2387	1186.4476	0.124447	-437.88926	-437.880937	-437.879993	-437.923124	30.678	
O	-0.432760022	 1.3298973126	 0.3686478146	-0.435404
C	-0.1183603501	 0.0392954867	 0.0891392074	 0.286411
C	 0.2651105444	-0.6148904728	-1.0647886428	 0.188048
C	 0.4618766081	-1.9871090985	-0.6896134739	-0.257741
C	 0.2081605272	-2.1043686833	 0.6479699147	-0.083815
N	-0.1453742578	-0.8510457662	 1.1191806387	-0.296524
C	 0.4257013743	 0.0005832278	-2.3898285473	-0.04816
C	 1.2916634614	-0.5412683448	-3.4491192361	-0.188833
O	-0.1249059101	-0.6837601884	-3.5346403206	-0.240783
H	-0.5763746924	 1.7996475634	-0.4586544548	 0.309612
H	 0.7428970546	-2.7899768561	-1.3531906418	 0.102884
H	 0.2393095307	-2.9533107571	 1.3099011826	 0.121376
H	-0.4034475118	-0.612932718	 2.0607956396	 0.267206
H	 0.2546602092	 1.0803849518	-2.4227314533	 0.054661
H	 1.7447469887	 0.1300366942	-4.1790879004	 0.108568
H	 1.8469783057	-1.4590592214	-3.2600310466	 0.112497
30.361	137.3738	168.3355	191.933	272.3368	310.9481	432.8323	452.8824	516.8589	606.5824	631.1763	650.9457	713.3957	741.3826	807.3675	814.3739	893.7686	931.1915	997.0089	1062.2681	1087.4356	1095.4856	1148.8922	1159.6106	1165.3725	1193.9539	1273.9127	1299.27	1364.0623	1409.0492	1447.7964	1526.5803	1536.6101	1560.7973	1642.837	3055.595	3074.4704	3161.1101	3251.5547	3280.731	3686.6776	3840.686
OC1=C(C=CN1)C1CO1	Oc1c(cc[nH]1)[C@H]1CO1	
InChI=1S/C6H7NO2/c8-6-4(1-2-7-6)5-3-9-5/h1-2,5,7-8H,3H2	InChI=1S/C6H7NO2/c8-6-4(1-2-7-6)5-3-9-5/h1-2,5,7-8H,3H2/t5-/m1/s1
