19
gdb 59229	2.52249	1.43288	1.16514	3.1302	76.45	-0.1968	-0.0209	0.1759	1137.0311	0.158216	-419.149626	-419.140594	-419.13965	-419.183697	33.282	
C	 0.0050742534	 1.4819438399	-0.0093852859	-0.32828
N	 0.0716181752	 0.0277363432	 0.074396202	-0.077498
C	 1.0663843124	-0.4133302544	 1.0487407679	-0.334733
C	-1.2204928553	-0.5873614947	 0.1863184515	-0.035574
C	-1.451746678	-2.0829991197	-0.1017143074	-0.092429
N	-0.9184446784	-2.8600925462	 1.0256054692	-0.328322
C	-2.2966859292	-2.2602267801	 1.1271400494	-0.189347
C	-2.0342370764	-0.8198138067	 1.529320573	 0.41043
O	-2.3961717139	-0.1136597826	 2.422911217	-0.310964
H	 0.9994633823	 1.8744153445	-0.2457155025	 0.117103
H	-0.6745050488	 1.7797846331	-0.8145683339	 0.114429
H	-0.3358505707	 1.9616700808	 0.9242115981	 0.116958
H	 0.8459076473	-0.0653896836	 2.0733717287	 0.106817
H	 1.1168532523	-1.5010542709	 1.0664916074	 0.150086
H	 2.0446879986	-0.0157656079	 0.7596490986	 0.109985
H	-1.9200747054	-0.0251396167	-0.4479695478	 0.105302
H	-1.6051064272	-2.5314635604	-1.0750283032	 0.108539
H	-1.0582499726	-3.8488444597	 0.8158302781	 0.240517
H	-3.1611892957	-2.8870344178	 1.3005509497	 0.116982
50.7894	117.0946	151.0787	201.7707	229.829	233.8177	338.5365	343.3542	391.6455	489.5113	553.0623	638.1593	674.2592	779.8647	830.2217	856.7325	887.2475	906.9797	967.8615	995.997	1040.9382	1070.4387	1092.3479	1093.9575	1121.4754	1130.3096	1171.6038	1186.5152	1215.0004	1278.9639	1308.6122	1326.0223	1356.021	1402.5027	1445.9084	1477.2774	1480.2862	1497.4299	1504.4428	1520.5168	1893.3644	2954.4465	2961.9282	3021.8332	3057.4591	3069.6498	3098.5394	3158.2352	3197.8962	3212.9306	3464.2809
CN(C)C1C2NC2C1=O	CN(C)[C@H]1[C@H]2N[C@H]2C1=O	
InChI=1S/C6H10N2O/c1-8(2)5-3-4(7-3)6(5)9/h3-5,7H,1-2H3	InChI=1S/C6H10N2O/c1-8(2)5-3-4(7-3)6(5)9/h3-5,7H,1-2H3/t3-,4+,5-/m0/s1
