17
gdb 81647	2.69331	1.68402	1.52007	2.3985	68.22	-0.2252	0.0381	0.2633	944.1499	0.138548	-455.145695	-455.138345	-455.137401	-455.17699	30.005	
N	 0.0458124802	 1.2934950608	 0.1881784639	-0.575334
C	-0.0499601077	-0.0696987847	 0.0616555519	 0.435816
N	-1.1625545271	-0.705415707	 0.0888325811	-0.359669
C	-0.9955978483	-2.1591317557	-0.0045403828	-0.046814
C	 0.0359088737	-2.5083597385	-1.1173529715	-0.260333
C	 1.1043753168	-2.087156183	-0.0837019406	 0.062035
O	 1.1758802713	-0.6453607829	-0.0369134843	-0.261826
C	 0.1084962777	-2.5886688567	 1.0112257872	 0.151909
O	 0.1267302207	-2.0394394609	 2.2895684213	-0.442319
H	 0.8844545306	 1.7059215293	-0.189489902	 0.261436
H	-0.8095926567	 1.7855133924	-0.0167094074	 0.266075
H	-1.9682956495	-2.6504791193	 0.0104168939	 0.073795
H	 0.0834628133	-3.577693268	-1.33315493	 0.109945
H	-0.0164913202	-1.9326972711	-2.0426842011	 0.110903
H	 2.1343115566	-2.437373	-0.1313327533	 0.086985
H	 0.1805521569	-3.6763747732	 1.09674446	 0.090844
H	-0.3583527583	-1.2051519812	 2.2457285037	 0.296552
141.1767	239.1029	262.4847	356.6426	396.6819	411.892	433.0062	445.0328	536.4495	583.9876	626.9783	653.4916	749.9027	778.5415	849.0579	854.8747	879.438	912.8039	976.7712	983.9979	1052.9938	1094.0628	1108.6557	1148.702	1159.8207	1197.3527	1228.9094	1242.4808	1266.3568	1306.2415	1323.5094	1367.0679	1419.2236	1429.5675	1479.8753	1612.8857	1711.2185	3072.3465	3080.3248	3109.5716	3129.8064	3139.1902	3591.1528	3708.4876	3763.5451
NC1=NC2CC(O1)C2O	N[C]1[N][C@H]2C[C@@H](O1)[C@H]2O	
InChI=1S/C5H8N2O2/c6-5-7-2-1-3(9-5)4(2)8/h2-4,8H,1H2,(H2,6,7)	InChI=1S/C5H8N2O2/c6-5-7-2-1-3(9-5)4(2)8/h2-4,8H,1H2,(H2,6,7)/t2-,3+,4-/m0/s1
