16
gdb 17244	4.66889	1.71798	1.64225	1.0445	63.6	-0.2169	0.078	0.295	836.5918	0.129959	-383.649808	-383.64294	-383.641996	-383.680959	26.268	
C	 0.155741157	 1.2919601947	 0.1739023999	-0.258687
O	-0.1823516767	-0.0358604439	-0.2019733372	-0.279385
C	 0.5381952985	-0.5032768166	-1.2683307928	 0.3833
C	 0.3910885679	-0.1678176338	-2.7572836515	-0.308403
C	 1.2983861904	-1.4106478823	-2.9611130002	 0.06849
O	 2.5914988622	-0.9999514178	-2.426096387	-0.29248
C	 1.9758232327	-1.0661526134	-1.1403579711	 0.018305
C	 0.8493178858	-1.9599705775	-1.5548727656	-0.216416
H	 1.2201455627	 1.375659183	 0.4307941432	 0.115155
H	-0.0684535179	 2.0071612079	-0.6289977596	 0.118359
H	-0.4497266587	 1.5373185683	 1.0486727595	 0.130177
H	-0.6300566603	-0.3515447744	-3.1009585751	 0.109369
H	 0.7746271257	 0.7802154818	-3.1464720301	 0.101215
H	 1.3616608796	-1.9480710199	-3.9040692098	 0.092087
H	 2.5813105463	-1.0254701067	-0.2446290808	 0.111404
H	 0.4502126148	-2.8952658694	-1.1890462418	 0.107511
88.122	172.9107	183.4258	366.4176	388.9174	475.8185	517.3315	628.1115	752.5802	774.2098	804.2413	825.2889	893.3788	915.1315	954.6421	976.802	1018.3232	1036.1973	1051.6088	1070.1118	1122.0829	1143.6985	1149.7535	1179.7574	1193.9495	1211.4509	1242.5038	1290.5372	1313.7104	1400.4432	1478.7802	1487.3298	1498.6781	1506.2739	2999.9664	3050.729	3056.7193	3117.6799	3127.9524	3151.583	3207.234	3221.1636
COC12CC3OC1C23	CO[C@@]12C[C@H]3O[C@@H]1[C@@H]23	
InChI=1S/C6H8O2/c1-7-6-2-3-4(6)5(6)8-3/h3-5H,2H2,1H3	InChI=1S/C6H8O2/c1-7-6-2-3-4(6)5(6)8-3/h3-5H,2H2,1H3/t3-,4+,5-,6-/m1/s1
