16
gdb 35398	3.11281	1.63071	1.35364	3.2312	73.78	-0.2267	0.0261	0.2528	961.7269	0.124049	-400.618885	-400.611703	-400.610759	-400.650376	28.702	
C	-0.2467270809	-1.2752782989	-0.1937807009	-0.440745
C	-0.0799595937	-0.0992998071	-0.0090529818	 0.36389
C	 0.0490364538	 1.3402544664	 0.1078938158	-0.087086
O	-0.1470180398	 1.891456785	 1.4457706107	-0.293573
C	 1.0753395145	 2.6467891979	 1.366333736	 0.120843
C	 2.3461956507	 1.9942851975	 1.9732468261	-0.077005
N	 2.222759948	 0.5411896022	 1.7545247118	-0.304916
C	 2.6763715601	 1.3926892356	 0.6391561881	-0.071239
C	 1.435036771	 2.0448343103	-0.0068988573	-0.101535
H	-0.3686071227	-2.321592733	-0.3272214497	 0.193215
H	-0.6714004877	 1.8112247282	-0.5754844633	 0.102647
H	 0.9440240405	 3.7151307748	 1.551393838	 0.081283
H	 2.9880183178	 2.3907492394	 2.7505009809	 0.093681
H	 3.0499249299	 0.1021585713	 2.156745327	 0.234348
H	 3.6348210833	 1.2262295949	 0.1639783535	 0.097194
H	 1.6196691852	 2.6536972555	-0.8894212051	 0.088999
122.6528	136.0036	253.7946	287.3749	399.9241	507.9415	533.5952	601.4582	622.3283	675.7146	704.4456	763.3424	780.8451	800.4137	876.0318	884.1089	926.8927	941.81	958.4663	985.2401	1002.0435	1024.6861	1083.9667	1102.6597	1118.6721	1182.5965	1200.5098	1203.8764	1263.3	1276.2617	1319.6524	1340.9757	1356.5306	1384.9949	2233.9987	3000.0007	3087.3635	3137.4523	3184.0926	3198.1729	3482.3485	3504.7571
C#CC1OC2C3NC3C12	C#C[C@H]1O[C@H]2[C@H]3N[C@H]3[C@@H]12	
InChI=1S/C7H7NO/c1-2-3-4-5-6(8-5)7(4)9-3/h1,3-8H	InChI=1S/C7H7NO/c1-2-3-4-5-6(8-5)7(4)9-3/h1,3-8H/t3-,4-,5+,6+,7-/m1/s1
