15
gdb 127632	3.36397	1.64664	1.12545	2.376	67.93	-0.1938	0.0277	0.2215	1019.9008	0.114434	-453.920636	-453.913044	-453.912099	-453.953527	27.133	
C	 0.0058573309	 1.4261618159	-0.0081305478	-0.33543
N	-0.012263809	-0.0181431074	 0.0420436481	-0.097739
N	 0.0403565303	-0.7564485562	-1.1116885046	-0.289435
C	 0.0751094209	-2.0488129243	-0.7366393133	-0.133941
C	 0.0388296925	-2.1300348873	 0.6581980237	 0.1756
C	-0.0084851876	-0.8456989284	 1.0963920644	 0.424878
O	 0.0143000974	-0.7351527879	 2.4515756903	-0.294949
C	-0.228009865	-2.1223517817	 2.8399852291	 0.004085
O	 0.11375923	-2.983237229	 1.7494790299	-0.286311
H	 1.0276666214	 1.8156031728	 0.0526188175	 0.145218
H	-0.4383266702	 1.7332855306	-0.9550387806	 0.162934
H	-0.5796038453	 1.8287296504	 0.8217934514	 0.14642
H	 0.1134594825	-2.8202509585	-1.4889344839	 0.122875
H	 0.3965423815	-2.3560116638	 3.7034726244	 0.139471
H	-1.2989620303	-2.2220548652	 3.0715042414	 0.116323
46.5504	142.3129	161.9032	250.1971	257.1849	315.0046	520.8012	617.0234	619.3063	659.5033	693.887	767.7667	837.7109	850.288	885.852	990.9867	1045.9945	1103.4682	1135.1645	1151.0119	1193.8407	1223.6008	1234.979	1294.8732	1377.3502	1422.7191	1444.6905	1483.876	1501.6338	1506.7803	1530.8283	1621.7686	1649.2341	2990.5454	3042.1665	3113.0279	3125.1279	3159.3779	3262.3859
CN1N=CC2=C1OCO2	Cn1ncc2c1OCO2	
InChI=1S/C5H6N2O2/c1-7-5-4(2-6-7)8-3-9-5/h2H,3H2,1H3	InChI=1S/C5H6N2O2/c1-7-5-4(2-6-7)8-3-9-5/h2H,3H2,1H3
