19
gdb 35331	3.72137	1.09931	0.99986	3.2192	79.71	-0.2454	0.0182	0.2636	1232.634	0.160646	-382.054012	-382.045787	-382.044842	-382.087242	31.468	
N	-0.2537290323	-1.2076898016	-0.2781202464	-0.328879
C	-0.1705544173	-0.0632051046	-0.1318761656	 0.268401
C	-0.0272667302	 1.3851669502	 0.0391960901	-0.11106
C	-0.1898407826	 1.8694513783	 1.5124293695	-0.311476
C	 1.3582944146	 1.9717416458	 1.5470434953	 0.392613
C	 2.0555175363	 3.1286402927	 2.2943136937	-0.28059
C	 2.3805859113	 2.1363450557	 3.4450310018	-0.213624
C	 2.1224176485	 0.9674219273	 2.4554082346	-0.283679
N	 1.3690253854	 1.8792548541	 0.0734713276	-0.363777
H	-0.6530304513	 1.8854015719	-0.7070480693	 0.120954
H	-0.6885653216	 2.8388065584	 1.5629226106	 0.120871
H	-0.6614011034	 1.1721097851	 2.2043051394	 0.128717
H	 2.9575123147	 3.4426062351	 1.7600297937	 0.10852
H	 1.4565649507	 4.0150187972	 2.520331708	 0.097955
H	 3.3716035179	 2.1984080649	 3.8976470835	 0.104454
H	 1.6322865941	 2.1711341728	 4.2411065266	 0.107649
H	 1.5841281102	 0.0849158655	 2.8104014729	 0.111011
H	 3.0503319295	 0.6405684612	 1.9738466759	 0.103782
H	 2.0665684055	 1.2644630501	-0.3342659419	 0.228159
56.0196	121.0759	153.6573	230.8728	286.4239	369.5056	397.3497	444.4034	549.3392	587.3683	677.6425	715.8052	784.0624	797.7942	865.2058	876.4455	909.1881	927.2217	945.2698	976.3385	988.8358	1033.1944	1064.4129	1099.6913	1167.9498	1178.4528	1184.3642	1204.008	1229.4459	1248.9434	1253.934	1271.8344	1294.6477	1297.1297	1341.692	1394.0012	1468.1089	1478.1952	1486.3863	1504.8956	2344.3155	3046.0155	3051.8982	3053.8765	3067.8565	3085.8149	3101.2473	3104.6813	3125.8039	3149.3927	3523.4495
N#CC1CC2(CCC2)N1	N#C[C@H]1CC2(CCC2)N1	
InChI=1S/C7H10N2/c8-5-6-4-7(9-6)2-1-3-7/h6,9H,1-4H2	InChI=1S/C7H10N2/c8-5-6-4-7(9-6)2-1-3-7/h6,9H,1-4H2/t6-/m1/s1
