17
gdb 128334	2.67766	1.57237	0.99679	2.6838	84.14	-0.1819	-0.0082	0.1737	1156.5599	0.138619	-414.206365	-414.197899	-414.196955	-414.239801	31.436	
C	 0.0019669668	 1.3949184886	-0.0185085149	-0.309662
N	 0.068683976	-0.0407848265	 0.0844361145	-0.319139
C	 0.6742369573	-0.6929900708	 1.0968215404	 0.40207
N	 1.2449062415	-0.0106571782	 2.0589057245	-0.345153
N	 1.8336588316	-0.7472280759	 3.0424346475	-0.230691
C	 1.8626107948	-2.0919702225	 3.0826885353	 0.036136
C	 1.2798559272	-2.8364698172	 2.0997323539	-0.238682
C	 0.6256207441	-2.1777727838	 1.0059193748	 0.249884
N	 0.015782925	-2.6770511533	-0.0206290545	-0.589205
H	 1.0032717885	 1.8412023407	-0.0623961872	 0.129952
H	-0.5415631911	 1.6598171686	-0.9273851464	 0.123044
H	-0.5142892454	 1.8355134852	 0.843488337	 0.129991
H	-0.3397290225	-0.6570441399	-0.6044030721	 0.266785
H	 2.2597595678	-0.1902054015	 3.7622275189	 0.272233
H	 2.372874565	-2.5234880527	 3.9363772372	 0.125364
H	 1.3114495484	-3.9180681794	 2.1452363518	 0.094644
H	 0.034203545	-3.6968465114	 0.0040013992	 0.202428
65.9165	101.1121	146.3778	200.8362	298.0298	364.7471	402.7399	483.4651	496.3286	520.6781	547.9912	580.4573	610.12	751.3771	775.307	812.8513	851.7097	913.0605	923.6169	1044.4573	1076.6569	1111.4161	1163.2399	1163.7676	1201.7158	1261.2674	1330.1915	1396.5298	1429.925	1459.3549	1474.7739	1515.718	1526.9524	1588.9974	1608.6425	1649.5073	1659.8635	3015.5486	3058.755	3128.8963	3192.6897	3211.1506	3464.6671	3592.1928	3673.0728
CNC1=NNC=CC1=N	CNC1=NNCC=C1[NH]	
InChI=1S/C5H8N4/c1-7-5-4(6)2-3-8-9-5/h2-3H,1H3,(H2,6,8)(H,7,9)	InChI=1S/C5H9N4/c1-7-5-4(6)2-3-8-9-5/h2,6,8H,3H2,1H3,(H,7,9)
