16
gdb 24283	3.95613	1.58948	1.23728	1.9609	74.1	-0.2137	0.0177	0.2315	971.9021	0.127757	-400.742359	-400.736104	-400.73516	-400.77281	25.82	
C	 0.0394146386	 1.4765087174	 0.0034437965	-0.248265
C	 1.2795991063	 0.6653568288	 0.0204371588	-0.0192
C	 1.9823671827	 0.3886412124	 1.3661540354	-0.3909
C	 0.9036761635	-0.342125763	 2.1175287373	 0.222346
C	 0.5850293831	-0.922844395	 3.2987014644	-0.15848
O	-0.6633208529	-1.4738962613	 3.2168557174	-0.159013
C	-1.150189384	-1.2394128984	 1.9564368001	-0.139646
C	-0.2197735257	-0.5470902424	 1.2568629558	 0.221485
N	-0.0600548278	-0.0054030157	-0.0470023836	-0.197311
H	-0.2714346183	 1.9618908788	 0.9252457361	 0.123164
H	-0.265312864	 1.9801245146	-0.90904099	 0.12168
H	 1.8746945619	 0.5996523674	-0.8845864579	 0.09982
H	 2.8718278724	-0.2314719429	 1.2075349669	 0.124467
H	 2.3167408347	 1.3108071463	 1.853809994	 0.123621
H	 1.0817376874	-1.0479743278	 4.2465149131	 0.136702
H	-2.1349168679	-1.6215915992	 1.7517235159	 0.139532
168.727	229.6756	349.9958	437.2759	448.1032	600.893	615.3898	684.2309	698.73	736.5157	751.6912	769.0651	785.9445	832.1804	910.1119	927.331	962.7707	1047.282	1059.9874	1082.0431	1097.957	1114.531	1150.7154	1172.0993	1181.1411	1236.5151	1255.3494	1287.7595	1308.8866	1373.0171	1397.2191	1486.4732	1498.7819	1603.1481	1673.3007	3037.8471	3069.3341	3109.1067	3163.2211	3200.6118	3273.4639	3290.6212
C1C2CC3=COC=C3N12	C1[C@H]2Cc3cocc3N12	
InChI=1S/C7H7NO/c1-5-3-9-4-7(5)8-2-6(1)8/h3-4,6H,1-2H2	InChI=1S/C7H7NO/c1-5-3-9-4-7(5)8-2-6(1)8/h3-4,6H,1-2H2/t6-,8?/m1/s1
