20
gdb 59806	3.09036	1.01975	0.94147	0.6905	78.16	-0.2497	0.0138	0.2635	1361.5992	0.169092	-440.276408	-440.266388	-440.265444	-440.311916	35.811	
C	-0.4810653297	 0.4275789189	 1.2010281837	-0.388887
C	-0.1899510206	 0.4718303146	-0.3059561748	 0.053585
C	 1.1473167456	-0.1960696108	-0.6569668604	-0.389206
N	-1.3016634635	-0.0850485508	-1.0908994925	-0.351945
C	-1.6531430609	-1.2790112445	-1.0001408925	 0.432708
O	-1.1883133513	-2.3437125821	-0.240242956	-0.270836
C	-2.3041059621	-3.188851806	-0.6746158714	-0.096239
C	-2.7968652326	-2.0695835165	-1.6131988136	-0.008706
O	-4.0907172462	-1.5947067913	-1.3428602688	-0.431272
H	 0.3027212181	 0.9558472932	 1.7535646474	 0.110075
H	-1.4379247292	 0.9094319579	 1.4230372092	 0.115119
H	-0.5228022715	-0.6042154309	 1.5604879551	 0.133006
H	-0.1243015565	 1.5251358264	-0.6029473487	 0.080428
H	 1.1553944758	-1.2437308625	-0.3433945346	 0.133063
H	 1.3261382598	-0.1571244781	-1.7356041075	 0.11644
H	 1.9714681424	 0.3218136119	-0.1556735982	 0.109708
H	-1.9424806135	-4.1085712389	-1.1381380976	 0.122295
H	-2.9855454322	-3.3993323359	 0.1520993408	 0.132413
H	-2.6557305895	-2.2916232683	-2.6796239743	 0.098587
H	-4.0687023322	-0.6386996661	-1.4686920653	 0.299665
49.2175	84.8791	121.422	145.1694	182.5769	241.1504	253.5466	265.974	332.4638	383.0423	436.565	495.5084	580.3938	681.654	745.1431	811.0197	865.7136	920.1731	933.9067	955.3648	957.236	972.7614	1059.6319	1113.2233	1139.3322	1149.6328	1175.2831	1189.4993	1194.9198	1211.7351	1322.1645	1351.5655	1369.7945	1386.2598	1393.3198	1402.0345	1413.8202	1485.2473	1494.2993	1497.4983	1506.5037	1514.0015	1844.7353	3014.8044	3027.2754	3036.6629	3040.3388	3073.9889	3106.3127	3109.2271	3120.1453	3125.3438	3141.1639	3798.1969
CC(C)N=C1OCC1O	CC(C)N=C1OC[C@H]1O	
InChI=1S/C6H11NO2/c1-4(2)7-6-5(8)3-9-6/h4-5,8H,3H2,1-2H3	InChI=1S/C6H11NO2/c1-4(2)7-6-5(8)3-9-6/h4-5,8H,3H2,1-2H3/t5-/m1/s1
