19
gdb 60795	2.35198	1.18926	1.09472	3.9104	77.4	-0.2611	0.009	0.2701	1228.6234	0.157185	-419.241723	-419.231523	-419.230579	-419.276996	36.602	
C	 0.7899406011	 1.1839757086	 0.1510976953	-0.365917
N	-0.035253639	-0.0183301813	 0.0469314937	-0.065997
C	-0.7775503358	-0.3775478376	 1.1436872016	 0.155436
O	-0.7598394128	 0.2096787862	 2.2048551365	-0.33658
C	-0.0507432253	-0.7347789391	-1.239108344	 0.082276
C	 1.3823883551	-1.1635831033	-1.6325855485	-0.395192
C	-0.9623762301	-1.9796117526	-1.2464459249	-0.434769
C	-0.563976353	 0.1931057721	-2.2813458798	 0.291565
N	-0.9546714813	 0.9126204051	-3.0968034591	-0.337928
H	 1.8524730937	 0.9399550835	 0.2532682698	 0.131888
H	 0.6505192333	 1.8161508935	-0.7305346975	 0.14877
H	 0.4694691585	 1.7204110394	 1.0430265353	 0.175638
H	-1.4013234118	-1.2668156056	 0.9801520479	 0.090864
H	 1.772524232	-1.844114184	-0.8707807795	 0.135152
H	 1.3690935904	-1.6771145166	-2.5968110087	 0.140479
H	 2.0515688088	-0.3061194953	-1.7160169614	 0.144118
H	-2.005634102	-1.7321185258	-1.0426821881	 0.153502
H	-0.9133741973	-2.430988713	-2.2397027861	 0.145365
H	-0.6142348447	-2.7166434641	-0.5187247227	 0.141331
41.8045	104.8478	141.9757	184.539	196.2094	247.61	279.3749	323.2776	350.6489	358.6859	382.1571	409.3492	422.9836	507.5204	586.4839	631.9681	769.4659	847.6895	930.8943	947.7616	1021.1749	1030.8176	1054.1319	1155.8004	1163.9549	1173.2634	1224.1499	1260.3594	1377.8397	1398.9881	1421.0217	1441.7813	1455.2067	1479.6248	1486.9935	1498.4307	1499.9371	1512.7239	1521.4712	1783.6484	2352.0943	3037.8173	3042.1675	3053.3229	3059.5644	3102.5014	3130.1429	3136.9383	3142.7159	3145.9965	3166.3793
CN(C=O)C(C)(C)C#N	CN(C=O)C(C)(C)C#N	
InChI=1S/C6H10N2O/c1-6(2,4-7)8(3)5-9/h5H,1-3H3	InChI=1S/C6H10N2O/c1-6(2,4-7)8(3)5-9/h5H,1-3H3
