23
gdb 119382	3.09365	1.01198	0.89047	1.0831	87.74	-0.2514	0.0902	0.3416	1443.6606	0.20529	-388.232262	-388.222765	-388.221821	-388.266947	35.615	
C	-0.8228835379	 0.793744238	 0.4716500365	-0.216445
O	-0.5380367192	-0.57691018	 0.3386124945	-0.235676
C	 0.133511356	-0.8847899312	-0.8658120907	-0.217796
C	 0.3889214252	-2.3642835962	-0.9121987638	 0.349786
C	 1.2288698228	-3.2060748956	 0.0950512408	-0.250649
C	 0.715984291	-4.2164729115	-0.970060852	-0.06365
C	-0.6662239603	-3.5118981051	-0.8524078246	-0.261248
C	 1.1217527158	-3.1587192874	-2.0489902476	 0.013343
C	 0.5896708756	-3.2133833304	-3.4740479636	-0.444391
H	 0.0939626932	 1.405265036	 0.471424718	 0.101396
H	-1.4744990067	 1.158104348	-0.3390129572	 0.101252
H	-1.3375609937	 0.9311959184	 1.4259363711	 0.12536
H	-0.4735521709	-0.5734523577	-1.7348120268	 0.083516
H	 1.089043796	-0.3332473331	-0.9268062312	 0.082261
H	 2.3061187666	-3.013903159	 0.1137739503	 0.081724
H	 0.8172210833	-3.303256413	 1.1019440417	 0.095244
H	 0.9069335712	-5.2903360774	-1.001103956	 0.065186
H	-1.1884974323	-3.6260279025	 0.1002459891	 0.096865
H	-1.3614442529	-3.6065604728	-1.6881591053	 0.086757
H	 2.2019603475	-2.9657828978	-2.0702200916	 0.057576
H	-0.4853816155	-3.4007561261	-3.5316058417	 0.11806
H	 0.7895845576	-2.2719287288	-3.9982471977	 0.114547
H	 1.0927720876	-4.008535955	-4.0356956224	 0.116985
67.5993	89.3731	111.0063	178.7808	219.6859	235.291	304.8482	344.1716	354.6662	427.9099	546.6049	583.0646	703.3405	767.0354	788.8981	815.5767	909.5564	921.1637	946.8875	996.3902	1000.7721	1003.4484	1021.7177	1054.0305	1110.4879	1118.5813	1141.863	1146.6021	1158.1404	1163.1214	1175.0642	1190.7955	1217.9482	1227.7714	1232.6817	1250.1686	1281.2249	1321.1907	1405.0643	1417.1444	1428.5985	1480.0199	1484.4398	1491.5592	1496.1308	1500.7506	1512.1612	1521.7412	1547.2769	2935.1221	2961.1465	2966.4645	3007.615	3019.411	3032.7376	3047.9114	3068.2851	3086.3993	3099.482	3110.9083	3113.1279	3120.508	3130.6348
COCC12CC(C1)C2C	COC[C@@]12C[C@@H](C1)[C@H]2C	
InChI=1S/C8H14O/c1-6-7-3-8(6,4-7)5-9-2/h6-7H,3-5H2,1-2H3	InChI=1S/C8H14O/c1-6-7-3-8(6,4-7)5-9-2/h6-7H,3-5H2,1-2H3/t6-,7-,8+/m1/s1
