15
gdb 37002	3.3796	2.495	2.22594	3.827	70.69	-0.211	-0.0464	0.1646	699.0885	0.1149	-379.558782	-379.553435	-379.552491	-379.587973	23.605	
N	 0.1925821947	 1.3690820092	-0.4065704808	-0.171617
C	 1.2531607508	 1.7006546348	 0.257970524	 0.141456
C	 1.6653803866	 0.8891667227	 1.542374652	-0.147015
C	 0.8399977376	-0.3390089187	 1.2556261127	-0.11131
C	-0.0422147616	 0.0731044758	 0.0639003628	-0.010875
C	 1.3476649562	-0.7618617552	-0.1020678213	-0.092404
C	 2.5983648646	 0.0036292265	-0.3853624478	-0.026637
C	 3.016119973	 0.8222923159	 0.7866294523	-0.040928
N	 2.5358836604	 1.6559447438	-0.3509530833	-0.17131
H	 1.6205633821	 1.362521223	 2.5191947938	 0.092714
H	 0.484125989	-1.0283692152	 2.0093968701	 0.101043
H	-0.9621777968	-0.4459363388	-0.1808773147	 0.107612
H	 1.2448824143	-1.7669313338	-0.4878850053	 0.10785
H	 3.2821013495	-0.3077234411	-1.1624572045	 0.121377
H	 4.0172144596	 0.9285185111	 1.1919489298	 0.100044
263.9066	467.8795	493.026	554.4844	648.2647	660.2157	689.5178	705.4253	781.6517	795.4594	808.4171	829.9816	851.726	895.816	930.2879	951.6	970.2228	986.8708	995.344	1042.92	1046.8971	1078.6803	1097.1672	1114.9611	1161.5225	1181.6561	1242.9338	1246.9069	1284.9058	1300.2974	1315.868	1363.1893	1517.3275	3156.5709	3168.7198	3184.4857	3203.7743	3215.3841	3230.9618
N1=C2C3C4C1C4C1C3N21	[N]1[C]2[C@H]3[C@H]4[C@@H]1[C@H]4[C@@H]1[C@H]3N21	
InChI=1S/C7H6N2/c8-4-1-2(4)5-6-3(1)7(8)9(5)6/h1-6H	InChI=1S/C7H6N2/c8-4-1-2(4)5-6-3(1)7(8)9(5)6/h1-6H/t1-,2-,3-,4+,5+,6-,9?/m0/s1
