17
gdb 85779	2.94293	1.24251	0.95962	2.0939	71.11	-0.2462	0.0128	0.259	1221.5674	0.136176	-455.205572	-455.196444	-455.1955	-455.240108	32.369	
C	 0.1404989243	 1.4334793321	-0.0761430135	-0.347138
N	 0.0323996169	-0.0019603074	-0.0408504959	-0.075393
C	-1.1208294546	-0.9144196241	-0.1293804567	-0.188082
C	-0.1067007147	-2.0843082381	-0.0646347428	-0.26596
C	-0.025544199	-3.0076898358	-1.2763370647	 0.380614
N	 1.2287439374	-3.5024101963	-1.4729327594	-0.519845
O	-0.9913099023	-3.285216918	-1.9589869436	-0.361332
C	 0.9780366427	-0.9842072332	-0.0088093257	 0.416097
O	 2.1875952922	-0.9756640436	 0.0009967161	-0.397605
H	 1.2015006113	 1.6898654567	-0.0309914134	 0.163206
H	-0.2841446487	 1.8426464193	-1.0006701632	 0.135756
H	-0.3723530765	 1.8945688514	 0.7761723634	 0.133644
H	-1.8126286047	-0.8365747896	 0.7148816124	 0.114273
H	-1.6701935312	-0.8559835819	-1.0727521954	 0.139646
H	-0.1554750302	-2.6826390326	 0.8487817105	 0.132396
H	 2.0158414937	-3.0389994431	-1.0383929408	 0.279471
H	 1.3882258433	-4.0465274662	-2.3061734173	 0.260252
61.4666	87.5525	138.5431	151.3352	183.527	250.17	288.0581	394.285	455.7264	495.8651	553.9425	605.5288	640.5516	694.2879	787.6748	807.3419	848.3701	987.2963	1015.2448	1060.9065	1095.2253	1121.9808	1131.5163	1160.694	1175.5941	1249.4218	1260.0908	1304.1191	1359.2143	1427.4917	1452.6488	1482.4644	1511.7531	1534.2728	1632.0563	1803.2829	1855.3811	3019.7966	3051.1547	3073.0769	3089.7831	3109.0006	3132.2338	3544.0072	3690.2465
CN1CC(C(N)=O)C1=O	CN1C[C@@H](C(=O)N)C1=O	
InChI=1S/C5H8N2O2/c1-7-2-3(4(6)8)5(7)9/h3H,2H2,1H3,(H2,6,8)	InChI=1S/C5H8N2O2/c1-7-2-3(4(6)8)5(7)9/h3H,2H2,1H3,(H2,6,8)/t3-/m0/s1
