15
gdb 56806	3.06072	1.21637	0.98081	5.2009	66.36	-0.2757	-0.0126	0.2632	1183.7845	0.113198	-453.961659	-453.953246	-453.952302	-453.995727	29.315	
O	 1.0799008966	 1.3873071016	-0.5415685085	-0.40219
C	 0.2757718609	 0.385931001	 0.0110030612	-0.075016
C	 0.0029290764	-0.7016373232	-0.961944693	 0.268818
N	-0.2106320954	-1.5382337644	-1.7286755059	-0.315116
C	 0.9204828885	-0.2022083568	 1.2479312417	 0.408362
N	 2.11290984	 0.0610382588	 1.5829120938	-0.331985
C	 2.3662321447	-0.6980747171	 2.8196405382	-0.188464
C	 1.0485899293	-1.4831763063	 3.0655771326	-0.116575
O	 0.1728352285	-1.0358603813	 1.9925611928	-0.249282
H	 1.9662492332	 1.2558952916	-0.1680187647	 0.307106
H	-0.6949196624	 0.8149337457	 0.2955630385	 0.15535
H	 3.2279489883	-1.3572549144	 2.6816234203	 0.134361
H	 2.6052568407	-0.0081598134	 3.6348639987	 0.131451
H	 1.1607994633	-2.5660607091	 2.9752984466	 0.13852
H	 0.5619571576	-1.2481860528	 4.0143175876	 0.134659
55.5942	89.9594	114.2526	191.4608	232.1807	279.1595	379.8235	424.1902	457.1809	598.258	642.2042	751.2306	808.5553	834.2761	916.4849	939.5233	982.8764	993.8203	1051.1455	1112.5395	1120.9978	1213.9336	1224.7536	1247.7254	1291.1532	1340.0534	1348.8374	1388.3014	1458.4119	1502.2785	1524.3958	1746.7007	2361.9933	3026.6931	3054.7484	3072.764	3089.056	3126.6164	3693.9002
OC(C#N)C1=NCCO1	O[C@@H](C#N)C1=NCCO1	
InChI=1S/C5H6N2O2/c6-3-4(8)5-7-1-2-9-5/h4,8H,1-2H2	InChI=1S/C5H6N2O2/c6-3-4(8)5-7-1-2-9-5/h4,8H,1-2H2/t4-/m0/s1
