21
gdb 59489	2.41433	1.09111	0.82664	3.4898	82.94	-0.264	0.0333	0.2974	1435.6622	0.181831	-383.270857	-383.260849	-383.259905	-383.3064	36.503	
C	 0.4288613924	 0.7713217341	 1.603923158	-0.389152
C	-0.2342052287	-0.6134347375	 1.6155336507	 0.024146
C	-0.7902319377	-0.9671532011	 3.0024967653	-0.40092
C	-1.3319977726	-0.669138994	 0.5698336228	 0.015759
N	-0.9330451235	-0.8026359861	-0.8424200812	-0.352508
C	-1.7220626843	-1.8705637738	-0.2177576025	-0.033323
C	-1.0284908247	-3.2222150861	-0.1163742866	-0.347121
C	-1.6252275968	-4.0791189277	 0.9081073983	 0.27112
N	-2.1102014325	-4.7412051871	 1.721822117	-0.316749
H	 1.2511322028	 0.8178460714	 2.3248111032	 0.113184
H	 0.8279764107	 1.0028628721	 0.6121171888	 0.125873
H	-0.2917641579	 1.5533995945	 1.8724021741	 0.109198
H	 0.5329881623	-1.3490873401	 1.3463487357	 0.074745
H	-1.5653899803	-0.2535474362	 3.306640557	 0.112198
H	-1.2327768777	-1.9676594945	 3.017809742	 0.138234
H	 0.0012485976	-0.9344291429	 3.7577496444	 0.115381
H	-2.1547328539	 0.0172880611	 0.7781378614	 0.084033
H	-1.5124520925	-0.2308537311	-1.4499065649	 0.236407
H	-2.7746452377	-1.9482132526	-0.484050786	 0.101485
H	-1.087109825	-3.7376056837	-1.0823150471	 0.154969
H	 0.0343029699	-3.0864853985	 0.1000793296	 0.163039
47.4635	62.7307	137.3304	167.7401	229.704	233.9432	260.2008	326.5647	365.409	379.5577	393.0267	478.6029	518.7728	565.6359	782.9204	812.9179	889.4667	930.7473	933.5105	935.1021	959.449	972.7149	988.2967	1008.127	1075.8966	1133.2705	1160.1224	1170.637	1194.4948	1238.4626	1272.3968	1276.1867	1312.2659	1323.9607	1342.4635	1399.5606	1412.9423	1426.2046	1463.2086	1479.5833	1490.5957	1492.2315	1505.5527	1515.3315	2360.9141	3026.7724	3028.879	3034.433	3049.7495	3088.669	3092.0502	3099.1918	3102.3382	3111.9062	3113.1131	3126.7392	3514.3299
CC(C)C1NC1CC#N	CC(C)[C@H]1N[C@H]1CC#N	
InChI=1S/C7H12N2/c1-5(2)7-6(9-7)3-4-8/h5-7,9H,3H2,1-2H3	InChI=1S/C7H12N2/c1-5(2)7-6(9-7)3-4-8/h5-7,9H,3H2,1-2H3/t6-,7+/m0/s1
