17
gdb 47551	2.75331	1.52254	1.0635	3.3371	67.93	-0.2624	0.0009	0.2633	1090.3402	0.13694	-458.97256	-458.964889	-458.963945	-459.005237	28.966	
O	-0.0047129678	-0.0328609019	 0.5521558873	-0.297587
C	-0.0538591495	 1.0668882771	 0.0735212012	 0.382994
C	-1.3715127163	 1.8291050245	-0.0608128572	-0.353725
C	-1.703246168	 2.3311969526	-1.4526103714	 0.03354
O	-2.1611913257	 3.6873768742	-1.5500453659	-0.2534
C	-0.8703469758	 3.3684691816	-2.0670246793	 0.061983
C	 0.3538956677	 3.8541521339	-1.3168710226	-0.27461
C	 1.3818917179	 2.7328585587	-1.1788377453	-0.053748
O	 1.1190716836	 1.6837391654	-0.2315588821	-0.235616
H	-2.1462305841	 1.1548474116	 0.3069514969	 0.139642
H	-1.33374319	 2.6897262606	 0.6141093192	 0.143605
H	-2.2352597907	 1.6332693595	-2.097146538	 0.111164
H	-0.8027074512	 3.4009328854	-3.1549632945	 0.100984
H	 0.8322516705	 4.6770704756	-1.8598964221	 0.117143
H	 0.0699774985	 4.2458676023	-0.3366680745	 0.129655
H	 1.5481930348	 2.2614500461	-2.1567142405	 0.118581
H	 2.338974446	 3.142879863	-0.8466477113	 0.129396
73.285	101.0155	222.4371	294.3925	313.0133	368.9231	462.9203	494.5056	547.647	586.563	676.4559	775.8904	812.4025	841.7472	896.8316	938.8223	965.1763	1023.9534	1034.9935	1072.3211	1095.4408	1126.8821	1159.6208	1174.8431	1213.721	1253.2541	1284.4285	1306.9606	1322.1042	1355.0852	1388.5228	1436.672	1467.1733	1484.1592	1493.6626	1508.7563	1831.9876	3020.7598	3049.8518	3069.5259	3094.8924	3099.0604	3111.9191	3120.5553	3136.6675
O=C1CC2OC2CCO1	O=C1C[C@H]2O[C@H]2CCO1	
InChI=1S/C6H8O3/c7-6-3-5-4(9-5)1-2-8-6/h4-5H,1-3H2	InChI=1S/C6H8O3/c7-6-3-5-4(9-5)1-2-8-6/h4-5H,1-3H2/t4-,5+/m0/s1
