23
gdb 86879	3.00517	1.06023	0.88713	0.9479	91.6	-0.2522	0.0541	0.3063	1408.0934	0.205327	-351.146399	-351.136563	-351.135619	-351.181059	37.795	
C	 0.2718488283	 1.666342708	-0.0993784708	-0.396233
C	 0.0879121962	 0.1449809832	-0.0074582782	 0.00157
C	 0.659714082	-0.5890080664	-1.23388078	-0.225481
C	 2.1899061737	-0.6976883476	-0.9548681101	-0.154739
C	 2.3130143635	-0.6701905166	 0.6083351673	-0.234584
C	 0.8707942748	-0.5251280535	 1.1508296776	 0.055741
C	 0.7833371128	 0.1552705577	 2.5163359587	-0.4196
C	 2.8074267555	-1.8576714148	-1.5809856522	 0.304451
C	 3.3060433411	-2.8257890831	-2.0920427807	-0.458018
H	 1.3272604722	 1.9518784871	-0.171129452	 0.114952
H	-0.2350304118	 2.0597776435	-0.9866637927	 0.112946
H	-0.1471475749	 2.1762202239	 0.7731164578	 0.115704
H	-0.9840393389	-0.0619056162	 0.0940566812	 0.063723
H	 0.2353886483	-1.5960286203	-1.2965535508	 0.106885
H	 0.4513261616	-0.0857409822	-2.1822221333	 0.097379
H	 2.6791304229	 0.1970352037	-1.3564280147	 0.102779
H	 2.8012625741	-1.5705300871	 0.9871430595	 0.111284
H	 2.9300662944	 0.1798770441	 0.9175193198	 0.098679
H	 0.4549058615	-1.5365492088	 1.253522101	 0.073043
H	 1.2220955359	 1.1584120017	 2.4963721217	 0.115719
H	-0.2561558827	 0.2502126094	 2.8492646961	 0.110988
H	 1.3213017098	-0.4225201425	 3.2754653796	 0.113769
H	 3.7515234	-3.6757003532	-2.5459657149	 0.189045
42.3793	133.684	153.3887	203.5803	227.1804	232.6159	275.8637	316.1303	359.4854	454.4812	509.813	522.8699	586.5083	616.9196	620.0389	628.9678	765.4142	817.0799	874.0765	882.3537	935.3878	945.9697	990.6185	1009.6077	1037.839	1048.2493	1082.1075	1097.9844	1126.1348	1166.9506	1212.1828	1218.8544	1273.3518	1294.4972	1300.2095	1321.8933	1336.8119	1357.3417	1378.8859	1383.7212	1412.9085	1415.4156	1486.9471	1494.8164	1495.9992	1498.8104	1504.2936	1510.6396	2232.2511	3005.2201	3026.2491	3028.5633	3032.4008	3032.6465	3052.2874	3054.3052	3093.1564	3094.9813	3097.6525	3098.7494	3105.2169	3107.5514	3505.4635
CC1CC(CC1C)C#C	C[C@H]1C[C@@H](C[C@H]1C)C#C	
InChI=1S/C9H14/c1-4-9-5-7(2)8(3)6-9/h1,7-9H,5-6H2,2-3H3	InChI=1S/C9H14/c1-4-9-5-7(2)8(3)6-9/h1,7-9H,5-6H2,2-3H3/t7-,8+,9-
