17
gdb 83595	2.2653	1.76001	1.27556	3.2675	68.1	-0.2341	-0.0384	0.1956	1027.5844	0.134471	-458.939131	-458.930648	-458.929704	-458.972319	31.375	
C	-0.3023359222	 1.5232469484	-0.0391186243	-0.501249
C	 0.0868455925	 0.0644860517	-0.0089362266	 0.150025
C	-0.9822265376	-1.0211299821	 0.2746782373	-0.1142
O	-0.0842611037	-1.756617946	 1.1430707435	-0.303214
C	 0.9141992115	-0.7134592514	 1.0709375477	-0.003402
C	 1.9921969549	-1.1175655891	 0.0327200907	 0.053731
O	 2.377286905	-2.4526275887	-0.0206573171	-0.425936
C	 1.0729368885	-0.4888446774	-1.0660943193	 0.300553
O	 1.0957987718	-0.4401075375	-2.2601881934	-0.294656
H	 0.5777320384	 2.1737466668	-0.0251175257	 0.130104
H	-0.8585616315	 1.744721871	-0.9562529648	 0.144448
H	-0.9341274174	 1.7857103474	 0.8155547993	 0.126134
H	-1.8427619131	-0.636170288	 0.8365406424	 0.11435
H	-1.3373149767	-1.6177193055	-0.5721680759	 0.125668
H	 1.2102861441	-0.3328767488	 2.0497185247	 0.086455
H	 2.8928948257	-0.4951728563	 0.1283017038	 0.117479
H	 1.5767247699	-2.9624966245	 0.1687764679	 0.293712
69.6668	171.141	172.097	219.4821	225.2686	260.1075	281.039	453.7278	476.2719	544.4399	592.3915	660.5744	755.3181	784.8692	840.3871	877.6044	921.3167	979.9442	995.4016	1011.7864	1039.9946	1116.576	1146.7528	1154.6915	1176.275	1184.3108	1228.2669	1273.9313	1289.9175	1311.7931	1366.1416	1411.3167	1425.5078	1489.7475	1491.0176	1524.5125	1891.5824	3016.7093	3026.1086	3033.1376	3077.4464	3102.7082	3104.8072	3105.5166	3744.3287
CC12COC1C(O)C2=O	C[C@]12CO[C@H]1[C@@H](O)C2=O	
InChI=1S/C6H8O3/c1-6-2-9-5(6)3(7)4(6)8/h3,5,7H,2H2,1H3	InChI=1S/C6H8O3/c1-6-2-9-5(6)3(7)4(6)8/h3,5,7H,2H2,1H3/t3-,5-,6+/m0/s1
