20
gdb 69492	3.05089	1.47625	1.23505	1.8601	77.89	-0.2376	0.077	0.3146	1081.4319	0.17166	-403.12585	-403.117638	-403.116694	-403.157914	33.224	
C	-0.0019248092	 1.4874769313	 0.1186301614	-0.465435
C	-0.052288037	-0.0196742816	 0.1160332747	 0.355446
C	-1.3516182794	-0.712826833	-0.3205016471	-0.314048
C	-1.3851349344	-2.0250004459	 0.4562248023	-0.08343
C	-1.5244061088	-1.938042493	 1.9697448654	-0.350867
C	-0.1686169187	-2.1224443551	 1.3401262771	 0.386526
O	 0.4894637036	-3.3512291954	 1.4434952815	-0.469534
C	 0.6448437123	-0.8782043534	 1.1200237554	-0.157882
N	 1.2042552691	-0.7047351899	-0.2310345994	-0.376292
H	 0.9785976396	 1.8395342773	 0.4476600551	 0.12853
H	-0.1787640964	 1.882638141	-0.8885774483	 0.119128
H	-0.7680109273	 1.9061543278	 0.7808526963	 0.111241
H	-2.2195528554	-0.0826188708	-0.0907526126	 0.101445
H	-1.3616562984	-0.8780723086	-1.4053137724	 0.102868
H	-1.7622797239	-2.9235709511	-0.0178498042	 0.095291
H	-1.7793868051	-0.9837492797	 2.4217112237	 0.109298
H	-1.9482704336	-2.8080057508	 2.4598128572	 0.114239
H	 0.8877481641	-3.4044454633	 2.3192679251	 0.282819
H	 1.2408699781	-0.4672691558	 1.9324981646	 0.079955
H	 1.0274887408	-1.5435465902	-0.7815452557	 0.230701
143.4018	188.6669	214.4303	258.8911	307.0984	362.9599	386.959	403.2356	415.6068	510.7823	562.0645	606.9048	739.8531	766.2747	835.7209	843.775	899.9786	909.5085	937.9512	946.2466	998.5432	1028.9749	1037.6156	1049.5743	1068.1387	1085.6394	1107.9591	1135.6252	1183.2304	1215.4639	1227.1301	1255.4523	1284.7127	1311.6567	1339.4575	1346.2985	1394.756	1411.6495	1440.0727	1478.8371	1488.157	1492.5945	1500.6594	3020.1333	3029.1834	3053.7865	3087.3142	3119.6976	3123.0048	3126.2395	3181.036	3214.1739	3476.6095	3796.4425
CC12CC3CC3(O)C1N2	C[C@]12C[C@@H]3C[C@]3(O)[C@H]1N2	
InChI=1S/C7H11NO/c1-6-2-4-3-7(4,9)5(6)8-6/h4-5,8-9H,2-3H2,1H3	InChI=1S/C7H11NO/c1-6-2-4-3-7(4,9)5(6)8-6/h4-5,8-9H,2-3H2,1H3/t4-,5+,6+,7-/m1/s1
