21
gdb 115186	4.0708	0.92841	0.79367	3.8577	86.86	-0.2342	-0.0466	0.1876	1473.538	0.183333	-387.138559	-387.129649	-387.128705	-387.172432	33.833	
C	-0.1634621936	 1.6020275729	 0.0054900594	-0.394937
C	-0.0132019612	 0.0780332422	 0.0003678684	-0.186833
C	 0.7808855085	-0.4945909761	 1.193303911	-0.016804
C	 0.6064412912	-2.0181087449	 1.306955876	-0.232479
C	 1.5197873365	-2.6197783863	 2.3805533921	-0.328668
C	 2.9847476029	-2.2658777374	 2.1530841581	 0.386144
O	 3.892148075	-3.000757021	 2.4886561302	-0.334947
C	 3.2350874334	-0.9463515918	 1.5337857624	-0.173563
C	 2.2451645729	-0.1387490152	 1.1296752323	-0.027376
H	 0.8018900572	 2.1149175472	-0.0538842172	 0.120996
H	-0.7607892155	 1.9366198907	-0.8479780821	 0.11955
H	-0.6644700663	 1.9456751532	 0.9172659854	 0.118255
H	-1.0109716597	-0.3778487737	 0.0106938818	 0.100183
H	 0.4609900619	-0.2491669522	-0.9339748505	 0.102547
H	 0.370170052	-0.0329596779	 2.1079704254	 0.090291
H	-0.4410912884	-2.2583678074	 1.518922516	 0.100071
H	 0.8429445418	-2.4703799274	 0.334631923	 0.107317
H	 1.2425412051	-2.2228910191	 3.3683424433	 0.12124
H	 1.4333207987	-3.7076826773	 2.4404277817	 0.12087
H	 4.2786401495	-0.6594399806	 1.4452849061	 0.104227
H	 2.4971998082	 0.837937682	 0.721508917	 0.103916
64.8515	95.7043	175.8624	200.1232	257.1672	276.6854	346.0259	393.9091	448.3377	482.0707	522.1746	626.6662	712.9587	753.6313	755.9933	786.5198	871.0805	924.2241	950.092	978.6064	1015.021	1026.4203	1052.4763	1075.2828	1111.3195	1123.099	1165.8397	1206.1918	1234.4632	1260.7858	1277.4723	1298.9001	1340.8708	1363.7562	1374.4171	1378.8507	1409.8137	1420.2651	1460.181	1484.8429	1495.3915	1502.6043	1507.1678	1675.9507	1779.9264	2955.3384	3009.7357	3019.7419	3025.9516	3035.2158	3054.7793	3070.2855	3099.8452	3101.8242	3106.4245	3146.9218	3183.7835
CCC1CCC(=O)C=C1	CC[C@H]1CCC(=O)C=C1	
InChI=1S/C8H12O/c1-2-7-3-5-8(9)6-4-7/h3,5,7H,2,4,6H2,1H3	InChI=1S/C8H12O/c1-2-7-3-5-8(9)6-4-7/h3,5,7H,2,4,6H2,1H3/t7-/m1/s1
