21
gdb 104874	2.50751	1.25746	1.14606	2.6941	79.29	-0.2374	0.0115	0.2489	1199.8731	0.183439	-424.230215	-424.221164	-424.22022	-424.263864	34.866	
O	 0.175250206	 1.4072831767	 0.0829529613	-0.438594
C	 0.0611600202	-0.0003726429	 0.0102542944	-0.090284
C	-1.3983612341	-0.4992338517	-0.0054585554	 0.206225
C	-2.1005642509	-0.0273337406	-1.3000379484	-0.113819
O	-2.1799774511	 1.3947813188	-1.4323529292	-0.425828
C	-1.4868353107	-2.0515157783	 0.0913283582	-0.275293
C	-2.6494844136	-2.3612513014	 1.0719364941	-0.258173
C	-2.8473950094	-1.0497239924	 1.7928394247	-0.074346
C	-2.1703867126	-0.0541850404	 1.2239547196	-0.111325
H	-0.4098149681	 1.7640262139	-0.6002987813	 0.285439
H	 0.5849685132	-0.4034327876	-0.875369892	 0.076945
H	 0.5694537357	-0.3995467994	 0.8954242684	 0.099368
H	-1.5294227849	-0.365760591	-2.1718337497	 0.114213
H	-3.1037030907	-0.4722315445	-1.363367032	 0.097767
H	-2.781051131	 1.7167373665	-0.7516119562	 0.292201
H	-1.6257351961	-2.5227592069	-0.8866581704	 0.097403
H	-0.5472832144	-2.4400061552	 0.4979844123	 0.106446
H	-3.5655505273	-2.6643470018	 0.5461313545	 0.10724
H	-2.4083125537	-3.1846000193	 1.7537101776	 0.108057
H	-3.4826641377	-0.9540585967	 2.6671594806	 0.094749
H	-2.1417435788	 0.9716003842	 1.5733707587	 0.101608
74.9545	134.3788	147.864	215.9081	247.028	300.4322	329.7626	367.7734	398.4154	439.9065	525.4625	611.2226	679.9126	719.8485	768.6744	808.2999	843.9754	922.511	930.9267	936.7265	973.4954	988.9571	1003.2906	1048.5438	1073.5956	1102.946	1119.5138	1132.9327	1162.7959	1198.6953	1235.1685	1249.5823	1293.4994	1318.2479	1323.7661	1362.1448	1383.6567	1394.6519	1419.6282	1468.7241	1483.2627	1493.4435	1500.6646	1512.1949	1683.6617	2939.7091	3001.4429	3011.7797	3042.701	3054.9947	3056.9126	3070.398	3087.6449	3180.9477	3207.7404	3725.8121	3809.3746
OCC1(CO)CCC=C1	OCC1(CO)CCC=C1	
InChI=1S/C7H12O2/c8-5-7(6-9)3-1-2-4-7/h1,3,8-9H,2,4-6H2	InChI=1S/C7H12O2/c8-5-7(6-9)3-1-2-4-7/h1,3,8-9H,2,4-6H2
