14
gdb 131095	3.2997	1.25993	0.94141	4.1409	68.51	-0.2617	-0.0123	0.2494	1156.4879	0.101008	-432.816188	-432.808079	-432.807135	-432.849713	29.365	
O	 0.6386720567	 1.6020697085	-0.2343249391	-0.392415
C	 0.1788857679	 0.2775419269	-0.0132811613	-0.180546
C	 0.390535645	-0.600834959	-1.1737492651	 0.28491
C	 0.5891992453	-1.3242786008	-2.1130068844	-0.425601
C	 0.7878515751	-0.3130999649	 1.2344125904	 0.337151
C	 1.1090823868	 0.2417045959	 2.4529591915	-0.155846
N	 1.6377267565	-0.7268199076	 3.2511100185	-0.185486
N	 1.6620321835	-1.8539185488	 2.5973626342	-0.111344
N	 1.1505377188	-1.6097469019	 1.3774569495	-0.249163
H	 1.5962246726	 1.5645228116	-0.3468193599	 0.29234
H	-0.9022761433	 0.3935251485	 0.1369312617	 0.150524
H	 0.7492043073	-1.9467211041	-2.9596467875	 0.21481
H	 0.9949829715	 1.2599876381	 2.7856910813	 0.136495
H	 1.0970715863	-2.3451193923	 0.6887751302	 0.284173
40.6043	120.3005	167.3807	205.2091	283.3051	340.3202	418.8207	478.3109	572.5038	609.0393	651.281	668.6901	689.6183	734.8145	791.8301	867.1581	938.8872	995.9171	1059.8125	1074.5748	1083.0803	1134.7141	1221.8979	1268.5277	1286.6643	1332.1503	1370.1232	1420.0687	1444.1035	1591.2893	2232.3954	3030.1419	3280.7049	3496.336	3642.8562	3793.7625
OC(C#C)C1=CN=NN1	O[C@@H](C#C)c1cnn[nH]1	
InChI=1S/C5H5N3O/c1-2-5(9)4-3-6-8-7-4/h1,3,5,9H,(H,6,7,8)	InChI=1S/C5H5N3O/c1-2-5(9)4-3-6-8-7-4/h1,3,5,9H,(H,6,7,8)/t5-/m0/s1
