17
gdb 5254	7.1878	1.10245	0.97137	2.7502	71.65	-0.1782	0.042	0.2202	1193.3056	0.144284	-360.078273	-360.07038	-360.069436	-360.110869	29.019	
C	-0.0622676708	 1.5398727096	 0.0086601599	-0.398162
C	-0.0533333533	 0.01897734	-0.1039917508	-0.107534
N	-1.3614293999	-0.5305977341	 0.2064429871	-0.382484
C	-1.5458464053	-1.9008118732	 0.091905773	 0.341761
C	-0.613386381	-2.9146079747	 0.1058398523	-0.200336
N	-1.3633664356	-4.0809787343	 0.0159831846	-0.234481
C	-2.6665135552	-3.7204819116	-0.0585234717	 0.015213
N	-2.81768038	-2.4139351901	-0.0170028257	-0.327177
H	 0.9306965421	 1.9484506837	-0.1986120473	 0.117965
H	-0.760574616	 1.9829989203	-0.7107785059	 0.116592
H	-0.3657545006	 1.8526370544	 1.0119502583	 0.129745
H	 0.2955082239	-0.2848984454	-1.1072577999	 0.08662
H	 0.6683904908	-0.3955791974	 0.6122496787	 0.105936
H	-2.1332004713	-0.0230898304	-0.2058010596	 0.233054
H	 0.4595609323	-2.9291972436	 0.1738975267	 0.116015
H	-0.9986924352	-5.017487464	-0.000530955	 0.262233
H	-3.4645016348	-4.4428207391	-0.1432998347	 0.12504
74.8426	96.1966	142.3129	254.5487	328.82	344.7652	445.3293	457.8074	581.7766	623.6615	654.088	738.5265	771.5654	805.2826	822.0845	927.9412	948.269	999.8811	1073.4263	1096.0874	1148.2436	1156.394	1176.5449	1253.273	1276.7346	1296.8813	1354.1719	1392.8964	1415.2072	1461.5442	1489.4211	1496.7341	1501.8628	1528.8873	1545.3144	1631.6045	2940.4126	3024.1429	3035.9135	3102.1628	3121.0085	3251.3698	3291.4285	3576.9357	3677.1882
CCNC1=CNC=N1	CCNc1c[nH]cn1	
InChI=1S/C5H9N3/c1-2-7-5-3-6-4-8-5/h3-4,7H,2H2,1H3,(H,6,8)	InChI=1S/C5H9N3/c1-2-7-5-3-6-4-8-5/h3-4,7H,2H2,1H3,(H,6,8)
