19
gdb 103107	2.91242	1.10795	1.01724	2.3087	77.08	-0.2512	0.0089	0.2601	1246.4328	0.157231	-419.188034	-419.177954	-419.177009	-419.222981	36.185	
C	-0.2902546985	 1.401638268	 0.1456832154	-0.330897
N	 0.0425318538	-0.0181634092	 0.2278491426	-0.132719
C	 1.3544427906	-0.4813416204	-0.2568107266	-0.234237
C	 2.3393288029	 0.4632370851	-0.7221253057	 0.30024
N	 3.1219885754	 1.2213401988	-1.111772804	-0.343195
C	 1.0006298528	-0.5222904913	 1.2106105786	 0.272339
C	 1.6875378496	 0.3845231354	 2.2104893436	-0.470301
C	 0.5568062514	-1.8649541943	 1.7768924625	-0.102264
O	-0.5164063715	-1.6959714128	 2.6841467064	-0.415447
H	 0.5643438876	 2.0842951405	 0.2258839819	 0.135694
H	-0.7800353586	 1.5841746289	-0.8150485964	 0.139165
H	-1.0020437905	 1.6355115839	 0.9423361704	 0.130799
H	 1.3286822653	-1.3983706861	-0.8411747459	 0.130708
H	 1.9505477962	 1.3589866014	 1.7980529876	 0.14026
H	 1.0335136343	 0.5261127755	 3.0756349407	 0.142924
H	 2.6109120153	-0.0857983756	 2.5627528735	 0.13542
H	 0.2831233089	-2.5393388035	 0.9530708117	 0.094377
H	 1.3713247096	-2.3291478463	 2.3425485944	 0.115208
H	-1.2498673745	-1.336336148	 2.1714766493	 0.291926
68.1891	123.463	134.1464	159.8481	170.4478	192.6914	262.6286	300.4569	339.9481	389.5932	438.9287	442.9495	476.1575	601.2575	643.3438	714.2972	766.0763	871.0628	940.4875	966.4908	1032.8276	1041.2274	1069.6632	1111.9298	1150.0796	1150.3843	1170.3843	1210.6102	1287.6753	1325.9872	1381.4642	1404.4765	1415.8813	1424.8153	1456.3136	1480.6112	1485.9791	1495.4381	1500.1228	1513.5521	2346.342	3002.1846	3023.6607	3051.2564	3081.8427	3093.8167	3113.8131	3117.2545	3132.0863	3147.0025	3795.0859
CN1C(C#N)C1(C)CO	CN1[C@@H](C#N)[C@]1(C)CO	
InChI=1S/C6H10N2O/c1-6(4-9)5(3-7)8(6)2/h5,9H,4H2,1-2H3	InChI=1S/C6H10N2O/c1-6(4-9)5(3-7)8(6)2/h5,9H,4H2,1-2H3/t5-,6-,8?/m0/s1
