17
gdb 81528	2.25058	1.9496	1.25087	1.117	68.97	-0.2411	-0.0146	0.2266	1003.2263	0.13299	-458.890107	-458.881616	-458.880672	-458.922926	32.062	
C	-0.0897789772	 1.5253617082	-0.0014997096	-0.481393
C	-0.0458472621	-0.0006814318	-0.0055297091	 0.273631
C	-1.419411782	-0.5402027665	-0.348958443	 0.083894
O	-2.2858712456	-0.6900631184	 0.4789930794	-0.282849
C	 1.2465578227	-0.6702995823	-0.5919042329	-0.033047
O	 2.0014612611	-0.1811535449	 0.5812608254	-0.306311
C	 0.7390800813	-0.7063697771	 1.1410843078	-0.039322
C	 0.9577668882	-1.9486442719	 0.2194426057	 0.111171
O	-0.1094571486	-2.7306055842	-0.2358361543	-0.415386
H	 0.8949275134	 1.924775181	 0.2463247087	 0.146463
H	-0.3902883893	 1.9106763446	-0.982315491	 0.121335
H	-0.8197080045	 1.8793477229	 0.7325482144	 0.137907
H	-1.6173003272	-0.6993595235	-1.4315813005	 0.080199
H	 1.7089012092	-0.5582092235	-1.5728469458	 0.100145
H	 0.597817159	-0.6436166181	 2.2199011123	 0.102504
H	 1.8505138129	-2.5267981711	 0.4761717327	 0.099324
H	-0.5330721113	-3.1641665535	 0.5131433698	 0.301735
95.9216	146.8109	204.9879	237.5496	260.199	304.5241	330.371	353.6779	392.9929	487.9758	608.4328	664.2482	705.2537	766.3913	858.745	889.524	896.8823	908.8201	938.9596	981.9977	1046.7345	1093.6221	1135.0932	1139.7742	1154.3395	1179.5229	1197.5682	1236.0297	1266.8313	1280.0226	1309.897	1390.5708	1392.9984	1418.3286	1491.4456	1502.0611	1802.7903	2886.7318	3038.6481	3073.5505	3102.9494	3120.9853	3127.6291	3142.2419	3811.4188
CC1(C=O)C2OC1C2O	C[C@@]1(C=O)[C@H]2O[C@@H]1[C@H]2O	
InChI=1S/C6H8O3/c1-6(2-7)4-3(8)5(6)9-4/h2-5,8H,1H3	InChI=1S/C6H8O3/c1-6(2-7)4-3(8)5(6)9-4/h2-5,8H,1H3/t3-,4-,5+,6+
