19
gdb 35079	3.28974	1.40356	1.23616	0.7268	85.57	-0.2389	0.0117	0.2507	1072.6347	0.16104	-348.714726	-348.707247	-348.706303	-348.746384	30.78	
C	-0.0677767071	-1.2320577532	-0.1294073405	-0.466144
C	-0.0388950918	-0.0322580344	-0.0541156654	 0.323363
C	 0.0066822662	 1.4268046565	 0.0469188248	-0.208761
C	-0.7090142047	 1.9202741651	 1.3004937124	-0.072235
C	-0.0486223974	 2.6909835965	 2.1628194592	-0.064764
C	 1.3908272453	 3.0471984983	 1.8605620128	-0.055088
C	 1.4736583231	 3.4807313055	 0.3629738904	-0.233761
C	 1.4653460862	 1.9602863577	 0.0349577482	-0.017818
C	 2.1315781178	 1.7445146366	 1.4229213171	-0.217559
H	-0.0977512595	-2.2910695476	-0.1996137928	 0.192519
H	-0.5106892051	 1.8363424591	-0.8347957262	 0.10853
H	-1.7388108378	 1.6132900319	 1.4492918755	 0.098785
H	-0.5198854193	 3.0681237312	 3.0652894753	 0.090496
H	 1.8445011065	 3.6842000601	 2.620731584	 0.059426
H	 0.6647096987	 4.1036429278	-0.0277212941	 0.094136
H	 2.4398298018	 3.930098751	 0.1175629341	 0.095285
H	 1.9914117362	 1.6124648158	-0.8559942997	 0.07134
H	 3.2132955725	 1.8912929907	 1.3657940246	 0.095276
H	 1.9066792984	 0.8238359914	 1.9652149903	 0.106974
105.8514	141.2698	287.331	344.4041	411.0114	420.5548	465.0339	535.8815	596.2614	619.1264	636.1255	678.748	733.5522	816.6683	827.2784	862.8393	905.6715	920.0751	945.4616	962.9029	981.9163	999.4822	1030.4663	1078.1957	1086.2425	1115.2579	1124.9226	1143.5216	1187.0067	1246.5445	1251.9313	1264.858	1285.3036	1312.4804	1325.6927	1352.0843	1394.6541	1478.95	1507.3887	1700.6989	2231.2879	2979.348	3051.4073	3060.235	3088.7339	3097.7764	3110.3003	3121.7348	3166.9339	3192.9487	3504.1636
C#CC1C=CC2CC1C2	C#C[C@H]1C=C[C@@H]2C[C@H]1C2	
InChI=1S/C9H10/c1-2-8-4-3-7-5-9(8)6-7/h1,3-4,7-9H,5-6H2	InChI=1S/C9H10/c1-2-8-4-3-7-5-9(8)6-7/h1,3-4,7-9H,5-6H2/t7-,8-,9+/m0/s1
