19
gdb 121620	3.27104	0.79889	0.71239	1.9794	69.15	-0.2714	-0.0032	0.2682	1613.5071	0.156465	-497.328767	-497.318295	-497.317351	-497.365667	36.489	
C	-0.1148454596	 1.545013418	-0.0176067726	-0.392155
C	-0.0656713593	 0.0122000483	 0.0358486013	 0.044773
O	 0.7014606671	-0.4274600389	 1.1277811725	-0.436375
C	-1.464705467	-0.586467236	 0.1346912474	 0.424982
O	-1.830114832	-1.2468410003	 1.0788067788	-0.37272
O	-2.2289134159	-0.296707651	-0.9254238053	-0.255914
C	-3.5737814856	-0.8318076711	-0.9175872219	-0.080481
C	-4.2194729764	-0.378934007	-2.2138842609	-0.070574
O	-3.5635258737	-0.9016259562	-3.350531782	-0.415455
H	 0.9062193316	 1.9316910647	-0.0562776905	 0.135205
H	-0.6607861715	 1.8912862109	-0.8987520819	 0.121566
H	-0.5965602084	 1.9410203388	 0.8813801651	 0.126732
H	 0.3772024329	-0.3590153684	-0.9018109913	 0.09872
H	 0.1027459472	-0.9511002697	 1.6808460402	 0.295658
H	-3.5189972465	-1.9223809841	-0.8597889293	 0.136274
H	-4.1087729478	-0.4573937544	-0.0394753378	 0.126335
H	-5.249120099	-0.7498341081	-2.2427574746	 0.121812
H	-4.259572918	 0.7214093697	-2.2356316441	 0.100304
H	-2.6463645879	-0.610817015	-3.3034634333	 0.291311
33.5633	62.9179	80.1812	119.9969	188.5039	236.3654	264.2859	296.873	341.4986	370.2768	373.5299	410.6524	474.4434	513.1048	660.9238	763.0564	846.1819	876.9205	911.2353	957.8061	1025.8568	1056.1358	1094.2569	1105.287	1125.0327	1169.3389	1231.3685	1248.132	1265.3505	1294.408	1357.6062	1388.8982	1395.7912	1404.3612	1431.2978	1445.4733	1491.0901	1495.1276	1497.361	1500.464	1803.3808	2984.1126	2989.1077	3047.7082	3058.4455	3085.1894	3115.5032	3125.2377	3135.2177	3718.6464	3812.5013
CC(O)C(=O)OCCO	C[C@@H](O)C(=O)OCCO	
InChI=1S/C5H10O4/c1-4(7)5(8)9-3-2-6/h4,6-7H,2-3H2,1H3	InChI=1S/C5H10O4/c1-4(7)5(8)9-3-2-6/h4,6-7H,2-3H2,1H3/t4-/m1/s1
