17
gdb 99362	5.33313	0.63191	0.5961	3.9521	70.05	-0.2573	-0.0458	0.2115	1783.5761	0.134032	-455.150755	-455.140803	-455.139859	-455.187366	33.903	
O	-0.1014647353	 1.2158403248	 0.5751222221	-0.415533
C	-0.0457216185	-0.0778753195	 0.0565520848	-0.125413
C	-1.4357115222	-0.6607209482	-0.1482059301	 0.340287
O	-2.4098757136	-0.0195624603	 0.1876644879	-0.317965
C	-1.5672238182	-2.0380697999	-0.7986100737	-0.276546
N	-2.9032160594	-2.6005837347	-0.8093712796	-0.275291
C	-3.3711328548	-3.0166570651	 0.5140397447	-0.273143
C	-4.6982816502	-3.6313872168	 0.4219369915	 0.263638
N	-5.7521261991	-4.0992984844	 0.3594142097	-0.294571
H	-1.0438022408	 1.3957062641	 0.7194785305	 0.297319
H	 0.4897446914	-0.0986364077	-0.9069416692	 0.121231
H	 0.5079487115	-0.7590260477	 0.7265151448	 0.118646
H	-1.2108492343	-1.9411909168	-1.8337832579	 0.147645
H	-0.8732968229	-2.7370488989	-0.3138424371	 0.135466
H	-3.5512412157	-1.9139253912	-1.1833015295	 0.245127
H	-2.6752951121	-3.7670999944	 0.9096152207	 0.154197
H	-3.4242732858	-2.2002405434	 1.2508283203	 0.154904
40.6101	47.1563	83.2738	116.7476	172.4527	208.4281	284.0433	353.6537	378.0859	391.2625	433.603	471.0649	565.6071	678.2121	762.4911	816.6653	876.3652	951.2515	988.1168	1022.0272	1048.2221	1117.3079	1149.1236	1174.2639	1226.1982	1256.4459	1306.6104	1312.859	1362.7747	1389.5824	1444.0366	1450.5933	1489.6114	1489.9924	1515.7715	1792.7642	2370.5709	2962.3168	2986.4868	2993.9143	3019.1141	3052.1518	3058.63	3526.3165	3696.4708
OCC(=O)CNCC#N	OCC(=O)CNCC#N	
InChI=1S/C5H8N2O2/c6-1-2-7-3-5(9)4-8/h7-8H,2-4H2	InChI=1S/C5H8N2O2/c6-1-2-7-3-5(9)4-8/h7-8H,2-4H2
