18
gdb 26671	2.3301	1.54277	0.9398	1.5951	77.03	-0.1563	0.0643	0.2206	1223.6625	0.147875	-435.291222	-435.281182	-435.280238	-435.32555	36.686	
C	 0.1346657617	 1.5267305162	 0.0479845863	-0.509366
C	 0.108088319	 0.0387478764	-0.0301325823	 0.232867
C	 0.018990609	-0.8232202078	-1.0992456703	 0.097886
N	-0.0142944266	-0.5096534486	-2.4763305798	-0.613561
C	 0.0669680189	-2.1687809697	-0.5924011411	 0.023457
N	 0.0326274742	-3.4325891091	-1.2520412329	-0.634783
C	 0.1943458503	-2.0654919534	 0.7710211817	 0.382255
O	 0.2833775758	-3.0399538452	 1.7024470264	-0.442261
N	 0.2274371024	-0.7551719853	 1.1209803886	-0.383487
H	 1.1369714783	 1.9400653689	 0.2321047337	 0.12251
H	-0.2218022334	 1.9647557003	-0.8901110188	 0.118034
H	-0.5220323321	 1.9071940445	 0.8417497359	 0.116917
H	-0.73469739	-1.0338033641	-2.9617893341	 0.228397
H	-0.1808669762	 0.4761982009	-2.6388820162	 0.232215
H	 0.7421121632	-3.4955912882	-1.9767323062	 0.239531
H	-0.8611428154	-3.6147808971	-1.700435688	 0.229573
H	 0.2817163834	-3.8643191083	 1.1936884513	 0.302452
H	 0.2982169877	-0.4158406703	 2.0634237259	 0.257365
111.3269	135.4128	151.239	182.7551	220.7738	225.7388	264.5965	274.6823	280.5386	310.9806	410.3884	505.2184	543.0367	604.0902	610.5823	650.1609	692.3683	753.7009	803.9573	850.1405	903.1178	991.0475	1057.0432	1111.0814	1193.5475	1211.5371	1225.4803	1251.3506	1269.7177	1404.7104	1421.1152	1468.9518	1475.7404	1499.0369	1578.3204	1618.892	1635.8643	1655.8772	1705.2437	2991.3205	3033.5874	3086.7981	3472.8274	3502.2657	3534.1898	3596.2316	3692.4147	3740.817	111.3281	135.4125	151.2391	182.755	220.7738	225.7386	264.5965	274.6824	280.5386	310.9806	410.3884	505.2175	543.0367	604.0902	610.5823	650.1608	692.3684	753.7009	803.9572	850.1406	903.1178	991.0475	1057.0429	1111.0814	1193.5474	1211.5371	1225.4802	1251.3505	1269.7177	1404.7104	1421.115	1468.9517	1475.7402	1499.0366	1578.3204	1618.8919	1635.8644	1655.8772	1705.2436	2991.3205	3033.5874	3086.7981	3472.8274	3502.2657	3534.1898	3596.2315	3692.4148	3740.8165
CC1=C(N)C(N)=C(O)N1	Cc1c(N)c(N)c(O)[nH]1	
InChI=1S/C5H9N3O/c1-2-3(6)4(7)5(9)8-2/h8-9H,6-7H2,1H3	InChI=1S/C5H9N3O/c1-2-3(6)4(7)5(9)8-2/h8-9H,6-7H2,1H3
