27
gdb 100681	2.62725	0.94109	0.86216	1.2436	92.08	-0.2581	0.0674	0.3255	1579.3061	0.248777	-390.707602	-390.695498	-390.694554	-390.744377	45.191	
C	-0.3014118947	 1.5674222941	-0.170200403	-0.392673
C	 0.0631805443	 0.0905710596	 0.0177786228	-0.183961
C	 0.8779366944	-0.5059111299	-1.1506408865	 0.023604
C	 2.3359512446	-0.0200196372	-1.114484071	-0.415117
C	 0.7272696369	-2.0585436657	-1.2419637574	 0.346994
C	 1.1968648726	-2.7730430143	 0.0289253653	-0.409154
O	-0.6721432518	-2.3747109704	-1.3392477153	-0.459531
C	 1.4529433667	-2.6003808351	-2.4973781934	-0.209193
C	 1.1887977967	-4.0775747481	-2.8084158003	-0.389811
H	 0.5834796171	 2.2060492767	-0.2609675981	 0.114246
H	-0.9065016683	 1.7130596075	-1.0725824629	 0.108882
H	-0.883493503	 1.9370337096	 0.680038323	 0.111539
H	 0.6275025362	-0.0237069147	 0.9520634499	 0.090957
H	-0.8549821259	-0.4928925591	 0.1323305463	 0.111835
H	 0.4305434155	-0.1237155191	-2.0836986328	 0.049486
H	 2.8652307493	-0.416262729	-0.2409705493	 0.117063
H	 2.8956183404	-0.3086667886	-2.0076663644	 0.115115
H	 2.375504236	 1.0713428817	-1.0495165712	 0.114977
H	 0.6744669132	-2.3879198792	 0.9072092878	 0.122615
H	 0.9828854522	-3.8419175901	-0.0387614008	 0.123823
H	 2.2722673632	-2.6472976318	 0.1800488753	 0.111915
H	-1.0174024318	-1.9271954488	-2.1201887264	 0.271166
H	 1.1371142699	-1.9905675277	-3.3567232539	 0.07941
H	 2.5309451862	-2.43843096	-2.3940250047	 0.099177
H	 1.6307503095	-4.7372358537	-2.0556851396	 0.116437
H	 0.1158896415	-4.2822722388	-2.8415881454	 0.124111
H	 1.6233640691	-4.3487643577	-3.7755183941	 0.106084
71.2351	82.0861	89.4066	162.7536	192.7907	214.6338	229.1229	240.6336	281.2111	308.9336	322.5775	332.5393	345.5456	368.1906	401.7478	462.5063	491.606	594.2344	726.3393	781.2111	789.2259	840.157	903.2986	924.6188	967.314	986.4907	994.5743	1005.1926	1038.9762	1059.5304	1095.5113	1126.1652	1153.0623	1165.0915	1203.7984	1212.894	1290.7159	1298.3902	1305.1192	1354.354	1364.6033	1374.1345	1388.0555	1405.676	1408.9703	1417.973	1432.8617	1476.7029	1486.4856	1492.3277	1493.92	1496.4576	1502.0171	1508.5897	1509.2374	1512.1368	1515.7465	2957.1914	2999.6069	3024.4082	3029.4712	3039.2769	3043.9962	3056.6204	3067.511	3078.0773	3096.2683	3100.636	3105.0882	3105.8591	3115.8569	3125.5964	3129.1872	3133.3809	3792.9274
CCC(C)C(C)(O)CC	CC[C@@H](C)[C@@](C)(O)CC	
InChI=1S/C8H18O/c1-5-7(3)8(4,9)6-2/h7,9H,5-6H2,1-4H3	InChI=1S/C8H18O/c1-5-7(3)8(4,9)6-2/h7,9H,5-6H2,1-4H3/t7-,8+/m1/s1
