20
gdb 98420	2.19169	1.3359	1.06971	2.1526	76.77	-0.2424	0.0245	0.267	1256.0033	0.168435	-440.31338	-440.302964	-440.30202	-440.348854	37.045	
C	-0.3597629418	 1.401372173	-0.4869286888	-0.336355
N	-0.2367637596	-0.0204442309	-0.7325046443	-0.299465
C	 0.9548347323	-0.6696892729	-0.7088919858	 0.316459
O	 2.0348700921	-0.1396965857	-0.5051229048	-0.389166
C	 0.8515182286	-2.1709866165	-0.9364796308	 0.284454
C	 1.6829991241	-2.9901785076	 0.0223042989	-0.465566
O	-0.4684748063	-2.6679345306	-1.2283405135	-0.310952
C	 0.5147110082	-2.6946261957	-2.2777234343	 0.056719
C	 0.2640892174	-1.8607259038	-3.5061884551	-0.433237
H	 0.6476771754	 1.7991241639	-0.3560376538	 0.168863
H	-0.8405747425	 1.9111422394	-1.3289380302	 0.125989
H	-0.9424180806	 1.6010214093	 0.4194739147	 0.128029
H	-1.0543559813	-0.5949570203	-0.8695914041	 0.261102
H	 1.3130998651	-2.8732267056	 1.0461391166	 0.12934
H	 1.6438787872	-4.0498373402	-0.2405162147	 0.120728
H	 2.7176646638	-2.6415584662	-0.0034401907	 0.153409
H	 0.8779759236	-3.7032673219	-2.4858586571	 0.094374
H	-0.052965618	-0.8479977632	-3.2518505643	 0.132281
H	 1.1773966259	-1.7998737256	-4.1070739059	 0.133677
H	-0.5127239436	-2.3248376591	-4.1229570821	 0.129316
74.7764	91.0211	109.9131	174.9452	185.7106	200.7986	221.2483	233.9937	298.7236	333.7638	418.2848	476.4078	515.8058	539.5485	626.9513	753.9735	775.018	812.5907	875.3052	922.4762	1007.1067	1043.3232	1073.9679	1107.119	1139.5042	1153.8579	1167.9505	1177.5198	1202.749	1293.3304	1349.0476	1402.8755	1409.9176	1439.163	1454.6212	1478.5857	1489.8093	1494.854	1497.3738	1499.7822	1506.0548	1566.8695	1774.4037	3028.0319	3042.2239	3046.9834	3080.0473	3087.8675	3103.8936	3116.0555	3141.8874	3142.623	3148.8398	3625.0815
CNC(=O)C1(C)OC1C	CNC(=O)[C@@]1(C)O[C@H]1C	
InChI=1S/C6H11NO2/c1-4-6(2,9-4)5(8)7-3/h4H,1-3H3,(H,7,8)	InChI=1S/C6H11NO2/c1-4-6(2,9-4)5(8)7-3/h4H,1-3H3,(H,7,8)/t4-,6-/m0/s1
