13
gdb 130487	3.96286	1.73845	1.20836	0.9327	76.42	-0.2198	-0.0863	0.1335	924.8361	0.091761	-415.601376	-415.59541	-415.594466	-415.631585	23.957	
O	-0.0315105337	 1.2610988763	 0.009740565	-0.205772
C	 1.1257441049	 1.9608899984	 0.0016353446	 0.128517
N	 2.3267757703	 1.5061905252	-0.0129627947	-0.33625
C	 2.407187015	 0.1422191916	-0.021008132	 0.310788
C	 3.4472116356	-0.7310979609	-0.0358607137	-0.27965
C	 2.8816107444	-2.075405587	-0.0376436356	-0.061178
C	 1.5144962085	-2.0512305109	-0.0241416061	-0.235901
C	 1.1508423175	-0.6574819102	-0.0123790416	 0.358203
N	-0.0304692625	-0.1380823001	 0.0023292007	-0.185288
H	 0.907769027	 3.0238432702	 0.009600661	 0.153001
H	 4.4993704339	-0.4884298277	-0.0449899274	 0.115769
H	 3.4841749437	-2.9753532675	-0.0485952377	 0.117523
H	 0.8293727856	-2.8840228374	-0.0220773724	 0.120238
189.3202	249.5172	384.0109	444.3758	542.3084	551.7948	591.7083	605.9155	730.2336	739.9018	803.1898	828.6223	846.523	890.3976	909.8521	927.705	956.1563	1008.4996	1061.1865	1099.8393	1218.767	1256.4821	1327.7908	1389.1442	1415.0399	1486.7837	1594.0699	1642.1215	1657.2484	3202.0527	3214.9921	3247.8167	3264.9396
O1C=NC2=CC=CC2=N1	o1cnc2cccc2n1	
InChI=1S/C6H4N2O/c1-2-5-6(3-1)8-9-4-7-5/h1-4H	InChI=1S/C6H4N2O/c1-2-5-6(3-1)8-9-4-7-5/h1-4H
