15
gdb 45829	2.75543	1.85829	1.26929	2.9245	66.06	-0.2472	-0.0341	0.2131	951.6712	0.115311	-453.955644	-453.948773	-453.947829	-453.987283	26.101	
O	 0.0550667037	-0.0720577747	 0.0621123189	-0.308542
C	 0.0471312157	 1.1143070397	-0.0760605766	 0.462851
O	-1.1628329359	 1.7654094941	-0.192593303	-0.213611
C	-1.2120194053	 3.0986144536	-0.5447661673	 0.142679
N	-0.2735969573	 3.8807090487	-0.8427740194	-0.23838
C	 1.0883938063	 3.4092336342	-0.7619374216	-0.004901
C	 1.8268009582	 3.9592601698	 0.4889630834	-0.167926
N	 1.520663756	 2.6844273391	 1.1827998272	-0.314926
C	 1.2666575913	 2.0057752028	-0.1093213114	-0.158485
H	-2.2498205908	 3.4196794371	-0.5624631784	 0.144553
H	 1.5826210833	 3.5737461828	-1.7207943362	 0.101933
H	 2.8940529939	 4.1318238744	 0.2962104663	 0.101343
H	 1.3886544468	 4.8470557791	 0.9525080541	 0.123256
H	 2.2606799211	 2.2808785938	 1.7452343882	 0.233057
H	 2.106394563	 1.4255897255	-0.5082335142	 0.0971
89.3648	148.5517	235.3843	319.4891	426.4017	480.045	550.3484	560.3721	662.8865	727.7504	800.2443	836.4449	878.328	913.7739	956.0001	975.9781	1002.3863	1017.4289	1064.0814	1089.9576	1123.8116	1163.7966	1197.1416	1211.1269	1247.5801	1315.6167	1343.4904	1358.6071	1385.3246	1418.0355	1514.231	1748.1919	1878.5411	3012.7533	3042.4503	3092.3045	3097.8306	3185.1777	3544.6685
O=C1OC=NC2CNC12	O=C1OC=N[C@H]2CN[C@@H]12	
InChI=1S/C5H6N2O2/c8-5-4-3(1-6-4)7-2-9-5/h2-4,6H,1H2	InChI=1S/C5H6N2O2/c8-5-4-3(1-6-4)7-2-9-5/h2-4,6H,1H2/t3-,4+/m0/s1
