15
gdb 69873	2.76818	1.66566	1.19854	4.9797	70.6	-0.2431	-0.0125	0.2305	1007.7326	0.111188	-416.716881	-416.709145	-416.708201	-416.748975	29.525	
C	-0.0510202336	 1.5606887053	 0.1258773607	-0.520692
C	 0.0775017171	 0.0736570838	 0.0638354733	 0.240786
N	-0.8448150992	-0.8872969204	 0.6893106625	-0.343103
C	 0.6054725349	-0.9385993003	 1.0067975091	-0.162841
C	 1.3113019023	-1.6926993061	-0.170118512	-0.05939
O	 0.3505477124	-2.0703550584	-1.14459576	-0.245085
C	 0.7800862479	-0.7089807441	-1.1316006823	 0.321301
C	 1.3450527657	-0.1239047464	-2.3021319427	 0.201187
N	 1.7946881932	 0.4089779279	-3.2256311199	-0.342261
H	 0.8769439338	 2.0489665695	-0.188768484	 0.146147
H	-0.8532721991	 1.9134984829	-0.5315896712	 0.147027
H	-0.276292326	 1.8869544645	 1.1462107381	 0.127701
H	-1.29975201	-0.3999155205	 1.462164585	 0.238029
H	 0.9900238035	-0.8280686869	 2.0113584396	 0.112475
H	 2.2636416271	-2.2077783909	-0.1558802061	 0.13872
128.543	132.3791	199.4607	248.9756	296.2894	419.483	434.7081	493.0916	524.3118	587.7389	604.8645	695.4026	784.958	822.5808	842.0663	865.9986	914.9985	933.0437	988.6711	1004.2576	1037.2017	1082.2602	1109.4454	1133.1457	1224.895	1272.2697	1312.2407	1399.7386	1415.9319	1443.3307	1479.9594	1495.9546	2349.9564	3031.9694	3098.2858	3107.4664	3203.5505	3216.5362	3469.8122
CC12NC1C1OC21C#N	C[C@]12N[C@H]1[C@H]1O[C@@]21C#N	
InChI=1S/C6H6N2O/c1-5-3(8-5)4-6(5,2-7)9-4/h3-4,8H,1H3	InChI=1S/C6H6N2O/c1-5-3(8-5)4-6(5,2-7)9-4/h3-4,8H,1H3/t3-,4+,5-,6+/m0/s1
