14
gdb 7943	3.60397	1.80017	1.25434	0.8928	58.76	-0.2502	-0.0238	0.2264	903.9553	0.109153	-415.935292	-415.928084	-415.92714	-415.967164	26.409	
N	 0.060219099	 1.4649218645	 0.2434434036	-0.507358
C	-0.0362151483	 0.0393591742	-0.0320734776	-0.089754
C	-1.4752506347	-0.4822063542	-0.1774785783	-0.344512
C	-1.4376265807	-1.4733773779	-1.3380762969	 0.410011
O	-2.3015087481	-2.2256645955	-1.7053966884	-0.336673
N	-0.1885970694	-1.3343015401	-1.9441784428	-0.351028
C	 0.6600001397	-0.4241759338	-1.329129663	 0.394453
O	 1.7356940466	-0.0689304262	-1.7404832151	-0.349807
H	 1.0426920614	 1.7285277641	 0.2473797851	 0.247814
H	-0.3604372695	 1.9899269731	-0.5200675208	 0.230574
H	 0.4697920462	-0.4905291182	 0.7851137847	 0.125607
H	-1.8764877004	-0.9597680204	 0.7174548162	 0.150497
H	-2.1625368608	 0.3287042558	-0.4436625724	 0.147072
H	 0.0558199293	-1.8307698753	-2.7905043943	 0.273105
67.9241	136.7688	245.1385	264.2066	358.7102	408.1982	538.071	559.2577	606.4065	632.2753	680.2251	731.586	808.7691	882.4639	923.8012	960.7032	1004.8039	1134.3786	1159.5344	1170.4839	1247.0814	1283.0393	1303.4915	1334.042	1355.4459	1412.0767	1462.0895	1666.7395	1835.3548	1879.2484	3032.1447	3062.597	3128.8501	3476.6088	3553.5776	3606.4816
NC1CC(=O)NC1=O	N[C@H]1CC(=O)NC1=O	
InChI=1S/C4H6N2O2/c5-2-1-3(7)6-4(2)8/h2H,1,5H2,(H,6,7,8)	InChI=1S/C4H6N2O2/c5-2-1-3(7)6-4(2)8/h2H,1,5H2,(H,6,7,8)/t2-/m0/s1
