19
gdb 107293	3.32904	1.28081	1.12917	0.9488	74.35	-0.2434	0.058	0.3014	1125.7268	0.159842	-422.954907	-422.947024	-422.94608	-422.987442	30.88	
O	 0.1591736289	 1.3728822027	 0.2117983799	-0.41368
C	 0.0613306747	-0.0148334187	-0.0855356278	-0.177968
C	-1.3555676857	-0.5052588151	-0.0766943995	 0.3192
C	-2.0337103645	-0.9882238749	 1.182025253	-0.355146
C	-1.9026189342	-1.9438477114	 0.0319527589	-0.12625
C	-2.94038902	-1.6097501248	-1.0612499884	 0.111668
O	-4.2223577305	-1.1023980723	-0.6106521524	-0.299196
C	-3.7981131177	 0.2715604488	-0.8250407471	-0.109635
C	-2.3762387453	-0.1856411706	-1.2000620091	-0.124181
H	-0.2744447869	 1.5133220288	 1.0603539045	 0.281664
H	 0.5028100414	-0.1259518945	-1.0825793476	 0.108488
H	 0.6655655231	-0.6225517049	 0.6081804054	 0.085542
H	-1.3588123726	-1.184494358	 2.0102789114	 0.110251
H	-3.0168649664	-0.6416406181	 1.4799333832	 0.134407
H	-1.3617591031	-2.879259112	 0.1176058595	 0.08772
H	-3.0306339926	-2.3221072554	-1.884337099	 0.07963
H	-4.3533643359	 0.7290557666	-1.6529250358	 0.104222
H	-3.9143056738	 0.8904031537	 0.0723587523	 0.100703
H	-1.935269389	 0.1854334801	-2.1238775415	 0.082561
84.0289	114.676	227.9824	274.9447	323.167	350.9631	386.9366	437.261	549.3177	673.0464	701.4116	803.4053	832.5074	870.6132	894.9936	910.9184	924.2149	960.8536	970.5778	994.1246	1018.7376	1023.4552	1050.9579	1058.4144	1075.5795	1099.2645	1156.5044	1175.1658	1185.0582	1221.1523	1236.5697	1269.3251	1299.7151	1316.0344	1348.3233	1365.4219	1397.5777	1428.0127	1487.9294	1502.5578	1519.8882	2968.2415	3017.3431	3059.3246	3062.4356	3083.7524	3126.446	3127.6469	3176.862	3211.9275	3806.9536
OCC12CC1C1OCC21	OC[C@]12C[C@H]1[C@H]1OC[C@@H]21	
InChI=1S/C7H10O2/c8-3-7-1-4(7)6-5(7)2-9-6/h4-6,8H,1-3H2	InChI=1S/C7H10O2/c8-3-7-1-4(7)6-5(7)2-9-6/h4-6,8H,1-3H2/t4-,5+,6+,7+/m0/s1
