17
gdb 44892	3.9373	1.18071	1.09941	2.6985	79.17	-0.2381	-0.0144	0.2238	1123.5808	0.136465	-384.663317	-384.65584	-384.654896	-384.695155	29.831	
O	 0.0262352547	 0.0576142883	 0.0439099554	-0.328938
C	 0.0216334055	 1.2577746754	 0.0193277071	 0.425084
C	-1.1891869617	 2.220871153	 0.0488647329	-0.34605
C	-0.4045028056	 3.5431478481	-0.0106154786	-0.027244
C	 0.6563041194	 3.2442447732	-1.1074660355	-0.250468
C	 1.19558223	 2.224309366	-0.0503099485	-0.124659
C	 0.7338229344	 3.2763889691	 1.0415460528	-0.196179
C	 1.6567034366	 4.3670376556	 1.2738812407	 0.296109
C	 2.4188305619	 5.2726956643	 1.4873519851	-0.420914
H	-1.8429990382	 2.0599848232	-0.8135215727	 0.127891
H	-1.781487445	 2.0865704302	 0.9592208487	 0.126907
H	-0.9664469578	 4.4751556542	 0.0085786896	 0.084577
H	 0.3087238107	 2.8492865811	-2.065634168	 0.106251
H	 1.3517494493	 4.0692576862	-1.2615664766	 0.130938
H	 2.1980392665	 1.8044493826	-0.0676873554	 0.093285
H	 0.4064584603	 2.8513029805	 1.996754207	 0.106889
H	 3.092145039	 6.0715467289	 1.6776061161	 0.196521
116.132	144.6381	183.3432	353.3456	412.8757	434.2728	500.9658	524.6975	593.5552	609.7491	622.9762	644.2993	766.9596	818.3841	832.015	870.3982	896.5086	946.5862	969.2167	990.9903	1009.0786	1049.6876	1080.1034	1093.3322	1145.975	1157.0547	1197.6328	1224.783	1227.2468	1257.0134	1276.0185	1297.973	1363.3405	1460.4534	1506.693	1872.5229	2233.1275	3044.8359	3058.1728	3069.6441	3105.2125	3132.9913	3143.6106	3159.6123	3503.3876
O=C1CC2CC1C2C#C	O=C1C[C@@H]2C[C@H]1[C@H]2C#C	
InChI=1S/C8H8O/c1-2-6-5-3-7(6)8(9)4-5/h1,5-7H,3-4H2	InChI=1S/C8H8O/c1-2-6-5-3-7(6)8(9)4-5/h1,5-7H,3-4H2/t5-,6-,7-/m0/s1
