19
gdb 32860	4.42076	0.89103	0.75197	1.968	79.76	-0.1926	0.0582	0.2509	1541.5252	0.159202	-419.257965	-419.248506	-419.247562	-419.292847	33.971	
C	-0.1098486113	 1.4999787299	 0.0452931698	-0.392225
C	-0.0066435634	-0.0127683573	 0.0409888285	-0.036385
O	-1.343748724	-0.5377956004	-0.0043813989	-0.282088
C	-1.4290884136	-1.8730949843	-0.0142590844	 0.482007
N	-0.4569863613	-2.7462699598	 0.0122057031	-0.41383
C	-1.0877025014	-3.9870565338	-0.014638473	 0.280186
C	-0.2982764246	-5.2537846114	 0.0037623759	-0.484328
C	-2.4422041079	-3.8266180209	-0.0572388764	-0.190469
N	-2.6579129378	-2.4506518627	-0.0567342103	-0.338647
H	 0.8914599373	 1.9392019601	 0.0795877712	 0.122383
H	-0.6137158929	 1.8596070487	-0.8564463539	 0.127368
H	-0.6705165655	 1.850676538	 0.9165062938	 0.12737
H	 0.5514033945	-0.3834762951	-0.8256583027	 0.121422
H	 0.4950512176	-0.3923112033	 0.9377487977	 0.121405
H	 0.3224868641	-5.3207443572	 0.9043143539	 0.128138
H	-0.9571583577	-6.1261887611	-0.022104793	 0.114074
H	 0.3788744767	-5.311150719	-0.8558877807	 0.128143
H	-3.2581178532	-4.5288797722	-0.0868082944	 0.121751
H	-3.5370134357	-1.9642371682	-0.0821955263	 0.263724
54.0543	89.2425	134.687	135.7887	213.0302	245.3227	301.9525	324.2005	365.3836	456.9836	492.258	637.9439	651.6427	681.1374	737.6679	777.3828	809.479	917.9287	986.5048	1010.2094	1048.2956	1065.2489	1082.0657	1102.9091	1135.2215	1185.1704	1250.5708	1291.2651	1295.1212	1364.9517	1395.4337	1416.8534	1418.7399	1474.5584	1483.6955	1487.3477	1497.7689	1510.5702	1523.7161	1616.2638	1623.1011	3029.4979	3042.2653	3045.3479	3078.9726	3080.9515	3112.8313	3120.6898	3123.1425	3275.958	3680.0998
CCOC1=NC(C)=CN1	CCOc1nc(C)c[nH]1	
InChI=1S/C6H10N2O/c1-3-9-6-7-4-5(2)8-6/h4H,3H2,1-2H3,(H,7,8)	InChI=1S/C6H10N2O/c1-3-9-6-7-4-5(2)8-6/h4H,3H2,1-2H3,(H,7,8)
