19
gdb 75400	2.46595	1.59165	1.04192	3.158	84.01	-0.2293	-0.0449	0.1844	1166.4226	0.159429	-385.925537	-385.916938	-385.915994	-385.958959	32.535	
C	-0.6582558828	 1.3838437742	 0.1421110798	-0.465214
C	 0.034924002	 0.0446482325	 0.0712356895	 0.207021
C	 0.0861054099	-0.646055191	-1.0809597677	-0.127067
C	 0.6477393581	-2.0158835943	-1.3786813701	-0.321917
C	 0.5113960884	-3.0587136158	-0.2914509225	-0.048012
C	 0.9418141061	-2.8674968302	 0.9506465917	-0.069151
C	 1.5989591666	-1.58061944	 1.3884791176	-0.359267
C	 0.6346925141	-0.3949296574	 1.3676313789	 0.318842
O	 0.397745008	 0.2211695595	 2.3884291118	-0.310669
H	 0.0250323385	 2.1640410165	 0.4929280941	 0.133447
H	-1.0569653334	 1.6743935965	-0.8328339276	 0.109323
H	-1.4790813523	 1.3530163071	 0.8652840818	 0.142486
H	-0.3551433624	-0.1598745958	-1.9504624449	 0.095966
H	 0.1736079253	-2.3793986445	-2.2951110871	 0.114938
H	 1.7156726821	-1.9075967404	-1.6399250495	 0.134505
H	 0.0484007791	-4.0007030491	-0.5701692575	 0.097767
H	 0.8123886733	-3.6398600739	 1.7025194214	 0.102978
H	 1.9910984059	-1.65164129	 2.4038720243	 0.122682
H	 2.4378443134	-1.346610984	 0.716632446	 0.121343
54.6991	131.7442	165.2338	224.0368	290.2465	333.7686	343.9033	368.8684	444.1808	529.4462	589.6179	641.5353	688.6398	736.0643	785.1298	857.0526	886.1695	953.4608	960.8933	979.0072	993.0224	1031.8563	1069.334	1076.6695	1111.1253	1191.5581	1204.1764	1235.5917	1257.289	1303.9357	1365.8546	1396.1604	1401.6359	1414.9986	1458.4643	1470.3446	1471.3017	1487.6476	1698.4816	1724.7446	1761.6452	2952.9844	3003.0922	3041.1749	3072.7079	3098.6725	3121.0952	3122.6012	3129.9506	3162.9679	3186.6007
CC1=CCC=CCC1=O	CC1=CCC=CCC1=O	
InChI=1S/C8H10O/c1-7-5-3-2-4-6-8(7)9/h2,4-5H,3,6H2,1H3	InChI=1S/C8H10O/c1-7-5-3-2-4-6-8(7)9/h2,4-5H,3,6H2,1H3
