12
gdb 125803	3.58459	1.65517	1.14036	2.9658	63.24	-0.2792	-0.0858	0.1934	965.6678	0.077452	-468.736596	-468.729854	-468.728909	-468.76785	24.912	
C	-0.0150123559	 1.5238098084	-0.074198442	-0.501166
C	-0.0080301695	 0.03911526	 0.0607042533	 0.239751
N	-0.0466617467	-0.7327406045	-1.0127030325	-0.166406
O	-0.0299584196	-2.0891666662	-0.6129130582	-0.218318
C	 0.0191245048	-2.0596172788	 0.718921542	 0.404448
C	 0.0357532364	-0.7952899112	 1.2147372515	 0.22623
O	 0.0847029327	-0.8452727778	 2.536371395	-0.248698
N	 0.0973640412	-2.3180414922	 2.8280684646	-0.011156
N	 0.0580557331	-2.9500165414	 1.7420009639	-0.201721
H	 0.8846741836	 1.9562739657	 0.3743249102	 0.156058
H	-0.0544001073	 1.7999675417	-1.1288900563	 0.164923
H	-0.880258403	 1.953899016	 0.4396166283	 0.156055
137.2055	179.2063	246.4725	283.9365	412.0535	429.2143	547.0809	611.8011	622.2101	651.5952	687.58	768.5811	808.0967	905.8097	983.3971	1027.43	1064.5749	1146.5548	1308.0412	1389.0716	1417.7525	1433.5308	1474.698	1477.8581	1504.922	1555.0024	1615.1316	3049.3094	3109.1874	3150.2268
CC1=NOC2=C1ON=N2	Cc1noc2c1onn2	
InChI=1S/C4H3N3O2/c1-2-3-4(9-6-2)5-7-8-3/h1H3	InChI=1S/C4H3N3O2/c1-2-3-4(9-6-2)5-7-8-3/h1H3
