18
gdb 17928	2.775	2.34423	2.34374	1.211	70.39	-0.2302	0.0747	0.3049	762.0581	0.155449	-347.762379	-347.755828	-347.754884	-347.792482	27.171	
O	-0.0781752901	 1.4255005564	-0.0224872762	-0.478573
C	 0.0251646712	 0.049785546	-0.0060028636	 0.40742
C	 0.6766994961	-0.8710231713	 1.1068825267	-0.111752
C	-0.7144249386	-1.5223535274	 1.3194634927	-0.223116
C	-1.2473056649	-0.8604362528	 0.0217437115	-0.066777
C	-0.7474392238	-1.5550395511	-1.2719530275	-0.223154
C	 0.6490244202	-0.8998125354	-1.1106872985	-0.111961
C	 1.5068522063	-1.564877167	-0.003573867	-0.223165
H	 0.8092090062	 1.8016852031	-0.0379212437	 0.281472
H	 1.206859614	-0.506349718	 1.9880226176	 0.060243
H	-0.7543806704	-2.6149011267	 1.3813008169	 0.0882
H	-1.2101102571	-1.1043431569	 2.2005807484	 0.101225
H	-2.2646107943	-0.4695756236	 0.0297441224	 0.068628
H	-0.7895467973	-2.648740834	-1.3055722103	 0.088187
H	-1.2646800159	-1.1583560484	-2.1505168451	 0.101281
H	 1.1571086709	-0.5581451369	-2.0137760441	 0.060286
H	 2.5327173798	-1.1827177473	-0.0213908703	 0.091602
H	 1.5463183578	-2.6590618889	 0.0102688301	 0.089953
216.2714	242.2935	293.777	372.57	388.045	396.9269	598.4963	607.7033	608.692	810.6367	821.2255	823.5134	911.0852	911.8527	934.7193	943.0632	991.0307	1021.7099	1026.3454	1035.9423	1058.5857	1096.8544	1104.4732	1128.415	1159.2374	1200.9057	1203.6801	1221.5645	1267.8751	1276.3685	1286.6352	1308.9355	1322.596	1328.2099	1391.379	1475.1275	1477.4952	1496.5237	3036.1923	3038.3845	3041.9612	3083.7762	3087.696	3090.1269	3095.0656	3098.0038	3110.4892	3791.906
OC12C3CC1CC2C3	O[C@@]12[C@H]3C[C@@H]1C[C@@H]2C3	
InChI=1S/C7H10O/c8-7-4-1-5(7)3-6(7)2-4/h4-6,8H,1-3H2	InChI=1S/C7H10O/c8-7-4-1-5(7)3-6(7)2-4/h4-6,8H,1-3H2/t4-,5+,6-,7-
