16
gdb 42822	3.18483	1.48702	1.33029	2.9913	69.1	-0.2449	-0.0104	0.2345	983.6411	0.125474	-437.841508	-437.834553	-437.833609	-437.872933	27.514	
O	 0.0711896586	-0.0029710242	-0.1040931868	-0.321926
C	 0.0241244966	 1.1742643974	 0.0865592568	 0.427346
C	-1.0584361645	 2.2798221421	 0.063690814	-0.136723
C	-0.8094283399	 3.0613897455	 1.3643370804	-0.296963
C	 0.7330175845	 3.1029873593	 1.3008473804	 0.514375
C	 1.607592313	 4.0989472728	 1.9121267733	-0.271391
O	 1.5067430205	 2.7646885256	 2.4405543295	-0.284089
C	 1.0000143999	 2.3764632962	-0.0085468664	-0.241109
N	-0.0926998132	 2.9985274783	-0.8669463999	-0.321149
H	-2.0787275788	 2.1142863454	-0.2753423829	 0.098755
H	-1.2602366892	 4.0554929747	 1.3215924901	 0.123217
H	-1.1574286442	 2.5380517911	 2.2579482889	 0.130659
H	 2.5617023908	 4.3459723	 1.4487878549	 0.119658
H	 1.1775753614	 4.8800581139	 2.5377655791	 0.120226
H	 2.0157521744	 2.3205861669	-0.392346204	 0.098164
H	-0.0975132498	 2.5248173251	-1.7712257576	 0.240951
101.7816	179.6696	272.7954	345.457	408.5438	457.1375	485.0545	533.3686	634.8865	739.9373	768.5734	836.5893	844.6343	875.2068	899.3343	933.5074	951.4478	994.5615	1022.4139	1050.1329	1073.5213	1121.1245	1128.1139	1135.1369	1163.9872	1175.707	1221.6471	1232.5019	1273.0008	1302.361	1335.4499	1445.3698	1475.9247	1538.8016	1893.2092	3070.8085	3082.6449	3126.1611	3153.0295	3162.1526	3170.6433	3460.3502
O=C1C2CC3(CO3)C1N2	O=C1[C@H]2C[C@]3(CO3)[C@@H]1N2	
InChI=1S/C6H7NO2/c8-4-3-1-6(2-9-6)5(4)7-3/h3,5,7H,1-2H2	InChI=1S/C6H7NO2/c8-4-3-1-6(2-9-6)5(4)7-3/h3,5,7H,1-2H2/t3-,5-,6+/m1/s1
