21
gdb 114846	3.10444	1.2724	1.20123	0.3077	77.02	-0.2377	0.0804	0.3181	1137.3262	0.18536	-424.233222	-424.225271	-424.224327	-424.265754	31.497	
O	-0.1051568952	 1.4861996555	 0.0283289755	-0.426365
C	 0.0224742462	 0.0706571743	 0.1080674504	-0.102515
C	-1.3710161234	-0.5261615608	-0.0076008649	 0.038489
C	-2.0834043773	-0.2484316073	-1.3757101842	-0.226245
C	-2.4289215352	-1.6699691322	-1.8819783583	-0.039942
C	-1.109970081	-2.3788997377	-2.2251394594	-0.071655
O	-0.4788436685	-2.5816715438	-0.9435550203	-0.283003
C	-1.3961758297	-2.0701336237	 0.0392274167	 0.085245
C	-2.7687260037	-2.3976412542	-0.5620645558	-0.234217
H	 0.7785791058	 1.8646689718	 0.0178073916	 0.28506
H	 0.659792393	-0.323052746	-0.6956739725	 0.098768
H	 0.4781334249	-0.2313120395	 1.0655221137	 0.080589
H	-1.9719648759	-0.1303873254	 0.8193576613	 0.075696
H	-2.9861575297	 0.3527387442	-1.239439933	 0.098105
H	-1.4353124429	 0.295517949	-2.0687315179	 0.104015
H	-3.1729771443	-1.7105474378	-2.6786844264	 0.064256
H	-1.267614881	-3.3520057669	-2.709521407	 0.093673
H	-0.4563899287	-1.7744762677	-2.8663235333	 0.093999
H	-1.1400607424	-2.5168576177	 1.0013803029	 0.068584
H	-3.6036585503	-1.9478458532	-0.0186959284	 0.097641
H	-2.9349031407	-3.4721216307	-0.6748339308	 0.099823
92.9076	126.8444	188.6064	263.0284	309.7688	370.5935	425.8207	475.3524	483.0453	599.9417	783.3698	795.2427	823.47	849.7829	892.8295	911.6832	938.9783	955.3747	959.8009	973.9262	989.7314	1023.4691	1057.2326	1076.7344	1096.1123	1121.6222	1138.4632	1172.658	1188.5339	1230.7454	1241.0001	1254.4351	1261.9723	1276.9501	1309.6261	1318.3342	1325.765	1336.0971	1376.0238	1386.7072	1455.507	1485.3092	1499.6527	1522.947	1533.5095	2965.2492	3005.6384	3019.2311	3041.9932	3045.9381	3059.3173	3062.7134	3100.8135	3104.8057	3110.3843	3117.9517	3830.1257
OCC1CC2COC1C2	OC[C@H]1C[C@H]2CO[C@@H]1C2	
InChI=1S/C7H12O2/c8-3-6-1-5-2-7(6)9-4-5/h5-8H,1-4H2	InChI=1S/C7H12O2/c8-3-6-1-5-2-7(6)9-4-5/h5-8H,1-4H2/t5-,6-,7-/m1/s1
