19
gdb 110730	2.3521	1.43268	1.13871	2.8078	75.85	-0.2278	0.0099	0.2377	1140.1734	0.159157	-423.009271	-423.000705	-422.999761	-423.042318	33.35	
O	 0.0434933583	 1.3720987405	-0.2387714391	-0.419097
C	 0.0522108554	 0.0315746039	 0.2357412152	-0.091359
C	-1.3105915913	-0.6078098356	 0.1399288989	-0.071735
C	-1.870259798	-1.2466555192	-1.1481359897	-0.201342
C	-0.8981006344	-1.7274440092	-2.1671864187	-0.075621
C	-0.1047373655	-2.6918831898	-1.6880879561	-0.079516
C	-0.4462955872	-3.0453609313	-0.2581592744	-0.34269
C	-1.5804154929	-2.0765001402	 0.1047101471	 0.377596
O	-2.5766777787	-2.5251906755	 0.9705170178	-0.470789
H	-0.2663273599	 1.3452022529	-1.150231259	 0.280703
H	 0.8053067127	-0.5689873246	-0.2921697092	 0.091817
H	 0.3574530298	 0.0921815275	 1.2860826644	 0.113146
H	-2.0775716903	-0.0670509131	 0.6886283548	 0.105168
H	-2.8815317445	-0.9747054248	-1.4307090514	 0.0909
H	-0.8486068277	-1.3238526977	-3.172872785	 0.094549
H	 0.6970039512	-3.1764498518	-2.2331860554	 0.097627
H	-0.7957511541	-4.0847720628	-0.1691556601	 0.100759
H	 0.4114922277	-2.9579373176	 0.41952618	 0.120706
H	-3.0131028506	-3.2789743416	 0.5571815897	 0.279179
73.5194	153.1088	213.2589	228.247	294.2644	328.9562	341.1934	383.4718	418.1721	498.8615	577.5485	608.163	698.9824	755.5068	766.6263	856.9932	890.0139	932.6926	954.591	957.484	982.8855	1002.6513	1046.9356	1055.2316	1074.0665	1112.858	1143.7686	1150.4236	1193.4185	1233.034	1241.9523	1293.1532	1317.0514	1344.9532	1374.4323	1392.3231	1420.2998	1461.9738	1482.9766	1502.7739	1659.583	3002.2192	3013.1112	3051.1372	3069.6322	3150.0283	3169.5926	3182.2718	3208.3126	3787.5015	3809.7576
OCC1C2C=CCC12O	OC[C@H]1[C@H]2C=CC[C@@]12O	
InChI=1S/C7H10O2/c8-4-6-5-2-1-3-7(5,6)9/h1-2,5-6,8-9H,3-4H2	InChI=1S/C7H10O2/c8-4-6-5-2-1-3-7(5,6)9/h1-2,5-6,8-9H,3-4H2/t5-,6+,7+/m1/s1
