18
gdb 41179	3.09799	1.80757	1.66089	1.6254	76.32	-0.226	0.0139	0.2399	893.4238	0.150518	-401.86602	-401.859657	-401.858713	-401.896276	27.349	
C	-0.0321577856	 1.6025348299	-0.2210589887	-0.295562
C	 1.5287399112	 1.4532050558	 0.0837156477	-0.294915
C	 1.1128496709	 0.2473179261	 0.9765596791	 0.302878
C	 1.1172929782	-1.3076968366	 1.1670009705	-0.344503
C	-0.470287478	-1.1348041976	 1.0327842977	 0.039906
O	-1.0221034868	-0.7300604331	 2.2833806459	-0.217176
C	-0.2961851222	 0.2770585146	 2.8257266954	 0.103843
N	 0.7209068559	 0.8082132681	 2.2931844426	-0.280293
C	-0.0954971234	 0.0637271926	 0.0866950304	 0.008175
H	-0.5186581752	 2.2337054034	 0.5215860605	 0.128789
H	-0.3253263452	 1.916069687	-1.2252352221	 0.099653
H	 2.0771010379	 1.1639807206	-0.8161228204	 0.103335
H	 2.0280852937	 2.2825416464	 0.5886182473	 0.110327
H	 1.5189669067	-1.8616222608	 0.317912674	 0.113964
H	 1.4895842907	-1.7141253737	 2.1111180726	 0.110703
H	-1.0853173373	-1.9607187682	 0.6755435297	 0.092474
H	-0.6835853465	 0.5800484575	 3.7950778824	 0.130984
H	 0.2398238748	-0.430153152	-0.8320173345	 0.087419
218.4746	271.3102	349.9214	419.9347	445.1285	500.0862	549.6545	654.2692	669.0457	726.105	773.9458	791.1604	832.1936	854.7458	884.4739	925.8243	944.1772	951.4081	976.4056	1028.2327	1054.5573	1090.8619	1109.4629	1128.6065	1161.8561	1167.717	1190.3951	1202.9255	1216.3215	1222.7602	1244.4616	1262.6346	1349.0161	1386.2825	1415.9172	1468.0633	1480.5637	1483.3866	1703.7098	3032.2137	3064.5567	3066.517	3080.1449	3115.6535	3131.3747	3141.8951	3155.0947	3176.4873
C1CC23CC(OC=N2)C13	C1C[C@@]23C[C@@H](OC=N2)[C@@H]13	
InChI=1S/C7H9NO/c1-2-7-3-6(5(1)7)9-4-8-7/h4-6H,1-3H2	InChI=1S/C7H9NO/c1-2-7-3-6(5(1)7)9-4-8-7/h4-6H,1-3H2/t5-,6-,7+/m1/s1
