25
gdb 104659	1.83399	1.31617	1.03646	1.2559	88.78	-0.237	0.0597	0.2967	1374.9723	0.226625	-389.484933	-389.473591	-389.472647	-389.521086	41.886	
C	-0.6911508292	 1.3667505933	-0.276996302	-0.383845
C	-0.162843731	-0.0544208224	-0.0324945317	-0.254303
C	 0.5399958343	-0.6723293692	-1.2346939299	 0.302263
C	 1.7362274911	 0.0929496786	-1.7913054368	-0.252703
C	 2.9169399	 0.2047709565	-0.8185234645	-0.380149
C	 0.61759089	-2.1938545873	-1.3514259189	-0.081333
C	 0.0829931187	-3.154047477	-0.308686634	-0.417227
C	-0.3091013284	-1.4187335731	-2.2509736159	 0.024029
O	-1.6810190958	-1.60243248	-2.0317523934	-0.419883
H	 0.1146289677	 2.0775904028	-0.4833710588	 0.120215
H	-1.3790595216	 1.3966469785	-1.1302107295	 0.098685
H	-1.2358883096	 1.7328617193	 0.5988430801	 0.112423
H	 0.5207150979	-0.04071752	 0.8256748111	 0.095973
H	-1.0015880876	-0.6906369105	 0.2582336085	 0.108913
H	 2.0769866959	-0.4099026768	-2.7050024359	 0.090408
H	 1.4252881105	 1.0976305038	-2.1060186948	 0.092015
H	 3.2496657588	-0.7854299493	-0.4893374872	 0.117115
H	 3.7677304921	 0.7051385862	-1.2916560528	 0.109495
H	 2.6544071156	 0.7793493539	 0.0756171318	 0.117258
H	 1.5218442008	-2.550961538	-1.8401731327	 0.076869
H	-0.9295340724	-2.8961036481	 0.0045213603	 0.136393
H	 0.0451873878	-4.1697888154	-0.7169818892	 0.115014
H	 0.725637465	-3.1779243593	 0.5782345335	 0.110673
H	-0.0361891518	-1.3230018849	-3.3031580813	 0.074169
H	-2.1286139086	-0.7740533116	-2.231963276	 0.287535
59.2517	98.4075	123.9443	160.9447	181.2694	197.164	225.0272	252.9636	285.0333	295.6952	315.7214	340.0488	383.4094	483.7636	559.9136	596.2056	678.7396	760.934	792.7453	814.6013	865.9432	922.2281	965.5094	986.5688	1034.0859	1043.7859	1050.6877	1081.0721	1089.4474	1131.0027	1132.5653	1169.1439	1181.8421	1248.1453	1272.9763	1289.1498	1319.4432	1336.535	1362.6613	1371.1406	1393.8924	1407.8087	1410.6545	1417.2826	1462.2016	1480.0421	1485.1161	1496.7041	1499.0107	1500.9268	1504.0321	1507.3742	1515.7803	3017.7062	3025.7538	3031.596	3034.7452	3036.5089	3046.7307	3078.4396	3088.1674	3089.5346	3097.8675	3102.3187	3102.7346	3114.3426	3118.3686	3142.8517	3808.8845
CCC1(CC)C(C)C1O	CCC1(CC)[C@@H](C)[C@H]1O	
InChI=1S/C8H16O/c1-4-8(5-2)6(3)7(8)9/h6-7,9H,4-5H2,1-3H3	InChI=1S/C8H16O/c1-4-8(5-2)6(3)7(8)9/h6-7,9H,4-5H2,1-3H3/t6-,7+/m0/s1
