21
gdb 91035	2.17018	1.732	1.49501	1.1573	81.03	-0.2194	0.0756	0.295	1040.6664	0.182533	-387.036012	-387.027743	-387.026799	-387.068071	33.851	
C	-0.4280573402	 1.5275017174	-0.0167714307	-0.421169
C	 0.009563101	 0.0690129256	-0.025133213	-0.027531
C	 1.0700139608	-0.4624142937	-1.0553628228	-0.285664
C	 1.8255708993	-1.1999845806	 0.0940816583	-0.093708
C	 3.0274609487	-0.5053170277	 0.780994047	-0.058783
C	 2.9068741621	 0.9894741553	 0.7704098627	-0.298968
C	 2.0717073607	 0.212036658	 1.7481584941	-0.080011
C	 0.8671598897	-0.5338831539	 1.1319354488	 0.410001
O	 0.2126507466	-1.2310940734	 2.1537515812	-0.489106
H	 0.4195419768	 2.2126347443	 0.065848102	 0.12213
H	-0.9755006619	 1.7812452012	-0.9313923456	 0.112234
H	-1.0923132468	 1.7238719971	 0.8321489042	 0.120109
H	-0.889051538	-0.5594501586	-0.1045942678	 0.057301
H	 0.6558950326	-1.1236887965	-1.8199334773	 0.094486
H	 1.6469140047	 0.3136833144	-1.5638053322	 0.103226
H	 1.8955547158	-2.2857601897	 0.0285421621	 0.066314
H	 3.9701211039	-0.9932014761	 0.9984858408	 0.083824
H	 3.7420553205	 1.5125359182	 1.2272081025	 0.112103
H	 2.4792432967	 1.523048287	-0.0699387204	 0.108414
H	 2.1568710793	 0.3575899885	 2.8182163633	 0.090414
H	-0.4328515823	-1.8203577567	 1.7489123929	 0.274383
164.264	183.7662	203.329	236.7101	319.8323	332.7284	339.4827	405.4343	484.2452	534.3231	599.4388	637.5487	733.9998	768.9073	786.753	853.3545	896.5776	912.9595	923.9233	955.4724	972.8371	1002.7652	1025.0382	1039.3547	1064.5397	1091.1129	1095.1249	1117.0983	1122.0922	1125.8548	1162.7716	1184.8149	1224.4964	1249.8341	1260.0896	1287.2866	1293.1472	1348.4293	1356.2867	1402.5296	1414.0271	1480.3457	1495.3774	1497.5051	1508.9989	2993.9738	3032.9945	3064.2958	3091.1448	3105.651	3115.4426	3117.4597	3132.5689	3174.6114	3187.2396	3209.3347	3803.0111
CC1CC2C3CC3C12O	C[C@H]1C[C@H]2[C@H]3C[C@H]3[C@@]12O	
InChI=1S/C8H12O/c1-4-2-6-5-3-7(5)8(4,6)9/h4-7,9H,2-3H2,1H3	InChI=1S/C8H12O/c1-4-2-6-5-3-7(5)8(4,6)9/h4-7,9H,2-3H2,1H3/t4-,5+,6-,7+,8+/m0/s1
