18
gdb 62527	2.4896	1.36658	1.14563	2.3683	79.88	-0.2658	0.0094	0.2752	1149.8701	0.145008	-401.920683	-401.911259	-401.910314	-401.954627	35.03	
C	-0.1072393852	 1.451665193	-0.1034551509	-0.442962
C	-0.015422722	-0.0643183485	 0.0657875059	 0.130207
C	-1.3770516209	-0.6964388469	 0.3434268146	-0.441828
C	 0.8842885779	-0.7818628493	-1.0067582811	-0.099345
O	 1.8331815583	-1.1569812252	 0.0548127434	-0.269661
C	 1.0808133343	-0.5164822516	 1.0172489448	 0.432305
N	 1.2774455604	-0.3744279646	 2.2461603815	-0.550398
C	 0.3635914491	-1.9213441718	-1.7294643751	 0.341357
C	-0.0774605809	-2.8528572825	-2.3476032827	-0.43663
H	 0.8726380983	 1.8957249806	-0.3035689123	 0.124877
H	-0.7783339545	 1.7081847461	-0.9300395702	 0.121965
H	-0.4996142018	 1.9055459127	 0.8108732264	 0.142399
H	-2.0788198946	-0.4743804508	-0.4668316147	 0.121285
H	-1.3059726275	-1.7818191109	 0.4439829011	 0.134614
H	-1.7829340407	-0.2920092127	 1.27489294	 0.137145
H	 1.3728002932	-0.082382244	-1.6925563774	 0.116923
H	 2.144933525	-0.8224865265	 2.5460331784	 0.229145
H	-0.4613468484	-3.679882787	-2.8929901917	 0.208604
68.7098	139.3433	173.719	206.8548	215.4862	224.5655	282.1046	333.4448	339.92	438.5311	506.8303	588.8758	634.3884	667.4022	681.9098	690.8801	770.2381	841.0701	866.6407	921.4666	965.299	993.3668	1019.3529	1025.9431	1061.1788	1172.0859	1195.8329	1233.5069	1258.3023	1326.4847	1362.6712	1402.4366	1423.0953	1480.2653	1483.7207	1501.0466	1505.0476	1827.5306	2238.7009	3035.2502	3044.0755	3058.176	3105.851	3114.5768	3118.7376	3129.1414	3476.6579	3500.2774
CC1(C)C(OC1=N)C#C	CC1(C)[C@@H](O[C]1[NH])C#C	
InChI=1S/C7H9NO/c1-4-5-7(2,3)6(8)9-5/h1,5,8H,2-3H3	InChI=1S/C7H9NO/c1-4-5-7(2,3)6(8)9-5/h1,5,8H,2-3H3/t5-/m0/s1
