19
gdb 104927	2.10696	1.48839	1.02268	2.7462	73.35	-0.2445	-0.036	0.2085	1199.4254	0.156037	-460.157832	-460.148057	-460.147112	-460.192081	36.398	
C	-0.106534627	 1.4522951884	-0.111170638	-0.433035
C	 0.11904017	-0.0367565327	-0.0001096332	 0.388671
O	-0.9273895435	-0.709546723	-0.6009568151	-0.4622
C	 1.4861511632	-0.6147699297	-0.0260767585	-0.387959
C	 0.733851267	-0.6411074948	 1.3210620583	 0.103835
C	 1.2347657415	 0.2078533336	 2.4715203664	-0.161085
O	 2.2683964512	-0.4455641723	 3.1980583232	-0.414618
C	 0.1698508557	-1.9424157923	 1.7234360874	 0.125906
O	-0.2297330897	-2.7957291887	 0.9489935803	-0.321287
H	 0.7284398389	 2.0305827704	 0.2865837938	 0.118987
H	-0.2269630498	 1.7060800772	-1.1689239545	 0.139423
H	-1.0228760307	 1.7428059797	 0.4100850065	 0.135004
H	-0.8261858653	-1.6579790084	-0.4048690769	 0.30515
H	 1.6170726611	-1.5759696293	-0.5132193936	 0.136667
H	 2.3385678913	 0.0561532508	-0.0825204238	 0.117314
H	 1.5605784806	 1.1938730105	 2.1153272509	 0.094917
H	 0.4349967893	 0.3768590408	 3.2010173245	 0.121518
H	 2.9809992583	-0.6412745588	 2.5798348766	 0.285609
H	 0.1011450179	-2.1073494513	 2.8165962957	 0.107181
83.0366	136.1174	157.6668	195.2772	211.9459	235.3336	294.2749	326.5635	340.4131	374.5077	405.7873	468.6004	553.0982	609.6623	634.6251	705.7329	735.9726	825.2443	929.205	942.1687	961.1625	1004.9423	1035.6124	1047.237	1062.6593	1094.4049	1139.893	1222.2726	1228.0843	1307.3968	1324.9235	1376.87	1406.2813	1420.4737	1431.9178	1454.3792	1476.5571	1479.1899	1504.639	1508.6971	1755.5756	2943.3564	3016.5125	3050.2507	3070.5545	3114.7479	3116.2345	3142.8407	3212.2731	3613.0467	3804.1891
CC1(O)CC1(CO)C=O	C[C@@]1(O)C[C@]1(CO)C=O	
InChI=1S/C6H10O3/c1-5(9)2-6(5,3-7)4-8/h3,8-9H,2,4H2,1H3	InChI=1S/C6H10O3/c1-5(9)2-6(5,3-7)4-8/h3,8-9H,2,4H2,1H3/t5-,6-/m1/s1
