15
gdb 99462	2.47009	1.18947	0.92452	2.7152	73.84	-0.2526	-0.0854	0.1673	1269.5387	0.109792	-416.775701	-416.765941	-416.764997	-416.811116	33.489	
C	-0.006696652	 1.4706063245	-0.2546180939	-0.331485
N	-0.0971221892	 0.1345935831	 0.3215409305	-0.273302
C	-1.3860219685	-0.5003493375	 0.2358158615	-0.204661
C	-1.9885074956	-0.5217746006	-1.1239066	 0.263775
N	-2.4046658703	-0.5061357947	-2.2026787426	-0.320688
C	-1.2737693115	-1.97132289	 0.7138843871	 0.230909
O	-0.201308479	-2.5177329665	 0.7970088058	-0.273
C	-2.5262727582	-2.615247573	 1.0284954824	 0.283656
C	-3.5843332414	-3.1231573421	 1.2940517641	-0.38898
H	 1.0145976179	 1.8366990415	-0.1253494653	 0.134133
H	-0.2657556204	 1.5211507832	-1.3235502301	 0.128951
H	-0.6750989915	 2.1490976733	 0.2871821712	 0.128065
H	 0.6117908548	-0.4941191087	-0.0388819345	 0.246566
H	-2.1030256009	 0.012945447	 0.8914953661	 0.147178
H	-4.5128630141	-3.5865673996	 1.5273903476	 0.228881
44.9473	92.6899	124.5668	140.1233	177.9603	219.7724	248.0238	275.3213	364.5099	440.0492	444.7892	601.6393	608.6681	664.0984	696.4417	719.8746	731.8115	879.1813	930.6033	994.4823	1098.2048	1158.8606	1160.1306	1227.7523	1271.8073	1330.3431	1462.9969	1486.0892	1496.775	1520.2666	1787.7832	2217.7483	2338.4245	2987.9707	3021.3525	3067.0427	3118.9846	3490.8502	3550.0017
CNC(C#N)C(=O)C#C	CN[C@@H](C#N)C(=O)C#C	
InChI=1S/C6H6N2O/c1-3-6(9)5(4-7)8-2/h1,5,8H,2H3	InChI=1S/C6H6N2O/c1-3-6(9)5(4-7)8-2/h1,5,8H,2H3/t5-/m0/s1
