16
gdb 34844	4.03437	1.325	1.23979	1.5355	74.51	-0.2434	0.0042	0.2476	1019.202	0.125846	-400.70482	-400.697778	-400.696834	-400.736082	28.188	
C	-0.0230649481	-1.1741651136	-0.0440082002	-0.42842
C	-0.0205511557	 0.0285862542	-0.0190212256	 0.312384
C	-0.0071151076	 1.4725852215	 0.0152913412	-0.228726
C	-0.115190474	 2.0797614351	 1.4571772814	 0.114194
C	 1.4163800045	 1.9159816226	 1.5771042964	-0.262783
C	 1.4285838814	 2.1347126909	 0.0365686307	-0.000721
N	 1.2762026644	 3.5641543951	-0.2414667012	-0.256123
C	 0.3553839157	 4.109293139	 0.4386417863	 0.100792
O	-0.4436434305	 3.4757931005	 1.3351261493	-0.236812
H	-0.0315506118	-2.2355613555	-0.0763773542	 0.19731
H	-0.6960273498	 1.89789834	-0.7196102201	 0.114711
H	-0.8019032988	 1.653992055	 2.1860098056	 0.103252
H	 1.9590815874	 2.6352949226	 2.1922011544	 0.114785
H	 1.674633984	 0.8924781701	 1.8493336244	 0.130756
H	 2.2148326386	 1.6973122591	-0.5755359389	 0.091356
H	 0.1135995504	 5.1656598734	 0.3630903006	 0.134046
140.5523	144.2822	312.4335	352.0672	412.349	468.9361	487.4057	508.5631	603.5671	617.6604	648.3037	764.337	854.5425	864.9198	906.6403	911.9844	942.022	951.3441	972.9874	1012.572	1060.2139	1096.0012	1137.9614	1147.1078	1153.9549	1213.2615	1244.861	1263.7148	1296.8703	1316.7183	1361.0471	1389.7925	1478.3548	1698.5727	2231.991	3072.959	3085.442	3130.8546	3140.0933	3152.7143	3186.7323	3503.4124
C#CC1C2CC1N=CO2	C#C[C@H]1[C@H]2C[C@@H]1[N][CH]O2	
InChI=1S/C7H7NO/c1-2-5-6-3-7(5)9-4-8-6/h1,4-7H,3H2	InChI=1S/C7H7NO/c1-2-5-6-3-7(5)9-4-8-6/h1,4-7H,3H2/t5-,6+,7-/m1/s1
