20
gdb 59826	4.4479	0.60658	0.55162	3.5474	88.43	-0.2244	-0.0463	0.1781	2036.7109	0.16708	-403.122501	-403.111485	-403.110541	-403.160439	37.65	
C	 0.1774716076	 1.4030499843	-0.0675977145	-0.325604
N	 0.0650365083	-0.0466864497	 0.0090133939	-0.046188
C	 0.6545575763	-0.5709013754	 1.2303791491	-0.312576
C	-1.3114175664	-0.50908788	-0.1413420749	-0.308056
C	-1.8922080666	-0.1874728431	-1.440617428	-0.009352
C	-2.3827914198	 0.0890586662	-2.5087607846	 0.135063
C	-2.9640541384	 0.4257883479	-3.7944796786	 0.243002
C	-4.2478005293	-0.302146561	-4.1394699676	-0.477871
O	-2.4466305407	 1.2368753199	-4.5330101558	-0.276232
H	 1.2329094253	 1.6867507003	-0.0247117747	 0.122518
H	-0.2348191352	 1.7579643614	-1.0150444738	 0.145389
H	-0.3503587736	 1.9202909976	 0.7571706477	 0.089913
H	 0.1474307944	-0.2167936929	 2.1492247713	 0.092526
H	 0.6188027929	-1.6652061362	 1.2240977507	 0.118966
H	 1.7033742175	-0.2660379641	 1.2878267826	 0.1245
H	-1.3216226741	-1.5988515207	-0.0114309104	 0.137245
H	-1.9827428979	-0.1026931365	 0.64534207	 0.112479
H	-5.008802665	-0.1069665714	-3.3762027517	 0.145045
H	-4.603504849	 0.0283573879	-5.1163884758	 0.14291
H	-4.0750222164	-1.3838111846	-4.1491280549	 0.146321
27.1335	53.6208	64.8285	119.4299	155.2601	170.439	249.2928	254.5531	317.666	349.2336	374.9338	387.7201	439.8881	497.6096	602.4518	623.9592	705.9381	848.3138	957.9548	985.7677	1026.7978	1042.9181	1065.7719	1074.6241	1123.554	1175.9354	1208.0783	1245.7795	1294.0895	1304.0865	1381.5396	1390.3681	1442.9264	1460.8437	1462.314	1469.0692	1477.5358	1481.2842	1497.7717	1499.6433	1512.0756	1767.9602	2329.2422	2875.8895	2915.6562	2925.8102	3037.007	3039.1453	3060.7068	3076.217	3103.2641	3108.0889	3125.7003	3151.8866
CN(C)CC#CC(C)=O	CN(C)CC#CC(=O)C	
InChI=1S/C7H11NO/c1-7(9)5-4-6-8(2)3/h6H2,1-3H3	InChI=1S/C7H11NO/c1-7(9)5-4-6-8(2)3/h6H2,1-3H3
