16
gdb 45070	2.55611	1.65887	1.1421	4.1808	74.35	-0.2393	-0.0197	0.2196	1054.8388	0.12397	-400.71373	-400.705905	-400.70496	-400.746327	30.095	
O	-0.025102095	-0.0124918716	-0.1611465679	-0.292161
C	-0.0489631908	 1.1632353855	 0.0610741408	 0.390243
C	-1.3037365095	 2.0085842888	 0.3289283254	-0.318307
C	-0.7793011423	 3.2874179493	 0.9392498994	-0.049697
N	 0.0797099703	 3.0218428506	 2.1103152368	-0.32363
C	 0.7036856784	 3.3384391918	 0.8166706022	-0.050772
C	 1.2037118157	 2.1001280881	 0.0877601528	-0.301886
C	 2.3959670462	 1.4800783378	 0.6352081626	 0.358289
C	 3.3884027298	 0.9779314539	 1.0882497915	-0.448255
H	-1.8124692188	 2.1931827663	-0.6260259409	 0.129022
H	-1.9909338737	 1.45518314	 0.9736348504	 0.143976
H	-1.37441661	 4.1936617204	 0.9085052508	 0.096797
H	 0.1115700815	 3.8354038971	 2.7186189502	 0.239262
H	 1.2366366046	 4.2745791129	 0.6932267126	 0.101234
H	 1.3852449825	 2.3684710734	-0.965594186	 0.128853
H	 4.2584328412	 0.5238703457	 1.4934470393	 0.197033
68.7092	128.0701	155.6706	321.0483	371.3914	387.7162	463.3376	501.4208	573.7312	621.4256	631.263	641.8999	680.4793	753.857	829.9521	866.5075	872.2006	948.7851	959.9845	1006.4074	1048.7681	1065.1841	1094.1102	1140.0623	1153.1087	1187.9073	1231.0747	1249.7483	1292.6876	1313.8396	1374.1035	1427.024	1444.2814	1866.9833	2244.9747	2986.2363	3039.6278	3107.653	3166.5584	3177.442	3505.352	3515.8794
O=C1CC2NC2C1C#C	O=C1C[C@H]2N[C@H]2[C@H]1C#C	
InChI=1S/C7H7NO/c1-2-4-6(9)3-5-7(4)8-5/h1,4-5,7-8H,3H2	InChI=1S/C7H7NO/c1-2-4-6(9)3-5-7(4)8-5/h1,4-5,7-8H,3H2/t4-,5+,7-/m0/s1
