21
gdb 58908	3.14617	1.38222	1.24187	1.5348	80.9	-0.2262	0.0771	0.3034	1119.4416	0.181751	-387.032817	-387.024363	-387.023418	-387.065635	33.512	
C	-0.063560654	 1.511386721	-0.0543455497	-0.3972
C	 0.0253330296	-0.0187551096	 0.0548643933	-0.105226
C	 0.9029913913	-0.4604561866	 1.2335634412	-0.400378
C	-1.3536499661	-0.6200649591	 0.1318087111	 0.467257
C	-2.372634412	-0.4002293466	 1.2922521643	-0.273075
C	-3.0657102461	-1.6484968929	 0.7513016413	-0.121875
C	-2.8471312358	-1.5735246751	-0.7688834108	 0.098844
O	-2.1740734784	-0.3522078892	-1.056566726	-0.339665
C	-1.7807309339	-2.1459382663	 0.0937199428	-0.217684
H	 0.9300647204	 1.9451065107	-0.2038889235	 0.109109
H	-0.6988532935	 1.8051632698	-0.8936489719	 0.139052
H	-0.4835997821	 1.9467604622	 0.8593729179	 0.114895
H	 0.4739724283	-0.4013853826	-0.8717214877	 0.085612
H	 0.960035473	-1.55131187	 1.3077325783	 0.115367
H	 1.9212431525	-0.0783281101	 1.1131525235	 0.115345
H	 0.5167036876	-0.0780861806	 2.1845730228	 0.118222
H	-1.9255899706	-0.5876053079	 2.2716941295	 0.10339
H	-2.912372018	 0.5519824324	 1.2890668322	 0.098399
H	-3.8551417509	-2.236631479	 1.2014952876	 0.089252
H	-3.4978281533	-2.0082652231	-1.5159044846	 0.105096
H	-1.2498258679	-3.0874692677	 0.1159634085	 0.095262
72.2363	162.7432	197.9289	227.6234	255.253	298.9044	372.7918	446.192	481.7036	545.1405	617.4809	759.9741	766.5924	787.5968	813.2203	870.7993	880.5052	930.532	933.2947	936.4089	964.5488	972.1647	1001.1764	1027.5242	1035.9856	1052.4196	1077.518	1108.3983	1140.5381	1160.9126	1176.5013	1185.7375	1234.205	1274.3384	1321.4745	1344.1494	1361.2984	1388.2399	1397.2587	1420.2203	1485.4972	1489.5719	1491.6433	1503.4034	1514.9869	3016.9679	3032.4125	3036.1333	3048.4175	3097.8864	3102.4456	3106.4304	3112.6463	3123.1932	3196.6638	3201.6939	3217.9639
CC(C)C12CC3C(O1)C23	CC(C)[C@@]12C[C@H]3[C@@H](O1)[C@@H]23	
InChI=1S/C8H12O/c1-4(2)8-3-5-6(8)7(5)9-8/h4-7H,3H2,1-2H3	InChI=1S/C8H12O/c1-4(2)8-3-5-6(8)7(5)9-8/h4-7H,3H2,1-2H3/t5-,6+,7-,8-/m1/s1
