13
gdb 130586	3.55152	1.64958	1.1264	4.2415	71.98	-0.2327	-0.0901	0.1426	972.0394	0.092986	-415.638213	-415.631956	-415.631012	-415.668887	24.373	
O	-0.0570100208	-0.0408824171	 0.0052303557	-0.301155
C	-0.0015511035	 1.1646336478	 0.0100715676	 0.260399
C	-1.2092018835	 2.1093266177	 0.0310651313	-0.170185
C	-0.7981190475	 3.3886809273	 0.0313253726	-0.209785
C	 0.6757043198	 3.3663243347	 0.0110174973	 0.369308
C	 1.1715859662	 2.0755967892	-0.0017927939	 0.084545
C	 2.5700150823	 2.2274565539	-0.0202824629	-0.148021
N	 2.9140521958	 3.5178584516	-0.0189457266	-0.222162
N	 1.727948712	 4.1948594815	 0.0004839571	-0.335979
H	-2.2257791465	 1.7417265696	 0.0433392854	 0.130525
H	-1.4158744443	 4.2768430283	 0.0439360257	 0.128387
H	 3.3447240624	 1.4757508828	-0.0344269166	 0.133705
H	 1.7520290278	 5.2013769625	 0.0048616072	 0.280416
159.7495	204.0501	305.3577	372.4263	524.8914	564.5718	609.9696	659.4117	666.5996	692.2018	723.5178	744.3684	837.8111	912.677	945.8782	969.5771	1016.783	1076.0852	1077.4257	1145.7351	1217.8197	1298.5306	1336.3451	1384.9943	1463.3013	1532.2868	1565.4763	1606.5528	1817.1969	3218.634	3246.9102	3256.3037	3662.8038
O=C1C=CC2=C1C=NN2	O=C1C=Cc2c1cn[nH]2	
InChI=1S/C6H4N2O/c9-6-2-1-5-4(6)3-7-8-5/h1-3H,(H,7,8)	InChI=1S/C6H4N2O/c9-6-2-1-5-4(6)3-7-8-5/h1-3H,(H,7,8)
