13
gdb 47960	2.64863	0.82172	0.648	3.1177	80.66	-0.2731	-0.0701	0.203	1617.1813	0.084332	-382.176724	-382.16697	-382.166026	-382.213586	32.912	
O	-0.0976159855	-0.0654989344	-0.1310610861	-0.221733
C	-0.0320928742	 1.1363703478	-0.0234807722	 0.025749
C	 1.2015493285	 1.8849717625	 0.0054012213	 0.019015
C	 2.2098771627	 2.5448889809	 0.0371675713	 0.170602
C	 3.4577134084	 3.3252630968	 0.0555785205	-0.548116
C	 3.1968868681	 4.7726315822	 0.0054447582	 0.345017
C	 2.9931188155	 5.9529737042	-0.0537614789	-0.424284
C	 4.2896286839	 2.9565623701	 1.2120063378	 0.346629
C	 4.9774518404	 2.6507938131	 2.1454984019	-0.423497
H	-0.9421385389	 1.7633680295	 0.0622288712	 0.106601
H	 4.016523294	 3.0543573008	-0.8550460929	 0.180297
H	 2.8107073732	 6.9985907325	-0.0985582548	 0.21122
H	 5.5830605937	 2.3814400039	 2.9757540626	 0.2125
16.5101	65.4069	97.2503	124.8322	173.1409	217.2992	322.7837	325.6313	368.6928	463.743	550.3624	553.3032	646.0193	650.7735	663.9679	667.7195	671.3246	818.0429	926.2908	1021.1901	1029.2593	1146.4877	1268.9353	1278.5855	1421.291	1771.977	2249.7659	2254.2249	2342.701	2927.6021	2978.8367	3501.298	3502.2181
O=CC#CC(C#C)C#C	O=CC#CC(C#C)C#C	
InChI=1S/C8H4O/c1-3-8(4-2)6-5-7-9/h1-2,7-8H	InChI=1S/C8H4O/c1-3-8(4-2)6-5-7-9/h1-2,7-8H
