19
gdb 82981	2.53257	1.99258	1.61562	2.5772	72.93	-0.2426	0.0694	0.312	913.1483	0.162429	-423.005116	-422.998312	-422.997368	-423.036145	28.327	
O	 0.1338576125	 1.3917193432	 0.1705026949	-0.440342
C	-0.0005845086	 0.0067155058	 0.0413853167	 0.145806
C	-1.419062676	-0.6384100969	 0.0528875615	-0.076586
C	-2.4856392601	 0.1536832064	-0.7421250815	-0.251568
C	-2.0661491173	-0.5645327903	-2.064197167	-0.037658
C	-1.2089888422	 0.2433272866	-3.0275471464	-0.091364
O	 0.0526908542	 0.4373615457	-2.373717567	-0.286534
C	 0.2524945852	-0.5764081276	-1.3841409186	 0.041431
C	-1.0417029002	-1.4182637522	-1.2610064763	-0.06809
H	 0.0992998102	 1.7313694384	-0.7359899725	 0.289037
H	 0.6383591673	-0.4824659843	 0.785199536	 0.078922
H	-1.7384605305	-1.1160471976	 0.9789757151	 0.065336
H	-3.5054898999	-0.0951874283	-0.4417843703	 0.103198
H	-2.3735489471	 1.2417392882	-0.7190696485	 0.102378
H	-2.8694194823	-1.1025006964	-2.5701015592	 0.076168
H	-1.057378748	-0.3004950723	-3.9717400492	 0.097328
H	-1.6212516032	 1.230973549	-3.2604746289	 0.109761
H	 1.2084436144	-1.0742381902	-1.5645484273	 0.07785
H	-0.9982429386	-2.4994970171	-1.3740075816	 0.064929
111.6041	227.643	265.9778	345.2923	480.7356	520.7819	557.749	606.9977	649.954	718.4088	767.7985	810.4808	826.0482	867.5286	883.5392	911.16	935.2162	975.9449	984.8454	1022.6011	1043.4038	1082.3269	1091.93	1125.2754	1146.7793	1150.4305	1171.4775	1205.9762	1223.5883	1244.2169	1245.6114	1264.9288	1289.0994	1301.2169	1323.6125	1336.6024	1351.6312	1385.5514	1435.3761	1484.5261	1516.646	2994.4887	3043.2322	3057.2679	3069.6912	3074.231	3094.1204	3104.5593	3115.8567	3134.6624	3719.4452
OC1C2CC3COC1C23	O[C@H]1[C@H]2C[C@H]3CO[C@@H]1[C@@H]23	
InChI=1S/C7H10O2/c8-6-4-1-3-2-9-7(6)5(3)4/h3-8H,1-2H2	InChI=1S/C7H10O2/c8-6-4-1-3-2-9-7(6)5(3)4/h3-8H,1-2H2/t3-,4-,5+,6-,7+/m0/s1
