18
gdb 73197	2.51396	1.44801	1.27084	4.2154	72.07	-0.2366	-0.0259	0.2107	1075.5868	0.146127	-439.045476	-439.036883	-439.035939	-439.079168	31.722	
C	 0.1629035036	 1.513599142	-0.2220211319	-0.480288
C	 0.1081876268	 0.0362960671	 0.0462259196	 0.428186
O	-1.2382278808	-0.4522055402	 0.2571949726	-0.328509
C	-0.8711040666	-1.0956472535	 1.5077950972	-0.070983
C	 0.6108817381	-0.7721463035	 1.2744907217	-0.107559
N	 1.2447804045	-1.76396528	 0.3713972368	-0.336743
C	 0.9671499448	-0.9386201094	-0.8319729242	-0.123894
C	 0.2120203607	-1.6451876752	-1.9384177651	 0.174071
O	 0.1614617879	-1.2374282877	-3.0706944113	-0.255389
H	 1.1970749291	 1.8672040059	-0.2719505531	 0.121802
H	-0.3199999585	 1.7333581033	-1.1805984512	 0.14845
H	-0.3645514827	 2.0663388996	 0.5607177616	 0.128591
H	-1.3332558608	-0.5833588901	 2.3611130264	 0.101592
H	-1.1220260783	-2.1604655431	 1.5222185975	 0.113561
H	 1.2163706176	-0.3805648513	 2.0929347558	 0.082476
H	 2.2298599907	-1.9169960659	 0.5462284512	 0.22855
H	 1.8364320677	-0.4274836761	-1.2630986872	 0.089383
H	-0.3132762339	-2.5673468918	-1.6111436665	 0.086703
59.7978	87.3329	188.8198	204.2722	212.0189	305.2548	366.6172	411.3006	472.517	495.8114	615.1995	655.1458	753.6477	843.7053	857.4037	893.3509	929.195	984.5856	996.7517	1011.9375	1046.9809	1066.7315	1090.906	1141.7703	1152.4165	1169.8663	1175.2606	1203.9288	1253.0961	1324.9467	1335.001	1351.6345	1393.1267	1404.2346	1410.6334	1479.3174	1484.7004	1506.0206	1825.3477	2912.6057	3019.2129	3033.9533	3039.0086	3089.0133	3102.1949	3107.258	3118.1786	3560.1286
CC12OCC1NC2C=O	C[C@]12OC[C@H]1N[C@H]2C=O	
InChI=1S/C6H9NO2/c1-6-4(2-8)7-5(6)3-9-6/h2,4-5,7H,3H2,1H3	InChI=1S/C6H9NO2/c1-6-4(2-8)7-5(6)3-9-6/h2,4-5,7H,3H2,1H3/t4-,5+,6+/m0/s1
