20
gdb 95882	2.71923	1.25294	1.02963	3.6034	75.46	-0.223	-0.0258	0.1971	1228.2062	0.171108	-440.288384	-440.279554	-440.27861	-440.322027	33.163	
C	 0.0410494827	 1.5927237189	-0.1342938104	-0.413685
C	 0.0223382845	 0.0690149054	-0.0929374714	 0.038953
C	 0.7842542332	-0.5580542487	-1.2652941974	-0.069337
O	 0.7707263593	-1.9728516122	-1.181970003	-0.248565
C	 1.3921883082	-2.4440370839	-0.0000964211	-0.084106
C	 0.721124237	-1.8558839717	 1.2485475297	-0.104319
N	 0.5426514151	-0.402736197	 1.2022079236	-0.314459
C	-0.6249744859	-2.5228954256	 1.5424963073	 0.17278
O	-0.8784260917	-3.6734924039	 1.3028119336	-0.245318
H	 1.0695379046	 1.9730473534	-0.0991398545	 0.113467
H	-0.4202243666	 1.9665576342	-1.0530828243	 0.123512
H	-0.5013824762	 2.0045404983	 0.7207533083	 0.131497
H	-1.0178978038	-0.2804488741	-0.1628312634	 0.092588
H	 0.320188415	-0.3016267937	-2.2230619709	 0.108235
H	 1.8244320892	-0.1829255331	-1.2738247797	 0.074104
H	 1.2889778895	-3.5317274356	-0.0029483788	 0.132572
H	 2.4637501564	-2.1813306103	-0.0006631581	 0.078763
H	 1.3429076479	-2.0868153114	 2.1264952623	 0.107946
H	 1.4297218668	 0.056279617	 1.3891270434	 0.216281
H	-1.3518065748	-1.8453001859	 2.0442615148	 0.089091
76.7552	116.5381	154.148	221.866	235.7723	297.4868	344.8167	361.636	425.8797	474.1246	510.9601	616.926	697.4488	765.3268	819.2928	861.8522	907.5041	925.238	948.0777	984.2391	1025.8546	1065.425	1124.6589	1138.2041	1153.3851	1161.4147	1183.2117	1254.4219	1282.052	1303.5244	1323.395	1347.5277	1370.7622	1382.0085	1395.782	1409.2766	1417.1613	1475.1667	1482.3994	1489.653	1497.4259	1503.8226	1836.922	2887.1463	2936.9107	2962.1877	3006.3644	3007.5682	3030.5262	3075.9885	3098.755	3108.6237	3122.8532	3501.5073
CC1COCC(N1)C=O	C[C@H]1COC[C@@H](N1)C=O	
InChI=1S/C6H11NO2/c1-5-3-9-4-6(2-8)7-5/h2,5-7H,3-4H2,1H3	InChI=1S/C6H11NO2/c1-5-3-9-4-6(2-8)7-5/h2,5-7H,3-4H2,1H3/t5-,6-/m0/s1
