22
gdb 101781	4.24747	0.6623	0.60933	2.4568	79.77	-0.2642	0.0589	0.323	1885.2159	0.192426	-441.54405	-441.53297	-441.532026	-441.581647	39.231	
C	 0.0061110321	 1.5493026525	 0.0486894042	-0.392166
C	-0.0516751668	 0.0187288378	 0.0334534194	-0.170745
C	-1.476195963	-0.563946626	-0.0251651597	 0.016739
C	-2.2188173264	-0.1939018036	-1.3164648554	-0.391582
C	-1.4052221421	-2.0785415129	 0.1520342343	-0.057234
O	-2.7465723213	-2.5838570573	 0.265499338	-0.265348
C	-2.8547388248	-3.9336372968	 0.3140119059	 0.491965
N	-4.1746723011	-4.2918310154	 0.3721240513	-0.564235
O	-1.9238274565	-4.7035325068	 0.2789413788	-0.396957
H	 1.0382173748	 1.8982236172	 0.1514377696	 0.114375
H	-0.3964238423	 1.9833184252	-0.8713437119	 0.120426
H	-0.5676521772	 1.9578103559	 0.8882381088	 0.114185
H	 0.5264917918	-0.3607782649	-0.8203306681	 0.09761
H	 0.4488701609	-0.3637344364	 0.9324026033	 0.09554
H	-2.0430231406	-0.1645892663	 0.8281710063	 0.076968
H	-3.1976872304	-0.6781410551	-1.3502470358	 0.124854
H	-2.3737731672	 0.8851703215	-1.3986389158	 0.114383
H	-1.6513254742	-0.519328823	-2.19701441	 0.111549
H	-0.910755868	-2.5604084992	-0.6985823498	 0.11911
H	-0.8468800875	-2.3487491013	 1.054790532	 0.111327
H	-4.8513037223	-3.5945066768	 0.6323852287	 0.262088
H	-4.359521928	-5.2449713682	 0.633512616	 0.267149
25.1299	61.6741	86.2109	110.984	178.9545	210.3615	248.3539	262.6596	272.4779	333.1937	362.733	417.8976	481.9598	489.8022	536.1998	670.4581	777.5672	784.7153	826.7274	913.6999	929.4051	941.4878	979.5134	1024.127	1046.0265	1092.8503	1119.0891	1163.2545	1177.5324	1193.257	1265.1092	1295.3109	1313.781	1347.5904	1380.8131	1384.3281	1407.8073	1416.2384	1429.1705	1484.3289	1494.5345	1500.4847	1506.4179	1512.4066	1516.0312	1612.2902	1833.9259	3003.5383	3012.3224	3032.1669	3034.9694	3040.4385	3045.5777	3085.2814	3099.9349	3102.3589	3110.1862	3125.0023	3612.936	3741.7508
CCC(C)COC(N)=O	CC[C@@H](C)COC(=O)N	
InChI=1S/C6H13NO2/c1-3-5(2)4-9-6(7)8/h5H,3-4H2,1-2H3,(H2,7,8)	InChI=1S/C6H13NO2/c1-3-5(2)4-9-6(7)8/h5H,3-4H2,1-2H3,(H2,7,8)/t5-/m1/s1
