19
gdb 83966	2.20605	1.95487	1.83774	2.0211	73.92	-0.2436	-0.0016	0.2419	908.3808	0.163025	-423.031898	-423.025026	-423.024081	-423.062598	29.239	
O	 0.0949187889	 1.3728559208	 0.1176995044	-0.450173
C	-0.0069098911	-0.0211475788	-0.0091620873	 0.151061
C	-1.4421248944	-0.5925421612	-0.2498857205	-0.096963
C	-2.060163006	 0.239986286	-1.3965895771	-0.231481
C	-1.1701388462	 0.1653059898	-2.6547582	-0.07201
O	 0.2319076113	 0.2740086389	-2.3700863845	-0.298622
C	 0.6706489151	-0.5714130943	-1.2802461603	 0.030926
C	 0.1083978518	-1.9767258619	-1.3296087262	-0.099959
C	-1.0857663024	-1.987527401	-0.7287719617	-0.073589
H	 0.1974128877	 1.7108385109	-0.7830618354	 0.285946
H	 0.425181039	-0.4752287448	 0.8876121489	 0.08396
H	-2.0783743767	-0.5683759088	 0.6383482848	 0.068322
H	-3.0663467326	-0.1093753764	-1.6538399211	 0.096933
H	-2.1492206292	 1.2750917057	-1.0509207761	 0.112684
H	-1.3601109876	-0.7754586396	-3.1855943031	 0.102973
H	-1.3905143691	 0.9857501605	-3.3432864508	 0.107962
H	 1.7596332884	-0.4957974265	-1.2884959949	 0.080173
H	 0.598319195	-2.8107088957	-1.8163886548	 0.100897
H	-1.740320802	-2.8460582537	-0.6267602642	 0.10096
207.5694	265.6652	313.0085	325.616	379.2239	474.1487	525.1449	551.1708	583.5505	601.0819	749.5059	767.3921	788.649	806.9101	848.6034	865.2496	943.8834	970.0686	977.7157	1000.5263	1020.4491	1043.5988	1081.3932	1087.4663	1124.982	1138.4749	1190.246	1240.4471	1254.4383	1273.1416	1298.0857	1317.3597	1329.1233	1347.6669	1366.6532	1383.2051	1410.9031	1435.8966	1483.3385	1504.2507	1652.2651	3028.5486	3040.9853	3066.2903	3078.3422	3081.4481	3094.616	3098.8989	3186.52	3215.8302	3740.0672
OC1C2CCOC1C=C2	O[C@H]1[C@H]2CCO[C@@H]1C=C2	
InChI=1S/C7H10O2/c8-7-5-1-2-6(7)9-4-3-5/h1-2,5-8H,3-4H2	InChI=1S/C7H10O2/c8-7-5-1-2-6(7)9-4-3-5/h1-2,5-8H,3-4H2/t5-,6-,7+/m1/s1
