22
gdb 88616	3.59835	1.14421	1.04419	1.2275	86.47	-0.2213	0.089	0.3103	1251.4184	0.19551	-367.120632	-367.112465	-367.111521	-367.15356	32.429	
C	 3.1493978224	-1.3595417279	 1.129460082	-0.315787
N	 1.8470048542	-1.2941063612	 0.4817568988	-0.091349
C	 0.7277896121	-1.8995308939	 1.1902295333	-0.246687
C	 0.8200436932	-0.414721705	 1.0602437731	-0.050196
C	 1.1136308172	 0.5094194427	 2.2235286776	 0.03561
C	-0.031509012	 1.4064153615	 2.7975362547	-0.060663
C	-0.6053519501	 0.1414303755	 3.5003138186	-0.219846
C	 0.9360096822	 0.0886349204	 3.7228301785	-0.050645
C	 0.8615459474	 1.6064182826	 4.0545163449	-0.226628
H	 3.1164562799	-1.3139583141	 2.2293919866	 0.104124
H	 3.6342129843	-2.2985484292	 0.8439531817	 0.121257
H	 3.7766539736	-0.536121949	 0.7720063985	 0.121265
H	 0.0284139845	-2.4717493144	 0.5853182714	 0.110168
H	 0.9200256922	-2.3194215236	 2.1770919789	 0.10623
H	 0.2097203399	 0.0523835315	 0.286726369	 0.089402
H	 2.0370253131	 1.0700956098	 2.032043064	 0.069782
H	-0.5893119955	 2.1721075777	 2.255170902	 0.068211
H	-1.2150712246	 0.3173765425	 4.3908218866	 0.087881
H	-1.0459284766	-0.6264035149	 2.8634629146	 0.102382
H	 1.4992301838	-0.6724057199	 4.2660345065	 0.067619
H	 1.7789669935	 2.1869810567	 3.9218423397	 0.08838
H	 0.3448618052	 1.8764069923	 4.9791155693	 0.089494
61.6642	145.239	174.8438	232.9843	277.1386	349.6368	418.6235	459.9434	565.2147	607.7258	746.2011	776.4099	802.3578	863.9933	878.9429	898.2874	901.3875	905.6585	959.3993	1011.4167	1025.2884	1028.3757	1037.217	1049.9766	1092.0163	1109.9771	1113.6263	1126.0954	1139.7958	1144.6041	1167.6411	1184.365	1197.3397	1208.774	1216.7034	1247.6994	1249.3756	1269.2653	1334.4369	1389.6437	1400.4023	1449.7847	1493.6367	1498.23	1499.9262	1511.2673	1537.2851	2979.86	3025.2187	3048.0396	3060.4572	3066.061	3085.3345	3089.5285	3092.9247	3097.7444	3098.3067	3114.1745	3132.3481	3169.0889
CN1CC1C1C2CC1C2	CN1C[C@H]1[C@H]1[C@H]2C[C@@H]1C2	
InChI=1S/C8H13N/c1-9-4-7(9)8-5-2-6(8)3-5/h5-8H,2-4H2,1H3	InChI=1S/C8H13N/c1-9-4-7(9)8-5-2-6(8)3-5/h5-8H,2-4H2,1H3/t5-,6+,7-,8-,9?/m0/s1
