16
gdb 103012	2.18311	1.43765	1.20355	2.8697	66.4	-0.2566	-0.004	0.2525	1094.6577	0.121844	-474.989126	-474.979779	-474.978835	-475.023095	33.628	
C	 0.1492490332	 1.1250926636	-0.3695329816	-0.268116
O	-0.0937550148	-0.1445120293	 0.2495521089	-0.299617
C	-1.3902763477	-0.6149017507	 0.103888903	 0.177414
C	-2.4040502693	 0.0331513745	 0.8972909236	 0.256675
N	-3.2328968891	 0.5609929621	 1.509053198	-0.342242
C	-1.7986787616	-1.2423905002	-1.2564421757	 0.034252
O	-0.8946824693	-1.1795431783	-2.296360942	-0.419278
C	-1.4450025647	-2.1296842215	-0.0947222417	-0.010314
O	-0.2115140626	-2.767987866	-0.2030911715	-0.432122
H	 1.2009142748	 1.3537244833	-0.1896491805	 0.138307
H	-0.0463375255	 1.0711360094	-1.4437629522	 0.15035
H	-0.4733358724	 1.9016958474	 0.0895138532	 0.139584
H	-2.8361034966	-1.1303905864	-1.5557301117	 0.131848
H	-0.2318674509	-1.8640936938	-2.1122148305	 0.297768
H	-2.2063242175	-2.7019114293	 0.4256847218	 0.132994
H	 0.4500336342	-2.1712211649	 0.1772918891	 0.312497
106.9684	127.9515	153.1345	174.565	180.0667	233.0431	297.8179	319.8576	347.4431	464.8507	472.5503	556.0361	578.2994	640.1436	672.853	734.8211	858.8316	871.5521	1000.6266	1074.7711	1084.3596	1113.6175	1162.969	1178.7106	1196.9332	1227.6376	1274.494	1329.1808	1367.2235	1386.2692	1442.617	1474.285	1489.536	1506.7215	2338.7198	3030.6985	3110.8719	3146.672	3161.608	3169.6742	3694.1371	3730.364
COC1(C#N)C(O)C1O	CO[C@@]1(C#N)[C@@H](O)[C@H]1O	
InChI=1S/C5H7NO3/c1-9-5(2-6)3(7)4(5)8/h3-4,7-8H,1H3	InChI=1S/C5H7NO3/c1-9-5(2-6)3(7)4(5)8/h3-4,7-8H,1H3/t3-,4+,5-
