23
gdb 107172	3.25344	1.1641	1.0716	0.2621	89.26	-0.1999	0.0815	0.2814	1285.074	0.205221	-351.083107	-351.073855	-351.072911	-351.117002	36.106	
C	 0.033336602	 1.6098945727	-0.1314417657	-0.373824
C	-0.047495773	 0.0819599286	-0.0061334359	-0.29008
C	 0.6730038054	-0.4872879666	 1.1883948999	 0.370987
C	 0.1639150189	-1.6643224974	 1.9715188406	-0.370634
C	 0.3632588727	-0.3402316145	 2.6733562507	-0.11053
C	 1.8374738168	 0.0539334474	 2.9551465006	-0.081475
C	 2.9035170244	-0.9277180362	 2.5402557276	-0.009847
C	 3.0163827724	-2.4316890164	 2.7943931335	-0.435497
C	 2.1672947437	-0.1400011854	 1.476777752	-0.144616
H	 1.0658502043	 1.9542326392	-0.246559725	 0.117438
H	-0.5292344242	 1.9592044439	-1.0029626581	 0.109295
H	-0.3817408391	 2.0977447492	 0.7566444637	 0.115766
H	-1.1012788965	-0.2187678591	 0.0465085971	 0.094154
H	 0.3526035378	-0.3786649075	-0.92138062	 0.095785
H	-0.8836438242	-1.8845587384	 1.7781164226	 0.103609
H	 0.7499108293	-2.5467432857	 2.1798271499	 0.109855
H	-0.4663108008	 0.1795757498	 3.1367882644	 0.082765
H	 2.0696991437	 0.9111949402	 3.5761592632	 0.081617
H	 3.8707406263	-0.4429537053	 2.6763418534	 0.088572
H	 2.8603134358	-3.0206263629	 1.88565237	 0.126716
H	 4.0212812066	-2.6653463632	 3.1599117278	 0.107943
H	 2.3120070207	-2.7805598345	 3.553466691	 0.131246
H	 2.709657857	 0.5387002821	 0.8291425766	 0.080756
74.2141	88.7889	160.8832	191.5785	230.7712	263.9336	313.5293	395.0068	424.1014	505.0698	552.2218	655.3223	686.247	704.6899	747.4746	809.1805	819.827	888.9161	896.1014	923.9725	945.9357	960.1829	992.3874	1020.3184	1023.8625	1050.4433	1066.9432	1079.2306	1088.838	1098.0246	1109.0924	1131.6964	1212.6481	1219.7203	1261.2566	1283.5338	1317.5793	1334.7567	1359.0272	1393.0858	1409.0006	1419.3583	1444.9032	1475.0595	1492.3365	1497.312	1503.4828	1506.2334	1515.9663	2999.6304	3035.4914	3038.2481	3044.3463	3087.8743	3103.5858	3105.5903	3106.0839	3115.7736	3126.903	3166.706	3176.4221	3185.6788	3245.3076
CCC12CC1C1C(C)C21	CC[C@]12C[C@H]1[C@H]1[C@@H](C)[C@@H]21	
InChI=1S/C9H14/c1-3-9-4-6(9)7-5(2)8(7)9/h5-8H,3-4H2,1-2H3	InChI=1S/C9H14/c1-3-9-4-6(9)7-5(2)8(7)9/h5-8H,3-4H2,1-2H3/t5-,6+,7-,8-,9+/m1/s1
