20
gdb 63018	2.23595	1.74126	1.39916	1.8202	77.75	-0.2275	-0.0236	0.2039	1041.4721	0.170348	-403.155806	-403.147125	-403.14618	-403.188665	33.7	
C	 0.1366078666	 1.5714242539	-0.0018323176	-0.423892
C	 0.0477092632	 0.0417477673	-0.0280138037	 0.165702
C	-1.4299877774	-0.4114872741	-0.0211432537	-0.433137
C	 0.7972786275	-0.6316151118	-1.1668055345	-0.043148
C	 2.2799388002	-0.5866114513	-1.170913184	-0.269201
N	 1.5984408368	-1.7958484297	-0.6869669063	-0.105276
C	 1.4911437339	-1.8258384097	 0.774557531	-0.274928
C	 0.7198659368	-0.5747908165	 1.2182607792	 0.354693
O	 0.6281785391	-0.1539233423	 2.3415467578	-0.32226
H	 1.1721897711	 1.9161478732	-0.0717182803	 0.116928
H	-0.4228918724	 2.0081679638	-0.8351347568	 0.113765
H	-0.2818099649	 1.9491031486	 0.9356274419	 0.136709
H	-1.9422502697	-0.0329369726	-0.9119335632	 0.121529
H	-1.5185881212	-1.5026388311	-0.0222299033	 0.12541
H	-1.9437485186	-0.0253213212	 0.8635033831	 0.135202
H	 0.2664471842	-0.7898902641	-2.10205857	 0.091613
H	 2.8256467168	-0.7109339303	-2.1014724877	 0.122811
H	 2.780039713	 0.0498245846	-0.4410734156	 0.114654
H	 0.9278425649	-2.7159723886	 1.0826031018	 0.136324
H	 2.47032491	-1.8761021682	 1.2598349519	 0.136501
83.5299	195.238	198.3563	211.2024	249.4082	291.8904	323.001	378.8854	461.6674	483.025	557.7352	593.6674	662.033	692.4934	775.3961	831.5649	856.2734	945.1283	958.2053	962.9913	1009.5683	1020.4288	1055.2561	1089.9963	1093.6489	1117.4583	1152.5721	1185.4206	1218.5706	1242.8152	1261.9082	1277.9251	1298.3936	1381.586	1392.497	1420.176	1459.6854	1482.8945	1485.9345	1501.0854	1507.9477	1508.6509	1845.7476	3032.001	3033.2737	3038.3747	3088.7274	3092.5683	3102.2191	3108.824	3116.0551	3119.571	3136.9946	3183.7715
CC1(C)C2CN2CC1=O	CC1(C)[C@H]2CN2CC1=O	
InChI=1S/C7H11NO/c1-7(2)5-3-8(5)4-6(7)9/h5H,3-4H2,1-2H3	InChI=1S/C7H11NO/c1-7(2)5-3-8(5)4-6(7)9/h5H,3-4H2,1-2H3/t5-,8?/m1/s1
