21
gdb 93715	2.92997	1.06848	1.02485	4.7201	82.64	-0.2574	0.0331	0.2905	1300.1248	0.183705	-383.299595	-383.290253	-383.289309	-383.334011	35.631	
C	-0.1025959036	 1.5590573762	-0.0091228762	-0.411094
C	 0.0555804479	 0.0397321055	-0.0139332617	 0.055032
C	 0.8834384832	-0.5255188529	-1.1818054239	-0.223527
C	 1.1893004513	-1.9551818522	-0.7256777917	-0.248205
C	 1.5629229635	-1.7943072917	 0.7857297911	 0.128098
N	 2.9959326463	-1.5788647537	 1.0484691096	-0.538763
C	 0.7662328759	-0.5203682804	 1.2405685683	-0.252909
C	 1.1560950074	-2.9902922138	 1.5397833595	 0.282456
N	 0.8199378036	-3.941646747	 2.1034028169	-0.349
H	 0.8740573113	 2.0550972501	 0.0371787941	 0.112443
H	-0.6121696305	 1.907266853	-0.9135606176	 0.117036
H	-0.6877692026	 1.896898011	 0.8524419857	 0.12055
H	-0.9432280057	-0.4133224369	-0.0725819551	 0.081615
H	 0.3578567893	-0.4862841207	-2.1399155806	 0.103786
H	 1.8113739196	 0.0515797079	-1.2995733864	 0.090953
H	 0.289763644	-2.5726076439	-0.8241302172	 0.120046
H	 1.992040694	-2.4510971128	-1.2781535467	 0.100628
H	 3.5340131125	-2.3701184421	 0.7043178328	 0.236749
H	 3.3075313426	-0.7633367701	 0.5280681431	 0.231518
H	 1.4914685219	 0.196917529	 1.638057437	 0.115037
H	 0.0691792482	-0.7444039344	 2.0499881989	 0.127552
30.9828	150.0903	176.0968	207.4288	236.2455	280.0168	299.9738	389.6191	407.7663	410.8395	478.5848	546.2355	571.8958	613.5498	735.5271	813.9184	844.3158	866.6352	911.406	928.1795	951.7601	986.1869	1003.5326	1036.6707	1053.2447	1079.801	1122.1717	1160.2653	1205.5322	1242.369	1267.7838	1292.738	1310.034	1323.5222	1350.4747	1369.0516	1384.293	1411.2322	1486.9039	1489.7672	1495.7702	1497.8434	1503.5797	1652.4106	2356.6233	3006.6918	3018.5859	3026.8549	3047.501	3059.8141	3089.4176	3093.9771	3100.1851	3100.7454	3116.4993	3478.8022	3565.0685
CC1CCC(N)(C1)C#N	C[C@H]1CC[C@@](N)(C1)C#N	
InChI=1S/C7H12N2/c1-6-2-3-7(9,4-6)5-8/h6H,2-4,9H2,1H3	InChI=1S/C7H12N2/c1-6-2-3-7(9,4-6)5-8/h6H,2-4,9H2,1H3/t6-,7+/m0/s1
