12
gdb 130752	3.46302	1.79232	1.18995	5.6515	61.19	-0.2867	-0.0583	0.2284	917.7609	0.080441	-468.828507	-468.822396	-468.821452	-468.859293	22.678	
O	 0.0125047262	-0.0389753588	 0.0023144723	-0.329011
C	 0.0050003876	 1.1456350919	 0.0090819725	 0.553119
O	-1.0993951276	 1.9412704678	 0.0293299569	-0.253959
C	-0.7608694687	 3.350444521	 0.0319494422	-0.202147
C	 0.7321587844	 3.3436800572	 0.0101135032	 0.3187
C	 1.9134763455	 4.0305050652	-0.0035631167	-0.211494
N	 2.9320049609	 3.1030901047	-0.023130342	-0.162264
N	 2.453223012	 1.8969238927	-0.0231808445	-0.125944
N	 1.1065039847	 2.04309722	-0.0023386358	-0.063615
H	-1.2126805089	 3.8139925735	-0.8497539983	 0.165347
H	-1.186700842	 3.8044434234	 0.9313737677	 0.165339
H	 2.1176990361	 5.0877193114	-0.0008908674	 0.145929
151.9088	189.6086	253.3365	314.0163	570.8367	630.6552	649.1223	683.0985	701.9986	761.6768	791.3158	844.6341	999.4579	1021.4302	1029.9117	1079.8008	1102.5911	1139.4321	1197.8829	1240.8951	1277.3582	1336.0556	1384.5522	1459.1079	1503.141	1601.8201	1941.7097	3061.1017	3103.8878	3287.1814
O=C1OCC2=CN=NN12	O=C1OCc2cnnn12	
InChI=1S/C4H3N3O2/c8-4-7-3(2-9-4)1-5-6-7/h1H,2H2	InChI=1S/C4H3N3O2/c8-4-7-3(2-9-4)1-5-6-7/h1H,2H2
