12
gdb 129454	4.53572	1.11582	0.89552	4.287	57.82	-0.27	-0.0649	0.2051	1165.7473	0.07825	-505.998929	-505.991289	-505.990345	-506.03155	27.575	
N	-0.0124331234	 1.3207650762	 0.0058119586	-0.531641
C	 0.0464654852	-0.0275534526	 0.0010135583	 0.362299
O	 1.0582692106	-0.7033529573	-0.009689095	-0.365265
C	-1.2871038475	-0.7039114279	 0.0101542583	 0.352869
N	-2.4382352385	-0.1176132451	 0.0216346552	-0.188505
O	-3.3815624048	-1.1598258181	 0.0263777476	-0.231892
C	-2.7387015683	-2.3888311194	 0.0171060204	 0.52349
O	-3.284813078	-3.4498095266	 0.0184115405	-0.376401
N	-1.39274465	-2.0605860375	 0.0067910357	-0.422044
H	 0.8457343965	 1.8463139507	-0.0000393308	 0.27969
H	-0.898992538	 1.7988981719	 0.0145556836	 0.292143
H	-0.6186988939	-2.7044384944	-0.0017376322	 0.305256
77.386	136.5116	163.7068	288.8701	312.7817	365.0973	447.3788	540.92	563.4049	566.2722	653.525	653.5708	751.7594	760.0905	806.7669	921.4687	945.4341	1024.4903	1100.0911	1160.3292	1233.3544	1368.0669	1522.7887	1618.1499	1637.4729	1801.8742	1921.7484	3595.6305	3674.9487	3733.8315
NC(=O)C1=NOC(=O)N1	NC(=O)c1noc(=O)[nH]1	
InChI=1S/C3H3N3O3/c4-1(7)2-5-3(8)9-6-2/h(H2,4,7)(H,5,6,8)	InChI=1S/C3H3N3O3/c4-1(7)2-5-3(8)9-6-2/h(H2,4,7)(H,5,6,8)
