21
gdb 57660	2.98256	0.99449	0.9137	4.3676	79.82	-0.2646	0.0136	0.2782	1380.74	0.1796	-424.239996	-424.229916	-424.228972	-424.275157	37.117	
C	 0.1291965122	 1.4359178383	 0.0505955632	-0.413401
C	 0.0199623283	-0.0936286785	 0.1177464181	 0.319952
C	 0.6659023481	-0.6547442632	 1.3879891822	-0.437526
O	-1.3929432115	-0.4964362132	 0.0678582289	-0.228487
C	-2.2525274816	-0.0998925492	 1.0158163952	 0.165765
O	-3.410492819	-0.4053069995	 0.9991222012	-0.285242
C	 0.5702557402	-0.6874005304	-1.171737776	 0.029993
C	 2.042820372	-0.8854905515	-1.4250129263	-0.2831
C	 1.1295364615	-2.0791696518	-1.2911084053	-0.280655
H	 1.1804092665	 1.7235747908	-0.0392869888	 0.130047
H	-0.4066501803	 1.8168218244	-0.8232078098	 0.132564
H	-0.2754002034	 1.9201709115	 0.9435541634	 0.117369
H	 0.2910952596	-0.1457457854	 2.2797274304	 0.123185
H	 0.4561933807	-1.7216925171	 1.4914093272	 0.140369
H	 1.7493314	-0.5102787816	 1.3668430046	 0.129726
H	-1.8024466411	 0.5265360829	 1.8059720089	 0.073653
H	-0.0057873051	-0.3478843095	-2.0277830778	 0.098231
H	 2.4264975762	-0.6265298513	-2.4054726079	 0.117264
H	 2.7428379676	-0.6963414077	-0.6182394914	 0.113687
H	 1.2229824518	-2.6828434535	-0.3960990243	 0.116705
H	 0.8799722671	-2.6471184646	-2.1799752258	 0.119902
54.2255	97.4096	135.0403	153.7964	236.4656	244.7283	266.2339	290.5052	342.818	357.2373	402.7198	443.5243	517.7705	608.6908	730.5857	786.1481	835.1906	873.2338	926.8265	939.5736	945.6847	978.6461	1018.482	1049.8976	1062.472	1084.2054	1094.5616	1143.4178	1163.3443	1182.5862	1196.558	1218.1068	1235.4634	1303.7802	1396.6901	1400.1322	1421.7168	1436.0046	1467.4184	1482.207	1490.0302	1503.1255	1509.74	1512.4206	1849.1115	2976.8407	3045.3004	3054.7294	3116.7333	3122.3689	3124.0161	3132.4729	3136.5743	3144.9239	3149.77	3212.4404	3230.5031
CC(C)(OC=O)C1CC1	CC(C)(OC=O)C1CC1	
InChI=1S/C7H12O2/c1-7(2,9-5-8)6-3-4-6/h5-6H,3-4H2,1-2H3	InChI=1S/C7H12O2/c1-7(2,9-5-8)6-3-4-6/h5-6H,3-4H2,1-2H3
