20
gdb 78256	2.15829	1.5666	1.13315	3.9482	81.04	-0.2319	0.025	0.2569	1166.38	0.170058	-403.144116	-403.134989	-403.134045	-403.178152	33.805	
C	 0.2656052374	 1.6071144618	 0.0551380873	-0.432496
C	 0.1802569691	 0.1006419202	-0.0451256442	-0.022177
C	 0.6442322713	-0.7282661497	-1.2224267391	-0.118203
C	 1.3432331928	-0.8443560033	 0.1316103498	-0.051806
N	 2.5603915331	-0.3172197484	-0.4661997983	-0.038956
C	 3.5816503583	 0.3948662877	 0.0720874028	 0.127853
O	 4.3681653961	 1.063660306	-0.5675205328	-0.336616
C	 1.9712341227	-0.2111049069	-1.8190474662	 0.033429
C	 2.6281217466	-1.1223183916	-2.8444397343	-0.404303
H	 1.2133690903	 1.9944063634	-0.326655348	 0.144303
H	-0.5415704344	 2.0800514228	-0.5140582076	 0.123535
H	 0.1728771067	 1.9295428147	 1.0975708926	 0.122159
H	-0.726936362	-0.3184853711	 0.3886588267	 0.095302
H	 0.0127695847	-1.4574374323	-1.7125847254	 0.098781
H	 1.3745236947	-1.6617638227	 0.8425086106	 0.108309
H	 3.6414897491	 0.2634835048	 1.1729188278	 0.068051
H	 1.9565586297	 0.8211246836	-2.1861472916	 0.099448
H	 2.6517524183	-2.1573886047	-2.4902280389	 0.119538
H	 2.07300735	-1.0898108151	-3.7881347146	 0.11717
H	 3.6532224354	-0.7938725292	-3.0333466864	 0.14668
55.2085	148.6129	157.1598	174.3397	229.2193	255.9386	265.2821	312.3815	379.5558	520.6911	546.1897	619.1024	721.5475	762.7453	804.9037	834.7653	873.1504	915.0773	985.3102	1011.9978	1032.8719	1046.4392	1070.9325	1081.555	1100.0577	1124.4202	1152.6682	1185.2874	1201.4424	1244.6626	1302.1505	1314.1721	1371.1968	1394.5297	1403.6978	1414.7344	1433.9172	1438.0834	1487.7548	1494.1767	1497.7076	1500.7337	1784.8175	2914.582	3037.7559	3037.9085	3046.7059	3097.3184	3109.2077	3113.767	3127.5166	3129.53	3177.6902	3203.7479
CC1C2C1N(C=O)C2C	C[C@H]1[C@@H]2[C@H]1N(C=O)[C@H]2C	
InChI=1S/C7H11NO/c1-4-6-5(2)8(3-9)7(4)6/h3-7H,1-2H3	InChI=1S/C7H11NO/c1-4-6-5(2)8(3-9)7(4)6/h3-7H,1-2H3/t4-,5-,6-,7-/m0/s1
