17
gdb 55999	2.82253	1.57375	1.32423	2.6084	67.55	-0.2403	0.0124	0.2527	1001.9575	0.137329	-455.168287	-455.160569	-455.159624	-455.200578	29.837	
O	-0.9927486219	 0.1523762213	 0.8131748933	-0.255735
C	-0.4239323031	 1.224813344	 0.2026464483	 0.39121
O	 0.7580307381	 1.3897686148	 0.1233379547	-0.331727
C	-1.5514049147	 2.1307485473	-0.3126028685	-0.344284
N	-2.7759543354	 1.3835153954	-0.0884329994	-0.11343
C	-3.1729736515	 0.4110560893	-1.1517959579	-0.175513
C	-3.1048152625	-0.7495093122	-0.1262412379	-0.273805
C	-2.4546086723	 0.2701408009	 0.82472875	 0.380406
N	-2.9719878654	 0.372379225	 2.1434071821	-0.525274
H	-2.6868621313	-0.4325779623	 2.6942063905	 0.242436
H	-2.6140949978	 1.2035138383	 2.6065070456	 0.236066
H	-1.5289200029	 3.0784868684	 0.2386493031	 0.140556
H	-1.3966647973	 2.364167327	-1.3690590703	 0.144401
H	-4.1512749662	 0.6292080851	-1.5861129381	 0.119987
H	-2.4348187838	 0.3242472867	-1.9588581652	 0.109003
H	-4.0748077638	-1.0918164533	 0.2329595812	 0.129116
H	-2.4745299583	-1.5962550358	-0.3942435816	 0.126587
103.2667	111.6483	180.5796	316.5483	343.5121	399.8669	422.6024	523.692	548.8096	612.0744	650.0366	701.4248	773.5043	807.3693	829.5892	856.3079	904.9206	950.0008	961.9671	997.2305	1055.0802	1075.1674	1130.6132	1197.406	1208.7269	1218.6762	1240.3459	1249.9235	1294.236	1307.6765	1333.7681	1370.924	1473.4019	1478.2903	1521.988	1648.0751	1882.2306	3025.1804	3040.8207	3095.2657	3102.2676	3103.6949	3166.1902	3490.7695	3574.9481
[O-]C(=O)CN1CCC1=[NH2+]	O1C(=O)CN2CC[C@@]12N	
InChI=1S/C5H8N2O2/c6-4-1-2-7(4)3-5(8)9/h6H,1-3H2,(H,8,9)	InChI=1S/C5H8N2O2/c6-5-1-2-7(5)3-4(8)9-5/h1-3,6H2/t5-/m0/s1
