13
gdb 21243	3.53457	1.93783	1.27026	2.7384	58.38	-0.2333	-0.0216	0.2116	896.9788	0.093998	-431.87769	-431.869661	-431.868717	-431.910353	27.448	
C	-0.042679384	 1.4652732849	-0.0701823574	-0.252014
O	-0.0358235726	 0.030179622	-0.0418511703	-0.246738
C	 0.5845658359	-0.5836179306	-1.0335788996	 0.516636
C	 0.7233184505	-1.9474838033	-1.2215154134	 0.045724
N	 0.240886147	-2.9805501779	-0.4086745861	-0.591145
N	 1.4403489685	-2.0776028549	-2.383794604	-0.106156
N	 1.7486584822	-1.0014863734	-2.9144094906	-0.049847
O	 1.1632919247	 0.0919011336	-1.9928286749	-0.261147
H	 0.9772879707	 1.8575296813	-0.0362669477	 0.149246
H	-0.542285556	 1.8318162384	-0.9709533151	 0.149245
H	-0.5944971045	 1.7693946893	 0.8185737433	 0.148215
H	 0.9855040908	-3.5596757424	-0.0367010421	 0.248992
H	-0.4121963531	-3.5835347171	-0.8966257918	 0.24899
94.548	137.2941	150.9056	157.1675	254.1726	328.0878	332.2364	334.0334	571.9325	638.9899	674.0135	743.9862	769.7252	807.2443	950.3598	1034.2248	1176.6348	1188.9649	1225.3216	1231.3441	1298.0769	1425.0575	1486.8767	1496.2662	1500.0462	1504.9816	1639.756	1680.7469	3048.2452	3124.1302	3165.151	3510.6346	3579.0613
COC1=C(N)N=NO1	COc1c(N)nno1	
InChI=1S/C3H5N3O2/c1-7-3-2(4)5-6-8-3/h4H2,1H3	InChI=1S/C3H5N3O2/c1-7-3-2(4)5-6-8-3/h4H2,1H3
