21
gdb 73087	2.37646	1.72948	1.3064	2.0307	82.71	-0.2397	0.0126	0.2523	1070.2799	0.184194	-387.09144	-387.083357	-387.082413	-387.123764	32.202	
C	-0.0496954368	 1.5238088286	-0.0334665023	-0.476593
C	-0.0367674124	 0.0003400433	-0.0306119739	 0.272527
C	-1.2790730526	-0.7145069855	 0.555702186	-0.123432
O	-0.4627102048	-1.5276870664	 1.4228170338	-0.305915
C	 0.6966253854	-0.6898969755	 1.1507531573	 0.088771
C	 1.9632338208	-1.4237413119	 0.8591238133	-0.082116
C	 2.5614839709	-1.3484827144	-0.3299371394	-0.051176
C	 1.9499429562	-0.6264179052	-1.5041502049	-0.267067
C	 0.4182867519	-0.5856368373	-1.3779798118	-0.259066
H	 0.9320403907	 1.9316382069	-0.2996471896	 0.120261
H	-0.7732890233	 1.9067320785	-0.7623675587	 0.116131
H	-0.3188019129	 1.9237834595	 0.9496109882	 0.11598
H	-1.9459838186	-0.0524078269	 1.1270866083	 0.087649
H	-1.8801010352	-1.3204624002	-0.132608817	 0.098681
H	 0.8547008332	-0.0013172556	 1.9969820996	 0.067427
H	 2.4102299301	-1.9835213148	 1.6768299982	 0.093185
H	 3.5204885354	-1.8371180939	-0.4851272298	 0.090773
H	 2.3636258193	 0.3893305569	-1.5873321476	 0.111096
H	 2.2314581924	-1.1319412992	-2.4350364877	 0.104233
H	 0.05263905	-1.6149077433	-1.4619128996	 0.108819
H	-0.0240265397	-0.0173647439	-2.2045100723	 0.089833
88.9598	187.6407	206.9689	246.3484	314.6952	349.8855	375.235	461.7983	484.3535	511.3933	641.2385	726.6764	746.9986	798.2462	865.1922	886.9696	932.6759	971.2493	983.3682	992.5385	1000.8191	1006.2422	1020.4153	1030.5085	1083.3268	1147.1728	1150.5344	1163.8073	1186.7423	1246.0342	1266.7089	1279.2526	1294.7064	1350.2236	1357.6069	1373.1268	1400.8494	1411.2957	1420.7167	1476.3786	1487.0452	1496.1848	1498.333	1524.475	1713.8268	2960.8861	2992.0095	3003.9564	3024.0164	3030.4662	3050.7729	3054.2738	3075.8134	3088.9704	3096.4713	3146.049	3169.4437
CC12COC1C=CCC2	C[C@]12CO[C@H]1C=CCC2	
InChI=1S/C8H12O/c1-8-5-3-2-4-7(8)9-6-8/h2,4,7H,3,5-6H2,1H3	InChI=1S/C8H12O/c1-8-5-3-2-4-7(8)9-6-8/h2,4,7H,3,5-6H2,1H3/t7-,8-/m0/s1
