18
gdb 105500	2.09624	1.75138	1.1642	2.0735	67.94	-0.2386	0.02	0.2586	1089.379	0.146584	-476.214427	-476.20527	-476.204326	-476.248275	33.691	
C	 0.7088654047	-0.0707920986	-1.2774934272	-0.266373
O	 0.0196214555	 0.0362474666	-0.0376544975	-0.28074
C	 0.5813217208	-0.6553482069	 1.0237551515	 0.265427
C	-0.3963048026	-0.8520462343	 2.2063334961	-0.130058
O	 0.0042705266	-2.2389816429	 2.3319538259	-0.284015
C	 0.5658750475	-2.2146891168	 0.9962659625	-0.14626
C	 1.9346826581	-0.0677539592	 1.4901334647	 0.349053
N	 2.5136203	-0.7428359323	 2.5246199295	-0.527973
O	 2.4325347575	 0.91233537	 0.9739675603	-0.37106
H	 0.7973797837	-1.120765575	-1.5944246509	 0.100928
H	 0.1011910913	 0.462110003	-2.0115598462	 0.13045
H	 1.7014623149	 0.3825509242	-1.2227308683	 0.149926
H	-0.2272314396	-0.2853751809	 3.1255193234	 0.119219
H	-1.4376555245	-0.7524135645	 1.8782201765	 0.12229
H	-0.1430233389	-2.601519548	 0.2532288549	 0.11527
H	 1.5145812894	-2.7541783649	 0.9380797992	 0.118341
H	 2.0228867158	-1.4815587508	 3.0049509896	 0.273377
H	 3.3510601497	-0.3553208986	 2.9276964262	 0.262197
69.5722	132.1467	170.8988	188.9285	226.5346	262.4178	296.4025	371.9903	385.5889	437.6533	463.7739	518.5334	633.0986	687.0781	753.6114	771.2903	893.0707	963.637	983.1753	1001.546	1067.7017	1072.2193	1110.018	1147.1856	1166.8335	1178.8083	1202.7302	1227.5413	1264.1881	1291.9883	1331.2027	1386.6186	1474.3218	1486.1864	1497.4702	1516.2677	1524.3117	1612.2659	1799.3259	2994.0561	3022.0273	3036.3887	3096.4573	3101.4709	3104.8457	3138.7443	3569.4697	3711.4349
COC1(COC1)C(N)=O	COC1(COC1)C(=O)N	
InChI=1S/C5H9NO3/c1-8-5(4(6)7)2-9-3-5/h2-3H2,1H3,(H2,6,7)	InChI=1S/C5H9NO3/c1-8-5(4(6)7)2-9-3-5/h2-3H2,1H3,(H2,6,7)
