23
gdb 114536	3.493	1.14212	1.03173	1.0574	85.31	-0.2432	0.0793	0.3225	1277.2016	0.208274	-388.281413	-388.273049	-388.272104	-388.314378	33.215	
C	 0.163278805	 1.2840791551	-0.1967200251	-0.239995
O	 0.0184449568	-0.0772619931	 0.1310905953	-0.249207
C	-1.3217356448	-0.5429251612	 0.1177333272	 0.150601
C	-1.9176559244	-0.643396345	-1.3113915782	-0.232698
C	-2.9942326589	-1.7389439945	-1.3899581146	-0.010299
C	-3.7329698059	-1.8952881077	-0.0253574693	-0.230357
C	-2.5172577761	-2.7700546325	 0.4091912965	-0.010889
C	-2.346544851	-3.1186991646	-1.094328181	-0.20982
C	-1.3423095246	-1.8916411678	 0.8644204075	-0.229922
H	 1.2180109087	 1.5385633565	-0.0632920389	 0.123978
H	-0.1177422929	 1.5012423214	-1.2378362973	 0.105288
H	-0.4413772724	 1.9279722578	 0.4625639234	 0.099714
H	-1.9394619868	 0.1717594546	 0.6853719333	 0.064536
H	-2.3359358032	 0.3254775992	-1.6072434518	 0.08903
H	-1.1081870993	-0.8722604223	-2.0157411512	 0.103071
H	-3.6002924032	-1.6402009787	-2.2939968069	 0.056934
H	-3.9760082189	-0.9993637656	 0.5531700284	 0.088749
H	-4.6362957093	-2.5013423374	-0.1343623874	 0.093781
H	-2.6978635406	-3.5901630001	 1.1083265238	 0.058127
H	-2.9966503005	-3.9448307255	-1.3963425171	 0.089921
H	-1.3330463141	-3.2992318255	-1.4665443722	 0.087908
H	-0.3946022235	-2.4080184778	 0.6732128477	 0.10829
H	-1.3857378	-1.7008675552	 1.9422597079	 0.093258
80.4176	110.9459	199.9746	250.0372	290.8549	354.1433	400.4052	438.9969	468.301	480.1967	565.5396	774.8405	824.8167	825.4447	857.861	872.6512	915.541	930.472	933.6957	981.4722	993.1204	1055.5769	1058.5485	1088.1411	1102.0832	1114.9309	1125.3232	1149.7665	1177.2143	1183.8531	1210.0912	1220.2659	1250.3435	1256.899	1263.3373	1306.7279	1315.0384	1326.9698	1346.5525	1366.8391	1386.4691	1409.4802	1478.0857	1482.0789	1487.6843	1492.2315	1498.3144	1511.205	1517.5092	2954.959	2970.5893	3017.9104	3025.2744	3034.8351	3040.6383	3050.826	3063.5505	3070.9433	3073.4872	3077.5701	3098.0466	3104.4192	3107.5332
COC1CC2CC(C2)C1	CO[C@H]1C[C@@H]2C[C@@H](C2)C1	
InChI=1S/C8H14O/c1-9-8-4-6-2-7(3-6)5-8/h6-8H,2-5H2,1H3	InChI=1S/C8H14O/c1-9-8-4-6-2-7(3-6)5-8/h6-8H,2-5H2,1H3/t6-,7+,8-
