18
gdb 50865	3.33216	0.80652	0.7147	3.6616	75.	-0.2456	-0.036	0.2096	1581.5353	0.144529	-439.070277	-439.060694	-439.05975	-439.107085	32.934	
O	 0.8285148487	 0.0211406778	-0.0519390597	-0.235179
C	 0.4310047106	 1.1551795045	-0.0829542037	 0.158735
C	 0.8280860412	 2.1596180578	-1.1559164049	-0.371599
C	 1.0638225163	 3.5417353245	-0.5548739829	 0.361423
O	 0.2750872506	 4.0310494668	 0.2200377377	-0.303265
C	 2.3624947594	 4.2554756984	-0.9259339213	-0.254424
N	 2.6905323188	 4.0920551706	-2.3336761521	-0.06711
C	 2.2084952428	 5.1361689016	-3.2374268069	-0.224353
C	 3.6522922115	 5.0391069141	-2.8873062814	-0.217515
H	-0.2670829937	 1.5595009015	 0.6785984221	 0.107484
H	 1.6747239733	 1.7955762114	-1.7374877274	 0.149008
H	-0.0339077044	 2.2555060133	-1.8317847965	 0.157592
H	 2.2717123533	 5.3038327536	-0.6007302688	 0.112531
H	 3.1637867335	 3.7906516796	-0.3322922296	 0.133921
H	 1.8516636327	 4.7939122376	-4.2041047014	 0.125294
H	 1.6456687738	 5.9622938254	-2.8064723356	 0.123007
H	 4.0551233896	 5.8025477108	-2.2242882338	 0.117733
H	 4.3656714323	 4.6248721007	-3.5935231538	 0.126717
32.2835	41.0314	84.8629	99.4503	138.6227	234.2626	312.5461	382.8523	422.7562	466.5798	514.4652	663.1742	722.4127	783.1316	839.5875	861.6555	899.8676	916.7198	1027.144	1034.4851	1054.4741	1076.7861	1109.9882	1124.762	1132.4944	1171.4686	1190.3526	1198.9153	1254.5281	1304.5508	1324.7491	1352.8636	1406.3528	1443.2527	1465.28	1492.3695	1520.4957	1799.6423	1839.6605	2929.5473	2978.8831	3027.0436	3030.1331	3099.8788	3104.1576	3146.5165	3184.9386	3198.9465
O=CCC(=O)CN1CC1	O=CCC(=O)CN1CC1	
InChI=1S/C6H9NO2/c8-4-1-6(9)5-7-2-3-7/h4H,1-3,5H2	InChI=1S/C6H9NO2/c8-4-1-6(9)5-7-2-3-7/h4H,1-3,5H2
