18
gdb 91443	2.70853	1.65098	1.23265	1.844	72.01	-0.2189	-0.0408	0.1782	1025.6079	0.147866	-439.036525	-439.028605	-439.027661	-439.069229	30.128	
O	 0.2098369596	 1.2963977121	-0.3397045273	-0.440713
C	 0.0476416394	-0.0790621491	-0.1049054463	 0.102878
C	 0.2282225447	-0.4040311788	 1.3973818687	-0.18462
N	-1.2273790472	-0.7177135717	 1.5619736067	-0.129239
C	-2.0739157832	 0.5093804749	 1.7369696062	-0.205984
C	-2.5810279266	 0.3671043499	 0.2621823615	-0.083953
C	-2.8184473514	 1.5835686013	-0.5765301415	 0.14423
O	-2.2004701675	 1.9042126306	-1.5664724383	-0.269368
C	-1.4146889094	-0.6144532471	 0.0572531027	-0.049187
H	-0.3126115455	 1.5275139153	-1.1212676938	 0.298878
H	 0.6544549951	-0.6814705921	-0.7961476606	 0.06979
H	 0.8353233886	-1.2915004337	 1.5981581868	 0.108349
H	 0.5934035965	 0.4313083183	 2.0013137053	 0.116346
H	-2.8296734302	 0.4123714349	 2.5202538588	 0.112251
H	-1.490046585	 1.4211571748	 1.9011017127	 0.12375
H	-3.5301593681	-0.1849958596	 0.2740306388	 0.115727
H	-3.6692804051	 2.2103922512	-0.226871303	 0.09365
H	-1.6290145446	-1.5399885712	-0.4843526274	 0.077215
88.5449	97.6958	201.7454	214.2734	311.2252	354.641	427.699	474.2302	573.4474	604.5677	719.9786	758.8299	793.0948	847.6721	871.9513	885.5745	949.6551	981.4359	996.9065	1020.1657	1033.84	1051.5102	1139.6512	1166.6679	1169.7568	1199.752	1220.5684	1232.2258	1241.0628	1291.3238	1306.1262	1327.3307	1349.4379	1370.4803	1425.5455	1430.4621	1481.2669	1501.3391	1801.2916	2884.2605	2989.7061	3026.6405	3041.6667	3050.7538	3067.3649	3099.7341	3109.001	3723.5941
OC1CN2CC(C=O)C12	O[C@H]1CN2C[C@@H](C=O)[C@@H]12	
InChI=1S/C6H9NO2/c8-3-4-1-7-2-5(9)6(4)7/h3-6,9H,1-2H2	InChI=1S/C6H9NO2/c8-3-4-1-7-2-5(9)6(4)7/h3-6,9H,1-2H2/t4-,5-,6-/m0/s1
