19
gdb 69432	2.85446	1.28928	1.21558	1.7348	80.61	-0.2537	0.0377	0.2914	1136.9307	0.15867	-385.850949	-385.842446	-385.841502	-385.883774	33.131	
C	 0.2169568861	 1.4870290636	 0.1369791644	-0.491082
C	 0.1355566995	-0.0163012854	 0.0521379382	 0.337087
C	-0.9768180539	-0.789459342	 0.7188798737	-0.351749
C	 0.4421647807	-0.9426107753	 1.2072625938	-0.086292
C	 1.2137975191	-2.1177168804	 0.6131361857	-0.097192
O	 0.9181398178	-2.0764869466	-0.788296294	-0.255901
C	 0.7316715939	-0.7118907272	-1.1628767831	-0.143681
C	 2.6530008075	-2.0105151877	 0.8813838534	 0.337879
C	 3.8311453956	-1.914652951	 1.0998904428	-0.46089
H	 1.2503634254	 1.8354012402	 0.0277790637	 0.123082
H	-0.3803592014	 1.9633008523	-0.6493690191	 0.121042
H	-0.1587805173	 1.8488905645	 1.0987510216	 0.119645
H	-1.6557812801	-0.2306163468	 1.3540018896	 0.10927
H	-1.4293719728	-1.6196160549	 0.1850769588	 0.121921
H	 0.7358151316	-0.5713939234	 2.1812609214	 0.100096
H	 0.8505127644	-3.0898240591	 0.9671460313	 0.112156
H	 0.0836618725	-0.7110601425	-2.0457669093	 0.108218
H	 1.690039254	-0.2399349612	-1.4311093112	 0.098401
H	 4.8735903875	-1.841724657	 1.2896862882	 0.197989
88.5316	138.7263	205.6123	232.9483	275.6671	309.2956	375.2533	399.0605	466.931	542.8474	580.2059	625.0953	666.1257	737.4936	754.0007	827.2666	884.0691	920.3527	933.3563	957.2039	981.8164	1024.9443	1040.4429	1060.1266	1071.0355	1089.4958	1120.4498	1147.8261	1233.4859	1264.5563	1278.6019	1309.4573	1345.5161	1359.334	1412.9061	1425.8853	1484.4049	1490.7483	1501.8875	1516.2599	2231.715	2983.5554	3025.078	3038.9507	3068.7985	3083.7488	3102.7286	3125.4198	3191.7204	3214.7263	3502.3925
CC12CC1C(OC2)C#C	C[C@]12C[C@H]1[C@@H](OC2)C#C	
InChI=1S/C8H10O/c1-3-7-6-4-8(6,2)5-9-7/h1,6-7H,4-5H2,2H3	InChI=1S/C8H10O/c1-3-7-6-4-8(6,2)5-9-7/h1,6-7H,4-5H2,2H3/t6-,7-,8+/m0/s1
