19
gdb 64514	3.52004	1.23233	1.12918	1.7173	75.08	-0.2477	0.0641	0.3117	1146.581	0.158762	-422.964188	-422.955925	-422.954981	-422.996958	32.014	
O	-0.4923451516	 1.4981429674	-0.0672775859	-0.465626
C	-0.1256798431	 0.1424157177	 0.0046046694	 0.37006
C	 1.0597902616	-0.1572227207	-0.8710182103	 0.00313
C	 2.4371953952	-0.1625634252	-0.3535261739	-0.185994
O	 1.7570507587	-1.3825332357	-0.6590071902	-0.226506
C	-0.2872531365	-0.6672269864	 1.2598573519	-0.133584
C	-1.4752390631	-0.1459492483	 2.0785347336	-0.239313
C	-2.4132419927	-0.3698969789	 0.8486885819	-0.234737
C	-1.214767178	-0.8789671959	 0.0387438876	-0.099648
H	 0.180939453	 2.0117218809	 0.3934231636	 0.281377
H	 0.9138910421	 0.1057660522	-1.919912709	 0.100994
H	 3.2649718011	 0.0866982911	-1.0153386034	 0.119112
H	 2.612604081	 0.0149146708	 0.7066122362	 0.112713
H	 0.504517121	-1.3135007881	 1.6183607821	 0.09761
H	-1.7241621329	-0.7991259219	 2.9170359659	 0.102803
H	-1.389864137	 0.8813646872	 2.4441229162	 0.091838
H	-3.1516799691	-1.1528503223	 1.0327033418	 0.101599
H	-2.9177092685	 0.5123909851	 0.4485649786	 0.110482
H	-1.2278137311	-1.7016715288	-0.6669940161	 0.093689
83.3732	159.3301	178.7623	229.2372	269.2295	307.0263	339.9642	448.2539	512.8308	581.4087	642.9106	751.6135	783.8083	829.5862	870.6755	880.6243	907.4675	942.0692	977.6493	991.3546	997.2457	1017.7232	1041.2131	1094.7853	1107.0771	1115.1633	1152.7446	1172.5181	1197.5061	1226.4224	1237.1467	1255.299	1264.9398	1285.2886	1287.0177	1315.9357	1425.1749	1441.8354	1473.8976	1496.6901	1521.025	3056.7349	3069.6128	3084.9514	3100.2397	3106.8802	3125.9825	3174.3582	3175.9037	3189.5051	3790.5672
OC1(C2CO2)C2CCC12	O[C@@]1([C@H]2CO2)[C@H]2CC[C@@H]12	
InChI=1S/C7H10O2/c8-7(6-3-9-6)4-1-2-5(4)7/h4-6,8H,1-3H2	InChI=1S/C7H10O2/c8-7(6-3-9-6)4-1-2-5(4)7/h4-6,8H,1-3H2/t4-,5+,6-,7-/m1/s1
