21
gdb 103304	2.65228	1.30724	1.26528	1.7555	78.58	-0.2477	0.0834	0.3311	1162.2794	0.180543	-424.173662	-424.164453	-424.163508	-424.207272	35.816	
C	 0.0041896237	 1.6356941051	 0.1226633233	-0.378268
C	-0.2090115195	 0.1238918213	-0.027427045	-0.263424
C	 0.6037220754	-0.4685047763	-1.1671842899	 0.456336
O	 0.1252874277	 0.0820271599	-2.3597816542	-0.497178
C	 2.1577324576	-0.6537215468	-1.0985064475	-0.028252
C	 2.002706388	-1.8387145226	-0.1283803282	-0.278933
C	 0.9525680385	-2.0054841579	-1.2519588422	 0.326679
C	 0.072670605	-3.1599880759	-1.6099476554	-0.518346
O	 2.0302984391	-1.6161899585	-2.2282712082	-0.376763
H	 1.0418841031	 1.8654574373	 0.3885271049	 0.111006
H	-0.2250297463	 2.1500208116	-0.8133210765	 0.14054
H	-0.6383553342	 2.0439329976	 0.9083477125	 0.109589
H	 0.017955666	-0.3804320901	 0.9151973481	 0.097271
H	-1.2646558179	-0.0765403622	-0.2458733477	 0.110684
H	 0.6899258417	-0.3043552792	-3.0465664368	 0.283652
H	 2.9572519333	 0.0839932407	-1.1733469497	 0.092618
H	 2.8207347739	-2.5574838016	-0.1802039385	 0.110548
H	 1.6675706362	-1.6577790866	 0.8933011875	 0.100982
H	-0.6126076622	-3.3800582808	-0.785162583	 0.130219
H	-0.5227445724	-2.9202189449	-2.4964205006	 0.136083
H	 0.6665693435	-4.0554290002	-1.8159006629	 0.134956
70.8105	138.2145	184.0393	206.7659	215.8879	275.3323	332.784	358.2315	410.476	479.7059	530.2065	620.0706	629.4785	656.2217	700.0491	750.0405	785.1663	816.82	870.5312	910.1293	952.1206	971.0472	1012.5166	1017.1797	1047.4117	1084.1938	1109.0925	1129.0999	1147.7117	1197.157	1210.8223	1230.3609	1253.9431	1321.215	1326.9802	1351.8852	1406.2607	1408.5469	1434.873	1476.6109	1478.5782	1486.6069	1496.5112	1499.91	1511.4817	3038.1509	3038.6398	3042.987	3080.3571	3094.5875	3103.6649	3112.1867	3115.0228	3117.2453	3132.3021	3156.9976	3714.1905
CCC1(O)C2CC1(C)O2	CC[C@@]1(O)[C@H]2C[C@]1(C)O2	
InChI=1S/C7H12O2/c1-3-7(8)5-4-6(7,2)9-5/h5,8H,3-4H2,1-2H3	InChI=1S/C7H12O2/c1-3-7(8)5-4-6(7,2)9-5/h5,8H,3-4H2,1-2H3/t5-,6+,7-/m1/s1
