16
gdb 25747	2.72718	1.56766	1.00286	4.7586	75.66	-0.2028	-0.0162	0.1866	1128.0556	0.125378	-434.138806	-434.130322	-434.129378	-434.172178	31.33	
C	-0.0144863277	 1.4967155071	-0.0023550055	-0.47423
C	 0.0325214986	-0.0157861097	 0.0342328587	 0.307357
O	 1.1016282424	-0.6274723928	 0.038744615	-0.377055
C	-1.2272620216	-0.7323866688	 0.0531816299	 0.126656
C	-1.3381290567	-2.1205910358	 0.0469555692	 0.311996
N	-0.360337465	-3.0765189028	 0.1294589771	-0.604788
N	-2.6805247931	-2.3760383702	 0.0247390115	-0.315706
C	-3.3312779256	-1.1497629503	 0.0241163038	-0.007797
N	-2.4938030546	-0.1581683757	 0.0418930427	-0.311817
H	 1.0025199964	 1.8904701617	-0.0030184403	 0.127165
H	-0.5526305005	 1.8389349429	-0.8919568874	 0.143174
H	-0.5691995512	 1.8802396999	 0.8597038643	 0.144467
H	 0.5528281489	-2.6412045941	 0.0187513595	 0.282721
H	-0.4927518792	-3.913150872	-0.4212327415	 0.248439
H	-3.1121866493	-3.2846235772	 0.065598211	 0.266224
H	-4.4087170317	-1.0848418923	 0.002266382	 0.133192
63.6848	112.5724	183.5161	188.6174	300.3389	313.1359	362.7127	436.9817	494.6412	520.8054	585.7571	641.4018	658.5901	711.536	740.947	774.05	796.4681	930.9981	963.3941	1044.7207	1063.0853	1086.8058	1131.293	1225.1571	1305.3672	1352.6652	1375.1878	1409.8375	1458.4098	1468.4143	1506.6995	1560.8671	1567.7606	1659.2158	1718.3125	3047.4181	3109.7148	3154.6622	3253.2389	3476.6035	3622.5522	3656.5405
CC(=O)C1=C(N)NC=N1	CC(=O)c1c(N)[nH]cn1	
InChI=1S/C5H7N3O/c1-3(9)4-5(6)8-2-7-4/h2H,6H2,1H3,(H,7,8)	InChI=1S/C5H7N3O/c1-3(9)4-5(6)8-2-7-4/h2H,6H2,1H3,(H,7,8)
