19
gdb 26937	2.84375	1.36977	0.97819	3.6895	82.73	-0.1997	0.0392	0.2389	1212.8429	0.16109	-382.083127	-382.074459	-382.073515	-382.11721	32.275	
C	 0.2247041036	 1.4617152855	 0.0190282709	-0.508899
C	 0.0987928085	-0.0247044446	-0.0563241506	 0.212056
C	-0.0203272137	-0.8786844274	-1.1391489908	 0.185202
C	-0.1493942687	-2.2057988249	-0.6200261641	-0.240651
C	-0.0957998571	-2.1255966754	 0.7480772937	-0.088681
N	 0.0519473426	-0.8004537438	 1.0779690714	-0.286503
C	-0.0544769915	-0.5089932199	-2.5772259954	-0.126515
C	 1.0650104621	 0.2392661071	-3.2115548193	-0.233461
N	 0.8548243504	-1.1822648908	-3.531573374	-0.320295
H	 1.0867131304	 1.7724567281	 0.6226736245	 0.121522
H	 0.3537096699	 1.8750739553	-0.9829724528	 0.145274
H	-0.6656314015	 1.9311631206	 0.456909337	 0.128102
H	-0.2650913	-3.1077719073	-1.2018304172	 0.098466
H	-0.1439035642	-2.8869841498	 1.5097456494	 0.116442
H	 0.1275024559	-0.4443604362	 2.0150738196	 0.256035
H	-1.0455011228	-0.360888667	-3.0052786679	 0.095508
H	 0.867790328	 0.9261149521	-4.0302398678	 0.111506
H	 1.9108441984	 0.5084100149	-2.5850476382	 0.106716
H	 1.5192741298	-1.7384370165	-2.9971333984	 0.228178
41.5383	100.0592	149.4369	163.3433	232.5529	306.246	389.4314	479.5583	481.0255	598.1974	637.6016	683.0741	699.859	730.9764	830.5813	842.3076	871.4705	918.4265	960.9173	976.6878	1001.2387	1059.9156	1073.1417	1107.6876	1116.4461	1146.6856	1172.9809	1180.5259	1242.4264	1273.4203	1296.8597	1306.2626	1401.5322	1412.1174	1431.1979	1481.091	1484.7264	1494.371	1503.9662	1526.3202	1625.692	3014.9926	3057.8911	3099.6199	3107.0462	3131.1504	3191.9378	3243.2586	3269.8019	3487.9458	3674.6307
CC1=C(C=CN1)C1CN1	Cc1c(cc[nH]1)[C@H]1CN1	
InChI=1S/C7H10N2/c1-5-6(2-3-8-5)7-4-9-7/h2-3,7-9H,4H2,1H3	InChI=1S/C7H10N2/c1-5-6(2-3-8-5)7-4-9-7/h2-3,7-9H,4H2,1H3/t7-/m1/s1
