21
gdb 121362	3.15253	1.03366	0.85085	2.0352	74.92	-0.2463	0.0657	0.312	1410.0358	0.182543	-461.354499	-461.345087	-461.344143	-461.38976	34.554	
C	 0.2101867141	 1.5302256365	-0.1060700553	-0.388397
C	 0.519936521	 0.0455505342	-0.0358676241	-0.056911
O	 0.2173346913	-0.5359179884	-1.3042160069	-0.268654
C	 0.4576290231	-1.9302853207	-1.3783389476	 0.061212
C	-0.4703631546	-2.5558135023	-2.436628653	-0.107547
O	 0.3176097697	-3.4854828105	-3.1608827628	-0.243704
C	 1.597084124	-2.8900668785	-3.2986861493	-0.108937
C	 1.8979787013	-2.2388955343	-1.9314755462	 0.095913
O	 2.709351649	-1.0906736592	-2.0085903141	-0.432643
H	 0.8336312751	 2.023434979	-0.8578220559	 0.125294
H	-0.8384576939	 1.6932730464	-0.3700486541	 0.129609
H	 0.4035501011	 2.0017734556	 0.8619164506	 0.121368
H	 1.5761198066	-0.1225274753	 0.2133020092	 0.113523
H	-0.0900453402	-0.4424059486	 0.7400157841	 0.097155
H	 0.3085029327	-2.3845755485	-0.3922386538	 0.077205
H	-1.324993141	-3.0909227839	-2.0171714043	 0.109477
H	-0.8409944467	-1.7461504841	-3.0851735615	 0.10088
H	 2.3052944757	-3.6693492512	-3.5880784559	 0.111074
H	 1.5986142524	-2.1050443939	-4.0738274581	 0.087763
H	 2.411389132	-2.9507751173	-1.2792988019	 0.091133
H	 2.1025749272	-0.358418055	-2.186302229	 0.285187
34.7415	73.067	117.9283	185.1726	242.6728	262.585	305.3982	354.6648	409.6227	423.6655	494.4342	577.5423	644.4745	678.6872	802.5079	828.7217	892.5646	950.7447	970.1351	1001.3712	1053.9602	1064.9054	1086.9886	1117.8906	1129.1886	1143.5741	1158.5383	1187.7627	1211.7152	1252.2813	1275.1111	1301.5653	1311.004	1322.9792	1348.8285	1375.8794	1388.1738	1408.0093	1441.6372	1447.5736	1484.4502	1500.1144	1500.4067	1514.8089	1527.632	2966.6613	2985.3762	2986.1825	3031.8787	3037.4619	3044.8965	3071.4256	3104.6425	3109.12	3117.6293	3123.1511	3742.9129
CCOC1COCC1O	CCO[C@H]1COC[C@H]1O	
InChI=1S/C6H12O3/c1-2-9-6-4-8-3-5(6)7/h5-7H,2-4H2,1H3	InChI=1S/C6H12O3/c1-2-9-6-4-8-3-5(6)7/h5-7H,2-4H2,1H3/t5-,6+/m1/s1
