14
gdb 129275	3.46308	1.72205	1.28989	4.3528	68.75	-0.2289	-0.0156	0.2133	930.0418	0.102381	-432.78462	-432.778154	-432.777209	-432.815529	25.545	
N	 0.0382743716	 1.3534729083	 0.2514802847	-0.583802
C	 0.0006903211	 0.0998874291	 0.1296092957	 0.461304
O	 1.0720223969	-0.7762076737	-0.0316400951	-0.263176
N	 0.6422490822	-2.1596983208	 0.1208968909	-0.225657
C	-0.6331800759	-2.025722476	 0.1635501443	 0.374659
C	-1.9378356618	-2.5524409629	 0.7016186253	-0.195637
C	-2.2071419968	-1.7611457803	 1.9810092125	-0.275426
C	-2.4013197973	-1.0863119064	 0.6578664047	-0.002331
N	-1.1038491605	-0.741413225	 0.0447129973	-0.100306
H	 0.9989347998	 1.6895363739	 0.2518026253	 0.237151
H	-2.4623654107	-3.454017111	 0.4262107466	 0.138263
H	-3.1185200192	-2.0433136049	 2.5002723804	 0.141214
H	-1.3840889613	-1.4737296087	 2.6269191228	 0.152706
H	-3.3185173179	-0.6521638416	 0.2878338846	 0.141037
123.6758	176.737	316.8088	352.9205	482.9782	560.8014	656.0274	684.7916	693.8824	742.7375	773.4062	791.1674	797.273	843.1882	866.6234	929.7572	968.6126	999.17	1027.2235	1041.5689	1091.3108	1106.5052	1167.9716	1195.7948	1240.0957	1293.0673	1328.0413	1376.204	1477.122	1688.1025	1789.2229	3129.2405	3219.3561	3232.2352	3248.1941	3528.303
N=C1ON=C2C3CC3N12	[NH][C]1O[N][C]2[C@H]3C[C@H]3N12	
InChI=1S/C5H5N3O/c6-5-8-3-1-2(3)4(8)7-9-5/h2-3,6H,1H2	InChI=1S/C5H5N3O/c6-5-8-3-1-2(3)4(8)7-9-5/h2-3,6H,1H2/t2-,3+/m0/s1
