21
gdb 95646	2.23832	1.52192	1.13781	1.8646	78.75	-0.237	-0.0146	0.2223	1170.8691	0.182504	-424.262038	-424.252927	-424.251982	-424.295632	34.628	
C	-0.0849377992	 1.5234478033	-0.0893399417	-0.41515
C	 0.0424617932	 0.0087792852	-0.0166623418	 0.116362
O	 0.6985785055	-0.423839641	-1.2033926916	-0.252525
C	 0.6597361095	-1.8286123409	-1.3565973023	-0.089253
C	 1.3949883635	-2.5451900959	-0.2091519905	-0.305355
C	 0.9069568397	-2.032718711	 1.1387372179	 0.370361
O	 0.6205076013	-2.7686258361	 2.0543113012	-0.318321
C	 0.7934800554	-0.5119299343	 1.2390034219	-0.076496
C	 2.1892688931	 0.1181286454	 1.4121850946	-0.416005
H	 0.8950196259	 1.9942480972	-0.1996788821	 0.130931
H	-0.694513848	 1.8046577218	-0.9518899552	 0.12655
H	-0.5610577167	 1.912827622	 0.8155991441	 0.11886
H	-0.9714387831	-0.4288053836	 0.0024786775	 0.071995
H	-0.3855987665	-2.1768232914	-1.4000446775	 0.098618
H	 1.128096228	-2.0520770517	-2.3189108806	 0.114319
H	 1.2572690473	-3.6283966694	-0.2528060947	 0.120191
H	 2.4678737588	-2.3314772503	-0.2925925424	 0.128691
H	 0.1887117742	-0.3050186406	 2.1280859636	 0.089523
H	 2.7711623972	 0.0509905853	 0.4891419065	 0.13234
H	 2.106942027	 1.1741526875	 1.6823367226	 0.125724
H	 2.7424659242	-0.3849520315	 2.2106729804	 0.12864
81.9658	123.6998	197.0464	219.0768	235.1293	280.3894	292.5751	316.4931	418.3191	443.6885	486.1023	545.9339	641.0208	692.2427	760.8789	814.9081	869.4053	878.1375	939.3888	983.8504	1012.6328	1017.9554	1087.1815	1094.7881	1126.2523	1143.2713	1162.1423	1210.855	1253.1421	1274.9517	1288.3892	1324.8254	1335.6513	1372.6405	1386.1564	1402.5749	1409.4174	1416.8024	1457.3336	1482.6678	1493.551	1503.0418	1505.8498	1512.116	1815.7083	2942.5941	2970.9714	3038.3745	3045.8224	3048.9374	3060.4795	3089.5668	3111.4742	3113.9128	3121.9619	3125.5506	3130.0728
CC1OCCC(=O)C1C	C[C@H]1OCCC(=O)[C@H]1C	
InChI=1S/C7H12O2/c1-5-6(2)9-4-3-7(5)8/h5-6H,3-4H2,1-2H3	InChI=1S/C7H12O2/c1-5-6(2)9-4-3-7(5)8/h5-6H,3-4H2,1-2H3/t5-,6+/m0/s1
