16
gdb 56868	2.67042	1.25734	1.05688	5.8409	68.69	-0.2874	-0.0002	0.2872	1165.171	0.123574	-437.930381	-437.921784	-437.92084	-437.964237	30.759	
C	-0.185015321	 1.636174712	 0.1582587315	-0.396117
C	 0.0502101758	 0.1259861569	-0.043083402	-0.164037
C	 1.0655113263	-0.3780677334	 0.8885081264	 0.279256
N	 1.8680323951	-0.7844840381	 1.6136193373	-0.320369
C	-1.2590287392	-0.6619527523	 0.0754253202	 0.134108
C	-1.2259548837	-2.1904740889	 0.2598412904	-0.45687
C	-1.8964107297	-1.8764947733	 1.5982296719	 0.469422
O	-2.3352849018	-2.4602217532	 2.5305103684	-0.300809
O	-1.8748913452	-0.5099360616	 1.3942156471	-0.249785
H	 0.7502746139	 2.1906653377	 0.0583471758	 0.144088
H	-0.8896783309	 2.0040084909	-0.5929260671	 0.1295
H	-0.6019630629	 1.8238929895	 1.1497599403	 0.164851
H	 0.4329338	-0.0462867159	-1.0581135576	 0.138209
H	-1.9529255373	-0.3106398492	-0.6935764028	 0.110224
H	-1.8372308356	-2.7769500406	-0.426978975	 0.149588
H	-0.236423894	-2.6397960005	 0.3590098252	 0.168738
68.2176	87.0135	161.3127	197.9586	215.0415	254.3864	376.0518	389.221	512.9404	523.3069	576.1028	660.3785	691.573	796.0819	860.274	911.6232	954.6737	1000.0414	1023.7154	1061.3833	1084.6861	1110.0907	1137.74	1169.7584	1230.6076	1278.8921	1316.7753	1335.984	1387.8194	1414.1572	1455.6515	1492.2156	1501.916	1957.1926	2360.7805	3029.3453	3054.7467	3075.3458	3094.7935	3130.7138	3147.0096	3155.1349
CC(C#N)C1CC(=O)O1	C[C@@H](C#N)[C@H]1CC(=O)O1	
InChI=1S/C6H7NO2/c1-4(3-7)5-2-6(8)9-5/h4-5H,2H2,1H3	InChI=1S/C6H7NO2/c1-4(3-7)5-2-6(8)9-5/h4-5H,2H2,1H3/t4-,5+/m0/s1
