16
gdb 123881	5.23696	1.1135	0.94588	2.4582	71.92	-0.2165	-0.0147	0.2017	1195.0322	0.127523	-430.211543	-430.204144	-430.2032	-430.244198	26.745	
C	-0.1378161	 1.5299452736	 0.0211011549	-0.239053
C	 1.3997009208	 1.5249364647	-0.2037631802	-0.161401
N	 1.4246255636	 0.134326958	 0.280923528	-0.141694
C	-0.0399478314	-0.0019143494	 0.2598615265	-0.162909
C	 2.3047751845	-0.8146036875	-0.1332278238	 0.478731
N	 2.0583928556	-2.1265537706	-0.1188995453	-0.320789
N	 3.2260068779	-2.5895001053	-0.5778076892	-0.070056
N	 4.1224896208	-1.668564924	-0.8616511342	-0.100459
N	 3.5583183287	-0.5182617931	-0.587363492	-0.288581
H	-0.447717327	 2.0897386564	 0.9044368163	 0.119434
H	-0.7419995999	 1.8408232708	-0.830852491	 0.116679
H	 1.7039382472	 1.6198078553	-1.2529859036	 0.118602
H	 1.9936702384	 2.2181883047	 0.3980724213	 0.12153
H	-0.4671161433	-0.3904198861	 1.1889404848	 0.118765
H	-0.400545497	-0.6142077384	-0.5764178196	 0.113907
H	 3.4092104211	-3.5735073089	-0.6984089431	 0.297294
89.4755	91.5823	161.0254	171.7847	358.7755	457.8718	507.3552	519.7495	715.462	752.3519	785.8219	844.1928	884.6615	940.5533	954.7869	1007.6065	1048.4837	1120.9603	1130.4121	1142.2488	1154.2744	1164.8287	1193.1335	1205.878	1225.7941	1267.2054	1277.767	1300.3872	1347.7572	1368.5993	1491.5971	1503.1188	1512.2471	1535.1876	1623.0644	3022.1906	3032.8833	3077.9489	3084.9283	3094.3601	3148.781	3658.9404
C1CN(C1)C1=NNN=N1	C1CN(C1)c1n[nH]nn1	
InChI=1S/C4H7N5/c1-2-9(3-1)4-5-7-8-6-4/h1-3H2,(H,5,6,7,8)	InChI=1S/C4H7N5/c1-2-9(3-1)4-5-7-8-6-4/h1-3H2,(H,5,6,7,8)
