20
gdb 73359	2.50231	1.97744	1.61086	0.4301	76.89	-0.2301	0.0872	0.3173	944.3864	0.173088	-403.140095	-403.132705	-403.131761	-403.171557	30.165	
C	 0.0536281661	 1.4674138304	 0.1385648686	-0.457393
C	 0.0156446738	-0.0356499476	-0.0741748776	 0.378749
C	 0.5597410828	-0.5340384286	-1.4282479903	-0.226446
C	 0.0116229962	-1.9728162249	-1.5033036581	-0.179138
N	-1.2656446645	-1.9737661113	-0.7446921405	-0.114684
C	-1.170893003	-1.9565308031	 0.7304111346	-0.043838
C	 0.1824090504	-1.8747661611	 1.4032341381	-0.110624
O	 0.7915284575	-0.6632236774	 0.971168347	-0.309583
C	-1.3697141541	-0.6978470826	-0.0183202332	-0.109698
H	 1.0859487499	 1.8280167088	 0.1198265501	 0.127567
H	-0.5062629778	 1.985396767	-0.6460073403	 0.115458
H	-0.3780419539	 1.7287997478	 1.1088213788	 0.122463
H	 0.1469809089	 0.0705312001	-2.2438760055	 0.09778
H	 1.6499395879	-0.4734548673	-1.4702918536	 0.106501
H	-0.2040110911	-2.2837369095	-2.5287451565	 0.107229
H	 0.7154372955	-2.7009251738	-1.0858829768	 0.108311
H	-1.9716988925	-2.4843280687	 1.2404572946	 0.096316
H	 0.056763438	-1.8520563477	 2.4942297877	 0.103765
H	 0.8306144495	-2.7308246423	 1.1634482409	 0.101212
H	-2.2891493595	-0.1239276684	-0.0738540283	 0.086054
112.5551	205.3961	257.546	278.5129	330.2079	400.4509	449.8917	580.8262	599.534	685.4635	751.6195	769.7264	794.4473	816.2786	861.0465	877.1704	914.7314	955.5864	971.8102	999.7101	1008.3247	1033.1253	1079.0186	1089.6967	1120.209	1157.508	1171.2353	1198.8609	1217.9789	1224.3412	1236.8004	1277.3405	1303.929	1333.6996	1345.9492	1368.3754	1405.0721	1410.0522	1475.9881	1483.8475	1494.836	1507.3797	1530.2974	2990.7356	3025.6184	3040.1263	3045.2615	3047.3805	3088.6587	3109.4922	3116.8965	3117.6536	3147.8461	3160.8741
CC12CCN3C(CO1)C23	C[C@@]12CCN3[C@@H](CO1)[C@@H]23	
InChI=1S/C7H11NO/c1-7-2-3-8-5(4-9-7)6(7)8/h5-6H,2-4H2,1H3	InChI=1S/C7H11NO/c1-7-2-3-8-5(4-9-7)6(7)8/h5-6H,2-4H2,1H3/t5-,6-,7-,8?/m0/s1
