18
gdb 35723	2.4164	1.48418	1.09359	5.8801	75.79	-0.2454	0.0099	0.2553	1132.2453	0.1498	-398.079545	-398.071361	-398.070417	-398.112718	30.554	
N	-0.3358900296	-1.0661901021	-0.6038725522	-0.325961
C	-0.1508285841	 0.0138754614	-0.2370368185	 0.310118
C	 0.0515766278	 1.3965715523	 0.1948369317	-0.130313
N	 0.4325002699	 1.5851730932	 1.6101104872	-0.300599
C	 1.3414681998	 2.6934390802	 1.2412780592	-0.208341
C	 1.3690351483	 2.1530442167	-0.214245387	-0.048607
C	 2.5275681615	 1.2650837712	-0.605233167	 0.0185
C	 3.9113748352	 1.5628332297	-0.15484434	-0.256273
N	 3.1977645983	 0.3840359251	 0.3562294607	-0.304602
H	-0.8317098504	 1.9749021825	-0.1129865755	 0.112696
H	-0.3293387519	 1.807322588	 2.241838031	 0.232237
H	 0.8907832649	 3.6936136278	 1.2921721043	 0.105619
H	 2.2796912646	 2.7075963263	 1.8046063142	 0.11403
H	 1.2096344312	 2.9041207661	-0.9908040196	 0.09576
H	 2.3991312775	 0.8059852516	-1.5842515086	 0.108687
H	 4.7517642074	 1.3441011417	-0.8075930244	 0.122863
H	 4.0648611818	 2.4161024785	 0.501560868	 0.109538
H	 2.8375030979	 0.5439562997	 1.2942620167	 0.244648
85.1192	117.8078	124.0658	220.8998	259.2322	298.2054	403.4117	504.7375	554.7933	565.8819	690.097	746.2214	817.9132	841.0682	895.0819	932.0934	954.518	977.9664	999.7704	1019.3785	1051.6948	1079.4518	1093.6078	1130.9604	1145.4414	1151.7298	1194.9768	1204.442	1247.8505	1259.4398	1310.5981	1318.1809	1355.7242	1377.6193	1391.5784	1416.0384	1515.3079	1527.9426	2357.8642	2994.3645	3011.5602	3071.8195	3087.552	3106.6071	3120.4766	3189.0902	3504.1826	3530.1881
N#CC1NCC1C1CN1	N#C[C@H]1NC[C@H]1[C@H]1CN1	
InChI=1S/C6H9N3/c7-1-5-4(2-8-5)6-3-9-6/h4-6,8-9H,2-3H2	InChI=1S/C6H9N3/c7-1-5-4(2-8-5)6-3-9-6/h4-6,8-9H,2-3H2/t4-,5-,6-/m1/s1
