19
gdb 32674	3.35513	1.29935	0.99596	4.3259	82.02	-0.2131	0.0425	0.2556	1208.8722	0.161554	-382.081563	-382.073509	-382.072565	-382.114646	30.272	
C	-0.0053016721	 1.5617547152	 0.2013904075	-0.389112
C	 0.3373882963	 0.06968151	 0.2297714084	-0.18719
C	 0.6833491797	-0.4918305429	-1.1396498594	 0.052595
C	 0.7820482666	-2.0602425883	-1.2855704993	-0.419286
C	-0.3807089472	-1.9253484483	-2.2571424911	 0.296807
C	-1.336279031	-2.2647355275	-3.1814573215	-0.225527
N	-1.9807826164	-1.1093658015	-3.5810569047	-0.265503
C	-1.4295319674	-0.0990723224	-2.9306547204	-0.036693
N	-0.4534627444	-0.5708759459	-2.106194349	-0.005706
H	 0.8263271051	 2.1543903676	-0.1950193255	 0.11945
H	-0.8829565966	 1.7513518112	-0.4249866738	 0.130761
H	-0.2297333653	 1.9309274709	 1.2060315772	 0.123708
H	 1.1980058404	-0.1058608575	 0.8877528731	 0.108789
H	-0.5009947774	-0.5024041224	 0.6447021067	 0.112832
H	 1.5356094774	 0.0394861882	-1.5763592382	 0.101625
H	 1.7224488273	-2.4206766553	-1.709393527	 0.125739
H	 0.5750098361	-2.6047230212	-0.3602984173	 0.123015
H	-1.6107266946	-3.226079043	-3.5853179919	 0.105457
H	-1.7053373667	 0.939384233	-3.0231648037	 0.12824
76.2575	102.6955	147.1489	218.2741	257.5276	353.5607	404.496	511.0238	660.9803	665.1449	682.0168	754.9099	781.356	809.5343	826.0236	861.9374	947.8783	963.6503	992.0675	1040.0071	1074.4717	1098.972	1110.8436	1122.2703	1186.6429	1206.9438	1230.9239	1242.1758	1277.0368	1292.3296	1337.5608	1374.7849	1387.5381	1394.6564	1412.8322	1466.5896	1478.5314	1490.9355	1499.5026	1505.9077	1566.5599	3027.8072	3036.3087	3050.6124	3061.7677	3070.8471	3105.9458	3110.2952	3113.1004	3259.5011	3263.3811
CCC1CC2=CN=CN12	CC[C@H]1Cc2cncn12	
InChI=1S/C7H10N2/c1-2-6-3-7-4-8-5-9(6)7/h4-6H,2-3H2,1H3	InChI=1S/C7H10N2/c1-2-6-3-7-4-8-5-9(6)7/h4-6H,2-3H2,1H3/t6-/m0/s1
