12
gdb 24897	3.51553	1.32169	0.96056	3.3653	78.05	-0.2506	-0.0979	0.1526	1110.35	0.077043	-435.492426	-435.485199	-435.484254	-435.524381	26.773	
O	-0.081640103	-0.0279362013	 0.0042177908	-0.321546
C	-0.0046582841	 1.1672135663	 0.0097035106	 0.382744
O	-1.1804449725	 1.9210186623	 0.0297764354	-0.239813
C	-1.1372830607	 3.2773557933	 0.0365228796	 0.214231
C	 0.0522102558	 3.9348548591	 0.023871385	-0.13405
N	 1.2501090584	 3.265812389	 0.0039142801	-0.201863
C	 1.2208948232	 1.9738954701	-0.0026805477	-0.09994
C	-2.4030016481	 3.9080351654	 0.05718068	 0.261538
C	-3.4752586882	 4.4540816882	 0.0747388123	-0.368203
H	 0.0815685417	 5.0160400666	 0.0293205365	 0.137678
H	 2.153334612	 1.4160622845	-0.0184340019	 0.150258
H	-4.4235394345	 4.9337459765	 0.0902349493	 0.218967
129.0709	138.9697	143.1325	341.5783	418.6897	460.4686	473.2398	534.0484	583.1971	629.8444	684.0152	694.1884	702.341	753.0409	878.6942	880.4741	939.342	1016.0585	1093.2961	1161.9674	1247.5905	1360.1254	1386.6211	1540.4383	1644.1798	1850.7165	2232.8325	3175.9719	3226.9411	3496.9387
O=C1OC(=CN=C1)C#C	O=c1oc(cnc1)C#C	
InChI=1S/C6H3NO2/c1-2-5-3-7-4-6(8)9-5/h1,3-4H	InChI=1S/C6H3NO2/c1-2-5-3-7-4-6(8)9-5/h1,3-4H
