20
gdb 109569	2.20823	1.39026	0.99013	2.779	77.06	-0.2423	0.0244	0.2666	1263.8053	0.169197	-440.310249	-440.299992	-440.299048	-440.346198	36.112	
C	-0.0858596614	 1.5449110004	 0.0680246132	-0.377526
C	 0.1482692762	 0.0326028396	-0.0139252856	-0.163725
N	 0.7538968927	-0.4080781137	-1.2531960311	-0.081856
C	 0.2114341185	-0.6975229036	-2.5989750652	 0.014543
C	-0.2887652793	 0.4935713345	-3.401146602	-0.391186
C	 1.6377355217	-1.2329619563	-2.9606065074	-0.028022
O	 2.2880002882	-0.5636927218	-4.01139188	-0.430357
C	 2.032245386	-0.8074864083	-1.5284878447	 0.370149
O	 3.0544665833	-0.7983771586	-0.8858430404	-0.392338
H	 0.8566954999	 2.0860682708	-0.0524281353	 0.136175
H	-0.7784611308	 1.8873462846	-0.7059367662	 0.124162
H	-0.5111317992	 1.806815919	 1.0420912812	 0.11996
H	 0.8257917657	-0.2831748727	 0.7862165306	 0.139163
H	-0.7974041169	-0.5069037536	 0.1258109137	 0.110081
H	-0.5477560594	-1.4895992179	-2.5702915115	 0.079703
H	 0.4675370359	 1.2799269341	-3.44349399	 0.130443
H	-0.5108982963	 0.1818935472	-4.4263534054	 0.130557
H	-1.2064502306	 0.9024095141	-2.9671806255	 0.115192
H	 1.6597605979	-2.3223130612	-3.1009706245	 0.092704
H	 3.207717418	-0.4456797068	-3.7483401438	 0.302177
43.9056	73.1646	103.4105	161.336	190.0889	223.5441	240.4393	259.6596	282.0489	344.7021	402.6971	497.7523	573.6332	648.2548	746.6295	765.7634	813.773	831.0249	937.7174	949.3482	1022.6459	1065.8575	1080.5479	1102.5888	1127.8339	1170.1073	1185.7113	1235.1114	1268.8589	1329.3364	1347.7978	1377.392	1382.1821	1394.8243	1409.2005	1413.681	1432.5677	1474.4931	1486.6076	1488.0224	1496.3412	1503.2427	1864.9064	3009.0054	3022.9577	3026.3093	3042.425	3045.4002	3081.5318	3110.051	3115.1373	3125.765	3137.079	3804.6929
CCN1C(C)C(O)C1=O	CCN1[C@@H](C)[C@@H](O)C1=O	
InChI=1S/C6H11NO2/c1-3-7-4(2)5(8)6(7)9/h4-5,8H,3H2,1-2H3	InChI=1S/C6H11NO2/c1-3-7-4(2)5(8)6(7)9/h4-5,8H,3H2,1-2H3/t4-,5+/m0/s1
