14
gdb 19182	3.81978	2.01941	1.79481	2.1876	62.22	-0.2509	-0.0104	0.2405	755.2202	0.107838	-382.520986	-382.514719	-382.513775	-382.551124	24.973	
O	 0.1861448403	 1.4428398602	-0.1486972726	-0.433442
C	 0.0547800682	 0.0692956873	-0.0387296599	 0.171404
C	 0.1559798657	-0.6272074613	 1.3761346578	-0.227906
C	-1.0400818453	-0.030134506	 2.0881867669	-0.111036
C	-2.0180807917	-0.0105323328	 1.1561574594	-0.11111
C	-1.3771364243	-0.597471793	-0.0843128624	-0.227872
C	-0.6396557744	-1.7877065393	 0.6525467004	 0.430865
O	-0.6564265374	-2.9713690638	 0.6460908015	-0.294553
H	-0.4192669199	 1.8367263804	 0.4949113127	 0.283124
H	 0.7381493021	-0.3796120058	-0.7653296032	 0.109493
H	 1.0941450937	-0.775879053	 1.9041718029	 0.089315
H	-1.0983262913	 0.2024066245	 3.141716982	 0.116218
H	-3.0625121602	 0.241668895	 1.2699322296	 0.116192
H	-1.9528174854	-0.7168162824	-0.998330035	 0.089309
154.9758	252.3295	289.6412	396.7903	480.2016	536.3517	599.0228	622.9369	708.8038	757.6415	796.2153	799.7664	831.0512	906.1552	912.1412	945.4095	981.0581	1003.6897	1084.9883	1125.9817	1131.6262	1157.5002	1161.0451	1238.0955	1244.1376	1303.3207	1337.4563	1448.5898	1574.0498	1925.9032	3085.6167	3161.0862	3163.2094	3226.2878	3249.2138	3743.1635
OC1C2C=CC1C2=O	O[C@H]1[C@H]2C=C[C@@H]1C2=O	
InChI=1S/C6H6O2/c7-5-3-1-2-4(5)6(3)8/h1-5,7H	InChI=1S/C6H6O2/c7-5-3-1-2-4(5)6(3)8/h1-5,7H/t3-,4+,5+
