18
gdb 120246	3.07609	1.06775	0.87172	2.9973	73.75	-0.2422	-0.0238	0.2184	1349.989	0.146258	-439.033456	-439.024597	-439.023652	-439.068031	31.6	
C	 1.4286342275	 1.2472270938	-2.4365711456	-0.228567
O	 1.2332878636	-0.1280164919	-2.2010362395	-0.22776
C	 1.3675134014	-0.4782506703	-0.845197691	-0.076752
C	 1.0537212591	-1.962888884	-0.7282706697	-0.102269
N	 1.5144257651	-2.6748440413	 0.5218358752	-0.131922
C	 0.7113733867	-2.1455299643	 1.6215315037	-0.241287
C	 0.0933782699	-3.1893266528	 0.7519656705	-0.15755
C	-0.3707448145	-2.5363592206	-0.5206661745	 0.396971
O	-1.3597940776	-2.6069194317	-1.1883084533	-0.300601
H	 0.6950397784	 1.8619827066	-1.8920677464	 0.108524
H	 2.4384173351	 1.5722088204	-2.1402975422	 0.10659
H	 1.3028795655	 1.4133101507	-3.5086697154	 0.13448
H	 2.3982359617	-0.3079298695	-0.4863285479	 0.104283
H	 0.6982015807	 0.1376483534	-0.2238048082	 0.090391
H	 1.4980786733	-2.4671066124	-1.5934945171	 0.132312
H	 1.0486324124	-2.4748402613	 2.5996005747	 0.138722
H	 0.3389960335	-1.1255725558	 1.5933331212	 0.128547
H	-0.1292333219	-4.1898612292	 1.1033632557	 0.125889
52.8117	83.3731	117.3687	186.3272	214.1107	237.3213	316.3513	383.7539	467.3853	513.7506	634.7903	718.4144	744.4156	789.6422	855.9212	929.6692	964.5981	1027.0281	1032.1492	1062.2546	1091.303	1109.1418	1125.8407	1153.8921	1168.0911	1183.9816	1212.2617	1230.3206	1233.9744	1268.3821	1302.8085	1331.2207	1421.5188	1480.5461	1486.3835	1501.0348	1506.5999	1526.799	1897.2054	2947.9109	2974.0489	2986.9946	3019.4994	3065.8415	3120.585	3121.8279	3192.532	3207.7805
COCC1N2CC2C1=O	COC[C@H]1N2C[C@H]2C1=O	
InChI=1S/C6H9NO2/c1-9-3-5-6(8)4-2-7(4)5/h4-5H,2-3H2,1H3	InChI=1S/C6H9NO2/c1-9-3-5-6(8)4-2-7(4)5/h4-5H,2-3H2,1H3/t4-,5+,7?/m0/s1
