16
gdb 129577	4.99291	1.0248	0.85156	6.086	74.92	-0.2009	0.0233	0.2242	1288.3158	0.127792	-430.278842	-430.270786	-430.269841	-430.311692	30.676	
N	 0.194291281	 1.3636070305	 0.0607094847	-0.557318
C	 0.1531003776	 0.0821830565	 0.083215533	 0.430333
N	 1.2431284146	-0.7937808913	 0.1045958729	-0.573611
N	-1.0486662079	-0.5943121583	 0.1405351202	-0.436436
H	-1.0114764192	-1.5574260564	 0.4297633502	 0.260308
C	-2.3161983337	-0.0165846204	 0.1593427759	 0.499282
C	-3.5582493076	-0.6256991284	 0.2256624854	-0.357443
C	-4.4626874063	 0.4569646993	 0.1956111374	 0.008704
N	-3.8469399916	 1.6313807131	 0.1156745703	-0.245068
N	-2.5314682122	 1.3157290852	 0.0963415294	-0.23468
H	 1.1430332848	 1.7066365291	-0.0578861419	 0.21154
H	-1.7896026038	 2.0021150457	 0.0613523092	 0.294187
H	 2.1258173116	-0.3394848272	-0.0780906356	 0.254159
H	 1.134151853	-1.6248635394	-0.461963061	 0.25303
H	-3.7693479965	-1.6813667926	 0.2788002461	 0.088747
H	-5.5419906339	 0.4197407948	 0.2268894438	 0.104266
84.7289	88.2047	197.4227	298.0848	323.905	374.8889	391.6092	424.1807	588.2662	612.6605	613.5003	681.0041	716.4278	728.2942	761.0514	771.9568	812.4979	883.9203	937.244	993.3109	1058.6841	1069.13	1098.6822	1127.7436	1146.5769	1254.4397	1321.2837	1328.7557	1377.9867	1435.3246	1524.1389	1558.0851	1641.5427	1646.2394	1725.0442	3239.9794	3264.003	3530.1783	3553.679	3593.9609	3655.9591	3659.666
NC(N)=[NH+]C1=CC=N[N-]1	N=C(N)Nc1ccn[nH]1	
InChI=1S/C4H6N5/c5-4(6)8-3-1-2-7-9-3/h1-2H,(H4-,5,6,7,8,9)/q-1/p+1	InChI=1S/C4H7N5/c5-4(6)8-3-1-2-7-9-3/h1-2H,(H5,5,6,7,8,9)
