17
gdb 49024	3.20477	1.54115	1.29965	1.0009	72.53	-0.2366	-0.0411	0.1954	991.0424	0.136806	-417.924163	-417.916897	-417.915953	-417.955776	28.615	
O	-0.6317532069	 0.9292455506	-0.7891313875	-0.267027
C	 0.1675999439	 0.9890055166	 0.1153920246	 0.062457
C	 1.3715113622	 1.8619659488	 0.0885914078	 0.256826
N	 1.5497586396	 2.7331853758	-1.0895366716	-0.373989
C	 2.8369630082	 2.0561699583	-1.4390115505	-0.192069
C	 2.7906953034	 1.2514469425	-0.1177732943	-0.039062
N	 3.3094456049	 1.8173073819	 1.18380742	-0.151597
C	 3.08316149	 3.2777378408	 1.2115087626	-0.25125
C	 1.9208652766	 2.4074010455	 1.4305563153	-0.080616
H	 0.058440066	 0.3639550544	 1.028721262	 0.088608
H	 0.8059139466	 2.5771486722	-1.7633970285	 0.237611
H	 2.7769127269	 1.3998883947	-2.3145964948	 0.115016
H	 3.6797815837	 2.7426657276	-1.5713010329	 0.115392
H	 2.9754673302	 0.1792209861	-0.1588716281	 0.103324
H	 3.5328043831	 3.7323112208	 2.088576726	 0.127979
H	 3.1371641583	 3.8700118244	 0.3047908214	 0.147695
H	 1.4244132334	 2.2960806891	 2.3898787384	 0.100701
113.1894	170.1986	250.8107	278.5121	328.8588	425.2725	447.4922	570.0858	647.6247	720.4105	738.4864	761.0801	774.2284	878.636	905.3758	909.8529	975.0889	991.2226	1006.9242	1052.4332	1057.9585	1086.5944	1109.9113	1118.8668	1159.6549	1167.6687	1193.724	1227.4778	1238.6991	1304.5009	1311.9298	1341.2318	1396.2731	1425.031	1497.3441	1509.2862	1800.77	2893.6611	3030.4395	3076.7535	3124.3385	3133.115	3154.7155	3222.8258	3522.2107
O=CC12NCC1N1CC21	O=C[C@]12NC[C@H]1N1C[C@@H]21	
InChI=1S/C6H8N2O/c9-3-6-4(1-7-6)8-2-5(6)8/h3-5,7H,1-2H2	InChI=1S/C6H8N2O/c9-3-6-4(1-7-6)8-2-5(6)8/h3-5,7H,1-2H2/t4-,5+,6+,8?/m1/s1
