18
gdb 40806	4.01726	1.05157	0.88307	2.905	72.35	-0.2482	0.0229	0.2712	1281.0112	0.149235	-439.069057	-439.061112	-439.060168	-439.102237	29.365	
C	 0.2741357395	 1.5268292623	 0.0294980138	-0.184426
O	 1.1710980562	 0.4420117901	-0.2130817388	-0.236721
C	-0.2034758797	 0.1371405088	 0.0277443305	 0.079064
C	-0.5146787376	-0.6191364648	 1.2966395571	-0.067678
C	-1.9975623846	-0.5127841979	 1.6553869235	-0.082445
O	-2.3106558555	-1.2803754161	 2.8238059653	-0.226217
C	-1.6395142769	-2.4517881362	 2.9624987654	 0.128753
N	-0.6887362848	-2.9212565814	 2.2762847528	-0.271887
C	-0.1578283362	-2.1105988881	 1.1844286236	-0.162992
H	 0.4144859407	 2.0443982541	 0.9777350065	 0.116553
H	 0.0746389498	 2.1705032379	-0.825892657	 0.118937
H	-0.7363703487	-0.2117785051	-0.8605565015	 0.095045
H	 0.0710240703	-0.1785885462	 2.1124570521	 0.095823
H	-2.2926631682	 0.5143002422	 1.884208491	 0.121691
H	-2.621135474	-0.8722651251	 0.8250575391	 0.112042
H	-2.0389831001	-3.0010580449	 3.8130531278	 0.124855
H	-0.5287248412	-2.5180819379	 0.2328382062	 0.109749
H	 0.929523341	-2.2332222418	 1.1632638726	 0.129853
69.79	115.5812	160.166	173.5304	301.016	374.1154	454.9767	486.5349	502.1929	549.7861	786.7065	856.5097	876.4927	900.8923	927.6755	951.4839	967.1352	977.235	994.2811	1085.1877	1122.6262	1130.021	1153.3204	1162.6561	1172.6436	1180.6136	1233.7285	1265.4291	1287.9281	1314.2749	1340.6463	1363.5672	1405.7418	1420.3331	1451.1946	1485.8614	1510.1278	1529.2909	1739.4795	3005.4384	3013.5267	3042.0071	3073.5359	3078.923	3084.1177	3097.0485	3160.7998	3170.3758
C1OC1C1COC=NC1	C1O[C@H]1[C@H]1COC=NC1	
InChI=1S/C6H9NO2/c1-5(6-3-9-6)2-8-4-7-1/h4-6H,1-3H2	InChI=1S/C6H9NO2/c1-5(6-3-9-6)2-8-4-7-1/h4-6H,1-3H2/t5-,6-/m1/s1
