18
gdb 71777	3.18142	1.8408	1.61341	2.142	72.88	-0.2247	0.0722	0.2969	885.2648	0.150723	-401.929529	-401.923035	-401.922091	-401.959854	27.835	
O	-0.0848210452	 1.3713872188	-0.0606457513	-0.474688
C	 0.0179160414	-0.0176286235	-0.0384286315	 0.382016
C	 1.0079680584	-0.7130190932	-0.9682994307	-0.238163
N	 0.5146406567	-2.0815263733	-1.1795037823	-0.120267
C	 0.1890726089	-2.8226109917	 0.0532785659	-0.040566
C	 0.3837748267	-2.1222838929	 1.3901766667	-0.251011
C	-0.3204577411	-0.7838095339	 1.2151381782	-0.146648
C	-1.2367999977	-0.8571891032	-0.0067816742	-0.117207
C	-0.8955339845	-2.1438122317	-0.7205783882	-0.057717
H	 0.6117515224	 1.7334862632	 0.4977418207	 0.28283
H	 1.0347959915	-0.1909108889	-1.9309718827	 0.113994
H	 2.0302200398	-0.7428929853	-0.5719198996	 0.098017
H	 0.3738918228	-3.8915303921	-0.0082948413	 0.088578
H	-0.0849322189	-2.7104620413	 2.1878644812	 0.106961
H	 1.4445416268	-2.0135121443	 1.649867497	 0.103369
H	-0.6280029146	-0.2076561052	 2.0813774559	 0.08597
H	-2.2236925977	-0.4162694478	-0.0268157054	 0.095059
H	-1.6137991858	-2.6528950236	-1.3525063684	 0.089472
239.4625	274.3378	311.5032	349.7757	443.1148	452.8956	569.4163	652.7423	707.8303	708.2585	746.89	762.2693	825.3451	857.6537	907.434	930.0153	946.7748	973.5734	980.9683	1019.442	1037.1407	1050.9957	1062.3655	1082.7494	1103.4246	1183.2059	1198.055	1215.8259	1246.2017	1262.6779	1271.3895	1297.0585	1308.8353	1322.2594	1341.1961	1384.7634	1445.6939	1483.8947	1505.3092	3025.3087	3032.0253	3060.9227	3073.6415	3144.1342	3168.8811	3179.2145	3217.1061	3795.9311
OC12CN3C4CC1C2C34	O[C@@]12CN3[C@H]4C[C@@H]1[C@@H]2[C@@H]34	
InChI=1S/C7H9NO/c9-7-2-8-4-1-3(7)5(7)6(4)8/h3-6,9H,1-2H2	InChI=1S/C7H9NO/c9-7-2-8-4-1-3(7)5(7)6(4)8/h3-6,9H,1-2H2/t3-,4+,5-,6+,7+,8?/m1/s1
