15
gdb 123358	7.15069	0.7583	0.72033	5.3559	72.62	-0.2845	-0.0212	0.2632	1490.3843	0.112745	-412.934368	-412.926165	-412.925221	-412.968662	28.759	
C	 0.0053299387	-1.2147719662	-0.0314080089	-0.425105
C	-0.0255024361	-0.0171541723	 0.0578535925	 0.287861
C	-0.0160807935	 1.4349586558	 0.15851612	-0.349065
C	 1.3896989884	 2.0058474777	-0.1195251121	-0.163643
N	 1.4120082926	 3.4550127145	-0.0090787168	 0.03907
C	 1.9120484243	 4.2619484299	 0.9443525733	 0.055728
N	 1.6619238672	 5.5127324288	 0.6262071141	-0.220839
N	 0.9893173876	 5.4588203833	-0.5539956518	-0.088231
N	 0.8310535902	 4.2377469821	-0.9443664807	-0.131211
H	 0.0115195842	-2.2740081167	-0.109404042	 0.207331
H	-0.7192773887	 1.8757027172	-0.5566577617	 0.169281
H	-0.3422038114	 1.7494344089	 1.1573217988	 0.145293
H	 2.1147787542	 1.605552942	 0.5920136658	 0.145659
H	 1.7134089165	 1.7355234133	-1.126616267	 0.162245
H	 2.4369754959	 3.9130332617	 1.8187394363	 0.165628
46.1728	62.9279	92.551	176.0318	316.2584	356.7643	374.5435	469.9259	634.5761	667.1195	677.7451	735.4617	763.1266	774.148	864.8389	973.9473	987.3186	1028.5634	1032.0604	1051.6879	1119.7932	1158.5382	1195.3853	1262.303	1308.4646	1313.7968	1341.2776	1394.9307	1463.6318	1472.6654	1486.3105	1515.2464	2244.4899	3037.0509	3078.0287	3084.7011	3138.8371	3283.0414	3505.1479
C#CCCN1C=NN=N1	C#CCCn1cnnn1	
InChI=1S/C5H6N4/c1-2-3-4-9-5-6-7-8-9/h1,5H,3-4H2	InChI=1S/C5H6N4/c1-2-3-4-9-5-6-7-8-9/h1,5H,3-4H2
