14
gdb 28086	6.24483	0.81451	0.74389	5.0458	66.22	-0.2033	0.0077	0.211	1413.1237	0.100303	-473.867279	-473.858949	-473.858005	-473.90082	29.987	
O	 0.3888241699	 1.2766440624	 0.0999897765	-0.430875
C	 0.138239348	-0.0491693665	-0.0073804065	 0.419057
C	 0.0441942142	-0.9073617303	-1.0783899108	-0.420828
C	-0.2402948558	-2.1849290901	-0.5129558415	 0.341344
O	-0.4481502712	-3.3253651035	-1.261019736	-0.218192
C	 0.3746688501	-4.3831821539	-1.0344708084	 0.151339
O	 0.2250081689	-5.4337757868	-1.5771717406	-0.266265
C	-0.3083082505	-2.0775296942	 0.8518018279	-0.199685
N	-0.0674414666	-0.744073505	 1.1455877133	-0.29067
H	 0.5029168272	 1.6400707579	-0.7833660927	 0.312808
H	 0.1607074766	-0.6724541632	-2.1235877348	 0.108475
H	 1.1656495696	-4.1390053845	-0.302435559	 0.086792
H	-0.5346971525	-2.7991020555	 1.6169802151	 0.132875
H	-0.055988468	-0.3307529468	 2.0615439677	 0.273826
50.0274	126.6442	158.2816	234.3031	259.8946	326.7194	369.7241	450.3452	465.8147	502.8375	620.8928	667.6197	682.7672	701.0551	750.3491	826.2155	993.6697	1021.9956	1047.5081	1114.2316	1128.448	1170.7805	1196.4224	1284.7628	1343.6351	1403.9971	1428.7386	1546.1261	1578.5503	1636.3491	1869.734	2980.1286	3265.3858	3287.2692	3687.8786	3848.9045
OC1=CC(OC=O)=CN1	Oc1cc(OC=O)c[nH]1	
InChI=1S/C5H5NO3/c7-3-9-4-1-5(8)6-2-4/h1-3,6,8H	InChI=1S/C5H5NO3/c7-3-9-4-1-5(8)6-2-4/h1-3,6,8H
