16
gdb 15067	2.58893	1.85487	1.24222	5.1149	65.76	-0.2699	0.0213	0.2911	980.8289	0.130179	-379.89018	-379.882033	-379.881088	-379.923094	29.181	
O	 0.142933568	 1.2800819922	-0.2096766546	-0.408917
C	 0.0025363639	-0.0938342133	 0.0347877194	-0.054453
C	-1.4817204622	-0.4958026263	 0.1557891777	-0.166976
C	-2.1237541699	 0.1652250113	 1.302135874	 0.320908
N	-2.6393422209	 0.6495620674	 2.2149344522	-0.319361
N	-2.1530447977	-0.0848213521	-1.0816475368	-0.078589
C	-2.2840964627	-1.115114137	-2.1147243636	-0.225953
C	-3.4714897567	-0.6554520701	-1.3453823724	-0.215621
H	-0.5038497013	 1.4983745592	-0.8942518774	 0.295173
H	 0.4423204356	-0.7094094299	-0.7673347385	 0.095377
H	 0.5292820894	-0.3233859502	 0.9654487416	 0.127359
H	-1.5472769231	-1.5850768419	 0.3260137849	 0.107394
H	-2.1205255209	-0.7783437295	-3.1334186381	 0.132873
H	-1.8965999546	-2.1077956102	-1.8937125398	 0.123083
H	-3.8845624599	-1.3368919946	-0.6050078404	 0.131704
H	-4.1910002269	 0.0237891049	-1.7909953882	 0.135999
83.8859	110.2216	146.2753	182.6544	250.8146	331.0799	385.9805	451.177	474.7964	546.0385	670.2928	779.1233	849.4448	865.6325	908.6984	954.8056	1007.5449	1043.412	1090.5588	1114.435	1119.9756	1127.7954	1171.3132	1177.9385	1244.3745	1290.2068	1309.9703	1345.018	1391.7571	1437.4336	1493.7166	1504.0317	1521.6434	2365.739	2947.8082	2972.7058	3092.129	3105.8831	3114.481	3193.937	3208.4743	3758.8312
OCC(C#N)N1CC1	OC[C@@H](C#N)N1CC1	
InChI=1S/C5H8N2O/c6-3-5(4-8)7-1-2-7/h5,8H,1-2,4H2	InChI=1S/C5H8N2O/c6-3-5(4-8)7-1-2-7/h5,8H,1-2,4H2/t5-/m1/s1
