15
gdb 124376	5.05541	1.01237	0.84789	3.8712	68.99	-0.2316	0.0014	0.233	1292.0427	0.113053	-453.991765	-453.983503	-453.982559	-454.026173	29.092	
C	-0.2162293085	 1.5246917301	 0.0321940348	-0.48535
C	 0.1447276429	 0.0615717477	-0.027338379	 0.410625
O	 1.2563468225	-0.3927014589	-0.025462638	-0.323497
O	-0.9926753684	-0.6848855415	-0.0845366884	-0.270093
C	-0.9426478209	-2.0588350571	-0.1469690126	 0.272446
C	-2.093962146	-2.8168540406	-0.2093258341	-0.139693
N	-1.6720481019	-4.1029486336	-0.2582431728	-0.173422
N	-0.3358873564	-4.2301296334	-0.2319506145	-0.218098
C	 0.1281625648	-2.9835874963	-0.1636858391	-0.10045
H	 0.6956386536	 2.1183025373	 0.0782306748	 0.15213
H	-0.8003005424	 1.8040741052	-0.8492406024	 0.153284
H	-0.8367200594	 1.7235058617	 0.9105900827	 0.153295
H	-3.1334610871	-2.5349667938	-0.2212437638	 0.140326
H	-2.2395350221	-4.9312440892	-0.3099837828	 0.279141
H	 1.1842174395	-2.7884123676	-0.1295488548	 0.149356
36.4773	66.2544	98.6611	176.3987	348.9517	349.7687	363.9647	504.0454	589.363	593.6159	650.2677	697.5589	744.7138	771.5576	891.673	920.7821	943.1975	1005.1319	1033.9269	1060.5637	1068.5948	1162.0366	1241.3517	1254.7922	1336.7741	1389.0565	1395.0188	1409.5309	1469.2731	1475.5369	1502.9651	1609.9979	1837.9373	3057.8416	3122.4312	3171.9917	3276.9277	3314.8116	3680.7216
CC(=O)OC1=CNN=C1	CC(=O)Oc1c[nH]nc1	
InChI=1S/C5H6N2O2/c1-4(8)9-5-2-6-7-3-5/h2-3H,1H3,(H,6,7)	InChI=1S/C5H6N2O2/c1-4(8)9-5-2-6-7-3-5/h2-3H,1H3,(H,6,7)
