17
gdb 79644	2.2185	1.98679	1.6275	4.0397	66.38	-0.2296	0.0432	0.2728	910.0338	0.136729	-458.915487	-458.908127	-458.907183	-458.946994	29.675	
O	 0.2869349066	 1.3448659871	 0.1456657871	-0.419687
C	 0.0262127232	-0.0013495183	-0.0072255065	 0.149573
C	-1.3466686287	-0.6528275282	 0.045108086	-0.158658
C	-2.5589258363	 0.1895870232	-0.272153297	 0.04044
O	-2.2828372695	 1.5673685365	-0.6358273553	-0.266645
C	-2.5271920628	 0.6138568446	-1.6783470395	-0.017351
C	-1.2547840106	 0.0653700787	-2.3361008384	 0.080725
O	-0.4212081742	 1.0633883779	-2.9032372338	-0.419355
C	-0.5046261239	-0.6963766257	-1.2397070658	-0.143843
H	-0.4525627644	 1.8257652595	-0.2527659039	 0.300534
H	 0.7994161881	-0.5747941931	 0.4976541626	 0.106002
H	-1.5088556915	-1.5260335887	 0.667050196	 0.087925
H	-3.4797865643	 0.0546356224	 0.2868406699	 0.109652
H	-3.4125238663	 0.8155135083	-2.2783559185	 0.10049
H	-1.5692078979	-0.6598280063	-3.1045650506	 0.073394
H	-0.9045833358	 1.4949815408	-3.6157331744	 0.28581
H	-0.0009550517	-1.6056907187	-1.5494455778	 0.090994
116.1198	191.3529	280.1002	297.7636	340.6675	386.8223	491.5323	541.8386	585.9557	642.7967	709.8431	726.0043	751.3118	787.3078	843.7627	856.3028	885.144	932.7495	1009.4514	1032.2674	1045.6153	1065.9543	1076.3547	1104.9393	1123.5819	1129.3323	1225.3254	1231.6709	1260.723	1308.7668	1335.9682	1344.5657	1362.7521	1376.0541	1401.4858	1448.5336	1492.831	2966.0569	3132.2928	3142.3457	3159.708	3163.8029	3177.1688	3723.158	3809.2162
OC1C2C3OC3C(O)C12	O[C@H]1[C@H]2[C@H]3O[C@H]3[C@@H](O)[C@@H]12	
InChI=1S/C6H8O3/c7-3-1-2(3)5-6(9-5)4(1)8/h1-8H	InChI=1S/C6H8O3/c7-3-1-2(3)5-6(9-5)4(1)8/h1-8H/t1-,2+,3-,4+,5-,6+/m1/s1
