17
gdb 79280	2.99571	1.65715	1.48875	3.1672	70.45	-0.2252	-0.0175	0.2077	944.0217	0.137512	-421.837071	-421.830135	-421.829191	-421.868238	27.905	
C	-0.0827841438	 1.5541068633	-0.0000393296	-0.417681
C	 0.0155110782	 0.0316713897	 0.0196192702	 0.004416
C	 0.9336680669	-0.5507654027	-1.0670015365	-0.121015
C	 2.2780853052	-0.6448867344	-0.4243053752	 0.102158
O	 2.183807638	-0.1692671874	 0.9104108946	-0.26073
C	 0.8313853852	-0.5615873219	 1.201343551	-0.0923
C	 0.8410796417	-2.0589394667	 0.7959543141	 0.472697
O	 0.4380681819	-3.0205877017	 1.3893278403	-0.336979
C	 1.4582917502	-1.9184418958	-0.5616737298	-0.257446
H	 0.9048496062	 2.0047766134	 0.1280543592	 0.137146
H	-0.4997465129	 1.9050576757	-0.9499769408	 0.116648
H	-0.7323536759	 1.9160804655	 0.8032260212	 0.119496
H	-0.9804178319	-0.4245212329	-0.0099311004	 0.093492
H	 0.796640902	-0.3607282736	-2.123068442	 0.104817
H	 3.2335126239	-0.4800405446	-0.9003292211	 0.120405
H	 0.5606451302	-0.3128458185	 2.2229220551	 0.100669
H	 1.7110510948	-2.7461987272	-1.2066962002	 0.114206
141.4382	211.4599	219.475	263.8928	420.4726	491.0142	545.4174	619.9463	698.1237	739.1713	771.3267	799.6959	830.6435	837.2019	873.1749	924.8901	936.6339	977.8011	984.9262	1024.346	1049.3589	1065.6905	1076.5092	1086.278	1125.0927	1156.7674	1195.5083	1245.1479	1260.9824	1270.2581	1313.2851	1372.2037	1378.6129	1406.1816	1493.4805	1501.6281	1878.553	3036.9856	3049.9153	3100.7308	3123.5714	3180.922	3208.9664	3231.104	3241.9317
CC1C2C3OC1C(=O)C23	C[C@H]1[C@H]2[C@H]3O[C@@H]1C(=O)[C@@H]23	
InChI=1S/C7H8O2/c1-2-3-4-5(8)6(2)9-7(3)4/h2-4,6-7H,1H3	InChI=1S/C7H8O2/c1-2-3-4-5(8)6(2)9-7(3)4/h2-4,6-7H,1H3/t2-,3+,4+,6-,7+/m0/s1
