18
gdb 10084	2.19377	1.5649	1.02793	3.1945	65.67	-0.2766	0.001	0.2776	1164.2598	0.151485	-422.100827	-422.091406	-422.090462	-422.135918	32.467	
C	-0.1423385839	 1.5442246908	 0.3284922516	-0.399618
C	 0.0179874294	 0.030008671	 0.1813945373	-0.167792
C	 0.6690974731	-0.3967628496	-1.1324498265	 0.082585
C	 0.7977259302	-1.914338828	-1.2871940269	-0.066874
O	-0.4552166343	-2.563244961	-1.2537716829	-0.413379
O	-0.1603457539	 0.0577981144	-2.2304635689	-0.205593
C	 0.3865759733	 0.8264166395	-3.1913986843	 0.171476
O	-0.2219656219	 1.1911177304	-4.1515042243	-0.273812
H	 0.8241910418	 2.0580460072	 0.2695317433	 0.111911
H	-0.7891612895	 1.9510189808	-0.4536566771	 0.137339
H	-0.5901796936	 1.7933798565	 1.2945799499	 0.122872
H	 0.6396933255	-0.3636190502	 0.9948824997	 0.10438
H	-0.9508062285	-0.4724671143	 0.2602298922	 0.125801
H	 1.6646031021	 0.0606865116	-1.2289927377	 0.083852
H	 1.3423282091	-2.1328713503	-2.2195522548	 0.093878
H	 1.3861806961	-2.3164595526	-0.4557326406	 0.115715
H	-0.9889667678	-2.1757385568	-1.9575717275	 0.296773
H	 1.4449473229	 1.0798889906	-2.9863650424	 0.080485
42.1965	91.9568	111.0873	148.2435	185.1119	233.8354	272.1122	319.291	358.732	431.1914	469.1975	587.2831	692.5493	793.5478	864.7209	920.1394	973.7039	999.6778	1046.1141	1054.793	1086.3803	1136.5287	1153.1738	1201.1069	1237.7663	1282.539	1310.5181	1367.2899	1376.954	1408.701	1414.044	1426.4315	1439.2296	1482.4159	1497.7074	1500.1272	1510.117	1863.8936	2949.4808	2979.3327	3008.3274	3035.3874	3039.0981	3078.6072	3087.2613	3107.306	3121.4133	3797.7603
CCC(CO)OC=O	CC[C@@H](CO)OC=O	
InChI=1S/C5H10O3/c1-2-5(3-6)8-4-7/h4-6H,2-3H2,1H3	InChI=1S/C5H10O3/c1-2-5(3-6)8-4-7/h4-6H,2-3H2,1H3/t5-/m0/s1
