18
gdb 112321	3.10429	1.20544	0.95725	5.037	71.5	-0.2481	-0.0069	0.2412	1214.8585	0.148041	-439.084415	-439.076087	-439.075143	-439.117863	31.151	
O	-0.1354451881	 1.5023198315	 0.0557805342	-0.418693
C	 0.0376967982	 0.096324616	 0.1292484088	-0.089545
C	-1.3357941412	-0.5428531927	-0.0307690633	 0.005984
C	-2.0106599929	-0.2904537784	-1.3897475154	-0.352306
C	-2.6176741301	-1.6349164968	-1.817760733	 0.38209
O	-3.3310205913	-1.8253741639	-2.7599194526	-0.304557
N	-2.2093050513	-2.6840967561	-0.914554012	-0.136921
C	-0.7362755157	-2.8917787402	-0.9834334275	-0.25572
C	-1.3256274396	-2.0677770026	 0.0947826353	-0.051384
H	 0.7269888238	 1.9206322017	 0.1332187273	 0.290907
H	 0.7104976285	-0.266572681	-0.6645394455	 0.08614
H	 0.4759286411	-0.2055263503	 1.0942321759	 0.091075
H	-1.9731030809	-0.1466553431	 0.7672325604	 0.098336
H	-2.7858135529	 0.4767982939	-1.3594963653	 0.148947
H	-1.2997984164	 0.0247665482	-2.1617186886	 0.138704
H	-0.42190601	-3.9117869391	-0.7876908783	 0.135986
H	-0.1963043687	-2.3996121795	-1.7886669177	 0.12676
H	-1.4037933027	-2.4944816977	 1.0902518573	 0.104199
66.8698	101.9233	153.6934	221.1735	273.113	318.3642	406.91	440.8772	492.7875	564.8633	645.0471	665.5038	749.8071	825.3058	847.398	901.0483	920.0599	985.2069	1000.479	1064.9838	1082.573	1093.3191	1104.1567	1108.2599	1138.2677	1174.9819	1188.0233	1237.5711	1257.5103	1273.476	1281.4599	1327.4535	1362.7174	1397.3313	1457.9437	1461.1118	1509.3149	1521.2006	1868.0873	2963.842	2992.4805	3051.2331	3061.0059	3114.0071	3122.62	3153.3293	3202.6493	3831.2181
OCC1CC(=O)N2CC12	OC[C@H]1CC(=O)N2C[C@@H]12	
InChI=1S/C6H9NO2/c8-3-4-1-6(9)7-2-5(4)7/h4-5,8H,1-3H2	InChI=1S/C6H9NO2/c8-3-4-1-6(9)7-2-5(4)7/h4-5,8H,1-3H2/t4-,5+,7?/m1/s1
