16
gdb 17565	3.33889	2.14012	1.66981	1.1856	64.84	-0.2242	0.0676	0.2918	815.0658	0.12924	-383.669193	-383.662106	-383.661161	-383.700033	28.156	
O	-0.1019644558	 1.4458923963	 0.0294625208	-0.443805
C	 0.0347706675	 0.0766820364	 0.0105928997	 0.245437
C	-0.8540842558	-0.8163292845	 0.8303820277	-0.331961
C	 0.6459047269	-0.9502521884	 0.9445797952	 0.004117
O	 1.1716105734	-1.7163009184	-0.1501927849	-0.31498
C	 0.6859567151	-0.7366028346	-1.0846207412	 0.399548
C	 0.2652346888	-1.0741582971	-2.4711463237	-0.336095
C	 1.5232065436	-0.2475143137	-2.2195448148	-0.357659
H	 0.7719078948	 1.835180266	-0.0935899683	 0.290571
H	-1.3184682189	-0.3036289669	 1.6678147298	 0.12129
H	-1.4443358803	-1.6061467498	 0.3736680236	 0.117956
H	 1.2235818756	-0.903687414	 1.8590903803	 0.111293
H	 0.4051813851	-2.1005730601	-2.7920071819	 0.128401
H	-0.6081709504	-0.5793896261	-2.8830475757	 0.123514
H	 1.4966297126	 0.8105821717	-2.4620205287	 0.113787
H	 2.4820147479	-0.7300071469	-2.3736963578	 0.128585
149.8488	206.3629	217.6959	340.1129	387.5699	412.2386	454.2521	511.6258	588.1745	655.486	760.2306	812.4611	866.035	874.6538	899.0762	929.6167	965.0745	986.2592	1001.4837	1013.7001	1044.2817	1066.9865	1068.907	1089.8879	1157.409	1188.4778	1237.8448	1270.0864	1310.1718	1401.5247	1418.0318	1444.678	1487.8758	1507.4762	3113.7203	3125.9207	3132.4886	3195.3173	3210.7007	3212.9849	3227.19	3785.7233
OC12CC1OC21CC1	O[C@]12C[C@H]1OC12CC1	
InChI=1S/C6H8O2/c7-6-3-4(6)8-5(6)1-2-5/h4,7H,1-3H2	InChI=1S/C6H8O2/c7-6-3-4(6)8-5(6)1-2-5/h4,7H,1-3H2/t4-,6-/m1/s1
