23
gdb 120653	4.17124	0.73031	0.68362	2.0033	86.86	-0.2389	0.0724	0.3113	1750.7057	0.204914	-388.258605	-388.248784	-388.24784	-388.294107	35.968	
C	-0.1948211169	 1.566080603	-0.0294109787	-0.3814
C	-0.2114599909	 0.0408431759	-0.1590159513	-0.155386
C	 0.9334855515	-0.5008692193	-1.0254430393	-0.195044
C	 0.9268103868	-2.0103589809	-1.1497566582	-0.064498
C	 0.0718425787	-2.6946928637	-2.1979480831	-0.35397
C	 1.5651798949	-2.6967552388	-2.3190622327	 0.279753
C	 2.4433536996	-2.1095789563	-3.4210773884	-0.13615
O	 3.3183238687	-3.2579511214	-3.3630911768	-0.277421
C	 2.5253529703	-3.8817037586	-2.3287974185	-0.136711
H	 0.7412850952	 1.9151343308	 0.4206131351	 0.114197
H	-0.2887793007	 2.0483377974	-1.0089533302	 0.113409
H	-1.018295639	 1.9230739528	 0.5968384259	 0.112232
H	-0.1523691484	-0.4133196092	 0.838876863	 0.094904
H	-1.168411306	-0.2864817455	-0.5843390529	 0.099421
H	 0.8727897558	-0.052887067	-2.0269073479	 0.091386
H	 1.8935142044	-0.1701620126	-0.6047917401	 0.096631
H	 1.0125576731	-2.538429899	-0.2008103833	 0.081621
H	-0.4249987046	-3.6256689442	-1.9424638668	 0.111352
H	-0.4891697084	-2.064476218	-2.8831647736	 0.110388
H	 1.9712591151	-2.0035202397	-4.4070561336	 0.09845
H	 2.9728020407	-1.1789780376	-3.1763090836	 0.100078
H	 3.1035212094	-4.0421136055	-1.4084935679	 0.098064
H	 2.1028370707	-4.8408074625	-2.6582952069	 0.098691
66.0343	83.7273	91.5909	116.7494	198.4463	244.1023	255.4963	294.5602	358.5535	440.6074	457.4778	592.1307	745.5828	828.2642	852.1939	864.0255	885.5406	889.1671	902.9643	949.8358	984.0915	1011.0092	1029.5246	1043.2651	1055.352	1080.5276	1108.6611	1130.8693	1137.0175	1151.3117	1160.6917	1188.7458	1226.9142	1270.2273	1297.9375	1310.4407	1324.2422	1329.9163	1376.5403	1394.0516	1411.5526	1441.7412	1481.9433	1494.1269	1499.0444	1503.0704	1509.7167	1511.0663	1535.096	2990.7358	3001.0464	3004.5841	3020.139	3029.0945	3031.9183	3034.7706	3037.6396	3057.7845	3095.5708	3102.0816	3113.0014	3114.4273	3198.3209
CCCC1CC11COC1	CCC[C@H]1CC21COC2	
InChI=1S/C8H14O/c1-2-3-7-4-8(7)5-9-6-8/h7H,2-6H2,1H3	InChI=1S/C8H14O/c1-2-3-7-4-8(7)5-9-6-8/h7H,2-6H2,1H3/t7-/m0/s1
