23
gdb 109391	3.08299	1.05168	0.85646	1.5062	88.57	-0.2318	0.0146	0.2464	1441.5473	0.207004	-388.299316	-388.290061	-388.289117	-388.333542	35.297	
C	-0.036965598	 1.5996883397	 0.2424605714	-0.371073
C	-0.0139401939	 0.1196755534	-0.1793346161	-0.276538
C	-1.3648628107	-0.5520401117	-0.0796973233	 0.338117
C	-2.0171858478	-0.9442158869	-1.1780261022	-0.168462
C	-3.3773302126	-1.6049761151	-1.2226771616	-0.133097
O	-3.5048119905	-2.7961695032	-0.4620649011	-0.234191
C	-3.671657675	-2.5973880615	 0.9258631736	-0.062416
C	-2.4053719135	-2.1535996861	 1.6618396082	-0.195872
C	-1.9252766512	-0.7321688997	 1.3210942941	-0.299839
H	 0.9625542315	 2.0396856332	 0.1700998783	 0.113411
H	-0.7099391737	 2.1748761689	-0.4012773786	 0.119335
H	-0.3782865963	 1.7220255179	 1.2754930028	 0.117839
H	 0.3571392152	 0.04357263	-1.2069272605	 0.099244
H	 0.7062016816	-0.4168477255	 0.4549232237	 0.099064
H	-1.5489556936	-0.7714681345	-2.1452308532	 0.077325
H	-4.1592981343	-0.8879842514	-0.9119023689	 0.089573
H	-3.602740443	-1.8951334925	-2.2532246162	 0.106146
H	-4.4798392769	-1.8660642363	 1.108360905	 0.077682
H	-4.006757977	-3.5616721513	 1.3230425634	 0.101598
H	-2.6151373102	-2.2051753781	 2.7382886135	 0.090673
H	-1.6062014538	-2.8742271474	 1.4541314881	 0.106356
H	-1.1618144807	-0.440463494	 2.0503080705	 0.09775
H	-2.7616171355	-0.0331961879	 1.4740087593	 0.107374
69.3439	82.3631	171.1898	210.5047	216.6515	263.7621	332.8684	383.9845	391.9615	431.6345	486.081	597.4673	654.1684	735.6386	787.6971	831.187	853.2498	889.0796	910.5362	942.8356	967.8869	1023.8455	1049.7617	1056.1447	1074.9695	1095.3826	1128.8621	1141.6675	1195.4928	1222.9593	1273.5283	1281.6008	1286.3744	1336.0905	1343.6473	1359.7491	1377.3477	1398.837	1401.2239	1407.5221	1424.1486	1470.128	1475.8539	1483.0791	1486.2015	1496.3268	1498.7668	1507.2709	1729.1123	2934.328	2944.4449	2996.6414	3005.7814	3020.3972	3034.4589	3060.703	3064.1914	3064.9445	3073.9861	3075.8598	3104.3322	3108.3192	3140.0471
CCC1=CCOCCC1	CCC1=CCOCCC1	
InChI=1S/C8H14O/c1-2-8-4-3-6-9-7-5-8/h5H,2-4,6-7H2,1H3	InChI=1S/C8H14O/c1-2-8-4-3-6-9-7-5-8/h5H,2-4,6-7H2,1H3
