17
gdb 77234	3.2431	1.0942	0.91721	2.1321	69.29	-0.2496	-0.0403	0.2093	1257.2055	0.132221	-458.953729	-458.94435	-458.943406	-458.98961	32.026	
C	-0.5051077191	 1.1017961171	-0.0656061823	-0.432921
C	 0.0084590484	-0.301967286	 0.2154296537	-0.071134
C	 1.3234893725	-0.7453575992	-0.4648570661	 0.058094
O	 1.9290905175	-1.1052288577	 0.7927949438	-0.290401
C	 0.8075134386	-0.6033672721	 1.5313861831	 0.032393
C	 1.1325830255	 0.6093877216	 2.3776428873	 0.140826
O	 2.1604718827	 1.2295364211	 2.3212441413	-0.232671
C	 1.2584616492	-1.9277146961	-1.4079115947	 0.122603
O	 0.377353474	-2.0908590755	-2.2116853615	-0.237753
H	 0.2692344407	 1.8575747035	 0.0980842745	 0.140847
H	-0.8332621533	 1.1728377297	-1.1071647359	 0.14031
H	-1.3626825212	 1.3478066079	 0.568753212	 0.126671
H	-0.784007584	-1.035307496	 0.0524478188	 0.110217
H	 1.8731583956	 0.0719855844	-0.9577692003	 0.115175
H	 0.359965092	-1.3720244624	 2.1774204116	 0.101258
H	 0.3058702778	 0.9019644599	 3.0674128962	 0.076907
H	 2.1003637232	-2.6454402102	-1.2888355914	 0.09958
28.5702	68.2661	86.7699	143.3327	217.4286	239.7402	250.8586	288.9363	387.7337	474.8225	555.3859	713.6702	755.9693	794.96	803.0165	917.8388	950.8302	969.7668	1046.1489	1073.9329	1075.4922	1106.341	1138.4751	1141.2799	1219.0779	1240.6867	1275.2129	1319.9277	1365.2716	1388.5778	1399.2057	1415.1001	1417.7049	1498.2	1500.6025	1830.866	1839.2624	2854.7443	2895.3505	2987.6608	3010.3737	3038.0884	3088.1448	3108.055	3116.5161
CC1C(OC1C=O)C=O	C[C@H]1[C@@H](O[C@H]1C=O)C=O	
InChI=1S/C6H8O3/c1-4-5(2-7)9-6(4)3-8/h2-6H,1H3	InChI=1S/C6H8O3/c1-4-5(2-7)9-6(4)3-8/h2-6H,1H3/t5-,6-/m0/s1
