20
gdb 50758	3.1064	1.18979	0.91046	3.8738	85.27	-0.2188	-0.0011	0.2177	1292.5142	0.173639	-403.190588	-403.182309	-403.181365	-403.223811	31.621	
O	-0.1039279408	 0.0426973035	 0.9329471947	-0.326543
C	-0.0326811728	 1.2194077251	 0.660700534	 0.147726
N	 0.9936421472	 1.8150772387	-0.0431034097	-0.078136
C	 1.0092760421	 3.268084295	-0.1751679128	-0.163671
C	 1.2332828339	 3.8042662977	-1.5919733029	-0.192397
C	 2.6853199288	 3.6917243173	-2.0624429972	-0.196463
C	 3.1402166672	 2.2661044814	-2.3940793977	-0.255441
C	 3.0297956243	 1.2170167149	-1.3181370464	-0.115802
C	 2.0989938757	 1.0134777623	-0.3814636994	 0.022992
H	-0.8070932722	 1.9535511004	 0.9530539778	 0.077826
H	 0.0460375765	 3.6244289989	 0.2021092701	 0.112345
H	 1.7877255308	 3.6794346107	 0.4837602439	 0.112329
H	 0.5569679002	 3.2960229691	-2.2909236403	 0.105167
H	 0.9429039481	 4.8615882409	-1.5836014723	 0.102801
H	 2.8225693601	 4.3085278919	-2.9578192194	 0.097257
H	 3.3406481726	 4.1156217359	-1.2898164863	 0.098339
H	 2.5679131693	 1.9160568381	-3.2683073522	 0.116076
H	 4.1820813859	 2.3045914436	-2.7321182443	 0.104551
H	 3.7879747009	 0.4395016064	-1.3647465209	 0.0964
H	 2.1249415721	 0.1101847482	 0.2173637012	 0.134643
59.0448	124.362	191.6434	272.8815	296.6082	337.5498	361.8231	391.8927	471.0277	532.0913	606.6475	731.5349	756.8965	792.7469	848.6724	890.8425	904.2778	932.815	987.089	990.2433	1020.6329	1050.0246	1097.3301	1108.4481	1175.1734	1217.7037	1232.5574	1268.2915	1298.6729	1353.6372	1374.5471	1375.6255	1384.5304	1396.7371	1411.0811	1445.2031	1450.1476	1473.2773	1482.9821	1489.6715	1496.7281	1733.0723	1797.844	2950.1092	2981.686	2999.989	3018.0738	3025.6662	3053.2287	3063.8324	3070.8708	3080.6203	3156.9617	3203.0261
O=CN1CCCCC=C1	O=CN1CCCCC=C1	
InChI=1S/C7H11NO/c9-7-8-5-3-1-2-4-6-8/h3,5,7H,1-2,4,6H2	InChI=1S/C7H11NO/c9-7-8-5-3-1-2-4-6-8/h3,5,7H,1-2,4,6H2
