22
gdb 59204	3.16223	1.05936	1.05377	1.9661	83.48	-0.2179	0.0723	0.2902	1321.1787	0.192618	-404.263124	-404.253795	-404.25285	-404.297019	35.532	
C	 0.0243259338	 1.6326434082	-0.1656876749	-0.431778
C	-0.0003434162	 0.1200441668	-0.0629047634	 0.037019
C	 1.2353670457	-0.6908725931	-0.5468459287	-0.003484
O	 2.0106090065	-0.1855837136	 0.6095890473	-0.312372
C	 0.6861336679	-0.5665360776	 1.1520659202	-0.003511
C	 0.8103864155	-1.8905121212	 0.3463604837	 0.064862
N	-0.3608369388	-2.6670293926	 0.0245097132	-0.065654
C	-0.1208481982	-3.5571432969	-1.1028372668	-0.321026
C	-0.8612520462	-3.3891661478	 1.1859397629	-0.321024
H	 1.00247455	 2.0240079183	 0.1218848629	 0.13537
H	-0.1937991839	 1.9560791733	-1.1894171808	 0.112637
H	-0.7353311184	 2.078767383	 0.4855441305	 0.112636
H	-0.95922729	-0.3218759337	-0.3405646462	 0.087535
H	 1.7348519506	-0.693017111	-1.517129026	 0.086431
H	 0.5262105353	-0.4193944573	 2.2215102106	 0.086431
H	 1.6790622949	-2.4873765734	 0.670887167	 0.064883
H	 0.6566021928	-4.3173886832	-0.8974823293	 0.095326
H	-1.0459835246	-4.0822157658	-1.36030267	 0.119027
H	 0.1948745381	-2.9781539019	-1.9757259455	 0.12117
H	-1.0893227841	-2.6868480956	 1.9931436779	 0.121169
H	-1.7843270309	-3.9148925802	 0.9224913951	 0.119028
H	-0.1431303997	-4.1357586746	 1.5751443203	 0.095326
65.5567	151.5755	177.0498	221.6329	241.6565	244.7282	286.1016	301.7235	337.6447	410.2874	469.3988	567.6457	659.3346	755.1761	787.0909	806.5717	890.5803	908.7523	920.4	936.84	1025.6019	1057.7622	1067.512	1082.2729	1089.9564	1123.4677	1128.1972	1149.827	1151.2411	1190.185	1204.9181	1220.2554	1257.1603	1261.5774	1270.8135	1319.1728	1369.9049	1391.3653	1405.1094	1442.6682	1476.9303	1481.5013	1493.0018	1497.0644	1497.9529	1505.0841	1513.3125	2926.6138	2933.831	2970.9472	3034.3049	3062.65	3064.2925	3090.3068	3096.8464	3099.7017	3107.2161	3107.65	3110.0216	3131.6748
CC1C2OC1C2N(C)C	C[C@H]1[C@H]2O[C@@H]1[C@H]2N(C)C	
InChI=1S/C7H13NO/c1-4-6-5(8(2)3)7(4)9-6/h4-7H,1-3H3	InChI=1S/C7H13NO/c1-4-6-5(8(2)3)7(4)9-6/h4-7H,1-3H3/t4-,5-,6+,7-
