16
gdb 44405	3.56223	1.52895	1.50978	3.0707	74.78	-0.2279	-0.0339	0.194	922.3432	0.124487	-400.641833	-400.635248	-400.634304	-400.672564	27.338	
O	-0.067124046	-0.0206587845	-0.3629836075	-0.282059
C	-0.0938822139	 1.128287582	-0.0718205268	 0.348569
C	-1.2317373316	 2.1882002286	 0.2780630066	-0.307038
N	-0.163587176	 2.863444294	 1.0494019565	-0.076968
C	 0.6852071985	 4.1204834231	 0.9845719906	-0.082958
C	 1.9067336396	 3.0927023044	 1.1279660829	-0.27832
C	 0.8903759169	 2.3067699502	 0.1966279244	 0.085096
C	 0.931595324	 3.2596838628	-1.0647816016	-0.145658
C	 0.7836599159	 4.4591745779	-0.5070572272	-0.061777
H	-1.5689611428	 2.6743459546	-0.6484747547	 0.122382
H	-2.084082796	 1.8543766405	 0.8725780303	 0.128402
H	 0.4947081129	 4.8995153122	 1.7210760287	 0.085704
H	 2.8613583552	 3.4054253078	 0.7050020171	 0.110226
H	 1.9997174755	 2.6651726824	 2.1270269429	 0.123627
H	 1.0973762547	 2.9625169467	-2.0902532275	 0.11559
H	 0.772859963	 5.4460267073	-0.9468859945	 0.115183
119.1888	262.5656	295.1376	448.9809	474.7074	533.0276	541.7868	614.5351	647.9392	693.4262	734.4277	770.8354	806.936	858.9815	879.8509	908.5926	923.5151	932.7847	966.5237	1032.1597	1037.3424	1061.4144	1092.5013	1111.6397	1123.9125	1157.3343	1176.6028	1206.8849	1227.8015	1247.0344	1287.2101	1463.7792	1473.2865	1615.6583	1922.9033	3007.2535	3085.3045	3116.712	3136.3382	3167.6356	3225.4764	3253.673
O=C1CN2C3CC12C=C3	O=C1CN2[C@H]3C[C@@]12C=C3	
InChI=1S/C7H7NO/c9-6-4-8-5-1-2-7(6,8)3-5/h1-2,5H,3-4H2	InChI=1S/C7H7NO/c9-6-4-8-5-1-2-7(6,8)3-5/h1-2,5H,3-4H2/t5-,7+/m1/s1
