14
gdb 116997	5.02554	0.56061	0.5075	3.9947	79.11	-0.2846	-0.1058	0.1788	1993.3181	0.098327	-436.673208	-436.663541	-436.662597	-436.709375	32.103	
O	-0.2032758924	 1.4591281867	 0.0119689373	-0.423073
C	 0.0144596816	 0.058903722	 0.0025571855	-0.086932
C	-1.3617070115	-0.5938757167	 0.0116388186	-0.288825
C	-1.3014890821	-2.1021739308	 0.0030319195	 0.183299
O	-0.2747927059	-2.7446738298	-0.0100956699	-0.271669
C	-2.5942267	-2.7833166289	 0.0115803049	-0.007431
C	-3.6575254392	-3.3604281156	 0.0185146647	 0.18526
C	-4.8582497538	-4.0094500387	 0.0265280776	 0.2107
N	-5.8822535143	-4.5574636111	 0.0338301293	-0.316919
H	 0.6531940689	 1.8962635387	 0.0069195354	 0.292637
H	 0.5704714244	-0.2656287025	-0.8884503643	 0.109696
H	 0.5865943705	-0.2750140953	 0.8797845087	 0.109685
H	-1.9332137075	-0.2689930236	 0.8911919586	 0.151776
H	-1.9490789487	-0.2597344044	-0.8538911959	 0.151795
52.8498	56.856	89.228	124.1813	174.0969	239.1881	260.9943	302.8567	360.6167	393.043	542.231	555.6965	588.6677	602.5589	783.1968	802.4666	965.9686	1036.3735	1073.6454	1080.356	1165.6957	1206.8836	1258.2163	1297.892	1354.2164	1442.6761	1468.8608	1523.5648	1763.6767	2251.3848	2386.8259	2996.9825	3026.2232	3032.0683	3066.5789	3833.5985
OCCC(=O)C#CC#N	OCCC(=O)C#CC#N	
InChI=1S/C6H5NO2/c7-4-1-2-6(9)3-5-8/h8H,3,5H2	InChI=1S/C6H5NO2/c7-4-1-2-6(9)3-5-8/h8H,3,5H2
