17
gdb 47125	3.15916	1.15863	0.88342	2.5494	84.34	-0.2359	-0.0278	0.2081	1275.6554	0.13537	-384.698865	-384.690484	-384.68954	-384.732169	31.672	
O	 0.0212465044	-0.0689067353	-0.0976836479	-0.306393
C	-0.0107436942	 1.1286478584	 0.0563023585	 0.382602
C	-1.3006050751	 1.9269999712	 0.0850210897	-0.305448
C	-1.3653484887	 2.8395915031	 1.3243373948	-0.265709
C	-0.0849940217	 3.594647454	 1.540570057	-0.139174
C	 1.0995434478	 3.2160328754	 1.0341499794	 0.130961
C	 1.2656980562	 1.9488546343	 0.2124481652	-0.403843
C	 2.2840535813	 3.972526907	 1.2599071251	 0.225558
C	 3.3167086704	 4.573042794	 1.4180969532	-0.407306
H	-1.3151257646	 2.5583644537	-0.8141237338	 0.125753
H	-2.1464607407	 1.2385895777	 0.0333794148	 0.122479
H	-2.1995364748	 3.5431893687	 1.2231115062	 0.118588
H	-1.5953321336	 2.2403710708	 2.2177157995	 0.131009
H	-0.1303825327	 4.4934888749	 2.1480212229	 0.101771
H	 2.0380098171	 1.3033818451	 0.6426088372	 0.146847
H	 1.6238519646	 2.207629631	-0.7948720269	 0.145229
H	 4.2174577244	 5.1150862161	 1.5675397349	 0.197078
68.5068	115.8732	146.0186	199.0418	348.2003	387.3997	416.4134	449.5232	524.3826	556.3783	561.3099	598.7727	635.2804	643.7866	757.0746	833.0154	850.2958	906.5612	924.7824	962.0738	1050.1932	1066.0558	1135.4888	1142.6022	1205.1492	1216.8965	1246.1483	1306.3971	1328.5894	1360.2121	1374.9219	1443.0735	1465.4627	1481.9529	1695.6993	1823.249	2219.9951	3003.4475	3013.2962	3024.0793	3055.6369	3081.841	3116.1063	3176.9071	3502.6394
O=C1CCC=C(C1)C#C	O=C1CCC=C(C1)C#C	
InChI=1S/C8H8O/c1-2-7-4-3-5-8(9)6-7/h1,4H,3,5-6H2	InChI=1S/C8H8O/c1-2-7-4-3-5-8(9)6-7/h1,4H,3,5-6H2
