22
gdb 88682	3.13654	0.99856	0.90847	0.7912	84.44	-0.2219	0.0832	0.3051	1409.7408	0.19145	-404.30366	-404.293565	-404.292621	-404.338604	38.087	
C	-0.1457414675	 1.5315593471	-0.1625662185	-0.409998
C	 0.0025225274	 0.0384244908	 0.0283601094	 0.031297
C	 1.3054176675	-0.6503030753	-0.2036245733	-0.256273
N	 0.748112033	-0.5559240476	 1.1433049602	-0.088413
C	 1.4139581222	 0.2871964134	 2.0924499643	 0.017052
C	 0.7540079745	 0.4816880194	 3.4450150106	-0.372011
C	 2.0152385452	-0.3454010534	 3.3167758596	 0.37669
C	 1.9754501199	-1.8396385598	 3.5261476607	-0.446559
O	 3.2172004222	 0.2730539429	 3.7093029507	-0.468041
H	 0.7952374782	 2.0668616735	-0.0142487925	 0.121794
H	-0.4902321408	 1.7429966803	-1.180474222	 0.120381
H	-0.8849222393	 1.9467677124	 0.5310128516	 0.125769
H	-0.9032242796	-0.5219085438	-0.2017942203	 0.087422
H	 1.3493681245	-1.6468154109	-0.6360280387	 0.111014
H	 2.159770582	-0.0168332818	-0.4408307738	 0.109104
H	 1.9835600856	 1.1389367325	 1.7186085207	 0.084666
H	 0.8367792997	 1.4597537049	 3.9056162602	 0.108135
H	-0.1816094594	-0.0405307455	 3.6131787474	 0.11378
H	 1.0795401699	-2.2676104587	 3.0729746156	 0.136181
H	 2.8535609866	-2.3074085407	 3.0692754257	 0.120173
H	 1.9784419378	-2.0838343425	 4.5957744456	 0.09972
H	 3.2715962607	 0.220012503	 4.6701423567	 0.278118
50.4369	116.7912	145.7739	181.8339	208.1584	218.4914	289.4828	326.8395	377.3325	387.8048	412.3054	445.1603	459.189	556.7523	715.6718	744.9147	802.2689	875.5388	896.238	919.4139	920.4491	969.2931	994.8072	1030.1472	1035.992	1059.2808	1088.4354	1103.305	1113.05	1117.3244	1151.3787	1187.7747	1196.6586	1239.6938	1295.2437	1331.0635	1361.6248	1401.1496	1406.0477	1412.6567	1420.6771	1475.3481	1484.3862	1490.8871	1495.8406	1508.7535	1512.5431	3025.7232	3035.7501	3084.8057	3087.2642	3088.9954	3095.2705	3100.4534	3123.7504	3132.9701	3138.3484	3171.5563	3227.8489	3790.0469
CC1CN1C1CC1(C)O	C[C@H]1CN1[C@H]1C[C@]1(C)O	
InChI=1S/C7H13NO/c1-5-4-8(5)6-3-7(6,2)9/h5-6,9H,3-4H2,1-2H3	InChI=1S/C7H13NO/c1-5-4-8(5)6-3-7(6,2)9/h5-6,9H,3-4H2,1-2H3/t5-,6-,7-,8?/m0/s1
