17
gdb 86484	2.18761	1.4605	1.03973	3.2152	73.95	-0.255	-0.0505	0.2046	1176.5871	0.134589	-418.005382	-417.996282	-417.995338	-418.039772	32.597	
C	 0.5562708172	 1.5007488433	-0.1612237407	-0.412572
C	-0.0768667707	 0.1176862318	-0.1209888155	 0.084106
C	 0.3909642501	-0.8640275557	-1.2291696086	-0.320169
C	 1.1443003078	-1.6407126708	-0.1144622526	 0.11374
N	 0.4750900746	-0.8050879356	 0.9213393955	-0.375278
C	 0.7064898426	-3.1004813459	 0.0983077229	 0.140632
O	 0.0229526615	-3.7119055632	-0.6733412284	-0.231364
C	 2.6021751992	-1.5538035593	-0.1439380248	 0.229553
N	 3.7575330871	-1.4922065877	-0.1301693219	-0.330078
H	 1.6431642429	 1.4387742876	-0.2843105425	 0.13315
H	 0.151724296	 2.0826251486	-0.9962927161	 0.130192
H	 0.3456703022	 2.0526005915	 0.7614679706	 0.126767
H	-1.1638075647	 0.2078356299	-0.0258986554	 0.092905
H	-0.3888862001	-1.4779488798	-1.6792054645	 0.146273
H	 1.0202097378	-0.4328250037	-2.0068898699	 0.130802
H	 1.1008085682	-0.3739110208	 1.5943373122	 0.235703
H	 1.0341305684	-3.5185275303	 1.0728082697	 0.105636
56.8749	82.1778	171.476	176.7437	205.1332	259.5338	283.3748	358.7681	415.4749	494.2954	528.1915	568.7053	666.4005	737.8156	801.7221	857.0723	914.2328	936.4333	947.8346	1008.3728	1061.866	1075.0812	1136.5063	1173.0485	1185.7287	1197.7647	1258.8963	1304.4844	1338.7403	1399.2149	1410.3636	1416.2423	1485.1692	1492.7719	1496.1988	1842.9543	2338.916	2923.1231	3027.7892	3047.471	3099.2539	3100.928	3104.8321	3162.3613	3527.2039
CC1CC(N1)(C=O)C#N	C[C@H]1C[C@@](N1)(C=O)C#N	
InChI=1S/C6H8N2O/c1-5-2-6(3-7,4-9)8-5/h4-5,8H,2H2,1H3	InChI=1S/C6H8N2O/c1-5-2-6(3-7,4-9)8-5/h4-5,8H,2H2,1H3/t5-,6-/m0/s1
