23
gdb 123091	6.02358	0.46251	0.44692	3.592	84.79	-0.2414	0.0609	0.3023	2491.9701	0.205265	-421.661217	-421.649912	-421.648968	-421.699566	39.841	
C	-0.1841320235	 1.5343747912	 0.0524103785	-0.379717
C	-0.1591907296	 0.0061458611	 0.1406786307	-0.164448
C	 0.8648572072	-0.5223288819	 1.1509363342	-0.155795
C	 0.8903784419	-2.0507041504	 1.249062627	-0.183111
C	 1.9208998965	-2.559216698	 2.2613323928	-0.15825
N	 1.9457132959	-4.0097826011	 2.3506681521	-0.339628
C	 1.8887431372	-4.6579714572	 3.5625419785	 0.446262
N	 2.0782551596	-6.0366890233	 3.4687245309	-0.565097
O	 1.7138082691	-4.0953293473	 4.6277167387	-0.389483
H	 0.7917150954	 1.9295951902	-0.251369344	 0.112987
H	-0.9245434835	 1.8813722844	-0.6751385535	 0.110917
H	-0.4334900331	 1.9823013941	 1.0207416097	 0.115343
H	-1.1571314466	-0.3622109923	 0.4126220123	 0.096114
H	 0.0589776699	-0.4152819444	-0.8497417443	 0.092253
H	 1.8647094218	-0.1556362899	 0.8785729474	 0.091654
H	 0.6489136806	-0.0992632662	 2.1417510915	 0.099652
H	-0.0998037424	-2.4264097799	 1.5353389905	 0.103417
H	 1.1071248387	-2.4768833031	 0.2588991162	 0.082532
H	 2.918304637	-2.1741569416	 2.0027297719	 0.097303
H	 1.6882069431	-2.200500762	 3.266656252	 0.150072
H	 2.3214828686	-4.5171805362	 1.5656391891	 0.235439
H	 1.7372551085	-6.4924581335	 2.6347530574	 0.24305
H	 1.8093854277	-6.5081168727	 4.3195719408	 0.258533
26.7925	55.214	65.1666	102.6503	135.861	157.3353	248.894	264.4233	280.117	348.0241	361.8166	437.4412	460.227	542.513	575.8467	661.4569	735.4783	763.8576	778.6314	846.6157	898.2821	941.1453	992.9084	1021.2295	1042.1794	1068.368	1093.1009	1134.0534	1152.6899	1188.2798	1239.032	1268.9248	1300.4367	1322.9038	1328.1142	1338.0385	1355.5458	1399.5542	1409.532	1415.4509	1483.8436	1485.7113	1494.9351	1500.5146	1505.8468	1514.7394	1547.2179	1627.7926	1802.8017	2995.2097	3002.4528	3005.9044	3016.2972	3028.6466	3029.7229	3047.0437	3064.1296	3096.0447	3101.3275	3116.2737	3567.2151	3629.1421	3679.9259
CCCCCNC(N)=O	CCCCCNC(=O)N	
InChI=1S/C6H14N2O/c1-2-3-4-5-8-6(7)9/h2-5H2,1H3,(H3,7,8,9)	InChI=1S/C6H14N2O/c1-2-3-4-5-8-6(7)9/h2-5H2,1H3,(H3,7,8,9)
