17
gdb 11282	5.16342	1.25814	1.08911	3.3114	68.91	-0.2735	0.0311	0.3046	1079.4886	0.143395	-363.890511	-363.882712	-363.881768	-363.923411	28.374	
C	 0.2871994625	 1.6982289455	-0.0025623759	-0.412126
C	 0.0996930799	 0.1981393665	 0.126330309	 0.15875
C	 0.3388676019	-0.612874059	-1.1726889831	-0.267249
C	 1.1068911863	-1.8793660066	-0.6814109747	-0.142566
C	 1.0900401827	-1.7065194267	 0.8662045479	-0.101541
O	 1.0480488851	-0.3139863363	 1.0625735767	-0.24888
C	 0.5306032347	-3.1421543734	-1.1244472452	 0.257529
N	 0.0675434988	-4.1467577007	-1.4606015202	-0.324243
H	 1.2948237326	 1.9270067192	-0.3632067135	 0.125342
H	-0.439179538	 2.1136741434	-0.7074102753	 0.123241
H	 0.1467059216	 2.1870229603	 0.9650933866	 0.13304
H	-0.9151637747	-0.0192315615	 0.4986480928	 0.076493
H	-0.5970432537	-0.8692344495	-1.6717575074	 0.130993
H	 0.9543140699	-0.0507119622	-1.8789271979	 0.119483
H	 2.1421448038	-1.8395322315	-1.0311613189	 0.133185
H	 0.2028296289	-2.2029824861	 1.2888055724	 0.111657
H	 1.9831479076	-2.1040785314	 1.3517696869	 0.126891
33.9204	152.2155	191.5195	231.6492	271.5426	322.4765	447.2715	511.2262	551.42	596.0263	634.4731	837.1751	838.6869	897.9903	915.1991	1002.0973	1022.2092	1052.1269	1089.655	1113.8416	1140.1293	1151.4438	1226.194	1244.8132	1291.7004	1301.7357	1330.5205	1358.9634	1387.7027	1400.7998	1416.1568	1484.0936	1494.8994	1500.6264	1514.148	2356.7815	2963.0116	2989.9614	3043.1764	3069.1738	3077.8748	3115.8269	3117.4463	3123.5347	3129.4928
CC1CC(CO1)C#N	C[C@H]1C[C@@H](CO1)C#N	
InChI=1S/C6H9NO/c1-5-2-6(3-7)4-8-5/h5-6H,2,4H2,1H3	InChI=1S/C6H9NO/c1-5-2-6(3-7)4-8-5/h5-6H,2,4H2,1H3/t5-,6+/m0/s1
