17
gdb 63528	3.4952	1.11962	1.03385	5.3299	69.91	-0.2682	0.0114	0.2796	1194.2757	0.13329	-458.967921	-458.959215	-458.958271	-459.001081	32.888	
C	 0.1133765711	 1.5729090129	-0.2592878633	-0.449896
C	 0.0060662025	 0.0784396716	-0.0524359099	 0.311645
O	-1.1868394189	-0.4955657863	-0.4984785748	-0.448769
C	 1.2650737368	-0.7921990236	-0.1092934018	-0.430603
C	 0.5590261611	-0.5447739924	 1.1854059525	 0.428993
C	 1.0198046057	 0.0551381831	 2.5048071625	-0.505129
C	 0.2485349309	-1.1298772983	 3.0966384251	 0.440334
O	-0.0012384842	-1.5797263798	 4.1663223945	-0.311899
O	-0.1335045755	-1.6174288502	 1.867901487	-0.248214
H	 1.030407541	 1.9763057906	 0.1799912551	 0.121826
H	 0.1273282785	 1.8116558868	-1.3294729277	 0.118264
H	-0.7440230015	 2.0827663094	 0.1909349906	 0.13532
H	-1.1834092243	-0.4810777063	-1.4622093267	 0.286901
H	 1.1375361166	-1.7830056555	-0.5324367629	 0.13727
H	 2.2320170342	-0.3290326937	-0.2806366913	 0.119743
H	 2.0931293586	 0.0324382238	 2.7027399928	 0.146423
H	 0.6122689875	 1.0329814879	 2.7678392284	 0.147792
91.8492	143.6787	175.5845	220.1213	271.0129	279.6418	368.494	380.585	440.0208	493.0781	525.2226	534.6119	582.8473	714.0815	800.8323	876.1522	879.9426	901.3929	963.8296	980.912	1024.6201	1046.8917	1052.8806	1088.1157	1141.2649	1175.9636	1209.2444	1219.3882	1288.0126	1321.5173	1405.5597	1415.708	1454.703	1480.2835	1486.6653	1520.9591	1948.0493	3028.7281	3084.3477	3093.637	3115.4555	3124.9033	3140.8825	3221.5857	3794.2645
CC1(O)CC11CC(=O)O1	C[C@@]1(O)C[C@]21CC(=O)O2	
InChI=1S/C6H8O3/c1-5(8)3-6(5)2-4(7)9-6/h8H,2-3H2,1H3	InChI=1S/C6H8O3/c1-5(8)3-6(5)2-4(7)9-6/h8H,2-3H2,1H3/t5-,6+/m1/s1
