20
gdb 88375	2.10439	1.40679	1.19289	3.8599	79.37	-0.2598	0.0344	0.2942	1182.2608	0.170275	-399.313465	-399.303403	-399.302459	-399.348292	37.162	
C	-1.5226963064	-1.3119935806	 2.7381474947	-0.423286
C	-0.6855861331	-1.2984409399	 1.4806722378	-0.010028
N	-0.6852341793	-0.0843583135	 0.6437803225	-0.347991
C	 0.5746057731	-0.5425270038	 1.2347000724	 0.001578
C	 1.3332465977	 0.410300018	 2.1577500883	 0.067188
C	 2.3363222908	-0.3810266856	 3.0167844593	-0.39522
N	 2.0813338323	 1.3199188555	 1.2716960077	-0.520151
C	 0.4473772486	 1.1892509337	 3.0553180365	 0.278395
N	-0.1589202711	 1.8650395895	 3.7717891855	-0.362273
H	-1.5439293957	-0.3403035914	 3.2296518263	 0.167214
H	-2.5530684968	-1.5878582573	 2.4894784627	 0.121582
H	-1.1416207352	-2.0573941812	 3.4449152444	 0.115769
H	-0.7183273875	-2.244466134	 0.9384325948	 0.08693
H	-0.7324134298	-0.3099861307	-0.3453469034	 0.235698
H	 1.2915385126	-1.0255770543	 0.5716512392	 0.096936
H	 3.0089348792	-0.9362711118	 2.3583377461	 0.133075
H	 2.9341859688	 0.2952746319	 3.6341706308	 0.130196
H	 1.8166354948	-1.0795498524	 3.6766042313	 0.137391
H	 1.4175519167	 1.8491841277	 0.7110996727	 0.248202
H	 2.5947000104	 1.9985038704	 1.8283309803	 0.238793
44.5658	144.793	150.2635	199.1687	207.3057	232.0847	236.8421	314.0986	331.7588	367.3301	395.3307	443.3978	520.7769	603.5623	649.3589	669.3235	787.8547	840.0433	894.452	907.5764	957.0373	982.1542	1016.7173	1037.3594	1049.9705	1076.6745	1136.7116	1166.5964	1188.7303	1238.7449	1265.1561	1296.0345	1332.5373	1399.3854	1409.4257	1428.5346	1467.2989	1486.243	1491.3428	1498.5291	1505.986	1654.649	2341.8884	3039.6492	3049.6312	3090.6235	3094.6431	3113.9395	3125.1263	3138.0446	3166.976	3481.3761	3513.3396	3561.2677
CC1NC1C(C)(N)C#N	C[C@H]1N[C@H]1[C@@](C)(N)C#N	
InChI=1S/C6H11N3/c1-4-5(9-4)6(2,8)3-7/h4-5,9H,8H2,1-2H3	InChI=1S/C6H11N3/c1-4-5(9-4)6(2,8)3-7/h4-5,9H,8H2,1-2H3/t4-,5-,6+/m1/s1
