21
gdb 105543	2.56364	1.39452	1.12258	1.5928	77.34	-0.25	0.07	0.32	1174.9903	0.182397	-424.193764	-424.184717	-424.183773	-424.227693	34.333	
O	 0.3155550975	 1.3942572729	 0.2739784951	-0.428525
C	 0.1980295159	-0.0090280813	 0.3916202662	-0.109981
C	-1.2273678344	-0.4850864538	 0.1084217962	 0.378686
C	-2.3425905567	 0.256483184	 0.8928381022	-0.317064
C	-2.7841272823	 0.7799143526	-0.4827314463	-0.074701
O	-1.6803658361	 0.1164663101	-1.1473525904	-0.339235
C	-1.3148198296	-1.992914544	 0.0821425368	-0.04499
C	-2.398639886	-2.6992341515	-0.6897005983	-0.280084
C	-0.9706171971	-2.7517517082	-1.1745980761	-0.267534
H	-0.0295798854	 1.6012387364	-0.6037998381	 0.28761
H	 0.8879587613	-0.5296079775	-0.2908949551	 0.095629
H	 0.4787398644	-0.2721104744	 1.4178686764	 0.107323
H	-3.0532202465	-0.3907681978	 1.4077204999	 0.108157
H	-1.9687260766	 1.025989782	 1.5683648118	 0.123233
H	-3.7501498457	 0.4089949578	-0.8444832047	 0.10495
H	-2.7428216117	 1.8656681994	-0.6222273821	 0.105651
H	-1.0156818662	-2.4508969991	 1.0224790508	 0.084468
H	-2.8356572841	-3.5926054041	-0.2579514043	 0.108121
H	-3.0844558854	-2.0877465193	-1.2645281976	 0.121197
H	-0.7355212494	-2.1648854063	-2.0552788758	 0.12731
H	-0.4198437157	-3.680982098	-1.0832406468	 0.109781
79.4076	103.7327	128.3535	172.0298	223.2739	269.8375	317.9198	399.538	441.5092	492.7722	582.536	650.2522	775.7105	788.7642	822.9279	853.11	868.7188	884.755	934.5045	966.2044	985.3439	1004.0949	1034.4225	1064.166	1080.555	1088.117	1132.7818	1135.0578	1162.9138	1188.7805	1198.7736	1211.962	1224.8837	1233.0667	1248.0877	1274.4244	1349.6667	1374.8449	1410.4344	1428.7667	1455.846	1477.3338	1492.2608	1499.4341	1526.5424	2984.2186	3025.1587	3068.0058	3068.8993	3088.3395	3130.2895	3137.703	3141.8918	3150.1372	3220.1522	3233.9212	3776.0614
OCC1(CCO1)C1CC1	OC[C@]1(CCO1)C1CC1	
InChI=1S/C7H12O2/c8-5-7(3-4-9-7)6-1-2-6/h6,8H,1-5H2	InChI=1S/C7H12O2/c8-5-7(3-4-9-7)6-1-2-6/h6,8H,1-5H2/t7-/m1/s1
