20
gdb 91973	2.48673	1.60156	1.20599	1.7342	83.34	-0.2299	0.0452	0.2751	1099.2072	0.171203	-365.95884	-365.950255	-365.949311	-365.991758	33.593	
C	 0.7668841104	 1.4509065914	-0.4256183056	-0.404883
C	 0.1695209467	 0.1101976235	 0.0188764504	-0.01323
C	 0.205941389	-0.9910012533	-1.0756131687	-0.245102
C	 1.2827864578	-1.9715239351	-0.6408936515	-0.010856
C	 2.6215031797	-1.4472923705	-0.2698569256	-0.250507
N	 1.638230702	-1.7676884492	 0.7763020269	-0.093571
C	 0.8585064588	-0.5959830145	 1.2522092082	-0.174902
C	 1.6551066587	 0.279237583	 2.1029723647	 0.363062
C	 2.3049789385	 1.0042684464	 2.8079349403	-0.468909
H	 1.7921277868	 1.3596366241	-0.7951180139	 0.122861
H	 0.1628792366	 1.873120079	-1.2358364956	 0.11145
H	 0.7778336467	 2.1680541067	 0.398989075	 0.129833
H	-0.8696427228	 0.3064097982	 0.2997222851	 0.085608
H	-0.7538119146	-1.5153145336	-1.1309623437	 0.105795
H	 0.3975799992	-0.5694056421	-2.0677526877	 0.107532
H	 1.1860557116	-3.0055899825	-0.9610141876	 0.08968
H	 3.4837190711	-2.1077500667	-0.285253946	 0.116693
H	 2.8539577365	-0.4065053686	-0.4683214667	 0.120939
H	 0.0594146498	-1.0250930519	 1.8696285964	 0.112078
H	 2.8821720875	 1.6359590056	 3.4367754057	 0.196429
84.5229	143.7947	174.2192	200.3215	281.4087	348.5466	373.772	382.7073	505.8316	529.8226	620.9081	646.2757	654.8129	706.7231	755.2816	794.9014	858.5743	873.9235	914.448	928.3787	979.6793	1031.0596	1046.107	1076.1726	1094.387	1105.0903	1116.9039	1141.524	1167.8345	1229.5741	1251.1144	1277.9998	1310.5946	1332.282	1348.1329	1377.6439	1391.4689	1417.9192	1488.1667	1494.0338	1498.3007	1517.4484	2235.5692	3018.1155	3039.6063	3041.3852	3055.3682	3082.1221	3105.6494	3120.5109	3125.2003	3140.8885	3208.8849	3503.719
CC1CC2CN2C1C#C	C[C@H]1C[C@H]2CN2[C@H]1C#C	
InChI=1S/C8H11N/c1-3-8-6(2)4-7-5-9(7)8/h1,6-8H,4-5H2,2H3	InChI=1S/C8H11N/c1-3-8-6(2)4-7-5-9(7)8/h1,6-8H,4-5H2,2H3/t6-,7-,8-,9?/m0/s1
