23
gdb 118747	2.89677	0.85028	0.75886	2.5636	81.77	-0.2545	0.0729	0.3274	1585.6946	0.204009	-425.410114	-425.399725	-425.398781	-425.445456	39.062	
C	-0.397017986	 1.8773607311	 0.1211694809	-0.456296
C	-0.0309268288	 0.3962190412	 0.0385207287	 0.325245
C	-1.2559184672	-0.48917617	-0.246379387	-0.220305
C	-2.0033780238	-0.1746271819	-1.538560255	-0.08671
O	-2.9855510985	-1.1868094697	-1.7148310411	-0.419451
C	 1.1966636272	 0.0469282425	-0.8701352646	-0.309067
C	 1.7326944359	-0.8744513427	 0.2557697028	 0.179849
O	 3.1127130982	-0.9272192538	 0.5194534711	-0.436197
C	 0.7836284702	-0.1607258074	 1.252622147	-0.311222
H	 0.4716905698	 2.4777491777	 0.4113637484	 0.103624
H	-0.7544112901	 2.2652121754	-0.8390012386	 0.115923
H	-1.1846946779	 2.0506258734	 0.864279421	 0.114173
H	-0.9537819016	-1.5421650689	-0.2943088816	 0.108167
H	-1.9616305456	-0.4106128709	 0.5905532644	 0.101127
H	-2.4716371963	 0.8193984627	-1.4798234968	 0.086706
H	-1.2996989126	-0.1534062807	-2.3867054596	 0.085909
H	-3.4857622317	-0.9842118429	-2.5106270311	 0.284718
H	 1.0097622391	-0.3987874115	-1.8506554145	 0.098874
H	 1.8505769502	 0.9165207853	-1.0043138859	 0.084782
H	 1.4341559557	-1.9136668093	 0.0952241238	 0.095053
H	 3.4190084425	-0.0276677756	 0.6762849183	 0.273557
H	 1.3090002483	 0.6429166284	 1.7818995594	 0.083023
H	 0.2535365329	-0.7731884724	 1.9872446999	 0.098518
69.9463	89.5382	120.6173	172.8434	231.575	269.6282	294.5852	301.6881	317.5773	337.701	359.4099	442.8165	462.9977	473.3345	602.1831	748.4421	798.9218	826.9309	881.9672	907.773	949.2427	979.2736	995.2446	1014.704	1038.2211	1065.8312	1081.2059	1099.1719	1117.3582	1162.597	1199.8442	1223.1929	1242.5763	1250.8862	1281.9691	1288.9896	1294.562	1329.9659	1340.4536	1353.8058	1412.4685	1441.3741	1460.4626	1468.4604	1486.4874	1490.5447	1499.9035	1502.5241	1528.2486	2967.0815	2997.6903	3021.4288	3025.1305	3032.9994	3040.2442	3066.1759	3075.4385	3087.6252	3092.1861	3095.8522	3103.5626	3804.9689	3829.1547
CC1(CCO)CC(O)C1	C[C@@]1(CCO)C[C@@H](O)C1	
InChI=1S/C7H14O2/c1-7(2-3-8)4-6(9)5-7/h6,8-9H,2-5H2,1H3	InChI=1S/C7H14O2/c1-7(2-3-8)4-6(9)5-7/h6,8-9H,2-5H2,1H3/t6-,7-
