16
gdb 82262	3.14175	1.47261	1.09157	5.1964	77.34	-0.2262	-0.0431	0.183	1081.1373	0.125154	-396.929984	-396.921839	-396.920895	-396.963739	29.499	
C	-0.0460763702	 1.408298505	 0.1059778834	-0.353768
N	-0.0033641302	-0.0340729123	 0.0730322513	-0.089213
C	-1.163459392	-0.8774925854	 0.0559881514	-0.035485
C	-1.3243679445	-1.7506197128	-1.1581774043	-0.3113
C	-0.5421169259	-2.2896406433	 0.0231491479	-0.011252
N	 0.8840656911	-2.1287000519	 0.0200584627	-0.312842
C	 1.0972229102	-0.8538733073	 0.0009526448	 0.278312
C	 2.4139769737	-0.2857227186	-0.0682099667	 0.26116
N	 3.4582240035	 0.2071495783	-0.1231752401	-0.337093
H	 0.9646512312	 1.7987074377	 0.2397552251	 0.166599
H	-0.4613652985	 1.8244674519	-0.8206433147	 0.137374
H	-0.6626941949	 1.7528121418	 0.9447781128	 0.137371
H	-2.0048033089	-0.5546841267	 0.6599592555	 0.108369
H	-2.3040707149	-2.1893076712	-1.3079906976	 0.126227
H	-0.7851952301	-1.4934767231	-2.0638510594	 0.126371
H	-0.9300629095	-3.1430101721	 0.5658187481	 0.109169
29.8182	123.0479	155.0109	160.2491	319.6297	353.056	398.8635	513.1604	546.043	586.5987	671.6355	685.5472	731.1202	780.3964	840.8878	927.1788	953.6359	1023.1853	1043.3887	1080.5435	1094.0309	1132.6468	1154.4987	1179.8458	1207.54	1275.8303	1327.1533	1366.0974	1437.6398	1461.8225	1474.8312	1483.9314	1527.7044	1604.2854	2361.38	3013.8302	3064.5648	3133.2306	3134.9072	3162.9492	3185.5684	3229.163
CN1C2CC2N=C1C#N	CN1[C@H]2C[C@H]2N=C1C#N	
InChI=1S/C6H7N3/c1-9-5-2-4(5)8-6(9)3-7/h4-5H,2H2,1H3	InChI=1S/C6H7N3/c1-9-5-2-4(5)8-6(9)3-7/h4-5H,2H2,1H3/t4-,5+/m1/s1
