17
gdb 45965	2.86182	1.46133	1.11684	1.7467	72.88	-0.2477	-0.0289	0.2188	1078.798	0.136976	-421.867938	-421.86032	-421.859376	-421.900454	29.327	
O	 0.0313727108	 0.052057892	-0.5787842055	-0.31835
C	 0.0108502127	 1.1805782101	-0.1437053467	 0.385738
C	-1.3116279754	 1.8905555406	 0.1457098885	-0.310073
C	-1.2305416322	 3.1555889244	 1.0197895787	-0.348351
C	-0.1018803973	 4.0783896654	 0.5718651119	 0.407988
O	-0.2741376167	 5.2545338881	 0.3443852266	-0.321856
C	 1.236223466	 3.4370299437	 0.4071192797	-0.133761
C	 1.6869106441	 2.4141348151	 1.4247617643	-0.298047
C	 1.2834374046	 1.9488841641	 0.0477517314	-0.128397
H	-1.7034916889	 2.1664166822	-0.8432546438	 0.149725
H	-2.0122307919	 1.1566569111	 0.5525927942	 0.137468
H	-2.162463525	 3.722785943	 0.979514874	 0.133198
H	-1.0662576653	 2.8800076616	 2.0688636176	 0.127838
H	 1.9876021919	 4.0862891068	-0.0268013475	 0.116809
H	 2.7444983951	 2.3812831248	 1.6579847926	 0.14136
H	 1.0394417158	 2.1963076851	 2.2653964173	 0.135279
H	 2.0870591617	 1.6109548318	-0.5966990932	 0.123431
59.3393	139.8008	198.5023	305.1236	387.1298	425.6927	436.9146	493.6512	535.5897	607.0259	696.2403	713.7534	770.3184	834.2546	842.7788	916.9525	938.8606	988.1094	989.9541	1042.1997	1056.3496	1079.9684	1125.6714	1161.0839	1190.7251	1211.8293	1224.8067	1285.4483	1317.7078	1350.6361	1359.9548	1371.9155	1453.4765	1471.9927	1496.1064	1800.6499	1806.9556	3025.4531	3040.2734	3098.8527	3114.9393	3150.7091	3180.8822	3189.623	3237.3999
O=C1CCC(=O)C2CC12	O=C1CCC(=O)[C@H]2C[C@@H]12	
InChI=1S/C7H8O2/c8-6-1-2-7(9)5-3-4(5)6/h4-5H,1-3H2	InChI=1S/C7H8O2/c8-6-1-2-7(9)5-3-4(5)6/h4-5H,1-3H2/t4-,5+
