17
gdb 60713	3.18163	0.62475	0.54719	2.799	80.41	-0.2502	-0.039	0.2112	1950.8381	0.13124	-421.816841	-421.806261	-421.805317	-421.855816	34.744	
C	-0.0011258603	 1.5743856873	 0.1796252947	-0.398371
C	-0.0129110032	 0.0535429753	-0.1089467698	-0.215273
C	 0.7991319557	-0.6578148076	 0.979474405	 0.17199
O	 1.8937050109	-1.1198183888	 0.80873934	-0.238506
C	-1.3677917053	-0.4867870858	-0.1366270846	 0.087394
C	-2.4861633463	-0.9348665068	-0.124891781	 0.022407
C	-3.8169089508	-1.5231002331	-0.0952895482	-0.414482
C	-3.8356593483	-2.8873238148	 0.6018778649	 0.171173
O	-4.7312220165	-3.2570556226	 1.309727969	-0.226615
H	 1.0239373923	 1.9539858061	 0.1564852594	 0.136355
H	-0.5912552868	 2.1028233865	-0.5725298681	 0.13994
H	-0.4341008471	 1.7867983668	 1.1615675106	 0.134308
H	 0.4975549952	-0.1400755742	-1.0587761004	 0.12648
H	 0.2906497208	-0.6920534263	 1.9689493214	 0.089537
H	-4.5502808162	-0.877222614	 0.3981864449	 0.156798
H	-4.1771775723	-1.6904199317	-1.122125829	 0.159251
H	-2.9500073016	-3.5230065564	 0.3859646913	 0.097613
14.7145	39.1591	55.5714	95.9523	133.2616	170.3704	220.6233	283.5856	321.5671	404.0363	438.7405	451.3435	530.0605	556.5642	722.3849	807.1573	888.182	932.3804	1029.3747	1038.9778	1053.2217	1084.1149	1124.4991	1176.2997	1211.6085	1268.6715	1289.8226	1327.3959	1398.9824	1414.4138	1417.0393	1440.877	1491.9171	1497.4716	1840.4676	1842.61	2361.8897	2886.1877	2905.1302	3003.3943	3045.9307	3054.8494	3081.6799	3123.2501	3131.9337
CC(C=O)C#CCC=O	C[C@@H](C=O)C#CCC=O	
InChI=1S/C7H8O2/c1-7(6-9)4-2-3-5-8/h5-7H,3H2,1H3	InChI=1S/C7H8O2/c1-7(6-9)4-2-3-5-8/h5-7H,3H2,1H3/t7-/m1/s1
