15
gdb 21310	7.43369	1.12701	0.99084	3.522	63.39	-0.2486	0.0028	0.2515	1134.3074	0.119716	-395.964518	-395.956844	-395.9559	-395.997992	26.276	
C	-0.0471440902	 1.4027848071	 0.0102553064	-0.224852
O	 0.0096929738	-0.0042752819	 0.0023619279	-0.237186
C	-1.2670568203	-0.6022278393	 0.0109302447	-0.157108
C	-1.0894014873	-2.0850338721	 0.0022230368	 0.288754
C	 0.0723384586	-2.8173495494	-0.008986396	-0.148329
N	-0.3611908475	-4.100953414	-0.0134458733	-0.154904
N	-1.7033433142	-4.1723715764	-0.0036905739	-0.116775
N	-2.145818915	-2.9469800455	 0.0048975242	-0.258648
H	 0.9815360684	 1.7703977644	 0.0026758571	 0.128821
H	-0.5723817653	 1.7945595905	-0.8747727655	 0.109148
H	-0.5559097457	 1.7852316716	 0.9088849044	 0.109134
H	-1.8402608483	-0.2937626945	 0.9016700033	 0.111395
H	-1.8562341784	-0.2853702549	-0.8663133937	 0.111458
H	 1.1105620445	-2.5379060232	-0.0145120533	 0.157225
H	 0.1772639168	-4.9522544424	-0.0219726194	 0.281868
30.3699	79.5238	141.2751	219.2816	274.643	354.0663	414.4006	575.913	670.3446	728.3502	760.1743	796.3032	985.0329	998.3484	1039.4029	1050.4896	1056.9801	1126.0977	1165.7445	1185.0593	1226.2971	1243.3372	1264.3904	1298.7086	1340.9598	1420.3025	1478.9615	1484.4438	1496.1911	1502.639	1523.8116	1603.2964	2956.3817	2975.5964	2977.73	3019.6957	3118.138	3306.2462	3660.354
COCC1=CNN=N1	COCc1c[nH]nn1	
InChI=1S/C4H7N3O/c1-8-3-4-2-5-7-6-4/h2H,3H2,1H3,(H,5,6,7)	InChI=1S/C4H7N3O/c1-8-3-4-2-5-7-6-4/h2H,3H2,1H3,(H,5,6,7)
