19
gdb 18725	3.16235	2.21146	1.51561	0.5077	71.13	-0.2187	0.0889	0.3076	884.3088	0.167283	-365.037534	-365.030245	-365.029301	-365.068804	28.558	
C	-0.1150567755	 1.5200574806	-0.0308024829	-0.402275
C	 0.0637902904	 0.0090422903	 0.0141479789	 0.103519
O	 0.7572618534	-0.3877309081	-1.1607920194	-0.253916
C	 0.9357986627	-1.7939583431	-1.1845260764	-0.081793
C	 1.9388649393	-2.237615938	-0.1189858034	-0.155906
N	 1.7125274621	-1.611806826	 1.1967461545	-0.107826
C	 2.2640718391	-0.267351183	 1.3805137046	-0.244331
C	 0.7976088848	-0.460371563	 1.2621055738	-0.011473
H	 0.856879181	 2.0209649508	-0.03963724	 0.125897
H	-0.6636573708	 1.8092597713	-0.9314386994	 0.123698
H	-0.6751686422	 1.8646950024	 0.8438164366	 0.117109
H	-0.9320706013	-0.4705212946	 0.008306489	 0.066217
H	-0.035037907	-2.2925936174	-1.0280494241	 0.091275
H	 1.2915761113	-2.0578384768	-2.184936288	 0.107554
H	 1.8772451798	-3.3260407817	 0.0038849278	 0.103498
H	 2.9574478536	-2.0078835091	-0.4518232457	 0.106421
H	 2.7239593025	-0.0747104774	 2.3466220345	 0.108681
H	 2.7694347099	 0.1872075535	 0.5303783298	 0.116032
H	 0.188854137	-0.4369375808	 2.1654116898	 0.087619
103.5924	213.6644	220.5582	303.8077	315.5805	390.4096	464.231	480.2943	599.4993	678.7161	732.0676	780.714	859.9838	902.2535	914.7477	936.7906	1003.8245	1038.6083	1068.3043	1083.0727	1118.757	1128.6285	1133.8845	1149.4051	1174.0466	1192.2587	1264.7697	1294.7486	1313.7209	1363.8448	1368.0023	1375.8404	1404.7049	1409.3903	1425.4165	1483.4164	1490.354	1496.4196	1502.0423	1510.1303	2934.0088	2970.1956	3022.5116	3043.9152	3060.7974	3084.593	3094.0939	3106.6821	3118.512	3123.6425	3179.4969
CC1OCCN2CC12	C[C@H]1OCCN2C[C@@H]12	
InChI=1S/C6H11NO/c1-5-6-4-7(6)2-3-8-5/h5-6H,2-4H2,1H3	InChI=1S/C6H11NO/c1-5-6-4-7(6)2-3-8-5/h5-6H,2-4H2,1H3/t5-,6+,7?/m1/s1
