23
gdb 100303	2.30033	1.18669	1.04742	2.3053	81.02	-0.2483	0.0604	0.3086	1303.3692	0.20469	-425.402455	-425.392123	-425.391179	-425.437326	39.273	
C	 0.2541323589	 1.5282885974	 0.4607783278	-0.457022
C	 0.0465080482	 0.0706941381	 0.0241628874	 0.245971
C	 0.6631089933	-0.8817931501	 1.0662846308	-0.115827
O	-0.1756558011	-0.9079894929	 2.224952128	-0.437014
C	-1.4809847949	-0.18924161	-0.0631290683	-0.08676
O	-1.8128909145	-1.567352838	-0.1147812164	-0.438071
C	 0.6743083803	-0.2749621097	-1.32548676	 0.007292
C	 0.9425224284	 0.7341734928	-2.4119423462	-0.286163
C	 2.0955703666	 0.0681716396	-1.70063521	-0.289308
H	 1.3028517752	 1.8345303224	 0.3908871758	 0.111468
H	-0.3389274281	 2.2189299086	-0.14741466	 0.116096
H	-0.0580231941	 1.6458330284	 1.5023495629	 0.128906
H	 0.7477858456	-1.8888155345	 0.6360809828	 0.094622
H	 1.6757484298	-0.540468604	 1.3224288907	 0.093023
H	 0.2666554989	-1.422569529	 2.9060951086	 0.291248
H	-1.9828392648	 0.2999442569	 0.7815626338	 0.093044
H	-1.8636521214	 0.2607950884	-0.9854329524	 0.104435
H	-1.6688470127	-1.8975158269	 0.780078054	 0.286808
H	 0.3294359861	-1.2431646734	-1.679588152	 0.098715
H	 0.731014788	 0.4477704786	-3.4362783912	 0.1102
H	 0.7688072236	 1.7841983131	-2.2047124697	 0.110952
H	 2.6808156643	 0.6794666447	-1.0213653274	 0.108495
H	 2.6795463044	-0.6734026306	-2.2349916191	 0.108891
77.817	111.515	125.3646	170.987	240.774	263.5101	270.2885	295.624	316.8558	345.6465	375.7753	439.8496	479.2503	544.1351	591.5745	721.6362	789.1501	831.8231	842.9055	917.8671	922.8729	949.3084	963.4251	994.4572	1051.6023	1058.149	1077.9753	1081.2328	1084.2032	1150.2928	1162.336	1174.7413	1204.1114	1215.399	1236.4906	1269.9416	1275.8675	1310.4447	1388.3984	1407.8256	1414.4991	1427.0765	1451.6974	1466.4925	1495.8821	1501.5982	1502.9939	1512.7534	1517.7993	2996.3458	3016.0793	3033.3957	3036.2083	3075.001	3100.0476	3113.5361	3129.8674	3135.4629	3141.1209	3205.5045	3221.4496	3788.585	3833.8021
CC(CO)(CO)C1CC1	CC(CO)(CO)C1CC1	
InChI=1S/C7H14O2/c1-7(4-8,5-9)6-2-3-6/h6,8-9H,2-5H2,1H3	InChI=1S/C7H14O2/c1-7(4-8,5-9)6-2-3-6/h6,8-9H,2-5H2,1H3
