15
gdb 124117	3.64217	0.96828	0.76921	4.6619	83.84	-0.2023	-0.0191	0.1833	1428.8458	0.113496	-412.971163	-412.962305	-412.96136	-413.006283	31.189	
C	-0.0885438364	 1.5062479883	 0.0045719476	-0.509588
C	-0.0265316678	 0.0540495403	-0.0150728891	 0.181408
C	 0.0240630791	-1.1530653517	-0.0393476261	-0.054944
C	 0.1043899932	-2.5523236279	-0.0626229578	 0.221394
C	 1.1813615087	-3.4335884919	-0.0318161935	 0.161858
N	 2.5349327019	-3.1552554097	-0.0276360318	-0.611827
N	 0.711363393	-4.7072958609	-0.0715347643	-0.237963
N	-0.5976870968	-4.6818228278	-0.1308156864	-0.117542
N	-0.9696576855	-3.4052677225	-0.1256148004	-0.291778
H	 0.6843799805	 1.9441167021	-0.6368962731	 0.156414
H	-1.0590484175	 1.8604293081	-0.3600372002	 0.156078
H	 0.0512626836	 1.9044199829	 1.0161696559	 0.152674
H	 2.7814736516	-2.2932656151	 0.4374023964	 0.254466
H	 3.0878499942	-3.9365391951	 0.2971970773	 0.259333
H	-1.9474472819	-3.1646088691	-0.1612108746	 0.280016
21.5601	82.3635	108.811	243.5142	261.932	295.7122	328.1341	382.2013	482.4565	489.7787	535.3885	555.0818	640.3641	707.4859	742.0202	778.567	989.179	1008.822	1050.4401	1051.0024	1094.998	1135.4423	1222.2089	1276.239	1362.3116	1393.14	1413.6325	1472.0482	1477.1032	1528.004	1615.6362	1651.7054	2347.0881	3024.8153	3083.4555	3090.7114	3558.3261	3656.6265	3660.674
CC#CC1=C(N)N=NN1	CC#Cc1c(N)nn[nH]1	
InChI=1S/C5H6N4/c1-2-3-4-5(6)8-9-7-4/h1H3,(H3,6,7,8,9)	InChI=1S/C5H6N4/c1-2-3-4-5(6)8-9-7-4/h1H3,(H3,6,7,8,9)
