18
gdb 69672	3.17917	1.33238	1.2356	1.2953	83.09	-0.2172	0.0243	0.2415	1095.1773	0.145879	-364.68567	-364.677448	-364.676504	-364.718005	32.667	
C	 0.204928472	 1.5978764121	 0.0473191126	-0.467453
C	 0.044977924	 0.1124688244	 0.1211765388	 0.36354
C	-0.8445176917	-0.6161158932	 1.0858956892	-0.355135
C	 0.6280789755	-0.9400366399	 1.0440909548	-0.132492
C	 1.0389481084	-1.7054443979	-0.2181978819	-0.052545
C	-0.0043961698	-2.0438775609	-1.2265105214	-0.184279
C	-1.346949453	-2.5317186139	-1.0695764134	 0.309411
C	-2.4459397635	-3.0229299055	-1.0780261526	-0.422754
N	 0.5032461756	-0.6394740372	-1.13179055	-0.210668
H	 1.1951493672	 1.8666959619	-0.3333977079	 0.127752
H	-0.5421041768	 2.03273817	-0.6273676637	 0.127777
H	 0.0751138584	 2.0508255664	 1.0349043771	 0.116466
H	-1.1146851636	 0.0006481867	 1.9393415314	 0.111773
H	-1.6071605648	-1.3234041783	 0.796944302	 0.14464
H	 1.2875645043	-0.8257918167	 1.8941529211	 0.094842
H	 2.0513730656	-2.0790482545	-0.3480242392	 0.101071
H	 0.4462471352	-2.474207862	-2.1220235509	 0.129357
H	-3.4232956032	-3.4371678719	-1.046117436	 0.198695
92.8428	177.7676	201.4488	250.6013	295.8464	362.0695	373.1352	435.298	580.3203	591.8412	618.8869	631.7528	652.6796	688.4597	751.9949	768.317	850.9239	902.966	909.9643	944.042	948.0718	987.9932	1021.9806	1056.1095	1070.4156	1084.0029	1110.7903	1130.7499	1202.988	1249.8743	1273.2773	1348.9784	1385.5437	1405.2485	1428.2527	1474.7738	1494.8162	1503.1953	2223.0518	3028.3849	3091.5972	3096.4786	3111.5622	3135.7686	3139.5573	3199.4204	3247.8698	3501.7252
CC12CC1C1C(C#C)N21	C[C@]12C[C@H]1[C@H]1[C@@H](C#C)N21	
InChI=1S/C8H9N/c1-3-6-7-5-4-8(5,2)9(6)7/h1,5-7H,4H2,2H3	InChI=1S/C8H9N/c1-3-6-7-5-4-8(5,2)9(6)7/h1,5-7H,4H2,2H3/t5-,6+,7-,8-,9?/m0/s1
