20
gdb 17672	3.85753	1.40736	1.23235	1.867	75.05	-0.2558	0.0889	0.3448	1069.0984	0.175521	-348.973209	-348.964392	-348.963448	-349.006618	32.733	
C	-0.0273042398	 1.2281933692	-0.4229512276	-0.41231
C	 0.2379393838	-0.1748884746	 0.0774165061	-0.01881
C	 1.6385552893	-0.6878569222	 0.3145637614	-0.338768
C	 0.7065430736	-0.4921788814	 1.487907373	 0.313955
C	 1.004679743	 0.6193836813	 2.4801109605	-0.469521
C	 0.0666330813	-1.6757985897	 2.1511486184	 0.025238
C	 0.3147365417	-3.0827771945	 1.8134198287	-0.183446
O	 0.8931678174	-2.5050011087	 2.9822549917	-0.242069
H	 0.6985549459	 1.9475067594	-0.0344479318	 0.117535
H	 0.0334448761	 1.262928138	-1.5163852431	 0.119202
H	-1.0264041941	 1.5753803829	-0.13624035	 0.117113
H	-0.4470965014	-0.9152688142	-0.330777861	 0.080514
H	 1.8970743536	-1.687231518	-0.0159239598	 0.109868
H	 2.4537245834	 0.0237481816	 0.223334805	 0.107894
H	 1.4898907195	 1.4764821055	 2.007802238	 0.113991
H	 0.0877981897	 0.9779736217	 2.9633385157	 0.113243
H	 1.6712448966	 0.2480982385	 3.2653126211	 0.135855
H	-0.8983941019	-1.4487065772	 2.6124906948	 0.087303
H	-0.4683377091	-3.8200490819	 1.9907798296	 0.109816
H	 1.0185819715	-3.3459540959	 1.0266186293	 0.113398
48.5633	148.9597	177.0892	187.4695	227.6127	272.1908	312.6796	344.5477	438.2195	467.6353	546.1239	676.6856	786.9935	835.6171	856.4138	886.0802	923.9868	952.3179	991.1897	1009.2339	1031.1825	1057.2003	1095.2824	1112.7069	1128.441	1145.6701	1161.7643	1174.3865	1191.7364	1263.0735	1301.2841	1325.2357	1404.5708	1419.2932	1425.1025	1440.8947	1485.5598	1494.1834	1494.9022	1499.3286	1515.648	1534.5916	3028.1064	3032.1358	3068.8067	3083.0715	3086.8737	3091.3106	3105.4892	3120.2178	3128.547	3130.2445	3166.9733	3211.4949
CC1CC1(C)C1CO1	C[C@H]1C[C@]1(C)[C@H]1CO1	
InChI=1S/C7H12O/c1-5-3-7(5,2)6-4-8-6/h5-6H,3-4H2,1-2H3	InChI=1S/C7H12O/c1-5-3-7(5,2)6-4-8-6/h5-6H,3-4H2,1-2H3/t5-,6+,7-/m0/s1
