16
gdb 43058	3.39781	1.84762	1.60417	1.5077	70.05	-0.2326	-0.0226	0.2101	852.0104	0.127201	-400.712621	-400.706635	-400.705691	-400.742897	24.888	
O	-0.0287760977	-0.005772754	 0.1504591652	-0.318407
C	-0.0290203621	 1.1844500331	 0.0210088546	 0.433163
C	-1.1336930177	 2.2606896219	 0.0398600768	-0.191054
C	-1.4942540768	 2.6337666582	-1.4139148349	-0.243202
C	-0.2928423814	 3.4451560165	-1.8462060731	-0.032382
C	 1.0607653586	 3.1020752359	-1.3380319776	-0.057435
C	 1.0490270955	 2.2610837209	-0.0336683359	-0.187387
C	-0.017294915	 3.3019967998	 0.4284395056	 0.000423
N	 0.2693624694	 4.2413654792	-0.7320765875	-0.150275
H	-1.9888602794	 2.0979096118	 0.6953283513	 0.098357
H	-1.6667410806	 1.7525301877	-2.0391349909	 0.128047
H	-2.396448651	 3.2541531806	-1.4476454229	 0.118496
H	-0.3336894782	 3.9813972186	-2.7899070255	 0.102809
H	 1.9591513673	 3.2819054241	-1.9191831101	 0.106271
H	 2.0217522165	 2.1140626919	 0.4328735305	 0.098275
H	-0.0308726276	 3.7642757838	 1.4112215441	 0.094301
126.2929	267.0493	407.9981	463.8206	527.5452	640.8003	679.6712	724.3825	761.9993	791.6257	808.6789	848.5833	880.4494	888.3997	923.322	957.9071	990.1925	1005.3833	1037.5911	1043.8574	1052.0045	1074.2776	1120.6046	1167.1687	1181.9473	1193.9966	1216.5734	1227.9496	1240.944	1267.8004	1319.796	1337.2904	1405.8141	1491.276	1886.1673	3045.0006	3092.5446	3121.943	3131.4958	3156.1752	3159.7782	3168.9048
O=C1C2CC3C4C1C2N34	O=C1[C@@H]2C[C@@H]3[C@@H]4[C@H]1[C@H]2N34	
InChI=1S/C7H7NO/c9-7-2-1-3-6-4(7)5(2)8(3)6/h2-6H,1H2	InChI=1S/C7H7NO/c9-7-2-1-3-6-4(7)5(2)8(3)6/h2-6H,1H2/t2-,3-,4-,5+,6-,8?/m1/s1
