20
gdb 15379	3.55698	1.07696	0.89636	0.8959	82.02	-0.2394	0.0514	0.2908	1343.3951	0.175378	-311.832305	-311.823077	-311.822133	-311.866512	33.99	
C	-0.0021922727	 1.5334156184	-0.1026310807	-0.380758
C	 0.1907591188	 0.0150559219	-0.0729846093	-0.158149
C	 0.4629983468	-0.5250584031	 1.3373196958	-0.195657
C	 0.6461645357	-2.0264636099	 1.3656555603	 0.002954
C	 1.981874559	-2.6482156995	 1.0763713208	-0.287971
C	 1.4154494776	-2.7155044421	 2.4892843874	-0.208421
C	 2.0174671159	-1.9620451429	 3.5498667316	 0.339436
C	 2.5166715678	-1.3398917654	 4.4511775025	-0.477081
H	 0.8879622168	 2.0522595312	 0.2701448249	 0.114942
H	-0.1961168106	 1.8922046256	-1.1182729708	 0.110525
H	-0.8470933593	 1.8379455277	 0.5252133985	 0.114087
H	-0.7010368512	-0.4764893991	-0.4840940674	 0.092441
H	 1.0218360431	-0.2660583556	-0.7322658803	 0.097834
H	 1.3553353587	-0.0428334964	 1.7534339639	 0.106695
H	-0.3668085458	-0.2469465718	 2.0011807287	 0.098146
H	-0.2176798468	-2.5895562198	 1.019606706	 0.087927
H	 2.0299925758	-3.5732403788	 0.5127787401	 0.11571
H	 2.823989317	-1.9814761179	 0.9253050401	 0.124235
H	 1.0276916188	-3.6833611639	 2.7941768256	 0.11032
H	 2.9597746947	-0.7920224885	 5.2450635322	 0.192784
73.1325	86.9354	100.8871	187.0382	214.2978	248.4274	318.117	356.4597	420.9913	526.0141	571.4804	609.7172	645.8292	743.7725	771.5972	813.1775	862.0736	874.1327	898.989	957.1647	981.3648	1042.1248	1064.6567	1075.3887	1116.2686	1131.3525	1144.48	1198.819	1229.552	1269.6873	1303.4903	1326.7802	1372.2646	1387.4748	1413.2721	1423.4679	1479.5938	1488.6334	1494.4296	1500.6906	1510.5246	2233.0053	3013.5914	3020.0635	3029.5989	3043.8103	3068.3105	3096.2801	3101.6823	3130.9717	3134.9713	3145.3649	3224.1032	3505.895
CCCC1CC1C#C	CCC[C@H]1C[C@H]1C#C	
InChI=1S/C8H12/c1-3-5-8-6-7(8)4-2/h2,7-8H,3,5-6H2,1H3	InChI=1S/C8H12/c1-3-5-8-6-7(8)4-2/h2,7-8H,3,5-6H2,1H3/t7-,8+/m1/s1
