14
gdb 9573	4.40576	1.31659	1.26292	4.6259	70.34	-0.266	0.0056	0.2716	979.2627	0.106237	-341.543769	-341.535701	-341.534756	-341.575953	29.811	
N	-0.0374036927	 1.4494403632	 0.0496706333	-0.545501
C	 0.0194269787	 0.0102712227	 0.0235949613	 0.103808
C	-0.4524315913	-0.6711493773	 1.2866927089	-0.29704
C	-1.3456383837	-0.704027717	 0.0656967074	-0.205095
C	-2.551515827	 0.0718592828	 0.0135303236	 0.304128
N	-3.5406903826	 0.6675151542	-0.0535909747	-0.336755
C	 1.0472623029	-0.6262923161	-0.7651329804	 0.292356
C	 1.9180192103	-1.1167821604	-1.4348949048	-0.450363
H	 0.8285779812	 1.8233678402	 0.4259541406	 0.24335
H	-0.1419640132	 1.8185004931	-0.8908222216	 0.247264
H	 0.0164465135	-1.6028242491	 1.5769942594	 0.139808
H	-0.7470625026	-0.0083481053	 2.0904507126	 0.152209
H	-1.3959613581	-1.6425259301	-0.4743416332	 0.148057
H	 2.6866215547	-1.5514551708	-2.0253173424	 0.203776
106.4414	127.9775	182.3276	233.4874	271.032	354.7245	382.5257	479.3688	543.9237	553.7683	596.9859	616.684	664.6185	712.0663	796.7194	835.8655	876.6337	939.4377	999.8629	1067.1006	1088.7263	1127.7437	1224.1432	1272.8216	1303.8006	1385.5871	1467.8896	1661.8737	2229.2239	2357.8675	3156.9595	3183.1617	3258.3366	3497.4809	3499.9108	3575.7425
NC1(CC1C#N)C#C	N[C@]1(C[C@H]1C#N)C#C	
InChI=1S/C6H6N2/c1-2-6(8)3-5(6)4-7/h1,5H,3,8H2	InChI=1S/C6H6N2/c1-2-6(8)3-5(6)4-7/h1,5H,3,8H2/t5-,6-/m0/s1
