17
gdb 15051	2.69749	1.66763	1.16161	2.7131	68.9	-0.2542	0.0188	0.2731	1045.8515	0.14322	-360.011536	-360.003051	-360.002107	-360.044922	30.041	
C	-0.293048067	 1.5907118407	 0.0645836658	-0.330177
N	-0.4077584067	 0.1902386547	 0.474556044	-0.287849
C	-1.6090758078	-0.4804226945	-0.0080323367	-0.138406
C	-1.5656046972	-0.762635391	-1.4619884023	 0.265995
N	-1.4794979866	-0.9729587428	-2.595744197	-0.323223
C	-1.9127112424	-1.7644035071	 0.7682394527	 0.012761
C	-0.8373124934	-2.5929781194	 1.3593435968	-0.236596
N	-1.7202241792	-1.7785861918	 2.2175697801	-0.323541
H	 0.6458254149	 1.9956240496	 0.4503588453	 0.133094
H	-0.3150543792	 1.738842324	-1.0257968612	 0.12891
H	-1.1132258362	 2.1658940342	 0.5060542009	 0.134294
H	 0.4111775254	-0.3200685007	 0.1609504579	 0.238508
H	-2.4486572312	 0.2080468519	 0.1586163679	 0.136592
H	-2.8209216993	-2.2554099374	 0.4268926088	 0.112781
H	-0.9726638418	-3.6671058851	 1.4406269171	 0.127951
H	 0.1949166708	-2.2761719766	 1.2427683771	 0.109593
H	-1.2123235431	-0.9301242888	 2.4682792229	 0.239312
78.6606	96.6344	145.6646	191.5207	208.6603	271.4099	341.6925	358.409	480.3296	571.1817	611.6532	770.3928	819.763	878.5868	915.8939	955.9037	981.4332	1000.569	1034.7345	1114.271	1137.303	1159.5904	1161.4945	1182.0407	1235.8858	1282.3074	1308.6738	1314.7422	1349.5498	1414.7037	1460.505	1488.2528	1494.0868	1511.2486	1520.9842	2343.884	2991.4833	3024.9781	3077.0833	3119.191	3120.1732	3138.747	3202.8749	3468.944	3530.2408
CNC(C#N)C1CN1	CN[C@@H](C#N)[C@H]1CN1	
InChI=1S/C5H9N3/c1-7-4(2-6)5-3-8-5/h4-5,7-8H,3H2,1H3	InChI=1S/C5H9N3/c1-7-4(2-6)5-3-8-5/h4-5,7-8H,3H2,1H3/t4-,5+/m0/s1
