23
gdb 88194	3.199	1.20259	1.03326	1.1345	86.15	-0.2361	0.0879	0.324	1279.1861	0.207066	-388.296923	-388.288178	-388.287234	-388.329853	34.88	
C	-0.1167888143	 1.4978740812	-0.1341526292	-0.415419
C	 0.0265495073	 0.0031904458	 0.0482425847	-0.069767
C	 1.3563246495	-0.7032801639	-0.1614437459	-0.355876
C	 0.7261962011	-0.6226568939	 1.2150179267	 0.448913
C	 1.3781561859	 0.1719721683	 2.3299941438	-0.258973
C	 2.3583635174	-0.7210117258	 3.1101240432	-0.203757
C	 1.6647193589	-2.0225938475	 3.5351779058	-0.193198
C	 1.0030263935	-2.6811406298	 2.3239175661	-0.074972
O	 0.0965052363	-1.7935100252	 1.67964363	-0.294788
H	 0.7842611167	 2.0368007756	 0.1737329998	 0.113853
H	-0.2971901306	 1.7414027859	-1.186917738	 0.117666
H	-0.9566875867	 1.8941742082	 0.4474160692	 0.119176
H	-0.8357103541	-0.5742174512	-0.2749894106	 0.094307
H	 1.3456617599	-1.6639443222	-0.6641140439	 0.111853
H	 2.230475597	-0.0917115816	-0.365738052	 0.10293
H	 1.8942416272	 1.0492089195	 1.9297434238	 0.092811
H	 0.5951404758	 0.536238955	 3.0083721046	 0.099278
H	 3.2162385509	-0.9605562293	 2.4678485287	 0.096941
H	 2.7526747533	-0.1871520877	 3.9812238957	 0.091668
H	 2.3777124568	-2.7184881887	 3.9921679315	 0.091283
H	 0.8933164318	-1.8057867974	 4.2847320983	 0.101216
H	 1.7743624122	-3.0130121495	 1.6091415923	 0.084114
H	 0.4128104242	-3.5551250056	 2.6145439052	 0.100742
109.3617	153.9461	190.2022	203.4096	263.2696	311.1106	374.8434	403.509	424.4879	470.5212	517.8172	578.2934	688.998	805.4061	836.3303	853.2587	857.2455	900.5337	919.1795	941.8433	955.7948	977.3459	1015.7921	1034.6667	1061.3007	1080.2966	1105.2615	1129.2004	1147.8376	1172.5745	1187.2703	1219.2649	1251.8497	1278.6767	1300.9335	1321.5871	1366.5384	1376.2994	1382.4757	1403.393	1411.7457	1427.1284	1471.2474	1478.8195	1484.2295	1489.8189	1495.1935	1501.0822	1509.0753	2969.8989	3017.6482	3022.356	3026.6946	3030.1776	3067.5205	3074.8109	3083.6571	3084.9715	3088.6632	3102.7216	3122.4213	3145.7351	3213.973
CC1CC11CCCCO1	C[C@H]1C[C@]21CCCCO2	
InChI=1S/C8H14O/c1-7-6-8(7)4-2-3-5-9-8/h7H,2-6H2,1H3	InChI=1S/C8H14O/c1-7-6-8(7)4-2-3-5-9-8/h7H,2-6H2,1H3/t7-,8-/m0/s1
