27
gdb 99761	1.80098	1.22335	0.88107	1.4278	92.23	-0.2593	0.0727	0.332	1514.0846	0.249648	-390.694306	-390.68226	-390.681316	-390.732031	44.465	
C	-0.4586918391	 1.1242305907	 0.4298370669	-0.392332
C	-0.0848547479	-0.3484951767	 0.1772774794	 0.027222
C	-1.3845948479	-1.1634813756	 0.076614023	-0.40445
C	 0.8584510493	-0.485030722	-1.0603451554	 0.035598
C	 2.2558261071	 0.0343113723	-0.6870195659	-0.089145
O	 2.9792649896	 0.3626586181	-1.8689015924	-0.418831
C	 0.8790338661	-1.9054625465	-1.6955108904	 0.029958
C	 1.5244325914	-1.9360135669	-3.0909853657	-0.39188
C	 1.5081096541	-2.9805569221	-0.7934173818	-0.394613
H	 0.411879538	 1.7764574798	 0.5358839941	 0.112805
H	-1.0623551026	 1.5122969127	-0.3993093726	 0.114461
H	-1.0532793506	 1.2208975984	 1.3442733535	 0.108809
H	 0.4617446375	-0.7117593979	 1.0602568234	 0.069132
H	-1.9498785865	-0.8982948552	-0.8249017669	 0.114114
H	-1.2115308891	-2.241895967	 0.0590701075	 0.118941
H	-2.026078876	-0.9499404501	 0.9381306474	 0.105364
H	 0.4742061549	 0.1965827235	-1.8328651554	 0.072834
H	 2.1638186537	 0.9219436552	-0.0467697072	 0.082986
H	 2.7895280627	-0.7259461184	-0.0960809261	 0.085903
H	 3.8492015288	 0.6772609587	-1.6061611911	 0.283191
H	-0.1700818485	-2.183789121	-1.8429836137	 0.07227
H	 1.3978044092	-2.9267072775	-3.5424715719	 0.094112
H	 1.0604396157	-1.201729556	-3.7577031808	 0.104796
H	 2.5906116132	-1.7068980995	-3.0481015402	 0.127226
H	 1.0935680408	-2.9721724074	 0.2199277019	 0.108361
H	 1.3342869663	-3.9771217287	-1.212732138	 0.1092
H	 2.5928251599	-2.854363731	-0.7103707617	 0.113968
21.8794	62.4598	110.8856	188.3828	209.429	216.731	237.5485	254.9995	269.7577	286.9129	299.6011	330.8535	354.6238	373.3186	426.1474	443.6401	502.2001	572.3662	772.4692	851.2908	903.5152	928.5426	933.832	942.5609	965.5796	970.128	993.3804	1039.969	1069.2516	1086.2115	1133.6035	1151.1294	1181.6808	1191.9823	1207.0901	1251.9732	1268.7733	1299.678	1334.5464	1347.7188	1360.8375	1380.1103	1386.6152	1402.9689	1405.3008	1423.0387	1425.5345	1463.6212	1485.732	1487.3284	1492.0144	1494.8735	1503.5438	1506.6676	1512.646	1513.9782	1530.3605	2982.9343	2987.4841	3007.132	3019.045	3026.9745	3029.6416	3032.4996	3033.7067	3042.7576	3086.9114	3091.2609	3094.6153	3096.2699	3098.7877	3111.3761	3115.7301	3136.521	3827.3899
CC(C)C(CO)C(C)C	CC(C)C(CO)C(C)C	
InChI=1S/C8H18O/c1-6(2)8(5-9)7(3)4/h6-9H,5H2,1-4H3	InChI=1S/C8H18O/c1-6(2)8(5-9)7(3)4/h6-9H,5H2,1-4H3
