13
gdb 132019	2.41833	1.89715	1.06436	5.0131	67.35	-0.2141	-0.0309	0.1832	1014.8455	0.090066	-494.048374	-494.040895	-494.039951	-494.080354	28.076	
N	 0.0936470621	 1.3721020318	 0.175558332	-0.576241
C	-0.0184667608	 0.0082089822	 0.0602524308	 0.29945
C	-1.1625804398	-0.7047403487	 0.0211440924	 0.109142
F	-2.3224128297	-0.033928765	 0.0154003882	-0.073219
C	-1.1636419896	-2.151620226	-0.0097549419	 0.263179
N	-2.2371652174	-2.8402545989	-0.0392419207	-0.532704
N	 0.1365764492	-2.7311795964	-0.0154801352	-0.309726
C	 1.1584228836	-1.9872852793	 0.0062235431	 0.11517
O	 1.1927618279	-0.6248725159	 0.047009233	-0.211424
H	 0.8990241354	 1.7678458239	-0.2893618566	 0.267449
H	-0.7667157496	 1.8627214428	-0.021671726	 0.276337
H	-1.9893629414	-3.8308497231	-0.0644648443	 0.22188
H	 2.16982986	-2.3812024675	-0.0044601449	 0.150708
105.6512	174.9583	271.8564	280.6906	313.3841	346.1014	501.6161	508.4477	523.1397	550.2374	583.3192	671.2613	698.4599	753.6768	884.1729	888.6486	953.3354	978.9679	1002.9659	1170.6453	1217.135	1265.2735	1336.0296	1419.3942	1446.2242	1626.095	1683.0053	1711.2317	1762.1775	3197.7084	3472.8681	3563.1032	3672.6805
NC1=C(F)C(=N)N=CO1	N[C@@H]1C(=C([NH])N=CO1)F	
InChI=1S/C4H4FN3O/c5-2-3(6)8-1-9-4(2)7/h1,6H,7H2	InChI=1S/C4H5FN3O/c5-2-3(6)8-1-9-4(2)7/h1,4,6H,7H2/t4-/m0/s1
