16
gdb 108687	2.25622	1.52358	0.92859	3.5458	74.41	-0.2572	-0.0495	0.2076	1193.0799	0.12395	-437.895843	-437.886981	-437.886036	-437.930351	30.746	
O	 0.2748695524	 1.2938437122	 0.303063383	-0.398942
C	 0.0494902381	-0.0614806927	 0.0067288641	-0.182213
C	-1.3859264136	-0.4931086152	-0.0115901155	 0.147937
C	-2.5052984515	 0.2425760143	-0.0193275942	 0.089362
C	-3.7200687549	-0.6635984895	-0.0467730955	-0.157358
O	-3.1892604885	-1.9784589229	-0.1297984741	-0.260341
C	-1.7731394301	-1.9487982085	-0.0390217578	-0.138255
C	-2.6207222703	 1.6557562217	-0.0304589044	 0.193181
N	-2.7687855598	 2.8045765543	-0.0763748021	-0.346649
H	-0.1288247917	 1.8443361343	-0.3763925971	 0.302612
H	 0.5122661438	-0.3628940345	-0.9505027486	 0.118022
H	 0.5762761316	-0.633012523	 0.7822862361	 0.136666
H	-4.33246084	-0.5480581315	 0.8601220738	 0.12586
H	-4.366981587	-0.4664682474	-0.9126223588	 0.128211
H	-1.3331811639	-2.479841783	-0.897267489	 0.121574
H	-1.4302684745	-2.4679940085	 0.87157876	 0.120335
63.9703	72.0826	139.416	150.4757	203.493	232.9338	344.3948	383.8539	430.0335	540.7891	562.2212	605.6374	690.3352	817.9974	927.6107	951.4142	1026.2896	1052.0925	1072.5166	1079.4091	1118.3846	1155.7156	1173.3088	1220.4319	1229.1511	1248.5728	1360.6584	1386.3032	1393.3585	1423.8058	1479.6338	1512.1436	1528.4409	1713.5795	2332.9248	2945.4746	2967.3228	2992.0939	2996.299	3025.2627	3040.0441	3818.0625
OCC1=C(COC1)C#N	OCC1=C(COC1)C#N	
InChI=1S/C6H7NO2/c7-1-5-3-9-4-6(5)2-8/h8H,2-4H2	InChI=1S/C6H7NO2/c7-1-5-3-9-4-6(5)2-8/h8H,2-4H2
