20
gdb 47419	2.7202	1.33796	1.00899	2.9241	79.83	-0.2521	0.0297	0.2819	1222.0842	0.172822	-403.158273	-403.149912	-403.148967	-403.192016	31.637	
N	-0.4166305116	 1.2528969457	-0.3880926147	-0.542239
C	-0.2272334977	 0.0116620443	-0.2553322128	 0.411258
O	 1.0030690438	-0.5832433407	-0.1962355924	-0.240222
C	 0.8693287681	-2.005790612	-0.0376418356	-0.083338
C	-0.558886464	-2.3333849086	-0.4914754599	-0.251366
C	-1.3190845188	-1.0409892084	-0.1332173306	-0.104921
C	-1.9156779939	-1.0606554815	 1.2655098994	 0.032848
C	-2.9703922858	-0.0603598082	 1.6473650853	-0.258114
C	-3.3420963013	-1.5123875243	 1.4665818438	-0.28544
H	 0.4755053701	 1.749668466	-0.4262537495	 0.218529
H	 1.6462825161	-2.4842358839	-0.6384557815	 0.119101
H	 1.037766205	-2.263022928	 1.0156727419	 0.11234
H	-0.577580609	-2.501262602	-1.5724347319	 0.113339
H	-0.9649155255	-3.2198941535	 0.0001947057	 0.112758
H	-2.1120463138	-0.8127731959	-0.8491884718	 0.097525
H	-1.2124921888	-1.3356585034	 2.0483991345	 0.081543
H	-2.9520872022	 0.3458486317	 2.6522946527	 0.112605
H	-3.2802503676	 0.6495572928	 0.8889859669	 0.13202
H	-3.915247568	-1.784850862	 0.5860090799	 0.110937
H	-3.5783454651	-2.1001664581	 2.3467596207	 0.110838
55.4854	84.6109	156.2182	181.7284	277.746	297.0028	390.0716	478.6522	642.7949	666.6328	673.9547	764.5084	819.9036	832.0266	865.7352	891.0137	899.9206	927.566	956.4294	964.4453	1001.3602	1046.6779	1057.7189	1059.8754	1076.4382	1114.974	1132.1944	1179.465	1193.4236	1212.6845	1228.4411	1232.2027	1273.7813	1289.8305	1298.528	1342.2619	1407.5593	1417.178	1473.6856	1491.8867	1508.7388	1526.5433	1772.8684	3027.375	3058.7394	3083.7918	3099.4936	3117.8596	3128.5796	3130.7542	3143.464	3209.5334	3229.3828	3466.2502
N=C1OCCC1C1CC1	[NH][C]1OCC[C@H]1C1CC1	
InChI=1S/C7H11NO/c8-7-6(3-4-9-7)5-1-2-5/h5-6,8H,1-4H2	InChI=1S/C7H11NO/c8-7-6(3-4-9-7)5-1-2-5/h5-6,8H,1-4H2/t6-/m0/s1
