19
gdb 82226	2.46274	2.01195	1.48804	0.5508	72.71	-0.2434	0.0643	0.3077	949.0368	0.16118	-422.99637	-422.989213	-422.988269	-423.027586	29.276	
C	-0.0267752104	 1.5604630502	-0.0343951428	-0.408011
C	 0.0491627928	 0.0313589466	 0.0234074134	-0.02021
C	 0.705495461	-0.5786487467	-1.2136183323	 0.047298
O	 2.0510344656	-0.1822009065	-1.5188670055	-0.254614
C	 1.8295500334	-1.4992163464	-0.9930279593	 0.03079
C	 2.1549157834	-1.7177715548	 0.4845227672	 0.05796
C	 2.302488845	-0.3746396743	 1.2207307457	-0.254988
C	 0.7629880549	-0.4959977093	 1.284116182	 0.075293
O	 0.8858621684	-1.9454392216	 1.1729127126	-0.302207
H	 0.9700680364	 1.9991891429	-0.1323505654	 0.134834
H	-0.6205947555	 1.8908365377	-0.8925054298	 0.119637
H	-0.4934749884	 1.9649592685	 0.8700052222	 0.114422
H	-0.9696237256	-0.3771221969	 0.0593143766	 0.086334
H	 0.0737682583	-0.6948212981	-2.0934256256	 0.095594
H	 2.0319151818	-2.3091187763	-1.6906595977	 0.094212
H	 2.8698330828	-2.5240590379	 0.6610664089	 0.075407
H	 2.7530832456	-0.5090697582	 2.2048130496	 0.107208
H	 2.7541306358	 0.4592404847	 0.6874189384	 0.124936
H	 0.2443850147	-0.1958212735	 2.1992912318	 0.076104
158.7062	201.1741	223.0766	328.1035	373.4858	428.3212	464.4607	521.4633	622.5838	660.8908	747.7958	804.7368	845.1907	876.9809	903.4284	926.0465	944.6733	949.4116	966.4391	1016.0376	1033.0152	1061.4901	1094.8013	1102.3398	1121.1039	1145.7672	1152.4347	1221.0905	1257.5634	1279.4243	1297.2941	1303.8732	1333.9478	1344.8486	1359.2344	1387.6819	1410.2893	1450.3792	1484.2235	1495.5056	1502.6059	3022.3932	3036.3719	3066.8052	3086.9549	3098.3043	3101.2946	3114.6327	3117.3212	3137.6415	3166.2464
CC1C2OC2C2CC1O2	C[C@H]1[C@H]2O[C@H]2[C@H]2C[C@@H]1O2	
InChI=1S/C7H10O2/c1-3-4-2-5(8-4)7-6(3)9-7/h3-7H,2H2,1H3	InChI=1S/C7H10O2/c1-3-4-2-5(8-4)7-6(3)9-7/h3-7H,2H2,1H3/t3-,4+,5-,6-,7+/m1/s1
