16
gdb 29183	3.08105	1.38288	0.9601	3.889	78.56	-0.1978	-0.0397	0.1581	1169.7216	0.124207	-437.919333	-437.911113	-437.910169	-437.951925	31.341	
C	-0.0344879067	 1.5143626323	 0.0620240272	-0.481751
C	-0.0051753423	 0.0152219424	-0.0027598919	 0.249194
C	-0.0221423405	-0.6793200582	-1.1618824087	-0.238642
C	 0.0065230454	-2.127373488	-1.2155739345	 0.383712
N	-0.0091549686	-2.7899766047	-2.3021017331	-0.5469
O	 0.0534889079	-2.7808283567	 0.0120261877	-0.241477
C	 0.0706089237	-2.0846800054	 1.1804347575	-0.058831
C	 0.0440737905	-0.7414278161	 1.2337000739	 0.19342
O	 0.0601563025	-0.0103425736	 2.3900281272	-0.435418
H	 0.8498334146	 1.898113249	 0.5817941072	 0.145288
H	-0.0721528749	 1.9476229609	-0.9392564255	 0.129839
H	-0.90265532	 1.8617302883	 0.6321209328	 0.145296
H	-0.0585986136	-0.1806809313	-2.1225088382	 0.120845
H	 0.0168842836	-3.7918247212	-2.1111036842	 0.216639
H	 0.1075862972	-2.7396470705	 2.0430575052	 0.11841
H	 0.0930732411	-0.6050551073	 3.1468646573	 0.300374
99.7643	156.3017	198.2056	281.6744	302.447	358.0859	367.9812	376.2127	429.4265	528.879	567.3532	618.7505	718.7193	742.9349	771.9981	809.7539	832.7679	853.8271	902.9479	1018.9639	1065.9955	1090.4831	1151.72	1199.9051	1208.0843	1294.1656	1301.2429	1366.5259	1413.025	1472.3802	1473.0054	1495.6453	1623.1796	1691.7664	1743.6059	3040.6106	3094.6938	3134.7377	3199.741	3213.6253	3489.3626	3819.99
CC1=CC(=N)OC=C1O	C[C@H]1C=C([NH])OC=C1O	
InChI=1S/C6H7NO2/c1-4-2-6(7)9-3-5(4)8/h2-3,7-8H,1H3	InChI=1S/C6H8NO2/c1-4-2-6(7)9-3-5(4)8/h2-4,7-8H,1H3/t4-/m0/s1
