21
gdb 98667	4.36011	0.86621	0.76008	3.7615	81.97	-0.2291	0.061	0.2901	1560.7573	0.182349	-420.434479	-420.424268	-420.423324	-420.470664	35.777	
C	-0.2364923312	 1.3590540529	-0.098445638	-0.322247
N	-0.0448030866	-0.0786074141	-0.0724928795	-0.353262
C	 0.6064931236	-0.7100974785	-1.1124028591	 0.450821
O	 1.2068286249	-0.1202075582	-1.996581556	-0.413745
N	 0.5356799051	-2.0860056744	-1.0669475305	-0.122366
C	 0.4544502108	-2.9677197205	 0.1080772806	-0.202817
C	 1.2673201911	-4.0373146847	-0.6813508602	 0.010142
C	 0.4933905775	-5.2820188236	-1.091447365	-0.400701
C	 1.4606170182	-2.9621127863	-1.7942116756	-0.172776
H	 0.5566929284	 1.7848782479	-0.7134463241	 0.167556
H	-1.2022034222	 1.650170155	-0.533338515	 0.117182
H	-0.1705699063	 1.7696411251	 0.9138114289	 0.117312
H	-0.7114681756	-0.6229073656	 0.4509994593	 0.240767
H	 0.9603573096	-2.5647550072	 0.9947803106	 0.109648
H	-0.5656401997	-3.2632371625	 0.3865264978	 0.100231
H	 2.1997159033	-4.3149122917	-0.1851239273	 0.08367
H	-0.4452551625	-5.0136234751	-1.5890645499	 0.124052
H	 1.0765905852	-5.8953423479	-1.7865161833	 0.121427
H	 0.2486528108	-5.9025871934	-0.2226068872	 0.116869
H	 1.1153668553	-3.2450561676	-2.7944111602	 0.109974
H	 2.4693149805	-2.5440667398	-1.8763423163	 0.118263
45.9215	70.2086	109.9651	117.0177	136.0092	195.4995	246.1997	297.0184	346.4077	369.5574	444.8817	481.0086	553.6557	759.6582	769.0449	818.7766	889.0902	909.4771	911.3964	936.8024	1019.2996	1082.6887	1124.3841	1147.3444	1149.7274	1154.2843	1159.0525	1188.3442	1200.949	1217.2765	1272.7145	1293.0783	1331.0015	1354.4277	1378.3283	1413.7629	1440.9264	1491.2547	1496.2129	1496.6949	1502.7783	1513.0632	1530.6009	1558.1337	1770.7752	3002.9426	3011.4629	3027.5793	3036.3618	3043.5997	3074.1793	3078.6784	3083.8804	3098.0781	3103.8901	3155.1707	3631.3235
CNC(=O)N1CC(C)C1	CNC(=O)N1CC(C)C1	
InChI=1S/C6H12N2O/c1-5-3-8(4-5)6(9)7-2/h5H,3-4H2,1-2H3,(H,7,9)	InChI=1S/C6H12N2O/c1-5-3-8(4-5)6(9)7-2/h5H,3-4H2,1-2H3,(H,7,9)
