15
gdb 74896	2.93748	1.72613	1.18763	1.9907	68.62	-0.2303	-0.0476	0.1827	993.3863	0.114164	-453.972202	-453.964847	-453.963903	-454.003908	28.78	
N	-0.0064144658	 1.2762869599	 0.0711087476	-0.537133
C	-0.0842825055	-0.0810338342	 0.0094398182	 0.234174
N	-1.1993328005	-0.7102703038	 0.0717078364	-0.305208
C	-1.1750948593	-2.1215530813	-0.1007494148	-0.017273
C	-0.7500988699	-2.708552552	-1.4399853939	-0.323658
C	 0.14773151	-2.8268474306	-0.2459457298	 0.087166
O	 1.3365125179	-2.0607949367	-0.1634917884	-0.221844
C	 1.2864270957	-0.7238824929	-0.0911426153	 0.396087
O	 2.3007187812	-0.0743316548	-0.0449191728	-0.341341
H	 0.9035602649	 1.6704233789	 0.2456982459	 0.277697
H	-0.8273186804	 1.7779685775	 0.366623712	 0.263373
H	-1.9701709267	-2.6328439139	 0.4324028096	 0.106316
H	-1.2355020303	-3.6097999091	-1.7977224471	 0.126885
H	-0.4738066789	-1.9934434781	-2.2078667033	 0.133753
H	 0.3234546176	-3.7973351492	 0.2020042954	 0.121009
107.4363	141.1015	327.506	355.2652	369.4944	431.6705	451.791	501.4602	521.5725	561.5954	565.9866	710.8306	750.3376	793.1785	812.8924	835.9672	918.608	1018.7041	1024.6282	1042.5634	1074.9742	1120.4388	1152.2932	1189.7408	1260.3857	1264.4901	1374.1479	1380.6219	1427.2477	1467.9197	1593.3625	1717.3014	1818.7874	3132.1903	3155.9418	3184.639	3227.5772	3597.2368	3730.1118
NC1=NC2CC2OC1=O	NC1=N[C@H]2C[C@H]2OC1=O	
InChI=1S/C5H6N2O2/c6-4-5(8)9-3-1-2(3)7-4/h2-3H,1H2,(H2,6,7)	InChI=1S/C5H6N2O2/c6-4-5(8)9-3-1-2(3)7-4/h2-3H,1H2,(H2,6,7)/t2-,3+/m0/s1
