21
gdb 55377	2.40378	1.36592	1.02917	2.5636	85.46	-0.2282	-0.012	0.2162	1254.8924	0.1815	-387.135371	-387.1258	-387.124856	-387.170206	35.188	
C	-0.0085839578	 1.544070472	-0.1484663503	-0.483662
C	 0.0717304206	 0.0433450321	 0.0599036229	 0.384635
O	 1.1300439507	-0.5219423547	 0.2115387298	-0.306744
C	-1.2605379404	-0.7220534455	 0.0729253468	-0.181554
C	-1.1482087761	-2.133819997	-0.5543389874	-0.229546
C	-2.0177808853	-3.0612659021	 0.3279682991	-0.258413
C	-2.1480076103	-2.2804820005	 1.607844653	-0.169833
C	-1.7489646781	-1.0126294384	 1.4957509075	 0.353564
C	-1.8013358744	 0.0424346395	 2.55698474	-0.504268
H	 0.9772008551	 1.9955046882	-0.0300565458	 0.139653
H	-0.3873080477	 1.7511732051	-1.1568963683	 0.141916
H	-0.7183741902	 1.9987103998	 0.5509941992	 0.137749
H	-2.0108258008	-0.1004985433	-0.4381710535	 0.072248
H	-1.4404107424	-2.1456541477	-1.6073480793	 0.094
H	-0.1005631704	-2.4379954184	-0.4902910301	 0.133477
H	-3.006739162	-3.2447788882	-0.1162401058	 0.102442
H	-1.5604279883	-4.0470386107	 0.4706947443	 0.105937
H	-2.5675847492	-2.704816047	 2.5147528992	 0.086123
H	-2.219551607	-0.3536124695	 3.4861117496	 0.126178
H	-0.804541486	 0.4420787086	 2.7818093927	 0.13464
H	-2.4208774401	 0.894344608	 2.2463582763	 0.121458
48.3514	85.9813	147.6653	163.7913	206.687	247.5117	260.7803	337.6767	339.8441	457.92	562.5676	582.7027	614.8317	665.3593	783.004	835.1706	873.6408	913.8791	928.4916	940.9082	974.6402	1010.5015	1036.3255	1041.9338	1076.3217	1079.4869	1165.7803	1177.8398	1193.2266	1240.7315	1271.1951	1291.6631	1316.4371	1345.1504	1359.14	1379.5146	1414.8775	1461.2756	1474.1312	1482.2416	1484.0607	1491.6602	1500.3788	1721.9889	1811.7117	2988.6776	3003.4764	3013.3702	3033.4618	3051.0021	3060.0046	3067.7575	3094.285	3110.9453	3116.778	3151.2012	3179.3668
CC(=O)C1CCC=C1C	CC(=O)[C@H]1CCC=C1C	
InChI=1S/C8H12O/c1-6-4-3-5-8(6)7(2)9/h4,8H,3,5H2,1-2H3	InChI=1S/C8H12O/c1-6-4-3-5-8(6)7(2)9/h4,8H,3,5H2,1-2H3/t8-/m0/s1
