20
gdb 85811	2.60868	1.2376	1.12864	4.3284	79.48	-0.2748	0.0346	0.3094	1189.1046	0.169587	-403.159867	-403.150166	-403.149222	-403.193818	36.372	
C	-0.7168765058	 1.155747557	-0.1197328677	-0.417537
C	 0.0413080318	-0.160042491	-0.1489297203	-0.005319
C	 1.3714956594	-0.2702824287	-0.9400818531	 0.087186
O	 1.9998407168	 0.9976523621	-1.0047256939	-0.422968
C	 1.9291186077	-1.191019255	 0.1796544282	-0.290352
C	 0.8006123117	-0.6761346359	 1.139479281	 0.150709
C	 1.2837069561	 0.4256563876	 2.093673657	-0.454904
C	 0.0928752165	-1.7165497822	 1.8772064141	 0.226298
N	-0.4754726286	-2.5462856853	 2.4490490862	-0.351457
H	-0.0688469729	 1.9920113312	 0.1477940722	 0.137755
H	-1.1415055612	 1.3688821813	-1.106125417	 0.122721
H	-1.5445800924	 1.1094798104	 0.5955525601	 0.124355
H	-0.6203125807	-0.9624109501	-0.4884909308	 0.096849
H	 1.2962550713	-0.7176233706	-1.9390801418	 0.072834
H	 2.8793925932	 0.8775929951	-1.3770082865	 0.288465
H	 1.8226260987	-2.2515707373	-0.0573545832	 0.122367
H	 2.9529613383	-0.9920695198	 0.5062668989	 0.10766
H	 1.8335210531	 1.1824731877	 1.5314999055	 0.143449
H	 0.443473398	 0.9039490412	 2.6043888818	 0.132668
H	 1.9463804287	 0.0021053021	 2.8543398793	 0.129222
97.0791	136.0205	175.5416	187.2377	226.6687	253.0242	278.0435	294.7636	321.9613	383.5958	404.0472	525.9009	556.293	589.5861	613.6727	754.5977	836.2176	864.0786	888.6118	936.4695	962.8398	993.5229	1018.0889	1077.3477	1112.4819	1163.318	1175.8608	1182.2194	1206.0766	1243.9941	1255.6536	1300.2632	1328.7699	1370.8822	1406.6875	1410.0473	1424.7332	1468.7898	1484.5392	1493.3017	1500.3498	1510.0186	2344.7727	3017.2123	3041.2839	3047.582	3062.9745	3068.8219	3101.7359	3116.3045	3127.875	3136.8879	3144.288	3817.0583
CC1C(O)CC1(C)C#N	C[C@H]1[C@@H](O)C[C@]1(C)C#N	
InChI=1S/C7H11NO/c1-5-6(9)3-7(5,2)4-8/h5-6,9H,3H2,1-2H3	InChI=1S/C7H11NO/c1-5-6(9)3-7(5,2)4-8/h5-6,9H,3H2,1-2H3/t5-,6-,7+/m0/s1
