16
gdb 32717	6.86479	0.76672	0.69274	1.0172	82.37	-0.198	-0.0147	0.1833	1575.55	0.125329	-434.104462	-434.095876	-434.094932	-434.139223	29.817	
C	 0.0268059792	 1.3605284934	 0.0075212624	-0.252332
O	 0.0417058336	-0.0652216705	 0.00168448	-0.189304
C	-1.1585444254	-0.6555476335	 0.0087062713	 0.135583
N	-1.2331927287	-1.9233013506	 0.0044614114	-0.361199
C	-2.4935770634	-2.4898897924	 0.0118055228	 0.449998
N	-3.6843935955	-1.9162642284	 0.0232459767	-0.325444
C	-4.5866067225	-2.9512409495	 0.0259751461	-0.089921
C	-3.9426049556	-4.1619939962	 0.0161666322	-0.112835
N	-2.6020922879	-3.8501106425	 0.0071369047	-0.299708
H	 1.0701687175	 1.6764648751	-0.0011575106	 0.148717
H	-0.4789237002	 1.7560303443	-0.8806481579	 0.13572
H	-0.4618667735	 1.7488249686	 0.908332098	 0.135726
H	-2.0277792568	 0.0104254405	 0.0177443357	 0.126411
H	-5.6507332685	-2.76875589	 0.0348732562	 0.104019
H	-4.2966202214	-5.1789170092	 0.014788431	 0.126337
H	-1.8199404408	-4.4830568089	-0.00140679	 0.268233
34.2798	73.8456	116.6502	163.4918	184.4224	329.3314	375.9721	407.0187	546.6365	562.6366	646.5204	709.2555	756.8563	814.3236	849.9064	932.2044	1004.8344	1008.409	1065.5968	1096.1103	1136.5713	1167.857	1177.0298	1205.0991	1264.4696	1307.2555	1378.2279	1402.7074	1470.3283	1487.4127	1494.3164	1497.9974	1499.1956	1575.5025	1729.1953	3022.4615	3079.82	3090.3138	3150.9915	3244.5252	3283.8683	3669.7955
COC=NC1=NC=CN1	COC=Nc1ncc[nH]1	
InChI=1S/C5H7N3O/c1-9-4-8-5-6-2-3-7-5/h2-4H,1H3,(H,6,7)	InChI=1S/C5H7N3O/c1-9-4-8-5-6-2-3-7-5/h2-4H,1H3,(H,6,7)
