17
gdb 32287	2.86033	1.43564	1.02785	1.6796	78.05	-0.237	-0.0428	0.1943	1153.7482	0.138468	-418.088704	-418.080716	-418.079772	-418.121503	29.837	
C	 0.032435091	 1.5658296626	 0.0837903856	-0.378514
C	-0.0107669372	 0.0370850878	-0.0907433612	-0.277551
C	-1.4067015925	-0.5217002804	-0.0539499737	 0.130752
C	-2.0515592636	-1.0171116548	-1.1484411055	-0.075534
N	-3.3279309611	-1.5286551883	-1.168068695	-0.282796
C	-3.9442314127	-1.5341255603	-0.0302498699	 0.11012
N	-3.4000241532	-1.0761443113	 1.1248394284	-0.334931
C	-2.1021627537	-0.5334144738	 1.22607425	 0.37906
O	-1.6800954166	-0.1447816366	 2.3013833825	-0.388257
H	 1.0660646692	 1.9241575516	 0.062184038	 0.113821
H	-0.5185836857	 2.0685185962	-0.7174938644	 0.112986
H	-0.4095950689	 1.8509207542	 1.0410907229	 0.147555
H	 0.4625621837	-0.245333243	-1.0374390763	 0.099698
H	 0.5707302468	-0.4243988881	 0.7157058641	 0.123938
H	-1.5445784812	-1.0275172335	-2.1107062569	 0.113904
H	-4.9576343715	-1.9213799541	 0.0400422156	 0.138037
H	-3.9234570026	-1.1063262684	 1.9904436159	 0.267712
81.0667	126.3129	189.9682	213.4147	298.1552	321.9542	438.2613	482.4229	541.7236	579.3729	618.2971	731.5035	737.1335	784.2773	817.7182	899.7022	938.5932	974.3137	986.6853	1068.097	1082.355	1101.0335	1137.7236	1203.9843	1270.5347	1286.214	1354.6106	1397.9363	1400.9764	1425.8731	1468.2041	1473.6876	1495.7638	1512.1902	1592.4008	1657.4616	1780.3428	3034.7736	3041.2682	3075.9833	3108.6223	3134.5712	3156.0325	3168.7979	3590.0428
CCC1=CN=CNC1=O	CCc1cnc[nH]c1=O	
InChI=1S/C6H8N2O/c1-2-5-3-7-4-8-6(5)9/h3-4H,2H2,1H3,(H,7,8,9)	InChI=1S/C6H8N2O/c1-2-5-3-7-4-8-6(5)9/h3-4H,2H2,1H3,(H,7,8,9)
