23
gdb 96584	2.30895	1.44794	1.02817	1.8357	82.	-0.2563	0.078	0.3343	1256.8521	0.207623	-425.431584	-425.422687	-425.421743	-425.464895	34.83	
C	 0.1881427952	 1.6445304852	 0.0915332732	-0.397023
C	 0.0108253992	 0.1305772374	 0.0141228207	 0.143914
C	 0.6761348063	-0.4526324986	-1.2499489025	-0.197379
C	 1.0448109975	-1.9412978278	-1.1960095862	-0.19339
C	-0.0996067577	-2.9605543313	-1.1040203596	-0.199862
C	-0.9545089133	-2.8945054582	 0.1721125096	-0.069024
O	-0.1768711663	-2.6834374811	 1.3453389753	-0.234254
C	-0.2016691829	-1.3864577316	 1.8769066604	 0.00468
O	 0.5735554023	-0.433853097	 1.2041548257	-0.249446
H	 1.2487423088	 1.8901344497	 0.2050626197	 0.12667
H	-0.1815222282	 2.1263730562	-0.8195168969	 0.111468
H	-0.3525860367	 2.057148259	 0.9478021777	 0.114578
H	-1.0652193569	-0.0915164911	-0.0028856586	 0.066296
H	 0.0202942307	-0.2482679254	-2.1071388638	 0.089997
H	 1.6012756605	 0.1085584693	-1.4339553708	 0.097027
H	 1.6253667603	-2.17381901	-2.0965127493	 0.089019
H	 1.7134423525	-2.0983929132	-0.3449410299	 0.12341
H	-0.7715152121	-2.8707294475	-1.96868441	 0.089601
H	 0.3468808148	-3.9600567059	-1.165714333	 0.103452
H	-1.7275741013	-2.1183029251	 0.0915981055	 0.090342
H	-1.4785177185	-3.8485481444	 0.3049882192	 0.100738
H	-1.2470624312	-1.034282728	 1.9441194502	 0.077119
H	 0.232455557	-1.4716323207	 2.8762217336	 0.112067
83.1627	151.5861	196.5918	236.8182	266.639	295.5401	320.8801	339.5239	431.4595	467.9761	490.8835	555.2552	614.4172	771.59	790.0575	812.2555	863.1073	890.4593	935.6593	996.5849	1008.8663	1019.3623	1072.3896	1086.7716	1099.5077	1115.0238	1148.8211	1176.2579	1202.0695	1213.7727	1268.2449	1303.1022	1309.2066	1332.4058	1339.8374	1389.3151	1390.0513	1396.2038	1397.9703	1407.776	1420.1772	1451.7413	1477.5583	1480.2723	1486.7434	1490.1352	1492.4629	1499.0274	1516.3227	2935.3472	2992.2786	3009.2854	3011.9136	3018.1724	3037.1511	3039.7231	3045.3468	3052.0874	3065.8354	3098.8487	3100.5525	3110.726	3116.78
CC1CCCCOCO1	C[C@H]1CCCCOCO1	
InChI=1S/C7H14O2/c1-7-4-2-3-5-8-6-9-7/h7H,2-6H2,1H3	InChI=1S/C7H14O2/c1-7-4-2-3-5-8-6-9-7/h7H,2-6H2,1H3/t7-/m0/s1
