19
gdb 81501	3.46688	1.27505	1.05362	3.795	81.07	-0.2529	0.0227	0.2756	1174.6999	0.159283	-382.016459	-382.007807	-382.006862	-382.049321	33.123	
C	-0.2304414568	 1.5529634195	 0.7725278039	-0.438068
C	-0.0941201011	 0.0677143203	 0.4903289638	 0.039609
C	 1.0861440192	-0.4485375305	-0.3874761909	-0.066961
N	 1.9984873069	-0.070252614	 0.7607373676	-0.3341
C	 0.8332426543	-0.808689923	 1.3858665659	-0.066954
C	 0.8819787345	-1.8886619208	 0.2322091799	 0.182634
C	-0.3038787392	-2.7939816528	-0.1207607926	-0.486447
C	 2.1012636706	-2.7002871652	 0.2412757007	 0.220183
N	 3.0447937877	-3.3699377287	 0.2398508316	-0.345986
H	 0.7351849315	 2.0038181929	 1.0018159973	 0.149775
H	-0.6626237038	 2.0658055995	-0.0937149534	 0.116503
H	-0.9068103267	 1.718097979	 1.6183531807	 0.116503
H	-1.0639108156	-0.3729475058	 0.2625364109	 0.072336
H	 1.329139818	-0.211311901	-1.4247804146	 0.094249
H	 2.8346687646	-0.6606782111	 0.7600753544	 0.231724
H	 0.7752831142	-1.0000553397	 2.4588733186	 0.094248
H	-1.2510367005	-2.2556509155	-0.1468591524	 0.134358
H	-0.1469659471	-3.2541589749	-1.1008718618	 0.143198
H	-0.3916114609	-3.6015771783	 0.6121091404	 0.143194
132.4149	154.6756	157.8721	202.8695	246.9593	265.6217	323.8018	370.6768	480.0566	521.4891	560.3269	631.5494	696.4918	741.7756	799.9151	808.3012	875.8653	880.73	914.2455	1032.688	1046.8477	1079.1471	1079.4021	1101.8874	1115.6247	1146.7952	1175.8967	1200.9179	1211.2205	1223.8726	1254.6417	1289.7832	1303.3143	1399.7082	1407.6506	1428.949	1488.9306	1490.4881	1498.798	1507.5351	2341.7048	3037.6418	3050.8517	3091.9268	3101.502	3103.2435	3112.865	3115.3938	3147.7897	3154.531	3409.9689
CC1C2NC1C2(C)C#N	C[C@H]1[C@H]2N[C@@H]1[C@]2(C)C#N	
InChI=1S/C7H10N2/c1-4-5-7(2,3-8)6(4)9-5/h4-6,9H,1-2H3	InChI=1S/C7H10N2/c1-4-5-7(2,3-8)6(4)9-5/h4-6,9H,1-2H3/t4-,5+,6-,7+
