20
gdb 104251	2.18496	1.33291	1.0709	4.4507	78.84	-0.2771	0.0013	0.2784	1234.5262	0.16944	-403.147398	-403.137639	-403.136694	-403.182568	35.235	
C	 0.0433840402	 1.5803066408	-0.1474865915	-0.401481
C	-0.0244704732	 0.0551057105	-0.0057237441	-0.243946
C	-1.4495054802	-0.5043040101	 0.0355857226	 0.26545
C	-2.2528378589	-0.0200755516	 1.24158786	-0.461319
C	-2.2340798792	-0.4415562462	-1.3022248722	-0.107457
O	-2.3998444405	-1.8786238117	-1.3355032007	-0.272867
C	-1.5921093293	-2.0569338759	-0.1623111975	-0.064531
C	-0.3693271015	-2.8219884159	-0.43040477	 0.29387
N	 0.5983115433	-3.4231391896	-0.6263472755	-0.333854
H	 1.0819620492	 1.9057468626	-0.2540116211	 0.126314
H	-0.5012913041	 1.9259203789	-1.0333847041	 0.120274
H	-0.3742261394	 2.0947315482	 0.7228360063	 0.123214
H	 0.5133344152	-0.406706707	-0.8409645271	 0.122777
H	 0.5064730173	-0.255053863	 0.9031846384	 0.109574
H	-2.3842869793	 1.0655415281	 1.2183559884	 0.12911
H	-3.2494904101	-0.4727047934	 1.2579597201	 0.127867
H	-1.747062228	-0.2778913681	 2.1786075602	 0.125698
H	-3.199835339	 0.0744787341	-1.273759622	 0.109992
H	-1.6565852333	-0.0851703413	-2.1636402665	 0.111296
H	-2.1443936291	-2.5660634095	 0.6374189663	 0.120018
39.576	94.92	124.7313	190.754	204.5066	232.3185	264.8295	324.2768	350.3678	380.6864	420.7031	534.5493	583.4554	654.6852	787.6753	831.8851	892.9763	922.8738	951.4132	972.9291	1017.5443	1023.9998	1034.6088	1061.8611	1075.85	1160.9399	1173.3238	1203.8674	1241.9471	1276.7191	1323.8261	1362.0463	1364.6265	1377.7067	1410.1136	1416.8844	1480.4686	1493.1149	1495.4754	1503.4432	1510.8829	1527.9501	2352.0811	3021.7521	3028.7354	3029.3192	3035.4108	3037.0306	3068.6495	3074.5757	3100.8738	3102.9384	3109.5565	3117.1251
CCC1(C)COC1C#N	CC[C@@]1(C)CO[C@H]1C#N	
InChI=1S/C7H11NO/c1-3-7(2)5-9-6(7)4-8/h6H,3,5H2,1-2H3	InChI=1S/C7H11NO/c1-3-7(2)5-9-6(7)4-8/h6H,3,5H2,1-2H3/t6-,7-/m0/s1
