16
gdb 45801	2.87433	1.57726	1.10083	2.6006	71.65	-0.2369	-0.0195	0.2174	1050.2907	0.126508	-437.906254	-437.899026	-437.898081	-437.938016	28.171	
O	-0.1569429289	 0.0647470602	-0.781000707	-0.346538
C	-0.0299103693	 1.0951745429	-0.1539012484	 0.373861
C	-1.1596309747	 1.7609594445	 0.6127633083	-0.336653
C	-1.4949444278	 3.1586574249	 0.1247076001	 0.023919
O	-1.6130893527	 4.1603007176	 1.1340610368	-0.256394
C	-0.5010400329	 4.2360336004	 0.2165867219	 0.014633
C	 0.8704031349	 4.0058658132	 0.7262323117	-0.128064
C	 1.599731466	 2.8979029208	 0.5472792728	 0.013146
N	 1.215802683	 1.69785969	-0.0509572546	-0.323588
H	-2.0234609564	 1.0983979812	 0.5445116135	 0.134294
H	-0.8652499895	 1.8461588554	 1.6641304914	 0.142573
H	-2.247114482	 3.2176265947	-0.6612475077	 0.10631
H	-0.5935323348	 5.0766839652	-0.4736126077	 0.102902
H	 1.3548513009	 4.8402398494	 1.2236352656	 0.104624
H	 2.6347114343	 2.8858760572	 0.8779949698	 0.118743
H	 1.9471919999	 1.1318608224	-0.4586841065	 0.256232
110.7869	142.1014	271.8571	328.1483	364.2853	398.532	499.3782	556.9741	563.5763	634.0251	703.8149	749.5854	817.7078	827.2771	868.6858	869.2813	965.3035	972.4248	979.9444	1033.8256	1088.6996	1108.6959	1159.0126	1194.0613	1256.935	1293.2342	1313.7543	1336.0351	1383.9919	1446.1391	1465.9167	1479.0988	1485.0906	1720.6079	1797.548	3061.217	3086.7948	3114.9264	3136.3952	3161.3521	3184.4538	3599.1556
O=C1CC2OC2C=CN1	O=C1C[C@H]2O[C@H]2C=CN1	
InChI=1S/C6H7NO2/c8-6-3-5-4(9-5)1-2-7-6/h1-2,4-5H,3H2,(H,7,8)	InChI=1S/C6H7NO2/c8-6-3-5-4(9-5)1-2-7-6/h1-2,4-5H,3H2,(H,7,8)/t4-,5+/m0/s1
