21
gdb 119787	4.31883	0.86459	0.83842	1.3722	84.64	-0.2154	0.02	0.2354	1458.9601	0.183718	-387.053894	-387.045386	-387.044442	-387.087666	32.758	
O	-0.0987625456	 1.41304578	-0.1157168043	-0.417395
C	 0.0147549294	-0.0013950809	-0.1355685808	-0.066356
C	-1.3683855977	-0.5818760573	 0.1728291317	-0.331543
C	-1.4017524322	-2.0714660528	 0.1098357089	 0.354398
C	-1.5746983899	-2.9975304612	 1.0604237563	-0.209465
C	-1.4991683352	-4.3268191293	 0.2962523142	-0.057067
C	-0.2708931475	-4.0451719278	-0.6363589573	-0.20648
C	-1.2338845255	-2.9276307791	-1.165251716	-0.1099
C	-2.3786542349	-3.9773549129	-0.9542306123	-0.206022
H	 0.7709630671	 1.7874768748	-0.2827827693	 0.285653
H	 0.3594684173	-0.360712954	-1.1185620595	 0.087706
H	 0.7356144897	-0.3603140628	 0.6154919414	 0.08967
H	-1.67673978	-0.2367419205	 1.1655665006	 0.110084
H	-2.0737860069	-0.1496521689	-0.5499193033	 0.111538
H	-1.7426580609	-2.8721866243	 2.1213078698	 0.093786
H	-1.6126341338	-5.2582275878	 0.8503198235	 0.057569
H	 0.6595340716	-3.7267059533	-0.1598986356	 0.087853
H	-0.0848705652	-4.8399887262	-1.3663260762	 0.089301
H	-1.0763379942	-2.4179148182	-2.1164805015	 0.056223
H	-2.3911075018	-4.7654307302	-1.7144889146	 0.089262
H	-3.3857306537	-3.5954157774	-0.7705156858	 0.091185
68.8344	92.7267	99.8367	257.39	261.9998	322.4272	355.5429	493.5574	521.8036	602.6434	684.7051	780.7661	789.2164	815.0173	833.2569	845.927	866.3175	887.5958	934.6451	999.5146	1004.6528	1016.6657	1043.9485	1065.4843	1077.5438	1079.4531	1109.3655	1111.5346	1190.4693	1208.2932	1225.5692	1232.1583	1236.8907	1241.8396	1248.3465	1273.4	1304.9983	1332.2675	1334.1088	1454.0783	1477.9445	1480.9095	1513.9637	1527.2541	1686.3161	2967.9223	2996.2562	3018.145	3037.9439	3048.0006	3076.377	3108.3954	3109.8961	3115.3355	3119.1829	3223.1658	3830.9922
OCCC1=CC2CC1C2	OCCC1=C[C@@H]2C[C@H]1C2	
InChI=1S/C8H12O/c9-2-1-7-3-6-4-8(7)5-6/h3,6,8-9H,1-2,4-5H2	InChI=1S/C8H12O/c9-2-1-7-3-6-4-8(7)5-6/h3,6,8-9H,1-2,4-5H2/t6-,8+
