19
gdb 38025	3.81547	1.46893	1.16454	0.1021	90.69	-0.1953	-0.0063	0.1889	1081.4646	0.162577	-348.769752	-348.762823	-348.761879	-348.800944	28.685	
C	 0.0381641324	 1.5231631199	 0.075445853	-0.28159
C	 1.3238412956	 0.7351555188	-0.0384077016	-0.064619
C	 2.0219836512	 0.4221729652	 1.2554518796	-0.280661
C	 1.2440091463	-0.3613428763	 2.0184144747	 0.312166
C	 1.2369913873	-1.0135736828	 3.3766359362	-0.362096
C	-0.0438092547	-1.9163082822	 3.3458944533	-0.247791
C	-0.7286399378	-1.5769142601	 2.0341562304	-0.271811
C	 0.0014986977	-0.7086362445	 1.3231876884	 0.372692
C	-0.0222743852	 0.0032271468	 0.0228224347	-0.202104
H	-0.1750813758	 2.0203527626	 1.0155569251	 0.114186
H	-0.3193487868	 2.0426099701	-0.808053098	 0.109569
H	 1.8912295286	 0.8019212869	-0.9607535073	 0.085871
H	 2.9951031497	 0.8251803412	 1.5088250735	 0.09014
H	 2.1450540778	-1.5941458539	 3.566099665	 0.115218
H	 1.1696022539	-0.2708559257	 4.1792575604	 0.11706
H	 0.2142137729	-2.982905566	 3.3936386083	 0.107989
H	-0.69427572	-1.7286425862	 4.209301812	 0.105241
H	-1.6773881568	-2.0145609932	 1.7457355787	 0.090138
H	-0.4641764861	-0.4524134803	-0.8548543364	 0.0904
107.0043	195.2212	253.8902	388.6633	415.7704	447.6817	603.5624	661.0549	700.9631	746.8811	787.6893	794.2125	814.3617	818.5342	842.4532	871.1096	905.5301	927.9782	965.9213	991.0579	1003.6581	1027.19	1041.6374	1067.4152	1091.1618	1126.0633	1159.1743	1175.6722	1195.9815	1233.8243	1264.4907	1269.2749	1314.1719	1330.8462	1341.2342	1379.7665	1472.5878	1476.0417	1495.9116	1682.847	1709.739	3013.4486	3035.7102	3046.7647	3081.423	3125.0303	3161.564	3183.6959	3197.351	3202.7394	3217.175
C1C2C=C3CCC=C3C12	C1[C@H]2C=C3CCC=C3[C@@H]12	
InChI=1S/C9H10/c1-2-6-4-7-5-9(7)8(6)3-1/h3-4,7,9H,1-2,5H2	InChI=1S/C9H10/c1-2-6-4-7-5-9(7)8(6)3-1/h3-4,7,9H,1-2,5H2/t7-,9+/m1/s1
