17
gdb 10804	4.8289	1.46705	1.14891	3.9593	71.54	-0.2369	0.0174	0.2543	1025.0809	0.143385	-363.919572	-363.911752	-363.910808	-363.952127	28.711	
C	 0.1064200317	 1.5400689397	 0.0637542311	-0.473989
C	-0.0191149279	 0.0446845683	-0.0289476879	 0.308876
C	-0.0202185801	-0.6215460323	-1.1817517877	-0.154887
C	-0.1444197784	-2.1109191838	-1.2928286199	-0.370017
C	-0.2748802395	-2.863617993	 0.0231357388	 0.391623
O	-0.3809755883	-4.0760051254	 0.0601111584	-0.380949
N	-0.2678420564	-2.1089425651	 1.1595042392	-0.318719
C	-0.1457174822	-0.6695869906	 1.2886587788	-0.227456
H	 0.9863339514	 1.8318848726	 0.6514978289	 0.126196
H	 0.1957535447	 1.9924209296	-0.926664322	 0.127978
H	-0.764259262	 1.9842516812	 0.5632227674	 0.12624
H	 0.0738776616	-0.070103306	-2.1149649159	 0.08667
H	-1.0122287946	-2.3903542814	-1.9047482898	 0.140596
H	 0.7173976474	-2.5411539189	-1.8197963258	 0.140553
H	-0.3564466446	-2.6530065756	 2.0056616228	 0.244968
H	 0.7278125205	-0.4242459453	 1.9145203584	 0.116168
H	-1.0175374835	-0.2692445943	 1.8312457351	 0.116149
57.569	111.5553	169.06	246.0999	309.1971	432.5037	438.2366	457.5057	511.458	588.1506	653.8174	736.696	775.241	823.4337	926.9364	968.5306	980.1592	1006.6727	1073.2384	1087.246	1116.9771	1186.1686	1208.1133	1256.4433	1300.9547	1337.151	1393.8886	1402.6764	1416.1252	1453.1641	1479.3001	1490.882	1493.2866	1528.5965	1763.932	1790.9496	2966.7514	2976.6224	3017.1068	3025.8558	3046.5514	3061.9678	3118.7038	3145.5477	3607.6548
CC1=CCC(=O)NC1	CC1=CCC(=O)NC1	
InChI=1S/C6H9NO/c1-5-2-3-6(8)7-4-5/h2H,3-4H2,1H3,(H,7,8)	InChI=1S/C6H9NO/c1-5-2-3-6(8)7-4-5/h2H,3-4H2,1H3,(H,7,8)
