17
gdb 24724	3.7194	1.59483	1.14993	3.7951	83.33	-0.2026	-0.0181	0.1845	1027.1288	0.140932	-380.931353	-380.924712	-380.923768	-380.962293	26.625	
C	-0.0397490368	 1.5087142625	 0.0780173728	-0.274138
C	 1.3781794269	 2.0927323219	-0.020706697	-0.172385
N	 2.124185562	 1.4136921929	-1.0713759116	-0.065826
C	 3.1799265488	 1.8418320182	-1.8150079778	-0.001177
N	 3.7077222759	 0.87241111	-2.5346124549	-0.275925
C	 2.9715565323	-0.2437161631	-2.2268452965	-0.185994
C	 1.9812509423	 0.0579034796	-1.3156294193	 0.295345
C	 0.9186296675	-0.6613452972	-0.6543862887	-0.137257
C	-0.0317520575	-0.0015850535	 0.024117346	-0.107842
H	-0.5022397695	 1.8665309444	 1.0035255669	 0.114716
H	-0.6556182508	 1.9002319068	-0.7451861741	 0.125364
H	 1.3527037929	 3.1639441546	-0.2369801614	 0.123023
H	 1.9010727838	 1.9546602159	 0.9348596318	 0.125869
H	 3.513549235	 2.8694134399	-1.7974042902	 0.126426
H	 3.1752621668	-1.1989649536	-2.6875860813	 0.110016
H	 0.9096138184	-1.7426806411	-0.7383457301	 0.102423
H	-0.8443810679	-0.5359556683	 0.5043188353	 0.097363
140.4623	196.3577	254.8918	381.2193	433.0561	499.2833	584.4859	656.245	674.5076	704.9196	750.9285	787.6746	813.6488	847.237	887.2656	937.55	953.1195	979.5641	1019.5702	1065.76	1144.612	1166.1069	1208.4154	1212.4904	1246.1047	1275.2094	1288.3471	1360.6087	1365.2439	1383.8423	1413.2933	1422.26	1473.1822	1492.6305	1520.3172	1583.59	1684.7055	2999.8365	3019.7183	3074.4513	3094.468	3179.1471	3199.2912	3241.2325	3245.3085
C1CN2C=NC=C2C=C1	C1Cn2cncc2C=C1	
InChI=1S/C7H8N2/c1-2-4-9-6-8-5-7(9)3-1/h1,3,5-6H,2,4H2	InChI=1S/C7H8N2/c1-2-4-9-6-8-5-7(9)3-1/h1,3,5-6H,2,4H2
