20
gdb 71063	2.34413	1.79962	1.5821	0.7779	86.3	-0.2034	-0.04	0.1634	1002.4179	0.169754	-365.902078	-365.893681	-365.892736	-365.934305	33.155	
C	-0.2113673156	 1.400070069	-0.0913672371	-0.470295
C	-0.0190093757	-0.0903970562	-0.0838228183	 0.266821
C	 0.7767010794	-0.8596210653	-1.2281018984	-0.316585
C	 0.1111518304	-2.0840915741	-0.5913835538	-0.013477
C	 0.827384725	-2.6741076625	 0.3852141522	-0.115062
C	 0.446795624	-1.9938957971	 1.6953727206	-0.189152
N	-0.3156859828	-0.7896819302	 1.2583593538	-0.199149
C	-0.9967738285	-1.1974921679	 0.0406939478	 0.267039
C	-2.4823909096	-1.2927589759	-0.1187970988	-0.519627
H	 0.7059181936	 1.9156734301	 0.2146553016	 0.123353
H	-0.4697848263	 1.749376881	-1.0974733241	 0.116025
H	-1.0069055046	 1.6914130268	 0.5980217005	 0.134955
H	 0.3821300537	-0.5105962143	-2.1903459565	 0.105818
H	 1.8701212002	-0.8425670043	-1.2433871041	 0.101848
H	 1.838969698	-3.0407879675	 0.2327306212	 0.099205
H	-0.1898791865	-2.5419810448	 2.4028892402	 0.115188
H	 1.3668229906	-1.7233252549	 2.2276703216	 0.115287
H	-2.9737565977	-0.4360770875	 0.3510113378	 0.129595
H	-2.7630407528	-1.3184488585	-1.1771532108	 0.122282
H	-2.8714057648	-2.2043619359	 0.3487178445	 0.125931
165.5871	171.7099	184.7671	214.2222	269.6986	278.3626	305.4599	437.1	510.0786	560.0398	597.29	608.4951	717.1735	753.6824	784.8604	832.5684	861.6181	889.0402	918.8916	995.2679	1000.6785	1020.7843	1035.2223	1052.8416	1108.8624	1122.414	1127.7753	1167.4489	1181.8103	1207.1794	1247.4528	1283.2875	1301.8896	1402.5884	1405.0591	1451.0699	1474.6744	1479.4412	1488.9224	1490.5965	1495.1442	1506.6643	1585.9079	3012.4983	3020.5774	3029.6146	3031.6731	3057.1665	3087.049	3090.8597	3091.8522	3113.5401	3124.8968	3159.829
CC12CC3=CCN1C23C	C[C@@]12C[C]3[CH]CN1[C@@]23C	
InChI=1S/C8H11N/c1-7-5-6-3-4-9(7)8(6,7)2/h3H,4-5H2,1-2H3	InChI=1S/C8H11N/c1-7-5-6-3-4-9(7)8(6,7)2/h3H,4-5H2,1-2H3/t7-,8+,9?/m0/s1
