16
gdb 79514	3.42879	1.56379	1.2237	2.7097	69.02	-0.2378	0.0079	0.2456	997.2963	0.124559	-437.841528	-437.834128	-437.833184	-437.874583	27.668	
C	-0.0116620338	 1.4410052814	-0.0415601555	-0.35132
N	-0.009506055	 0.0001834212	 0.0168544119	-0.089226
C	-1.1418892408	-0.9003264775	-0.038962786	-0.048229
C	-0.8189931387	-2.1607024781	 0.8217004348	 0.064905
O	-1.5485865239	-3.0232037668	-0.1112843168	-0.314323
C	-0.7954665892	-2.108081056	-0.9705176426	 0.061759
C	 0.4766414769	-2.2042624416	-0.0578229951	-0.195857
C	 1.1073522361	-0.8092787224	-0.0144988758	 0.41356
O	 2.2686651764	-0.4720551374	-0.0168359341	-0.388859
H	 1.0315029084	 1.7637643343	-0.0163942338	 0.167009
H	-0.473735436	 1.8141260807	-0.9641089682	 0.127083
H	-0.538344885	 1.8804220074	 0.8135678325	 0.128608
H	-2.1323890375	-0.4521727721	-0.0364140101	 0.106262
H	-0.9324275619	-2.3371627319	 1.8917871934	 0.106976
H	-0.8799860209	-2.2228425194	-2.0517411887	 0.106918
H	 1.1172197449	-3.0808738218	-0.075180446	 0.104734
24.2982	141.8321	194.7969	262.1514	384.3738	389.4516	519.0311	572.786	686.6409	713.2637	751.5557	820.5664	849.659	887.6706	888.5643	901.9986	984.958	1003.1469	1012.5843	1100.7571	1134.354	1139.9956	1152.1296	1156.8827	1174.4151	1197.1249	1227.6224	1256.9233	1295.5453	1314.7242	1425.1195	1463.5262	1490.5513	1520.982	1838.984	3014.7473	3065.6857	3116.2049	3119.6901	3134.0767	3164.9089	3180.8482
CN1C2C3OC2C3C1=O	CN1[C@@H]2[C@H]3O[C@@H]2[C@H]3C1=O	
InChI=1S/C6H7NO2/c1-7-3-4-2(6(7)8)5(3)9-4/h2-5H,1H3	InChI=1S/C6H7NO2/c1-7-3-4-2(6(7)8)5(3)9-4/h2-5H,1H3/t2-,3+,4-,5+
