23
gdb 78261	2.41929	1.38858	1.10604	0.1757	90.27	-0.1977	0.0815	0.2792	1256.4799	0.204479	-351.087471	-351.077974	-351.07703	-351.121037	37.041	
C	 0.0925743965	 1.5420478978	-0.0119812975	-0.419398
C	 0.0768357358	 0.0255809931	-0.0293257566	-0.029598
C	 1.4082129602	-0.6450159575	-0.2314545218	-0.054151
C	 0.7512479133	-0.6476483857	 1.1419613392	-0.12167
C	 0.7796448594	-2.2075616337	 1.157460561	 0.311755
C	 1.2324111319	-2.9226851821	 2.3988026652	-0.487937
C	 0.0753203522	-2.8920360854	 0.0118223265	-0.065226
C	-1.31389787	-2.6713661246	-0.5888056921	-0.435495
C	 1.3990674193	-2.1945636032	-0.241851328	-0.149305
H	 1.0176922742	 1.9222298648	 0.434962311	 0.113355
H	 0.0216086987	 1.9481747664	-1.0268680083	 0.116381
H	-0.7464516996	 1.9401345505	 0.5690392792	 0.116217
H	-0.8182744235	-0.3896631937	-0.4694070328	 0.078145
H	 2.2782298579	-0.0815205206	-0.5466673404	 0.080308
H	 1.0418397797	-0.0777823461	 2.0170495719	 0.078005
H	 0.4621727526	-2.8938844252	 3.1807200975	 0.115389
H	 1.4549952044	-3.9743382493	 2.1906124365	 0.113433
H	 2.1379547864	-2.4646053975	 2.815322331	 0.114526
H	 0.2918540831	-3.9583675572	 0.0875401353	 0.083794
H	-1.2712157228	-2.2036078549	-1.5769284878	 0.127534
H	-1.8166253922	-3.6358709123	-0.712232026	 0.106536
H	-1.9540446431	-2.0584637788	 0.0512400736	 0.128459
H	 2.2581630155	-2.756491805	-0.5915067266	 0.078943
101.2827	179.7003	191.5899	203.4854	218.2101	241.3387	249.8667	280.9999	337.2062	415.2515	488.4549	557.8737	656.3543	709.8816	748.6612	785.252	819.4096	851.503	905.4162	922.8205	946.4852	974.054	995.1346	1006.6517	1046.2364	1063.6133	1073.0804	1100.6077	1111.6243	1117.821	1142.5039	1154.6069	1192.5835	1218.3057	1264.7689	1278.5417	1290.6386	1356.2352	1407.9783	1411.06	1414.6481	1415.3772	1472.8674	1482.7843	1494.8254	1499.5631	1501.1551	1503.5225	1505.9491	3010.7603	3026.0363	3036.0142	3064.43	3084.035	3091.293	3092.9666	3093.3942	3103.9557	3110.1296	3163.1131	3170.8314	3183.1962	3218.0874
CC1C2C1C1(C)C(C)C21	C[C@H]1[C@H]2[C@@H]1[C@@]1(C)[C@@H](C)[C@@H]21	
InChI=1S/C9H14/c1-4-6-7(4)9(3)5(2)8(6)9/h4-8H,1-3H3	InChI=1S/C9H14/c1-4-6-7(4)9(3)5(2)8(6)9/h4-8H,1-3H3/t4-,5-,6-,7+,8-,9+/m0/s1
