23
gdb 57772	3.30736	0.70638	0.66452	0.0693	97.45	-0.2246	0.059	0.2836	1868.137	0.203476	-351.131869	-351.120991	-351.120046	-351.168889	39.816	
C	-0.059028975	 1.5581817675	-0.0201190302	-0.371586
C	-0.0174167203	 0.0168754704	-0.0357931185	-0.126509
C	-1.4360060101	-0.5803563678	 0.054996218	-0.371083
C	 0.6944733214	-0.478131243	-1.215326009	 0.123845
C	 1.2707804681	-0.8833394838	-2.1946810952	-0.043882
C	 1.9490305911	-1.33812734	-3.3824020608	 0.190426
C	 1.7724261217	-0.4500554122	-4.6058146077	-0.454848
C	 3.2805951367	-2.0542455983	-3.2062739213	-0.287182
C	 2.0619713512	-2.8403675273	-3.6008006624	-0.287124
H	 0.9493302011	 1.9788712707	-0.0535108049	 0.121616
H	-0.6123748015	 1.936618477	-0.8853467664	 0.121588
H	-0.5551924886	 1.9165317365	 0.8877455689	 0.109029
H	 0.5389896572	-0.3093109992	 0.854623802	 0.100348
H	-2.0374854748	-0.2744407747	-0.8067494561	 0.121435
H	-1.4022395066	-1.6728944642	 0.0721452534	 0.120427
H	-1.938326436	-0.2348461204	 0.9646383899	 0.108507
H	 2.1524783337	 0.5584841682	-4.4145154556	 0.124104
H	 2.3135937746	-0.8615092826	-5.4637218512	 0.109778
H	 0.7155213211	-0.3657881005	-4.8779286223	 0.123879
H	 4.0413158538	-1.8705564185	-3.9576704123	 0.112734
H	 3.6589440218	-2.1684470029	-2.197571965	 0.121006
H	 1.6101989926	-3.4899495484	-2.860759033	 0.120779
H	 1.9858373666	-3.1961199062	-4.6228926503	 0.112711
21.3867	76.8687	88.6113	182.7494	197.6553	229.0736	235.2285	262.5791	297.4402	334.3208	359.7029	481.6639	482.4092	526.4785	563.9332	607.8111	780.1263	794.2313	839.4556	886.1116	929.2711	939.2742	952.6393	961.8702	1018.9336	1044.0246	1074.6133	1076.3004	1116.3501	1121.0099	1130.4723	1193.2002	1193.9449	1292.7723	1326.0933	1333.6425	1362.9843	1394.3327	1413.6093	1417.357	1463.4759	1485.2821	1486.5316	1488.9125	1494.6767	1498.5079	1503.6705	1510.5096	2354.0554	2999.7635	3032.7093	3034.0455	3037.8906	3103.1126	3104.2941	3105.8865	3109.6386	3117.2838	3119.528	3133.5743	3138.2483	3219.4038	3233.9667
CC(C)C#CC1(C)CC1	CC(C)C#CC1(C)CC1	
InChI=1S/C9H14/c1-8(2)4-5-9(3)6-7-9/h8H,6-7H2,1-3H3	InChI=1S/C9H14/c1-8(2)4-5-9(3)6-7-9/h8H,6-7H2,1-3H3
