13
gdb 49167	3.16726	1.32454	1.17434	3.3238	67.58	-0.2693	-0.0839	0.1854	1030.6351	0.088254	-456.540081	-456.532962	-456.532018	-456.572158	26.18	
O	 0.004565355	-0.012023052	 0.0844834686	-0.265623
C	 0.0485946431	 1.194585334	-0.0027896494	 0.053495
C	 1.2913500373	 1.9589210372	-0.0715919375	 0.263693
C	 1.4966310794	 3.2991618582	-0.0258377229	-0.174846
C	 2.9950275191	 3.403983997	-0.0206064238	-0.0939
O	 3.4012180305	 2.3547381962	-0.9404766583	-0.257507
C	 2.7000058655	 1.4116610802	-0.0822484054	-0.161178
C	 3.3133724508	 2.2880628405	 1.1007245471	 0.429347
O	 3.8664604422	 2.1773013027	 2.1330225371	-0.271288
H	-0.8759881404	 1.8099888556	-0.0386101666	 0.084126
H	 0.7822748403	 4.1027839678	 0.083428274	 0.1442
H	 3.5176165388	 4.349612251	-0.1309262521	 0.11852
H	 2.9005301684	 0.3609952517	-0.2649094706	 0.130963
87.3861	145.4008	177.2023	264.1749	378.6241	493.875	511.5796	558.4296	640.0534	684.491	776.8653	838.9054	847.5527	869.6268	907.1445	948.3757	964.2384	1035.2394	1043.7679	1099.9609	1141.4643	1201.9618	1227.301	1291.9804	1331.5654	1415.5811	1607.3292	1782.5256	1946.6565	2900.913	3180.1783	3196.1335	3242.5669
O=CC1=CC2OC1C2=O	O=CC1=C[C@@H]2O[C@H]1C2=O	
InChI=1S/C6H4O3/c7-2-3-1-4-5(8)6(3)9-4/h1-2,4,6H	InChI=1S/C6H4O3/c7-2-3-1-4-5(8)6(3)9-4/h1-2,4,6H/t4-,6+/m0/s1
