20
gdb 120056	4.49883	0.96258	0.92519	1.6752	79.01	-0.2248	0.0802	0.305	1348.2005	0.171384	-403.04971	-403.041486	-403.040542	-403.08321	31.064	
C	 0.5472975818	 1.4178230108	-0.0725382392	-0.225059
O	 0.6253836721	 0.0157341378	 0.0106177951	-0.236815
C	-0.1358138044	-0.5164460279	 1.0752544727	-0.093397
C	 0.0746896108	-2.0215492568	 1.0683910391	 0.047641
C	 1.2323633166	-2.6982602091	 1.7829721165	-0.096792
C	 0.7507746918	-2.9483469358	 3.2291974615	-0.086812
C	-0.6657751608	-2.40849318	 3.2967870659	-0.179595
N	-0.8870312393	-2.887503429	 1.8718095051	-0.198492
C	 0.3156605437	-3.8384719345	 2.1031831323	-0.026907
H	 0.9219431312	 1.9041881765	 0.8424541198	 0.102581
H	 1.1664289209	 1.7309730434	-0.9169004571	 0.126658
H	-0.4857731936	 1.760916065	-0.2425337194	 0.104416
H	 0.1787254266	-0.0605220666	 2.0267138053	 0.08582
H	-1.2108098546	-0.299860461	 0.9410782437	 0.09594
H	 0.0143297845	-2.3586588161	 0.0290776493	 0.091728
H	 2.2833170995	-2.7342388349	 1.5253623325	 0.093108
H	 1.4547483296	-3.1669248656	 4.0225804617	 0.089931
H	-1.3023268636	-2.9994585432	 3.9606056861	 0.1089
H	-0.8535053429	-1.3440142818	 3.4722630824	 0.097442
H	 0.3232190002	-4.9025425311	 1.9176081967	 0.099706
62.3711	90.0424	144.2648	218.7732	245.2607	341.2749	364.8025	489.7287	594.8711	732.3511	771.9723	789.4425	806.0963	833.3627	863.0115	897.0674	954.8448	975.9115	1003.2492	1015.0243	1032.651	1035.9916	1052.9984	1088.8232	1121.2047	1133.3465	1165.1668	1170.2235	1185.7513	1191.9461	1226.621	1242.3364	1262.2822	1283.8869	1298.8674	1357.0977	1374.7693	1435.2927	1480.3478	1485.7831	1502.6856	1519.0262	1529.747	2948.2872	2969.1721	2995.4282	3011.3474	3045.6618	3066.7172	3098.2622	3112.3101	3188.7575	3196.2743	3225.9808
COCC1C2C3CN1C23	COC[C@H]1[C@H]2[C@H]3CN1[C@@H]23	
InChI=1S/C7H11NO/c1-9-3-5-6-4-2-8(5)7(4)6/h4-7H,2-3H2,1H3	InChI=1S/C7H11NO/c1-9-3-5-6-4-2-8(5)7(4)6/h4-7H,2-3H2,1H3/t4-,5+,6-,7-/m1/s1
