18
gdb 11960	3.44788	1.68601	1.40148	1.8362	68.73	-0.2227	0.0781	0.3007	954.2446	0.151976	-384.891617	-384.883145	-384.882201	-384.924464	31.175	
C	 0.1908771188	 1.2799932537	 0.2066644384	-0.256272
O	-0.1991723588	-0.0473539036	-0.1077665191	-0.281475
C	 0.4503900369	-0.5711208252	-1.2019832442	 0.365874
C	 1.8899212216	-1.0719926874	-1.1136053702	-0.418434
C	 0.7937961283	-2.0246287303	-1.5179568338	 0.34507
O	 0.517318961	-3.2368220558	-0.9164092274	-0.457141
C	 0.4221655175	-1.8135083232	-2.9798536482	-0.260803
C	 0.0737275153	-0.315717301	-2.6644015602	-0.295658
H	 1.2675430198	 1.3406791009	 0.4188304976	 0.110752
H	-0.0441505254	 1.9763162721	-0.6102713013	 0.113899
H	-0.3697519337	 1.5758539547	 1.0962184027	 0.127294
H	 2.6722659275	-0.7516094603	-1.8017739855	 0.099688
H	 2.2200037108	-1.1957439235	-0.0841405981	 0.103659
H	 0.8203526609	-3.2073882102	-0.0032436433	 0.287176
H	 1.2179420494	-1.9938923307	-3.7092389909	 0.09769
H	-0.461644307	-2.3900414485	-3.2602404719	 0.11581
H	-0.9913917478	-0.1072348597	-2.7877637791	 0.11033
H	 0.6550770448	 0.4429418879	-3.1989567454	 0.092542
87.7215	120.7735	170.3488	175.5339	226.5361	292.0378	372.276	398.6315	445.2082	553.2101	613.3309	690.7023	760.8754	797.6782	893.1731	922.6088	934.1735	975.5541	1011.8305	1053.7318	1078.7737	1115.2568	1137.1088	1179.2732	1184.443	1205.6336	1210.1491	1227.2907	1245.1559	1314.0463	1398.0013	1405.1073	1472.4923	1479.2256	1484.109	1487.4778	1505.4843	1528.5357	2993.1019	3042.2621	3047.7518	3055.0234	3076.1034	3103.4624	3120.7449	3122.5099	3171.5759	3823.6364
COC12CC1(O)CC2	CO[C@@]12C[C@]1(O)CC2	
InChI=1S/C6H10O2/c1-8-6-3-2-5(6,7)4-6/h7H,2-4H2,1H3	InChI=1S/C6H10O2/c1-8-6-3-2-5(6,7)4-6/h7H,2-4H2,1H3/t5-,6+/m1/s1
