15
gdb 124129	7.11933	0.72452	0.66031	2.6965	83.44	-0.2156	-0.012	0.2036	1636.1702	0.113	-416.814759	-416.80595	-416.805006	-416.850432	31.119	
C	-0.1417026154	 1.466070804	-0.0319648711	-0.509858
C	-0.0211980304	 0.0175362364	-0.0159836661	 0.203489
C	 0.0864386496	-1.1843218379	-0.0028803319	-0.05105
C	 0.2012717398	-2.5897505558	 0.0126477976	 0.276256
C	 1.3105249251	-3.4273260083	 0.0013443946	-0.452686
C	 0.7635586896	-4.7236760584	 0.028558646	 0.431825
O	 1.4683869362	-5.8732560044	 0.0291943875	-0.436469
N	-0.5641164472	-4.7221232761	 0.0547549167	-0.319619
N	-0.8869498646	-3.4095282842	 0.0445200176	-0.302315
H	 0.84571156	 1.9397965751	-0.0150734861	 0.158051
H	-0.6620518283	 1.8136684623	-0.9315133083	 0.154344
H	-0.6997953386	 1.8295175341	 0.8381659489	 0.154297
H	 2.3465690617	-3.1381194903	-0.0227774451	 0.116338
H	 0.8292924379	-6.5965810385	 0.0509665941	 0.302284
H	-1.8529996957	-3.132761848	 0.0600351755	 0.275113
10.081	87.0539	90.1702	239.4033	295.4511	338.9794	402.1242	402.4114	410.376	458.6855	512.9341	549.9911	693.7798	713.2377	732.7148	801.02	952.3997	1008.8989	1050.5446	1051.1739	1070.5411	1164.3783	1209.9595	1243.9424	1313.1563	1411.1145	1426.9203	1473.1387	1475.8134	1506.1007	1567.5141	1604.3856	2358.6012	3026.4523	3085.7927	3092.7875	3288.773	3685.7574	3794.538
CC#CC1=CC(O)=NN1	CC#Cc1cc(O)n[nH]1	
InChI=1S/C6H6N2O/c1-2-3-5-4-6(9)8-7-5/h4H,1H3,(H2,7,8,9)	InChI=1S/C6H6N2O/c1-2-3-5-4-6(9)8-7-5/h4H,1H3,(H2,7,8,9)
