17
gdb 17122	6.81885	1.13897	1.02721	3.4266	70.05	-0.24	-0.0175	0.2225	1119.4599	0.141142	-363.835588	-363.828023	-363.827078	-363.868062	28.243	
O	-0.1006191195	 0.0142789059	-0.2287670324	-0.288711
C	-0.0450040062	 1.184285682	 0.0138246839	 0.39681
C	-1.0942682396	 2.2538547948	 0.3539299674	-0.356536
C	 0.0755540629	 3.1711824495	 0.823308248	 0.04927
C	 1.1094448461	 2.1791194962	 0.2091656542	-0.356536
N	 0.0814044178	 4.4924525571	 0.2302508965	-0.061498
C	-0.5789442533	 5.5498877195	 0.9923971369	-0.223602
C	 0.9054919702	 5.4995464365	 0.8948845882	-0.223602
H	-1.5690795312	 2.6496970398	-0.5502049402	 0.140713
H	-1.8661966412	 1.9748240051	 1.074715124	 0.12558
H	 0.1487575957	 3.2004652282	 1.922554047	 0.063419
H	 1.948344448	 1.8454616872	 0.82413121	 0.12558
H	 1.4876518088	 2.5460335338	-0.7510065627	 0.140713
H	-1.1472932243	 6.2673449468	 0.4081128206	 0.121235
H	-1.0235525258	 5.2870787686	 1.9508969143	 0.112965
H	 1.4527817245	 5.2030996538	 1.7882266886	 0.112965
H	 1.4397137668	 6.1796124351	 0.2381723858	 0.121235
56.3877	86.7001	198.5305	283.2115	349.6723	418.4888	424.9193	511.5307	633.2826	663.0426	726.9315	809.0863	880.453	901.0532	921.7404	945.2677	998.6669	1047.129	1051.8414	1077.3211	1113.589	1114.09	1121.2608	1166.5314	1175.3825	1184.0153	1220.9242	1239.7707	1272.964	1323.5596	1375.1743	1418.3986	1440.4082	1491.2809	1517.9971	1896.0603	2963.3838	3055.5887	3060.0106	3096.8448	3101.3595	3121.178	3121.8979	3181.5175	3195.65
O=C1CC(C1)N1CC1	O=C1CC(C1)N1CC1	
InChI=1S/C6H9NO/c8-6-3-5(4-6)7-1-2-7/h5H,1-4H2	InChI=1S/C6H9NO/c8-6-3-5(4-6)7-1-2-7/h5H,1-4H2
