22
gdb 110020	2.23232	1.44615	1.01971	3.6338	82.18	-0.2347	0.0361	0.2709	1263.5703	0.195372	-404.409361	-404.399922	-404.398978	-404.4434	35.724	
C	-0.1883907622	 1.649124697	 0.1292000344	-0.395581
C	-0.0495903781	 0.1310431595	-0.031807667	-0.190161
C	 0.8004498604	-0.5154281795	 1.0685122835	-0.097987
C	 0.7590161894	-2.0614255958	 1.1961428507	-0.023147
C	 0.7096922724	-2.7945490385	-0.1503622598	-0.392725
C	 2.0818818028	-2.3637356796	 1.9448952157	-0.178231
N	 2.9564502356	-1.3070417288	 1.468304323	-0.302613
C	 2.3057764993	-0.2095761428	 0.9751540393	 0.413272
O	 2.8382637253	 0.8007828282	 0.5627773536	-0.387659
H	 0.7941410536	 2.1241475455	 0.1158601097	 0.157107
H	-0.7952156844	 2.0719613287	-0.6775915011	 0.103998
H	-0.6770079143	 1.8992080547	 1.0783245636	 0.103681
H	-1.0450899391	-0.3312978244	-0.0216686217	 0.090301
H	 0.3868254839	-0.0938566629	-1.0114464755	 0.106367
H	 0.4827733947	-0.0950740192	 2.0356221554	 0.094679
H	-0.0964187301	-2.3753651959	 1.801774569	 0.076277
H	 1.5726836443	-2.5393694617	-0.7746802997	 0.128437
H	 0.7171950074	-3.8782556728	 0.0051485055	 0.111757
H	-0.1949075716	-2.5461780444	-0.711334822	 0.122876
H	 1.9456348233	-2.3197164499	 3.0355930761	 0.101667
H	 2.4807733298	-3.3527419507	 1.6963094664	 0.108816
H	 3.9511377376	-1.2835284868	 1.6262630408	 0.248868
78.3819	124.1107	168.1512	186.513	219.961	255.0336	280.3779	320.8493	378.0724	431.4149	488.6913	529.3513	627.9934	702.2373	724.6112	763.6508	821.6148	860.8723	916.2896	956.6008	973.9591	1034.4992	1047.3274	1057.2993	1091.804	1117.9415	1156.7486	1169.4294	1233.3163	1252.1893	1255.8845	1288.588	1294.8081	1342.4309	1369.2385	1376.262	1385.236	1406.4784	1413.9167	1447.7187	1485.9111	1497.1283	1501.4101	1503.7327	1518.1438	1531.0123	1816.1718	2987.236	2990.1204	3021.0525	3032.4338	3036.978	3058.0564	3062.8463	3065.5123	3095.7644	3102.7359	3117.1035	3141.9273	3643.0768
CCC1C(C)CNC1=O	CC[C@H]1[C@@H](C)CNC1=O	
InChI=1S/C7H13NO/c1-3-6-5(2)4-8-7(6)9/h5-6H,3-4H2,1-2H3,(H,8,9)	InChI=1S/C7H13NO/c1-3-6-5(2)4-8-7(6)9/h5-6H,3-4H2,1-2H3,(H,8,9)/t5-,6-/m0/s1
