16
gdb 113618	3.70558	0.66391	0.59618	3.5073	79.94	-0.2634	-0.0668	0.1966	1784.2909	0.122694	-437.823083	-437.813579	-437.812635	-437.859257	32.358	
O	-0.0425011743	 1.4091856397	-0.4568678836	-0.415626
C	-0.0161530789	 0.2021815095	 0.282827406	-0.076177
C	-1.3585924337	-0.4889869679	 0.2223379467	-0.019356
N	-1.6665460962	-1.1171154172	-1.0632184451	-0.324912
C	-1.5052251216	-1.9823685455	 0.1340981653	-0.276415
C	-0.3844282966	-2.873812882	 0.1668541703	 0.179554
C	 0.5362881511	-3.6543484374	 0.2365701928	 0.045332
C	 1.654027278	-4.5598937488	 0.2788127887	 0.019512
O	 1.7321985871	-5.5186904578	 1.0128859735	-0.229625
H	-0.2379682707	 1.1652533952	-1.3690891871	 0.292547
H	 0.7643152824	-0.4814962546	-0.0774013937	 0.104962
H	 0.222610303	 0.4746748396	 1.3157180381	 0.118099
H	-2.1666057105	 0.0287350807	 0.7362421272	 0.107057
H	-2.6564050909	-1.036404459	-1.2814353176	 0.24643
H	-2.4117148103	-2.3880486291	 0.5776838562	 0.126567
H	 2.4654335519	-4.3077973655	-0.4338472076	 0.102051
44.3075	62.0402	87.3313	110.1441	170.8813	242.4203	250.8808	372.4425	427.1857	452.1065	523.0353	583.5071	640.4274	789.7909	821.3733	880.0996	920.9799	968.6948	1004.4154	1020.2628	1071.4221	1091.8399	1150.8907	1176.4268	1213.366	1255.3085	1274.6734	1365.329	1395.7892	1421.529	1429.8547	1459.6176	1497.5268	1764.4714	2322.1046	2920.2096	3018.7005	3085.8899	3127.1245	3136.9868	3507.1709	3797.755
OCC1NC1C#CC=O	OC[C@H]1N[C@H]1C#CC=O	
InChI=1S/C6H7NO2/c8-3-1-2-5-6(4-9)7-5/h3,5-7,9H,4H2	InChI=1S/C6H7NO2/c8-3-1-2-5-6(4-9)7-5/h3,5-7,9H,4H2/t5-,6+/m0/s1
