16
gdb 66876	3.17921	1.9956	1.76398	2.7479	71.72	-0.2145	-0.033	0.1815	825.1749	0.126024	-396.806903	-396.800405	-396.799461	-396.8373	27.208	
N	 0.1254790179	 1.484043378	-0.0330011254	-0.630773
C	 0.0228199947	 0.0768032678	 0.0237515361	 0.278771
C	-0.208664311	-0.8138441247	-1.2543428044	-0.062286
N	 0.7553172942	-1.8762897156	-1.2900928496	-0.193305
C	 0.7062256848	-2.3279054329	-0.089782444	 0.119189
C	 1.7802479923	-1.9089010881	 0.8859148017	-0.268118
C	 0.623359031	-0.840969605	 1.1411997528	-0.037265
N	-0.4320388721	-1.8792027824	 0.7737325967	-0.155532
C	-1.1453477825	-0.9099929465	-0.0856616038	-0.104537
H	 0.3211355451	 1.8449034699	-0.9567230291	 0.24182
H	-0.6675681473	 1.9731357771	 0.3617392755	 0.240059
H	-0.48102666	-0.2966106094	-2.1669307435	 0.09852
H	 1.9145228649	-2.5099344538	 1.787124645	 0.128589
H	 2.7209942565	-1.6016252303	 0.4369276414	 0.135927
H	 0.5507716876	-0.4336301758	 2.151626857	 0.107173
H	-2.2228430761	-0.8085007383	-0.0819692963	 0.101769
161.1278	255.2867	297.1049	390.1384	482.2002	546.87	610.5329	647.656	690.0833	709.0491	718.864	756.2782	811.1509	827.28	859.2032	882.2977	937.7308	964.8675	984.1522	1020.9825	1030.1193	1052.0515	1089.2073	1099.109	1129.2753	1156.7203	1177.5023	1213.2333	1252.5648	1254.1309	1277.9698	1405.3193	1472.696	1589.2018	1655.8616	3086.0232	3097.2787	3185.9265	3188.6903	3199.2661	3534.6983	3618.5446
NC12C3N=C4CC1N4C23	N[C@@]12[C@H]3[N][C]4C[C@@H]1N4[C@@H]23	
InChI=1S/C6H7N3/c7-6-2-1-3-8-4(6)5(6)9(2)3/h2,4-5H,1,7H2	InChI=1S/C6H7N3/c7-6-2-1-3-8-4(6)5(6)9(2)3/h2,4-5H,1,7H2/t2-,4-,5+,6+/m0/s1
