20
gdb 30837	2.16743	1.43551	0.89578	1.1198	86.22	-0.1702	0.0418	0.212	1349.1889	0.16988	-403.185531	-403.175501	-403.174557	-403.220822	35.78	
C	 0.2176313458	 1.3977794683	 0.0044161369	-0.330268
N	-0.3613374667	 0.1123910321	-0.387905246	-0.390149
C	 0.4023661712	-0.722762271	-1.190973752	 0.295987
C	 0.6762266999	-2.0604030697	-1.1572286106	 0.184671
C	 0.2715568753	-3.0507505775	-0.1098811621	-0.513696
C	 1.4378048091	-2.3124898182	-2.3560499136	-0.365569
C	 1.5878582721	-1.1321060097	-3.0050354614	 0.35889
C	 2.2818852044	-0.7131596623	-4.2490072346	-0.490143
O	 0.9437808203	-0.1422646555	-2.2967284303	-0.213925
H	 1.1383375565	 1.3033779124	 0.600859888	 0.109343
H	 0.4503839249	 1.9740889873	-0.8929769882	 0.149383
H	-0.522494777	 1.954935508	 0.5840461015	 0.121434
H	-0.74091926	-0.397558914	 0.3975954304	 0.236967
H	-0.5743970198	-3.6757687586	-0.4238018066	 0.12642
H	 1.0963505248	-3.7289586905	 0.1359596933	 0.126009
H	-0.022688242	-2.5548442685	 0.8223228686	 0.105654
H	 1.8356656721	-3.2647777634	-2.6748622197	 0.096952
H	 1.5897054527	-0.2683930603	-4.9742995292	 0.131477
H	 3.0639606253	 0.0298559826	-4.0497744482	 0.129466
H	 2.7515309711	-1.5815754716	-4.7170082763	 0.131096
55.8654	113.6512	136.0964	143.4038	171.1421	189.5255	245.0422	262.5174	311.1128	376.5341	494.7616	583.7925	611.8118	625.3897	675.2476	705.1908	798.2877	812.3127	965.2017	995.4141	1015.4134	1050.6941	1059.658	1064.6977	1120.8584	1149.5432	1166.0331	1199.611	1276.5119	1305.8124	1409.4676	1415.6319	1432.7367	1456.699	1470.2894	1470.7003	1484.7563	1490.7809	1497.7974	1501.5862	1516.8565	1642.0471	1689.3448	2983.0122	3012.9346	3019.843	3062.3653	3064.7872	3083.4778	3092.4636	3123.3364	3136.6736	3239.5676	3590.3021
CNC1=C(C)C=C(C)O1	CNc1c(C)cc(C)o1	
InChI=1S/C7H11NO/c1-5-4-6(2)9-7(5)8-3/h4,8H,1-3H3	InChI=1S/C7H11NO/c1-5-4-6(2)9-7(5)8-3/h4,8H,1-3H3
