17
gdb 128365	3.24777	1.22898	0.90435	2.5659	73.4	-0.2033	0.0184	0.2218	1262.6357	0.136923	-451.307436	-451.298006	-451.297062	-451.341841	33.844	
C	-0.0634379489	 1.4506182131	-0.060675287	-0.319039
N	-0.0014845108	 0.0096898786	 0.1403346723	-0.389854
C	-1.1695459871	-0.7138788306	 0.0433091098	 0.443129
N	-2.3622024855	-0.1559578516	 0.0014178044	-0.252743
O	-3.2704807823	-1.224858362	-0.048582732	-0.22705
C	-2.5763830568	-2.3930566564	-0.0213606149	 0.32887
N	-3.2538427518	-3.6175344599	-0.0640363274	-0.60262
C	-1.2439979034	-2.1431383274	 0.034419625	 0.007819
N	-0.1499119219	-3.0254521374	 0.0084511902	-0.629326
H	 0.9362259268	 1.8697198237	 0.0739042903	 0.117865
H	-0.4442742011	 1.7317993413	-1.0525254199	 0.124673
H	-0.731154657	 1.8882230215	 0.6853499398	 0.152542
H	 0.7692311375	-0.4502937452	-0.3255839415	 0.244866
H	-3.9546225703	-3.676669579	 0.6694404203	 0.252431
H	-3.7346199376	-3.7513044246	-0.9497502333	 0.252774
H	-0.4782388377	-3.9856245645	-0.008617454	 0.250452
H	 0.4444598478	-2.9073256997	 0.8237347279	 0.24521
66.9355	99.9434	156.3526	175.5046	212.6875	240.0835	277.1251	322.6326	350.9777	410.914	533.6331	570.5594	615.0384	669.99	744.7487	754.9006	784.5043	826.925	874.955	982.5351	1010.3653	1099.5854	1150.5162	1177.7107	1188.5643	1224.0843	1263.8892	1316.3016	1447.9135	1454.3478	1482.436	1513.3537	1548.5621	1595.1047	1638.8727	1651.1321	1751.124	3007.5288	3092.2122	3133.3123	3485.745	3490.3838	3550.534	3577.4007	3580.3594
CNC1=NOC(N)=C1N	CNc1noc(N)c1N	
InChI=1S/C4H8N4O/c1-7-4-2(5)3(6)9-8-4/h5-6H2,1H3,(H,7,8)	InChI=1S/C4H8N4O/c1-7-4-2(5)3(6)9-8-4/h5-6H2,1H3,(H,7,8)
