17
gdb 64961	3.14387	1.19071	0.99004	2.0363	69.85	-0.2519	-0.0455	0.2064	1214.9636	0.133095	-458.929271	-458.920293	-458.919349	-458.963804	32.077	
C	 0.1352116131	 1.1949519654	-1.2311269895	-0.463987
C	-0.0467919423	 0.1741493345	-0.1361891185	 0.299412
C	 0.8197500864	-1.0244650571	-0.0651635687	-0.223418
O	 1.0140622739	 0.0606420447	 0.8310246811	-0.258847
C	-1.4408749093	 0.0552253882	 0.4343355731	 0.319404
O	-2.400835778	 0.4492899314	-0.187743664	-0.314075
C	-1.5860052705	-0.5566414918	 1.8074088921	-0.038105
C	-2.7071434482	-0.0954389232	 2.6520027791	-0.16239
O	-2.7655184032	-1.3461861834	 1.992714084	-0.215402
H	 1.1623130315	 1.175087451	-1.6016837549	 0.12583
H	-0.5543371384	 0.9889340154	-2.0527300801	 0.149608
H	-0.0837533015	 2.1998018394	-0.858373787	 0.137778
H	 0.4521652328	-1.9476371991	 0.3806585403	 0.130483
H	 1.583197928	-1.147501834	-0.8316523062	 0.13178
H	-0.6894591069	-0.9354378961	 2.2874687882	 0.120447
H	-2.5941305125	-0.1303912346	 3.7344960215	 0.123278
H	-3.3680703449	 0.6697308195	 2.2505559094	 0.138204
45.1189	74.0848	162.8315	174.9356	242.9877	284.7637	311.3554	331.3592	378.8321	464.1313	529.0439	738.2403	766.8547	812.9352	839.921	881.266	901.4283	938.0738	994.3752	1020.2481	1077.4925	1097.5087	1103.3867	1139.4207	1163.6063	1167.2326	1172.8047	1271.068	1305.995	1365.7672	1413.5908	1418.7231	1476.7087	1492.3289	1504.2416	1523.5279	1799.1496	3054.1293	3086.2973	3089.9591	3124.5696	3142.9558	3170.9183	3176.2622	3191.6276
CC1(CO1)C(=O)C1CO1	C[C@]1(CO1)C(=O)[C@H]1CO1	
InChI=1S/C6H8O3/c1-6(3-9-6)5(7)4-2-8-4/h4H,2-3H2,1H3	InChI=1S/C6H8O3/c1-6(3-9-6)5(7)4-2-8-4/h4H,2-3H2,1H3/t4-,6+/m1/s1
