16
gdb 5686	4.60866	2.0128	1.44374	0.786	70.5	-0.2053	0.0249	0.2303	846.2368	0.13398	-346.641032	-346.634821	-346.633877	-346.671367	24.352	
C	 0.0463702581	 1.5160150667	-0.0704472918	-0.195554
C	 1.5574664587	 1.9119531175	 0.0630055767	-0.349913
C	 2.0927477981	 0.6574466446	 0.6597146128	 0.324412
C	 1.2594443063	-0.4084342256	 0.6581685809	 0.25143
C	-0.0586338749	-0.0474452094	 0.0356210258	-0.348484
C	 2.0100011033	-1.4976360692	 1.2096146087	-0.362118
C	 3.2375051963	-0.9787725355	 1.4982924097	-0.014174
O	 3.3106685662	 0.3489057654	 1.1616025107	-0.201201
H	-0.5087759284	 1.9656244002	 0.7575777275	 0.112767
H	-0.3941344656	 1.8957206074	-0.9953541326	 0.102052
H	 2.0128640496	 2.1320907293	-0.9120360877	 0.113693
H	 1.6956569236	 2.802459785	 0.6853663076	 0.114092
H	-0.9306040118	-0.3478982404	 0.6262945631	 0.106179
H	-0.1787287579	-0.5090349049	-0.9532779687	 0.107801
H	 1.700658853	-2.5172358787	 1.3810146159	 0.108996
H	 4.1305087153	-1.3931974324	 1.9364522814	 0.130021
120.708	214.5176	247.6707	415.409	568.3501	613.7706	652.4986	702.3029	722.8896	728.7516	818.8756	827.5805	895.1248	911.7587	923.7851	991.1094	1047.8617	1061.2999	1078.8001	1149.6351	1162.4088	1213.6032	1221.8362	1253.1442	1277.2651	1303.1923	1335.2364	1368.2959	1463.721	1484.6365	1498.6	1511.6528	1520.5244	1656.0221	3012.4147	3017.4342	3052.0253	3059.3149	3068.7258	3108.6977	3247.9664	3281.1252
C1CC2=C(C1)C=CO2	C1Cc2c(C1)cco2	
InChI=1S/C7H8O/c1-2-6-4-5-8-7(6)3-1/h4-5H,1-3H2	InChI=1S/C7H8O/c1-2-6-4-5-8-7(6)3-1/h4-5H,1-3H2
