19
gdb 53288	2.64313	1.06045	0.83677	1.5012	85.34	-0.225	0.0569	0.2819	1433.9068	0.157537	-385.829321	-385.819701	-385.818756	-385.865721	33.897	
C	-0.0509060362	 1.4671343329	 0.1343896894	-0.498918
C	-0.0340740476	 0.0126575067	 0.0818377802	 0.058226
C	-0.0303992423	-1.191813113	 0.0514844103	 0.102207
C	-0.0123395891	-2.6249288887	-0.0101880556	-0.206432
C	-0.5731617898	-3.4695432529	 1.125024803	-0.299733
C	-1.3000067526	-3.4256141517	-0.185828438	-0.037831
C	-2.622081051	-2.7314317416	-0.2935423911	 0.05799
C	-3.7860070695	-3.1701749069	 0.4907359347	-0.174025
O	-3.0733436609	-1.9801269367	 0.8321218772	-0.22064
H	 0.7808118483	 1.857194641	 0.7320931544	 0.144286
H	 0.0266543106	 1.9067236671	-0.8665837908	 0.142927
H	-0.9807895123	 1.8323700295	 0.5842931304	 0.151735
H	 0.8534141555	-3.0455131692	-0.5152538676	 0.105461
H	-0.0343035411	-4.3698404764	 1.3972692505	 0.112209
H	-1.0301846202	-2.928396343	 1.9446426795	 0.143909
H	-1.213917462	-4.2926455025	-0.8361764455	 0.094496
H	-2.8134500789	-2.2418513156	-1.2495643811	 0.097019
H	-4.7923263337	-3.0174311166	 0.103602384	 0.113818
H	-3.673161287	-3.9965875123	 1.1910018762	 0.113295
24.3121	59.5651	76.6181	130.2361	190.5644	233.5762	297.7523	312.8941	409.123	493.6783	544.445	616.604	701.2382	742.1987	843.6975	852.7255	898.0347	917.6982	967.8463	1037.3782	1044.811	1051.6824	1053.8168	1082.224	1103.4284	1118.5848	1139.2064	1160.4615	1167.8799	1182.1368	1238.555	1289.2912	1381.4487	1401.122	1414.9986	1433.0273	1477.9566	1479.5033	1482.0624	1524.2372	2370.4616	3023.6193	3080.8747	3083.5625	3086.3591	3099.0978	3131.3103	3139.5222	3145.9135	3172.2395	3240.9847
CC#CC1CC1C1CO1	CC#C[C@H]1C[C@H]1[C@H]1CO1	
InChI=1S/C8H10O/c1-2-3-6-4-7(6)8-5-9-8/h6-8H,4-5H2,1H3	InChI=1S/C8H10O/c1-2-3-6-4-7(6)8-5-9-8/h6-8H,4-5H2,1H3/t6-,7+,8+/m0/s1
