19
gdb 13762	3.06767	1.45992	1.17164	1.5334	78.03	-0.2447	0.0369	0.2816	1098.5798	0.163564	-327.873307	-327.864226	-327.863282	-327.90687	33.725	
C	-0.0146987943	 1.42830278	-0.2740065121	-0.392714
C	 0.0577038475	-0.0234903248	 0.2181151639	 0.031579
C	 0.6899044677	-0.1268419719	 1.6125398899	-0.394693
C	-1.322577193	-0.6472081372	 0.2147826977	 0.007655
N	-1.858705056	-1.0814615247	-1.0765921562	-0.332499
C	-1.5566107933	-2.1053903074	-0.0433342489	-0.255473
C	-0.4885190564	-3.029866783	-0.3092951201	 0.385346
C	 0.395949946	-3.8233748669	-0.4946452665	-0.451063
H	 0.983416317	 1.8753469779	-0.3221473102	 0.110772
H	-0.4600470808	 1.4776599547	-1.2719644103	 0.126711
H	-0.6212568469	 2.0452429153	 0.4006647654	 0.104911
H	 0.6703472649	-0.5966989293	-0.4867566045	 0.093873
H	 0.0921810194	 0.4103214668	 2.3591387107	 0.106956
H	 0.7726642997	-1.1700905245	 1.9321632455	 0.12398
H	 1.6935597066	 0.3100298391	 1.6184779886	 0.112682
H	-2.0228570216	-0.1920722756	 0.9176959943	 0.081228
H	-2.8643975321	-0.9386613969	-1.1210339109	 0.234757
H	-2.4062348677	-2.5476375687	 0.4733804683	 0.108258
H	 1.1773264435	-4.5199380528	-0.6727620146	 0.197733
61.2109	106.0513	181.7459	224.8184	239.3388	245.1849	299.0094	332.7789	412.6289	471.5037	557.3547	602.3594	625.572	657.6234	770.7873	825.046	871.3302	922.5008	932.2851	963.1265	968.2379	987.6241	1057.9045	1132.5927	1148.4193	1191.4064	1202.2659	1237.1102	1262.2162	1326.4011	1344.443	1396.4066	1403.6385	1417.1599	1460.1201	1489.3575	1492.0035	1503.8106	1513.6078	2238.0651	3023.6997	3026.9818	3048.2316	3087.617	3088.323	3097.2549	3108.3221	3111.3855	3122.6029	3502.5255	3504.4274
CC(C)C1NC1C#C	CC(C)[C@H]1N[C@H]1C#C	
InChI=1S/C7H11N/c1-4-6-7(8-6)5(2)3/h1,5-8H,2-3H3	InChI=1S/C7H11N/c1-4-6-7(8-6)5(2)3/h1,5-8H,2-3H3/t6-,7+/m0/s1
