21
gdb 92474	2.54816	1.62511	1.59117	1.0201	76.66	-0.2397	0.0762	0.316	1004.1881	0.185462	-424.238351	-424.230622	-424.229678	-424.270405	30.987	
C	-0.1858692847	 1.5481703102	 0.0301951394	-0.415527
C	 0.0125016302	 0.0320123058	-0.0102780956	 0.046514
C	 0.8018923418	-0.4468657945	-1.2672181291	-0.23398
C	 1.9631987831	-1.3301763141	-0.7919812845	 0.081577
C	 2.889670455	-0.5172792413	 0.1132132197	-0.076417
O	 2.1280273302	 0.0490184304	 1.1867545446	-0.283906
C	 0.7990391054	-0.4801562355	 1.2113874338	 0.076388
C	 0.8660647654	-2.0073293515	 1.1826162785	-0.085304
O	 1.446877642	-2.4398129411	-0.0531676144	-0.282431
H	 0.7798639966	 2.0569195858	 0.1075909241	 0.130003
H	-0.6898906335	 1.9028257186	-0.87480038	 0.110556
H	-0.7926132992	 1.847542074	 0.8919307076	 0.109128
H	-0.9714403583	-0.4524950628	 0.0050405981	 0.072472
H	 0.162540624	-1.0183114539	-1.9452808981	 0.10443
H	 1.1942377489	 0.408374914	-1.8296969473	 0.095826
H	 2.5217943516	-1.75694679	-1.6290757833	 0.078013
H	 3.6769414758	-1.1657895568	 0.5214245436	 0.101079
H	 3.3683342453	 0.2979703217	-0.4447976202	 0.098761
H	 0.3550624503	-0.1342333247	 2.1495172946	 0.074783
H	 1.4750096165	-2.3700250059	 2.0220874583	 0.099655
H	-0.1375167364	-2.4440119984	 1.2714729103	 0.098379
76.418	219.9658	236.622	278.4431	313.5507	375.6445	396.3313	435.595	534.7602	615.3197	681.8391	777.6599	828.5081	858.9469	874.912	902.5063	932.7282	946.4724	985.6866	997.986	1023.8375	1056.2324	1089.6128	1103.2631	1123.0145	1140.3557	1173.8798	1220.7903	1239.5579	1251.8305	1278.7102	1306.8888	1331.2682	1343.5181	1352.9982	1359.9868	1377.0315	1402.72	1409.3305	1411.4415	1482.4262	1494.0703	1503.1496	1512.9387	1518.3732	3000.0026	3003.4515	3023.4784	3030.6256	3037.509	3039.5692	3043.9138	3070.5861	3080.8084	3092.6649	3097.1807	3111.3762
CC1CC2COC1CO2	C[C@H]1C[C@H]2CO[C@@H]1CO2	
InChI=1S/C7H12O2/c1-5-2-6-3-9-7(5)4-8-6/h5-7H,2-4H2,1H3	InChI=1S/C7H12O2/c1-5-2-6-3-9-7(5)4-8-6/h5-7H,2-4H2,1H3/t5-,6-,7+/m0/s1
