14
gdb 9129	5.55642	0.77348	0.68476	4.4045	65.83	-0.2581	-0.0477	0.2104	1540.9498	0.103443	-419.635317	-419.625813	-419.624868	-419.671123	30.917	
O	-0.0813154878	 1.4854291016	 0.0116552132	-0.406637
C	-0.0400101883	 0.0670863124	 0.0024220581	-0.220058
C	-1.3942377669	-0.465743788	 0.0125514679	 0.123834
C	-2.5024811016	-0.9426181135	 0.0205235427	 0.013011
C	-3.8374612727	-1.5124298156	 0.0303206898	 0.229561
O	-4.03755518	-2.7036762421	 0.0258102186	-0.263715
C	-4.9480215138	-0.4683679312	 0.0466408422	-0.176602
O	-6.193319483	-1.1096408272	 0.0550840365	-0.395343
H	 0.8282775758	 1.80078169	 0.0061209339	 0.295752
H	 0.4791254543	-0.3201809887	-0.8896328746	 0.13262
H	 0.4967532016	-0.3312169475	 0.8790386521	 0.132623
H	-4.7815044895	 0.1700008115	 0.9317126963	 0.11991
H	-4.7984405264	 0.1795983494	-0.8344807683	 0.119902
H	-6.8764457917	-0.433075541	 0.0662367114	 0.295141
41.8378	64.8601	76.3193	148.5445	198.2422	211.0572	231.9753	275.9785	377.024	386.1238	574.1937	577.7519	592.2006	773.157	945.0884	1010.7351	1016.1922	1066.1433	1124.717	1174.6896	1238.8941	1243.0402	1244.8806	1260.8698	1440.935	1455.9618	1489.1215	1491.85	1787.0182	2336.7537	2956.1679	2967.4067	2979.4167	2987.5076	3821.1175	3838.5663
OCC#CC(=O)CO	OCC#CC(=O)CO	
InChI=1S/C5H6O3/c6-3-1-2-5(8)4-7/h6-7H,3-4H2	InChI=1S/C5H6O3/c6-3-1-2-5(8)4-7/h6-7H,3-4H2
