15
gdb 123595	4.30139	1.693	1.47281	4.836	70.12	-0.2535	-0.0024	0.2511	870.1677	0.116815	-412.905935	-412.900145	-412.899201	-412.936211	23.508	
C	-0.0215375253	 1.5255356711	-0.0653826389	-0.176769
C	 1.5210980576	 1.3185970988	-0.013822034	-0.035389
C	 1.1514575741	 0.1678480451	 0.9681959801	-0.17678
N	-0.0943346358	-0.0151754882	 0.0675123312	-0.238878
C	 0.6012326168	-0.3519048885	-1.1642113934	 0.358688
C	 0.7044795854	-1.1209679544	-2.2919372432	-0.247679
N	 1.8142126186	-0.68383112	-2.9769596466	-0.196471
N	 2.3943972142	 0.3052206397	-2.337192603	-0.175931
N	 1.6498946441	 0.4972814611	-1.2390109459	 0.103577
H	-0.4477302351	 1.9988081629	 0.8206486169	 0.128928
H	-0.4558854747	 1.9230050759	-0.9836403853	 0.139093
H	 2.2827761882	 2.0815513229	 0.1239479478	 0.119453
H	 1.8104776437	-0.7001898588	 1.0133473592	 0.139092
H	 0.8492891124	 0.4975368179	 1.9635248689	 0.128945
H	 0.0959442258	-1.9280429155	-2.6614277937	 0.13012
102.4632	311.4453	412.8295	506.8344	544.8335	678.5951	691.711	719.0024	748.9204	822.1141	822.6085	823.4269	849.15	918.7537	989.5882	1016.0433	1020.2641	1058.5378	1087.2877	1098.8356	1109.3386	1195.1865	1201.591	1216.2857	1231.9512	1233.2918	1284.4936	1303.2974	1318.7997	1434.2892	1486.937	1521.1725	1585.1765	3077.6381	3085.2686	3154.0724	3158.4624	3165.6941	3289.7838
C1C2CN1C1=CN=NN21	C1[C@H]2CN1c1cnnn21	
InChI=1S/C5H6N4/c1-5-8-2-4(3-8)9(5)7-6-1/h1,4H,2-3H2	InChI=1S/C5H6N4/c1-5-8-2-4(3-8)9(5)7-6-1/h1,4H,2-3H2
