15
gdb 132981	3.34291	1.38365	0.98455	4.2733	72.86	-0.215	-0.0434	0.1716	1113.0483	0.114033	-458.141709	-458.13413	-458.133186	-458.173962	28.47	
C	-0.0190854635	 1.4520528445	-0.0198176538	-0.324553
N	-0.0178853413	-0.0060375347	-0.0164489501	-0.091062
C	-1.1583141407	-0.7185890905	-0.1290549711	 0.074338
C	-1.1590000525	-2.0803504362	-0.1263973459	-0.350268
C	 0.1270985544	-2.667531324	 0.0032901637	 0.346616
F	 0.174242919	-3.9944536541	 0.0112153302	-0.064137
N	 1.2417465928	-2.0422312167	 0.1132649756	-0.383867
C	 1.2432315959	-0.6551240588	 0.1101307874	 0.430481
N	 2.2745153907	 0.0926387378	 0.2110572681	-0.578791
H	 0.5954101273	 1.8214531339	-0.8438569664	 0.162095
H	-1.0459153312	 1.8070048846	-0.1231049907	 0.122469
H	 0.4205477213	 1.8254500159	 0.9077343979	 0.162067
H	-2.0692448287	-0.1387345941	-0.2210953362	 0.143529
H	-2.0600101415	-2.6666423227	-0.2150126403	 0.124499
H	 3.097029808	-0.501238185	 0.2942677418	 0.226584
96.2231	150.3397	195.8869	282.019	345.6877	375.2463	428.9158	476.6481	543.038	608.6412	705.6433	753.8989	768.0112	769.1968	775.0478	846.9867	965.1056	981.933	1051.9126	1132.7634	1157.2899	1166.4788	1211.912	1294.1338	1332.7952	1382.8329	1450.9412	1459.6504	1496.899	1530.519	1591.4306	1683.5473	1724.3489	3056.1821	3128.3347	3147.7645	3206.9782	3258.3624	3520.9877
CN1C=CC(F)=NC1=N	CN1CC=C(F)N=C1[NH]	
InChI=1S/C5H6FN3/c1-9-3-2-4(6)8-5(9)7/h2-3,7H,1H3	InChI=1S/C5H7FN3/c1-9-3-2-4(6)8-5(9)7/h2,7H,3H2,1H3
