17
gdb 132350	1.90617	1.71246	0.91221	0.065	79.25	-0.2516	-0.0147	0.2369	1239.6683	0.134896	-426.054036	-426.045301	-426.044357	-426.089085	31.326	
C	 0.0601386668	 1.4894630277	 0.0414721603	-0.465596
C	 0.0437461183	-0.0160447768	-0.0182211172	 0.337297
C	 0.0886182107	-0.6898870768	-1.2407100065	-0.331495
C	 0.0692549594	-2.0739814486	-1.2082620969	 0.350548
F	 0.1105913936	-2.7591902085	-2.3507874148	-0.072738
C	 0.0076806973	-2.7557156684	-0.004690462	-0.331496
C	-0.0337940585	-1.9945550645	 1.1655578307	 0.337295
C	-0.1023438931	-2.652219807	 2.5195031139	-0.465596
N	-0.0159656041	-0.6559511481	 1.1561855074	-0.37865
H	 0.1168744838	 1.9362352239	-0.953858454	 0.118212
H	-0.8413936134	 1.8577256331	 0.5412188121	 0.141706
H	 0.9146371543	 1.8348899201	 0.631744678	 0.141747
H	 0.1370194844	-0.1633130514	-2.1856136213	 0.10855
H	-0.0069593063	-3.8382737382	 0.0131825698	 0.10855
H	 0.7497820091	-2.3434997162	 3.1330666148	 0.14175
H	-1.0066702341	-2.3350265276	 3.0483967677	 0.141703
H	-0.104401228	-3.7420563426	 2.4436104079	 0.118212
34.1119	36.6251	189.4265	204.3198	246.3666	276.9884	308.4321	499.7213	518.6218	535.6967	574.4379	594.5047	611.5897	747.9791	869.5893	878.1465	957.5166	964.2975	1014.3428	1042.9972	1050.8197	1056.4138	1060.6741	1161.2376	1210.1057	1297.334	1369.6628	1406.1669	1414.7437	1442.8107	1448.2977	1474.9727	1475.2176	1495.421	1506.9456	1631.9332	1632.2155	3042.8305	3043.3161	3104.3409	3104.4689	3127.3783	3127.7805	3210.5654	3211.0149
CC1=CC(F)=CC(C)=N1	Cc1cc(F)cc(C)n1	
InChI=1S/C7H8FN/c1-5-3-7(8)4-6(2)9-5/h3-4H,1-2H3	InChI=1S/C7H8FN/c1-5-3-7(8)4-6(2)9-5/h3-4H,1-2H3
