17
gdb 49273	2.48769	1.72556	1.10945	5.2311	79.98	-0.2042	-0.0361	0.1681	1068.4024	0.137693	-418.006714	-417.998744	-417.9978	-418.039368	30.068	
O	-0.1219114721	-0.0417122581	-0.1161282342	-0.332247
C	-0.0340900304	 1.1754569288	-0.0205901437	 0.049326
C	 1.1994225194	 1.9043060354	 0.0406359175	 0.105756
C	 1.3178480357	 3.2595738668	 0.0618369729	-0.074834
N	 2.6091896906	 3.6793479988	 0.1232225549	-0.300041
C	 3.5225157275	 2.5381649852	-0.0578341981	-0.239998
C	 2.5800158495	 1.3223855287	 0.0425973681	 0.243829
C	 2.939337853	 0.0749290405	 0.7661499855	-0.286125
N	 2.9440831625	 0.1147071813	-0.7081309572	-0.372128
H	-0.9510838395	 1.8067435981	 0.0095341076	 0.059896
H	 0.5142494898	 3.9864800357	 0.0572933461	 0.141728
H	 2.8738351664	 4.6072850919	-0.1631552369	 0.257539
H	 4.0058415423	 2.5660033173	-1.0422593981	 0.128682
H	 4.3012224751	 2.5394664499	 0.7108625693	 0.122961
H	 3.9211539055	-0.007227158	 1.22727078	 0.108025
H	 2.1415618059	-0.471869672	 1.2582702147	 0.135333
H	 2.0864546487	-0.3286522702	-1.0339338285	 0.252297
72.9894	148.9471	184.0488	263.4563	338.1274	354.8384	361.5953	438.1142	447.4892	590.1296	611.9071	715.5118	818.12	835.303	907.982	915.457	947.2806	983.2361	994.8088	1018.6328	1060.8419	1079.8932	1123.3034	1167.126	1199.6386	1255.229	1273.1624	1294.3089	1318.7191	1374.4448	1412.1552	1428.7783	1476.6434	1498.0553	1519.6906	1648.7751	1732.1579	2866.6023	3026.959	3075.7178	3104.5946	3205.155	3212.4544	3489.0205	3648.9275
O=CC1=CNCC11CN1	O=CC1=CNC[C@]21CN2	
InChI=1S/C6H8N2O/c9-2-5-1-7-3-6(5)4-8-6/h1-2,7-8H,3-4H2	InChI=1S/C6H8N2O/c9-2-5-1-7-3-6(5)4-8-6/h1-2,7-8H,3-4H2/t6-/m1/s1
