21
gdb 68438	2.59993	1.46951	1.15159	2.9446	82.81	-0.2434	-0.0199	0.2235	1137.9877	0.183187	-387.099199	-387.09084	-387.089896	-387.132318	32.71	
C	 0.0247399185	 1.5364755925	 0.0385858947	-0.501011
C	 0.0530494536	 0.0249306073	 0.0507326825	 0.323052
C	 0.881601325	-0.8022212521	-0.9831056693	-0.257449
C	 0.7218564053	-1.929830093	 0.0723145112	-0.01372
C	 0.8174827819	-0.803367905	 1.1363232098	-0.267624
C	-0.793818015	-2.1989976624	 0.0270319306	-0.253728
C	-1.3178099324	-0.7216961481	-0.0393119648	-0.084712
C	-2.2818240102	-0.3680529729	 1.0626011804	 0.143319
O	-3.3494041394	 0.1670321979	 0.8964384861	-0.259597
H	 1.0386396114	 1.9483342061	 0.0683034065	 0.11497
H	-0.4653643112	 1.9130309151	-0.8665056754	 0.124221
H	-0.525108821	 1.9374000392	 0.8973937722	 0.125683
H	 0.4569744517	-0.9568097262	-1.9801900126	 0.090172
H	 1.9097923603	-0.4394559912	-1.0621855007	 0.096921
H	 1.3795130642	-2.7986409169	 0.0931853537	 0.063901
H	 1.838472318	-0.4374254401	 1.2703970479	 0.098867
H	 0.3526502635	-0.9653855354	 2.1129603892	 0.092029
H	-1.1038146969	-2.7766371479	-0.8475346246	 0.10816
H	-1.1468043313	-2.7279463665	 0.9192232037	 0.101958
H	-1.8156625732	-0.4937767643	-0.986181296	 0.085931
H	-1.9402865628	-0.6382976163	 2.0898622749	 0.068656
52.5068	138.4052	212.078	229.2377	299.5312	331.6373	395.54	414.283	470.2789	529.953	592.1622	696.0001	812.1672	826.84	867.2825	877.1578	899.7339	923.6866	949.8227	983.7129	986.4013	1021.2208	1046.9755	1059.6061	1078.8657	1097.9384	1146.3251	1162.7352	1200.1744	1207.9922	1240.7535	1254.1017	1266.7034	1286.9755	1308.273	1327.4668	1329.3879	1417.913	1432.6704	1489.2534	1490.3344	1492.6089	1493.3858	1527.7083	1822.9054	2848.4837	3026.9701	3044.107	3045.9688	3056.5843	3069.5042	3091.0074	3097.9143	3098.3883	3108.5724	3113.1799	3118.4833
CC12CC(C1)CC2C=O	C[C@@]12C[C@@H](C1)C[C@H]2C=O	
InChI=1S/C8H12O/c1-8-3-6(4-8)2-7(8)5-9/h5-7H,2-4H2,1H3	InChI=1S/C8H12O/c1-8-3-6(4-8)2-7(8)5-9/h5-7H,2-4H2,1H3/t6-,7-,8+/m0/s1
