19
gdb 66912	2.60624	1.74137	1.28	3.2226	79.79	-0.2282	0.0149	0.2431	1051.6709	0.158176	-385.876959	-385.868421	-385.867477	-385.909643	32.722	
C	 0.0025525454	 1.4990720096	 0.0353492189	-0.510148
C	-0.031904816	 0.003661965	-0.0418744824	 0.206121
C	-0.9353894143	-0.8869356664	 0.8234759698	-0.109638
C	-1.0979364387	-2.2363679812	 0.1190314307	-0.284328
C	 0.4165771895	-2.124918826	-0.2288846105	 0.177727
C	 1.2890182168	-3.3167399289	-0.5032294572	-0.504932
C	 0.5446241617	-1.0531519073	 0.9429901533	-0.166144
C	 0.4694240674	-0.8792647425	-1.1391525348	 0.357809
O	 0.9942568867	-0.6634587402	-2.1991539666	-0.354536
H	 0.9465611544	 1.8850355652	-0.3614129087	 0.138929
H	-0.8104817472	 1.941692429	-0.549934142	 0.133792
H	-0.1035052919	 1.8473131749	 1.0677748489	 0.121549
H	-1.6095774976	-0.4146958106	 1.5278999904	 0.096356
H	-1.2864575953	-3.0388734379	 0.838689911	 0.104589
H	-1.800232348	-2.3142944492	-0.7191545521	 0.100098
H	 0.9425457289	-3.8390658689	-1.4015069064	 0.134063
H	 2.3258810858	-3.0142747547	-0.6805706954	 0.131534
H	 1.2728033699	-4.0285636869	 0.3283666973	 0.117203
H	 1.2742139924	-0.894181793	 1.7226784255	 0.109957
130.2738	162.0975	172.3692	207.4653	224.6825	243.3021	313.7418	417.3779	487.2495	556.0745	638.7887	682.9773	715.2243	773.3169	834.3458	834.8356	868.7961	882.553	929.5316	955.9315	979.9762	1016.5557	1038.839	1090.9937	1103.9337	1129.0944	1134.1601	1188.6071	1229.5589	1246.1876	1298.3108	1356.5768	1404.2265	1413.8109	1430.0697	1483.5613	1485.5148	1488.9922	1496.5433	1500.9733	1859.6573	3031.0203	3033.5654	3034.5745	3091.5989	3097.0626	3100.3781	3105.5874	3107.5885	3186.6345	3236.0941
CC12C3CC(C)(C13)C2=O	C[C@]12[C@H]3C[C@](C)([C@@H]13)C2=O	
InChI=1S/C8H10O/c1-7-3-4-5(7)8(4,2)6(7)9/h4-5H,3H2,1-2H3	InChI=1S/C8H10O/c1-7-3-4-5(7)8(4,2)6(7)9/h4-5H,3H2,1-2H3/t4-,5-,7+,8-/m0/s1
