17
gdb 60510	2.15406	1.44004	0.91626	3.1935	75.76	-0.2678	-0.0717	0.1962	1244.0643	0.133037	-421.785492	-421.776179	-421.775235	-421.820248	33.92	
O	 0.179149749	 1.5940617775	-0.0400694869	-0.435435
C	 0.0647151462	 0.1979767029	-0.055216774	 0.013377
C	 0.7023906353	-0.3968859984	-1.2988252535	 0.010868
C	 0.1561465953	-1.658500073	-1.9194037422	-0.2648
C	-0.0486162073	-0.3329423013	-2.6038693422	-0.268242
C	 0.7005325413	-0.3700823549	 1.2179775113	 0.193825
O	 1.2594338372	 0.3716593337	 2.0031355219	-0.31745
C	 0.5988322983	-1.7923271922	 1.4481627301	 0.306294
C	 0.4914541122	-2.9723885784	 1.6594230354	-0.408417
H	 0.6634129767	 1.8088256974	 0.7737048156	 0.294177
H	-0.9989478768	-0.0993895881	-0.0391691305	 0.089918
H	 1.7767975435	-0.2442442501	-1.350490892	 0.092873
H	 0.8633930793	-2.36155062	-2.3441699283	 0.116049
H	-0.7012889797	-2.1269548909	-1.4486862922	 0.116288
H	-1.042352686	 0.1016868931	-2.5898891952	 0.122147
H	 0.5173424093	-0.119344142	-3.5032002863	 0.117816
H	 0.4046623563	-4.0146479754	 1.8509938489	 0.220712
47.8442	83.4717	124.6286	167.9313	227.8396	289.7765	316.8479	359.8336	400.6473	447.303	549.9435	602.05	648.9267	683.571	713.2563	770.1452	829.4866	868.5091	887.9998	945.3942	972.0608	1060.0668	1078.9465	1095.098	1131.1921	1155.3886	1171.2463	1195.1349	1225.2521	1269.3679	1312.8358	1400.5859	1435.2947	1471.857	1504.6979	1747.4351	2215.0587	2948.9744	3136.5274	3139.9839	3148.7357	3214.4259	3229.0955	3492.7653	3679.075
OC(C1CC1)C(=O)C#C	O[C@@H](C1CC1)C(=O)C#C	
InChI=1S/C7H8O2/c1-2-6(8)7(9)5-3-4-5/h1,5,7,9H,3-4H2	InChI=1S/C7H8O2/c1-2-6(8)7(9)5-3-4-5/h1,5,7,9H,3-4H2/t7-/m0/s1
