17
gdb 37384	2.91882	2.08544	1.88007	0.9965	68.37	-0.2353	0.081	0.3163	813.2243	0.139856	-421.80308	-421.797351	-421.796407	-421.832801	25.122	
C	-0.0110115975	 1.5751499629	 0.0125672241	-0.236693
C	 1.478640401	 1.8924465101	-0.0017635233	-0.117701
C	 2.1369233361	 0.6584123317	 0.5357749716	 0.095884
O	 1.1597509799	-0.3211929425	 0.7959062326	-0.262046
C	 0.0334885186	 0.0375284961	-0.0365141922	 0.014809
C	 0.3792919446	-0.4409210575	-1.4471852261	 0.03651
O	 0.4038552851	 0.5358978657	-2.4937670737	-0.257373
C	 1.6528258168	 0.1202166046	-1.9136334163	 0.053095
C	 2.3280692043	 1.0281662495	-0.9329649094	-0.123113
H	-0.4544634429	 1.9163080508	 0.9531365633	 0.102938
H	-0.5642447214	 1.9926107021	-0.8280282634	 0.130818
H	 1.8232525783	 2.8888317862	 0.245229219	 0.093423
H	 2.9589460177	 0.6263002506	 1.2386173656	 0.105171
H	-0.843992356	-0.4598379048	 0.3782361617	 0.0827
H	 0.0536712126	-1.4340272651	-1.7467903272	 0.096012
H	 2.2907320414	-0.4478691636	-2.5873843145	 0.097464
H	 3.2944765414	 1.4314081034	-1.2144814417	 0.088104
282.7801	317.23	407.2074	491.3999	533.5039	601.8976	662.8503	707.0537	769.768	783.0946	822.035	849.548	864.6402	888.9464	924.773	952.0438	974.0636	997.6687	1016.6244	1052.5365	1056.8637	1071.6403	1086.2761	1093.765	1133.9046	1146.171	1196.3734	1249.9985	1280.7963	1294.004	1317.8182	1338.5996	1361.5648	1368.6223	1407.5982	1451.4764	1483.8285	3060.8764	3108.1072	3129.2459	3142.0586	3145.0865	3170.3599	3188.654	3206.1818
C1C2C3OC1C1OC1C23	C1[C@H]2[C@H]3O[C@@H]1[C@H]1O[C@H]1[C@@H]23	
InChI=1S/C7H8O2/c1-2-4-5(2)8-3(1)6-7(4)9-6/h2-7H,1H2	InChI=1S/C7H8O2/c1-2-4-5(2)8-3(1)6-7(4)9-6/h2-7H,1H2/t2-,3+,4+,5-,6-,7+/m1/s1
