20
gdb 102061	2.18468	1.1892	0.8205	5.2996	80.13	-0.2596	-0.0362	0.2234	1416.2912	0.167841	-403.179131	-403.16839	-403.167445	-403.215972	37.12	
C	-0.0590819994	 1.5925891304	 0.012761458	-0.393501
C	-0.1012999707	 0.0637374105	 0.0947519487	-0.209161
C	 0.7706708896	-0.5156577005	 1.2364803034	-0.047765
C	 0.1018588391	-0.155436398	 2.5558398185	 0.161042
O	 0.3570918316	 0.8248445367	 3.2031741907	-0.244599
C	 0.9474159162	-2.0548429736	 1.1103452818	-0.167079
C	 1.8135693647	-2.4810429835	-0.0925790298	-0.402895
C	 1.5272715494	-2.6031831575	 2.3441726459	 0.268575
N	 1.9927434573	-3.0289634065	 3.3127769539	-0.318754
H	 0.9539505465	 1.9438253624	-0.208547087	 0.124342
H	-0.7200220071	 1.9510793026	-0.7816366516	 0.119414
H	-0.3700742958	 2.0576182256	 0.9517753971	 0.145721
H	-1.1367581221	-0.2780162589	 0.2320091361	 0.107051
H	 0.2318824996	-0.3584749248	-0.8584588675	 0.110913
H	 1.7549527927	-0.0350059417	 1.2249657477	 0.110332
H	-0.7083785724	-0.8563413419	 2.8681512813	 0.084396
H	-0.0484084125	-2.5063774851	 1.0035626843	 0.130401
H	 1.3541238857	-2.1704675823	-1.0328735701	 0.133673
H	 2.810026364	-2.0356009213	-0.0268493487	 0.143572
H	 1.9276640434	-3.5674272628	-0.1136153928	 0.144322
39.751	64.1733	86.8017	129.	194.0636	196.8598	214.9748	258.9749	274.9702	333.6832	380.6268	392.683	479.5206	566.1058	600.1495	774.4553	836.1893	879.848	930.3368	962.195	997.6493	1028.2262	1054.5591	1094.1995	1125.3038	1146.4559	1167.4651	1259.3746	1260.6248	1318.6984	1337.3468	1350.4938	1365.1799	1414.6683	1420.7769	1432.4132	1486.4109	1495.5838	1496.7781	1499.1192	1507.5456	1836.0821	2354.7479	2853.0887	3015.6132	3021.9332	3043.6606	3054.0619	3061.957	3075.2195	3110.476	3126.1731	3129.3893	3137.24
CCC(C=O)C(C)C#N	CC[C@@H](C=O)[C@@H](C)C#N	
InChI=1S/C7H11NO/c1-3-7(5-9)6(2)4-8/h5-7H,3H2,1-2H3	InChI=1S/C7H11NO/c1-3-7(5-9)6(2)4-8/h5-7H,3H2,1-2H3/t6-,7-/m0/s1
