23
gdb 105059	2.36965	1.4833	1.09177	1.0759	85.74	-0.225	0.0859	0.3109	1228.7565	0.203919	-388.248334	-388.2385	-388.237556	-388.283351	37.909	
C	 0.0604462652	 1.2355672821	 0.2640491283	-0.246536
O	-0.1970087783	-0.0445447309	-0.2592723452	-0.290424
C	 0.6076323025	-0.5347954802	-1.309165152	 0.369933
C	 0.5265443361	 0.1508285147	-2.6503840668	-0.316242
C	 1.7898163344	 0.2559318394	-1.8138391076	-0.341474
C	 0.6818798994	-2.0466871335	-1.210513646	 0.315318
C	 1.3932768283	-2.7758738103	-2.3357791773	-0.487864
C	 0.8089985776	-2.6446131543	 0.1733747918	-0.297249
C	-0.4928782637	-2.764506646	-0.5834727638	-0.294639
H	 1.0577963178	 1.3085536647	 0.7188668834	 0.112633
H	-0.041755663	 2.0333194732	-0.486787021	 0.108329
H	-0.6907740353	 1.4030930226	 1.0401084545	 0.127152
H	 0.5440472992	-0.4411042094	-3.5572391774	 0.113796
H	-0.1003412021	 1.0345960505	-2.7098316268	 0.111765
H	 2.0136758029	 1.2159482402	-1.3652315922	 0.112681
H	 2.6711572322	-0.287284687	-2.1338968378	 0.115546
H	 2.4378095212	-2.4630475814	-2.4409789808	 0.116098
H	 1.3989325871	-3.8510726188	-2.1354308213	 0.116127
H	 0.8960914446	-2.630348501	-3.3007434334	 0.118936
H	 1.4292319709	-3.5276934156	 0.2865307317	 0.098958
H	 0.8245780223	-1.9655258656	 1.0168729783	 0.11356
H	-1.3239193785	-2.1659052479	-0.2342829109	 0.125443
H	-0.7650059408	-3.7307776755	-0.9954206676	 0.098152
37.4128	53.521	213.1645	217.7967	252.913	264.1586	322.0209	346.0563	361.0619	382.3397	409.6153	464.7723	553.3525	601.2982	755.1431	792.8921	800.5812	859.5305	883.4142	900.9269	931.5272	956.0644	967.8324	983.1165	1039.277	1050.2158	1070.474	1074.6691	1085.2837	1118.619	1122.2443	1177.6395	1188.0162	1194.4426	1214.3025	1220.2135	1270.1426	1326.6402	1384.2615	1421.8069	1454.5476	1457.9566	1481.2647	1490.291	1494.6459	1500.9334	1506.5305	1508.4803	1513.2163	2984.8888	3031.3751	3038.7313	3090.9502	3103.9097	3110.2791	3133.9968	3137.0741	3139.016	3148.7065	3218.9756	3224.0355	3232.4943	3239.0361
COC1(CC1)C1(C)CC1	COC1(CC1)C1(C)CC1	
InChI=1S/C8H14O/c1-7(3-4-7)8(9-2)5-6-8/h3-6H2,1-2H3	InChI=1S/C8H14O/c1-7(3-4-7)8(9-2)5-6-8/h3-6H2,1-2H3
