14
gdb 7944	3.6501	1.83485	1.26945	1.8186	58.99	-0.2621	-0.0177	0.2445	897.8668	0.108594	-415.90782	-415.900634	-415.899689	-415.939564	26.366	
N	 0.095659593	 1.4453656337	 0.2876982561	-0.507917
C	-0.0369683255	 0.0335848105	-0.0215436245	-0.060124
C	-1.4803548237	-0.442241908	-0.2276784794	-0.358002
C	-1.3646520191	-1.552651108	-1.2557681605	 0.415573
O	-2.1502851773	-2.388345393	-1.5712426037	-0.301472
O	-0.1202613973	-1.4627859313	-1.8687465289	-0.213432
C	 0.641860389	-0.4555379554	-1.2991716141	 0.388121
N	 1.7207301489	-0.0201829115	-1.7719790357	-0.520373
H	 1.0835374221	 1.6645987741	 0.386671373	 0.250905
H	-0.2214251702	 1.996183049	-0.5070646293	 0.231684
H	 0.408623402	-0.5314021348	 0.8075504541	 0.128235
H	-1.9849954452	-0.7966910999	 0.6707758911	 0.155849
H	-2.0968706028	 0.356044418	-0.6586387962	 0.151228
H	 1.975330476	-0.4995552336	-2.636683572	 0.239725
80.1989	137.4458	232.9929	266.4891	350.3965	399.5225	530.5525	554.5125	603.8204	637.1623	707.9361	794.9906	874.706	914.6137	926.1467	960.4915	999.4281	1069.5875	1126.8463	1142.9409	1173.0973	1248.5684	1288.8349	1306.1779	1326.3222	1420.6521	1461.7914	1670.6594	1789.4825	1922.9635	3029.3461	3053.6402	3141.3932	3482.0499	3484.6382	3556.8347
NC1CC(=O)OC1=N	N[C@H]1CC(=O)O[C]1[NH]	
InChI=1S/C4H6N2O2/c5-2-1-3(7)8-4(2)6/h2,6H,1,5H2	InChI=1S/C4H6N2O2/c5-2-1-3(7)8-4(2)6/h2,6H,1,5H2/t2-/m0/s1
