14
gdb 133287	4.77976	1.06188	0.87355	2.3037	71.75	-0.239	-0.0808	0.1581	1227.729	0.099196	-477.944213	-477.936328	-477.935383	-477.977208	28.513	
C	-0.2196381514	 1.4261818837	 0.1546136604	-0.323656
N	-0.2117723266	-0.0274042411	 0.1415954586	-0.3098
C	 0.6704344206	-0.6398962772	 0.8139721746	 0.437541
O	 1.6160050987	 0.0709727019	 1.5527099176	-0.300994
N	 2.6119832517	-0.543937431	 2.3126671283	-0.134667
C	 2.6152579556	-1.8213887006	 2.2983753837	 0.351209
F	 3.5611488921	-2.4049641213	 3.0196489635	-0.054146
C	 1.7074694007	-2.6844790655	 1.58680759	-0.219323
C	 0.7528233819	-2.0863679426	 0.8584810373	-0.127287
H	 0.7227620628	 1.8420285183	-0.2257498122	 0.131711
H	-1.0387756554	 1.7825481331	-0.4731817708	 0.122485
H	-0.3544949304	 1.8236267351	 1.1692965004	 0.131713
H	 1.8269539173	-3.7576399935	 1.6647180352	 0.143153
H	 0.0135858224	-2.6267474793	 0.2812105133	 0.152062
63.7929	119.1234	194.4083	198.6814	346.6125	367.016	383.5451	448.6781	556.361	577.7792	606.9633	729.1456	774.7738	789.9511	838.3074	924.7449	1011.1378	1034.2287	1066.0645	1102.6377	1119.091	1171.7444	1250.448	1316.3333	1433.7724	1453.9614	1484.8719	1495.1022	1631.8964	1691.0929	1733.5904	3005.7645	3056.3615	3115.9387	3215.1743	3233.122
CN=C1ON=C(F)C=C1	C[N]C1=C[CH]C(=NO1)F	
InChI=1S/C5H5FN2O/c1-7-5-3-2-4(6)8-9-5/h2-3H,1H3	InChI=1S/C5H5FN2O/c1-7-5-3-2-4(6)8-9-5/h2-3H,1H3
