20
gdb 84813	3.09182	1.08211	0.86682	4.0913	83.9	-0.2505	0.0134	0.2639	1344.1451	0.171899	-366.04639	-366.037534	-366.03659	-366.080253	33.255	
C	-0.1073932866	 1.5866638195	-0.1386198974	-0.393467
C	-0.0112727881	 0.0559820116	 0.0027304562	-0.058666
C	 0.7666213936	-0.548652158	-1.1485228644	-0.064532
C	 1.9795453877	-0.9592927628	-0.7835701297	-0.069449
C	 2.2279415602	-0.7462351864	 0.6901367401	-0.264893
C	 0.802430781	-0.4648511735	 1.2317256543	 0.015711
C	 0.7524979864	 0.4361970513	 2.4790572946	-0.378346
C	 1.4560631803	-0.1533910933	 3.6174228559	 0.268081
N	 2.0156797651	-0.6340938043	 4.5070917599	-0.311806
H	 0.8841910539	 2.0510022242	-0.15823807	 0.121022
H	-0.6077100118	 1.8477626262	-1.0764964953	 0.118397
H	-0.6845594509	 2.0376627898	 0.6754487425	 0.113485
H	-1.0349537577	-0.3373099014	 0.0458409009	 0.078441
H	 0.3725219998	-0.5690917866	-2.1590856118	 0.094054
H	 2.7285686213	-1.3747239099	-1.4484002448	 0.097693
H	 2.6918827878	-1.6057077645	 1.1845979595	 0.123783
H	 2.9076067909	 0.1033013582	 0.8550603389	 0.108568
H	 0.3681511827	-1.4315827192	 1.5079499704	 0.100516
H	 1.1986831601	 1.4145388049	 2.2696031377	 0.151607
H	-0.2860908556	 0.6199721143	 2.7783418925	 0.149801
77.2143	93.5481	123.2347	239.2297	258.5833	264.4291	337.1256	403.1861	445.4869	464.1045	537.8639	677.8677	735.7618	765.6336	798.2442	855.5494	899.798	941.0015	964.5195	977.2942	982.6081	1011.1303	1074.4765	1085.0054	1102.306	1125.6773	1142.891	1171.2425	1244.9576	1293.1749	1297.8918	1317.7742	1331.9239	1363.6379	1374.8139	1383.5553	1408.5407	1465.3947	1489.4764	1496.7678	1502.1134	1687.2012	2360.3309	2998.4243	3016.2395	3029.7817	3042.0668	3047.8859	3072.6438	3085.5819	3098.9984	3103.1592	3180.7227	3206.9301
CC1C=CCC1CC#N	C[C@H]1C=CC[C@H]1CC#N	
InChI=1S/C8H11N/c1-7-3-2-4-8(7)5-6-9/h2-3,7-8H,4-5H2,1H3	InChI=1S/C8H11N/c1-7-3-2-4-8(7)5-6-9/h2-3,7-8H,4-5H2,1H3/t7-,8-/m0/s1
