15
gdb 133128	2.4845	1.52353	0.94998	2.5649	70.28	-0.2536	-0.0156	0.238	1144.0806	0.113224	-461.960719	-461.952886	-461.951942	-461.993892	28.554	
O	 0.0060741564	 1.4307714344	 0.0078807148	-0.4173
C	 0.0173625636	 0.016800196	 0.0013988565	-0.171428
C	-1.4025470011	-0.4881626841	 0.012239917	 0.075422
C	-2.5181856694	 0.3500184008	 0.0237827501	-0.043483
N	-3.7849960241	-0.07837098	 0.033337276	-0.278794
C	-3.9865354494	-1.3967690761	 0.0316634838	 0.01012
C	-2.9598133135	-2.3381992839	 0.0206556817	-0.2566
C	-1.6650321574	-1.85319447	 0.0109741497	 0.268954
F	-0.6326010582	-2.7046828618	 0.000100287	-0.07659
H	 0.9166533029	 1.7376220327	 0.001756144	 0.295947
H	 0.5346441626	-0.3792014341	-0.887576838	 0.11251
H	 0.551008082	-0.3872949756	 0.8769160836	 0.112498
H	-2.3636121063	 1.4231961138	 0.0253267505	 0.138112
H	-5.0220164351	-1.7279552177	 0.0395051366	 0.114944
H	-3.1513852331	-3.4040350642	 0.0195866567	 0.115688
43.466	172.6944	195.3364	216.9289	272.799	326.237	435.7008	511.8266	533.5224	581.556	617.4081	762.5902	791.4136	853.8085	860.8898	955.3644	988.0487	1048.2854	1060.4659	1089.5719	1189.1243	1196.6742	1229.5577	1253.5762	1294.9552	1302.7531	1337.7284	1444.2496	1461.8063	1509.1095	1529.0313	1611.9697	1649.4328	2966.0539	2984.6813	3159.9458	3201.2172	3214.0939	3845.8103
OCC1=CN=CC=C1F	OCc1cnccc1F	
InChI=1S/C6H6FNO/c7-6-1-2-8-3-5(6)4-9/h1-3,9H,4H2	InChI=1S/C6H6FNO/c7-6-1-2-8-3-5(6)4-9/h1-3,9H,4H2
