22
gdb 59341	2.60672	1.14951	0.89029	2.4244	83.73	-0.2392	-0.023	0.2161	1404.0926	0.192189	-404.358783	-404.348562	-404.347618	-404.394038	37.626	
C	 0.0138797708	 1.4465626303	-0.2327890863	-0.398235
C	 0.0562702656	-0.0627981497	 0.0315585466	 0.045862
C	 0.8519933585	-0.4083571985	 1.2971627128	-0.402488
C	-1.3629286188	-0.631776978	 0.1250337494	-0.085293
N	-2.2017003677	-0.5138955479	-1.1045441036	-0.345817
C	-2.6129408643	-1.948306915	-1.0698007926	-0.062189
C	-2.4776342175	-2.7210596462	-2.3729408402	-0.385925
C	-1.5445618622	-2.1557425554	 0.017286031	 0.375923
O	-1.0201219415	-3.1109139578	 0.5108549794	-0.301017
H	 1.0239539881	 1.8493443591	-0.3606116612	 0.113
H	-0.5574088844	 1.6665817054	-1.1394457831	 0.124224
H	-0.4523587209	 1.9795351608	 0.6052777057	 0.105697
H	 0.5381695471	-0.5447464152	-0.8293777964	 0.077387
H	 0.4133150714	 0.0740816623	 2.1792505138	 0.107985
H	 0.8637719359	-1.487210875	 1.4740973032	 0.142678
H	 1.8863261633	-0.0604050264	 1.2113449959	 0.111053
H	-1.85325683	-0.2508116107	 1.0366457814	 0.085594
H	-2.9729996116	 0.1373148792	-1.0180421042	 0.221261
H	-3.6124244647	-2.1078940355	-0.6345683233	 0.093209
H	-1.4870026932	-2.5660250214	-2.8085192387	 0.126831
H	-2.6187975877	-3.791188322	-2.191846902	 0.130163
H	-3.2263296162	-2.3926361925	-3.1004819679	 0.120097
63.6676	78.1202	136.3281	187.384	204.8738	244.3134	252.7276	269.1553	315.791	360.6884	381.0608	452.731	553.5972	580.0842	657.9055	771.9109	831.9135	856.5596	914.8425	934.91	956.6374	967.093	1013.158	1024.2503	1062.3029	1076.7553	1127.6425	1134.7096	1177.1672	1186.8838	1206.9888	1274.1381	1298.8445	1338.9686	1356.5332	1367.4633	1389.6708	1396.2682	1404.243	1418.7208	1483.9695	1489.9231	1495.372	1496.4613	1503.2893	1516.0345	1899.9683	2965.2956	2978.5142	3018.1796	3023.0987	3030.0693	3040.3026	3088.3046	3094.7202	3109.8197	3111.7475	3120.3887	3123.6484	3544.9075
CC(C)C1NC(C)C1=O	CC(C)[C@H]1N[C@@H](C)C1=O	
InChI=1S/C7H13NO/c1-4(2)6-7(9)5(3)8-6/h4-6,8H,1-3H3	InChI=1S/C7H13NO/c1-4(2)6-7(9)5(3)8-6/h4-6,8H,1-3H3/t5-,6+/m0/s1
