18
gdb 88722	3.37708	0.99919	0.83609	2.3152	79.4	-0.2389	0.0401	0.279	1367.3952	0.146094	-401.859846	-401.850786	-401.849842	-401.894217	34.113	
O	-0.1480621229	 1.4964639734	 0.0320271079	-0.418777
C	-0.0374735357	 0.1027474798	-0.0442454379	 0.088312
C	-0.4543459436	-0.7318385458	 1.139407111	-0.336823
C	-1.3240126018	-0.6716808143	-0.1039312427	-0.014275
C	-2.6278615241	 0.0508788267	-0.0608992329	-0.009005
N	-3.4563233478	-0.0150230269	-1.2682083577	-0.334675
C	-3.9417141599	-0.6738557291	-0.0295734598	-0.264203
C	-4.0370547724	-2.1077929429	-0.0327375017	 0.38834
C	-4.127312247	-3.3064431289	-0.0003246547	-0.449789
H	 0.5447745523	 1.8159580152	 0.6191739686	 0.289272
H	 0.7887969054	-0.2546670349	-0.6581170136	 0.089747
H	 0.0784001336	-1.6499464082	 1.3605633941	 0.11504
H	-0.8084079046	-0.1886353322	 2.0101274259	 0.112639
H	-1.3312878496	-1.5488875773	-0.7408903938	 0.10808
H	-2.6007700635	 0.993778701	 0.4788853267	 0.097684
H	-3.9584847009	 0.8580918253	-1.407174028	 0.236755
H	-4.7409624241	-0.1755627214	 0.515932216	 0.106187
H	-4.2072527735	-4.3650289895	 0.0163992128	 0.195491
41.5751	91.8185	159.632	201.6286	240.2042	303.0031	328.6528	389.7991	460.2569	525.8166	555.5759	601.181	641.8979	657.9322	769.7477	790.8087	844.5197	849.1999	882.9047	944.0392	975.0853	995.359	1020.5489	1053.7613	1066.0306	1129.6313	1143.6202	1168.9496	1198.288	1228.2608	1233.0564	1261.9068	1298.5196	1326.5453	1409.5949	1416.4705	1467.7222	1498.5193	2238.9935	3102.6518	3119.6767	3129.3727	3148.0818	3180.0112	3219.3289	3503.9764	3505.0961	3808.5944
OC1CC1C1NC1C#C	O[C@H]1C[C@H]1[C@H]1N[C@H]1C#C	
InChI=1S/C7H9NO/c1-2-5-7(8-5)4-3-6(4)9/h1,4-9H,3H2	InChI=1S/C7H9NO/c1-2-5-7(8-5)4-3-6(4)9/h1,4-9H,3H2/t4-,5+,6+,7-/m1/s1
