17
gdb 112213	2.51062	1.34307	0.98037	2.2843	70.85	-0.2591	0.0077	0.2668	1197.6469	0.135968	-455.101112	-455.092638	-455.091694	-455.134581	31.395	
O	-0.0328728995	 1.4807919185	-0.1725085069	-0.414496
C	-0.0222998606	 0.1466771753	 0.2921889018	-0.073241
C	-1.3499085463	-0.5363913683	 0.0286226256	 0.027845
O	-1.5904745066	-0.6288220642	-1.422114337	-0.302795
C	-1.6809393504	-2.0164170088	-1.3761157853	 0.415734
N	-1.8790393409	-2.8567933891	-2.2805972361	-0.542643
C	-1.4334932807	-2.0628563406	 0.1002393542	 0.173859
C	-0.6610765547	-3.0287282853	 0.9170237424	-0.298055
N	-2.1214738646	-2.922275886	 1.0511331628	-0.348407
H	-0.2392977095	 1.4455606975	-1.1139404985	 0.29628
H	 0.7852617108	-0.4439538264	-0.1671460269	 0.09955
H	 0.1644699059	 0.1891439117	 1.3713635322	 0.113692
H	-2.175920231	 0.0048251209	 0.5018412619	 0.10618
H	-1.9996077671	-2.4140420593	-3.1924682303	 0.232304
H	-0.3128622834	-3.9475568182	 0.4553866231	 0.149025
H	-0.0248617972	-2.6322145562	 1.7045879056	 0.123782
H	-2.3698747342	-2.3921686516	 1.8838162615	 0.241385
81.9474	119.3267	141.8487	213.7491	235.7834	296.8416	356.5781	421.2751	465.551	573.2822	603.4223	685.034	752.6119	847.453	856.006	872.445	936.9814	955.6428	982.6876	989.7881	1020.6611	1034.1664	1089.003	1117.0384	1133.2822	1202.6778	1220.9237	1257.019	1268.6367	1292.4868	1341.478	1399.3169	1427.3481	1433.8154	1493.0082	1510.0649	1836.6798	2990.8636	3059.0077	3074.0966	3110.286	3204.0929	3486.7236	3493.7511	3798.2572
OCC1OC(=N)C11CN1	OC[C@H]1O[C]([NH])[C@]21CN2	
InChI=1S/C5H8N2O2/c6-4-5(2-7-5)3(1-8)9-4/h3,6-8H,1-2H2	InChI=1S/C5H8N2O2/c6-4-5(2-7-5)3(1-8)9-4/h3,6-8H,1-2H2/t3-,5-/m1/s1
