18
gdb 64681	4.83062	0.86054	0.81917	1.5819	85.58	-0.2469	0.0253	0.2722	1416.3695	0.144127	-364.72057	-364.710777	-364.709833	-364.755202	36.426	
C	-0.1105315771	 1.7258818641	 0.1841126599	-0.447137
C	-0.0962206602	 0.2168095278	 0.0947109249	 0.326816
C	-1.383872769	-0.4191187173	-0.4355747522	-0.433054
C	-1.6492667864	-0.0917604179	-1.8336598045	 0.316871
C	-1.8493561718	 0.1808425362	-2.9868537858	-0.447335
N	 1.1826805833	-0.3764599189	-0.3016533687	-0.34181
C	 0.6870056977	-0.6012588189	 1.0822862855	-0.323044
C	 1.4315148531	-0.0243709068	 2.1670203394	 0.377674
C	 2.0290040337	 0.444745108	 3.0990512134	-0.427164
H	 0.8477556277	 2.0943419799	 0.5521147824	 0.1422
H	-0.2970351206	 2.1583935655	-0.8034774573	 0.134188
H	-0.9000391412	 2.0666864365	 0.8627606809	 0.116156
H	-1.3274804395	-1.5095635766	-0.3223083739	 0.126428
H	-2.2289092678	-0.0910769006	 0.1840102234	 0.139862
H	-2.0326168252	 0.4197122726	-4.0052224776	 0.200904
H	 1.0361840946	-1.2180545735	-0.8553999898	 0.235278
H	 0.2771135507	-1.5857320534	 1.3020634223	 0.10564
H	 2.5657161481	 0.8618657331	 3.9148622577	 0.197528
52.5261	97.1218	139.6532	174.6736	190.9904	305.3841	329.1646	345.0137	379.1813	389.7055	445.4608	554.2037	608.3494	628.2084	636.2208	649.0644	658.6347	731.1976	818.8591	887.8755	920.0504	943.6029	957.5739	1004.6392	1076.8329	1083.9693	1119.3213	1198.7595	1211.2102	1266.6089	1340.8558	1365.4972	1421.6881	1435.5892	1461.7228	1486.9285	1496.252	2238.7066	2239.5793	3015.3918	3041.8152	3049.6461	3107.0778	3114.9416	3146.1301	3489.8867	3503.5852	3505.1059
CC1(CC#C)NC1C#C	C[C@@]1(CC#C)N[C@H]1C#C	
InChI=1S/C8H9N/c1-4-6-8(3)7(5-2)9-8/h1-2,7,9H,6H2,3H3	InChI=1S/C8H9N/c1-4-6-8(3)7(5-2)9-8/h1-2,7,9H,6H2,3H3/t7-,8-/m0/s1
