17
gdb 45788	2.88136	1.41581	1.06241	1.9147	75.11	-0.2464	-0.0226	0.2238	1118.9525	0.135951	-421.839165	-421.831476	-421.830531	-421.871721	29.655	
O	-0.0482936452	-0.1049101937	 0.0735263428	-0.302888
C	-0.0497607138	 1.0958639431	-0.0448723961	 0.375426
C	-1.3418715228	 1.9073383722	-0.0783283654	-0.363368
C	-1.2494780037	 3.1484192226	-0.9271567732	-0.082988
C	-0.1201119241	 3.5826438692	-1.4867794449	-0.109488
C	 1.181117513	 2.8951585212	-1.3086468589	 0.39547
C	 2.0984237442	 2.7437319624	-2.4560751738	-0.230735
O	 2.3472557999	 3.723379189	-1.4497240996	-0.284415
C	 1.2302916381	 1.914073205	-0.1470273975	-0.390953
H	-2.1496344373	 1.2470988241	-0.4123076054	 0.13884
H	-1.5911818272	 2.1780398345	 0.9597840926	 0.140967
H	-2.1760671398	 3.6905452893	-1.0947920837	 0.105337
H	-0.1050508455	 4.474739035	-2.105800214	 0.105119
H	 2.7883098089	 1.9007566842	-2.4764223048	 0.121613
H	 1.8137041807	 3.135303071	-3.4318755405	 0.116672
H	 1.3173972564	 2.5041012772	 0.776587341	 0.136687
H	 2.0887699883	 1.2434176235	-0.2059030685	 0.128704
82.901	85.4207	266.0144	314.6256	366.2053	397.8909	412.5911	488.9728	522.3523	572.3084	647.0903	734.7421	779.8557	814.5424	865.3925	920.8677	935.2841	950.0961	966.5751	1001.9318	1034.9491	1119.1858	1130.6884	1156.9386	1172.5668	1208.3117	1231.2684	1281.958	1301.811	1332.2427	1365.9521	1431.6973	1442.913	1463.7623	1525.5245	1717.4893	1827.0319	2997.3634	3019.9704	3070.2582	3079.348	3124.6993	3161.1385	3168.2024	3184.7293
O=C1CC=CC2(CO2)C1	O=C1CC=C[C@]2(CO2)C1	
InChI=1S/C7H8O2/c8-6-2-1-3-7(4-6)5-9-7/h1,3H,2,4-5H2	InChI=1S/C7H8O2/c8-6-2-1-3-7(4-6)5-9-7/h1,3H,2,4-5H2/t7-/m1/s1
