17
gdb 125940	4.53112	1.20842	0.98761	4.7135	73.74	-0.2866	-0.0401	0.2465	1169.5861	0.137561	-417.984338	-417.977038	-417.976093	-418.01616	28.37	
C	-0.7520785057	 1.2467660407	-0.0228545108	-0.40634
C	 0.1996608275	 0.0547492322	 0.0137397363	 0.028845
C	 1.1940174452	-0.0016820747	-1.1993920499	-0.358544
C	 2.3630921278	-0.7178867415	-0.6007900484	 0.33354
N	 3.4315921793	-1.3399020697	-0.9936510174	-0.205449
O	 4.0445288717	-1.7431484213	 0.181104508	-0.161374
N	 3.3248895204	-1.354688261	 1.298943994	-0.205449
C	 2.2971093724	-0.7270535602	 0.8165768213	 0.333541
C	 1.0770444804	-0.0179413112	 1.3131750328	-0.358544
H	-0.1982844997	 2.1921091734	 0.0090532379	 0.120914
H	-1.3561564161	 1.2432982184	-0.9358165839	 0.123365
H	-1.4383703151	 1.2318622601	 0.8299076184	 0.123365
H	-0.3901016235	-0.8692606378	-0.0196943919	 0.097384
H	 0.7630745432	-0.4991513981	-2.0711532233	 0.1362
H	 1.4851727101	 1.0096386699	-1.5110654662	 0.131173
H	 1.3373761344	 0.9890981504	 1.663574185	 0.131173
H	 0.5672770376	-0.5263612098	 2.1346383082	 0.136199
83.7155	232.5395	254.0509	277.0936	288.7549	405.2486	466.9285	505.8265	620.0571	682.6679	724.7877	775.4409	810.1143	826.2461	893.018	895.7179	922.0654	937.4992	1038.1512	1067.9307	1112.0491	1129.7178	1152.5244	1213.3227	1233.5071	1274.5792	1285.8655	1345.862	1370.5258	1410.0433	1420.6646	1474.7875	1482.8574	1495.9221	1500.4093	1566.5015	1663.1568	3026.0622	3029.4033	3032.1008	3039.8041	3097.3467	3104.4804	3104.837	3108.1208
CC1CC2=NON=C2C1	C[C@H]1Cc2nonc2C1	
InChI=1S/C6H8N2O/c1-4-2-5-6(3-4)8-9-7-5/h4H,2-3H2,1H3	InChI=1S/C6H8N2O/c1-4-2-5-6(3-4)8-9-7-5/h4H,2-3H2,1H3
