17
gdb 24397	3.5922	1.58626	1.12882	3.8275	81.54	-0.189	0.0002	0.1892	1042.8304	0.14056	-380.931257	-380.924459	-380.923515	-380.962283	27.411	
C	-0.0187593201	 1.4867141224	 0.1011679751	-0.25645
C	 1.3719903741	 2.1565178728	-0.0383877803	-0.340915
C	 2.1594665638	 1.4077866509	-1.0626531216	 0.263342
C	 1.9794666112	 0.0748001581	-1.3466560142	 0.246866
C	 0.9280988531	-0.6852729939	-0.6936995261	-0.146915
C	 0.0082647971	-0.0291576686	 0.0281645483	-0.088829
N	 2.9273212652	-0.3697272493	-2.245148872	-0.3298
C	 3.6703913304	 0.6818835825	-2.4985431216	-0.012525
N	 3.253446252	 1.7875380967	-1.799594158	-0.34591
H	-0.4873030197	 1.8174463922	 1.0333926581	 0.103547
H	-0.6675982917	 1.8544625147	-0.7096039332	 0.115346
H	 1.2483589196	 3.2154625284	-0.2915626123	 0.103154
H	 1.8995487331	 2.1275519291	 0.9280346752	 0.115252
H	 0.9175118399	-1.7647542838	-0.7998803998	 0.096032
H	-0.7949359216	-0.5665321624	 0.522312003	 0.088923
H	 4.5104014269	 0.7186299321	-3.1758957127	 0.126459
H	 3.6656326368	 2.7050928983	-1.8357892379	 0.262423
138.7443	205.4562	252.8972	385.0477	424.6037	498.7281	520.6858	585.1465	655.4098	682.6045	699.1909	756.0468	784.7966	813.4383	867.2962	911.5325	962.5504	984.0139	1018.0366	1037.9306	1095.2458	1151.5582	1171.413	1197.1658	1232.3078	1264.3084	1292.8673	1340.6552	1358.4835	1392.2738	1420.8887	1462.5263	1470.034	1486.5437	1523.1473	1607.2581	1681.2693	2974.9862	2985.6578	3054.8061	3071.0499	3172.0263	3196.8559	3252.0136	3659.2229
C1CC2=C(C=C1)N=CN2	C1Cc2c(C=C1)nc[nH]2	
InChI=1S/C7H8N2/c1-2-4-7-6(3-1)8-5-9-7/h1,3,5H,2,4H2,(H,8,9)	InChI=1S/C7H8N2/c1-2-4-7-6(3-1)8-5-9-7/h1,3,5H,2,4H2,(H,8,9)
