15
gdb 29136	3.06169	1.46318	0.99614	2.8393	75.1	-0.2152	-0.0495	0.1658	1131.6601	0.113085	-453.982118	-453.974275	-453.973331	-454.014543	29.673	
C	 0.0338706035	 1.514713688	 0.2400388639	-0.467631
C	-0.0237874229	 0.0426121985	-0.0336895047	 0.24392
C	-1.1593010059	-0.6068399254	-0.3273091781	-0.034081
O	-1.1888121835	-1.952452908	-0.5735112522	-0.2278
C	-0.0373379591	-2.6986627551	-0.5269807079	 0.330856
N	-0.0165064801	-3.9454681679	-0.7457708982	-0.508146
C	 1.1718237974	-1.9137828012	-0.1987615743	 0.365796
O	 2.2991788398	-2.6282619966	-0.1511028227	-0.372782
N	 1.1854992124	-0.6510978628	 0.0298640479	-0.395402
H	 0.700593995	 2.0132939788	-0.4719596709	 0.137544
H	-0.9555902914	 1.9729702795	 0.1683868308	 0.123377
H	 0.4337117867	 1.7051452596	 1.242000523	 0.137544
H	-2.1427403197	-0.1644954579	-0.4011548104	 0.133135
H	-0.9564618081	-4.2876303227	-0.9530368198	 0.229214
H	 3.004066776	-2.0013976569	 0.0709601635	 0.304457
80.7675	170.7245	205.4256	286.0228	324.3257	337.5652	419.9889	474.3237	530.4016	574.3578	594.0708	613.2284	667.9755	791.2694	808.7904	816.8784	879.3631	982.6864	997.3663	1051.9826	1066.133	1174.4768	1204.9434	1275.1305	1305.5665	1380.3472	1418.4828	1456.4742	1470.873	1491.398	1649.989	1690.0146	1738.1384	3034.1885	3089.7054	3123.3628	3236.6082	3477.4745	3747.974
CC1=COC(=N)C(O)=N1	CC1=COC(=C(O)[N]1)[NH]	
InChI=1S/C5H6N2O2/c1-3-2-9-4(6)5(8)7-3/h2,6H,1H3,(H,7,8)	InChI=1S/C5H6N2O2/c1-3-2-9-4(6)5(8)7-3/h2,6H,1H3,(H,7,8)
