17
gdb 38516	2.6532	2.54307	2.38058	1.3202	75.17	-0.2122	-0.0354	0.1767	741.1877	0.139809	-384.622072	-384.616779	-384.615835	-384.651223	24.375	
C	-0.1415236116	 1.3315052072	-0.0793186043	-0.262229
C	 1.4807680507	 1.3539943007	-0.0719343014	 0.065852
O	 2.0142181463	 0.4041723003	-0.9839906503	-0.252521
C	 1.791012769	-0.9240826925	-0.3715801891	 0.032
C	 0.2841789958	-0.9632363472	-0.5413049168	-0.139406
C	-0.1619659877	-0.0936067725	 0.4140819828	 0.038958
C	 0.7289299222	-0.1600615472	 1.6437985854	-0.100636
C	 1.8434954124	 0.8030841712	 1.3202408344	-0.067915
C	 2.0352979857	-0.6890483842	 1.1182027551	-0.064741
H	-0.5239775852	 2.103923958	 0.5977089545	 0.097869
H	-0.5328545888	 1.4767896593	-1.0874626934	 0.113567
H	 1.8813375325	 2.3325772164	-0.3374689027	 0.090811
H	 2.4356482752	-1.6268182593	-0.8985097687	 0.08041
H	-0.1000206815	-0.9430787023	-1.5581179127	 0.100525
H	 0.353609132	-0.345166149	 2.6424607214	 0.087699
H	 2.4051037111	 1.3735926692	 2.0492006373	 0.089342
H	 2.7473750518	-1.2701589781	 1.6891560584	 0.090413
399.4898	460.2666	504.4781	550.6462	610.0293	661.5635	714.7389	739.9195	772.7101	783.5758	815.3003	821.2147	847.0506	891.0828	903.7286	916.9536	936.4568	949.839	994.4441	1011.3012	1029.9543	1042.4802	1072.2145	1075.201	1083.1307	1120.7985	1180.9814	1240.9779	1250.7405	1260.0983	1278.9016	1298.5661	1305.8781	1335.2013	1358.3149	1481.0036	1517.3541	3039.5098	3120.5367	3122.5362	3130.5276	3156.9385	3185.6921	3191.6527	3205.2746
C1C2OC3C=C1C1C2C31	C1[C@@H]2O[C@@H]3[CH][C]1[C@@H]1[C@H]2[C@H]31	
InChI=1S/C8H8O/c1-3-2-5-8-6(3)7(8)4(1)9-5/h1,4-8H,2H2	InChI=1S/C8H8O/c1-3-2-5-8-6(3)7(8)4(1)9-5/h1,4-8H,2H2/t4-,5+,6+,7-,8+/m1/s1
