23
gdb 61049	2.23558	1.27889	0.91866	2.5839	86.18	-0.245	-0.0203	0.2247	1358.2892	0.204188	-388.298129	-388.288033	-388.287089	-388.333389	37.308	
C	-0.0928754383	 1.5196007142	 0.0207067625	-0.416546
C	 0.0558452314	-0.0051680059	-0.1089141159	-0.091099
C	 0.9181958952	-0.3405516437	-1.3096674787	 0.167094
O	 0.6572743995	-1.1569554951	-2.1564289262	-0.254573
C	 0.7085708014	-0.6093702718	 1.144337451	 0.044795
C	-0.0052686606	-0.4627756266	 2.5176438709	-0.245367
C	 0.4950648925	-1.8867813856	 2.8799207604	-0.226875
C	 0.7501760449	-2.1609837013	 1.3673925928	-0.003544
C	-0.3601749273	-2.9676890927	 0.6958086966	-0.408973
H	 0.8850060393	 2.0051953129	 0.1181618145	 0.119843
H	-0.5964979923	 1.9482788912	-0.8512116915	 0.124844
H	-0.6795410707	 1.7733530754	 0.9080436037	 0.130284
H	-0.924824638	-0.4626039672	-0.2735298639	 0.092719
H	 1.875377346	 0.235218479	-1.351284751	 0.069378
H	 1.7290621422	-0.2132548527	 1.2302346224	 0.069706
H	 0.3012160589	 0.3648982825	 3.1613882799	 0.097782
H	-1.0935328571	-0.4279325016	 2.4066616112	 0.103034
H	 1.4216981848	-1.8589637743	 3.4596465557	 0.099297
H	-0.2112185129	-2.550728138	 3.3852841999	 0.0962
H	 1.7160369952	-2.6199068997	 1.1352835441	 0.06894
H	-1.3542640597	-2.5803937548	 0.9472076511	 0.109234
H	-0.2633606747	-2.9582805241	-0.3936322008	 0.143171
H	-0.3230857297	-4.0088087701	 1.0341479714	 0.11066
58.7467	80.821	129.0766	166.4831	217.2494	230.6801	279.5985	281.2832	311.8996	362.3926	403.9838	483.6959	534.6816	676.9729	770.3592	797.9278	889.1892	895.8416	915.8965	943.4584	949.4111	962.6481	995.2314	1025.443	1066.0927	1096.8217	1113.2933	1153.1667	1169.0814	1184.2595	1216.3966	1245.6147	1262.6166	1279.0937	1284.9909	1288.7107	1325.262	1367.2906	1383.2816	1404.6665	1415.5617	1429.0907	1481.2241	1497.0287	1499.3981	1500.0943	1501.9833	1507.0772	1827.0947	2833.0506	3011.7683	3029.169	3032.8449	3048.2121	3052.1254	3059.7579	3065.3487	3091.9475	3097.9495	3101.4093	3112.7691	3113.9426	3115.5962
CC(C=O)C1CCC1C	C[C@@H](C=O)[C@H]1CC[C@H]1C	
InChI=1S/C8H14O/c1-6-3-4-8(6)7(2)5-9/h5-8H,3-4H2,1-2H3	InChI=1S/C8H14O/c1-6-3-4-8(6)7(2)5-9/h5-8H,3-4H2,1-2H3/t6-,7+,8+/m1/s1
