16
gdb 49614	2.9121	1.55197	1.09885	5.978	70.5	-0.2489	-0.0318	0.2171	1065.8061	0.124936	-437.932045	-437.924426	-437.923482	-437.964555	28.481	
O	-0.2057539278	 0.0326095628	-0.0019147327	-0.267638
C	-0.0485177892	 1.2225355399	 0.0139387187	 0.155975
N	 1.1715141207	 1.893547311	-0.0222300987	-0.118378
C	 1.2350832221	 3.3368971497	-0.0161919326	-0.00731
C	 1.8090377156	 3.9822599175	 1.2197629027	-0.303319
C	 2.6923049358	 3.7193127423	 0.0196825448	-0.061422
C	 3.4905193341	 2.4322091321	-0.0214124725	-0.357357
C	 2.4587658958	 1.2946455482	 0.0109804544	 0.410924
O	 2.6876774457	 0.1200543787	 0.0697790402	-0.310531
H	-0.8869994801	 1.9475514954	 0.050322398	 0.083223
H	 0.5060248677	 3.8449079835	-0.6355389697	 0.119183
H	 1.5392805402	 5.0137284979	 1.4173104665	 0.128
H	 1.9256915954	 3.3630884395	 2.1038077688	 0.129693
H	 3.0403036817	 4.5683414025	-0.5546921761	 0.10857
H	 4.070630139	 2.3383950892	-0.9451335963	 0.144741
H	 4.1890064635	 2.3034014199	 0.8103252546	 0.145645
75.4737	135.9444	192.706	216.6059	311.9702	435.3026	462.4392	487.3877	574.6496	663.1452	703.6631	748.8677	809.5501	828.959	899.4298	981.6735	1000.8659	1026.6007	1053.3903	1066.8211	1074.08	1099.1198	1127.0045	1192.6404	1208.2288	1234.2159	1261.7846	1302.346	1360.6023	1409.7372	1451.9423	1459.0178	1482.0676	1804.8091	1881.4195	2924.0292	3060.8332	3100.9655	3130.643	3183.5632	3192.587	3223.6022
O=CN1C2CC2CC1=O	O=CN1[C@H]2C[C@H]2CC1=O	
InChI=1S/C6H7NO2/c8-3-7-5-1-4(5)2-6(7)9/h3-5H,1-2H2	InChI=1S/C6H7NO2/c8-3-7-5-1-4(5)2-6(7)9/h3-5H,1-2H2/t4-,5-/m0/s1
