17
gdb 35380	4.05672	1.28675	1.16356	1.7184	76.99	-0.2318	0.0459	0.2776	1065.7626	0.136461	-384.594896	-384.587827	-384.586883	-384.626447	28.591	
C	-0.0716194148	-1.2374169343	-0.0851712414	-0.46273
C	-0.0524679337	-0.0358359211	-0.0407602013	 0.319337
C	-0.0106473835	 1.4177211687	 0.0298701167	-0.200996
C	-0.5288575343	 2.01197984	 1.3945545737	-0.271227
C	 0.7062801616	 2.7783667926	 1.8432474897	-0.025903
C	 1.404564221	 3.428640935	 0.6125370459	 0.033401
O	 2.7299360493	 3.2269787632	 1.2116832318	-0.316838
C	 1.9917024724	 1.9815721682	 1.4701950532	 0.058828
C	 1.4151866821	 1.9880676529	 0.0256389532	-0.028651
H	-0.0948024733	-2.2979056922	-0.1320635947	 0.196381
H	-0.5851182112	 1.8291192364	-0.8085259598	 0.106703
H	-1.3975379112	 2.660543055	 1.2495932645	 0.109381
H	-0.8119283629	 1.2224782434	 2.0945379541	 0.12084
H	 0.6983331975	 3.3314522066	 2.7814516108	 0.082291
H	 1.2052163875	 4.3799008718	 0.1174046163	 0.091824
H	 2.502020983	 1.1848178029	 2.010788675	 0.097474
H	 2.0806388907	 1.7611548509	-0.8051953177	 0.089883
89.1428	150.8451	271.9719	350.2988	460.546	472.3139	547.0613	625.8624	627.3202	671.5759	715.5261	770.6398	788.5861	831.4119	888.5278	897.7981	902.7977	959.2674	970.7934	994.5002	1007.0426	1045.8975	1059.5599	1128.4676	1131.7129	1164.4507	1175.9652	1226.0723	1230.4975	1234.916	1266.6418	1270.4469	1306.5399	1338.6381	1369.9733	1494.7586	2234.237	3032.555	3062.1773	3108.7419	3110.4258	3121.7662	3138.3843	3149.0774	3503.9081
C#CC1CC2C3OC2C13	C#C[C@H]1C[C@@H]2[C@H]3O[C@@H]2[C@@H]13	
InChI=1S/C8H8O/c1-2-4-3-5-7-6(4)8(5)9-7/h1,4-8H,3H2	InChI=1S/C8H8O/c1-2-4-3-5-7-6(4)8(5)9-7/h1,4-8H,3H2/t4-,5-,6+,7-,8+/m0/s1
