19
gdb 8431	3.62402	1.72869	1.71644	1.3644	70.33	-0.2367	0.0797	0.3164	874.5749	0.166645	-365.053298	-365.045811	-365.044867	-365.084329	30.392	
C	 0.5713360778	 1.2927099673	 0.0159156626	-0.446595
C	-0.093756913	-0.0848126962	-0.0185366003	 0.407982
O	-1.5165133179	 0.0627980037	-0.0221734556	-0.480583
C	 0.3955142174	-0.9385755084	-1.2343761296	-0.267593
C	 1.4407312348	-1.8854587785	-0.6825407072	-0.027042
N	 2.4877551293	-1.2085595584	 0.1175869746	-0.338658
C	 1.357808575	-1.8837866218	 0.7984937434	-0.033035
C	 0.2594468838	-0.9373054448	 1.2333037705	-0.243176
H	 1.6569965261	 1.1878706196	 0.0671920797	 0.150807
H	 0.3249184275	 1.8632372478	-0.889434695	 0.092948
H	 0.2213967299	 1.8593864869	 0.8847313311	 0.112263
H	-1.7402085392	 0.7296703178	-0.6799624792	 0.270914
H	-0.4556454527	-1.5161868489	-1.6101072321	 0.103576
H	 0.7734313043	-0.3145287193	-2.0515568297	 0.093348
H	 1.7107572465	-2.7761809999	-1.2410393794	 0.082112
H	 3.3077730167	-1.8082912433	 0.1636533615	 0.228133
H	 1.5645359562	-2.773284144	 1.3849487746	 0.082324
H	 0.5431626636	-0.3105647816	 2.0842443162	 0.100532
H	-0.6287060361	-1.5105360881	 1.5182596141	 0.111745
141.8068	251.6643	281.1371	295.4946	358.7853	364.0988	386.4276	431.4428	457.4773	618.5442	641.178	779.1149	796.1407	846.8296	874.6932	923.2239	942.1993	955.4747	957.478	971.9252	1001.8347	1084.2415	1112.211	1124.3477	1131.7773	1165.4032	1182.3697	1204.987	1247.3064	1289.3519	1302.8611	1328.9082	1364.8454	1390.7625	1400.3046	1436.2149	1476.7163	1482.0813	1495.954	1509.0932	3016.9885	3039.644	3051.0623	3085.2387	3089.0567	3096.608	3138.1448	3154.0243	3165.3216	3499.8266	3806.2933
CC1(O)CC2NC2C1	C[C@@]1(O)C[C@H]2N[C@H]2C1	
InChI=1S/C6H11NO/c1-6(8)2-4-5(3-6)7-4/h4-5,7-8H,2-3H2,1H3	InChI=1S/C6H11NO/c1-6(8)2-4-5(3-6)7-4/h4-5,7-8H,2-3H2,1H3/t4-,5+,6-
