19
gdb 89906	5.2206	0.85883	0.81728	3.9976	77.15	-0.2634	0.0049	0.2683	1434.1659	0.157903	-423.020208	-423.011382	-423.010437	-423.054087	32.71	
C	-0.1136755281	 1.5967869588	 0.1995925254	-0.404636
C	 0.0205023357	 0.0857137988	 0.0670619205	 0.03673
C	 0.970792621	-0.4991675022	-1.0420262808	-0.326119
C	 1.7246749603	-1.2544903794	 0.0518946163	 0.436194
C	 2.2939900788	-0.3290259095	 1.0835482195	-0.33913
C	 0.822145168	-0.6882915774	 1.1307669546	-0.143518
O	 2.1407233883	-2.5834943713	-0.09699997	-0.231148
C	 3.4448261075	-2.796683377	-0.3933561912	 0.147219
O	 3.8861355992	-3.888731369	-0.5829618863	-0.269857
H	 0.8594875309	 2.0853145656	 0.3147048016	 0.115859
H	-0.5951825224	 2.0243365097	-0.686362057	 0.1194
H	-0.7228348443	 1.8608958927	 1.0706528206	 0.120151
H	-0.9726414679	-0.3602662525	-0.0396896182	 0.086637
H	 0.4480032018	-1.1702221467	-1.7260898525	 0.121726
H	 1.5587215145	 0.2188853044	-1.6236176815	 0.098714
H	 2.8851235544	-0.8147668066	 1.8535398123	 0.126785
H	 2.6354433436	 0.6685142757	 0.8187379029	 0.115143
H	 0.4053695509	-1.1854644598	 1.9979262514	 0.10266
H	 4.0308519379	-1.8603695745	-0.4276263478	 0.08719
62.4153	107.6084	142.7474	214.9971	232.8081	253.483	351.3526	390.8762	410.8961	515.4555	528.1093	659.4942	769.6637	804.7136	851.165	912.808	923.5098	971.9594	972.4358	1004.3364	1023.2903	1050.3336	1075.9626	1097.4273	1101.2394	1122.85	1169.4447	1185.7794	1229.1844	1246.9128	1261.665	1303.0296	1365.5244	1378.2219	1415.1683	1420.4752	1477.3916	1494.1124	1496.4851	1503.3383	1868.5195	2977.9824	3031.3815	3047.6452	3058.0093	3098.049	3101.2288	3114.2481	3119.9736	3190.8609	3205.0356
CC1CC2(CC12)OC=O	C[C@H]1C[C@]2(C[C@@H]12)OC=O	
InChI=1S/C7H10O2/c1-5-2-7(9-4-8)3-6(5)7/h4-6H,2-3H2,1H3	InChI=1S/C7H10O2/c1-5-2-7(9-4-8)3-6(5)7/h4-6H,2-3H2,1H3/t5-,6-,7+/m0/s1
