18
gdb 125684	3.01509	1.30082	0.98487	0.6368	78.78	-0.2328	0.0034	0.2363	1217.0128	0.149534	-398.133918	-398.125515	-398.124571	-398.167944	30.72	
C	-0.246771512	 1.508839963	-0.0460970789	-0.507828
C	-0.0316363631	 0.0314457549	 0.0116303083	 0.231231
N	-0.028089835	-0.7254224404	-1.0892184591	-0.260623
N	 0.1894076664	-1.9466072448	-0.6231426893	-0.082616
N	 0.3300980949	-2.0635409067	 0.6913064415	-0.294988
C	 0.1931799893	-0.8083666601	 1.129198097	 0.271072
C	 0.276426676	-0.446140386	 2.5557581744	-0.107964
C	-0.2500791778	-1.3896841411	 3.6201403308	-0.258016
C	 1.2285964614	-1.179889857	 3.480570645	-0.258012
H	 0.6112588484	 2.0570328065	 0.3583553495	 0.13301
H	-0.3942620317	 1.821737353	-1.0816126327	 0.144345
H	-1.1273518048	 1.8105018886	 0.5316733262	 0.132937
H	 0.2449369103	-2.7445461455	-1.2338683984	 0.288507
H	 0.1439673427	 0.6135184928	 2.7454228692	 0.083274
H	-0.7596929681	-0.9555392989	 4.4732299529	 0.111565
H	-0.6605845791	-2.3294889008	 3.2692849358	 0.131267
H	 1.8106402976	-1.9788798555	 3.0359530502	 0.131274
H	 1.7462642444	-0.600092942	 4.2367480376	 0.111566
38.2909	92.6772	156.9979	174.4571	271.8811	271.9958	433.3972	470.8052	477.1363	616.7516	715.3293	719.2525	758.7224	800.3216	824.682	917.616	920.1095	983.5475	1024.5586	1063.7246	1070.0166	1086.7514	1090.5219	1131.3306	1150.6522	1195.8169	1205.616	1225.4077	1255.4571	1357.1973	1392.1852	1414.9553	1460.8017	1462.3249	1484.8152	1488.3558	1493.1553	1545.4251	1565.3917	3035.2474	3085.7315	3134.0805	3135.8388	3138.8099	3166.1974	3221.227	3236.1478	3676.233
CC1=NNN=C1C1CC1	Cc1n[nH]nc1C1CC1	
InChI=1S/C6H9N3/c1-4-6(5-2-3-5)8-9-7-4/h5H,2-3H2,1H3,(H,7,8,9)	InChI=1S/C6H9N3/c1-4-6(5-2-3-5)8-9-7-4/h5H,2-3H2,1H3,(H,7,8,9)
