18
gdb 54696	3.45489	1.42103	1.22113	3.7117	74.8	-0.2281	-0.0165	0.2116	1058.3804	0.147184	-401.881744	-401.873829	-401.872885	-401.915103	29.955	
C	 0.1516187206	 1.4873746025	-0.0176825386	-0.483547
C	-0.0755370861	-0.0088849607	 0.1217804749	 0.369429
O	-0.3541960656	-0.5216467456	 1.180898054	-0.296407
C	 0.0536217266	-0.7984956989	-1.1720636915	-0.06125
C	 1.3689991387	-0.889640063	-1.9432583232	-0.116748
C	 2.1009152281	-2.1264988489	-1.3780423676	-0.085136
C	 1.1972123065	-2.6845921442	-0.2922084937	-0.180753
N	-0.0061530468	-2.3123156949	-1.1491350202	-0.179398
C	 0.9718467503	-2.2766915416	-2.3493821019	-0.026208
H	 1.1888803817	 1.6826116101	-0.3136038534	 0.144714
H	-0.4880295762	 1.9098555294	-0.8002581417	 0.13736
H	-0.0526721617	 1.9791575542	 0.934039238	 0.144762
H	-0.7440655227	-0.4503237917	-1.8420515738	 0.103482
H	 1.8852699485	-0.1397739298	-2.5298891826	 0.093621
H	 3.1601235862	-2.2687860616	-1.5541804762	 0.092861
H	 1.248483908	-3.7748514442	-0.2376983598	 0.109957
H	 1.1967225337	-2.2581446299	 0.7108896097	 0.130046
H	 0.82577607	-2.7730921112	-3.2976805923	 0.103217
36.1782	101.8411	156.3346	194.9351	348.9325	403.6923	454.0369	556.1821	607.2255	732.2008	770.1696	796.9648	808.6461	826.9515	856.4829	871.5676	920.6141	960.5005	999.1909	1005.5658	1026.1912	1031.6556	1043.1185	1056.8963	1086.8944	1119.4616	1165.7357	1180.1754	1205.0779	1222.7802	1265.6755	1292.4052	1359.3691	1369.4014	1379.3464	1462.2168	1474.8528	1520.6736	1809.9792	3020.0988	3036.8178	3072.9526	3097.4796	3143.4138	3152.3278	3185.5745	3192.0411	3225.4492
CC(=O)C1C2C3CN1C23	CC(=O)[C@H]1[C@H]2[C@H]3CN1[C@@H]23	
InChI=1S/C7H9NO/c1-3(9)6-5-4-2-8(6)7(4)5/h4-7H,2H2,1H3	InChI=1S/C7H9NO/c1-3(9)6-5-4-2-8(6)7(4)5/h4-7H,2H2,1H3/t4-,5-,6+,7-/m1/s1
