16
gdb 87553	2.65871	1.63063	1.19883	1.9607	70.54	-0.2421	-0.0281	0.2141	1022.6621	0.123128	-437.827932	-437.819985	-437.819041	-437.86042	30.126	
O	-0.0195179422	 1.4232894449	-0.0594424065	-0.424693
C	 0.0422231593	 0.0334696024	-0.0190468961	 0.078318
C	-0.3862304057	-0.7498037767	 1.1874904415	-0.402029
C	-1.2478734224	-0.7461754229	-0.0556935046	 0.164842
N	-2.5702586512	-0.0480818469	-0.0928659783	-0.17557
C	-2.8089687164	 0.192785438	-1.5213857185	-0.235018
C	-3.0928183783	-1.1722530326	-0.9921900936	-0.169393
C	-1.7882987573	-1.9194800316	-0.8280302657	 0.368802
O	-1.4156776781	-3.0356736112	-1.0506144818	-0.32178
H	-0.8665026481	 1.6989504908	 0.3116639221	 0.300013
H	 0.8820903591	-0.3305509893	-0.6013511188	 0.130009
H	 0.1293051537	-1.6761591694	 1.4197192303	 0.142801
H	-0.7783953629	-0.2033443517	 2.0394974898	 0.135697
H	-3.6741271585	 0.81835756	-1.7206666622	 0.136836
H	-1.9565572773	 0.3574232157	-2.174737608	 0.141638
H	-4.0950239739	-1.5742930296	-0.9048633697	 0.129526
116.3104	121.7762	174.7322	238.769	276.1585	323.2936	416.3489	462.1481	580.6506	620.7011	673.2741	721.3427	794.8149	813.661	839.9182	884.5725	930.2606	952.3438	1003.335	1028.2851	1041.6875	1067.4591	1100.8213	1115.4275	1136.4068	1151.1575	1196.2198	1209.7533	1290.616	1300.3742	1342.3452	1428.3239	1470.0407	1497.947	1888.5649	3115.5724	3127.5444	3174.4306	3195.0146	3209.2698	3223.296	3791.8858
OC1CC11N2CC2C1=O	O[C@H]1C[C@]21N1C[C@H]1C2=O	
InChI=1S/C6H7NO2/c8-4-1-6(4)5(9)3-2-7(3)6/h3-4,8H,1-2H2	InChI=1S/C6H7NO2/c8-4-1-6(4)5(9)3-2-7(3)6/h3-4,8H,1-2H2/t3-,4-,6+,7?/m0/s1
