19
gdb 100521	2.57819	1.12441	0.95613	2.9075	74.6	-0.2387	-0.0568	0.1819	1318.2618	0.156858	-456.358451	-456.347997	-456.347053	-456.394169	37.208	
C	 0.4456409243	 0.9431459775	-0.3598935408	-0.241657
O	-0.3324015596	 0.1395883611	 0.5029418805	-0.229758
C	 0.4080417308	-0.5838362357	 1.4540231957	 0.039143
C	-0.581306191	-1.124228909	 2.4927008937	-0.412782
C	 1.1696568054	-1.7463269396	 0.8072336246	 0.358011
O	 0.929341098	-2.1458121484	-0.3107147349	-0.325438
C	 2.2772613712	-2.4146312654	 1.6177163999	 0.266058
N	 2.7458324891	-3.5417550433	 1.0107129878	-0.53372
N	 2.6236724512	-1.8798912046	 2.7299430646	-0.510712
H	 1.0885133597	 0.3433274382	-1.0164202889	 0.11898
H	-0.2525111941	 1.5124448883	-0.9780644188	 0.127483
H	 1.0737815438	 1.6487696111	 0.2061310935	 0.102019
H	 1.1439886046	 0.0578857349	 1.9596332583	 0.104025
H	-0.0506380983	-1.6502759315	 3.2874131681	 0.143795
H	-1.1337779023	-0.2848136714	 2.9214781805	 0.129915
H	-1.2966573931	-1.8007754357	 2.0161699837	 0.130511
H	 2.4525850586	-3.6836727107	 0.0554049011	 0.272418
H	 3.6116711827	-3.9552024901	 1.3118388988	 0.253914
H	 3.3814402089	-2.3979776956	 3.1806408925	 0.207796
61.1782	69.3379	119.128	174.4493	205.1166	210.7037	217.2375	286.2334	329.5081	355.4954	402.0415	433.8235	509.79	516.3024	553.9843	621.6653	764.3548	805.8957	880.498	885.74	1027.6665	1035.8802	1086.968	1103.3808	1138.9456	1150.0224	1169.0411	1183.0071	1245.5293	1318.3002	1362.582	1393.4538	1429.7912	1478.4803	1488.4953	1491.0476	1499.0784	1510.5711	1598.8702	1714.6556	1794.0548	2982.3616	3010.809	3052.1207	3053.2343	3117.5836	3126.9797	3154.2436	3440.7798	3578.7999	3713.4567
COC(C)C(=O)C(N)=N	CO[C@@H](C)C(=O)C(=N)N	
InChI=1S/C5H10N2O2/c1-3(9-2)4(8)5(6)7/h3H,1-2H3,(H3,6,7)	InChI=1S/C5H10N2O2/c1-3(9-2)4(8)5(6)7/h3H,1-2H3,(H3,6,7)/t3-/m0/s1
