19
gdb 47568	2.54125	1.57645	1.08573	3.1077	75.36	-0.2319	-0.0216	0.2102	1119.1293	0.160896	-423.02599	-423.018165	-423.017221	-423.058466	30.537	
O	-0.0530848528	-0.0801476653	 0.2079294523	-0.292578
C	 0.0066428487	 1.1162112546	 0.0473771731	 0.377072
C	-1.2862130951	 1.957119487	-0.0089763228	-0.16979
O	-1.4821217054	 2.7524342438	-1.1608882954	-0.236606
C	-0.5389570878	 3.796453761	-1.3599097248	-0.105506
C	 0.6779601344	 3.3166838655	-2.1226732435	-0.00571
C	 2.0728503487	 3.7480963625	-1.7396948941	-0.319525
C	 1.6174660164	 2.336787946	-1.4620974538	-0.002753
C	 1.3372144777	 1.8594275346	-0.0422285683	-0.33489
H	-2.1250555229	 1.2597012611	 0.034636445	 0.130885
H	-1.3060207683	 2.5870675316	 0.9002393253	 0.096714
H	-1.0633120093	 4.5672713981	-1.9341423785	 0.113511
H	-0.253543349	 4.2443633245	-0.3957397972	 0.087195
H	 0.4928974492	 3.1518278551	-3.1798624023	 0.095735
H	 2.7964114901	 3.9183709654	-2.5291992561	 0.118927
H	 2.1811075067	 4.4148839143	-0.8891689323	 0.113252
H	 2.0138761261	 1.5610614473	-2.1096973277	 0.102926
H	 1.3054434695	 2.7148075115	 0.6428267956	 0.108282
H	 2.1252862733	 1.1843028314	 0.3011148656	 0.122861
76.2279	140.7623	241.6844	297.5696	323.0353	339.6984	420.7784	452.6592	497.2676	587.4485	630.2231	794.3599	807.636	839.3699	870.7322	890.0642	944.6899	949.32	1003.7169	1017.1423	1039.3234	1068.2816	1108.6945	1135.9802	1142.6891	1179.1575	1208.8403	1238.1776	1254.3149	1280.0138	1303.18	1322.696	1366.7792	1376.6973	1401.6403	1426.9133	1471.1917	1476.0863	1488.1163	1502.1355	1812.1121	2933.6452	2988.1416	3040.2385	3071.4257	3101.9898	3116.2967	3125.3818	3149.5974	3159.2856	3211.863
O=C1COCC2CC2C1	O=C1COC[C@H]2C[C@H]2C1	
InChI=1S/C7H10O2/c8-7-2-5-1-6(5)3-9-4-7/h5-6H,1-4H2	InChI=1S/C7H10O2/c8-7-2-5-1-6(5)3-9-4-7/h5-6H,1-4H2/t5-,6+/m0/s1
