18
gdb 80464	2.32911	1.64759	1.39023	4.2032	71.66	-0.2316	-0.0192	0.2124	1018.0851	0.147984	-439.083522	-439.07536	-439.074416	-439.116309	31.66	
C	 0.5951699535	 1.5210162441	 0.0603633926	-0.390522
C	 0.1632253138	 0.0574597539	 0.0391486596	-0.076527
N	 0.7324832996	-0.7230146685	-1.0790739442	-0.352282
C	 1.1428596343	-2.0446822386	-0.6002373157	-0.095859
C	 2.4760704988	-1.9694663599	 0.0618014233	 0.129697
O	 3.2303543037	-0.8220263743	-0.0972055861	-0.4232
C	 1.1879378341	-2.0022606762	 0.9197337342	-0.234917
C	 0.57867496	-0.700781341	 1.3162601378	 0.430813
O	 0.3626010809	-0.3081948437	 2.4352296917	-0.335188
H	 1.685337948	 1.5979639638	 0.1018204484	 0.131319
H	 0.2410295497	 2.0517536071	-0.8279312475	 0.112296
H	 0.1827588477	 2.0060696516	 0.949145148	 0.141497
H	-0.9372323658	 0.0064221756	 0.0251140737	 0.106793
H	 0.0937975779	-0.7978874708	-1.857752706	 0.236631
H	 0.8119496486	-2.9077688579	-1.1667099561	 0.101705
H	 3.0747676302	-2.8717734888	 0.1436449214	 0.112638
H	 2.7643840544	-0.3131693719	-0.7848170211	 0.29179
H	 1.0345738405	-2.8590658943	 1.563342636	 0.113316
70.7799	118.8964	221.7576	239.8546	269.7489	368.3102	432.6276	483.7698	529.9093	593.9949	638.6094	648.6954	686.4359	752.419	775.3307	816.4836	836.9039	927.4278	948.5668	965.3868	1043.9343	1057.7732	1073.1896	1086.5425	1112.5722	1143.5391	1179.7685	1209.4964	1259.0925	1302.1516	1328.0854	1342.5403	1384.3196	1397.8043	1423.1954	1460.0308	1490.9934	1498.3917	1833.1069	2977.2601	3044.906	3119.2646	3128.6128	3154.2276	3170.8528	3198.9691	3590.3829	3620.5918
CC1NC2C(O)C2C1=O	C[C@H]1N[C@H]2[C@@H](O)[C@H]2C1=O	
InChI=1S/C6H9NO2/c1-2-5(8)3-4(7-2)6(3)9/h2-4,6-7,9H,1H3	InChI=1S/C6H9NO2/c1-2-5(8)3-4(7-2)6(3)9/h2-4,6-7,9H,1H3/t2-,3-,4-,6+/m1/s1
