19
gdb 87779	3.89348	1.054	1.034	2.9354	76.36	-0.2502	0.0763	0.3265	1243.1243	0.157181	-422.975414	-422.966738	-422.965794	-423.008361	33.714	
C	-0.0755463533	 1.5113560317	-0.0630149287	-0.416099
C	-0.044011453	 0.0120752199	 0.0798052888	-0.03133
O	 1.2482480648	-0.6212443779	-0.0475255337	-0.304824
C	 0.5930238005	-0.6740918439	 1.2067998289	 0.469168
C	 1.2593501875	-0.1343516619	 2.4903026262	-0.397521
C	 0.8607281848	-1.4549072009	 3.1785535948	 0.401809
O	 1.677699882	-2.1458352402	 4.0522435059	-0.45989
C	-0.6197851022	-1.6805867307	 3.0969583389	-0.344046
C	 0.2480472377	-1.9825817308	 1.8851883941	-0.216032
H	 0.7232705986	 1.9766871753	 0.520124857	 0.127378
H	 0.051863286	 1.8021821608	-1.1111418046	 0.129415
H	-1.0371012177	 1.9086999517	 0.2804435896	 0.119188
H	-0.8380669545	-0.5234689212	-0.4448346018	 0.087206
H	 2.3411157794	-0.0689250886	 2.3504388827	 0.127898
H	 0.8835950274	 0.7985330737	 2.9244433894	 0.092289
H	 1.4647795715	-1.869825988	 4.9505257911	 0.28659
H	-0.9639228004	-2.5668079134	 3.6211943212	 0.11698
H	-1.3262650865	-0.853211564	 3.0837657582	 0.105151
H	 0.2976489474	-2.9654890518	 1.4345612619	 0.10667
98.6433	148.5367	197.065	213.3878	256.2544	323.7843	384.0136	400.8625	442.5278	451.1149	497.1693	539.458	672.8003	774.7913	795.0717	844.7514	887.2876	913.2553	951.1701	970.5614	994.9615	1012.1743	1040.1431	1073.581	1086.6976	1102.4862	1132.9043	1148.04	1183.271	1222.5623	1231.8054	1264.7517	1308.7455	1354.1738	1402.7823	1409.4759	1467.7058	1475.7926	1490.086	1498.4584	1533.1672	3034.6624	3041.4399	3084.9875	3097.8948	3102.1473	3114.5861	3124.3385	3197.7802	3205.6852	3794.6447
CC1OC11CC2(O)CC12	C[C@H]1O[C@]21C[C@@]1(O)C[C@@H]21	
InChI=1S/C7H10O2/c1-4-7(9-4)3-6(8)2-5(6)7/h4-5,8H,2-3H2,1H3	InChI=1S/C7H10O2/c1-4-7(9-4)3-6(8)2-5(6)7/h4-5,8H,2-3H2,1H3/t4-,5-,6+,7+/m1/s1
