17
gdb 106361	3.42723	1.26362	1.12686	2.7874	67.89	-0.2362	-0.0217	0.2145	1097.7493	0.135825	-458.950609	-458.942805	-458.941861	-458.983076	30.163	
O	 0.0178393949	 1.3930667867	 0.1569640227	-0.412922
C	 0.0248741137	-0.0087079044	-0.0393273119	-0.169785
C	-1.3773704245	-0.5560712698	-0.097550309	 0.385588
C	-1.7438800845	-2.0576428857	 0.0162225467	-0.301566
C	-2.9863219102	-1.4065451502	 0.668906838	-0.035245
O	-2.1242983311	-0.3313831232	 1.1626033514	-0.343637
C	-3.6305745142	-0.6867464957	-0.5316157897	 0.445057
O	-4.7713247378	-0.6724676584	-0.8959876606	-0.318894
C	-2.3821184846	 0.0036321249	-1.1254919752	-0.376368
H	-0.4664172052	 1.5581700175	 0.9744064458	 0.299138
H	 0.5377115383	-0.1947716915	-0.9891837011	 0.117897
H	 0.5821333294	-0.5286083395	 0.754664507	 0.09845
H	-1.8642413012	-2.6467630121	-0.8964105278	 0.113897
H	-1.1309896194	-2.5772971399	 0.7544819688	 0.122457
H	-3.6230964453	-1.8790841459	 1.4133094598	 0.102923
H	-2.4440668385	 1.0922509867	-1.0759363591	 0.146376
H	-2.20471032	-0.2986648795	-2.1614918757	 0.126635
93.2751	114.6782	190.136	276.0917	366.2755	408.698	447.5629	461.8417	520.2617	584.9255	630.1491	701.806	769.9263	810.3185	833.2599	878.2513	924.1293	962.0364	1005.9269	1023.7528	1048.7641	1059.9142	1099.7959	1151.4415	1172.2841	1190.6696	1213.1948	1244.4852	1255.3183	1265.2237	1335.1697	1390.0304	1431.4808	1452.4007	1486.7925	1492.0311	1886.4523	2993.2232	3067.2467	3073.0634	3076.8636	3132.1502	3140.3324	3158.1537	3800.3068
OCC12CC(O1)C(=O)C2	OC[C@@]12C[C@@H](O1)C(=O)C2	
InChI=1S/C6H8O3/c7-3-6-1-4(8)5(2-6)9-6/h5,7H,1-3H2	InChI=1S/C6H8O3/c7-3-6-1-4(8)5(2-6)9-6/h5,7H,1-3H2/t5-,6-/m1/s1
