17
gdb 124710	4.94686	1.05052	0.87121	8.9362	85.55	-0.1858	-0.025	0.1608	1295.2079	0.135865	-414.201678	-414.193374	-414.192429	-414.235069	30.836	
C	 0.0780066913	 1.4113810142	 0.1182465671	-0.495934
C	 0.0262259529	-0.0813846725	-0.012445806	 0.431344
N	 0.0611558125	-0.8746466008	 1.0425313033	-0.512021
N	-0.0571499296	-0.6324329524	-1.2186881711	-0.383976
H	-0.0828010682	-0.0184863309	-2.0167481587	 0.273343
C	-0.1122394854	-2.0192974401	-1.4714471938	 0.42517
C	-0.1997134076	-2.6875614584	-2.689510419	-0.357465
C	-0.2162540247	-4.0252185746	-2.273995947	-0.007738
N	-0.1451822114	-4.1363832233	-0.935045387	-0.260666
N	-0.0804808127	-2.8882662674	-0.4362027553	-0.325938
H	 1.0012697384	 1.7160021482	 0.6213044007	 0.164755
H	 0.0381133647	 1.9042042014	-0.8549712898	 0.144203
H	-0.7636415139	 1.768513796	 0.7202015042	 0.164734
H	 0.1240707885	-0.4711731372	 1.9622828045	 0.261467
H	 0.0157918635	-1.9393887198	 0.7926799249	 0.32509
H	-0.2429906914	-2.2792898796	-3.68734148	 0.070543
H	-0.2767644869	-4.9123687129	-2.8896838868	 0.083088
64.0749	108.1415	127.6414	182.2235	341.7725	356.0112	403.5657	457.841	517.4192	573.0385	642.1688	665.5873	698.0035	723.7328	804.0116	855.9079	933.29	952.5939	1016.4703	1016.91	1043.909	1056.927	1058.5755	1143.4166	1179.3306	1201.7841	1296.099	1332.1472	1383.3428	1399.9873	1421.9712	1457.8429	1471.2312	1485.4957	1539.2619	1613.6642	1708.142	2330.1804	3045.6029	3107.384	3137.7948	3221.6175	3248.584	3650.1304	3662.9627
CC(N)=[NH+]C1=CC=N[N-]1	CC(=[NH2])Nc1ccnn1	
InChI=1S/C5H7N4/c1-4(6)8-5-2-3-7-9-5/h2-3H,1H3,(H2-,6,7,8,9)/q-1/p+1	InChI=1S/C5H9N4/c1-4(6)8-5-2-3-7-9-5/h2-3H,6H2,1H3,(H2,7,8,9)
