23
gdb 50760	2.68715	1.09317	0.86514	2.9774	86.05	-0.2418	-0.0146	0.2273	1404.3352	0.207364	-388.319621	-388.310402	-388.309458	-388.354197	34.686	
O	-0.2890390722	 0.0305948748	 0.0954921771	-0.256337
C	-0.1062266249	 1.2179615401	 0.0140541003	 0.150536
C	 1.2462121874	 1.9009229253	 0.0032102188	-0.05291
C	 1.3564870643	 2.7676996589	-1.2740038732	-0.213005
C	 2.7860774313	 3.0250409061	-1.7873521634	-0.199247
C	 3.8637730048	 3.3226242423	-0.7260600667	-0.181695
C	 3.4133982306	 4.1570374872	 0.4863570968	-0.186414
C	 2.7550146414	 3.3212851607	 1.5965093105	-0.197005
C	 1.364119677	 2.7439895309	 1.2947455655	-0.200807
H	-0.96985903	 1.9236577614	-0.0592435025	 0.065809
H	 1.9979561485	 1.1032597699	 0.000280644	 0.089044
H	 0.7915133311	 2.2977027903	-2.0888765095	 0.103106
H	 0.8532284555	 3.7231827966	-1.0817048731	 0.100846
H	 3.1159829722	 2.1605784013	-2.3757099903	 0.102871
H	 2.7327020368	 3.8619944663	-2.4943457284	 0.098942
H	 4.2777863193	 2.378274894	-0.3499980472	 0.09728
H	 4.6971061944	 3.8270919066	-1.2281665193	 0.093421
H	 4.2942066246	 4.6460301435	 0.918647356	 0.095608
H	 2.7454192357	 4.9697996068	 0.1702108038	 0.091525
H	 3.4342323472	 2.4963769458	 1.8513333743	 0.099637
H	 2.6698012303	 3.9317751122	 2.5038795577	 0.094874
H	 0.6344013377	 3.5635221869	 1.2338286303	 0.097441
H	 1.0607270972	 2.1293418721	 2.1516377485	 0.106479
52.4339	81.8472	148.0378	169.3749	259.5536	279.9974	333.5695	341.4917	395.8133	474.7614	510.5544	561.5922	741.8424	769.5574	836.6166	845.023	873.0605	882.6884	962.3271	980.6519	1013.1698	1029.5794	1047.3226	1076.5977	1085.5185	1124.511	1136.6059	1198.9342	1222.7521	1227.6699	1267.4516	1275.2441	1308.4999	1321.6515	1332.8208	1366.8877	1378.072	1385.3073	1385.633	1400.1847	1406.7575	1429.3107	1480.2613	1483.3702	1486.8563	1492.0974	1500.5666	1509.2001	1833.2287	2831.2307	3006.8494	3011.0134	3013.1848	3016.6229	3019.2968	3029.353	3041.9562	3045.0521	3050.4761	3055.2428	3058.8374	3062.3479	3073.8332
O=CC1CCCCCC1	O=CC1CCCCCC1	
InChI=1S/C8H14O/c9-7-8-5-3-1-2-4-6-8/h7-8H,1-6H2	InChI=1S/C8H14O/c9-7-8-5-3-1-2-4-6-8/h7-8H,1-6H2
