19
gdb 86053	2.3309	1.50215	0.95155	3.5542	80.61	-0.2403	-0.0435	0.1968	1240.5025	0.157705	-423.079617	-423.070043	-423.069098	-423.114317	34.634	
C	 0.0558463963	 1.5090943801	 0.1190276433	-0.490467
C	 0.0764495014	 0.0213769284	-0.0050458145	 0.206151
C	-0.02220435	-0.7145095367	-1.1344945093	 0.117063
C	-0.1347778792	-0.2849552272	-2.563121849	-0.5058
C	 0.0869897921	-2.1396230655	-0.7757953627	 0.299143
O	 0.2893846956	-3.0884928054	-1.5067369326	-0.358609
C	-0.0225844663	-2.2619298772	 0.7475757125	 0.052276
O	 0.8583090339	-3.2326014942	 1.2556348091	-0.441297
C	 0.2545236054	-0.8344350843	 1.2360732208	-0.331559
H	 0.9677687616	 1.8686194675	 0.6117571483	 0.140992
H	-0.0390075509	 2.0126620035	-0.8448762225	 0.132962
H	-0.7813187434	 1.8253507829	 0.7546005669	 0.140408
H	 0.1239146134	 0.7662470262	-2.7090424491	 0.123198
H	 0.5253168543	-0.8995341848	-3.1832659424	 0.150603
H	-1.1520119583	-0.4387207679	-2.9425727573	 0.138081
H	-1.0711416577	-2.524603081	 0.9750262216	 0.090187
H	 0.9635286019	-3.8799427367	 0.542957645	 0.290971
H	 1.2850785151	-0.7706781046	 1.6067630559	 0.135073
H	-0.3999768151	-0.511797613	 2.053197186	 0.110624
72.6066	80.5489	128.6202	141.0711	228.5579	267.1852	288.4064	302.1265	408.6389	429.4184	493.7862	546.3105	550.7595	582.4676	699.8774	796.0415	860.5213	925.6806	958.5226	1004.6667	1043.6749	1062.3133	1067.4448	1118.6832	1139.9892	1191.8346	1196.3913	1235.41	1297.034	1349.1679	1369.1196	1411.5678	1412.9031	1417.7653	1473.4353	1477.0072	1478.536	1482.5458	1490.3127	1694.2931	1796.1683	2943.4056	3023.0296	3034.9906	3036.06	3069.0416	3073.3945	3090.836	3124.2094	3131.0209	3727.2402
CC1=C(C)C(=O)C(O)C1	CC1=C(C)C(=O)[C@@H](O)C1	
InChI=1S/C7H10O2/c1-4-3-6(8)7(9)5(4)2/h6,8H,3H2,1-2H3	InChI=1S/C7H10O2/c1-4-3-6(8)7(9)5(4)2/h6,8H,3H2,1-2H3/t6-/m0/s1
