16
gdb 72832	2.73531	1.60502	1.29658	5.8412	63.97	-0.2525	-0.009	0.2435	993.1979	0.125423	-475.025801	-475.01802	-475.017075	-475.05881	28.827	
N	 0.1061919807	 1.4731394412	-0.111854806	-0.574666
C	 0.0092031908	 0.0367390968	 0.0124725369	 0.198314
C	 0.1986751788	-0.8944290555	-1.221227758	-0.122855
O	-1.1187451151	-1.4617082509	-1.0430120735	-0.283544
C	-1.3941519889	-0.5932522261	 0.0780123904	-0.042611
C	-1.4355252098	-1.4028810245	 1.3741761685	 0.441966
O	-2.3506339385	-2.0112338686	 1.840574027	-0.327781
O	-0.1972067267	-1.383160423	 1.9453663507	-0.224829
C	 0.6881815573	-0.4521472134	 1.3086681242	-0.109439
H	 1.0779421238	 1.7716787127	-0.1077798788	 0.236023
H	-0.2908929789	 1.7867322634	-0.9925493009	 0.239056
H	 0.283196846	-0.3606022583	-2.1766609138	 0.101268
H	 0.9875969735	-1.6536328894	-1.1588435111	 0.110401
H	-2.2818509415	 0.0281765628	-0.062355216	 0.109547
H	 1.6396235931	-0.9613202375	 1.1305731963	 0.121164
H	 0.8496013655	 0.3911406702	 1.9873779643	 0.127985
43.1421	124.8836	202.7832	245.767	316.2044	368.9692	383.2414	496.5833	583.0983	655.2586	691.4804	749.4841	848.2169	866.2988	884.8131	924.0403	954.7492	1000.2725	1024.6274	1060.8124	1072.6647	1127.3344	1153.0936	1175.9504	1195.7512	1255.1596	1278.8392	1305.2226	1341.1695	1355.2992	1418.5732	1512.1554	1522.1767	1662.0574	1890.7194	3009.201	3048.7359	3061.359	3090.3083	3099.6338	3487.3075	3566.9404
NC12COC1C(=O)OC2	N[C@]12CO[C@H]1C(=O)OC2	
InChI=1S/C5H7NO3/c6-5-1-8-3(5)4(7)9-2-5/h3H,1-2,6H2	InChI=1S/C5H7NO3/c6-5-1-8-3(5)4(7)9-2-5/h3H,1-2,6H2/t3-,5-/m0/s1
