18
gdb 39840	2.88382	1.75731	1.38803	3.1617	75.05	-0.2374	0.0679	0.3053	970.2173	0.149225	-401.884509	-401.877571	-401.876626	-401.915636	28.645	
C	-0.1169316563	 1.4689366191	-0.0004299167	-0.294616
C	 1.2478237617	 0.8327970884	-0.0022679863	-0.328752
C	 0.0088752023	-0.0327454527	 0.0068064168	 0.406067
C	-0.3238207039	-0.871247886	 1.2219697614	-0.164592
N	-1.7509488917	-1.2241165399	 1.3732398658	-0.320593
C	-0.8215565767	-2.1971456728	 0.7599121537	-0.079182
C	-0.8262816034	-2.1791138003	-0.7597071534	 0.044461
O	-1.7082351446	-1.2215374208	-1.3437286346	-0.237478
C	-0.3269094937	-0.8658345434	-1.2062441653	-0.076663
H	-0.4634442426	 1.9451059989	 0.9101378069	 0.119226
H	-0.4669333838	 1.9423372569	-0.911223932	 0.121421
H	 1.8344693911	 0.8706875676	-0.9146491653	 0.114216
H	 1.8396081389	 0.8758975953	 0.9064567547	 0.112008
H	 0.2835323414	-0.7589746161	 2.1159166507	 0.084391
H	-1.9158646575	-1.500998113	 2.3392693169	 0.229132
H	-0.5892618755	-3.1228602999	 1.2745915474	 0.086449
H	-0.6848467507	-3.1024005677	-1.3149330622	 0.093635
H	 0.2039458749	-0.7000597636	-2.1422454087	 0.09087
125.3037	207.5002	277.1081	314.6559	388.8716	469.023	567.2493	583.9519	706.5709	773.0053	795.8462	806.2359	846.9704	874.4947	878.1543	897.1093	933.0919	934.2071	959.2863	975.6915	982.7896	1039.9212	1061.9131	1064.9771	1079.3702	1101.2092	1144.5205	1160.3191	1187.5262	1227.1037	1256.2169	1287.2369	1293.4244	1332.5562	1376.0038	1417.0592	1439.4811	1469.1689	1503.7857	3122.2525	3124.7966	3136.0295	3142.4311	3149.6359	3176.1793	3204.192	3223.2707	3484.2998
C1CC11C2NC2C2OC12	C1CC21[C@H]1N[C@H]1[C@H]1O[C@@H]21	
InChI=1S/C7H9NO/c1-2-7(1)5-3(8-5)4-6(7)9-4/h3-6,8H,1-2H2	InChI=1S/C7H9NO/c1-2-7(1)5-3(8-5)4-6(7)9-4/h3-6,8H,1-2H2/t3-,4+,5-,6+/m0/s1
