12
gdb 133434	3.17107	1.4672	1.00309	1.3026	61.69	-0.2574	-0.0587	0.1988	1041.7817	0.077646	-510.066303	-510.059059	-510.058115	-510.098577	26.754	
F	 0.0346140456	 0.0761010067	-0.1870854513	-0.045167
C	-0.0609512702	 1.3786827367	-0.0252182456	 0.451736
N	-1.184489814	 1.8491350624	 0.3475334343	-0.207004
O	-1.2103492638	 3.2613221484	 0.50063355	-0.286877
C	-0.1246531288	 4.0590695604	 0.2693470829	 0.377748
N	-0.1805466245	 5.3127974693	 0.4146246118	-0.506859
C	 1.1642406816	 3.4298608625	-0.1675148108	 0.334001
N	 2.2432335978	 4.041572814	-0.4160323958	-0.501807
N	 1.0908964211	 2.0476061872	-0.2886331624	-0.410063
H	-1.1088906384	 5.6139356717	 0.7136233697	 0.245952
H	 2.093399897	 5.0413953311	-0.2698443903	 0.259859
H	 1.9172722566	 1.5441347396	-0.5791818024	 0.288481
77.4277	105.1711	301.9122	339.5081	373.507	419.9038	473.0288	516.7175	547.5768	594.3877	666.4235	688.5719	765.9861	807.5154	880.3771	924.071	936.7521	1055.5195	1101.5933	1140.8948	1277.675	1297.5211	1423.2867	1535.046	1731.5018	1746.7014	1758.6577	3485.9812	3493.6729	3615.9521
FC1=NOC(=N)C(=N)N1	FC1=NOC(=C([NH])N1)[NH]	
InChI=1S/C3H3FN4O/c4-3-7-1(5)2(6)9-8-3/h6H,(H2,5,7,8)	InChI=1S/C3H3FN4O/c4-3-7-1(5)2(6)9-8-3/h6H,(H2,5,7,8)
