15
gdb 24713	3.89404	1.55755	1.12857	1.3408	72.6	-0.2555	-0.046	0.2095	1004.7728	0.116285	-416.859656	-416.852988	-416.852044	-416.891804	24.721	
C	-0.033511309	 1.5208168869	 0.0895356572	-0.178399
O	 1.2996007322	 1.9260970984	-0.2422100932	-0.274236
C	 2.1126608541	 0.8132671823	-0.608579642	-0.165982
C	 1.2522302088	-0.3955676661	-0.367828714	 0.280781
N	 1.6039295791	-1.6656848435	-0.518966355	-0.325989
C	 0.6287434763	-2.5398893753	-0.2344676943	 0.061674
N	-0.6128190676	-2.2678608607	 0.1680412066	-0.252012
C	-0.9342801869	-0.974213815	 0.306758544	-0.08892
C	-0.0094617014	 0.0213891253	 0.0441790203	 0.195126
H	-0.2917741593	 1.9155431375	 1.0814348791	 0.1242
H	-0.7452897701	 1.9483001661	-0.6324522989	 0.120317
H	 2.4185368261	 0.8851928525	-1.6627092166	 0.126377
H	 3.0245245563	 0.7992406443	 0.0026176328	 0.131264
H	 0.8800390734	-3.5916732335	-0.3445714726	 0.123499
H	-1.949236422	-0.7577837593	 0.6338917567	 0.122301
32.9038	176.467	234.0254	399.0395	403.2027	524.4384	535.3338	628.2625	726.8515	764.2023	848.2159	884.9623	925.6219	933.1871	1006.4457	1022.9743	1066.8418	1088.8219	1130.0148	1175.4235	1195.3226	1218.7564	1243.3863	1286.4558	1296.6715	1354.2442	1389.305	1430.9721	1481.2787	1505.4189	1520.6155	1612.0809	1631.6506	2989.3182	2999.5125	3023.6508	3036.5602	3149.5341	3171.1805
C1OCC2=NC=NC=C12	C1OCc2ncncc12	
InChI=1S/C6H6N2O/c1-5-2-9-3-6(5)8-4-7-1/h1,4H,2-3H2	InChI=1S/C6H6N2O/c1-5-2-9-3-6(5)8-4-7-1/h1,4H,2-3H2
