16
gdb 133628	3.6445	0.92874	0.87893	3.4567	57.92	-0.2559	0.0744	0.3302	1307.9112	0.120482	-569.379214	-569.370742	-569.369798	-569.413927	29.97	
F	-0.0285031632	 0.0860281307	-0.0645402006	-0.066731
C	-0.0299772278	 1.420617301	 0.0114993451	 0.280079
F	 1.2472610363	 1.8312664666	-0.0947015578	-0.088423
F	-0.6882631149	 1.8869932552	-1.0638374549	-0.081245
C	-0.665672118	 1.9247099263	 1.2929764366	-0.351035
C	 0.0729804028	 1.4866300676	 2.5491779835	 0.160066
C	-0.5405953403	 1.8867742299	 3.9089852076	-0.306908
C	-0.5243638197	 0.371326358	 4.1930866532	-0.058914
O	-0.0962894782	 0.0824581552	 2.8447944206	-0.287951
H	-0.6772126843	 3.0185205891	 1.2382814936	 0.131292
H	-1.6999789643	 1.5701146656	 1.3202391344	 0.132416
H	 1.1376791506	 1.7380551167	 2.4558096712	 0.091533
H	 0.0769000773	 2.5146616336	 4.552159427	 0.116657
H	-1.5404144053	 2.3201471078	 3.8342281474	 0.113217
H	 0.2186536732	 0.0494626153	 4.9335922437	 0.106268
H	-1.4857667441	-0.0985728086	 4.4277446493	 0.10968
44.9676	73.6935	101.5721	149.3317	288.8746	313.969	365.0447	455.6763	535.5728	551.3034	653.3632	742.3689	821.3222	845.0391	875.2971	901.5058	967.334	1000.9194	1030.2083	1073.8645	1121.1766	1160.8124	1165.726	1187.2542	1219.1961	1259.5342	1271.7558	1288.497	1314.9652	1343.454	1376.21	1413.8582	1457.9985	1490.7741	1532.8347	3016.6978	3023.4203	3058.7447	3064.0474	3077.599	3113.9581	3135.729
FC(F)(F)CC1CCO1	FC(F)(F)C[C@H]1CCO1	
InChI=1S/C5H7F3O/c6-5(7,8)3-4-1-2-9-4/h4H,1-3H2	InChI=1S/C5H7F3O/c6-5(7,8)3-4-1-2-9-4/h4H,1-3H2/t4-/m1/s1
