21
gdb 36890	3.81832	1.0112	0.96275	2.3116	82.67	-0.2379	0.0654	0.3032	1321.9992	0.184018	-383.18669	-383.17844	-383.177496	-383.220273	31.908	
C	-0.0413672529	 1.4697806944	 0.410276039	-0.17993
C	 0.0309451033	 0.0161706218	 0.0044925177	 0.043744
C	-1.2090629541	-0.7221338612	-0.3338421609	-0.250497
N	-0.2313607401	-0.3922268993	-1.3863873703	-0.314369
N	 1.2294271029	 2.1327028337	 0.1473729126	-0.070033
C	 1.5636353765	 2.7659685631	-1.1088525677	-0.036363
C	 0.3808128263	 3.5189677542	-1.7507042806	-0.245482
C	 0.2122718427	 4.3358945034	-0.4316050798	-0.243695
C	 1.4064888078	 3.5650547651	 0.1677485206	-0.042063
H	-0.9075040216	 1.9362625872	-0.0880507694	 0.080325
H	-0.2215127011	 1.5399230081	 1.4905900454	 0.10865
H	 0.8533959736	-0.5294946115	 0.4610262577	 0.09951
H	-1.29653592	-1.7799723527	-0.103267797	 0.118466
H	-2.1497272623	-0.1766453299	-0.3049341834	 0.106381
H	-0.5642029095	 0.4069689757	-1.9217147592	 0.227371
H	 2.4604421561	 2.440899553	-1.6249662372	 0.095641
H	 0.7017271318	 4.1471999008	-2.5841345756	 0.110082
H	-0.4689058752	 2.9153807128	-2.0867668751	 0.092139
H	 0.4329383684	 5.3958133115	-0.5738043541	 0.10772
H	-0.7396367648	 4.2498459297	 0.1010322431	 0.100858
H	 2.1602812821	 3.98057946	 0.8285749243	 0.091546
59.0173	73.4401	145.5975	257.1014	275.1008	368.2418	383.4743	476.6869	544.1552	737.7535	774.8101	787.9158	810.287	831.2297	836.8049	903.6737	934.0415	943.9401	951.2006	958.3488	983.9099	1010.2088	1040.8505	1059.5558	1070.6061	1100.8668	1122.3513	1133.7481	1157.3267	1206.568	1217.8366	1223.0051	1249.3914	1251.1218	1275.6829	1280.6542	1287.6406	1311.248	1350.1109	1391.9013	1432.6925	1471.4902	1488.4295	1505.4586	1513.8514	2963.4648	3041.2664	3048.3114	3058.7042	3101.9424	3104.0395	3119.2422	3139.777	3160.0527	3174.2421	3188.6085	3485.5971
C(C1CN1)N1C2CCC12	C([C@H]1CN1)N1[C@H]2CC[C@@H]12	
InChI=1S/C7H12N2/c1-2-7-6(1)9(7)4-5-3-8-5/h5-8H,1-4H2	InChI=1S/C7H12N2/c1-2-7-6(1)9(7)4-5-3-8-5/h5-8H,1-4H2/t5-,6-,7+,9?/m1/s1
