20
gdb 102384	1.69085	1.50437	1.05453	2.119	74.83	-0.2789	0.0204	0.2993	1248.5821	0.168901	-440.292453	-440.281677	-440.280733	-440.328942	38.232	
C	 0.1552242903	 1.5866234431	 0.0887627173	-0.419793
C	 0.0144907506	 0.0658916614	-0.0241195347	-0.174971
C	-1.4466777727	-0.4644378758	-0.0048202015	 0.021181
C	-2.2251687191	-0.0173813586	 1.261942434	-0.091598
O	-1.5628354655	-0.343678205	 2.4633122747	-0.417372
C	-2.2385341096	-0.0424882105	-1.2738886957	-0.090224
O	-1.6313028247	-0.4677421347	-2.4731442769	-0.415457
C	-1.3963849385	-1.9356082335	 0.0062231107	 0.247838
N	-1.3775889652	-3.0925200328	 0.0148044299	-0.350089
H	 1.2117156341	 1.8593196321	 0.011132075	 0.126294
H	-0.3731978901	 2.1164568783	-0.7096025131	 0.124607
H	-0.2065995988	 1.9597910787	 1.0508779771	 0.1349
H	 0.4723796451	-0.2802274498	-0.9548770246	 0.124688
H	 0.5540499203	-0.4057773269	 0.8012918931	 0.120622
H	-2.3184411387	 1.0720020115	 1.2490699901	 0.12433
H	-3.2405973434	-0.4382628538	 1.228784363	 0.106674
H	-1.5674331746	-1.3030206685	 2.5587268482	 0.29895
H	-3.2733308226	-0.4057465955	-1.1904318642	 0.105647
H	-2.2739816072	 1.0494338077	-1.3185762139	 0.124577
H	-1.6886828098	-1.4293377974	-2.5153616085	 0.299198
28.9665	98.2132	105.9902	135.6408	170.1815	217.0181	254.8739	282.2155	298.4666	371.3373	378.5882	399.2269	437.8085	462.0909	570.1366	663.1494	707.3194	775.8163	845.655	946.228	988.0804	997.0847	1048.4694	1070.0457	1096.5712	1135.1768	1171.7453	1180.0767	1212.0961	1283.9013	1326.4083	1376.9578	1384.1702	1408.5305	1410.9552	1413.1904	1429.1839	1477.9403	1490.2401	1499.6041	1509.7032	1514.1937	2339.0876	2993.6989	3004.0692	3044.2762	3064.0964	3089.8245	3097.5004	3101.2352	3111.907	3123.6497	3797.2331	3799.2694
CCC(CO)(CO)C#N	CCC(CO)(CO)C#N	
InChI=1S/C6H11NO2/c1-2-6(3-7,4-8)5-9/h8-9H,2,4-5H2,1H3	InChI=1S/C6H11NO2/c1-2-6(3-7,4-8)5-9/h8-9H,2,4-5H2,1H3
