15
gdb 5782	6.02861	1.41429	1.24091	1.3152	66.14	-0.2336	0.0064	0.24	959.1107	0.120811	-362.678772	-362.672133	-362.671189	-362.710577	24.635	
C	-0.3011979852	 1.1465388665	-0.4544153251	-0.248338
C	 1.0365476498	 1.3058059449	 0.2155748103	-0.272441
C	 0.3915478034	-0.0562517414	 0.1604654211	-0.103347
C	-0.1524121034	-0.6976744425	 1.3713934767	 0.257988
C	-0.0571533027	-0.3458940528	 2.6788550678	-0.123177
O	-0.7534470303	-1.2588852487	 3.4256864718	-0.140378
C	-1.2300784632	-2.1332042973	 2.5136469574	 0.073407
N	-0.9172697282	-1.8658454712	 1.2903743484	-0.307354
H	-1.1738305406	 1.5325465082	 0.0600378166	 0.118874
H	-0.3521468497	 1.2015936294	-1.5359350207	 0.117516
H	 1.9110629408	 1.4742227168	-0.4023901329	 0.116928
H	 1.0652527741	 1.8224786485	 1.1686186697	 0.113033
H	 0.8072904321	-0.7635702402	-0.5502373349	 0.10342
H	 0.4275238296	 0.4449703775	 3.2233508874	 0.144598
H	-1.8149193965	-2.9573285677	 2.8915016065	 0.149271
35.9361	158.8036	190.9483	382.1562	441.7972	608.3737	642.4932	713.2279	761.4511	793.063	830.1267	848.7847	899.2442	928.0538	940.627	985.3564	1059.3649	1082.2955	1094.8346	1098.0301	1128.8723	1144.5257	1196.5296	1204.5009	1233.5471	1256.0397	1341.107	1412.7889	1468.0721	1502.2287	1562.1537	1631.6919	3136.2788	3140.6272	3157.2777	3215.2333	3231.756	3273.2468	3298.3809
C1CC1C1=COC=N1	C1CC1c1cocn1	
InChI=1S/C6H7NO/c1-2-5(1)6-3-8-4-7-6/h3-5H,1-2H2	InChI=1S/C6H7NO/c1-2-5(1)6-3-8-4-7-6/h3-5H,1-2H2
