19
gdb 108566	3.28502	1.39866	1.22019	2.4506	74.35	-0.2356	0.0681	0.3037	1069.545	0.160609	-422.987945	-422.980241	-422.979297	-423.02016	30.317	
O	-0.0991793246	 1.3160643529	-0.4415617459	-0.423975
C	-0.0706233981	-0.0261339085	 0.0324881641	-0.197747
C	-1.4808756545	-0.5376071815	 0.059083397	 0.353781
C	-2.4801461247	 0.1059546003	 1.0203421322	-0.151651
O	-3.4193245046	-0.9256499451	 1.3492466667	-0.265241
C	-3.2694777725	-1.9320911098	 0.3632030787	 0.08069
C	-3.5485320117	-1.3866973377	-1.0775149979	-0.262363
C	-2.0428018501	-1.1559786773	-1.2165098136	-0.106479
C	-1.7611911871	-2.0111841331	 0.0114964214	-0.152444
H	 0.7855201592	 1.6833959263	-0.3541763689	 0.287686
H	 0.54596882	-0.6675230145	-0.6175166196	 0.086355
H	 0.3591272547	-0.0738410001	 1.0461927319	 0.089769
H	-1.9923113388	 0.4427895295	 1.9429629674	 0.099112
H	-2.9943222861	 0.9661608888	 0.5737487315	 0.107821
H	-3.8062327915	-2.8224104033	 0.6874079619	 0.082853
H	-3.8932736501	-2.1805074816	-1.7462380973	 0.101361
H	-4.2267819984	-0.5303833642	-1.1493387886	 0.099512
H	-1.4820750851	-1.1009192214	-2.1424778808	 0.086159
H	-1.050058686	-2.8051430297	 0.1982951698	 0.0848
85.6461	152.973	221.6816	261.6673	326.5687	363.8371	413.8764	450.4228	639.9848	665.665	710.617	803.3014	847.3071	852.276	874.479	906.0992	957.0724	981.9459	991.5063	1001.4398	1022.7731	1053.2359	1066.6853	1098.5946	1100.4487	1118.1564	1177.2729	1201.8632	1210.5135	1231.0077	1232.4369	1267.6335	1289.1873	1296.814	1345.1863	1367.7874	1415.3416	1469.3473	1487.0853	1514.5523	1524.3402	2961.951	2991.2251	3017.8226	3043.8217	3053.9932	3098.1688	3130.8002	3176.781	3199.9463	3825.9835
OCC12COC3CC1C23	OC[C@@]12CO[C@H]3C[C@@H]1[C@@H]23	
InChI=1S/C7H10O2/c8-2-7-3-9-5-1-4(7)6(5)7/h4-6,8H,1-3H2	InChI=1S/C7H10O2/c8-2-7-3-9-5-1-4(7)6(5)7/h4-6,8H,1-3H2/t4-,5+,6-,7-/m1/s1
