19
gdb 26317	3.77935	1.02769	0.85632	1.8781	77.78	-0.199	0.0543	0.2533	1367.2355	0.159783	-419.263522	-419.254419	-419.253475	-419.297378	34.422	
C	-0.0008522752	 1.4497344272	-0.2322268249	-0.378796
C	-0.0190716205	-0.0590164023	 0.0755101528	-0.069279
C	 0.7584998762	-0.3769699258	 1.3578836547	-0.393603
C	-1.4282847182	-0.5768448807	 0.1228123863	 0.293407
C	-2.1060161281	-1.1648370783	 1.1532136557	-0.206528
N	-3.3796931551	-1.4415544513	 0.6570852534	-0.308314
C	-3.3873437385	-1.0086249545	-0.625621187	 0.441326
O	-4.4976585754	-1.1468278944	-1.3715646511	-0.426407
N	-2.2527043675	-0.4847441032	-0.997518611	-0.418002
H	 1.0256602555	 1.8069116814	-0.3677462342	 0.101193
H	-0.5673963521	 1.6625611905	-1.1418320347	 0.131281
H	-0.4531366619	 2.0170576416	 0.5891471239	 0.107829
H	 0.48145334	-0.5657768388	-0.7618919556	 0.085338
H	 0.7828648776	-1.4531146279	 1.5566926864	 0.111753
H	 1.7913394978	-0.0243344544	 1.279285029	 0.109101
H	 0.305699155	 0.118058572	 2.2248591096	 0.112051
H	-1.8299997227	-1.4157584254	 2.1624214015	 0.125061
H	-4.1452902516	-1.8785568914	 1.1399556915	 0.269376
H	-4.2843766052	-0.7779566044	-2.2377964864	 0.313211
50.5366	140.0435	180.369	238.4448	264.2251	291.3159	315.7175	378.1419	406.9456	425.3341	476.4397	502.6017	610.3887	674.7639	716.9915	737.7709	748.1775	884.8911	929.4337	966.7183	991.0323	1036.5158	1091.5256	1104.8704	1129.5736	1172.6937	1202.1965	1255.2951	1274.7378	1339.0057	1362.2372	1383.4592	1394.3454	1414.8354	1488.1235	1492.4899	1500.6281	1513.8777	1567.8998	1607.2536	1627.268	3000.3563	3026.8636	3031.0941	3091.631	3096.9949	3105.2091	3123.6805	3285.7832	3679.4972	3806.4288
CC(C)C1=CNC(O)=N1	CC(C)c1c[nH]c(O)n1	
InChI=1S/C6H10N2O/c1-4(2)5-3-7-6(9)8-5/h3-4H,1-2H3,(H2,7,8,9)	InChI=1S/C6H10N2O/c1-4(2)5-3-7-6(9)8-5/h3-4H,1-2H3,(H2,7,8,9)
