21
gdb 11621	5.02297	0.90751	0.85537	2.5345	76.41	-0.2432	0.0777	0.3209	1432.6234	0.1873	-366.23135	-366.221862	-366.220918	-366.266387	33.999	
C	-0.2762702242	 1.4747357166	 0.3944019499	-0.386784
C	-0.0469372304	 0.0223805163	-0.0087593326	 0.16373
C	 0.8920334136	-0.7025409117	 0.9608677017	-0.394328
O	-1.3333811277	-0.5857013632	-0.0623704186	-0.257324
C	-1.3947831363	-1.8190052995	-0.7463055676	-0.085325
C	-2.8404942475	-2.1749307624	-0.9651996447	 0.022991
C	-3.2435760455	-3.6026399528	-0.9978698193	-0.248224
N	-3.6396108855	-2.7435594597	 0.1290859807	-0.305352
H	 0.6689873204	 2.0252359939	 0.4132599325	 0.111016
H	-0.9534465032	 1.9634083181	-0.3107556128	 0.121574
H	-0.7264788704	 1.5249474709	 1.3908880113	 0.124037
H	 0.3975521483	-0.0048292731	-1.0191520115	 0.061891
H	 1.0762306995	-1.7365830667	 0.6551353818	 0.114425
H	 1.860656993	-0.1945510492	 1.0052547701	 0.115446
H	 0.4609165899	-0.7123841148	 1.96735971	 0.121864
H	-0.8741972032	-1.7439672184	-1.7171905097	 0.088204
H	-0.9020788093	-2.6245436073	-0.1751255404	 0.076675
H	-3.3884260705	-1.4599971619	-1.575006711	 0.097049
H	-4.0583668218	-3.9232572168	-1.6404351374	 0.11975
H	-2.4721967182	-4.3533029961	-0.8411298529	 0.108004
H	-3.040698531	-2.9210590422	 0.9325314503	 0.230682
44.8975	65.0956	110.6643	169.4431	207.3062	251.6931	278.0065	319.8062	391.5341	432.401	484.4657	519.8557	800.964	831.8679	842.6476	921.8221	927.0593	939.074	945.5048	956.6796	1019.7766	1063.966	1107.6088	1129.1971	1151.5979	1153.9808	1174.7722	1200.596	1213.9803	1251.7956	1282.4355	1313.9491	1354.5476	1369.0426	1392.4221	1397.9394	1414.536	1453.9407	1480.7944	1485.9068	1495.7061	1504.9777	1513.3891	1516.3445	2942.0291	2950.3	2974.1544	3036.5681	3042.9973	3106.3474	3107.3056	3111.6256	3116.5009	3123.5941	3136.7269	3190.8516	3492.3551
CC(C)OCC1CN1	CC(C)OC[C@H]1CN1	
InChI=1S/C6H13NO/c1-5(2)8-4-6-3-7-6/h5-7H,3-4H2,1-2H3	InChI=1S/C6H13NO/c1-5(2)8-4-6-3-7-6/h5-7H,3-4H2,1-2H3/t6-/m1/s1
