17
gdb 77440	2.41912	1.56495	1.23419	1.9875	71.12	-0.2401	0.0189	0.259	1061.8563	0.1351	-455.111389	-455.102639	-455.101695	-455.144261	33.368	
C	 0.07991972	 1.511618155	-0.0508170274	-0.496194
C	 0.0499194353	 0.0286953371	 0.0610543047	 0.369059
O	 0.5482765506	-0.7717616128	-1.0549106945	-0.304128
C	 1.1999572493	-1.6416705054	-0.1801903656	 0.396712
N	 1.9976680776	-2.5828927338	-0.4017340135	-0.569651
C	 0.6451907709	-0.9905847161	 1.0375041958	 0.045096
N	 1.142858293	-0.846260796	 2.3570136599	-0.617019
C	-0.8893976602	-0.8303960582	 0.838077517	 0.037127
O	-1.5175532718	-0.2569746615	 1.9296371455	-0.430286
H	 1.0991092839	 1.8938113235	-0.1616314067	 0.128592
H	-0.5039488915	 1.8327403687	-0.9200384822	 0.143608
H	-0.3750318545	 1.9466966571	 0.8423850314	 0.146609
H	 2.1553596983	-2.7127059821	-1.4021538167	 0.230851
H	 1.2844763913	-1.755030888	 2.7889932869	 0.258865
H	 2.0289968445	-0.3527068717	 2.3826036883	 0.252769
H	-1.4670157651	-1.6032870971	 0.3346418648	 0.113085
H	-0.8492510815	-0.2275507285	 2.6367199223	 0.294906
134.4885	155.7027	185.2881	215.8629	262.9903	273.253	296.3517	352.6163	434.353	537.1972	549.7162	581.1675	620.6489	664.1807	729.2485	771.9792	822.025	857.5431	869.924	946.6942	971.5452	1056.2348	1058.1631	1106.3629	1140.7525	1174.9462	1239.6063	1246.8071	1323.9782	1371.2848	1406.0625	1414.8458	1471.0099	1480.1525	1500.5635	1659.1887	1830.0148	3039.5743	3103.3218	3129.5869	3130.9352	3482.324	3498.3129	3572.1185	3633.2836
CC12OC(=N)C1(N)C2O	C[C@@]12O[C]([NH])[C@]1(N)[C@H]2O	
InChI=1S/C5H8N2O2/c1-4-2(8)5(4,7)3(6)9-4/h2,6,8H,7H2,1H3	InChI=1S/C5H8N2O2/c1-4-2(8)5(4,7)3(6)9-4/h2,6,8H,7H2,1H3/t2-,4-,5+/m0/s1
