14
gdb 14510	4.32343	1.86649	1.51758	1.3176	58.72	-0.2512	-0.0468	0.2044	809.0377	0.105955	-419.609318	-419.602682	-419.601737	-419.639994	25.674	
O	 0.0613659127	 1.4480074809	-0.0276018466	-0.487975
C	 0.0132627635	 0.0695720125	-0.0032103217	 0.362978
C	 0.986560817	-0.5207993581	-0.9926163728	 0.083846
O	 1.675323884	 0.207354312	-1.6730028672	-0.282297
C	-0.1042660737	-0.6757583449	 1.3793224659	-0.011631
C	-1.5307961146	-0.1020409278	 1.5467681039	-0.233208
C	-1.3813495339	-0.6537850089	 0.1096152451	-0.011648
O	-0.6728979695	-1.830137115	 0.6539843122	-0.310125
H	 0.7312143167	 1.6676973741	-0.6981426976	 0.297388
H	 1.0337345169	-1.6179484413	-1.0588067627	 0.131453
H	 0.6679742563	-0.874226728	 2.1227050995	 0.106946
H	-2.1838075703	-0.6891106051	 2.1934102805	 0.113486
H	-1.6360088035	 0.9752422843	 1.6712349571	 0.133839
H	-2.1323843014	-0.8260397348	-0.6615116258	 0.106948
114.9535	251.7077	257.5749	351.4502	404.3329	444.0065	540.8149	559.9224	615.9537	725.9891	823.7226	835.6628	878.6576	883.9095	914.4499	1005.8041	1021.3078	1072.551	1077.5405	1134.1085	1151.4141	1166.7314	1209.0717	1223.1694	1275.4009	1300.8391	1360.708	1446.003	1482.2332	1790.6353	3033.588	3088.2193	3120.2108	3126.3862	3171.5411	3648.2941
OC1(C=O)C2CC1O2	O[C@@]1(C=O)[C@H]2C[C@@H]1O2	
InChI=1S/C5H6O3/c6-2-5(7)3-1-4(5)8-3/h2-4,7H,1H2	InChI=1S/C5H6O3/c6-2-5(7)3-1-4(5)8-3/h2-4,7H,1H2/t3-,4+,5+
