21
gdb 104910	2.09163	1.44564	1.01332	2.0039	86.13	-0.2351	0.0553	0.2904	1272.1561	0.178382	-387.047623	-387.037003	-387.036059	-387.082474	39.968	
C	-0.0003320825	 1.5263191026	-0.3475862461	-0.377536
C	-0.029973136	 0.0914314231	 0.1891862488	-0.253046
C	-1.4221364407	-0.540004947	 0.1273566968	 0.078066
C	-1.8869754133	-1.1630027676	-1.1971382236	-0.38443
C	-1.5956683005	-2.0499835954	-0.0161559714	 0.349756
C	-0.4165875267	-2.9987334968	-0.0170137648	-0.44803
O	-2.6988510434	-2.5539556649	 0.6872661495	-0.451776
C	-2.4120271463	 0.158145652	 0.9069193801	 0.33242
C	-3.1903898888	 0.789777511	 1.571944765	-0.469307
H	 1.0084040234	 1.9446110091	-0.2785013297	 0.108643
H	-0.309216168	 1.5601056895	-1.3977701152	 0.114148
H	-0.6776982853	 2.1691888839	 0.2208471611	 0.134609
H	 0.6725368793	-0.5214657009	-0.3833692536	 0.093238
H	 0.3175779648	 0.0786938414	 1.2289786113	 0.108647
H	-2.926193629	-1.0212238601	-1.4693589057	 0.122992
H	-1.1820468643	-1.1429985219	-2.0227371863	 0.110652
H	 0.4349231505	-2.6157286116	-0.5825140774	 0.121152
H	-0.0934874159	-3.2106058183	 1.0067928253	 0.132228
H	-0.7125228106	-3.9490476189	-0.4785305357	 0.109544
H	-3.0737764982	-3.273822728	 0.1675438014	 0.281265
H	-3.8941690685	 1.3235029889	 2.16063856	 0.186764
87.4525	119.8858	147.7991	167.1529	204.3155	221.5257	244.5388	276.0348	324.387	374.3341	387.9226	410.3549	465.4699	546.7982	586.5009	602.6218	639.0351	653.5313	746.4128	797.0676	884.8502	903.5812	922.8344	976.3834	995.6673	1044.658	1052.9662	1078.1445	1103.368	1165.2413	1215.5233	1282.407	1294.0482	1324.2329	1360.6675	1389.4192	1411.1664	1419.7953	1466.8098	1484.5304	1490.0209	1496.8042	1500.7968	1509.6325	2232.3475	3029.1426	3037.3504	3038.992	3080.5948	3093.1185	3105.1961	3122.2994	3126.7698	3134.4627	3226.2593	3504.3489	3792.8958
CCC1(CC1(C)O)C#C	CC[C@]1(C[C@]1(C)O)C#C	
InChI=1S/C8H12O/c1-4-8(5-2)6-7(8,3)9/h1,9H,5-6H2,2-3H3	InChI=1S/C8H12O/c1-4-8(5-2)6-7(8,3)9/h1,9H,5-6H2,2-3H3/t7-,8-/m0/s1
