19
gdb 7521	3.34948	1.3727	1.29983	1.4204	77.46	-0.2249	0.0545	0.2794	1062.7905	0.162564	-327.865688	-327.856465	-327.855521	-327.899225	34.159	
C	-0.27068726	 1.434982329	 0.051589934	-0.315436
N	-0.0163355757	 0.0093529883	 0.1805963537	-0.095421
C	 1.2926264992	-0.5021811787	-0.2121389929	-0.300746
C	 0.8715644263	-0.5077461211	 1.2215512428	 0.329962
C	 1.5706723368	 0.4073944619	 2.2086137507	-0.464994
C	 0.3834841567	-1.830766445	 1.821106683	-0.396208
C	-0.5595801301	-1.6523296832	 2.9208284726	 0.316054
C	-1.331065056	-1.486696723	 3.8278736744	-0.461072
H	 0.615414146	 2.0760086716	 0.1784408063	 0.09844
H	-0.6788986104	 1.6259200545	-0.94618281	 0.124107
H	-1.022427505	 1.7364462791	 0.7876919589	 0.12835
H	 1.2950152047	-1.4156698973	-0.8034860082	 0.107592
H	 2.0595896956	 0.2192031429	-0.4952805149	 0.101659
H	 1.9442867635	 1.3180531732	 1.7368387163	 0.117991
H	 0.8953674061	 0.6877153453	 3.0230150673	 0.137198
H	 2.4283507609	-0.108609506	 2.6539318588	 0.120575
H	-0.0910136469	-2.4144912548	 1.0253158164	 0.135006
H	 1.2488591272	-2.4093677422	 2.1723757254	 0.123262
H	-2.0190808188	-1.3524599443	 4.6252018751	 0.193684
61.4936	125.6874	172.5692	187.2009	226.1599	282.6341	331.6989	349.5465	369.5942	444.579	464.2586	537.2039	612.6522	635.8431	716.2387	776.5734	882.1756	907.4774	938.4162	971.9818	1002.7974	1063.0625	1097.4065	1120.9285	1148.2843	1171.9254	1205.9149	1227.6066	1296.8921	1319.7264	1393.4217	1417.4317	1448.3809	1456.2029	1485.7352	1486.3169	1501.0954	1510.2892	1518.295	2235.7216	2979.1396	3016.8469	3040.8734	3067.2454	3072.0844	3079.1324	3099.9485	3103.585	3130.2814	3160.4938	3506.1075
CN1CC1(C)CC#C	CN1C[C@]1(C)CC#C	
InChI=1S/C7H11N/c1-4-5-7(2)6-8(7)3/h1H,5-6H2,2-3H3	InChI=1S/C7H11N/c1-4-5-7(2)6-8(7)3/h1H,5-6H2,2-3H3/t7-,8?/m0/s1
