21
gdb 111293	2.99108	1.22283	1.0324	2.2144	79.03	-0.2337	0.0742	0.3079	1240.2705	0.180632	-424.184177	-424.174542	-424.173598	-424.218327	36.144	
C	-0.1356119131	 1.31336484	 0.0300997735	-0.240219
O	 0.2586956326	-0.0365255462	 0.1378472083	-0.238148
C	 0.7430696566	-0.589599789	-1.0630672276	 0.125348
C	 1.4315039194	-1.9319785024	-0.8821470794	-0.187023
C	 0.4344838055	-2.94914055	-0.361030147	-0.31265
C	 0.3898160175	-2.5926665842	-1.8048513752	 0.409178
O	 0.525644813	-3.5939639823	-2.7480490888	-0.46078
C	-0.3094583985	-1.2519956074	-2.0522614155	-0.102785
C	-1.8029491188	-1.136345731	-1.7713690193	-0.413763
H	 0.6992959971	 1.9517160256	-0.2996258693	 0.103705
H	-0.9714991324	 1.4531013369	-0.6700441785	 0.107582
H	-0.454765982	 1.6378809691	 1.0237144935	 0.126622
H	 1.3746452386	 0.1444750181	-1.582835665	 0.060646
H	 2.4999181119	-2.0861150242	-0.7964583327	 0.086223
H	 0.8660857826	-3.9273486569	-0.1755477582	 0.117823
H	-0.3432114086	-2.6553086075	 0.3365524005	 0.12064
H	 0.8922806422	-3.2038376471	-3.5497417722	 0.281166
H	-0.0931549771	-0.9129075201	-3.0735555212	 0.056846
H	-2.0214723065	-1.2921457867	-0.7118516347	 0.128735
H	-2.1897543266	-0.1506925475	-2.0502624855	 0.110608
H	-2.3582244533	-1.8848660772	-2.3468254056	 0.120247
92.3923	114.3789	156.0706	178.8213	213.6443	228.4865	265.7026	330.0884	358.5902	380.8171	478.6519	526.3085	579.6664	672.3061	695.5365	790.2288	842.1744	924.6258	926.8344	948.4234	984.0739	1015.7502	1049.0931	1083.7438	1092.0677	1108.5637	1121.8827	1152.0226	1181.7677	1192.8675	1209.2407	1228.5082	1271.2914	1293.28	1325.3729	1364.6718	1391.3117	1405.0204	1434.0112	1479.0264	1484.5151	1493.4807	1497.6369	1506.4056	1513.3179	2976.2331	2994.9473	3021.5867	3029.4227	3036.5311	3095.6179	3112.2319	3118.1283	3128.4409	3189.0957	3215.1623	3788.3496
COC1C2CC2(O)C1C	CO[C@H]1[C@H]2C[C@@]2(O)[C@H]1C	
InChI=1S/C7H12O2/c1-4-6(9-2)5-3-7(4,5)8/h4-6,8H,3H2,1-2H3	InChI=1S/C7H12O2/c1-4-6(9-2)5-3-7(4,5)8/h4-6,8H,3H2,1-2H3/t4-,5+,6+,7+/m0/s1
