16
gdb 105303	2.81896	1.19579	0.98667	2.5784	67.85	-0.2618	-0.0575	0.2043	1187.8919	0.121939	-475.014904	-475.005832	-475.004888	-475.049219	31.913	
O	-0.060855121	 1.1983764474	 0.5780981896	-0.421165
C	-0.1262654869	-0.1547486219	 0.1780308514	-0.151677
C	-1.5547090844	-0.6053405453	-0.0704113716	 0.163797
C	-1.9579305364	-2.0386336419	 0.2153499253	-0.281827
N	-2.4318935122	-0.9710663414	 1.0443084993	-0.096792
C	-2.0973706046	-0.8071419412	 2.3898566987	 0.138133
O	-2.0466031476	-1.7094231268	 3.184940827	-0.275389
C	-2.2832890295	 0.1313841018	-1.1515849814	 0.13719
O	-1.7853745773	 1.023070654	-1.7960615542	-0.266484
H	-0.3362839206	 1.719935555	-0.1861298701	 0.302787
H	 0.4619459382	-0.3403458894	-0.7321530483	 0.115327
H	 0.3122487574	-0.749009324	 0.9861971427	 0.125613
H	-2.6964774673	-2.5302597425	-0.4125791047	 0.137453
H	-1.1852478355	-2.6867959077	 0.6224206861	 0.151278
H	-1.9477978059	 0.2561193477	 2.6430977063	 0.118391
H	-3.3353281463	-0.1890353639	-1.3049740662	 0.103365
81.0245	86.6871	125.8368	186.5572	202.215	253.9737	306.0817	355.1215	361.7864	494.0753	509.6188	535.3941	649.0278	819.2282	851.5739	910.1093	934.5859	993.101	1032.1083	1052.7169	1083.1536	1115.9456	1128.8903	1143.4238	1240.3756	1314.6848	1378.7699	1383.4997	1411.8263	1422.4148	1446.9105	1489.9666	1506.73	1804.8547	1810.6737	2920.0964	3002.5137	3006.5012	3082.302	3107.7012	3197.4396	3785.5227
OCC1(CN1C=O)C=O	OC[C@]1(CN1C=O)C=O	
InChI=1S/C5H7NO3/c7-2-5(3-8)1-6(5)4-9/h2,4,8H,1,3H2	InChI=1S/C5H7NO3/c7-2-5(3-8)1-6(5)4-9/h2,4,8H,1,3H2/t5-,6?/m0/s1
