16
gdb 133027	2.46421	1.60685	0.97862	4.2181	80.19	-0.1913	-0.0262	0.1651	1149.584	0.124867	-442.065564	-442.057658	-442.056714	-442.097955	30.029	
C	-0.0363801118	 1.4224995601	 0.0487687722	-0.343641
N	-0.0285675964	-0.0232258378	 0.0559322927	-0.319263
C	 0.5342207304	-0.6204434488	-0.9288965129	 0.313269
N	 1.1495556262	 0.0063580496	-2.0243009947	-0.398148
C	 1.7498158698	-0.6422674861	-3.0745501361	 0.018749
C	 1.7863664669	-1.993361275	-3.119331397	-0.167048
C	 1.1843384662	-2.7292159599	-2.0458408601	-0.204811
C	 0.5978105083	-2.0735144481	-1.0199914327	 0.206115
F	 0.0352509339	-2.7349234936	-0.017215558	-0.051567
H	 0.9784129508	 1.8609605477	 0.0539082164	 0.100059
H	-0.5685809316	 1.8482201934	-0.8216340113	 0.100081
H	-0.5458577079	 1.7880085833	 0.9436319133	 0.128747
H	 1.1410018528	 1.013352886	-2.0242887521	 0.26193
H	 2.1763854951	-0.002826559	-3.8369003134	 0.128405
H	 2.2588684717	-2.5048580123	-3.9459099044	 0.109511
H	 1.1905938656	-3.8130514794	-2.0410891516	 0.11761
113.4693	181.3338	205.2355	212.6869	279.8451	331.2626	455.0724	505.8041	536.3918	548.3298	582.8289	599.6813	744.1638	757.2035	757.27	883.1686	904.8468	917.4059	1048.3628	1058.6745	1105.4492	1112.6433	1167.4026	1185.1813	1261.5627	1287.1633	1392.8358	1428.5884	1454.112	1472.4644	1506.0742	1510.6708	1620.6619	1685.2254	1715.857	2924.689	2960.9062	3098.2909	3201.6225	3211.404	3237.2545	3646.9875
CN=C1NC=CC=C1F	CN=c1[nH]cccc1F	
InChI=1S/C6H7FN2/c1-8-6-5(7)3-2-4-9-6/h2-4H,1H3,(H,8,9)	InChI=1S/C6H7FN2/c1-8-6-5(7)3-2-4-9-6/h2-4H,1H3,(H,8,9)
