21
gdb 41359	2.65627	1.84249	1.65425	1.8105	80.42	-0.248	0.0761	0.3241	947.9973	0.186873	-387.055892	-387.049128	-387.048184	-387.086579	29.114	
C	 0.0357397776	 1.5035871331	-0.0955075489	-0.203636
O	 1.4819459475	 1.4564836477	 0.1463701489	-0.32604
C	 1.2566601442	 0.2050307796	 0.8637287841	 0.173226
C	 1.8452913462	-1.1938328759	 0.6982647396	-0.087103
C	 0.5905060525	-1.9590806662	 1.2890561336	-0.210906
C	-0.6994829164	-1.1007918116	 0.8937051399	-0.329209
C	-0.0045753424	-0.0346931104	 0.0525333484	 0.296501
C	 0.5302181428	-0.7148205033	-1.2481239528	-0.23678
C	 1.8620461527	-1.4006353257	-0.8195167128	-0.207579
H	-0.4752983647	 2.0572045873	 0.7037411648	 0.097568
H	-0.198708163	 1.9427827968	-1.0692040521	 0.105569
H	 1.0768526893	 0.4421572515	 1.9221995665	 0.0658
H	 2.7726472847	-1.4435058767	 1.2174545825	 0.061362
H	 0.5438822562	-2.9737921138	 0.8852122867	 0.104849
H	 0.6697699379	-2.0472795056	 2.3758228764	 0.105502
H	-1.4414581463	-1.6989379509	 0.3579987953	 0.096644
H	-1.1764630032	-0.6902002434	 1.7880580891	 0.099291
H	-0.2018503965	-1.4345163251	-1.6259783592	 0.092892
H	 0.7027535372	 0.016620272	-2.0393429622	 0.105366
H	 2.723493315	-0.8997137699	-1.2699029033	 0.106458
H	 1.9100732587	-2.4582601597	-1.0947511345	 0.090225
165.2824	276.297	299.8939	351.8004	397.4886	439.0107	555.5778	607.4873	705.7743	766.6835	786.4548	816.2924	840.3507	856.6708	879.9418	883.1178	923.5074	941.771	963.036	985.4166	1019.8385	1029.7924	1039.2551	1068.2018	1098.6838	1130.5726	1149.4664	1187.3778	1206.193	1214.1655	1240.4903	1270.8824	1276.6562	1289.8436	1292.9162	1302.497	1337.9858	1341.7742	1355.2301	1401.7507	1480.5601	1489.0942	1499.2839	1513.7575	1519.6061	2997.4588	3012.4881	3050.2161	3051.4835	3059.8439	3062.9647	3087.9289	3091.2914	3092.2554	3096.8777	3111.2551	3115.9904
C1OC2C3CCC12CC3	C1O[C@@H]2[C@H]3CC[C@@]12CC3	
InChI=1S/C8H12O/c1-3-8-4-2-6(1)7(8)9-5-8/h6-7H,1-5H2	InChI=1S/C8H12O/c1-3-8-4-2-6(1)7(8)9-5-8/h6-7H,1-5H2/t6-,7-,8+/m1/s1
