23
gdb 106956	3.22612	1.04738	0.9679	1.4679	86.45	-0.2489	0.0727	0.3215	1358.8626	0.204221	-388.265398	-388.255546	-388.254602	-388.299621	38.019	
C	-0.1065973259	 1.5683992441	 0.0845472086	-0.444127
C	 0.0321681594	 0.0479045016	 0.031172214	 0.345232
C	-1.3318861414	-0.6094649639	-0.1882111028	-0.43734
C	 1.11372817	-0.5335371897	-0.954527706	-0.345981
C	 1.7844325257	-1.25919043	 0.2208928811	 0.415233
C	 2.3174964022	-2.6542924292	 0.1766690681	-0.207459
O	 3.5516305204	-2.6445646074	-0.5353149911	-0.420134
C	 2.2391701219	-0.2475895241	 1.2352122676	-0.340757
C	 0.7856475104	-0.6311175374	 1.1970208943	-0.145075
H	 0.854777408	 2.0616786643	 0.2538340333	 0.111383
H	-0.5153476179	 1.9542768468	-0.8567159131	 0.110113
H	-0.7845116563	 1.8731609229	 0.8904504978	 0.109468
H	-1.7815033137	-0.2774102337	-1.1308858424	 0.109866
H	-1.2445627732	-1.7007327554	-0.2213771092	 0.10845
H	-2.0257055542	-0.3549401413	 0.6218485228	 0.108467
H	 0.6811833801	-1.2098335925	-1.6969736727	 0.09515
H	 1.7420489035	 0.1966457904	-1.4744621589	 0.093696
H	 2.4532816726	-3.0280140771	 1.2054854534	 0.08036
H	 1.5889924047	-3.3175774846	-0.318400909	 0.080877
H	 3.8311779624	-3.556971258	-0.657402818	 0.284375
H	 2.7990742484	-0.6528304409	 2.0727393381	 0.108717
H	 2.57277152	 0.7377733538	 0.9202430172	 0.104961
H	 0.298439093	-1.0878035986	 2.0530760568	 0.074528
74.8038	105.9844	188.9743	222.3171	249.607	258.5691	267.3084	321.8085	340.7772	392.5735	404.964	424.6665	488.9827	613.7984	706.7772	794.2001	836.8821	887.5088	904.01	945.5223	952.0543	960.7726	975.3131	988.8796	1023.9193	1037.1341	1048.3637	1065.0968	1082.5683	1128.8508	1197.959	1199.8464	1221.0621	1242.0299	1251.389	1272.9458	1307.3728	1326.0968	1390.1891	1402.2162	1422.8257	1467.516	1482.1732	1483.1125	1487.3589	1500.8052	1505.4146	1508.831	1515.1692	2952.6113	2979.954	3018.2685	3024.916	3044.6832	3082.0879	3087.5384	3092.4739	3098.0085	3101.7846	3111.3886	3154.6254	3195.2615	3821.6973
CC1(C)CC2(CO)CC12	CC1(C)C[C@@]2(CO)C[C@@H]12	
InChI=1S/C8H14O/c1-7(2)4-8(5-9)3-6(7)8/h6,9H,3-5H2,1-2H3	InChI=1S/C8H14O/c1-7(2)4-8(5-9)3-6(7)8/h6,9H,3-5H2,1-2H3/t6-,8+/m0/s1
