20
gdb 75753	2.23482	1.54518	0.97583	3.6381	83.11	-0.2019	0.008	0.2099	1247.5677	0.169743	-403.218381	-403.208572	-403.207628	-403.252708	36.052	
C	-0.0872392008	 1.5661398626	-0.0557232129	-0.392939
C	 0.0158424655	 0.039012911	 0.072969311	-0.220998
C	 0.7809388522	-0.5636311222	-1.1194299369	 0.418385
O	 0.5778445452	-0.3929053296	-2.3012057608	-0.384932
N	 1.7756819726	-1.3359338631	-0.5627516585	-0.377406
C	 1.7733198646	-1.2685746891	 0.850829021	 0.256445
C	 2.8093032113	-2.0427511222	 1.5944728312	-0.50409
C	 0.7719302009	-0.482794939	 1.2797470179	 0.186934
C	 0.3830615472	-0.1560537839	 2.6848811048	-0.500973
H	 0.9009239086	 2.0315881779	 0.0153163487	 0.119592
H	-0.5171100917	 1.8225223826	-1.0275477286	 0.141595
H	-0.7204575004	 1.987379081	 0.7302063456	 0.114786
H	-1.0015888545	-0.3785834023	 0.0469851881	 0.109558
H	 2.464175788	-1.8165516113	-1.1185418184	 0.253192
H	 3.8206028973	-1.7233579577	 1.3127443794	 0.133855
H	 2.7035637326	-1.9116807981	 2.6722773714	 0.140074
H	 2.7362557301	-3.1149789907	 1.3738912228	 0.135322
H	 1.0351042899	-0.6419313743	 3.4155001994	 0.120652
H	 0.4227321577	 0.9239419365	 2.8763144189	 0.127398
H	-0.6464109763	-0.472393668	 2.900506326	 0.12355
78.6462	151.5137	151.8605	177.3459	209.0018	233.6855	262.367	279.4512	302.7943	354.4871	475.2656	539.2959	563.6084	597.6482	629.9267	709.4274	772.0211	827.9359	910.9315	995.6778	1013.1872	1049.2916	1066.5379	1079.5637	1103.3038	1134.2922	1202.315	1215.9636	1289.7113	1309.1463	1316.9097	1399.3514	1405.672	1424.802	1431.3569	1475.9919	1479.2708	1491.2988	1493.327	1498.9149	1501.8324	1741.0232	1829.9621	3003.1057	3011.2342	3022.3971	3040.1838	3051.528	3067.6021	3107.7301	3111.3527	3124.7362	3138.9368	3653.8545
CC1C(=O)NC(C)=C1C	C[C@H]1C(=O)NC(=C1C)C	
InChI=1S/C7H11NO/c1-4-5(2)7(9)8-6(4)3/h5H,1-3H3,(H,8,9)	InChI=1S/C7H11NO/c1-4-5(2)7(9)8-6(4)3/h5H,1-3H3,(H,8,9)/t5-/m1/s1
