15
gdb 83152	2.20069	1.8315	1.43263	2.1893	61.51	-0.2455	-0.0364	0.2091	945.9578	0.110472	-494.88181	-494.873445	-494.872501	-494.914916	30.677	
O	 0.0253435201	 1.41552743	-0.101005566	-0.418894
C	-0.0016671343	 0.0234033547	-0.0326500904	 0.000967
C	-0.446718329	-0.6720303268	 1.2242202738	-0.044567
O	-1.026943484	 0.1699727042	 2.1966717088	-0.2668
C	-2.2409799131	 0.7327044382	 1.7017152185	-0.187442
C	-2.5383202927	 0.0388048663	 0.3805124649	 0.336336
O	-3.5916028393	-0.0234781656	-0.2071177759	-0.34119
C	-1.324490973	-0.7252374436	-0.0206155038	 0.257894
O	-1.5240610396	-1.8117843058	-0.8475056105	-0.469401
H	 0.5310279495	 1.733631431	 0.6557396055	 0.300158
H	 0.7518183507	-0.4985894652	-0.623794116	 0.118441
H	 0.0847368818	-1.52024179	 1.6402721161	 0.127373
H	-3.0479239725	 0.551402401	 2.4188860703	 0.145211
H	-2.1374253489	 1.8128637416	 1.5420032774	 0.141807
H	-2.4238068958	-1.7078760599	-1.1940567928	 0.300106
78.5284	103.8995	184.9416	243.3489	280.5269	283.0796	341.6198	393.8333	474.896	581.6864	613.5494	645.6845	659.2797	710.9231	830.6627	922.0046	940.9426	990.2655	1006.4512	1045.4267	1080.1598	1112.1569	1157.3346	1208.5604	1217.3023	1285.2503	1320.0299	1339.987	1354.7175	1396.1785	1463.4961	1470.8509	1829.3094	3035.7011	3087.0983	3106.4297	3185.6032	3714.3469	3795.5324
OC1C2OCC(=O)C12O	O[C@H]1[C@H]2OCC(=O)[C@@]12O	
InChI=1S/C5H6O4/c6-2-1-9-4-3(7)5(2,4)8/h3-4,7-8H,1H2	InChI=1S/C5H6O4/c6-2-1-9-4-3(7)5(2,4)8/h3-4,7-8H,1H2/t3-,4+,5+/m0/s1
