18
gdb 10298	2.28019	1.80189	1.23512	1.8289	69.38	-0.2573	0.0367	0.294	1038.017	0.151283	-384.902496	-384.89299	-384.892045	-384.936804	34.636	
C	 0.7829524819	-0.4612088192	 1.2223966247	-0.410985
C	-0.0465972634	-0.0413559603	 0.013550609	 0.123017
O	 0.6309257509	-0.2974137411	-1.2153308455	-0.444891
C	-1.4727298019	-0.6554804323	-0.011069238	-0.200446
C	-2.2213262239	-0.2469820907	-1.3147699366	-0.066015
O	-2.0616989355	 1.1197045506	-1.6304010604	-0.421071
C	-1.4417513046	-2.1112048025	 0.0851606493	 0.305608
C	-1.3928445484	-3.313728352	 0.0976634651	-0.467146
H	 1.7626736915	 0.0222225392	 1.1847246871	 0.124314
H	 0.2885946177	-0.171913662	 2.1557340609	 0.118301
H	 0.9277159894	-1.5461617496	 1.2420982559	 0.125287
H	-0.1833621028	 1.0437396807	 0.0296323724	 0.100616
H	 0.7307879058	-1.2540835413	-1.2960527855	 0.286511
H	-2.0168797297	-0.2440414101	 0.8490588611	 0.10885
H	-1.8751129895	-0.8896975475	-2.132806762	 0.10181
H	-3.292392553	-0.4241975389	-1.182201391	 0.118138
H	-1.1803035229	 1.2096150095	-2.0103841718	 0.298107
H	-1.3717515015	-4.3750293825	 0.1353301754	 0.199997
48.5996	92.8767	142.8943	184.9314	226.5655	250.2007	325.0388	352.9354	392.7592	439.2593	496.8377	508.5178	551.1392	633.6556	649.7162	668.0355	744.692	908.6916	960.6999	974.9292	1037.3517	1053.0435	1086.9177	1104.5054	1137.0893	1216.5137	1260.6686	1301.0769	1342.9625	1351.7318	1405.3451	1408.0297	1418.2304	1442.1996	1490.6763	1495.7218	1498.0111	2223.6306	3023.8397	3033.5213	3038.3627	3073.4873	3095.4877	3109.5503	3121.9285	3501.6372	3779.298	3801.7996
CC(O)C(CO)C#C	C[C@@H](O)[C@@H](CO)C#C	
InChI=1S/C6H10O2/c1-3-6(4-7)5(2)8/h1,5-8H,4H2,2H3	InChI=1S/C6H10O2/c1-3-6(4-7)5(2)8/h1,5-8H,4H2,2H3/t5-,6-/m1/s1
