17
gdb 10816	4.66164	1.5209	1.21247	3.972	72.39	-0.2262	-0.0485	0.1777	990.1462	0.143356	-363.887402	-363.87998	-363.879036	-363.919019	28.309	
C	-0.0805705869	 1.5508221214	 0.0021879083	-0.403544
C	-0.0047178882	 0.0198196811	 0.0087073493	 0.008477
N	 0.643305199	-0.4443386281	-1.2134452721	-0.31189
C	 0.8895699926	-1.8810078674	-1.2472488647	-0.2819
C	 1.7883038271	-2.2965138545	-0.085302941	 0.399684
O	 2.5327103825	-3.2521748373	-0.1578677857	-0.329367
C	 1.6143775701	-1.5094007743	 1.1509869206	-0.179331
C	 0.7525351735	-0.4874811628	 1.205963714	-0.012195
H	 0.9234405861	 1.9798757066	-0.052704576	 0.13602
H	-0.6513639908	 1.901814463	-0.8638073765	 0.115382
H	-0.5785447843	 1.9210620456	 0.9033881179	 0.11785
H	-1.0429266712	-0.3681296738	 0.1054692612	 0.073819
H	 0.1005224557	-0.1600545687	-2.0213114596	 0.22249
H	-0.0307212258	-2.4966049212	-1.1744682495	 0.099002
H	 1.3880345872	-2.1524190625	-2.1808898884	 0.127605
H	 2.1729219461	-1.8456745085	 2.0188634544	 0.108418
H	 0.5661288073	 0.0273470914	 2.1457954278	 0.109478
81.9429	193.5214	232.7397	275.7862	326.6907	403.0347	429.5852	489.6229	539.1747	628.9211	695.2323	749.8099	781.114	828.674	929.4753	959.1204	1008.4057	1015.6547	1046.8381	1087.8131	1126.2078	1142.6948	1197.0446	1236.7962	1265.8425	1298.8274	1336.2265	1386.7828	1402.8777	1411.3104	1473.5991	1480.4781	1500.0812	1503.9134	1682.7875	1788.9529	2850.8432	2893.4806	3038.5905	3099.2344	3106.8715	3125.5704	3155.2355	3189.4701	3529.1943
CC1NCC(=O)C=C1	C[C@H]1NCC(=O)C=C1	
InChI=1S/C6H9NO/c1-5-2-3-6(8)4-7-5/h2-3,5,7H,4H2,1H3	InChI=1S/C6H9NO/c1-5-2-3-6(8)4-7-5/h2-3,5,7H,4H2,1H3/t5-/m1/s1
