23
gdb 89368	2.81213	1.50102	1.34487	0.1921	89.23	-0.2315	0.0229	0.2544	1109.12	0.207698	-351.17827	-351.170039	-351.169095	-351.210194	34.313	
C	-0.1819866137	 1.54966951	 0.0064554427	-0.414412
C	 0.0442146357	 0.0391052012	 0.0040029505	 0.05624
C	 0.9106364489	-0.4926000518	-1.1817832242	-0.250469
C	 2.027848299	-1.3467634773	-0.4802557432	 0.302021
C	 2.7571684706	-2.3262902318	-1.383244876	-0.491707
C	 1.2151518273	-1.9181613037	 0.7117565633	-0.242904
C	 0.815219756	-0.5280607551	 1.2523767398	-0.073622
C	 2.1783335107	 0.1451237716	 1.2932794144	-0.089116
C	 2.889308085	-0.3328583508	 0.2680076852	-0.105737
H	 0.7695231522	 2.0909593063	 0.0206320387	 0.116039
H	-0.7304086203	 1.8655091118	-0.8877015291	 0.109814
H	-0.7639008354	 1.8651461672	 0.8801753529	 0.105715
H	-0.9343862289	-0.4547506417	-0.0214153158	 0.066033
H	 0.3200175176	-1.1191922113	-1.8590043316	 0.088502
H	 1.342562306	 0.3171466302	-1.777841942	 0.090545
H	 3.2802098072	-1.8066571789	-2.1943920325	 0.111619
H	 3.5022271736	-2.902843071	-0.8241819597	 0.113394
H	 2.0594009985	-3.0352553555	-1.8425732347	 0.110118
H	 0.36059324	-2.5287612665	 0.3973249244	 0.080896
H	 1.8367341515	-2.4870189841	 1.4089027338	 0.088655
H	 0.2352862551	-0.4961195865	 2.1764230548	 0.051519
H	 2.4589717407	 0.9410360335	 1.9719609449	 0.090614
H	 3.8674842027	-0.0073649258	-0.0676999765	 0.086243
146.7994	218.088	228.772	243.5641	295.0068	325.2669	390.2805	460.9536	476.0649	481.7092	608.0422	652.8494	739.2724	754.5404	797.7342	831.8905	877.8889	895.1026	912.285	929.9617	937.3062	952.4336	966.5978	1009.2144	1043.9104	1063.4447	1090.1221	1096.6666	1138.3581	1164.2105	1179.7526	1206.673	1238.6351	1252.5486	1262.0943	1279.2991	1300.7591	1338.9346	1367.9041	1381.9361	1406.2996	1413.9091	1484.8873	1494.1438	1495.6439	1496.8149	1500.8558	1503.6755	1645.1829	3022.0819	3023.3889	3025.2336	3033.7304	3042.4684	3082.221	3087.0021	3088.9101	3092.1576	3095.2928	3098.9097	3100.958	3184.7419	3213.7198
CC1CC2(C)CC1C=C2	C[C@H]1C[C@]2(C)C[C@H]1C=C2	
InChI=1S/C9H14/c1-7-5-9(2)4-3-8(7)6-9/h3-4,7-8H,5-6H2,1-2H3	InChI=1S/C9H14/c1-7-5-9(2)4-3-8(7)6-9/h3-4,7-8H,5-6H2,1-2H3/t7-,8+,9+/m0/s1
