19
gdb 62596	3.02862	1.71338	1.67989	1.3249	76.3	-0.2166	0.0729	0.2895	920.9469	0.159675	-385.843682	-385.836333	-385.835388	-385.874799	30.839	
C	 0.0474132084	 1.5202420097	-0.0017497289	-0.436934
C	-0.004496213	-0.0087045047	-0.0137274794	 0.402091
O	-1.3560884934	-0.4679374743	-0.0312426166	-0.479697
C	 0.8428773801	-0.6349045942	-1.1177618938	-0.136022
C	 2.264684778	-0.857627664	-0.6487586436	-0.093759
C	 1.2978350242	-2.0217943115	-0.720172733	-0.087155
C	 1.1916952113	-2.0313538451	 0.8269172206	-0.086893
C	 2.1571824159	-0.8660214173	 0.9022789122	-0.098235
C	 0.6858279212	-0.6493467465	 1.1779589997	-0.093937
H	 1.0789967235	 1.8776547318	 0.0641701534	 0.123457
H	-0.3917458856	 1.933150797	-0.9184493052	 0.099224
H	-0.5170453989	 1.9141981099	 0.8486228313	 0.119618
H	-1.7852708182	-0.0854994138	-0.8036149865	 0.272102
H	 0.6533279461	-0.4093487177	-2.1618651516	 0.074393
H	 3.1486106163	-0.6514135907	-1.2364071259	 0.083467
H	 1.2951430449	-2.8800835888	-1.3771641038	 0.084289
H	 1.0974979821	-2.8968821991	 1.4672597287	 0.085004
H	 2.9513751295	-0.6661003981	 1.6081158412	 0.083578
H	 0.3472977376	-0.4409102627	 2.1857451613	 0.085409
167.9917	228.3796	238.3571	252.5868	352.822	381.4368	558.108	597.5678	602.1661	679.1799	730.3319	754.7773	781.9908	803.8598	863.2993	882.3627	917.1956	930.7675	938.3758	948.6835	962.88	971.9249	998.1965	1031.7361	1038.3127	1051.2614	1077.5072	1084.9422	1126.1677	1163.282	1197.2529	1211.3444	1244.703	1274.5238	1288.6821	1333.154	1385.4172	1402.608	1410.3694	1489.241	1494.4877	3024.8112	3091.4598	3118.1181	3170.708	3189.9177	3197.5597	3207.5899	3210.7845	3220.4538	3809.645
CC1(O)C2C3C2C2C3C12	C[C@@]1(O)[C@H]2[C@@H]3[C@H]2[C@H]2[C@@H]3[C@@H]12	
InChI=1S/C8H10O/c1-8(9)6-2-3(6)5-4(2)7(5)8/h2-7,9H,1H3	InChI=1S/C8H10O/c1-8(9)6-2-3(6)5-4(2)7(5)8/h2-7,9H,1H3/t2-,3+,4-,5+,6+,7-,8-
