15
gdb 17752	3.92467	2.6205	2.12289	2.7586	62.3	-0.2258	0.063	0.2887	675.7363	0.120327	-362.56919	-362.563535	-362.562591	-362.598469	23.803	
O	-0.0774228167	 1.3525950424	 0.0340532613	-0.480264
C	 0.0792468265	-0.021026353	 0.0046782577	 0.400499
C	 1.106555239	-0.8106538484	 0.8587230161	-0.312546
C	 0.8132603595	-1.9591637258	-0.1404741338	-0.079347
C	-0.7072491321	-2.2188503527	-0.0930377231	-0.033514
C	-1.2316827038	-0.8306736032	 0.007414124	-0.085553
N	-1.0361070537	-1.4539348728	-1.3453901385	-0.1758
C	 0.4025711123	-0.9288698629	-1.2429580634	-0.068104
H	 0.7903856997	 1.762757444	-0.0424301602	 0.284442
H	 2.122685012	-0.4185831899	 0.7282901625	 0.091351
H	 0.8961399915	-0.9661277287	 1.9208843488	 0.102184
H	 1.4966386828	-2.7886887484	-0.3011653325	 0.080327
H	-1.2480070666	-3.1136195789	 0.1908152305	 0.096223
H	-2.2052214751	-0.53646717	 0.3789342504	 0.099752
H	 0.9673678847	-0.6601059016	-2.1332409197	 0.080351
269.3084	319.5099	353.6613	423.9756	556.0348	607.0029	736.827	758.7252	791.4028	807.8517	848.6965	857.1732	893.2528	920.1432	951.6812	955.9056	999.7556	1025.9797	1036.1283	1053.5681	1099.1279	1112.4907	1140.4686	1193.4314	1201.4257	1222.4944	1236.7252	1280.8578	1301.7725	1354.3573	1406.3498	1484.1366	3031.9942	3098.3068	3137.9678	3153.5549	3183.5819	3199.2207	3812.6913
OC12CC3C4C1N4C23	O[C@@]12C[C@H]3[C@H]4[C@@H]1N4[C@@H]23	
InChI=1S/C6H7NO/c8-6-1-2-3-5(6)7(3)4(2)6/h2-5,8H,1H2	InChI=1S/C6H7NO/c8-6-1-2-3-5(6)7(3)4(2)6/h2-5,8H,1H2/t2-,3-,4+,5-,6+,7?/m0/s1
