20
gdb 22527	2.19277	1.32316	1.08693	0.7034	79.5	-0.2438	-0.0004	0.2434	1233.4842	0.167759	-440.224656	-440.214573	-440.213629	-440.259973	36.754	
C	-0.0537293501	 1.459251386	-0.0962462883	-0.254673
O	 0.1173546439	 0.05529906	-0.022457678	-0.281229
C	 0.7141106146	-0.5578800579	-1.1580403672	 0.323528
C	 2.1407141266	-0.0858693285	-1.41081741	-0.458721
C	 0.4864304643	-2.0987609636	-1.0272738057	-0.266877
C	-0.578577274	-2.0576966613	-2.1684805407	-0.325228
C	-0.2264205294	-0.6006142688	-2.3691940661	 0.378986
N	-0.4917501397	 0.3037755677	-3.215563516	-0.246238
O	-1.3997358288	-0.1594526675	-4.1864901583	-0.3866
H	 0.9010975906	 1.9985238656	-0.0281882878	 0.105796
H	-0.5620215968	 1.7584689185	-1.0214885325	 0.129667
H	-0.6720503906	 1.7407062543	 0.7598774705	 0.123466
H	 2.7397666448	-0.2104611112	-0.5027322041	 0.121902
H	 2.5985240702	-0.6695146858	-2.2143975699	 0.118573
H	 2.1696878904	 0.9649426612	-1.7112067402	 0.130966
H	 1.3717418688	-2.6894900058	-1.2697828588	 0.104677
H	 0.1134543585	-2.3834193553	-0.0434678201	 0.11792
H	-0.398613143	-2.6961796875	-3.0373056074	 0.126188
H	-1.6085196507	-2.2187180297	-1.8368591629	 0.131898
H	-1.4926697396	 0.6082029597	-4.7611141867	 0.305998
39.5782	107.6164	125.7275	174.2416	195.6979	249.5288	269.055	313.3489	343.2213	364.1959	417.9331	451.7991	505.4327	588.4012	662.6074	741.8466	776.1859	879.1172	897.5313	938.9492	948.6706	975.2312	1078.8828	1099.1967	1112.9572	1164.4843	1183.3904	1191.5494	1204.468	1226.708	1240.4186	1250.2071	1299.0584	1398.1942	1400.3723	1454.9177	1472.904	1477.5105	1482.0626	1486.4209	1504.359	1513.4185	1770.3773	3000.9679	3039.7519	3060.7557	3061.9733	3081.8522	3105.0069	3113.8464	3114.0906	3120.3476	3147.0584	3814.3058
COC1(C)CCC1=NO	CO[C@@]1(C)CCC1=NO	
InChI=1S/C6H11NO2/c1-6(9-2)4-3-5(6)7-8/h8H,3-4H2,1-2H3	InChI=1S/C6H11NO2/c1-6(9-2)4-3-5(6)7-8/h8H,3-4H2,1-2H3/t6-/m0/s1
