20
gdb 62059	4.23594	0.68224	0.61185	0.9426	82.61	-0.2335	0.0321	0.2656	1803.6586	0.168464	-403.072274	-403.062224	-403.06128	-403.108088	36.505	
O	 0.1009743825	 1.5007978743	 0.0866120229	-0.416591
C	 0.0257977669	 0.0783960754	-0.0021875824	-0.061046
C	 0.61270666	-0.4504204834	-1.323632385	-0.193705
C	-0.0772641295	 0.1525807387	-2.5471853953	-0.147147
N	 0.5582900863	-0.3137250986	-3.7732949766	-0.062764
C	 0.0268457741	-1.5424672909	-4.3542876069	-0.221172
C	-0.2371049587	-0.2221655032	-4.9905905177	-0.220811
C	 0.6574591588	-0.5667692075	 1.1529011544	 0.294653
C	 1.218018869	-1.0766962886	 2.0862473688	-0.436394
H	 1.0235745531	 1.7304585603	 0.2459476468	 0.285958
H	-1.0502618513	-0.1378969744	 0.0167888938	 0.117374
H	 1.6845325062	-0.223423889	-1.3600246473	 0.110184
H	 0.5214815193	-1.5427334963	-1.3375165778	 0.10987
H	-1.1573541301	-0.0901700969	-2.5219979169	 0.074454
H	 0.0049844892	 1.2430946576	-2.5098748344	 0.118791
H	 0.7581510731	-2.2256478323	-4.7765418949	 0.116506
H	-0.81059907	-2.02503412	-3.8512172853	 0.106783
H	-1.2491639326	 0.1725247104	-4.9115960597	 0.109276
H	 0.2992122944	 0.078909531	-5.8860642588	 0.116432
H	 1.6952800594	-1.5295270765	 2.9201242023	 0.199351
57.1401	66.3629	96.472	142.3825	188.0957	228.4562	278.5056	305.6901	371.4536	415.5555	447.2516	566.9046	573.3999	630.4731	672.069	766.0028	790.197	844.6527	876.7487	917.5372	979.8064	1020.625	1035.4764	1066.857	1085.0802	1107.8276	1115.6549	1118.1398	1162.5835	1176.9162	1231.6311	1266.0726	1289.1215	1321.2917	1328.9693	1353.1131	1401.3622	1421.3105	1479.886	1491.9095	1502.9572	1524.5966	2232.628	2915.2692	3027.774	3039.2566	3073.0132	3089.1932	3090.5671	3095.4448	3174.3121	3188.5812	3502.5504	3802.0022
OC(CCN1CC1)C#C	O[C@@H](CCN1CC1)C#C	
InChI=1S/C7H11NO/c1-2-7(9)3-4-8-5-6-8/h1,7,9H,3-6H2	InChI=1S/C7H11NO/c1-2-7(9)3-4-8-5-6-8/h1,7,9H,3-6H2/t7-/m1/s1
