18
gdb 93206	2.57612	1.44543	1.06411	2.1891	75.46	-0.2479	-0.0373	0.2106	1152.714	0.148674	-439.136108	-439.127383	-439.126439	-439.169437	32.726	
C	 0.0144454307	 1.502000168	-0.0638435674	-0.470148
C	-0.0304535835	 0.0042033106	 0.0199156978	 0.220028
C	-1.1566309902	-0.7196448443	-0.0330655369	-0.210203
C	-1.1547023653	-2.228133775	-0.0121916818	 0.089902
O	-1.284166794	-2.7519595516	-1.3322800063	-0.429543
C	 0.0896896087	-2.7490133188	 0.7095531934	-0.196384
N	 1.27100297	-2.0393211245	 0.2442326446	-0.342367
C	 1.3049082309	-0.6733502429	 0.1059370908	 0.338607
O	 2.3524597688	-0.05642802	 0.0032998212	-0.368973
H	 0.6317776459	 1.8214877871	-0.9088692958	 0.147575
H	-0.9886578629	 1.9216153361	-0.1702827692	 0.114914
H	 0.4831957618	 1.9261851802	 0.8302876983	 0.141325
H	-2.1167578274	-0.2291192048	-0.1740563131	 0.102643
H	-2.0362768312	-2.5991657041	 0.5199490683	 0.096997
H	-0.5601563496	-2.385716102	-1.853502142	 0.285751
H	-0.0496943229	-2.6306261997	 1.7954992454	 0.108582
H	 0.2048933139	-3.8149907447	 0.4963078085	 0.122392
H	 2.1783188963	-2.4559994397	 0.3959121141	 0.248903
88.237	132.3583	156.2113	180.6412	295.3559	324.7355	359.5309	368.3007	434.6725	493.0282	529.5213	556.0091	633.0988	704.1073	783.7042	832.0425	853.0196	900.8533	952.9212	989.0559	1063.6145	1069.4871	1080.4724	1133.7438	1187.5379	1245.3138	1263.0861	1304.1827	1340.6303	1379.2303	1409.3387	1413.7495	1424.2834	1464.6584	1467.6638	1482.5857	1506.0657	1706.4982	1774.6384	2982.3594	3042.8671	3066.54	3092.096	3100.4276	3128.17	3157.9957	3608.6439	3797.2066
CC1=CC(O)CNC1=O	CC1=C[C@@H](O)CNC1=O	
InChI=1S/C6H9NO2/c1-4-2-5(8)3-7-6(4)9/h2,5,8H,3H2,1H3,(H,7,9)	InChI=1S/C6H9NO2/c1-4-2-5(8)3-7-6(4)9/h2,5,8H,3H2,1H3,(H,7,9)/t5-/m1/s1
