14
gdb 28976	3.04594	1.56156	1.03291	5.6998	80.04	-0.2322	-0.0574	0.1748	1066.7053	0.103772	-395.806096	-395.798723	-395.797779	-395.837809	28.215	
N	-0.0169848333	 1.3893179683	-0.1278169532	-0.607058
C	-0.0102937033	 0.0196425081	-0.0479178936	 0.301608
C	-1.1969023598	-0.7312731446	-0.0274827248	-0.154643
C	-1.1269421021	-2.1112403717	-0.0018555759	-0.099763
C	 0.1247935457	-2.7363818046	 0.0037157749	-0.03738
N	 1.262808145	-2.0553298681	-0.0081363963	-0.312909
C	 1.1979546576	-0.718612072	-0.0303202124	 0.14962
C	 2.4327036577	 0.0126776934	-0.0276664578	 0.241771
N	 3.3740232995	 0.6881291312	-0.0173912939	-0.352087
H	 0.8437077415	 1.8734575983	 0.0795800041	 0.276411
H	-0.8539070121	 1.8705360376	 0.1582245261	 0.26025
H	-2.1546156454	-0.2202206311	-0.0369193235	 0.105694
H	-2.0329854594	-2.7070036216	 0.0139292382	 0.112711
H	 0.2071997485	-3.8188488332	 0.0220341181	 0.115776
126.0196	147.1762	238.6944	369.8163	380.9564	409.8455	447.0394	481.7769	522.7447	562.813	607.8909	621.3135	736.1645	793.6671	830.9063	873.8109	933.0317	987.8601	1058.1996	1081.0745	1164.0262	1207.8048	1282.899	1322.3549	1355.108	1474.7246	1497.0487	1592.4551	1629.3429	1660.3402	2331.0744	3170.68	3176.3979	3199.9533	3580.8017	3694.9489
NC1=CC=CN=C1C#N	Nc1cccnc1C#N	
InChI=1S/C6H5N3/c7-4-6-5(8)2-1-3-9-6/h1-3H,8H2	InChI=1S/C6H5N3/c7-4-6-5(8)2-1-3-9-6/h1-3H,8H2
