18
gdb 93573	3.51932	1.01128	0.81542	3.9575	75.91	-0.2473	-0.0332	0.2141	1369.6061	0.148006	-439.132234	-439.123159	-439.122215	-439.166539	33.533	
N	-0.0382158592	 1.3293290783	 0.1023756319	-0.540727
C	 0.0460047394	-0.0384205757	 0.0734819782	 0.316094
O	 1.1159022235	-0.6212256058	 0.0777606632	-0.361562
C	-1.26382511	-0.7533769512	 0.066778459	 0.237653
C	-1.3587314083	-2.0811621039	-0.0474658313	-0.198983
C	-2.7888526754	-2.5611111608	-0.05277146	 0.114967
O	-3.0275729398	-3.7134723176	 0.7404051359	-0.430365
C	-3.5800086325	-1.3006329324	 0.3922017471	-0.248349
C	-2.6335163524	-0.1015174193	 0.1422993256	-0.350261
H	 0.8220209363	 1.8439381944	 0.0044521159	 0.26088
H	-0.9018829158	 1.8124249674	-0.0721590439	 0.258973
H	-0.5104216623	-2.7472231581	-0.1494343992	 0.128638
H	-3.0791889623	-2.8718913042	-1.0653513927	 0.101274
H	-2.6829920508	-3.5345941493	 1.6227618853	 0.277005
H	-4.543838853	-1.2044379466	-0.1121758889	 0.108194
H	-3.7840964295	-1.3967048714	 1.4645104884	 0.103986
H	-2.7020275479	 0.6591717366	 0.9287089276	 0.109568
H	-2.8768551999	 0.4025431698	-0.803750182	 0.113014
53.8016	103.7332	129.8066	180.9108	242.1141	316.6494	354.6004	379.0122	399.2543	486.098	538.1048	571.822	612.5914	650.1567	763.586	838.6227	863.0848	892.4987	933.0473	977.2298	1013.4321	1044.758	1082.8138	1086.7743	1127.3978	1155.6437	1231.5097	1254.4711	1262.2465	1305.2997	1318.1493	1346.9844	1363.4719	1425.1878	1484.4592	1503.465	1615.8343	1693.4121	1777.7983	3006.4883	3019.8164	3043.0909	3056.4348	3110.3367	3218.4739	3601.7589	3735.8322	3795.0863
NC(=O)C1=CC(O)CC1	NC(=O)C1=C[C@@H](O)CC1	
InChI=1S/C6H9NO2/c7-6(9)4-1-2-5(8)3-4/h3,5,8H,1-2H2,(H2,7,9)	InChI=1S/C6H9NO2/c7-6(9)4-1-2-5(8)3-4/h3,5,8H,1-2H2,(H2,7,9)/t5-/m0/s1
