18
gdb 32776	3.05884	0.99645	0.79604	1.6115	75.61	-0.1832	0.0448	0.228	1412.8653	0.147642	-439.110389	-439.100924	-439.09998	-439.145625	34.274	
O	 0.1066908457	 1.4646169895	-0.2565545299	-0.415868
C	 0.083189378	 0.0502952812	-0.156653228	-0.051135
C	-1.3394989279	-0.5079872919	 0.0337652402	-0.340833
C	-1.3959233661	-1.9976626978	 0.0848024024	 0.208503
C	-1.4111577893	-2.8572577618	 1.1632708041	 0.251602
O	-1.3950787189	-2.4217907952	 2.4620823935	-0.456005
C	-1.4329661177	-4.1952900677	 0.6835066599	-0.278712
C	-1.4265831434	-4.1211013538	-0.6928394305	-0.077939
N	-1.3956589464	-2.8012338331	-1.0427272201	-0.297424
H	-0.1826808734	 1.8218505136	 0.5891587539	 0.282182
H	 0.507591982	-0.3209360904	-1.0959924387	 0.102609
H	 0.729246715	-0.3140320457	 0.6558971929	 0.100651
H	-1.7473602389	-0.1198597436	 0.9749905412	 0.113806
H	-1.974027432	-0.1136737165	-0.7706830724	 0.101921
H	-1.5372492964	-3.1783212127	 3.0373349297	 0.294852
H	-1.4501785613	-5.0985743054	 1.2750860039	 0.086326
H	-1.4450811224	-4.8984679318	-1.4391481553	 0.11682
H	-1.4135924366	-2.4530165366	-1.9849286868	 0.258646
34.7308	92.1795	104.4323	175.7162	249.3912	279.0724	301.6761	351.5308	365.0132	423.4652	468.2541	637.5194	662.0493	675.4392	706.0347	775.4964	780.5187	783.3403	914.1607	996.2015	1025.5391	1069.2944	1086.9274	1091.7832	1147.5164	1159.4792	1253.2088	1286.6136	1303.7106	1327.6241	1343.3922	1391.9588	1414.8502	1452.0501	1476.6256	1500.3277	1508.7654	1517.5933	1667.621	2995.5694	3019.271	3055.2799	3079.411	3237.423	3270.6276	3684.9765	3814.872	3848.6749
OCCC1=C(O)C=CN1	OCCc1c(O)cc[nH]1	
InChI=1S/C6H9NO2/c8-4-2-5-6(9)1-3-7-5/h1,3,7-9H,2,4H2	InChI=1S/C6H9NO2/c8-4-2-5-6(9)1-3-7-5/h1,3,7-9H,2,4H2
