23
gdb 121828	2.98032	0.82497	0.77405	1.9923	78.75	-0.2576	0.0655	0.3232	1596.337	0.202108	-462.550059	-462.538569	-462.537625	-462.587253	41.349	
C	-0.0180879571	 1.5994382098	-0.0199730463	-0.422114
C	 0.085779888	 0.0702040158	 0.042110286	 0.367047
C	 0.7268044967	-0.3972176886	 1.3539136443	-0.422707
C	-1.3085851419	-0.5586236195	-0.1158060513	-0.102421
O	-2.1292764553	-0.1232149784	 0.956095407	-0.419752
O	 0.7792161018	-0.4588777093	-1.0992127819	-0.313787
C	 2.1510644415	-0.1401270114	-1.2641684505	-0.085989
C	 2.529396465	-0.6407490629	-2.6514026	-0.053013
O	 1.741706184	-0.0263203729	-3.651328511	-0.422766
H	 0.9392558626	 2.0850709392	 0.1875856834	 0.11316
H	-0.358604171	 1.9146299962	-1.011271758	 0.114801
H	-0.7423367179	 1.9449999974	 0.721126243	 0.139684
H	 0.063739791	-0.159517381	 2.1887571155	 0.139459
H	 0.8841442036	-1.4803055288	 1.3343908893	 0.115115
H	 1.6891005411	 0.0909755831	 1.5315073041	 0.112055
H	-1.7188374976	-0.2538927456	-1.0901191604	 0.087849
H	-1.1961290756	-1.652443498	-0.1245104479	 0.092871
H	-2.9965786385	-0.5238379806	 0.8536620847	 0.293064
H	 2.3158021718	 0.9445970063	-1.2105989122	 0.098862
H	 2.7746801038	-0.626106531	-0.4994113421	 0.090042
H	 3.5757996917	-0.3949242525	-2.8608358118	 0.104717
H	 2.4271471042	-1.7377321234	-2.6757776961	 0.089298
H	 0.8330478881	-0.0983131439	-3.3350264478	 0.284524
33.5913	70.0435	120.907	138.5023	175.9277	207.8776	232.4479	251.686	278.6383	295.7514	340.6211	368.8941	408.7573	451.8928	460.518	490.0353	600.7589	749.2252	840.7439	910.7617	915.8893	940.777	962.8507	996.7498	1039.7455	1071.9387	1092.0874	1118.9838	1138.6876	1175.9447	1197.9554	1229.3324	1246.2767	1263.2541	1293.9882	1298.2143	1385.3295	1392.3488	1395.1186	1413.1911	1441.7165	1453.3146	1482.7679	1488.331	1498.3888	1500.8969	1505.4357	1512.9052	1526.6334	2976.9686	2984.5612	2992.1632	3023.1342	3037.0772	3044.2476	3047.4456	3077.0046	3111.445	3115.1251	3131.0643	3135.421	3789.0396	3843.676
CC(C)(CO)OCCO	CC(C)(CO)OCCO	
InChI=1S/C6H14O3/c1-6(2,5-8)9-4-3-7/h7-8H,3-5H2,1-2H3	InChI=1S/C6H14O3/c1-6(2,5-8)9-4-3-7/h7-8H,3-5H2,1-2H3
