15
gdb 130154	2.05207	1.89379	0.98749	2.9063	78.24	-0.1974	0.0227	0.2201	1125.2968	0.113558	-412.98127	-412.972377	-412.971433	-413.014258	33.597	
N	-0.0549848858	 1.3578349725	 0.1305647047	-0.599096
C	 0.0036579897	-0.0231692886	 0.062653351	 0.280622
N	-1.0853258736	-0.7708551547	 0.0498967257	-0.316073
N	-0.5996520605	-2.0623020963	 0.0346295223	-0.266526
C	 0.7448693049	-2.1222542386	 0.041893227	 0.293355
N	 1.4558247901	-3.3087595379	 0.1036090565	-0.616628
C	 1.204791641	-0.8053664573	 0.0470914403	 0.040158
C	 2.54158693	-0.3734215651	 0.0148878117	 0.126477
C	 3.6904012731	-0.0032887108	-0.0292286864	-0.412479
H	 0.7297425791	 1.820074917	-0.3063545317	 0.253078
H	-0.9416215004	 1.731999362	-0.1776274307	 0.251754
H	-1.2458647086	-2.8225334143	 0.1499906633	 0.269015
H	 1.1178727675	-4.0350958794	-0.5146540278	 0.253488
H	 2.4466357444	-3.1553475659	-0.0346984243	 0.265097
H	 4.6988579991	 0.3269860174	-0.0398650014	 0.177759
113.5485	139.8989	208.538	241.6237	272.4484	292.4175	319.0313	399.9715	422.2311	437.8881	513.5195	548.2825	590.562	622.3778	656.58	684.2742	688.9245	722.177	777.0229	817.5839	1047.8772	1079.8709	1133.6962	1181.4536	1278.8328	1355.2385	1453.8437	1532.3332	1595.9129	1614.7802	1646.4954	1660.5199	2213.64	3503.8922	3537.8783	3558.1795	3631.2824	3661.4364	3690.0356
NC1=NNC(N)=C1C#C	Nc1n[nH]c(N)c1C#C	
InChI=1S/C5H6N4/c1-2-3-4(6)8-9-5(3)7/h1H,(H5,6,7,8,9)	InChI=1S/C5H6N4/c1-2-3-4(6)8-9-5(3)7/h1H,(H5,6,7,8,9)
