21
gdb 39946	2.96909	1.36909	1.04382	0.2583	93.06	-0.2127	0.0266	0.2393	1213.0519	0.184923	-349.95395	-349.945886	-349.944942	-349.9867	32.448	
C	-0.0122393239	 1.5060239591	-0.0397261186	-0.301504
C	 1.2911889792	 0.788203921	 0.0438835697	-0.301629
C	-0.0091999198	-0.0309509841	 0.0019243113	 0.32217
C	-0.3944474511	-0.6293321979	 1.3030068661	-0.104355
C	-0.8645800123	-1.8437810451	 1.5924294591	-0.095545
C	-1.1736619011	-2.9799193703	 0.6531711371	-0.259406
C	-1.8890249651	-2.5824320589	-0.6496432728	-0.259539
C	-1.0874804159	-1.7199358597	-1.5889048489	-0.095506
C	-0.3084787976	-0.6764368063	-1.2992779412	-0.104602
H	-0.3810728438	 2.0201142963	 0.8409912373	 0.119245
H	-0.2899086104	 1.9726022926	-0.9779753094	 0.11864
H	 1.9229241184	 0.7515873815	-0.8367806319	 0.119228
H	 1.8339021005	 0.802923845	 0.9821558464	 0.118601
H	-0.224913172	 0.0418848228	 2.1445258427	 0.074206
H	-1.0378390398	-2.0547173593	 2.6457488696	 0.080076
H	-0.2476668066	-3.5132369434	 0.3969349538	 0.112959
H	-1.7989414699	-3.7082337438	 1.1826148324	 0.094825
H	-2.1775096111	-3.4980092112	-1.1789441574	 0.09481
H	-2.8307269762	-2.077529707	-0.3931357649	 0.112978
H	-1.1716159662	-1.9807896304	-2.6419217266	 0.080102
H	 0.1724032347	-0.1775741408	-2.140285794	 0.074244
48.4345	171.6219	229.6667	292.3841	311.3385	336.5565	389.5346	485.9842	565.4974	599.6517	665.411	728.7142	757.659	779.2642	805.7751	853.0268	863.5661	894.3003	949.4263	959.5831	981.3454	983.1687	1006.3756	1009.3639	1040.453	1057.403	1076.7947	1084.8925	1193.9661	1194.7973	1228.4848	1247.6163	1280.6346	1303.5665	1355.2141	1368.7535	1399.9932	1440.9083	1456.1849	1470.1276	1480.7189	1485.1596	1497.5344	1729.6532	1737.9488	3007.1427	3013.4088	3051.783	3053.4524	3116.2384	3118.2227	3134.5126	3137.9458	3146.8909	3149.378	3214.6213	3229.9327
C1CC11C=CCCC=C1	C1CC21C=CCCC=C2	
InChI=1S/C9H12/c1-2-4-6-9(5-3-1)7-8-9/h3-6H,1-2,7-8H2	InChI=1S/C9H12/c1-2-4-6-9(5-3-1)7-8-9/h3-6H,1-2,7-8H2
