16
gdb 62199	2.27611	1.00183	0.99361	4.2861	69.19	-0.2786	-0.0086	0.27	1308.8083	0.123649	-434.06175	-434.052004	-434.05106	-434.098029	33.183	
N	-0.3526849996	 1.8038928958	-0.5470415207	-0.501569
C	-0.6687956663	 0.5578673554	 0.1508674907	-0.149366
C	-2.0609479522	 0.0820040961	-0.3182721816	-0.069251
O	-2.453977823	-1.141860601	 0.2808137485	-0.223245
C	-3.3141956646	-1.0393567124	 1.3865359388	-0.195509
C	-2.6852540938	-0.4447449948	 2.5836616674	 0.25985
N	-2.1854531307	 0.0400179498	 3.5058722086	-0.303099
C	 0.3371267747	-0.5067494225	-0.0471899224	 0.266431
N	 1.1563387517	-1.297541288	-0.2469312388	-0.318689
H	 0.4664272933	 2.2374936432	-0.1334984305	 0.253621
H	-0.1179062338	 1.6114904795	-1.5170134138	 0.245777
H	-0.7179624655	 0.7727505732	 1.2225450218	 0.159872
H	-2.7774890065	 0.887243687	-0.1178644699	 0.125828
H	-2.0353558568	-0.0933635581	-1.39914165	 0.128343
H	-4.2140438466	-0.4524298237	 1.148808526	 0.148833
H	-3.63185249	-2.0575546196	 1.629368476	 0.172173
24.0935	74.9672	84.1752	159.9246	206.2336	237.9525	267.7766	288.4662	359.1597	382.1361	453.5109	570.8638	595.34	609.8203	793.2373	874.9848	892.9263	948.1847	1002.7173	1027.7541	1077.5064	1132.1122	1146.2317	1218.1597	1273.3774	1317.3875	1345.6414	1386.568	1398.7374	1409.0358	1468.0659	1492.7499	1665.8953	2349.2348	2355.5024	3003.5672	3033.0781	3076.9959	3094.8778	3096.7674	3499.6849	3580.3469
NC(COCC#N)C#N	N[C@@H](COCC#N)C#N	
InChI=1S/C5H7N3O/c6-1-2-9-4-5(8)3-7/h5H,2,4,8H2	InChI=1S/C5H7N3O/c6-1-2-9-4-5(8)3-7/h5H,2,4,8H2/t5-/m1/s1
