17
gdb 45885	2.37628	2.01324	1.19829	3.442	75.41	-0.2205	0.0046	0.2251	1010.7722	0.13893	-418.02769	-418.020347	-418.019402	-418.059405	28.86	
O	-0.0682395903	-0.1082467091	 0.0962777274	-0.380321
C	-0.0279531134	 1.1037582872	 0.0559902192	 0.393211
N	-1.1833144375	 1.8504358037	-0.1720783045	-0.34391
C	-1.480983272	 3.1831879689	 0.1225880511	 0.029097
C	-0.8193781912	 3.9946374061	 0.9536079651	-0.104072
C	 0.3832767777	 3.5570722907	 1.7521697945	-0.304389
C	 1.4663794907	 3.0109489388	 0.8428125274	 0.000558
C	 2.1563148985	 1.7068773355	 1.1180789352	-0.254761
N	 1.1617753618	 1.8245166718	 0.0715238555	-0.092993
H	-1.9602677465	 1.2516660562	-0.4112532459	 0.25801
H	-2.3705661325	 3.5339291437	-0.391593025	 0.111312
H	-1.1768510259	 5.0123942077	 1.0545055342	 0.09556
H	 0.7774561561	 4.3860163456	 2.3471230347	 0.111618
H	 0.0926089055	 2.7685793852	 2.4622257189	 0.119188
H	 2.0091351073	 3.7671018268	 0.2776427047	 0.103189
H	 3.1773213392	 1.5404337304	 0.7864291639	 0.126572
H	 1.8690379127	 1.1629294208	 2.0147920837	 0.132132
119.5669	147.2228	236.32	303.9694	386.7668	403.2466	484.8893	524.949	579.9847	624.2101	695.028	728.7746	757.3099	824.6463	844.8712	942.5684	949.9567	954.3701	987.042	1031.0873	1088.7147	1102.6489	1136.0296	1141.302	1168.0879	1221.9258	1241.2896	1303.3386	1329.7843	1385.9018	1415.7723	1443.2603	1473.1695	1480.4289	1515.0555	1720.0124	1791.3805	3000.4944	3082.9863	3108.5294	3120.4806	3173.3454	3196.5528	3203.352	3612.7387
O=C1NC=CCC2CN12	O=C1NC=CC[C@H]2CN12	
InChI=1S/C6H8N2O/c9-6-7-3-1-2-5-4-8(5)6/h1,3,5H,2,4H2,(H,7,9)	InChI=1S/C6H8N2O/c9-6-7-3-1-2-5-4-8(5)6/h1,3,5H,2,4H2,(H,7,9)/t5-,8?/m0/s1
