21
gdb 52679	3.17892	0.8076	0.69673	1.4393	88.22	-0.2354	0.0653	0.3007	1685.9825	0.179663	-387.051653	-387.040756	-387.039812	-387.089613	38.432	
C	 0.2432438428	 1.3949611494	 0.1286840001	-0.497622
C	 0.0672161948	-0.0478239004	 0.0355110102	 0.068683
C	-0.0744391395	-1.242070661	-0.0333433507	 0.077429
C	-0.2632484502	-2.6908019456	-0.1387683747	-0.180353
C	-1.7542711762	-3.0566646256	-0.2927501989	-0.394434
C	 0.5575130009	-3.2644029147	-1.2901281844	 0.009542
C	 2.0268887722	-3.5760452954	-1.10307049	-0.334676
C	 1.0209911097	-4.6920296189	-1.2465098412	 0.075004
O	 0.6504803184	-5.4399693563	-0.1218504951	-0.414364
H	 0.9580550613	 1.7594234736	-0.6178211864	 0.143634
H	-0.7020037925	 1.9247948873	-0.0349509155	 0.144033
H	 0.6189544074	 1.6894238329	 1.1151852901	 0.143784
H	 0.0962616219	-3.1599282409	 0.7846930482	 0.107354
H	-1.8687677012	-4.1438708058	-0.3018719849	 0.129947
H	-2.3410819386	-2.6466458303	 0.5336287922	 0.116901
H	-2.1583831479	-2.6519888773	-1.2261397677	 0.114834
H	 0.262560814	-2.8887484796	-2.2661844823	 0.09053
H	 2.7194709878	-3.3816350692	-1.9147438927	 0.109414
H	 2.4336404849	-3.413595882	-0.1097732672	 0.115466
H	 1.0126687512	-5.2518155863	-2.18182289	 0.085473
H	 1.3984419489	-5.9909255138	 0.1302154909	 0.289423
15.3829	46.1849	81.5225	133.4585	177.4746	213.5171	248.741	285.8747	295.5005	314.1903	369.0778	447.3266	481.007	526.9991	572.9327	754.7594	773.8642	836.0286	855.7833	961.5979	996.2619	996.7236	1047.8353	1052.7614	1054.1648	1065.0236	1092.8544	1133.5576	1160.085	1173.9821	1207.2803	1235.9068	1281.6708	1305.5315	1331.1249	1389.4333	1405.5255	1415.2664	1424.2343	1479.7939	1479.9573	1485.9217	1496.115	1498.8709	2368.6192	3022.8611	3036.4862	3040.8245	3081.7035	3081.9951	3094.9498	3112.5039	3124.7822	3127.3261	3144.6964	3215.698	3809.175
CC#CC(C)C1CC1O	CC#C[C@@H](C)[C@H]1C[C@H]1O	
InChI=1S/C8H12O/c1-3-4-6(2)7-5-8(7)9/h6-9H,5H2,1-2H3	InChI=1S/C8H12O/c1-3-4-6(2)7-5-8(7)9/h6-9H,5H2,1-2H3/t6-,7-,8-/m1/s1
