21
gdb 113841	2.08398	1.51553	1.10809	3.1127	78.66	-0.2147	0.0559	0.2707	1186.373	0.182624	-424.182138	-424.173027	-424.172083	-424.215668	35.483	
O	-0.7466000193	-0.464645504	 1.6943457321	-0.40583
C	-0.4919160522	-0.1389213948	 0.3208450602	-0.129392
C	-1.5468727629	-0.7921966332	-0.5252183636	 0.000741
C	-1.2146911722	-1.2740759807	-1.916727727	-0.323426
C	-1.6071441651	-2.2734437049	-0.8534726276	-6.*^-6
C	-0.7097896259	-3.3874964957	-0.3982563504	-0.081495
C	 0.5274163228	-3.2774004789	 0.4886889567	-0.359801
C	-0.7376046683	-3.886311458	 1.0310858118	 0.139466
O	-1.4888563457	-3.2444217666	 2.0099972223	-0.438963
H	-0.0938960273	-0.0264258639	 2.2493872935	 0.294208
H	-0.5350740321	 0.951153463	 0.1857483855	 0.102262
H	 0.5094978397	-0.4705558973	 0.0190381537	 0.09983
H	-2.5241624656	-0.3339955812	-0.3998049264	 0.093726
H	-1.9012293232	-1.0582386417	-2.7278493837	 0.111812
H	-0.1670466943	-1.2520556346	-2.2018097046	 0.11276
H	-2.635767536	-2.6189872925	-0.9391603391	 0.095618
H	-0.6366596406	-4.1720481831	-1.1498468771	 0.083891
H	 1.3713508045	-3.9179987561	 0.2538323259	 0.104485
H	 0.8052406024	-2.3164151383	 0.9001192348	 0.108059
H	-0.7647961017	-4.9607917769	 1.1865572024	 0.093276
H	-1.2902254068	-2.2950183608	 1.9863768804	 0.298779
85.0289	149.7007	162.1645	215.9374	241.8198	275.0887	296.0706	370.1106	415.9544	460.1073	538.8455	572.3748	636.6797	697.4283	787.0239	795.9732	817.2405	863.8531	931.8334	961.7909	991.6437	1003.8754	1021.2577	1043.0454	1055.4478	1070.9753	1115.4893	1124.8294	1145.3989	1151.2615	1161.0964	1181.3815	1231.1678	1243.9992	1269.8555	1291.7578	1363.7873	1376.5495	1400.0056	1422.2425	1460.2812	1467.0759	1486.1921	1498.5244	1523.9261	3001.3538	3040.9956	3107.8986	3117.9325	3127.9713	3138.2579	3144.6887	3153.9451	3212.7428	3239.5425	3676.2264	3824.8872
OCC1CC1C1CC1O	OC[C@H]1C[C@H]1[C@H]1C[C@H]1O	
InChI=1S/C7H12O2/c8-3-4-1-5(4)6-2-7(6)9/h4-9H,1-3H2	InChI=1S/C7H12O2/c8-3-4-1-5(4)6-2-7(6)9/h4-9H,1-3H2/t4-,5-,6-,7-/m1/s1
