17
gdb 34867	2.64355	1.64135	1.49186	4.3705	71.83	-0.2493	0.0188	0.2681	953.1086	0.139268	-417.987261	-417.980092	-417.979148	-418.018853	27.911	
N	-0.1155134808	-1.2369091451	-0.1478363457	-0.338973
C	-0.0348604545	-0.08851948	-0.0393339712	 0.287454
C	 0.0287091953	 1.3620695001	 0.056504104	-0.151686
C	-0.1149223667	 2.1156070643	 1.4184116589	-0.050434
C	 0.6773586553	 1.3984967545	 2.5081633937	-0.05527
O	 1.824847167	 0.7601707665	 1.9628219152	-0.260857
C	 2.4316035148	 1.4301707144	 0.8653094648	-0.05527
C	 1.3823434193	 2.1426410336	 0.0162189388	-0.05043
N	 0.7820951907	 3.2043393183	 0.896491508	-0.32148
H	-0.6625302228	 1.7922849515	-0.6733107779	 0.125052
H	-1.1075058572	 2.4212845557	 1.7541335383	 0.090594
H	 0.9554100531	 2.1387983421	 3.2722329124	 0.110701
H	 0.0855501153	 0.6052548968	 2.9756245891	 0.123378
H	 3.161495976	 2.1786306287	 1.2062288089	 0.110701
H	 2.9518973687	 0.6570089266	 0.2912840048	 0.123381
H	 1.7762470345	 2.4733538029	-0.9465057754	 0.090595
H	 0.2244428918	 3.8270230091	 0.3130338433	 0.222547
137.0422	137.1739	205.3923	325.983	359.6933	440.4533	484.398	533.7228	606.0317	643.36	829.3544	838.2978	846.9874	885.5127	887.6527	947.0638	990.7797	996.3478	1033.7716	1054.5704	1106.4966	1107.708	1126.3789	1143.2992	1213.2528	1244.0513	1249.435	1267.7165	1318.6713	1328.4059	1365.6735	1385.9579	1408.8826	1423.067	1489.2869	1499.5318	2351.2054	3002.0514	3007.8324	3076.4063	3081.8723	3084.059	3101.4277	3102.9298	3462.2974
N#CC1C2COCC1N2	N#C[C@H]1[C@H]2COC[C@@H]1N2	
InChI=1S/C6H8N2O/c7-1-4-5-2-9-3-6(4)8-5/h4-6,8H,2-3H2	InChI=1S/C6H8N2O/c7-1-4-5-2-9-3-6(4)8-5/h4-6,8H,2-3H2/t4-,5+,6-
