21
gdb 98280	2.55342	1.02321	0.84626	2.9927	79.38	-0.2581	-0.0229	0.2353	1444.227	0.18028	-424.231701	-424.22157	-424.220626	-424.26776	36.686	
C	-0.2005191681	 1.8146639956	 0.4435690217	-0.39538
C	-0.0726042637	 0.3254119024	 0.0880132255	-0.113971
C	 0.7280837684	-0.4377489193	 1.1380791142	 0.048859
C	 1.4822490165	-1.695224732	 0.7847209069	-0.277321
C	 2.2340680682	-0.4253873631	 1.1006652978	-0.281368
C	-1.4489918551	-0.3176218962	-0.0210205144	 0.377488
O	-2.2999392836	-0.1848487815	 0.8351566964	-0.34492
C	-1.7547142442	-1.1755558281	-1.2375231936	-0.142842
O	-3.0298995145	-1.7344439206	-1.1674191476	-0.420092
H	 0.7899053346	 2.2570564049	 0.5801101222	 0.120098
H	-0.7208261822	 2.3701888057	-0.3429136767	 0.117109
H	-0.7688348355	 1.9304051715	 1.3698328341	 0.141679
H	 0.4379137132	 0.2181112072	-0.8782256175	 0.075964
H	 0.2669286415	-0.4165246275	 2.1214855332	 0.103562
H	 1.5018409777	-2.5037977078	 1.5065335648	 0.120458
H	 1.470036075	-2.0263953397	-0.2489956348	 0.112904
H	 2.7154759831	 0.093034412	 0.2775568002	 0.113721
H	 2.7718552767	-0.3607438664	 2.0399357022	 0.118508
H	-1.6379995804	-0.5404530118	-2.1335869431	 0.113819
H	-0.9746405442	-1.9524194424	-1.3128486885	 0.118035
H	-3.4009689633	-1.3992519128	-0.3345489731	 0.293689
31.2019	76.3045	111.7569	171.4198	196.0091	219.8764	247.1025	305.6402	340.0107	375.1669	428.7125	467.6515	562.4749	697.7196	764.1993	816.2661	833.051	844.3091	929.1292	940.337	982.8838	1006.0277	1037.9381	1059.1181	1080.6617	1092.6286	1117.109	1144.5008	1151.4266	1198.2379	1205.0044	1225.4159	1244.6643	1295.8952	1308.9284	1362.8355	1398.1064	1406.6264	1449.6074	1469.9461	1487.1169	1492.2588	1500.0276	1505.2403	1790.8922	2958.9826	2978.7353	3020.2683	3043.4872	3113.0137	3129.0363	3130.1273	3133.6633	3151.64	3208.1603	3223.085	3672.1295
CC(C1CC1)C(=O)CO	C[C@@H](C1CC1)C(=O)CO	
InChI=1S/C7H12O2/c1-5(6-2-3-6)7(9)4-8/h5-6,8H,2-4H2,1H3	InChI=1S/C7H12O2/c1-5(6-2-3-6)7(9)4-8/h5-6,8H,2-4H2,1H3/t5-/m0/s1
