20
gdb 111554	2.66309	1.56681	1.1992	2.464	78.97	-0.2333	0.0824	0.3157	1112.5743	0.170483	-403.076942	-403.068405	-403.067461	-403.110084	32.377	
C	 0.0534457969	 1.2815300413	-0.3445378886	-0.240933
O	-0.0021593609	-0.0077953475	 0.2270528949	-0.254891
C	-1.2674223296	-0.6048507883	 0.1403575817	 0.125031
C	-1.7282414164	-1.275102535	-1.1908486322	-0.151696
C	-0.601583444	-2.2859035719	-1.4429865774	-0.145436
N	-1.0153824506	-3.0339123376	-0.2069713107	-0.187337
C	-2.360237062	-2.3934608856	-0.2842524185	-0.105454
C	-1.414445062	-1.9734488253	 0.7867617696	 0.296612
C	-1.3449354053	-2.314595959	 2.2410663502	-0.509798
H	 1.0613547927	 1.6686379955	-0.1783599129	 0.129718
H	-0.1440233033	 1.2636892963	-1.4266260569	 0.108552
H	-0.6717635131	 1.9635775817	 0.1262444041	 0.105701
H	-2.0472974536	 0.07532434	 0.5177249573	 0.0667
H	-2.2112220093	-0.7005428678	-1.9789497226	 0.069994
H	-0.7801355226	-2.9290902324	-2.308247275	 0.103598
H	 0.4287238794	-1.9171123015	-1.4411101854	 0.109796
H	-3.3031859268	-2.9231618554	-0.2668982312	 0.096772
H	-1.6200495318	-3.3600640048	 2.4021850744	 0.132818
H	-0.3288105034	-2.169043328	 2.6221709165	 0.135008
H	-2.0207310743	-1.6808552044	 2.8253742624	 0.115245
78.7558	157.3944	167.7245	191.6346	227.289	278.864	304.3593	401.0767	519.3168	567.4925	620.6774	720.8904	790.369	814.386	857.6105	892.9274	928.5363	960.5686	986.5593	1015.4398	1018.4873	1031.9888	1041.7097	1102.3467	1138.9483	1145.9533	1164.1581	1179.0922	1184.006	1207.5326	1235.0461	1244.2637	1304.6856	1313.3163	1372.9182	1404.5069	1443.8227	1481.6307	1483.7829	1489.9134	1493.1341	1498.9143	1508.5048	2975.1658	2986.2746	3025.2966	3035.8396	3051.9842	3098.4485	3112.4804	3117.3707	3120.6947	3131.9727	3207.4695
COC1C2CN3C2C13C	CO[C@H]1[C@H]2CN3[C@H]2[C@]13C	
InChI=1S/C7H11NO/c1-7-5-4(3-8(5)7)6(7)9-2/h4-6H,3H2,1-2H3	InChI=1S/C7H11NO/c1-7-5-4(3-8(5)7)6(7)9-2/h4-6H,3H2,1-2H3/t4-,5+,6-,7+,8?/m0/s1
