18
gdb 48712	3.55708	1.35581	1.15642	3.6622	76.31	-0.2283	-0.0219	0.2064	1075.72	0.148859	-401.92232	-401.914953	-401.914008	-401.954078	29.233	
O	-0.1547008715	 0.0501714828	 0.1558809585	-0.267836
C	 0.0125658693	 1.2240317682	-0.070380023	 0.088166
C	 1.3120215834	 1.9241451714	-0.0130869418	 0.24932
C	 1.294824691	 3.4222773385	 0.2495337202	-0.352756
C	 1.6661025424	 2.9467192067	-1.1134154314	-0.083154
C	 3.1035283322	 2.668165743	-1.4849446862	-0.024059
C	 4.1926036911	 2.8771959242	-0.4964240784	-0.253239
N	 3.6358483011	 1.5343237898	-0.6960505599	-0.090511
C	 2.5840643469	 1.1242630169	 0.2664976979	-0.269004
H	-0.8415353511	 1.8833122045	-0.3564347183	 0.065328
H	 0.3160426951	 3.8814988619	 0.3593011308	 0.124181
H	 2.0454593959	 3.8284170733	 0.9163813164	 0.12965
H	 0.9719258524	 3.1276043598	-1.9264722492	 0.10407
H	 3.3287629761	 2.6679379389	-2.5476439571	 0.097882
H	 5.2173995553	 2.9965989893	-0.839193244	 0.119229
H	 3.9743958636	 3.4108828519	 0.4246630748	 0.110393
H	 2.9435296754	 1.2378881995	 1.2948456826	 0.111518
H	 2.3608580813	 0.0658332895	 0.1100501581	 0.140824
102.5993	193.856	208.7747	291.7126	326.7739	425.5467	473.3003	527.2047	636.2096	675.6517	736.9376	777.8693	803.7101	825.8426	866.4823	929.3337	961.1847	984.4525	990.4596	1031.8042	1048.5124	1075.223	1090.444	1100.154	1108.589	1121.7334	1150.9221	1217.202	1262.2881	1280.5284	1294.3614	1343.8351	1377.9858	1394.6381	1436.5884	1482.3292	1503.4052	1521.1877	1809.831	2845.1716	3050.362	3102.2263	3104.696	3125.9144	3145.7063	3177.603	3183.5086	3216.8673
O=CC12CC1C1CN1C2	O=C[C@]12C[C@H]1[C@H]1CN1C2	
InChI=1S/C7H9NO/c9-4-7-1-5(7)6-2-8(6)3-7/h4-6H,1-3H2	InChI=1S/C7H9NO/c9-4-7-1-5(7)6-2-8(6)3-7/h4-6H,1-3H2/t5-,6+,7+,8?/m0/s1
