16
gdb 65890	3.55701	0.82092	0.74662	4.2838	84.06	-0.279	-0.0503	0.2287	1505.5403	0.123587	-400.722513	-400.713726	-400.712782	-400.756514	32.092	
O	 0.0815314532	 1.5969286569	-0.1938461642	-0.450333
C	-0.0059380003	 0.204667248	 0.0197459404	 0.209612
C	 0.1794641804	-0.3263777442	 1.4868797649	-0.27233
C	-1.1079410496	-1.1721654683	 1.3093313152	-0.211484
C	-1.4805710378	-0.2942706233	 0.0867270545	-0.250965
C	 0.808385894	-0.5286416921	-0.942945798	 0.170893
C	 1.5153790167	-1.1118956196	-1.7323825006	-0.07489
C	 2.305376146	-1.7763549988	-2.6253332266	 0.207158
N	 2.9795500265	-2.3420701058	-3.3839329667	-0.33431
H	 1.0114369359	 1.844309038	-0.2555779163	 0.288907
H	 1.1124820342	-0.8395492834	 1.7253638919	 0.113597
H	 0.0326787453	 0.5122753031	 2.1718647617	 0.121331
H	-0.8861254019	-2.2027498364	 1.0231125361	 0.120579
H	-1.8113798508	-1.1848102288	 2.1425551144	 0.113576
H	-2.1098545567	 0.5556061631	 0.360958215	 0.128693
H	-1.8853383353	-0.7764495584	-0.8035653116	 0.119965
71.1484	93.1641	140.3433	224.28	238.9269	290.8885	349.0858	362.0065	494.4486	531.3413	565.0981	591.4345	600.702	672.6136	790.1692	809.6164	898.4127	937.1276	973.862	991.427	1045.4767	1046.7725	1140.3735	1199.3702	1202.8834	1248.3366	1266.6789	1276.51	1295.9522	1359.2397	1467.959	1484.6663	1503.9779	2257.1532	2392.7036	3070.4586	3077.1648	3079.8049	3124.1512	3136.8779	3145.8902	3799.9622
OC1(CCC1)C#CC#N	OC1(CCC1)C#CC#N	
InChI=1S/C7H7NO/c8-6-2-5-7(9)3-1-4-7/h9H,1,3-4H2	InChI=1S/C7H7NO/c8-6-2-5-7(9)3-1-4-7/h9H,1,3-4H2
