16
gdb 30495	3.87524	1.14911	0.8912	4.4743	80.28	-0.1983	-0.033	0.1653	1256.4972	0.123884	-437.915278	-437.906858	-437.905914	-437.948577	31.031	
C	-0.0501379301	 1.4455190027	 0.0074230582	-0.315713
N	 0.0236843142	-0.003423075	 0.0031868552	-0.325859
C	-1.047361905	-0.6790080407	 0.0092989281	 0.413021
O	-2.2957134903	-0.0050787514	 0.0203987742	-0.248301
C	-3.4500577459	-0.6867367366	 0.0271702173	 0.095181
C	-3.5271032343	-2.0276119458	 0.0242567629	-0.316127
C	-2.2924062188	-2.7760115807	 0.013222328	 0.408061
O	-2.3129702796	-4.1307369453	 0.0098997278	-0.426636
C	-1.1085989917	-2.1190528435	 0.0061452341	-0.297744
H	 0.9638333952	 1.8532157877	-0.0003781453	 0.115141
H	-0.5839356836	 1.8391333967	-0.8692588077	 0.112673
H	-0.5684083497	 1.8345886892	 0.8953871612	 0.112694
H	-4.3096886375	-0.0265610365	 0.0352479806	 0.139163
H	-4.4934384434	-2.5170816933	 0.0301386806	 0.105234
H	-3.2242381155	-4.4401548406	 0.0158248384	 0.303353
H	-0.1666807942	-2.649392987	-0.0021652535	 0.12586
72.5082	112.9406	168.9158	204.4607	292.1764	327.786	368.8778	403.6415	458.1949	502.8648	634.27	671.9091	712.4885	734.0816	748.4314	844.0389	868.1143	926.7563	977.623	1026.8521	1104.7089	1109.8222	1142.0173	1191.1613	1221.1042	1264.3922	1304.3738	1388.8813	1439.1114	1474.1132	1485.8657	1498.5012	1621.6226	1715.239	1756.6643	2989.9812	3035.5538	3099.6552	3195.5414	3215.2068	3236.9782	3831.2844
CN=C1OC=CC(O)=C1	C[N]C1=C[C@@H](C=CO1)O	
InChI=1S/C6H7NO2/c1-7-6-4-5(8)2-3-9-6/h2-4,8H,1H3	InChI=1S/C6H8NO2/c1-7-6-4-5(8)2-3-9-6/h2-5,8H,1H3/t5-/m1/s1
