12
gdb 132677	3.17131	1.35631	0.95001	0.9404	60.61	-0.237	-0.0316	0.2055	1071.5932	0.077395	-521.941197	-521.934431	-521.933487	-521.972517	26.001	
O	 0.1020463014	 1.3341593198	 0.0788032569	-0.404442
C	 0.0691617183	-0.0082426334	 0.0390927259	 0.326932
N	 0.0791557394	-0.6145743153	-1.1395918298	-0.405031
C	 0.0464669835	-1.9337075905	-1.1617702728	 0.336984
F	 0.058380709	-2.4896581391	-2.3689370491	-0.070604
C	 0.0020604243	-2.7469662891	-0.0416676427	-0.281377
C	-0.0083011951	-2.1039441176	 1.1970835818	-0.183108
C	 0.0253835729	-0.7252088995	 1.2420842738	 0.178216
F	 0.0170691108	-0.068013018	 2.4018324704	-0.062691
H	 0.1292591313	 1.6334735389	-0.8407695694	 0.307669
H	-0.0229591236	-3.8238222049	-0.1368405978	 0.123898
H	-0.042210872	-2.6629078212	 2.1250071627	 0.133553
141.0909	245.7639	292.1574	356.3006	386.6029	460.8698	477.6642	533.326	544.5693	601.1289	685.867	748.9067	769.4609	799.7312	832.7824	954.7995	1009.4988	1100.6475	1201.4611	1272.2085	1277.1614	1366.5737	1373.3048	1479.7447	1535.2837	1650.8342	1666.3529	3206.4992	3230.1485	3771.7961
OC1=NC(F)=CC=C1F	Oc1nc(F)ccc1F	
InChI=1S/C5H3F2NO/c6-3-1-2-4(7)8-5(3)9/h1-2H,(H,8,9)	InChI=1S/C5H3F2NO/c6-3-1-2-4(7)8-5(3)9/h1-2H,(H,8,9)
