16
gdb 29333	2.03799	1.84705	0.97586	1.212	81.73	-0.195	0.0006	0.1956	1163.0306	0.123182	-400.752643	-400.743636	-400.742691	-400.786099	33.533	
C	 0.1074432723	 1.4828240292	 0.0753557176	-0.505297
C	-0.0140906992	 0.0041522518	 0.0445999126	 0.261549
C	-1.10332072	-0.8274374618	-0.0468504349	 0.035933
C	-2.4653277195	-0.4699534195	-0.1321903835	 0.198225
C	-3.641669393	-0.2112699677	-0.1949785955	-0.439883
C	-0.5843498	-2.1811815389	-0.0256958241	 0.111433
N	-1.3694221803	-3.323445116	-0.1671313439	-0.62147
C	 0.765337038	-2.0565255123	 0.0795483646	-0.097573
O	 1.1159486454	-0.7243564381	 0.1218016796	-0.181999
H	 0.713589642	 1.8504259768	-0.7604019511	 0.142387
H	-0.8855054719	 1.9315774973	 0.0080745356	 0.147844
H	 0.5834942727	 1.825261897	 1.0011636318	 0.141076
H	-4.6725064126	 0.0327554579	-0.263186542	 0.185868
H	-2.3257334635	-3.1730524261	 0.1270222921	 0.251141
H	-0.9859310591	-4.1468889216	 0.2753794123	 0.24597
H	 1.5782466986	-2.759738988	 0.127581889	 0.124795
106.6418	121.7962	137.1072	201.669	242.841	266.358	348.8048	383.3315	481.7497	525.0683	539.5437	562.7533	605.0272	649.4926	663.5308	671.4124	682.8232	743.7448	774.8856	957.4277	1050.1072	1059.1058	1120.4562	1143.2162	1212.7122	1286.3201	1346.689	1410.1446	1448.5093	1473.595	1482.741	1600.7689	1645.5687	1674.2128	2222.646	3030.9647	3081.8808	3136.5497	3288.2673	3503.2097	3545.3548	3641.6354
CC1=C(C#C)C(N)=CO1	Cc1c(C#C)c(N)co1	
InChI=1S/C7H7NO/c1-3-6-5(2)9-4-7(6)8/h1,4H,8H2,2H3	InChI=1S/C7H7NO/c1-3-6-5(2)9-4-7(6)8/h1,4H,8H2,2H3
