19
gdb 82489	3.22636	1.48494	1.38317	1.3991	74.17	-0.2421	0.072	0.3141	999.0367	0.159743	-422.983174	-422.975377	-422.974433	-423.014939	31.574	
O	-0.0603453195	 1.4632701034	-0.014950647	-0.431181
C	-0.014777527	 0.055897832	 0.0520222809	 0.144787
C	 0.3103289177	-0.6438786527	 1.3992846167	-0.100984
C	-0.4390110915	-0.0181928368	 2.6006652645	-0.294272
C	-1.741071046	-0.7276426139	 2.1452531716	 0.414241
O	-2.545399262	-1.3316624799	 3.1164340339	-0.486036
C	-2.4281790106	-0.011991704	 0.9543142121	-0.293972
C	-1.3890724986	-0.6357663849	-0.0104759475	-0.070421
C	-0.911861303	-1.5994492546	 1.1396320658	-0.092885
H	 0.8380298311	 1.8017616521	 0.0570989996	 0.282322
H	 0.6341738534	-0.3609488635	-0.7329825934	 0.064186
H	 1.3365673671	-0.9765373218	 1.5594355478	 0.0597
H	-0.0958049995	-0.4592095077	 3.5408059277	 0.100184
H	-0.4437939817	 1.073358978	 2.6797104513	 0.091366
H	-3.0068441689	-0.6358692939	 3.5988487517	 0.274251
H	-3.4131960308	-0.4573331992	 0.7870438245	 0.099862
H	-2.5098703738	 1.0781080938	 0.9755459764	 0.103036
H	-1.7427286043	-0.9563896687	-0.9898915087	 0.066748
H	-0.8919444523	-2.6846940077	 1.1090785221	 0.069066
149.0949	176.1413	215.0705	269.8575	301.3158	392.9058	396.3086	462.8007	548.1318	595.8175	618.6701	703.8461	791.1227	837.1879	844.9467	878.6518	921.375	933.7274	940.5521	977.9322	1018.7649	1035.1775	1057.5033	1095.3375	1102.4778	1134.2581	1159.1184	1172.9712	1181.4053	1204.498	1233.0805	1246.4459	1251.3898	1287.1462	1298.4017	1339.645	1346.9001	1366.6656	1419.6089	1466.0844	1482.4132	2983.8713	3045.0621	3051.862	3093.0172	3105.4613	3106.0872	3112.9455	3163.6406	3788.7866	3813.7268
OC1C2CC3(O)CC1C23	O[C@H]1[C@H]2C[C@@]3(O)C[C@@H]1[C@@H]23	
InChI=1S/C7H10O2/c8-6-3-1-7(9)2-4(6)5(3)7/h3-6,8-9H,1-2H2	InChI=1S/C7H10O2/c8-6-3-1-7(9)2-4(6)5(3)7/h3-6,8-9H,1-2H2/t3-,4+,5+,6-,7+
