18
gdb 117530	2.23583	1.272	0.85491	6.8342	74.53	-0.2457	0.0278	0.2734	1327.0266	0.146681	-439.081376	-439.071856	-439.070911	-439.116189	34.791	
N	-0.5213189016	 1.7900421356	 0.4358238062	-0.508176
H	 0.3714217563	 1.9620903151	-0.0189274896	 0.254067
H	-0.4646307977	 3.0401539426	 1.6421213897	 0.317488
H	-1.2233748789	 1.7710043351	-0.2962567719	 0.251246
C	-0.4847445598	 0.5108489392	 1.1705972529	-0.173939
C	 0.1998407928	 0.6538476136	 2.5327450371	-0.207155
C	-0.5658710041	 1.5628519034	 3.5525748678	-0.378484
C	-0.5059921494	 0.9999512085	 4.8958326973	 0.361644
C	-0.4604802307	 0.4844677368	 5.9794863465	-0.432775
C	-0.0831599769	 3.0409136213	 3.5478526579	 0.429701
O	 0.3230432812	 3.5991409121	 4.529951785	-0.322823
O	-0.1737850699	 3.6585122959	 2.3681269094	-0.392818
H	-1.5208942279	 0.1888203367	 1.3229309601	 0.123472
H	 0.014200173	-0.2819263147	 0.5961712777	 0.106122
H	 0.2813246993	-0.3443686621	 2.9697657781	 0.132057
H	 1.2262988458	 1.0182750287	 2.406669036	 0.122556
H	-1.6209130904	 1.5921940756	 3.2408264631	 0.122823
H	-0.4166818412	 0.0592353968	 6.9513992567	 0.194993
55.8985	78.686	144.0713	196.0224	224.9834	245.7113	304.9609	335.9517	377.8262	463.0361	479.7743	518.2079	628.97	641.9619	646.8734	728.7571	834.5177	849.6864	909.1839	931.9447	973.3037	1026.478	1049.3689	1060.734	1104.1656	1151.5934	1218.1603	1272.247	1279.4261	1331.2331	1340.3589	1382.1291	1416.6914	1482.805	1485.8991	1503.8861	1654.5433	1860.6051	2245.628	2993.342	3005.8457	3043.6781	3071.5932	3103.4478	3149.0626	3498.0514	3505.4348	3578.834
[NH3+]CCC(C#C)C([O-])=O	NCC[C@@H](C#C)C(=O)O	
InChI=1S/C6H9NO2/c1-2-5(3-4-7)6(8)9/h1,5H,3-4,7H2,(H,8,9)	InChI=1S/C6H9NO2/c1-2-5(3-4-7)6(8)9/h1,5H,3-4,7H2,(H,8,9)/t5-/m1/s1
