20
gdb 111707	2.93728	1.16187	0.9705	1.7968	87.59	-0.2266	0.0204	0.247	1299.1803	0.16981	-365.937068	-365.92792	-365.926976	-365.970909	34.863	
C	 0.0377972655	 1.451388492	-0.2463638752	-0.374042
C	 0.0630253049	 0.0131588482	 0.2885215141	-0.223887
C	-1.3033829559	-0.636507456	 0.2333629842	-0.011962
N	-1.9847308384	-1.0930169261	-0.9933564074	-0.185567
C	-0.9479120124	-1.7443762115	-1.8725894753	-0.15604
C	-0.5803708969	-2.798774586	-0.8050120719	-0.315018
C	-1.5804282263	-2.09469893	 0.1231328665	 0.131572
C	-2.512895942	-2.7763617173	 0.9582142823	 0.207584
C	-3.2704549943	-3.3778153988	 1.6746808892	-0.393462
H	 1.0247591032	 1.9168860193	-0.1684737855	 0.114309
H	-0.2684895078	 1.4777382368	-1.2968377355	 0.128542
H	-0.6700362704	 2.0683325581	 0.3171052239	 0.121608
H	 0.8080366575	-0.5737236057	-0.2560782449	 0.102952
H	 0.3875353904	 0.0143202576	 1.3365667913	 0.108193
H	-2.0318244772	-0.1258187929	 0.8622693589	 0.101511
H	-1.441749394	-2.1666004392	-2.7490241734	 0.116432
H	-0.1568988531	-1.0678884889	-2.2091334646	 0.107273
H	-0.9105566862	-3.802704158	-1.0733603037	 0.124061
H	 0.4536049183	-2.8502252284	-0.4523594767	 0.106536
H	-3.9470940547	-3.900814353	 2.3039730237	 0.189407
71.106	125.9845	141.331	198.4729	205.4716	285.5923	313.7172	385.7315	492.8156	506.0682	559.5967	583.5897	617.6409	655.8603	704.2882	790.1942	795.6833	803.0847	860.828	930.848	960.3449	975.7843	1019.4405	1068.2601	1115.2329	1126.2941	1136.0429	1187.3581	1217.6826	1224.2033	1261.6171	1290.088	1312.3586	1319.3951	1346.8272	1410.8621	1454.1947	1479.235	1491.0515	1496.5329	1506.0157	1517.8308	2228.9674	3035.9599	3037.303	3057.5123	3063.5487	3081.9631	3107.3474	3110.9562	3112.2794	3121.8184	3133.2839	3502.5692
CCC1N2CCC12C#C	CC[C@H]1N2CC[C@@]12C#C	
InChI=1S/C8H11N/c1-3-7-8(4-2)5-6-9(7)8/h2,7H,3,5-6H2,1H3	InChI=1S/C8H11N/c1-3-7-8(4-2)5-6-9(7)8/h2,7H,3,5-6H2,1H3/t7-,8+,9?/m1/s1
