18
gdb 13338	5.26222	1.13818	0.99182	2.8973	74.31	-0.244	-0.0207	0.2232	1170.1995	0.153706	-347.827409	-347.81945	-347.818506	-347.860885	28.679	
O	-0.1902496574	-0.0760821821	-0.0745573027	-0.241723
C	-0.0700651104	 1.1208852469	-0.0195154901	 0.159576
C	 1.2406628098	 1.8704397356	-0.0605240434	-0.28221
C	 1.3006423758	 2.8644947646	-1.2393015115	-0.028721
C	 2.5608512672	 3.771933753	-1.2189040171	-0.22805
C	 2.9554812731	 3.9732351549	-2.703354876	-0.255032
C	 2.2785150679	 2.8106969686	-3.3914568954	-0.06781
C	 1.3857842302	 2.2133292794	-2.6052145136	-0.059603
H	-0.9676545687	 1.7808587665	 0.0591098708	 0.068653
H	 1.325542069	 2.4347967508	 0.8796470079	 0.115212
H	 2.0627023035	 1.1502301847	-0.108807588	 0.119645
H	 0.3921475842	 3.486758631	-1.1927425476	 0.081348
H	 2.3918772132	 4.7117744836	-0.6868292837	 0.098629
H	 3.3680195492	 3.2444494418	-0.6986261529	 0.106225
H	 2.5799457469	 4.9273233517	-3.0997884176	 0.107934
H	 4.0409847951	 3.9871488957	-2.8510663895	 0.105806
H	 2.4856382247	 2.539310399	-4.4208481661	 0.095296
H	 0.7562235366	 1.3767763842	-2.8892372736	 0.104824
48.1303	74.824	111.8613	205.2156	291.5462	344.0619	464.3163	528.7506	608.3068	746.4829	755.0037	803.6736	850.1333	889.3611	921.4429	960.1439	971.6343	984.4686	1027.9579	1059.0074	1097.7623	1104.9372	1142.7976	1177.2003	1201.1307	1226.0223	1264.5726	1307.3822	1319.0847	1332.7164	1353.4392	1389.6049	1429.6411	1462.6577	1482.9146	1499.023	1686.4337	1833.55	2840.768	2966.8639	3008.2517	3010.82	3042.5329	3060.3606	3096.1186	3098.7722	3181.2051	3206.3161
O=CCC1CCC=C1	O=CC[C@H]1CCC=C1	
InChI=1S/C7H10O/c8-6-5-7-3-1-2-4-7/h1,3,6-7H,2,4-5H2	InChI=1S/C7H10O/c8-6-5-7-3-1-2-4-7/h1,3,6-7H,2,4-5H2/t7-/m1/s1
