16
gdb 55506	3.59011	0.9895	0.77977	3.0036	68.89	-0.2538	-0.0647	0.189	1398.2513	0.12331	-471.279085	-471.269446	-471.268502	-471.314449	33.869	
C	-0.0347655089	 1.5587371914	 0.1145980771	-0.469262
C	-0.06089043	 0.0581730715	 0.0183034369	 0.370517
O	 0.9386769678	-0.6304042204	-0.0317049217	-0.326205
C	-1.4267304536	-0.6122818536	-0.0207279551	 0.268867
N	-2.4789668276	 0.1001587287	 0.0190386063	-0.500744
N	-1.295710684	-1.9950947167	-0.0989196789	-0.401466
C	-2.3421706775	-2.9020313764	-0.1691812933	 0.488293
N	-1.9306387163	-4.2123624422	-0.2630201642	-0.565601
O	-3.5146481553	-2.573922167	-0.1854609222	-0.380642
H	 0.9990706186	 1.9038628771	 0.1339503946	 0.136787
H	-0.5732573442	 1.9957804373	-0.7309904861	 0.163965
H	-0.5689407324	 1.8845556972	 1.0115748583	 0.162705
H	-3.3082940958	-0.4972670711	-0.0244397078	 0.259239
H	-0.3308234042	-2.2985628792	-0.1501167898	 0.263182
H	-1.02247382	-4.4835191446	 0.0781526919	 0.259441
H	-2.6687805464	-4.8860101818	-0.1345150159	 0.270922
60.4933	79.4159	88.8228	126.4537	160.8281	293.9662	331.6642	357.1905	410.8587	413.4279	489.0086	545.5445	569.8642	652.5625	655.4365	702.5536	776.6999	861.9569	932.0649	968.6721	1006.4522	1059.6943	1105.4244	1127.8048	1217.0482	1300.0457	1382.2781	1407.6494	1451.1218	1457.5407	1533.3051	1627.7463	1712.6264	1786.4391	1804.1326	3058.316	3122.708	3164.7117	3456.1419	3562.2408	3592.6912	3713.0853
CC(=O)C(=N)NC(N)=O	CC(=O)C(=N)NC(=O)N	
InChI=1S/C4H7N3O2/c1-2(8)3(5)7-4(6)9/h1H3,(H4,5,6,7,9)	InChI=1S/C4H7N3O2/c1-2(8)3(5)7-4(6)9/h1H3,(H4,5,6,7,9)
