20
gdb 16391	2.99345	2.22254	1.71195	1.2624	73.82	-0.2556	0.0711	0.3267	859.1709	0.179095	-348.995612	-348.988268	-348.987324	-349.026613	29.776	
C	-0.157080877	 1.5374212803	-0.0317885163	-0.421869
C	 0.0575594364	 0.0252580905	-0.0437245991	 0.001411
C	 0.9912742765	-0.5106218375	-1.152974365	-0.015885
C	 1.1876133798	-1.984351403	-0.6939932343	-0.239315
C	 1.9569068847	-1.307134231	 0.4753897911	-0.017413
C	 2.4144769569	-0.2537944409	-0.5737756987	-0.224331
C	 0.8335223001	-0.5580546869	 1.2050954107	 0.118715
O	 1.4087363013	 0.4136566411	 2.0642674718	-0.434362
H	 0.7837495016	 2.0855493077	 0.0587376518	 0.130029
H	-0.6522110828	 1.8595611958	-0.9539223573	 0.111908
H	-0.800375764	 1.8456176935	 0.8012858663	 0.0985
H	-0.9213775193	-0.4625282954	-0.1258829084	 0.062592
H	 0.7327763687	-0.2553709257	-2.1821852441	 0.053194
H	 0.2949995589	-2.5741871922	-0.4592397561	 0.08379
H	 1.8508967013	-2.5522818929	-1.3502032137	 0.095743
H	 2.6627643248	-1.8491082243	 1.1047886623	 0.061809
H	 3.2009444553	-0.636744536	-1.22817563	 0.091697
H	 2.6716150421	 0.744033431	-0.2151469792	 0.10559
H	 0.2008388824	-1.2451037081	 1.7850077147	 0.056709
H	 0.6965011325	 0.8920029041	 2.4990650338	 0.281486
152.0307	198.7738	264.5004	280.9663	292.1339	382.2104	478.3794	507.1621	540.6269	698.1799	779.1874	806.7856	839.7398	857.6032	875.2605	911.9277	954.4196	985.5371	1009.581	1033.9618	1037.5978	1071.719	1080.0417	1106.177	1116.5491	1150.255	1153.3839	1202.8324	1225.423	1246.5549	1262.6628	1272.5273	1297.4232	1333.4841	1343.9408	1374.1283	1408.3979	1425.0223	1486.9927	1495.7851	1502.9868	1521.9299	2988.5757	3023.9202	3030.7176	3043.5114	3071.4996	3084.7391	3096.7132	3110.7467	3117.7039	3121.068	3133.6509	3825.9021
CC1C2CC(C2)C1O	C[C@H]1[C@@H]2C[C@@H](C2)[C@H]1O	
InChI=1S/C7H12O/c1-4-5-2-6(3-5)7(4)8/h4-8H,2-3H2,1H3	InChI=1S/C7H12O/c1-4-5-2-6(3-5)7(4)8/h4-8H,2-3H2,1H3/t4-,5-,6+,7-/m0/s1
