20
gdb 30344	2.85248	1.55937	1.05771	1.5463	85.9	-0.1965	0.0454	0.2419	1155.0387	0.174328	-366.064646	-366.056785	-366.055841	-366.096706	31.518	
C	-0.0999148312	 1.57716186	-0.0239006881	-0.393071
C	 0.0220031573	 0.0515466006	 0.0206010567	-0.114574
C	 0.8022360223	-0.5479284131	-1.1925375962	-0.203188
C	 1.4804136919	-1.8599022814	-0.6974009184	-0.361136
C	 1.6318434485	-1.5904984097	 0.773910113	 0.257156
C	 2.2941598583	-2.0564555845	 1.8816988988	-0.248576
N	 1.881125554	-1.2810106214	 2.9455571535	-0.238116
C	 0.9717202099	-0.3309280156	 2.5300666954	-0.261301
C	 0.8037148822	-0.5098633153	 1.1792076472	 0.287256
H	 0.8901393098	 2.0456857039	-0.0162426382	 0.113438
H	-0.6248849953	 1.9051218459	-0.9279163576	 0.106739
H	-0.6572152691	 1.9572217678	 0.838966108	 0.108413
H	-0.9951250977	-0.369666094	 0.02659933	 0.074905
H	 0.1619374285	-0.7031349258	-2.0661591456	 0.087675
H	 1.5824911619	 0.165443738	-1.4844072578	 0.098446
H	 0.830363658	-2.7265614368	-0.8802774114	 0.101976
H	 2.4214714207	-2.058556567	-1.2207051936	 0.100287
H	 3.0129816821	-2.8476556543	 2.0237931141	 0.114502
H	 2.2285726476	-1.3676030861	 3.8843533533	 0.255603
H	 0.5484959702	 0.3694462792	 3.2323768468	 0.113565
119.7226	163.2719	225.406	244.7758	281.343	427.2492	449.7604	487.1815	555.5268	623.3386	629.5113	678.8639	699.3935	724.2527	749.966	824.498	906.6911	932.1521	953.6881	972.529	1017.7623	1068.5569	1085.2121	1100.6536	1113.441	1167.303	1188.1069	1209.8506	1252.4392	1297.194	1312.1031	1319.1487	1332.4812	1366.6362	1407.5626	1415.5003	1463.7929	1484.4685	1494.5887	1498.8068	1501.0404	1560.8865	1630.9954	2976.1941	3008.8642	3025.7903	3033.6679	3064.6105	3086.968	3092.6878	3099.0973	3254.7207	3257.5213	3683.3424
CC1CCC2=CNC=C12	C[C@H]1CCc2c[nH]cc12	
InChI=1S/C8H11N/c1-6-2-3-7-4-9-5-8(6)7/h4-6,9H,2-3H2,1H3	InChI=1S/C8H11N/c1-6-2-3-7-4-9-5-8(6)7/h4-6,9H,2-3H2,1H3/t6-/m0/s1
