15
gdb 127486	3.23144	1.47746	1.02158	5.36	73.66	-0.2189	-0.0739	0.145	1100.3845	0.113763	-450.157306	-450.149173	-450.148229	-450.190222	29.871	
C	-0.0145053471	 1.4468319174	-0.0187118282	-0.310013
N	 0.0158348839	-0.0101423965	-0.0078807257	-0.060574
N	-0.013341966	-0.6188259466	-1.2079815741	-0.266984
C	 0.032977784	-1.9213986801	-1.2040229502	 0.351877
N	 0.1052900474	-2.6038173761	-2.4130628904	-0.568794
C	 0.0825400542	-2.6358379011	 0.0430093251	-0.014991
N	 0.0829154588	-2.0521959075	 1.1939832891	-0.299813
C	 0.0515608664	-0.65348375	 1.2351008818	 0.462104
O	 0.054991907	-0.0067229338	 2.2625594638	-0.387806
H	 0.8693866888	 1.8412526261	 0.4890281179	 0.155165
H	-0.0377487032	 1.7681871796	-1.0585119098	 0.142321
H	-0.8961110387	 1.8066418934	 0.5181558161	 0.153933
H	-0.109185693	-2.0169064936	-3.2083374968	 0.260643
H	-0.4046986972	-3.4757235464	-2.4389765405	 0.258136
H	 0.1212978147	-3.7271282748	 0.0255845319	 0.124796
70.4277	117.4373	190.6532	274.8562	311.1179	345.6488	359.52	396.8512	516.8252	540.6187	584.0667	625.0618	675.2092	709.9936	803.9163	849.3759	954.9632	980.9861	1041.3033	1107.8688	1142.7811	1148.9319	1258.2767	1336.7844	1374.6452	1438.2217	1470.2378	1472.4319	1502.4265	1564.7194	1637.0878	1684.9106	1783.6188	3056.402	3105.6701	3119.0034	3176.1989	3552.3453	3654.6714
CN1N=C(N)C=NC1=O	Cn1nc(N)cnc1=O	
InChI=1S/C4H6N4O/c1-8-4(9)6-2-3(5)7-8/h2H,1H3,(H2,5,7)	InChI=1S/C4H6N4O/c1-8-4(9)6-2-3(5)7-8/h2H,1H3,(H2,5,7)
