18
gdb 7353	4.18206	1.13092	0.94823	3.0755	65.41	-0.2649	0.0053	0.2702	1252.5701	0.151179	-422.11963	-422.110062	-422.109118	-422.154861	33.157	
C	-0.1610105273	 1.4475665657	 0.0431001644	-0.392481
C	-0.0281235785	-0.0620864122	 0.0338619141	-0.04764
O	-1.3629153028	-0.6183050299	-0.0121549863	-0.238847
C	-1.4461019227	-1.9504263425	-0.0188460337	 0.421516
O	-0.4954542951	-2.6992100678	 0.012343972	-0.380453
C	-2.8856329407	-2.4524498958	-0.0687666449	 0.045323
C	-3.5956043246	-1.9963139625	-1.3501815591	-0.39283
O	-2.8868364714	-3.8544759878	 0.0343452031	-0.438549
H	 0.8321312667	 1.9049012475	 0.0770274818	 0.127592
H	-0.6724662361	 1.8004877135	-0.8566700673	 0.13298
H	-0.7260499241	 1.7850371529	 0.9163134136	 0.133513
H	 0.5309805621	-0.4221807149	-0.8349986755	 0.127672
H	 0.4753839749	-0.4382753635	 0.9294352967	 0.128324
H	-3.4076210886	-2.0156570314	 0.7969727529	 0.099201
H	-3.0680854043	-2.3729027903	-2.231823671	 0.124017
H	-4.6094424813	-2.4036277152	-1.3596158753	 0.132139
H	-3.6486227364	-0.9060221663	-1.4030653214	 0.124554
H	-1.9543863898	-4.1175790596	 0.0530690759	 0.293968
37.198	68.3516	116.5674	144.5452	231.294	249.1791	281.73	334.1186	359.6401	385.5558	423.0192	487.6695	660.0912	762.1014	808.042	870.9578	891.2728	946.1952	1044.7229	1057.2307	1104.7295	1135.7902	1168.7698	1182.1421	1253.1159	1292.5017	1297.7523	1358.2088	1392.6068	1400.9474	1421.1347	1447.6922	1485.7973	1492.138	1496.1164	1499.488	1519.0874	1796.3189	2986.3342	3046.2758	3048.1732	3056.395	3095.8906	3123.1644	3123.3128	3129.5057	3134.0968	3713.0757
CCOC(=O)C(C)O	CCOC(=O)[C@@H](C)O	
InChI=1S/C5H10O3/c1-3-8-5(7)4(2)6/h4,6H,3H2,1-2H3	InChI=1S/C5H10O3/c1-3-8-5(7)4(2)6/h4,6H,3H2,1-2H3/t4-/m1/s1
