19
gdb 117306	4.02079	0.79415	0.72356	2.5251	74.32	-0.2498	-0.0223	0.2275	1613.0069	0.155823	-460.224761	-460.214311	-460.213367	-460.262438	35.696	
C	 0.5562572194	 1.0339805993	 0.2111195818	-0.387194
C	-0.2491597069	-0.2455739338	 0.0486217829	-0.056483
O	-0.068285723	-0.8193506963	-1.2677180958	-0.230512
C	 0.9932892201	-1.6243205911	-1.4310897019	 0.434025
O	 1.7882274131	-1.8912235159	-0.5615397991	-0.363066
C	 1.0517362399	-2.1595407403	-2.8534710753	-0.396989
C	 1.0832816321	-3.6994996362	-2.8772724847	 0.383723
C	 2.3799586783	-4.3507431727	-2.4537464978	-0.484579
O	 0.1114762795	-4.3214704298	-3.2295587998	-0.286634
H	 1.6273721413	 0.8241139115	 0.1636669541	 0.144381
H	 0.3001368349	 1.7574241859	-0.5681850788	 0.128303
H	 0.3380715345	 1.4855120788	 1.1840533492	 0.124727
H	 0.034509558	-0.9892455222	 0.7964103972	 0.135534
H	-1.3225627092	-0.054887891	 0.1136672301	 0.119788
H	 0.189941073	-1.8162388056	-3.4235025021	 0.144003
H	 1.9737638056	-1.7725489973	-3.3018754692	 0.139774
H	 2.7108518793	-3.9322606565	-1.4988898183	 0.174298
H	 2.2511866758	-5.4315139225	-2.3880379663	 0.139184
H	 3.1591229444	-4.1209504942	-3.1910841563	 0.137716
22.2014	48.7538	64.6025	114.7262	162.7263	172.8268	224.0441	292.855	347.9707	385.323	456.3795	495.9644	546.989	621.8379	735.5087	791.3618	811.2892	865.3503	891.5517	932.6645	1025.5516	1050.0813	1059.6866	1116.3132	1147.6638	1191.2859	1203.2422	1253.3393	1314.5205	1330.6254	1383.5703	1399.45	1420.2399	1454.8311	1469.6701	1475.7902	1484.7649	1487.272	1506.6428	1796.2765	1826.2146	3036.6218	3046.5782	3055.9301	3074.4365	3107.2184	3114.8266	3122.8576	3142.6566	3155.6952	3159.616
CCOC(=O)CC(C)=O	CCOC(=O)CC(=O)C	
InChI=1S/C6H10O3/c1-3-9-6(8)4-5(2)7/h3-4H2,1-2H3	InChI=1S/C6H10O3/c1-3-9-6(8)4-5(2)7/h3-4H2,1-2H3
