16
gdb 20804	3.12564	1.83502	1.26008	1.3152	67.2	-0.2046	0.0263	0.2309	965.0519	0.131525	-379.941971	-379.933825	-379.93288	-379.975849	29.08	
C	 0.1271009782	 1.5853301752	-0.1324992478	-0.366789
C	 0.0041190367	 0.0559478236	-0.0000300258	-0.306725
C	 0.643093906	-0.4945442147	 1.233501488	 0.293781
C	 0.1160710478	-0.7938522436	 2.4770595029	 0.162646
O	-1.2006692741	-0.6383923537	 2.8050752318	-0.451025
C	 1.1989527251	-1.2544196953	 3.2549959255	-0.117868
N	 2.3332558267	-1.2478586561	 2.5537256639	-0.225072
N	 1.9727357601	-0.7823921096	 1.3485293694	-0.252086
H	 1.175925008	 1.8971915038	-0.1658058284	 0.114282
H	-0.3600015973	 1.9363344734	-1.0476684538	 0.114164
H	-0.3421088515	 2.0854147657	 0.7194108658	 0.132969
H	-1.0541151393	-0.2238302593	 0.0169715812	 0.129906
H	 0.4366199959	-0.4256030529	-0.8865376315	 0.103802
H	-1.3422094357	-0.9918440354	 3.6878405182	 0.299185
H	 1.1976723816	-1.5904633099	 4.2824202214	 0.100427
H	 2.6726288318	-0.7007276512	 0.6306891891	 0.268405
15.9718	142.6369	183.4639	192.3444	271.4279	302.6222	396.4513	451.1063	482.6258	636.7839	695.9626	706.5685	729.8292	782.9499	838.1497	946.0664	972.7563	1058.3493	1081.4264	1117.8996	1156.0936	1250.5194	1266.7195	1281.4642	1349.2409	1363.1584	1399.3154	1408.4905	1453.5496	1480.2339	1496.731	1504.6324	1541.1504	1663.859	3024.6109	3037.1916	3077.4106	3107.8754	3118.6124	3231.9725	3670.5654	3843.8283
CCC1=C(O)C=NN1	CCc1c(O)cn[nH]1	
InChI=1S/C5H8N2O/c1-2-4-5(8)3-6-7-4/h3,8H,2H2,1H3,(H,6,7)	InChI=1S/C5H8N2O/c1-2-4-5(8)3-6-7-4/h3,8H,2H2,1H3,(H,6,7)
