17
gdb 44565	3.10299	1.63406	1.45171	4.1514	71.95	-0.2462	0.0331	0.2794	946.4169	0.139164	-417.98829	-417.98158	-417.980635	-418.019427	27.173	
N	 0.3661895443	 0.9201247188	 0.628439028	-0.555583
C	 0.1312967992	-0.1870615438	 0.0914122013	 0.448168
O	 0.9235850822	-0.9878233959	-0.7097229851	-0.262236
C	-0.108635881	-2.0260921073	-0.7595337596	 0.108379
C	 0.1462319342	-3.2175787892	 0.1436005317	-0.066954
N	 0.7071331873	-2.8199744522	 1.4496830088	-0.316506
C	-0.7279920644	-3.1082039763	 1.3514216755	-0.030829
C	-1.5781508597	-1.845292866	 1.2764941969	-0.240079
C	-1.0799340955	-1.1011837005	 0.0211830606	-0.167404
H	 1.3213905331	 1.2289142238	 0.4403525744	 0.226226
H	-0.3352564266	-2.2971655847	-1.7917447905	 0.08841
H	 0.4226254321	-4.17507814	-0.284039857	 0.090108
H	 1.2003899414	-3.6077913653	 1.8606446304	 0.237524
H	-1.1242485932	-3.9917127668	 1.8430534337	 0.090881
H	-2.633392478	-2.1138616171	 1.1632585271	 0.104294
H	-1.4809915141	-1.2326227698	 2.1770627289	 0.136475
H	-1.8887762013	-0.6576323178	-0.5614750753	 0.109124
101.4503	205.3395	260.0789	372.6624	417.6185	542.2369	604.9197	642.6821	681.7227	773.6607	817.6035	842.686	851.8645	862.2233	880.4646	913.7351	935.6674	968.7341	985.8612	1007.8064	1038.0221	1068.9939	1088.0201	1121.2993	1159.9998	1179.3467	1215.5842	1229.4049	1239.3116	1287.0233	1299.0464	1342.1937	1352.9552	1382.93	1425.013	1477.8765	1826.0947	3053.4964	3098.4528	3103.7156	3110.6122	3154.0616	3173.8143	3477.1276	3512.4118
N=C1OC2C3NC3CC12	[NH][C]1O[C@H]2[C@H]3N[C@H]3C[C@@H]12	
InChI=1S/C6H8N2O/c7-6-2-1-3-4(8-3)5(2)9-6/h2-5,7-8H,1H2	InChI=1S/C6H8N2O/c7-6-2-1-3-4(8-3)5(2)9-6/h2-5,7-8H,1H2/t2-,3+,4+,5-/m1/s1
