19
gdb 11578	3.92415	1.13267	0.9341	0.9467	68.42	-0.2314	0.0615	0.2929	1245.5178	0.164037	-402.150508	-402.141388	-402.140444	-402.184659	32.948	
O	 0.1550909138	 0.5796738056	 1.0254503318	-0.408946
C	-0.1196372108	 0.2726094911	-0.331414896	-0.092333
C	-1.4301477145	-0.505029786	-0.5257690883	 0.089989
O	-1.7067934988	-0.6578858935	-1.9136842256	-0.425925
C	-1.4215991202	-1.8349154027	 0.2278162924	-0.151652
N	-2.7569868997	-2.3991935676	 0.333056616	-0.059732
C	-3.2032238134	-3.2602271731	-0.7539524498	-0.201595
C	-2.8481511663	-3.8350866513	 0.5726128796	-0.227949
H	-0.516220121	 1.1994421361	 1.3291587431	 0.288177
H	-0.1531196378	 1.1717168333	-0.9630895948	 0.100903
H	 0.7265064848	-0.3372090492	-0.6751182851	 0.099123
H	-2.2623685043	 0.0970871065	-0.1393151082	 0.093065
H	-1.0095349509	-1.2053411419	-2.2924705275	 0.277797
H	-0.7076807356	-2.5217299543	-0.2732426204	 0.060404
H	-1.0387507967	-1.6544155025	 1.2379051654	 0.120015
H	-4.2413676813	-3.1472767398	-1.052053341	 0.117293
H	-2.515486007	-3.4426069886	-1.5771252842	 0.09952
H	-1.9202599368	-4.4021650572	 0.6363628193	 0.106214
H	-3.6208488838	-4.1506024949	 1.2679625632	 0.11563
59.9597	95.4663	133.8715	172.8701	217.848	295.4473	318.569	341.7165	387.9993	448.4281	468.0382	529.3632	764.8565	832.5956	861.8845	899.1672	944.0066	1018.7689	1029.8278	1038.2954	1079.2849	1107.9385	1113.6822	1117.1457	1131.1278	1165.9107	1170.1207	1188.1777	1249.6529	1320.8081	1326.4296	1332.3394	1375.4894	1401.1515	1416.1506	1423.1119	1485.0437	1493.9859	1502.3633	1522.8612	2885.4563	3001.5112	3033.5883	3055.6022	3074.2446	3092.3377	3103.5697	3176.0756	3191.8016	3793.4883	3814.5048
OCC(O)CN1CC1	OC[C@@H](O)CN1CC1	
InChI=1S/C5H11NO2/c7-4-5(8)3-6-1-2-6/h5,7-8H,1-4H2	InChI=1S/C5H11NO2/c7-4-5(8)3-6-1-2-6/h5,7-8H,1-4H2/t5-/m0/s1
