14
gdb 56973	3.6235	1.10835	0.95835	5.3681	63.47	-0.2863	-0.0652	0.2212	1174.0498	0.098296	-473.798937	-473.790223	-473.789279	-473.833285	30.164	
O	-0.4599007814	 1.232661597	-0.1150132594	-0.405432
C	-0.0623548787	-0.1055274202	-0.1243750122	-0.033928
C	 0.9703576668	-0.3725112836	-1.1598733268	 0.255723
N	 1.7721592228	-0.5860309192	-1.9633084133	-0.304654
C	 0.4659785892	-0.6236703211	 1.2106500439	 0.038517
O	 1.3741416728	 0.2172137381	 1.8981617721	-0.222685
C	 0.1311999725	-0.0551377666	 2.5400920152	-0.056795
C	-0.7754476804	 1.1126935727	 2.8179638252	 0.146523
O	-0.5297067206	 2.2514818034	 2.5196894185	-0.239879
H	 0.1608345902	 1.7400464025	 0.4294367787	 0.312793
H	-0.9446268149	-0.7007004484	-0.3937560156	 0.150032
H	 0.7440843449	-1.678909266	 1.1851860974	 0.130521
H	 0.1889420682	-0.7520298089	 3.3805617445	 0.128208
H	-1.6885261612	 0.8386579502	 3.3883664318	 0.101055
41.772	106.9503	127.4943	198.9178	211.8488	265.2052	281.3382	373.0987	495.7064	516.0248	573.384	710.5198	726.8532	795.2167	827.07	907.6956	962.1599	997.6407	1004.0731	1111.3755	1131.4382	1152.368	1263.2679	1301.8551	1316.1053	1384.099	1416.8238	1427.9893	1461.8392	1829.5953	2357.9765	2909.7749	3039.1135	3082.4415	3104.8369	3733.0889
OC(C#N)C1OC1C=O	O[C@@H](C#N)[C@H]1O[C@H]1C=O	
InChI=1S/C5H5NO3/c6-1-3(8)5-4(2-7)9-5/h2-5,8H	InChI=1S/C5H5NO3/c6-1-3(8)5-4(2-7)9-5/h2-5,8H/t3-,4-,5+/m0/s1
