20
gdb 107339	3.34609	1.28266	1.07521	2.2622	79.13	-0.2297	0.0191	0.2488	1180.0491	0.172294	-403.152176	-403.143781	-403.142837	-403.185152	32.162	
C	-0.3664848989	 1.4633355019	-0.0283975664	-0.382176
C	 0.2318424117	 0.0519058801	 0.0500629278	-0.264653
C	 0.8130608748	-0.4501199184	-1.2602373291	 0.294419
C	-0.116534794	-1.0386334513	-2.2903366085	-0.333905
C	 0.8499928226	-1.9365388346	-1.534024969	-0.035356
N	 1.9531757881	-2.5126503683	-2.2415225298	-0.257623
C	 2.7577479491	-1.7204164734	-2.8112941456	 0.111048
O	 2.7418060641	-0.3633889242	-2.8178801312	-0.232643
C	 2.0489862874	 0.2875900521	-1.7393355246	-0.141305
H	 0.3922479745	 2.2142774453	-0.2717226575	 0.119127
H	-1.1456136006	 1.5173994597	-0.79582185	 0.121819
H	-0.8148807738	 1.7496255252	 0.9276877094	 0.11657
H	 1.0086728893	 0.0237054547	 0.8262091991	 0.100271
H	-0.5455346959	-0.6512024216	 0.3726197588	 0.101369
H	-1.1711056095	-1.1050915832	-2.0435419546	 0.11315
H	 0.0924486603	-0.8755590763	-3.3422898363	 0.125953
H	 0.4232307568	-2.6038761011	-0.7919234263	 0.091191
H	 3.5812223705	-2.0935033092	-3.4163832955	 0.123484
H	 1.8184549439	 1.2892585384	-2.1136546609	 0.119627
H	 2.7511266796	 0.3917169541	-0.8997996996	 0.109631
88.6934	134.1002	155.4474	221.4358	263.2307	331.6651	362.3891	393.4094	517.7925	538.6387	594.027	705.6497	780.0721	813.7987	864.0712	899.8224	916.8717	934.9368	952.5088	990.1721	1010.2911	1039.6264	1060.6788	1082.353	1095.1655	1130.6242	1142.1095	1168.7021	1251.1193	1273.4708	1290.6045	1352.8016	1366.6715	1386.2468	1409.0671	1413.7066	1426.0687	1479.0249	1487.2572	1500.3764	1506.6108	1514.0983	1723.2244	3003.7605	3014.6032	3035.9605	3052.3147	3077.1171	3104.2562	3108.2334	3128.4794	3152.14	3164.9785	3217.739
CCC12CC1N=COC2	CC[C@]12C[C@H]1N=COC2	
InChI=1S/C7H11NO/c1-2-7-3-6(7)8-5-9-4-7/h5-6H,2-4H2,1H3	InChI=1S/C7H11NO/c1-2-7-3-6(7)8-5-9-4-7/h5-6H,2-4H2,1H3/t6-,7-/m1/s1
