21
gdb 57882	2.68298	1.18607	1.00237	3.2263	79.55	-0.255	-0.0249	0.2302	1287.3878	0.180263	-424.24065	-424.230676	-424.229732	-424.275583	37.391	
C	 0.5404183689	 1.6209673486	 0.1802280088	-0.399928
C	-0.1416872265	 0.2561782438	-0.0435964793	 0.044669
O	 0.1714278019	-0.2424247695	-1.3187735885	-0.437094
C	 0.3284474517	-0.7430292775	 1.0225045117	 0.301173
O	 1.1521640753	-1.5777984063	 0.6880651964	-0.359571
C	-0.1799213559	-0.6581530313	 2.4265997965	 0.243446
C	-1.407284573	 0.1818874446	 2.7292773273	-0.492607
C	 0.0407599552	-1.9192090507	 3.2525954797	-0.278727
C	 0.9216695417	-0.7411126021	 3.4893155654	-0.274726
H	 1.6268085213	 1.501709507	 0.1270705211	 0.128087
H	 0.2312747134	 2.3026452058	-0.615868788	 0.134617
H	 0.2843647691	 2.0697232695	 1.144091857	 0.117642
H	-1.2304215725	 0.3810330206	 0.0275997101	 0.088775
H	 0.8262214989	-0.9412615238	-1.1568888735	 0.289535
H	-2.2839510402	-0.1725204131	 2.1764772703	 0.130579
H	-1.6475582823	 0.119897502	 3.7946504358	 0.120266
H	-1.2642554376	 1.2397480877	 2.490513536	 0.129271
H	-0.7241191565	-2.1531417829	 3.984546317	 0.116832
H	 0.4669741234	-2.7644408604	 2.726552913	 0.142553
H	 1.9419397123	-0.7952440462	 3.1281897487	 0.135921
H	 0.7751355513	-0.1427592958	 4.3820371246	 0.119288
41.2863	94.0715	193.9462	214.1977	214.7121	233.0256	298.3605	310.336	359.2532	363.5513	398.991	450.5986	488.5329	570.0525	724.2377	765.5542	796.3053	828.1304	835.8805	913.0048	953.1907	962.8379	1028.5614	1044.0054	1078.4096	1082.9402	1085.614	1090.8286	1120.9642	1171.3546	1204.9365	1273.3953	1310.4661	1336.3478	1349.3645	1396.2903	1423.238	1446.8524	1454.639	1485.8683	1488.352	1491.5007	1502.4953	1502.799	1754.6977	3020.1136	3037.2859	3045.2181	3100.5825	3109.6102	3122.1558	3129.1231	3137.1696	3143.9587	3227.5673	3244.1559	3675.3883
CC(O)C(=O)C1(C)CC1	C[C@@H](O)C(=O)C1(C)CC1	
InChI=1S/C7H12O2/c1-5(8)6(9)7(2)3-4-7/h5,8H,3-4H2,1-2H3	InChI=1S/C7H12O2/c1-5(8)6(9)7(2)3-4-7/h5,8H,3-4H2,1-2H3/t5-/m1/s1
