17
gdb 27538	4.20387	1.10619	0.94512	1.0028	76.42	-0.2247	0.0095	0.2342	1253.332	0.136526	-418.015273	-418.007144	-418.0062	-418.048787	29.718	
C	 0.0952746838	 1.4706928728	 0.1171440477	-0.488102
C	-0.0258911635	-0.0078993942	 0.0283200388	 0.393345
N	-1.0461229569	-0.753632768	 0.3147878888	-0.353884
C	-0.6202812579	-2.0561796934	 0.0525309476	 0.295633
C	 0.6594523716	-2.0159050097	-0.3859023169	-0.132676
O	 1.0548176842	-0.7028855161	-0.4063809527	-0.175111
N	-1.409923557	-3.2046127597	 0.2238385339	-0.200245
C	-2.3645326879	-3.1854997538	 1.3464486918	-0.222846
C	-2.8509855796	-3.0592366662	-0.0475039774	-0.222801
H	 0.8990925032	 1.7589965738	 0.8024240999	 0.147019
H	 0.3248410908	 1.9059799105	-0.8609547178	 0.147026
H	-0.8465874429	 1.8834681216	 0.4787940361	 0.155022
H	 1.3758033177	-2.7538063552	-0.698708556	 0.14738
H	-2.4543211512	-4.1277512038	 1.8786965745	 0.117992
H	-2.3878428007	-2.2897483475	 1.9597186015	 0.137054
H	-3.1980329024	-2.0795400619	-0.3617291205	 0.137242
H	-3.3028312912	-3.9076078493	-0.5527741391	 0.117951
56.381	91.2402	157.4848	170.7968	267.938	338.1063	452.1747	469.8657	581.3765	665.62	719.4197	728.6818	771.4695	824.544	850.8345	909.4701	941.2374	1011.1574	1044.2481	1046.5979	1065.5417	1110.7893	1132.9053	1134.7134	1161.5376	1184.665	1209.6189	1240.2956	1346.3703	1347.1518	1413.3594	1476.0389	1479.7326	1481.3533	1507.5219	1626.6724	1646.729	3044.6489	3099.1149	3115.8465	3118.5001	3157.7087	3203.945	3217.9833	3306.5106
CC1=NC(=CO1)N1CC1	Cc1nc(co1)N1CC1	
InChI=1S/C6H8N2O/c1-5-7-6(4-9-5)8-2-3-8/h4H,2-3H2,1H3	InChI=1S/C6H8N2O/c1-5-7-6(4-9-5)8-2-3-8/h4H,2-3H2,1H3
