18
gdb 9144	4.84328	0.74739	0.67817	1.1205	73.54	-0.2507	0.0345	0.2852	1635.1935	0.151211	-384.901244	-384.891033	-384.890089	-384.938147	34.605	
C	 0.1041946545	 1.4818658106	 0.1288355903	-0.382895
C	-0.0340894455	-0.0428038451	-0.0486107668	-0.137533
C	-1.5077749644	-0.4832303182	-0.0302121721	-0.068939
O	-2.0427364217	-0.1327991088	 1.2358224471	-0.419773
C	 0.6152907736	-0.507471174	-1.2724920115	 0.029937
C	 1.12282478	-0.8771785584	-2.3016052712	 0.062634
C	 1.7892355028	-1.3578470853	-3.5115210711	-0.191828
O	 2.157138732	-2.7300945811	-3.4516979183	-0.40311
H	 1.1560887834	 1.7712961911	 0.1925734865	 0.119339
H	-0.3418078383	 2.0085159114	-0.7208580328	 0.118888
H	-0.408686296	 1.7929445849	 1.0409440508	 0.136431
H	 0.4464782454	-0.5319617013	 0.8100334976	 0.113093
H	-2.0440171694	 0.0173638789	-0.8513355648	 0.0946
H	-1.5637640932	-1.5672194321	-0.205755317	 0.098751
H	-2.9775502009	-0.356481509	 1.2417399914	 0.290371
H	 1.1191230589	-1.268864426	-4.3739959634	 0.137431
H	 2.6622662815	-0.7194906158	-3.7234711335	 0.116189
H	 2.6401882371	-2.8603519317	-2.6290499912	 0.286415
14.5849	78.4329	95.1732	140.5888	199.6458	219.1362	233.682	257.2121	300.6864	344.3963	404.0191	496.1837	521.4992	575.844	761.9753	871.657	930.9105	984.6162	1009.574	1048.3526	1079.2614	1102.3645	1134.4772	1186.2949	1215.0939	1237.2412	1261.9113	1327.5278	1345.1652	1356.742	1397.5681	1419.5842	1451.496	1492.3988	1493.7691	1500.7474	1521.1694	2357.2899	2972.8263	2979.8575	3008.4871	3025.3598	3046.758	3059.6317	3117.1601	3140.9846	3817.3196	3837.2879
CC(CO)C#CCO	C[C@@H](CO)C#CCO	
InChI=1S/C6H10O2/c1-6(5-8)3-2-4-7/h6-8H,4-5H2,1H3	InChI=1S/C6H10O2/c1-6(5-8)3-2-4-7/h6-8H,4-5H2,1H3/t6-/m1/s1
