15
gdb 125513	4.02508	0.99701	0.90937	3.7187	72.69	-0.2684	-0.0214	0.247	1287.0492	0.113695	-413.006679	-412.998294	-412.99735	-413.041472	28.73	
C	 0.0199546215	 1.4800477638	-0.0395499997	-0.498208
C	 0.0247725779	-0.0122692113	 0.0206538127	 0.312154
N	-0.0057378498	-0.7664656942	-1.0795213952	-0.283723
N	-0.0060796323	-2.0141604441	-0.6112940118	 0.147066
C	 0.0459820172	-3.1617285804	-1.4906135017	-0.270831
C	 1.415064877	-3.513125523	-1.8949942609	 0.283105
N	 2.4831279409	-3.8031839194	-2.2228854426	-0.289795
N	 0.0366555339	-2.139284556	 0.7117143251	-0.21639
C	 0.050839973	-0.8781873802	 1.1343934886	-0.118953
H	 0.9091679933	 1.8984900853	 0.4429486596	 0.142188
H	 0.0042542304	 1.8117816684	-1.0792649396	 0.149862
H	-0.8551221773	 1.8968001903	 0.4698129903	 0.139322
H	-0.404876306	-4.0051040487	-0.9631707948	 0.188036
H	-0.547128312	-2.9375289757	-2.3803338532	 0.185924
H	 0.0700237822	-0.6480702348	 2.1880889333	 0.130243
35.7858	59.2502	78.2772	226.4905	261.5175	308.8019	364.4008	410.7176	489.5227	654.5342	690.43	697.1878	802.9182	878.2579	932.3263	958.3447	995.8666	1013.0109	1069.0574	1069.98	1179.3978	1230.166	1349.6246	1375.8375	1381.9104	1405.5247	1415.3476	1439.4237	1445.0717	1483.9954	1495.8355	1565.9566	2372.1224	3043.1315	3084.0937	3097.4092	3137.943	3139.6825	3267.173
CC1=NN(CC#N)N=C1	Cc1nn(CC#N)nc1	
InChI=1S/C5H6N4/c1-5-4-7-9(8-5)3-2-6/h4H,3H2,1H3	InChI=1S/C5H6N4/c1-5-4-7-9(8-5)3-2-6/h4H,3H2,1H3
