14
gdb 129360	4.2395	0.95486	0.86916	3.3678	65.2	-0.2792	-0.0464	0.2327	1289.3733	0.101467	-469.98958	-469.981638	-469.980694	-470.024404	26.832	
N	-0.4500109619	 1.0675512809	-0.0289642022	-0.426755
C	-0.5681730032	-0.1552872884	-0.3012626167	 0.12932
O	-0.5996511277	-1.0589262283	 0.7133001558	-0.178584
C	-0.817401575	-2.4150585606	 0.3440127197	-0.211871
C	-2.2680391385	-2.6953450695	 0.0940903629	 0.430561
N	-2.9516743477	-2.4560475815	-0.9857311453	-0.307503
C	-4.2080382714	-2.8688308873	-0.6164409162	 0.04613
N	-4.3036458909	-3.338771698	 0.597362323	-0.10311
O	-2.998342043	-3.2223307843	 1.0822867712	-0.182016
H	-0.4185315139	 1.6153904911	-0.8862205035	 0.236308
H	-0.6471379582	-0.609679427	-1.2962899652	 0.109584
H	-0.2494466249	-2.6774759059	-0.5553315254	 0.144272
H	-0.4636943515	-3.0187966494	 1.1806913308	 0.157318
H	-5.0675666322	-2.822527832	-1.2688146789	 0.156345
26.3734	60.9848	93.3726	172.5313	280.8269	354.2915	387.7821	627.9446	662.0997	685.9966	821.3734	825.7224	914.932	932.8392	946.675	982.0108	998.2019	1037.7283	1041.2235	1127.9646	1190.6703	1222.2352	1263.6181	1312.4414	1346.4569	1404.4097	1426.603	1483.3437	1503.9097	1622.0724	1751.6861	3047.8118	3056.4542	3137.7208	3266.3554	3522.228
N=COCC1=NC=NO1	[NH][CH]OCc1ncno1	
InChI=1S/C4H5N3O2/c5-2-8-1-4-6-3-7-9-4/h2-3,5H,1H2	InChI=1S/C4H5N3O2/c5-2-8-1-4-6-3-7-9-4/h2-3,5H,1H2
