20
gdb 102683	2.66193	0.80738	0.67459	5.5841	76.59	-0.2668	0.0383	0.3051	1665.7032	0.169128	-440.288414	-440.277875	-440.276931	-440.325092	36.57	
C	 0.0113688308	 1.3188152974	-0.1180695104	-0.24529
O	-0.0647426422	-0.0869494657	 0.0239964826	-0.258816
C	-1.3895503467	-0.6241504174	-0.0021750434	 0.075357
C	-1.8304646033	-0.8088877675	-1.4610235553	-0.072216
O	-0.9087858501	-1.6059889482	-2.1756479773	-0.41604
C	-1.3541050775	-1.9533676278	 0.7528437243	-0.188737
C	-0.8126593883	-1.7926581471	 2.1852879128	-0.3446
C	-0.7800299723	-3.0566482716	 2.9160669545	 0.256449
N	-0.7618109314	-4.062776456	 3.4842978259	-0.306775
H	 1.0667808877	 1.5905121111	-0.0426751256	 0.136953
H	-0.3716443186	 1.6660071455	-1.0873859089	 0.118037
H	-0.5467463518	 1.8318168788	 0.6786576006	 0.114995
H	-2.0793206267	 0.0729681906	 0.5018257928	 0.068741
H	-2.8002972153	-1.3162037544	-1.4992452284	 0.113458
H	-1.959676267	 0.1777184336	-1.9342895764	 0.089413
H	-0.0350182738	-1.2550718714	-1.9617612722	 0.288694
H	-2.3664346904	-2.3689317354	 0.7812506867	 0.121273
H	-0.7335709305	-2.6600005163	 0.195493701	 0.139158
H	 0.1972486376	-1.3745849611	 2.1471194589	 0.166626
H	-1.4286976903	-1.0831718171	 2.751453208	 0.143321
57.4715	76.6462	91.9204	106.1002	140.244	189.8666	247.5729	265.977	314.4942	359.7627	399.9122	465.2374	481.5089	562.1803	676.505	760.9419	845.1742	916.226	936.7554	962.626	1038.9386	1073.7861	1101.3048	1107.5252	1136.0312	1183.3718	1187.6059	1227.6931	1241.8045	1262.5578	1313.778	1333.765	1373.4992	1375.6112	1409.5971	1428.0449	1471.4948	1480.2078	1486.443	1490.1537	1508.6116	1512.2631	2362.6397	2966.3674	2978.83	2994.0168	3040.944	3045.8989	3061.6029	3074.8514	3096.3786	3117.7368	3120.5547	3777.6165
COC(CO)CCC#N	CO[C@@H](CO)CCC#N	
InChI=1S/C6H11NO2/c1-9-6(5-8)3-2-4-7/h6,8H,2-3,5H2,1H3	InChI=1S/C6H11NO2/c1-9-6(5-8)3-2-4-7/h6,8H,2-3,5H2,1H3/t6-/m1/s1
