20
gdb 110332	2.26683	1.36384	1.19519	3.8949	78.85	-0.2399	-0.0071	0.2328	1182.7615	0.170038	-403.136791	-403.127595	-403.126651	-403.170829	34.05	
C	 1.9667296762	 0.2862136938	 1.0691300035	-0.385602
C	 0.9419677104	 0.091335094	-0.0545332184	-0.216787
C	 1.4691098518	-0.8175649854	-1.1455304062	 0.011817
C	 1.3963169539	-2.2907707133	-1.2274872861	-0.075743
C	 0.1141939027	-2.9238396492	-0.6770718596	-0.110963
C	-0.1690808878	-3.1142606468	 0.8075028699	-0.424227
C	-0.6097570355	-1.8667006233	-1.5314782492	 0.374601
O	-1.7422769977	-1.5383519001	-1.7047349523	-0.30498
N	 0.5944653021	-1.4078965246	-2.2083336012	-0.205383
H	 2.1897728521	-0.6599147658	 1.5729682545	 0.12341
H	 2.9099466939	 0.6846528727	 0.6800456197	 0.121207
H	 1.5934011902	 0.9888310265	 1.8194278903	 0.123054
H	-0.0010955516	-0.2820201229	 0.3532374362	 0.11957
H	 0.7058064646	 1.0588783255	-0.514182485	 0.120549
H	 2.3661149245	-0.4147731694	-1.6156930644	 0.107292
H	 2.2296316973	-2.870491347	-1.6095703734	 0.106557
H	-0.0396331337	-3.8783949271	-1.19766404	 0.121789
H	 0.0018558193	-2.204291457	 1.3863230114	 0.130075
H	-1.211500254	-3.4144478567	 0.951551392	 0.139498
H	 0.4677735012	-3.9010436639	 1.2240832184	 0.124267
77.2081	110.5509	160.3961	182.3386	194.8358	239.8199	251.6921	339.4617	425.0342	502.371	576.9838	673.6873	682.8954	692.4779	800.0249	804.4753	839.832	890.5584	915.9826	991.6397	1012.993	1044.6294	1063.6529	1088.3035	1099.9686	1110.7316	1159.3814	1183.1534	1228.1049	1266.3492	1291.1618	1336.8417	1358.8012	1374.2147	1410.1182	1412.6707	1452.4026	1484.3784	1494.8664	1499.4292	1500.9281	1511.6818	1908.3596	3031.5717	3036.0515	3041.3442	3045.7663	3085.9782	3104.6222	3109.1596	3113.2759	3117.7772	3132.036	3174.9655
CCC1C2C(C)C(=O)N12	CC[C@H]1[C@H]2[C@@H](C)C(=O)N12	
InChI=1S/C7H11NO/c1-3-5-6-4(2)7(9)8(5)6/h4-6H,3H2,1-2H3	InChI=1S/C7H11NO/c1-3-5-6-4(2)7(9)8(5)6/h4-6H,3H2,1-2H3/t4-,5+,6-,8?/m1/s1
