17
gdb 77138	2.65199	1.25697	0.94973	1.2907	69.06	-0.2618	-0.0351	0.2267	1234.982	0.133183	-459.013454	-459.004112	-459.003167	-459.04868	32.635	
C	-0.4949706103	 0.9384586236	 0.9357717607	-0.41427
C	 0.1608110593	-0.2778517827	 0.2963721925	-0.197962
C	 0.3325151517	-0.3169274284	-1.2470426034	 0.03008
O	 1.7846195589	-0.4132414849	-1.0869414193	-0.253873
C	 1.6920166619	-0.3304824976	 0.2856367037	 0.449175
O	 2.5805403662	-0.3041550406	 1.0717945204	-0.312471
C	-0.3090382069	-1.4933377042	-1.9693594873	 0.350712
C	 0.5168090329	-2.7453601393	-2.1474402821	-0.483474
O	-1.452418734	-1.3819396098	-2.3458066679	-0.296761
H	-0.0785984696	 1.868966396	 0.538496314	 0.134319
H	-1.5724256665	 0.9359078625	 0.7495004283	 0.142617
H	-0.3323430682	 0.9282778771	 2.0170362141	 0.146642
H	-0.2617319928	-1.204172188	 0.6986466307	 0.124597
H	 0.0594879279	 0.6141555756	-1.7488556347	 0.124884
H	-0.0860237521	-3.5133344365	-2.632351462	 0.146153
H	 1.4063303592	-2.5236408458	-2.7462863776	 0.162504
H	 0.8842337023	-3.1097794669	-1.18150023	 0.147129
36.8569	79.143	141.3847	153.5759	212.9408	221.0499	243.0522	310.7425	424.08	486.5656	544.7453	587.4992	692.4358	740.2918	801.0587	838.6708	892.0862	980.7846	1004.2988	1012.5686	1068.5514	1111.0711	1114.0518	1132.8309	1227.8936	1241.5757	1261.201	1323.0883	1356.4632	1386.2514	1412.2743	1453.5394	1467.9402	1494.0518	1496.6106	1812.5769	1943.5815	3042.0622	3044.6435	3065.7721	3095.4745	3102.1539	3119.3401	3123.7566	3159.8986
CC1C(OC1=O)C(C)=O	C[C@H]1[C@@H](OC1=O)C(=O)C	
InChI=1S/C6H8O3/c1-3-5(4(2)7)9-6(3)8/h3,5H,1-2H3	InChI=1S/C6H8O3/c1-3-5(4(2)7)9-6(3)8/h3,5H,1-2H3/t3-,5+/m0/s1
