13
gdb 128891	4.19836	1.28201	1.06773	5.2638	69.63	-0.2733	-0.0235	0.2499	1051.4544	0.091406	-411.749968	-411.743151	-411.742207	-411.781807	24.792	
N	-0.5621814736	-1.2384085654	-0.1244044168	-0.298167
C	-0.2874750849	-0.1179954328	-0.0693561119	 0.313942
C	 0.0207632123	 1.3032266033	 0.0128907877	-0.1305
C	-0.2165808915	 2.0100758943	 1.4194124066	-0.392083
C	 1.2818526685	 2.2925890114	 1.3907202251	 0.31433
C	 2.5320333734	 2.7825955	 1.6834639761	-0.19993
N	 3.3547063243	 2.3856391974	 0.6566547579	-0.167235
N	 2.7058224939	 1.7013307353	-0.25291947	-0.166456
N	 1.4480775489	 1.6482780617	 0.2248891573	 0.100544
H	-0.4169839847	 1.8351826724	-0.8349570366	 0.168182
H	-0.870839429	 2.881048678	 1.3649351314	 0.155909
H	-0.5603195053	 1.3312562628	 2.2003735826	 0.164209
H	 2.9109032777	 3.3601221814	 2.5087083407	 0.137256
76.0046	142.2064	216.2538	280.5875	389.5658	505.5322	562.1971	673.2418	693.2723	720.926	765.0806	835.049	861.9634	975.9243	1002.4966	1035.3592	1078.0223	1104.5052	1120.3352	1182.5487	1200.5206	1233.3334	1270.9929	1324.634	1345.6256	1467.6561	1502.0124	1552.3158	2367.8306	3093.4621	3097.6684	3153.0322	3292.573
N#CC1CC2=CN=NN12	N#C[C@H]1Cc2cnnn12	
InChI=1S/C5H4N4/c6-2-4-1-5-3-7-8-9(4)5/h3-4H,1H2	InChI=1S/C5H4N4/c6-2-4-1-5-3-7-8-9(4)5/h3-4H,1H2/t4-/m1/s1
