25
gdb 73797	2.21705	1.4211	1.09167	0.1826	95.89	-0.2155	0.0383	0.2537	1295.2734	0.227355	-352.395868	-352.385275	-352.384331	-352.430563	40.455	
C	 0.0879804963	 1.5325076111	 0.0083786778	-0.495415
C	 0.0001756878	 0.0385726244	-0.0529914224	 0.205256
C	-1.0907275908	-0.7392647442	-0.0142991496	 0.216036
C	-2.5206971885	-0.3001389753	 0.0938483053	-0.508953
C	-0.7303335595	-2.2291954009	-0.026709324	 0.233984
C	-0.8631656319	-2.816393979	 1.3959969435	-0.420495
C	-1.5932866064	-3.0510551963	-0.9979883385	-0.435621
C	 0.7577874022	-2.1975480604	-0.4745107483	-0.247344
C	 1.2685305704	-0.7868603765	-0.1208996689	-0.298969
H	 0.686610704	 1.8543350265	 0.8711415107	 0.121581
H	 0.5917702411	 1.9334437546	-0.8809727585	 0.121278
H	-0.8898339777	 2.013900132	 0.0837625028	 0.119283
H	-2.6157690708	 0.7847252272	 0.1795432779	 0.119491
H	-3.1047081143	-0.6154357775	-0.7796935942	 0.125213
H	-3.0109544323	-0.7440373643	 0.9698216687	 0.122467
H	-1.8881307452	-2.7296017542	 1.7722065677	 0.10822
H	-0.5989109003	-3.880094901	 1.4028332931	 0.106829
H	-0.2046115902	-2.2982656498	 2.1005382464	 0.111397
H	-1.5671799449	-2.6259876861	-2.007150083	 0.108818
H	-1.2273571367	-4.0823664633	-1.0592184756	 0.108816
H	-2.6394569348	-3.094238377	-0.676141616	 0.108214
H	 1.3467514102	-2.9985713986	-0.0171363391	 0.087198
H	 0.8081356252	-2.3387129422	-1.5596234589	 0.092267
H	 1.9824729224	-0.4007383109	-0.8591575824	 0.093098
H	 1.794404965	-0.7641297284	 0.8454680657	 0.097349
87.7073	128.9318	151.1613	163.7337	213.7561	250.1121	266.8981	283.1411	306.0832	330.6732	342.8081	401.9121	449.2863	544.2388	584.5877	613.4572	657.1294	769.2703	867.0188	893.5503	932.3182	952.2006	968.8752	977.4364	1003.3452	1027.9856	1037.0395	1069.625	1109.0619	1130.0199	1141.5825	1205.6691	1221.1501	1230.69	1272.8323	1293.2476	1330.7278	1349.5915	1394.198	1406.9054	1414.221	1422.301	1475.0244	1479.71	1481.9158	1483.3876	1484.5748	1491.5123	1497.7757	1500.359	1504.397	1509.2338	1736.9947	2992.8918	3012.7345	3019.6425	3021.5244	3026.4189	3031.9212	3045.8828	3053.4111	3062.0416	3083.0461	3087.8398	3092.6442	3095.6135	3099.9249	3111.6672	3118.8182
CC1=C(C)C(C)(C)CC1	CC1=C(C)C(C)(C)CC1	
InChI=1S/C9H16/c1-7-5-6-9(3,4)8(7)2/h5-6H2,1-4H3	InChI=1S/C9H16/c1-7-5-6-9(3,4)8(7)2/h5-6H2,1-4H3
