16
gdb 10978	2.80986	2.43619	1.98258	1.7314	64.33	-0.2341	0.0042	0.2383	770.6959	0.129472	-383.692325	-383.685075	-383.684131	-383.723281	28.278	
C	-0.0377756677	 1.4913868801	-0.0300390298	-0.51751
C	-0.0514604655	-0.0086579796	 0.0445180049	 0.338887
O	 0.3282654261	-0.7186723087	-1.1892757427	-0.315727
C	-0.2455381693	-1.8823204436	-0.5181388519	-0.047135
C	 0.6664300922	-2.0287408633	 0.7077394977	-0.070523
C	 0.7979333757	-0.7597806295	 1.0934737561	-0.105886
C	-1.3428401651	-0.889365682	 0.0147143654	 0.089944
O	-2.0243213716	-1.0930166511	 1.2151332403	-0.42403
H	 0.9808994625	 1.8623810666	-0.1797223599	 0.132699
H	-0.6587153136	 1.8456159421	-0.8573253959	 0.12643
H	-0.4240535081	 1.9157285827	 0.9020393414	 0.131353
H	-0.4429855283	-2.731397979	-1.1712925034	 0.0738
H	 1.0546157288	-2.9423685108	 1.1324261969	 0.108533
H	 1.3307639039	-0.3202094492	 1.9238097505	 0.107541
H	-2.0083148427	-0.5753186247	-0.7983390481	 0.081815
H	-2.8970753573	-1.44355727	 1.0159008886	 0.28981
170.5582	187.613	220.1867	253.0916	307.3975	346.8397	574.2249	585.7314	597.6999	627.2351	727.3737	787.4807	811.2157	834.7037	861.1682	893.9534	903.7635	926.6084	968.5535	1056.5207	1113.7252	1125.2345	1160.0546	1193.7584	1206.8655	1253.4909	1277.598	1303.8286	1338.496	1411.7855	1437.621	1480.0183	1493.5631	1622.8823	3040.4305	3042.8355	3112.2855	3119.2795	3132.3389	3230.587	3258.27	3834.9005
CC12OC(C=C1)C2O	C[C@@]12O[C@@H](C=C1)[C@H]2O	
InChI=1S/C6H8O2/c1-6-3-2-4(8-6)5(6)7/h2-5,7H,1H3	InChI=1S/C6H8O2/c1-6-3-2-4(8-6)5(6)7/h2-5,7H,1H3/t4-,5+,6+/m0/s1
