16
gdb 128148	2.23447	1.5386	0.92047	2.1362	84.34	-0.1903	-0.0108	0.1795	1223.6664	0.124998	-396.909957	-396.901188	-396.900244	-396.94354	32.226	
C	 0.0802443483	 1.4581913731	 0.0780465398	-0.329193
N	-0.2033340035	 0.0482909533	-0.1203697415	-0.412863
C	 0.5044676057	-0.6467237545	-1.084017882	 0.138968
C	 0.6575100419	-2.0342153497	-1.1669715176	 0.186908
N	 1.3853711344	-2.251854227	-2.3133941803	-0.293272
N	 1.7098364462	-1.1325923019	-2.9535724391	-0.206068
C	 1.1845331169	-0.1481707658	-2.2195074222	-0.082183
C	 0.2087453797	-3.0518062493	-0.311845865	 0.250163
C	-0.1804347565	-3.9098368288	 0.4423037699	-0.450698
H	 1.136886138	 1.6682294105	 0.3078764757	 0.115077
H	-0.1888954665	 2.0244823866	-0.8199724629	 0.13568
H	-0.5361875194	 1.8317956473	 0.8987081703	 0.126783
H	-0.3296948848	-0.4745798804	 0.7341048608	 0.241395
H	 1.6796336265	-3.1423347455	-2.6768040671	 0.276262
H	 1.3105137351	 0.8773782723	-2.5297220255	 0.110174
H	-0.5304286219	-4.6691230901	 1.0966418568	 0.19287
78.929	116.0918	163.8924	176.3166	227.5596	322.7523	389.4127	442.5605	454.3902	498.3835	509.4468	581.5386	620.2813	685.9494	692.5338	728.0715	745.7174	840.5187	952.9562	1076.011	1128.5578	1153.3665	1167.5253	1217.0189	1267.7825	1284.7685	1396.719	1412.9138	1463.8048	1484.1657	1492.6559	1521.5986	1538.5751	1624.3473	2216.2857	2978.574	3066.101	3121.165	3257.5341	3501.2815	3594.1581	3675.4427
CNC1=C(NN=C1)C#C	CNc1c([nH]nc1)C#C	
InChI=1S/C6H7N3/c1-3-5-6(7-2)4-8-9-5/h1,4,7H,2H3,(H,8,9)	InChI=1S/C6H7N3/c1-3-5-6(7-2)4-8-9-5/h1,4,7H,2H3,(H,8,9)
