18
gdb 80466	2.31205	1.65993	1.43529	1.8814	71.83	-0.2333	-0.036	0.1973	1002.287	0.147775	-439.073642	-439.065366	-439.064422	-439.106577	31.506	
C	 0.0054483674	 1.6581720534	-0.0801703043	-0.344243
N	 0.0988258979	 0.1974441128	-0.1031176497	-0.082526
C	 0.6563940401	-0.5352204965	-1.2174620583	-0.038427
C	 1.4665925533	 0.2247017004	-2.2700815546	-0.275023
C	 2.7641196276	 0.6677594245	-1.5654681742	 0.040495
O	 3.0755430402	 2.0290445653	-1.7618833846	-0.426689
C	 2.592447492	 0.3362132121	-0.074189773	 0.364984
O	 3.3420221097	 0.754857212	 0.7768034535	-0.338609
C	 1.368653159	-0.5089726239	 0.1129967499	-0.158056
H	 0.806462302	 2.2027427542	-0.5955415534	 0.13522
H	-0.9499916772	 1.9381250035	-0.5345132029	 0.128809
H	-0.0116537416	 1.979672059	 0.9648301843	 0.137878
H	 0.0848120892	-1.4047957865	-1.5305279306	 0.101514
H	 1.6774003471	-0.4228525909	-3.1240626471	 0.113997
H	 0.9274188831	 1.0977799279	-2.6492347479	 0.131545
H	 3.5943387119	 0.0259963945	-1.910870169	 0.104489
H	 3.648408152	 2.2770227643	-1.0223168533	 0.293993
H	 1.3621336164	-1.2962687362	 0.8607143452	 0.110648
63.4948	131.3654	198.5401	244.9716	266.1934	363.4804	402.1448	448.6548	472.7964	498.5875	601.6839	628.2557	714.6966	731.2794	796.6527	878.9162	919.5195	958.8	1012.9414	1043.2813	1060.0357	1091.9279	1139.011	1170.9292	1173.0873	1178.2771	1211.5467	1247.467	1279.8792	1300.5751	1320.0446	1348.8072	1383.6744	1411.7966	1458.773	1485.6826	1508.9552	1513.2604	1820.6348	2941.786	3017.6134	3066.403	3088.4926	3108.841	3114.2025	3143.763	3158.1203	3746.0005
CN1C2CC(O)C(=O)C12	CN1[C@H]2C[C@@H](O)C(=O)[C@@H]12	
InChI=1S/C6H9NO2/c1-7-3-2-4(8)6(9)5(3)7/h3-5,8H,2H2,1H3	InChI=1S/C6H9NO2/c1-7-3-2-4(8)6(9)5(3)7/h3-5,8H,2H2,1H3/t3-,4+,5-,7?/m0/s1
