16
gdb 125098	3.07682	1.32074	0.98764	4.2232	72.02	-0.2439	-0.007	0.2368	1168.3674	0.124953	-434.047689	-434.03953	-434.038586	-434.081525	28.968	
C	-0.2591771846	 1.5496179779	 0.2894967829	-0.500888
C	-0.0479863997	 0.0902412118	 0.0516875144	 0.202369
C	 0.1368212008	-0.6038670995	-1.1275666687	 0.290137
N	 0.2940157167	-1.8893134921	-0.7258145211	-0.234103
N	 0.2042826505	-2.0067447497	 0.608233922	-0.119241
N	 0.0054235968	-0.8088712142	 1.0798900375	-0.2444
C	 0.1895681891	-0.2156921761	-2.5464369019	-0.054416
C	 1.3566741299	-0.5113118691	-3.4006523342	-0.173687
O	 0.1698293209	-1.3033080697	-3.4799555913	-0.239103
H	 0.687301319	 2.1022091679	 0.3083096707	 0.136509
H	-0.8876363531	 1.999957674	-0.4855484249	 0.124217
H	-0.7464126604	 1.6940630183	 1.2562710275	 0.152675
H	 0.3815501519	-2.7037709923	-1.3142301415	 0.286579
H	-0.4339931657	 0.6341732074	-2.8212860315	 0.116238
H	 1.5576647618	 0.1149315446	-4.2681309681	 0.130444
H	 2.2221493562	-1.0049882492	-2.9627587618	 0.126671
55.6732	74.6932	149.0435	165.9432	269.6248	282.6987	428.7287	490.6787	618.3343	626.6046	720.6985	731.1867	741.6424	852.7268	903.6724	983.1935	1007.9728	1035.9236	1064.2598	1087.1127	1093.819	1149.9738	1167.7888	1193.9001	1235.5473	1273.1305	1316.3456	1365.1416	1415.6177	1421.2902	1479.4937	1492.3265	1505.6828	1521.6438	1628.113	3034.1825	3088.0843	3090.3511	3120.6012	3130.3108	3184.6478	3649.5638
CC1=C(NN=N1)C1CO1	Cc1c([nH]nn1)[C@H]1CO1	
InChI=1S/C5H7N3O/c1-3-5(4-2-9-4)7-8-6-3/h4H,2H2,1H3,(H,6,7,8)	InChI=1S/C5H7N3O/c1-3-5(4-2-9-4)7-8-6-3/h4H,2H2,1H3,(H,6,7,8)/t4-/m1/s1
