19
gdb 65811	3.76545	0.8234	0.77467	3.0956	76.3	-0.2516	0.0171	0.2687	1490.4627	0.158636	-419.18159	-419.172191	-419.171247	-419.2167	33.681	
C	 0.0304134259	 1.6351407872	 0.0728578266	-0.442035
C	 0.0040381089	 0.1120485118	-0.0119513429	 0.283322
C	 1.1788152106	-0.4813187344	-0.857921419	-0.113884
O	 1.8729493764	-0.8837214146	 0.3376692653	-0.267647
C	 0.7327429354	-0.5820395816	 1.1628537219	-0.124229
N	-1.3456113021	-0.3921952784	-0.2167471622	-0.344484
C	-1.9697605404	 0.0043415735	-1.4782221172	-0.279045
C	-3.2508485764	-0.682546158	-1.6576664437	 0.257488
N	-4.2501269199	-1.2410450556	-1.8101933773	-0.294492
H	 1.0308239904	 1.9735439468	 0.3558924252	 0.1354
H	-0.2107707973	 2.1050723641	-0.8863182305	 0.119318
H	-0.6850768019	 1.9883752986	 0.8214237646	 0.133231
H	 0.8914134016	-1.343696362	-1.4781339521	 0.089829
H	 1.7717730566	 0.2149512851	-1.4623515763	 0.104716
H	 0.9920157777	 0.0446303503	 2.0232608504	 0.111318
H	 0.2274174279	-1.4904826569	 1.5213021348	 0.098546
H	-1.3418440544	-1.4056006915	-0.1565178225	 0.233037
H	-2.1622343758	 1.0825161122	-1.4691036866	 0.163339
H	-1.3527941733	-0.1987602065	-2.3723588884	 0.136273
52.2938	81.2437	106.7921	134.2513	234.859	258.8583	329.3968	372.0502	388.7517	401.2646	454.0972	529.341	708.9113	777.1157	840.4825	899.5671	931.2317	944.8618	964.6105	999.4788	1007.7423	1032.4543	1036.9837	1097.3481	1151.9716	1164.9166	1176.0854	1221.3158	1251.1499	1303.5099	1305.9835	1365.9697	1382.6189	1410.8208	1488.3542	1495.1165	1498.8122	1506.7898	1517.2751	1536.2465	2369.6432	2942.3203	2985.4917	3001.254	3037.95	3055.304	3064.1749	3069.8991	3105.7713	3122.1406	3518.4758
CC1(COC1)NCC#N	CC1(COC1)NCC#N	
InChI=1S/C6H10N2O/c1-6(4-9-5-6)8-3-2-7/h8H,3-5H2,1H3	InChI=1S/C6H10N2O/c1-6(4-9-5-6)8-3-2-7/h8H,3-5H2,1H3
