19
gdb 41843	2.87371	2.00974	1.75356	1.8352	72.76	-0.243	0.083	0.326	868.0521	0.163998	-423.048402	-423.042249	-423.041305	-423.078709	26.391	
C	-0.0623508831	 1.5388651313	-0.1372799173	-0.091788
O	 1.2509299244	 2.0332575516	 0.1351456285	-0.274112
C	 2.0903966238	 0.9359966111	 0.4777597528	 0.11888
C	 1.9919015381	 0.5495419276	 1.9900886216	-0.244564
C	 1.117641493	-0.7128727761	 1.9278062924	 0.096082
C	 1.7386474308	-1.4745970883	 0.7478700449	-0.237737
C	 1.4911972849	-0.3142821727	-0.2236221704	-0.085697
C	 0.0059220222	 0.0242430566	 0.0421812435	 0.089189
O	-0.1805331093	-0.3491185891	 1.4238788469	-0.294658
H	-0.78955899	 1.9824138105	 0.5520936398	 0.110216
H	-0.3427554562	 1.8052389858	-1.1655884756	 0.094735
H	 3.1048301752	 1.1973877544	 0.1703505928	 0.078859
H	 2.9748259544	 0.3234238279	 2.4169040714	 0.094408
H	 1.5373689398	 1.3570239699	 2.5673259214	 0.114294
H	 0.9747430485	-1.2502353754	 2.8651924934	 0.075737
H	 2.7966184482	-1.7121616135	 0.8874950653	 0.100471
H	 1.1888842903	-2.3836318324	 0.4917701036	 0.106097
H	 1.7586055012	-0.4409706242	-1.2719348197	 0.073518
H	-0.7238895562	-0.5122571849	-0.5718470452	 0.076071
138.5227	326.4565	374.8703	445.579	446.416	577.9294	584.7317	743.2348	796.2087	801.8894	824.7366	850.3024	889.2635	910.8233	928.7726	944.0713	972.43	979.4644	982.1072	1000.7653	1033.4132	1047.2247	1080.3749	1106.6194	1139.6369	1181.7262	1189.1523	1215.7698	1233.2426	1274.3651	1284.8691	1286.8394	1315.6589	1323.4588	1332.7718	1356.1577	1366.7441	1392.2998	1470.6692	1495.3558	1509.4718	3009.7022	3049.8272	3061.5865	3064.2111	3065.5103	3090.7493	3117.6343	3120.7696	3123.153	3129.3136
C1OC2CC3CC2C1O3	C1O[C@H]2C[C@@H]3C[C@H]2[C@H]1O3	
InChI=1S/C7H10O2/c1-4-2-6-5(1)7(9-4)3-8-6/h4-7H,1-3H2	InChI=1S/C7H10O2/c1-4-2-6-5(1)7(9-4)3-8-6/h4-7H,1-3H2/t4-,5+,6-,7-/m0/s1
