17
gdb 11728	5.10808	1.32999	1.21089	2.6728	69.69	-0.2406	-0.0193	0.2213	1026.024	0.141954	-363.845588	-363.837877	-363.836933	-363.877824	28.78	
C	 0.1571684019	 1.494202613	 0.2165388983	-0.382438
C	-0.1359857811	 0.0164382626	-0.0767264367	-0.277437
C	 0.5530949135	-0.4667472569	-1.3202637783	 0.354737
C	 0.1948187117	-0.0958677594	-2.7754385047	-0.428682
C	 0.5305581613	-1.57476614	-3.1342004722	 0.419877
O	 0.349226432	-2.2375663473	-4.1145546884	-0.308453
C	 0.9418928714	-1.8886945209	-1.7184016525	-0.224559
N	 1.9351176215	-0.8921061992	-1.2620634046	-0.347396
H	 1.2309084327	 1.6557874911	 0.3521422502	 0.130235
H	-0.180796979	 2.1380360241	-0.6025018109	 0.119271
H	-0.3526783046	 1.8186852566	 1.1281456526	 0.119264
H	 0.1961417957	-0.601611546	 0.7639549515	 0.116687
H	-1.216733952	-0.1367284185	-0.1845619838	 0.104779
H	-0.8678689839	 0.0937874008	-2.9585336538	 0.133595
H	 0.7843706252	 0.7044318715	-3.233012915	 0.119529
H	 0.878227894	-2.8307141486	-1.1866499129	 0.112848
H	 2.5021672798	-0.5301960531	-2.0270583989	 0.238144
81.1169	103.7745	191.3259	229.3121	339.9336	395.0073	434.5145	470.6429	579.1778	632.0832	682.468	783.7684	790.3141	841.1279	952.4082	961.8028	974.6183	1004.5029	1044.832	1071.1057	1083.9461	1126.3815	1145.303	1159.1627	1203.1598	1227.5259	1268.1425	1333.5514	1348.7724	1408.1054	1429.0568	1466.7917	1474.8472	1499.9185	1508.8686	1883.2726	3033.6996	3037.7035	3050.351	3077.4698	3102.9581	3108.3169	3116.0075	3190.9426	3462.4303
CCC12CC(=O)C1N2	CC[C@]12CC(=O)[C@H]1N2	
InChI=1S/C6H9NO/c1-2-6-3-4(8)5(6)7-6/h5,7H,2-3H2,1H3	InChI=1S/C6H9NO/c1-2-6-3-4(8)5(6)7-6/h5,7H,2-3H2,1H3/t5-,6+/m1/s1
