22
gdb 114616	2.22839	1.27786	0.94808	2.5903	82.06	-0.2215	0.0709	0.2923	1331.8399	0.193953	-404.303677	-404.294022	-404.293078	-404.338319	36.218	
C	-0.4320685697	 1.4445118867	-0.0639775842	-0.376722
C	 0.0944652015	 0.0100022698	 0.0910111453	-0.311261
C	 0.8532859071	-0.4844973575	-1.1060676116	 0.344292
N	 0.1605967963	-0.8919869957	-2.3599881636	-0.374825
C	 1.0411006485	-1.8577650946	-1.6521963812	-0.116068
C	 2.4655978574	-1.5471138072	-2.1140297181	-0.25138
C	 2.2878766374	-0.0934760796	-1.5339152168	-0.037157
C	 2.4694680956	 1.0822876892	-2.484301308	-0.096571
O	 3.8179436918	 1.2146834198	-2.9206858589	-0.423617
H	 0.3895690345	 2.1551263852	-0.1981118113	 0.127063
H	-1.0904365073	 1.5310863309	-0.9339714587	 0.124129
H	-0.9964521499	 1.7517320676	 0.821615712	 0.113836
H	 0.7431505788	-0.0483472731	 0.9746887919	 0.103723
H	-0.7449675371	-0.6723875351	 0.2823268627	 0.093806
H	-0.7994548768	-1.1226135672	-2.1013146211	 0.221521
H	 0.644610174	-2.8032730736	-1.3005294258	 0.089895
H	 3.2346856684	-2.1196011711	-1.5919359461	 0.104542
H	 2.620928591	-1.6280977071	-3.1951424144	 0.094891
H	 2.9292825751	 0.042846774	-0.6576282319	 0.075791
H	 1.7771186013	 0.9805703956	-3.3303080522	 0.109584
H	 2.2335349119	 2.0227192153	-1.9735376356	 0.102563
H	 4.0226417404	 0.4436025279	-3.4591816723	 0.281965
76.291	94.7298	126.3434	169.7348	210.4478	236.3237	306.9734	316.8194	346.1221	437.1557	480.406	518.7456	654.5877	694.833	784.5126	825.3465	859.2287	898.6884	909.6236	952.6722	980.5334	983.4036	1036.1576	1049.6638	1057.2079	1100.0042	1102.0505	1108.9432	1135.8185	1174.0807	1207.2117	1229.2793	1234.7098	1276.3983	1301.9246	1337.1368	1347.3052	1371.069	1391.1408	1411.0237	1411.6712	1443.297	1476.0386	1478.3278	1498.2947	1506.0997	1509.6815	3010.2679	3019.0495	3038.941	3044.8176	3045.5892	3056.3726	3073.6522	3109.4946	3111.1335	3115.0955	3179.3005	3457.7598	3815.9397
CCC12NC1CC2CO	CC[C@]12N[C@H]1C[C@H]2CO	
InChI=1S/C7H13NO/c1-2-7-5(4-9)3-6(7)8-7/h5-6,8-9H,2-4H2,1H3	InChI=1S/C7H13NO/c1-2-7-5(4-9)3-6(7)8-7/h5-6,8-9H,2-4H2,1H3/t5-,6-,7+/m0/s1
