20
gdb 126209	2.18585	1.32009	0.90247	3.3004	82.18	-0.2407	-0.0032	0.2375	1359.7834	0.170649	-403.163282	-403.153848	-403.152904	-403.198799	33.808	
C	-0.0438086525	 1.7317011175	 0.4934670153	-0.373239
C	 0.0038184574	 0.2836668958	-0.0250752523	-0.296815
C	-1.3473855863	-0.3342187576	-0.1638212344	 0.354426
C	-2.0687995455	-0.8034362503	-1.2247084061	 0.061258
C	-1.6936655342	-0.883264472	-2.674785113	-0.313147
C	-1.3866383844	-2.3146539295	-3.1474813924	-0.365937
C	-3.2826703901	-1.2330901165	-0.6116917201	-0.032133
N	-3.2964832463	-1.0418397687	 0.6822310488	-0.146334
O	-2.0618018513	-0.4686665388	 0.9734335168	-0.22004
H	 0.967805048	 2.1342716906	 0.5973282919	 0.117365
H	-0.6002273919	 2.3756826835	-0.1940090506	 0.124308
H	-0.5340247639	 1.7765852504	 1.469104078	 0.142154
H	 0.5018735498	 0.2462285211	-0.9986659303	 0.116239
H	 0.6054679099	-0.3280007532	 0.6586256825	 0.128656
H	-2.5066398638	-0.4700849656	-3.2846241917	 0.112702
H	-0.8238044087	-0.2441513371	-2.862201735	 0.106212
H	-1.1308109548	-2.3275421365	-4.2115054469	 0.115028
H	-0.5477750905	-2.739916405	-2.5880785282	 0.121965
H	-2.2490634268	-2.9724977962	-3.0001398021	 0.12215
H	-4.1507888441	-1.6744830722	-1.0831943703	 0.125182
39.6207	49.1502	150.5073	164.9319	190.8801	221.4834	287.3343	328.3039	376.5232	481.7866	616.6812	660.8689	666.933	740.8854	785.3733	791.1339	912.6998	929.6751	952.291	964.4245	988.779	1053.3389	1060.2961	1081.5157	1092.2349	1179.5322	1205.053	1244.2654	1294.0246	1306.832	1350.5642	1360.0277	1403.4457	1410.0778	1419.1657	1473.5244	1487.3032	1496.0223	1496.8962	1503.903	1507.1108	1520.2381	1667.3777	3028.834	3034.3058	3037.1121	3045.8002	3064.799	3083.6428	3109.1169	3112.2941	3116.803	3129.8383	3230.7847
CCC1=C(CC)C=NO1	CCc1c(CC)cno1	
InChI=1S/C7H11NO/c1-3-6-5-8-9-7(6)4-2/h5H,3-4H2,1-2H3	InChI=1S/C7H11NO/c1-3-6-5-8-9-7(6)4-2/h5H,3-4H2,1-2H3
