19
gdb 103689	1.96136	1.5914	1.14073	1.1224	78.54	-0.2319	0.0435	0.2754	1154.9303	0.156055	-422.978335	-422.968363	-422.967419	-423.012763	37.736	
C	-0.0174230978	 1.4566555752	 0.3099444956	-0.463926
C	 0.0462288452	-0.0486506517	 0.0966018929	 0.057678
C	 1.3520162446	-0.6378737172	-0.4549214767	-0.379412
C	 1.0195739327	-0.8703324962	 0.9756594886	 0.376124
O	 1.7747756319	-0.1696839812	 1.9156015962	-0.460782
C	 0.5918814889	-2.229479017	 1.4762971758	-0.150282
O	-0.1735555606	-2.0811294566	 2.6703173787	-0.431492
C	-1.1972479188	-0.6647778106	-0.2776193992	 0.275971
C	-2.2598613051	-1.1643603399	-0.5493235311	-0.470043
H	 0.9278662906	 1.8203122101	 0.716126065	 0.138313
H	-0.223635816	 1.9728098597	-0.6326322321	 0.12501
H	-0.8137923943	 1.7144342314	 1.0151414641	 0.120653
H	 1.2862522075	-1.4706552498	-1.146288371	 0.124357
H	 2.1423603372	 0.074493409	-0.6654874324	 0.130155
H	 1.3226985613	-0.3087805103	 2.759738265	 0.289966
H	 0.0416958868	-2.7798869422	 0.7055773291	 0.110851
H	 1.4786249366	-2.8081805973	 1.754791873	 0.118901
H	-1.0342405387	-1.7357581301	 2.4044486974	 0.293905
H	-3.1900552918	-1.6002344351	-0.818106989	 0.194051
65.0592	118.1874	159.8336	184.0974	194.8673	253.9914	292.4421	365.4306	407.4079	417.6361	450.639	507.043	542.3876	554.1667	570.0747	587.6985	644.2969	663.4007	763.5789	883.0417	916.411	932.8459	975.1514	997.1066	1050.6713	1072.3143	1100.1325	1131.28	1210.2573	1248.3514	1270.3232	1323.3257	1373.0285	1406.4291	1412.2699	1440.4597	1486.139	1489.3777	1492.5127	1502.1383	2217.8254	3042.3975	3042.5791	3093.3254	3104.215	3134.82	3140.404	3227.5574	3500.4988	3748.8711	3791.9079
CC1(CC1(O)CO)C#C	C[C@]1(C[C@]1(O)CO)C#C	
InChI=1S/C7H10O2/c1-3-6(2)4-7(6,9)5-8/h1,8-9H,4-5H2,2H3	InChI=1S/C7H10O2/c1-3-6(2)4-7(6,9)5-8/h1,8-9H,4-5H2,2H3/t6-,7+/m1/s1
