25
gdb 118077	3.46666	0.74471	0.64389	1.9448	87.3	-0.2492	0.083	0.3322	1836.3779	0.22513	-426.611227	-426.599201	-426.598257	-426.64923	41.988	
C	-0.0669292766	 1.3608657196	 0.0846621486	-0.226903
O	-0.0771917149	-0.0423834558	 0.0052062935	-0.231271
C	 0.6738251002	-0.5365137167	-1.0841125719	-0.066015
C	 0.5910154605	-2.065234077	-1.0859929947	-0.002369
C	-0.8696139548	-2.5323117994	-1.1368901821	-0.399177
C	 1.411301276	-2.6812910545	-2.2356232931	 0.142617
C	 2.8777809425	-2.2374005028	-2.2673329792	-0.410979
O	 1.3256467835	-4.0945174697	-2.0692045244	-0.246212
C	 1.5167679171	-4.8437261894	-3.2444733316	-0.23734
H	 0.9536403141	 1.7574919519	 0.2106571483	 0.101132
H	-0.503681476	 1.8259886806	-0.8139361755	 0.101673
H	-0.6647866931	 1.6451777869	 0.9542044433	 0.126064
H	 0.2768746824	-0.1322905839	-2.0342051596	 0.077861
H	 1.716829967	-0.1944908644	-0.9972333482	 0.084668
H	 1.0402922983	-2.4195234245	-0.1484232163	 0.087746
H	-1.352481366	-2.1939704199	-2.0626524815	 0.09828
H	-0.9226960422	-3.6215248742	-1.1045463041	 0.124923
H	-1.4310393287	-2.1186421021	-0.2974649056	 0.128029
H	 0.931803281	-2.4070641512	-3.192376059	 0.05857
H	 3.3475197685	-2.3959769663	-1.2913440597	 0.123426
H	 3.4386996939	-2.8105982792	-3.0108793172	 0.114876
H	 2.9744471566	-1.1811923763	-2.5340096874	 0.11769
H	 0.7927942097	-4.5659408629	-4.0268102816	 0.103073
H	 2.5290116784	-4.7349984929	-3.6620283822	 0.103432
H	 1.3655155229	-5.894507406	-2.983765889	 0.126205
47.6247	76.0203	87.4009	93.6798	136.9452	188.7693	205.7898	219.2049	241.2735	278.1906	297.8993	326.7866	351.9563	393.6748	457.7659	502.0536	570.7119	824.2315	871.7529	928.5846	931.4391	982.4047	992.1514	1045.0206	1108.0906	1129.7299	1144.1369	1159.7485	1172.5343	1180.7148	1189.3929	1197.3761	1216.5797	1237.8911	1275.5694	1303.2113	1350.9508	1374.2275	1389.948	1397.1448	1407.2073	1426.8664	1477.4134	1479.8134	1484.4848	1485.4443	1492.2798	1498.2246	1500.4986	1503.1585	1504.4955	1512.5728	1529.7962	2929.7333	2941.9357	2965.0044	2974.0375	2990.6313	3006.5016	3019.1821	3023.4809	3034.0594	3042.9888	3108.0815	3111.5006	3112.917	3114.156	3116.7455	3149.0684
COCC(C)C(C)OC	COC[C@@H](C)[C@@H](C)OC	
InChI=1S/C7H16O2/c1-6(5-8-3)7(2)9-4/h6-7H,5H2,1-4H3	InChI=1S/C7H16O2/c1-6(5-8-3)7(2)9-4/h6-7H,5H2,1-4H3/t6-,7-/m1/s1
