17
gdb 88740	3.46498	1.00738	0.88499	2.41	71.16	-0.2631	-0.0486	0.2145	1329.0353	0.132842	-458.921584	-458.912578	-458.911634	-458.95622	31.804	
C	-0.0884110406	 1.4990548804	-0.1232219363	-0.42427
C	-0.0495536139	 0.017441894	 0.1486240863	 0.084042
O	 1.1860521847	-0.6711011559	-0.0702879418	-0.261079
C	 0.6638985908	-0.6325609143	 1.2645654064	 0.011447
C	 1.4849763195	 0.12886671	 2.2507140323	 0.024951
O	 1.0021330442	 0.1681890256	 3.583429426	-0.22418
C	 2.2210970982	-0.5341524324	 3.3682489335	-0.044098
C	 2.2145649495	-2.021365984	 3.5419919295	 0.146138
O	 1.2252195688	-2.7083063635	 3.5554576172	-0.247359
H	 0.8005990502	 2.0111003017	 0.2498369471	 0.127113
H	-0.1512248805	 1.6785005682	-1.2013481527	 0.134593
H	-0.9720286481	 1.9465656488	 0.3437153442	 0.132579
H	-0.9170775185	-0.5291494318	-0.2270204415	 0.099258
H	 0.2761988519	-1.5759825548	 1.6427381182	 0.131346
H	 1.9219160584	 1.0586629969	 1.8884891135	 0.109582
H	 3.1177195293	-0.0347131854	 3.7384930239	 0.110849
H	 3.231609576	-2.4593956235	 3.6493019644	 0.089088
44.4037	113.6721	125.4935	169.6024	206.5144	234.2958	273.0868	393.6054	415.416	446.1137	559.8301	751.4822	778.6526	797.1328	863.2581	904.6483	932.0267	966.206	982.3815	1009.2568	1089.0139	1094.7182	1125.7764	1139.1689	1178.3878	1196.8372	1269.1255	1294.4738	1325.1754	1399.9194	1412.1362	1423.575	1440.8284	1479.0506	1492.4096	1517.6162	1824.5668	2889.3474	3043.4245	3087.992	3103.8896	3105.3393	3123.5707	3137.9287	3149.4764
CC1OC1C1OC1C=O	C[C@H]1O[C@H]1[C@H]1O[C@H]1C=O	
InChI=1S/C6H8O3/c1-3-5(8-3)6-4(2-7)9-6/h2-6H,1H3	InChI=1S/C6H8O3/c1-3-5(8-3)6-4(2-7)9-6/h2-6H,1H3/t3-,4+,5-,6+/m1/s1
