18
gdb 34418	2.32431	1.67523	1.2594	3.1914	75.22	-0.2686	0.0191	0.2876	1048.5046	0.149827	-401.959779	-401.952068	-401.951124	-401.992288	29.412	
N	-0.0354668626	-1.1247983887	 0.0868697203	-0.341875
C	-0.0452359614	 0.0317291809	 0.0730598818	 0.225946
C	-0.0525107812	 1.4820222461	 0.0568893947	 0.108467
C	-0.2178365187	 2.1757504312	-1.3206996626	-0.125489
O	 0.9318647207	 3.0056215322	-1.0831811292	-0.288026
C	 1.3254031075	 2.2272428691	 0.0717815288	 0.108048
C	 1.4208318529	 3.0263307269	 1.3792888055	-0.238173
C	 0.2609313024	 2.4956228543	 2.2503853535	-0.2082
C	-0.8350194264	 2.1110299275	 1.2398067792	-0.280579
H	-0.071971241	 1.5034500521	-2.1741769192	 0.120394
H	-1.136002304	 2.7565927232	-1.4592629001	 0.115782
H	 2.2037630789	 1.6116921502	-0.1472747279	 0.095868
H	 2.3935135495	 2.9190613463	 1.8651402446	 0.1107
H	 1.2798208538	 4.0839350479	 1.1362211277	 0.124005
H	 0.5840070676	 1.6034615237	 2.7989828154	 0.120214
H	-0.0854234944	 3.222237679	 2.9897096987	 0.110364
H	-1.3502571144	 3.0091042406	 0.8838557301	 0.117312
H	-1.5871624293	 1.4353969174	 1.6514188388	 0.125245
81.5869	140.0743	159.3437	218.9853	357.4316	378.7744	502.2199	548.4031	557.6059	576.6796	666.3791	780.2802	845.5395	881.6513	902.1994	913.181	955.9108	1004.3831	1008.9419	1022.4189	1044.9029	1072.2804	1128.2752	1151.5221	1181.5742	1185.7291	1231.4567	1252.8146	1293.1903	1319.9895	1323.1608	1343.5899	1363.573	1368.8738	1479.4512	1488.3785	1501.9459	1523.3056	2349.941	3025.8927	3045.3964	3055.1746	3056.12	3062.6957	3079.9258	3100.6451	3114.2831	3120.1731
N#CC12COC1CCC2	N#C[C@]12CO[C@H]1CCC2	
InChI=1S/C7H9NO/c8-4-7-3-1-2-6(7)9-5-7/h6H,1-3,5H2	InChI=1S/C7H9NO/c8-4-7-3-1-2-6(7)9-5-7/h6H,1-3,5H2/t6-,7+/m0/s1
