19
gdb 106782	2.17401	1.56669	1.14186	2.6561	72.42	-0.2298	0.0717	0.3016	1138.8037	0.15605	-460.108146	-460.098206	-460.097262	-460.14317	35.743	
C	 0.1092201343	 1.3061983018	 0.1585253106	-0.263144
O	-0.2299143056	-0.0468849263	-0.1298300057	-0.283345
C	 0.467758634	-0.574270134	-1.192192237	 0.305716
C	 1.8879092488	-1.1097122808	-1.0879093756	-0.429469
C	 0.782743437	-2.0324000253	-1.5339480032	 0.329019
O	 0.4734257405	-3.2434766591	-0.947961089	-0.457829
C	 0.4320422074	-1.7812560636	-2.9974134929	-0.295167
C	 0.1157497394	-0.2798805572	-2.6560800869	 0.085002
O	-1.2231822274	 0.1154890209	-2.840647923	-0.444772
H	 1.175554378	 1.4026176404	 0.4025872709	 0.114702
H	-0.1259772885	 1.9631801057	-0.6880229151	 0.130033
H	-0.4879170956	 1.6052220645	 1.0225476086	 0.130231
H	 2.690197221	-0.7904471284	-1.7529734219	 0.105928
H	 2.1951084866	-1.2592621684	-0.0542489822	 0.109199
H	 0.9809978448	-3.3404659961	-0.1366016568	 0.288249
H	 1.2158422316	-1.9856538076	-3.7343832708	 0.093185
H	-0.4915214544	-2.2865188433	-3.2884808421	 0.117542
H	 0.7411765098	 0.4554987089	-3.174807673	 0.075881
H	-1.7188068615	-0.1794809121	-2.0674205151	 0.289039
74.0723	102.3268	118.5772	141.6482	153.2936	191.4815	279.71	298.6837	373.8936	424.6405	440.5337	509.1216	578.942	615.7957	745.8094	752.0854	842.3402	885.4659	923.4017	971.6659	1031.1958	1038.308	1057.764	1075.0763	1119.9395	1139.6224	1177.1339	1193.5392	1207.1051	1218.1052	1246.3069	1303.5078	1320.7686	1391.1071	1395.8151	1430.4213	1467.726	1478.246	1488.4597	1504.8574	1518.182	3004.7363	3038.0494	3049.0244	3067.6263	3076.5817	3120.1603	3126.2205	3168.1638	3789.8484	3830.8633
COC12CC1(O)CC2O	CO[C@@]12C[C@]1(O)C[C@H]2O	
InChI=1S/C6H10O3/c1-9-6-3-5(6,8)2-4(6)7/h4,7-8H,2-3H2,1H3	InChI=1S/C6H10O3/c1-9-6-3-5(6,8)2-4(6)7/h4,7-8H,2-3H2,1H3/t4-,5-,6-/m1/s1
