19
gdb 106576	2.40049	1.68024	1.23302	2.2805	74.92	-0.2391	-0.0006	0.2385	1071.271	0.158696	-422.975823	-422.967524	-422.96658	-423.008461	32.659	
C	-0.0811457602	 1.5369253008	-0.0464440993	-0.426421
C	-0.0165999113	 0.0181875358	-0.0164379761	-0.023451
C	 1.304016621	-0.6345069918	-0.5567436877	 0.001786
O	 1.9393195947	-0.2829167381	 0.7186774637	-0.335718
C	 0.6155962103	-0.6499903486	 1.2649100202	 0.338698
C	 0.4295609913	-0.2136690259	 2.6929573614	-0.182906
O	 1.3960127037	-0.8256350477	 3.5300790774	-0.420062
C	 0.5459235129	-2.1426474887	 0.8883684737	-0.117437
C	 1.0149228435	-2.1304679209	-0.3605482518	-0.089146
H	 0.8576731966	 1.9744977384	 0.3000079491	 0.134671
H	-0.2734609331	 1.8909345514	-1.0651952642	 0.115813
H	-0.8946567319	 1.9096650521	 0.5855051138	 0.117839
H	-0.9448399395	-0.4380349285	-0.3698697571	 0.073026
H	 1.8370424598	-0.2803636677	-1.4387174057	 0.079401
H	 0.4763983732	 0.8836173999	 2.756525776	 0.096941
H	-0.554964477	-0.5286086359	 3.056650148	 0.110321
H	 2.2491497483	-0.7000090421	 3.0974280149	 0.297162
H	 0.1908973304	-2.9477337413	 1.5142153644	 0.117812
H	 1.1507308573	-2.925336611	-1.0789145206	 0.11167
85.7624	146.943	238.2547	241.5051	253.2645	328.8652	400.3606	439.0285	487.8957	535.5249	622.2539	682.8538	696.3147	743.5593	807.7674	825.3462	869.4981	899.5369	903.6645	953.8725	981.2437	1037.372	1041.3036	1075.3802	1079.2435	1101.3849	1124.9695	1199.9341	1220.963	1238.4514	1259.3112	1290.3703	1332.4591	1366.9568	1380.5298	1400.7757	1441.3324	1491.7869	1498.7818	1504.648	1617.3927	2996.532	3034.3453	3068.5373	3076.6878	3091.7129	3128.4344	3130.8866	3232.7435	3260.2216	3792.5292
CC1C2OC1(CO)C=C2	C[C@H]1[C@H]2O[C@]1(CO)C=C2	
InChI=1S/C7H10O2/c1-5-6-2-3-7(5,4-8)9-6/h2-3,5-6,8H,4H2,1H3	InChI=1S/C7H10O2/c1-5-6-2-3-7(5,4-8)9-6/h2-3,5-6,8H,4H2,1H3/t5-,6-,7-/m0/s1
