13
gdb 15284	5.1358	1.14479	1.01111	3.4214	64.85	-0.2782	-0.0111	0.2672	1096.2234	0.093415	-361.411309	-361.403453	-361.402509	-361.444208	27.626	
C	 0.036660318	-1.1445339836	-0.3690368094	-0.419268
C	 0.0067140802	 0.008583456	-0.0349699236	 0.290849
C	 0.0002050099	 1.4074006649	 0.3767677403	-0.395374
C	 1.3779625393	 2.0349168131	 0.2681570026	 0.079379
O	 1.7727330999	 2.537597547	-1.0022696539	-0.218601
C	 1.5733755175	 3.4848605997	 0.0487588427	-0.106849
C	 0.4444535874	 4.3810479968	-0.0854692849	 0.304707
N	-0.4494937421	 5.109055928	-0.1682651691	-0.323398
H	 0.0496409944	-2.1623240059	-0.6722089065	 0.205301
H	-0.7060370342	 1.9840748649	-0.2303396872	 0.16425
H	-0.3374906115	 1.4887482878	 1.4184606079	 0.149421
H	 2.1692145511	 1.5145687722	 0.8078986239	 0.124039
H	 2.4770635701	 3.960290169	 0.4252638071	 0.145544
55.7006	96.1731	159.5097	225.4806	332.6773	342.0863	377.8599	508.5938	579.0969	610.9197	630.421	660.4273	810.1841	819.5528	924.5071	974.0291	996.0579	1033.8908	1117.2474	1143.046	1242.2451	1278.8981	1323.5164	1378.4309	1451.4872	1457.2998	2246.2308	2360.5108	3028.3498	3077.6053	3119.5142	3137.4253	3505.3548
C#CCC1OC1C#N	C#CC[C@H]1O[C@H]1C#N	
InChI=1S/C6H5NO/c1-2-3-5-6(4-7)8-5/h1,5-6H,3H2	InChI=1S/C6H5NO/c1-2-3-5-6(4-7)8-5/h1,5-6H,3H2/t5-,6+/m1/s1
