18
gdb 65995	2.5257	1.37055	1.30813	2.233	71.97	-0.2473	-0.0357	0.2116	1085.6789	0.146122	-439.054462	-439.045641	-439.044697	-439.088173	32.335	
C	-0.1251759537	 1.6699230428	 0.3090955769	-0.428851
C	-0.0482466205	 0.1695940946	 0.0604070593	 0.233402
O	 0.8227891447	-0.1692189921	-1.0635272782	-0.327883
C	 1.7710680138	-0.8980599372	-0.2523865475	-0.202676
C	 0.9261583276	-0.5906783701	 0.9871568535	 0.326424
O	 0.9911071199	-0.8135547919	 2.1558088913	-0.277197
C	-1.4185194142	-0.4672846267	-0.0828282852	-0.026668
C	-2.1102636803	-0.437855338	-1.3934570491	-0.242455
N	-1.5888515151	-1.706264104	-0.8474178584	-0.326847
H	 0.8714470803	 2.1003136679	 0.4389784248	 0.126296
H	-0.6124821291	 2.1631856141	-0.5366318689	 0.13704
H	-0.7090610626	 1.8689270986	 1.2128927189	 0.139325
H	 1.8418580909	-1.9596193659	-0.5204530497	 0.137328
H	 2.7726150385	-0.4515221224	-0.2641058247	 0.13947
H	-2.0079864582	-0.418943634	 0.8302860952	 0.108921
H	-3.1926632137	-0.3608981392	-1.4355993962	 0.122068
H	-1.5800697089	 0.0087221911	-2.2299316055	 0.125565
H	-0.7124333293	-1.9046759775	-1.3281018365	 0.236737
83.7371	108.4535	134.2009	188.25	220.1287	247.9436	307.0207	374.5207	470.5527	551.4225	572.5492	637.0487	732.6816	832.2858	856.2088	875.7455	934.5299	949.4624	986.5026	999.9503	1018.5648	1041.6783	1096.4148	1123.5786	1139.8873	1152.2465	1178.0573	1202.8945	1242.5118	1284.2808	1293.8437	1306.4836	1396.4238	1405.8289	1479.4631	1480.7176	1488.9983	1504.5208	1925.0466	3022.0628	3043.3444	3071.5825	3114.3595	3120.8619	3122.9631	3135.5739	3203.3145	3481.5301
CC1(OCC1=O)C1CN1	C[C@]1(OCC1=O)[C@H]1CN1	
InChI=1S/C6H9NO2/c1-6(4-2-7-4)5(8)3-9-6/h4,7H,2-3H2,1H3	InChI=1S/C6H9NO2/c1-6(4-2-7-4)5(8)3-9-6/h4,7H,2-3H2,1H3/t4-,6+/m1/s1
