14
gdb 48805	2.31052	1.53678	1.15414	4.6678	67.84	-0.273	-0.0493	0.2237	1054.4285	0.099602	-436.655129	-436.647307	-436.646363	-436.687952	28.215	
O	-0.0850376847	-0.0208844909	 0.019332712	-0.262187
C	-0.0330920135	 1.185747951	-0.0038553722	 0.06441
C	 1.2226302748	 1.9423508631	 0.0262752485	 0.165115
C	 1.3682377371	 3.4266158916	 0.3374117996	-0.360219
C	 1.8002157366	 2.9495399073	-0.9927666633	 0.07814
O	 3.0862491439	 2.3412278499	-0.9654146873	-0.272544
C	 2.6120109833	 1.305504552	-0.0586036137	-0.075213
C	 3.4036757703	 1.2186061623	 1.1686707905	 0.300403
N	 4.0191844098	 1.1600176506	 2.1444008723	-0.318251
H	-0.951043351	 1.8113632132	-0.0641656935	 0.083523
H	 0.4231736129	 3.9617063112	 0.3569706121	 0.142329
H	 2.1013903321	 3.7427330721	 1.0733253748	 0.157702
H	 1.414663837	 3.276085859	-1.9508495428	 0.137948
H	 2.5838757111	 0.3353638776	-0.562477167	 0.158844
86.7987	132.535	145.8149	211.6953	270.5385	354.3757	443.6271	482.3566	553.3322	563.1708	721.6159	760.0181	792.0784	896.9974	948.5426	975.0587	996.007	1012.6736	1037.517	1062.5772	1100.6803	1104.7056	1200.5732	1232.5105	1310.067	1357.7647	1382.2478	1434.1266	1471.9834	1799.6589	2363.383	2888.0324	3084.8807	3124.1856	3199.7837	3218.1553
O=CC12CC1OC2C#N	O=C[C@]12C[C@H]1O[C@H]2C#N	
InChI=1S/C6H5NO2/c7-2-5-6(3-8)1-4(6)9-5/h3-5H,1H2	InChI=1S/C6H5NO2/c7-2-5-6(3-8)1-4(6)9-5/h3-5H,1H2/t4-,5+,6-/m1/s1
