14
gdb 5493	3.47432	1.90067	1.23796	0.6722	71.8	-0.2214	-0.0054	0.216	924.6742	0.106556	-345.407691	-345.400236	-345.399292	-345.439393	27.587	
C	-0.0355043225	 1.4966810393	 0.0576980765	-0.512713
C	-0.0114137835	 0.0030526192	 0.019671325	 0.136795
C	-0.0245062191	-0.8119460804	-1.0642978977	-0.089438
O	 0.0066061379	-2.1259392757	-0.695587541	-0.140619
C	 0.0402715435	-2.155149061	 0.6533791726	-0.115782
C	 0.0320682617	-0.8872315099	 1.1649939635	 0.050113
C	 0.0595242606	-0.5109677786	 2.5267809991	 0.25263
C	 0.0822254879	-0.1593537747	 3.6786596141	-0.460388
H	 0.8515478823	 1.8948584065	 0.5621798899	 0.139082
H	-0.0696091501	 1.916390174	-0.951043076	 0.12482
H	-0.9071072712	 1.8652318723	 0.6093818426	 0.139099
H	-0.0539471648	-0.624799383	-2.1250933393	 0.140055
H	 0.067777392	-3.1282795592	 1.1142835445	 0.147324
H	 0.1027864653	 0.1398707812	 4.6969949262	 0.189023
112.2073	130.7544	174.2945	264.1435	307.7977	470.4323	518.189	557.0296	578.6086	614.824	655.5572	672.9915	690.8826	753.8997	784.3157	892.9128	1014.7702	1067.4355	1085.5636	1168.1295	1189.5137	1250.2974	1313.2164	1364.5989	1421.4695	1479.358	1491.6711	1570.3474	1640.4782	2233.0851	3034.9376	3088.1467	3117.0316	3275.7285	3283.5884	3504.2782
CC1=COC=C1C#C	Cc1cocc1C#C	
InChI=1S/C7H6O/c1-3-7-5-8-4-6(7)2/h1,4-5H,2H3	InChI=1S/C7H6O/c1-3-7-5-8-4-6(7)2/h1,4-5H,2H3
