20
gdb 59311	2.61913	1.23514	0.92786	3.0831	75.44	-0.2459	0.004	0.2499	1300.0511	0.170189	-440.314163	-440.304387	-440.303443	-440.348809	35.76	
C	-0.1933404326	 1.486340122	-0.166762227	-0.394652
C	-0.037428961	-0.0292134074	 0.0187545007	 0.017753
C	 0.9201090991	-0.367464385	 1.1712510417	-0.402536
C	-1.3917908414	-0.6781445913	 0.2644977266	 0.136422
O	-2.3602265624	-0.3872981741	-0.8109750868	-0.257015
C	-2.4753998249	-1.7076198475	-1.1587400638	 0.418426
O	-3.0707407307	-2.1727781483	-2.0780519895	-0.328524
C	-1.5730967201	-2.2009899963	-0.0083489831	-0.18819
N	-0.4187502249	-3.0285422228	-0.2731319434	-0.51094
H	 0.7748567708	 1.9478580979	-0.3840021473	 0.113796
H	-0.8784147474	 1.7157704761	-0.9865039917	 0.136995
H	-0.5877929164	 1.9519649711	 0.7442020867	 0.113652
H	 0.3738617892	-0.4462235256	-0.9108833288	 0.069334
H	 0.541744869	 0.0308578603	 2.1203259837	 0.111746
H	 1.0464798729	-1.4477445265	 1.2742032923	 0.142832
H	 1.9020760961	 0.0820366945	 0.9947008818	 0.115461
H	-1.8138915309	-0.3390563598	 1.216453632	 0.091467
H	-2.1749691545	-2.6756132986	 0.7714052071	 0.120702
H	-0.6850364629	-4.0065259572	-0.2921184584	 0.2486
H	-0.0142559771	-2.8191835115	-1.1798248228	 0.244671
74.2561	93.2097	163.2946	196.4306	224.2739	238.5791	248.228	264.9999	318.3276	392.3625	426.0742	470.5738	597.1228	701.3266	773.0084	803.9599	836.2546	886.0373	913.4376	935.366	941.4635	976.4789	1019.3208	1111.3686	1128.3232	1138.8424	1186.1468	1206.5442	1214.4569	1237.7481	1301.3235	1315.1476	1342.8852	1397.4938	1406.8526	1422.8454	1427.4455	1488.8976	1494.7674	1503.4228	1519.0179	1668.5584	1927.0823	3009.6536	3030.0675	3033.8567	3057.2343	3083.5067	3095.0723	3100.8369	3124.8628	3127.9686	3515.1384	3592.5877
CC(C)C1OC(=O)C1N	CC(C)[C@H]1OC(=O)[C@H]1N	
InChI=1S/C6H11NO2/c1-3(2)5-4(7)6(8)9-5/h3-5H,7H2,1-2H3	InChI=1S/C6H11NO2/c1-3(2)5-4(7)6(8)9-5/h3-5H,7H2,1-2H3/t4-,5+/m0/s1
