14
gdb 16686	3.05538	2.29421	1.88538	3.0731	56.7	-0.2311	-0.0197	0.2113	743.8815	0.107326	-419.659993	-419.653477	-419.652533	-419.690568	25.116	
O	-0.0109561053	 1.4959088027	 0.072664523	-0.423481
C	 0.0246062785	 0.102128341	-0.0093334614	 0.11422
C	-1.3326669872	-0.6084062805	-0.201470349	 0.045488
C	-1.9808181114	 0.1079018681	-1.397464098	-0.340792
C	-0.7216960162	 0.1068102177	-2.2929267659	 0.457987
O	-0.5552489556	 0.5455741096	-3.3947796455	-0.321818
C	 0.2659890564	-0.627201293	-1.3690254335	-0.101932
O	-0.5952770135	-1.6937600364	-0.8588512309	-0.297332
H	 0.8860855813	 1.8313758075	 0.1654800381	 0.298501
H	 0.6101316696	-0.373654849	 0.7843954391	 0.098602
H	-1.9558624883	-0.9326184546	 0.6301949068	 0.094785
H	-2.7950012046	-0.4742286661	-1.8348667923	 0.135567
H	-2.3194147737	 1.1263589175	-1.1954693823	 0.143157
H	 1.2305380001	-0.9461711944	-1.7581542983	 0.097047
121.4203	236.5428	256.5959	335.3007	431.4432	457.1647	566.2568	640.105	666.1675	774.375	797.5607	852.7382	859.7391	911.7539	951.5209	982.5759	1008.6432	1103.1546	1121.3578	1150.7859	1169.9983	1188.0557	1215.0548	1254.0368	1288.7797	1300.6814	1325.1643	1417.1081	1443.4553	1887.1714	3059.1983	3079.5169	3135.4631	3138.1079	3155.3663	3828.4278
OC1C2CC(=O)C1O2	O[C@H]1[C@H]2CC(=O)[C@@H]1O2	
InChI=1S/C5H6O3/c6-2-1-3-4(7)5(2)8-3/h3-5,7H,1H2	InChI=1S/C5H6O3/c6-2-1-3-4(7)5(2)8-3/h3-5,7H,1H2/t3-,4+,5+/m1/s1
