17
gdb 35345	3.6341	1.4389	1.28104	3.5871	78.86	-0.2377	0.007	0.2447	1005.2044	0.136887	-380.745617	-380.7386	-380.737656	-380.776844	28.475	
N	-0.1821057148	-1.262465124	-0.0101527452	-0.343305
C	-0.1226052116	-0.1070418747	 0.0270018755	 0.293253
C	-0.063136643	 1.3499350948	 0.0156218961	-0.143202
C	-0.3156705186	 2.0956949682	 1.3985018496	-0.347345
C	 1.2119318582	 2.2937612599	 1.3928553259	 0.290965
C	 2.5039526935	 3.1470312841	 1.25022652	-0.276688
C	 2.6708469829	 1.7962376287	 0.4220130646	-0.015193
C	 2.125109598	 1.0420189858	 1.6407760945	-0.270579
N	 1.2599829229	 2.1161367622	-0.0977874527	-0.151353
H	-0.708853343	 1.6895008043	-0.7976099868	 0.139527
H	-0.8934876155	 3.0073672318	 1.2392529428	 0.132435
H	-0.7407111248	 1.5085250614	 2.2130410519	 0.13038
H	 2.3994370939	 4.0522331963	 0.6529255312	 0.118571
H	 3.163278182	 3.2633795833	 2.1125815495	 0.105475
H	 3.4967378839	 1.5354832445	-0.2423724261	 0.098354
H	 2.7390255716	 1.0492620971	 2.545017431	 0.09818
H	 1.6966188545	 0.0574836163	 1.4669593682	 0.140527
134.5126	152.8702	302.1909	331.2448	407.2505	470.7842	517.6468	553.6725	620.7278	693.0757	748.3443	774.9958	798.4184	842.4155	876.0509	917.9743	931.4359	982.7609	996.2169	1004.5672	1022.2489	1077.3397	1088.9813	1123.5678	1130.9598	1173.3233	1188.7945	1195.8268	1214.4746	1226.1376	1250.3826	1281.041	1336.4339	1470.4871	1477.3633	1532.3455	2335.3397	3069.4908	3078.1419	3081.8471	3087.5611	3100.0722	3153.7123	3165.9552	3167.6078
N#CC1CC23CC(C2)N13	N#C[C@H]1C[C@@]23C[C@@H](C2)N13	
InChI=1S/C7H8N2/c8-4-6-3-7-1-5(2-7)9(6)7/h5-6H,1-3H2	InChI=1S/C7H8N2/c8-4-6-3-7-1-5(2-7)9(6)7/h5-6H,1-3H2/t5-,6-,7+/m1/s1
