14
gdb 133502	2.44667	1.38389	1.08298	2.8992	50.98	-0.2536	0.0083	0.2619	1070.7043	0.097201	-601.540855	-601.531843	-601.530899	-601.575291	32.416	
N	 0.2151702392	 1.5179458306	 0.0424022427	-0.508783
C	 0.03952056	 0.0870044599	-0.0690415305	-0.24585
C	 0.7220330994	-0.422700649	-1.3698333894	 0.411963
N	 0.7222108428	-1.7647354398	-1.5603537177	-0.520135
O	 1.1685046994	 0.3677047479	-2.1776453821	-0.359034
C	 0.6111795876	-0.5885182651	 1.1864468742	 0.301113
F	 0.0798237633	-0.0689996898	 2.2926443908	-0.062708
F	 0.3178926011	-1.9183632896	 1.2038334869	-0.104263
F	 1.9369895344	-0.4757949689	 1.2624170623	-0.063533
H	 0.634987511	 1.844676183	-0.8245835851	 0.256336
H	-0.6671869451	 1.9913422244	 0.179596045	 0.23964
H	-1.0137737268	-0.225069955	-0.1092536959	 0.115405
H	 0.490586803	-2.3958714707	-0.8124719423	 0.271066
H	 1.2228993807	-2.118164568	-2.3599806289	 0.268784
46.3382	76.9642	186.8438	206.4634	249.6773	308.6565	364.1003	369.4292	390.2966	490.0503	497.2558	536.9379	585.5631	638.1593	656.241	734.9715	828.4003	862.0287	918.1191	1101.2437	1133.845	1136.8744	1186.0773	1226.9587	1288.2342	1342.5971	1363.2458	1412.1837	1625.3547	1647.3684	1806.6526	3012.0569	3493.9545	3598.2841	3613.6082	3731.4815
NC(C(N)=O)C(F)(F)F	N[C@@H](C(=O)N)C(F)(F)F	
InChI=1S/C3H5F3N2O/c4-3(5,6)1(7)2(8)9/h1H,7H2,(H2,8,9)	InChI=1S/C3H5F3N2O/c4-3(5,6)1(7)2(8)9/h1H,7H2,(H2,8,9)/t1-/m0/s1
