23
gdb 118075	2.72731	0.79103	0.69793	1.2401	79.09	-0.2512	0.0754	0.3266	1724.4619	0.202463	-462.548674	-462.537039	-462.536095	-462.586197	40.903	
C	 0.1122575653	 1.3423053637	-0.2148913623	-0.235605
O	 0.0307971751	-0.0482841305	-0.004339459	-0.266053
C	-1.2893420521	-0.5901902755	 0.0403882882	 0.117251
C	-1.903674517	-0.7121490831	-1.3541705172	-0.41025
C	-1.1260772062	-1.9622072133	 0.7213647507	 0.118464
O	-0.1621265872	-2.7353190613	 0.0140514271	-0.443954
C	-0.772360403	-1.8294573918	 2.2066068314	-0.190286
C	-0.5825195917	-3.1763595898	 2.8904619667	-0.079149
O	-0.2867191483	-2.9292208769	 4.2592963043	-0.4248
H	 1.1671405883	 1.6177810331	-0.1389898872	 0.129349
H	-0.2550758528	 1.6411795424	-1.2066338913	 0.111351
H	-0.4544929864	 1.8986687386	 0.5470676852	 0.109313
H	-1.922405331	 0.0513785955	 0.6743886528	 0.065464
H	-1.3250971443	-1.4196580465	-1.9532563496	 0.136157
H	-2.9326319183	-1.0789570224	-1.2818579875	 0.116072
H	-1.9318112051	 0.2513143996	-1.8703999105	 0.112535
H	-2.072248147	-2.5095146835	 0.6218708375	 0.078058
H	 0.5969179075	-2.1503107667	-0.108253619	 0.28887
H	 0.144000544	-1.238443834	 2.3106974963	 0.109957
H	-1.568944791	-1.2801235427	 2.7240162081	 0.096164
H	-1.5002833905	-3.7799164359	 2.7862798385	 0.077395
H	 0.2269350625	-3.7273920436	 2.3931819818	 0.100338
H	-0.0967523407	-3.7730902252	 4.6789730951	 0.283359
58.9919	70.7847	87.0691	110.6698	136.3054	194.628	218.3272	231.6224	265.3413	288.7294	308.2783	358.2216	375.8352	446.8647	485.3577	563.6976	679.5229	806.6917	813.4909	901.2668	965.9272	1004.7757	1013.6113	1060.0687	1074.4294	1106.3068	1124.9821	1145.5231	1160.8305	1183.4551	1205.0071	1217.8496	1241.0416	1292.1551	1306.0082	1323.8393	1352.7636	1372.2558	1394.2146	1401.6824	1433.2078	1461.9756	1479.1203	1483.2825	1490.7219	1494.677	1501.3566	1512.5755	1531.4361	2958.2206	2974.2674	2985.4175	3024.6433	3030.3944	3035.124	3035.9091	3045.8574	3086.9263	3110.4483	3112.8103	3131.1689	3772.8484	3830.31
COC(C)C(O)CCO	CO[C@@H](C)[C@@H](O)CCO	
InChI=1S/C6H14O3/c1-5(9-2)6(8)3-4-7/h5-8H,3-4H2,1-2H3	InChI=1S/C6H14O3/c1-5(9-2)6(8)3-4-7/h5-8H,3-4H2,1-2H3/t5-,6-/m0/s1
