17
gdb 111441	3.06671	1.5565	1.23729	3.793	67.21	-0.2511	0.0432	0.2944	1028.4561	0.135297	-458.897674	-458.889995	-458.889051	-458.930274	28.823	
C	 0.1681275587	 1.2479296176	 0.2010110885	-0.234545
O	-0.1652681075	-0.0759927193	-0.1542614203	-0.236459
C	 0.5758800359	-0.584522784	-1.2329288461	 0.108676
C	 2.0911813665	-0.746956265	-1.0098585961	-0.021797
O	 2.4678551112	-1.6350864664	 0.0415138293	-0.222553
C	 2.4738153024	-2.1401087317	-1.2915455929	 0.009696
C	 1.2120651372	-2.9135484603	-1.6572659827	 0.002114
O	 0.2648281743	-2.9798104926	-0.594688688	-0.219409
C	 0.0737905029	-1.9831869289	-1.5959400834	-0.011211
H	 1.1942951578	 1.326893178	 0.5870115943	 0.117686
H	 0.0611971474	 1.9379890262	-0.651562612	 0.100314
H	-0.5254359601	 1.55072884	 0.9884436876	 0.134306
H	 0.4530724992	 0.0612124638	-2.1236977994	 0.064296
H	 2.7589944705	 0.0966029275	-1.1705090696	 0.102414
H	 3.4388203273	-2.4333991559	-1.6948956673	 0.101263
H	 1.2622091167	-3.7711282133	-2.3218573947	 0.101265
H	-0.8313270205	-2.0846593956	-2.1898565172	 0.103944
70.1665	132.0619	176.2118	228.458	314.066	333.8769	472.8487	542.3977	586.8436	704.6318	759.8954	820.1761	864.1762	869.3293	893.6182	903.986	966.2415	985.3107	1023.311	1049.946	1081.0204	1100.1501	1112.7788	1165.6686	1181.2877	1229.5579	1243.8497	1269.6367	1292.8685	1324.7856	1338.4805	1363.3639	1428.5752	1436.6943	1479.3152	1490.2586	1507.2559	2924.6712	2973.5583	3030.7814	3121.0529	3132.6816	3142.0648	3153.529	3166.9416
COC1C2OC2C2OC12	CO[C@H]1[C@H]2O[C@H]2[C@H]2O[C@@H]12	
InChI=1S/C6H8O3/c1-7-2-3-5(8-3)6-4(2)9-6/h2-6H,1H3	InChI=1S/C6H8O3/c1-7-2-3-5(8-3)6-4(2)9-6/h2-6H,1H3/t2-,3+,4-,5+,6-
