18
gdb 45323	2.86589	1.5997	1.27358	2.5159	76.1	-0.2223	-0.0241	0.1982	1020.8632	0.148892	-401.946695	-401.939147	-401.938203	-401.979086	29.252	
O	 0.1642357437	 0.2133315596	-1.0262005026	-0.293128
C	 0.0540920203	 1.1902032882	-0.3472421534	 0.399794
C	-1.0086046942	 1.7510948516	 0.5990660425	-0.296485
N	-0.1761773263	 2.9754260166	 0.7439766519	-0.100039
C	 0.1161253048	 3.3990351645	 2.1142129882	-0.222667
C	 1.0306416962	 2.4459398632	 2.8536293546	-0.065465
C	 1.9978996222	 1.7995089178	 2.2036007385	-0.059097
C	 2.2489692764	 2.0417344558	 0.7373701892	-0.287789
C	 0.9598599435	 2.3934804125	-0.0389806067	-0.102633
H	-2.0052996144	 1.9250697842	 0.178995351	 0.128958
H	-1.1018553449	 1.1394086962	 1.5091167805	 0.124208
H	 0.5654140854	 4.4024913212	 2.0777438968	 0.116454
H	-0.836181642	 3.5170542895	 2.6417618716	 0.114614
H	 0.8807556524	 2.3021417227	 3.9201571831	 0.092061
H	 2.6551715753	 1.1080820963	 2.723009295	 0.095736
H	 2.9651900174	 2.8676525769	 0.628351201	 0.122597
H	 2.7169489544	 1.1736511194	 0.2599239695	 0.129766
H	 1.20799547	 2.9885191137	-0.9263933208	 0.103115
63.0997	122.2889	189.3376	309.7734	395.2364	423.705	503.4826	519.0034	555.9275	634.5092	700.3039	739.6008	794.5319	818.5745	908.9681	932.0227	943.087	985.8632	998.2129	1028.5385	1054.6555	1066.7835	1114.553	1118.8464	1166.4486	1190.2743	1214.6844	1257.5778	1264.3306	1302.2957	1314.4745	1348.3691	1369.4448	1406.6265	1457.7526	1476.3054	1482.7858	1711.1289	1911.0768	2994.652	2998.5082	3008.5003	3029.4945	3064.2708	3065.3771	3068.0611	3154.5445	3178.1035
O=C1CN2CC=CCC12	O=C1CN2CC=CC[C@@H]12	
InChI=1S/C7H9NO/c9-7-5-8-4-2-1-3-6(7)8/h1-2,6H,3-5H2	InChI=1S/C7H9NO/c9-7-5-8-4-2-1-3-6(7)8/h1-2,6H,3-5H2/t6-/m0/s1
