18
gdb 79146	2.54452	1.80099	1.28746	2.3454	70.01	-0.2293	0.0635	0.2927	994.7734	0.14889	-439.031022	-439.023456	-439.022512	-439.062735	30.274	
O	-0.0363997544	 1.384903221	 0.0148917894	-0.447735
C	 0.024161483	-0.0265668353	 0.0200328594	 0.12087
C	-1.4109055431	-0.5569173298	-0.0530670743	-0.051962
C	-1.2633008582	-0.8665310874	-1.5078000282	-0.06601
C	 0.268748478	-0.6461119779	-1.3990426867	-0.110922
C	 0.8411597966	-2.0550696699	-1.2661502447	 0.110513
O	 2.1180862269	-1.9987311117	-0.6481549535	-0.437921
C	-0.2616681437	-2.7580594484	-0.4205371641	-0.204448
N	-1.4858513089	-1.9413331829	-0.5429993391	-0.106578
H	 0.866369053	 1.7165698566	-0.0258152018	 0.2849
H	 0.6707398487	-0.393750176	 0.8262844853	 0.077267
H	-2.2537621847	-0.1651145572	 0.5055623361	 0.096869
H	-1.9267067828	-0.7245972549	-2.351841592	 0.093043
H	 0.7754117151	 0.006729597	-2.1087357842	 0.073125
H	 0.9185883129	-2.5288824264	-2.2572428424	 0.068113
H	 2.4637190133	-2.8942468839	-0.5864984812	 0.287094
H	-0.485815729	-3.7648639676	-0.7865837544	 0.102869
H	 0.0539276675	-2.8380322254	 0.6248310764	 0.110912
139.8383	168.6542	269.3161	289.1267	322.5342	339.9531	400.0208	492.5711	523.0963	616.3533	698.4486	781.5439	831.4342	864.3339	885.855	899.7313	942.8384	966.3909	971.7426	1014.3959	1042.7832	1054.2576	1074.1519	1110.9193	1135.1691	1164.2518	1192.4825	1211.1055	1221.5556	1238.1537	1243.4242	1280.2743	1309.6533	1320.0933	1349.3614	1354.1645	1426.4566	1437.1486	1502.887	2974.1354	3026.592	3044.9795	3090.2082	3126.9754	3173.3903	3191.3271	3815.1056	3826.1285
OC1C2C3C1C(O)CN23	O[C@H]1[C@H]2[C@H]3[C@@H]1[C@@H](O)CN23	
InChI=1S/C6H9NO2/c8-2-1-7-4-3(2)6(9)5(4)7/h2-6,8-9H,1H2	InChI=1S/C6H9NO2/c8-2-1-7-4-3(2)6(9)5(4)7/h2-6,8-9H,1H2/t2-,3-,4+,5+,6+,7?/m0/s1
