21
gdb 115205	3.78697	0.98222	0.82406	2.9022	79.47	-0.2307	-0.0202	0.2105	1426.8084	0.182289	-424.259879	-424.250711	-424.249767	-424.294107	34.23	
C	-0.0228708143	 1.5929267667	 0.0207521556	-0.387544
C	-0.007983356	 0.0636138636	-0.0398019348	-0.19013
C	-1.4027656727	-0.5555123253	-0.009098926	 0.146143
C	-1.3903192058	-2.0811558653	-0.1378606423	-0.215892
C	-2.8154809419	-2.6520858416	-0.0382951891	-0.325363
C	-3.6130061294	-2.0427320734	 1.1046151303	 0.379916
O	-4.4261199735	-2.6601035929	 1.7498279164	-0.299046
C	-3.3623548192	-0.5519875485	 1.3410654692	-0.176091
O	-1.9999955318	-0.1900853983	 1.2342378233	-0.256733
H	 0.9941813521	 1.9957931063	 0.0190982275	 0.112119
H	-0.5511292527	 2.0176993094	-0.8403486234	 0.109988
H	-0.5273293289	 1.9362639597	 0.9270401516	 0.136062
H	 0.496272007	-0.2750659104	-0.9528421621	 0.096265
H	 0.562989679	-0.3398976818	 0.8053521159	 0.1071
H	-2.0062558174	-0.1286373891	-0.8329496295	 0.058057
H	-0.9299823164	-2.3780316756	-1.0867022086	 0.102055
H	-0.767773673	-2.4880321072	 0.6678575711	 0.11386
H	-3.3676319938	-2.4032232873	-0.9574077864	 0.125579
H	-2.833028301	-3.7403588803	 0.059425757	 0.125564
H	-3.9772885206	 0.0099406584	 0.6124613884	 0.104553
H	-3.6994682696	-0.2884149972	 2.3455976959	 0.133539
65.6734	95.2192	161.5307	174.9355	207.8721	261.9389	347.7799	402.0432	420.4574	476.5663	486.391	511.0852	675.3435	755.7045	762.459	808.9699	874.9361	918.7052	950.8679	982.6077	1023.183	1047.7857	1085.1733	1119.2606	1136.6257	1161.4168	1187.8024	1209.4921	1258.0095	1269.7381	1300.452	1315.7936	1337.7165	1358.0815	1374.9513	1396.5538	1405.864	1410.9617	1458.9061	1468.2281	1473.894	1486.328	1496.3656	1509.429	1825.6261	2921.0077	2932.8371	3006.5061	3028.441	3036.0672	3037.536	3066.4855	3080.2372	3102.1751	3102.6656	3115.0303	3128.0879
CCC1CCC(=O)CO1	CC[C@H]1CCC(=O)CO1	
InChI=1S/C7H12O2/c1-2-7-4-3-6(8)5-9-7/h7H,2-5H2,1H3	InChI=1S/C7H12O2/c1-2-7-4-3-6(8)5-9-7/h7H,2-5H2,1H3/t7-/m0/s1
