19
gdb 80577	2.37147	1.55865	1.33847	2.2682	70.36	-0.2176	0.0557	0.2733	1042.9695	0.159631	-460.150803	-460.142468	-460.141524	-460.183088	33.451	
O	-0.3438771058	 1.610382022	 0.1959116643	-0.438522
C	-0.2423927513	 0.2300178469	 0.1008517474	 0.057946
C	-0.4620310027	-0.7711254201	 1.22746823	-0.144734
C	-1.2788447081	-0.3680454968	 2.4457608712	-0.254394
C	-2.6089627183	 0.2223507092	 1.9114702625	 0.069439
O	-2.5703276743	 1.6583161925	 1.8071441093	-0.425136
C	-2.7711613069	-0.3399047729	 0.4884954004	-0.288327
C	-1.3801369826	-0.7542415446	 0.0121705805	 0.308929
O	-1.3207771138	-1.8048877496	-0.9107557886	-0.467023
H	-1.1337797231	 1.8365602193	 0.7169083782	 0.294
H	 0.5964970074	-0.0347077894	-0.5376827882	 0.101623
H	 0.275977557	-1.5581435342	 1.3405844258	 0.090868
H	-1.4874246132	-1.2546441494	 3.0550873186	 0.110244
H	-0.7688764821	 0.3532978415	 3.0969704487	 0.097156
H	-3.4558076975	-0.048282722	 2.5528545667	 0.0848
H	-2.3669384148	 2.0157312599	 2.6785761004	 0.290778
H	-3.3901470395	-1.2425329366	 0.5046866876	 0.115435
H	-3.2678533433	 0.3954916716	-0.1532242797	 0.113853
H	-1.3991261071	-1.4289063972	-1.794289165	 0.283064
131.7261	178.3693	236.5875	256.7858	316.2253	338.2421	355.081	409.4818	427.9127	511.6174	548.1573	602.4674	651.6838	709.5393	726.3269	811.8023	850.2453	879.5234	930.3396	961.4988	972.0312	1020.731	1060.5504	1069.3183	1102.7563	1126.6282	1187.0089	1194.8913	1223.043	1241.7786	1266.6125	1305.8818	1312.2913	1338.8556	1342.0241	1365.2057	1410.6403	1434.5279	1474.0832	1486.8312	1506.6234	3022.6508	3032.4297	3050.7031	3067.6988	3093.7555	3147.2304	3167.7634	3605.936	3797.5496	3808.1912
OC1C2CC(O)CC12O	O[C@H]1[C@H]2C[C@@H](O)C[C@@]12O	
InChI=1S/C6H10O3/c7-3-1-4-5(8)6(4,9)2-3/h3-5,7-9H,1-2H2	InChI=1S/C6H10O3/c7-3-1-4-5(8)6(4,9)2-3/h3-5,7-9H,1-2H2/t3-,4-,5+,6+/m1/s1
