20
gdb 107809	3.37549	1.44916	1.25856	1.6895	82.32	-0.2243	0.0049	0.2293	1076.6877	0.172169	-365.96943	-365.961773	-365.960829	-366.001302	31.126	
C	 0.0771512693	 1.5381500721	 0.1186100161	-0.387214
C	 0.0013325254	 0.0193269544	-0.0783636312	-0.295169
C	-1.4142407355	-0.5294077921	-0.0805170473	 0.279154
C	-2.2583914264	-0.4792729419	 1.2525999765	-0.172973
N	-2.7150154589	-1.8862902101	 1.0954554562	-0.165013
C	-3.0868491692	-2.1317382845	-0.3826612531	-0.064297
C	-3.3667837763	-0.9781330735	-1.2708730005	-0.091635
C	-2.3802948259	-0.0795906695	-1.1548471929	-0.147567
C	-1.6738615286	-2.0677290091	 0.0395821321	-0.10464
H	 1.117123878	 1.8762122288	 0.1490787728	 0.116047
H	-0.4206668437	 2.0771372996	-0.6937845283	 0.120156
H	-0.3986856374	 1.8409124284	 1.0576204916	 0.121908
H	 0.4951337643	-0.2559387923	-1.0193800082	 0.10134
H	 0.5682689856	-0.4767184194	 0.7203656095	 0.096929
H	-1.6097669641	-0.4501512389	 2.1329110875	 0.110191
H	-3.0450685701	 0.2774435527	 1.3374374222	 0.097616
H	-3.6036567743	-3.0780253932	-0.4829714589	 0.096522
H	-4.2688962666	-0.8800651914	-1.8611003053	 0.100434
H	-2.3571009513	 0.906970416	-1.6020556039	 0.099779
H	-0.9480972346	-2.876341436	 0.0445968753	 0.088434
95.9567	172.6535	211.3534	298.7994	353.681	390.8335	412.6868	554.6386	610.3523	662.7342	712.9572	746.2693	783.0245	791.5836	813.3589	854.5161	907.6179	917.9732	945.1623	958.9174	989.7964	1003.3829	1028.9243	1032.6539	1073.9929	1105.6189	1133.6725	1159.6829	1187.5388	1202.1867	1243.8609	1261.7165	1281.9205	1310.9571	1363.4568	1371.147	1385.7691	1413.0741	1482.8901	1492.4908	1501.8999	1507.3018	1635.9704	3015.1552	3036.2819	3039.1515	3046.5993	3100.0186	3103.3949	3108.2932	3144.4739	3192.7791	3198.5382	3223.5969
CCC12CN3C(C=C1)C23	CC[C@@]12CN3[C@@H](C=C1)[C@@H]23	
InChI=1S/C8H11N/c1-2-8-4-3-6-7(8)9(6)5-8/h3-4,6-7H,2,5H2,1H3	InChI=1S/C8H11N/c1-2-8-4-3-6-7(8)9(6)5-8/h3-4,6-7H,2,5H2,1H3/t6-,7-,8-,9?/m0/s1
