20
gdb 114468	3.31404	1.335	1.2115	1.2694	78.77	-0.218	0.0715	0.2895	1117.4273	0.171545	-403.059295	-403.051328	-403.050383	-403.091884	31.235	
C	 0.1673340086	 1.4153864322	 0.0697552591	-0.23244
O	-0.3232462673	 0.1350585916	-0.2490170867	-0.234918
C	 0.4921317248	-0.5616953477	-1.1461582096	 0.165351
C	 1.8697411838	-1.1520042665	-0.671530799	-0.288167
C	 1.4278773632	-2.5500561796	-1.2056723869	-0.032377
C	 0.7801268609	-3.5227735696	-0.187124694	-0.060419
N	 0.1425862433	-2.6896999905	 0.8538305116	-0.322823
C	-0.5641945952	-2.9193224464	-0.4284351675	-0.039588
C	 0.0040387812	-1.9811296188	-1.5159071651	-0.087033
H	 1.1451166903	 1.3702827286	 0.5722782284	 0.108214
H	 0.2720650851	 2.0470471924	-0.8280633514	 0.096035
H	-0.5527115378	 1.8817770376	 0.7468161593	 0.122648
H	 0.636716892	 0.0376566325	-2.0613966781	 0.056764
H	 2.742476157	-0.7260518682	-1.1716167635	 0.087022
H	 2.0031590994	-1.1216120278	 0.409967908	 0.124285
H	 2.028011936	-3.013435983	-1.9871774771	 0.06708
H	 1.0698565037	-4.5458386835	 0.0221104706	 0.087144
H	-0.2777674388	-3.3222428139	 1.5337739137	 0.22781
H	-1.5489904297	-3.3705427927	-0.4267933973	 0.089363
H	-0.4668204806	-2.1199878066	-2.4898441642	 0.066048
84.9737	128.5133	177.8084	217.9536	311.0574	357.2133	436.8091	470.1123	598.7366	691.2021	715.4769	773.5682	804.0771	819.6653	869.8616	881.6196	903.4276	932.3784	978.0861	1000.3531	1034.2223	1045.074	1062.951	1094.3408	1105.3045	1126.5636	1148.6137	1180.8396	1187.5049	1200.3111	1214.303	1243.7756	1252.1888	1276.0614	1290.7773	1322.9882	1342.6087	1373.5158	1393.025	1458.9972	1481.0704	1487.769	1509.0796	2944.5215	2966.0703	3017.3084	3070.7229	3101.238	3110.546	3123.0571	3144.3847	3173.9154	3188.1613	3474.7698
COC1CC2C3NC3C12	CO[C@H]1C[C@H]2[C@H]3N[C@H]3[C@@H]12	
InChI=1S/C7H11NO/c1-9-4-2-3-5(4)7-6(3)8-7/h3-8H,2H2,1H3	InChI=1S/C7H11NO/c1-9-4-2-3-5(4)7-6(3)8-7/h3-8H,2H2,1H3/t3-,4+,5-,6-,7+/m1/s1
