17
gdb 124863	3.62358	1.2661	1.01965	3.8613	73.96	-0.2686	-0.0427	0.226	1156.7445	0.135996	-417.961865	-417.953977	-417.953033	-417.995006	29.71	
C	-0.0108380897	 1.4956018109	-0.0124357004	-0.483603
C	 0.0424739869	-0.0198172857	-0.0457949179	 0.238588
C	 1.3965265652	-0.6940090916	-0.2041513301	-0.289091
C	 0.6945676101	-0.7480346141	 1.11940808	-0.289115
C	-1.1179054682	-0.6779589538	-0.6880550188	 0.311442
N	-1.240963687	-1.9772669014	-0.8063362423	-0.179473
O	-2.4302140232	-2.1937519345	-1.4459627862	-0.145878
N	-3.0600359732	-1.0203677116	-1.7323375409	-0.066224
C	-2.2750740753	-0.0841159472	-1.2777705239	-0.131603
H	 0.8807054065	 1.8952774497	 0.4779880523	 0.123586
H	-0.0510988435	 1.9203156108	-1.0219256108	 0.1254
H	-0.8835667052	 1.8565703733	 0.5435513019	 0.125382
H	 1.4280850958	-1.5993695621	-0.7986358468	 0.140383
H	 2.2589826216	-0.0442574787	-0.3078179557	 0.11721
H	 1.0711092678	-0.1357497729	 1.9318407369	 0.117215
H	 0.2512213788	-1.6899528717	 1.4199625439	 0.140386
H	-2.5417393177	 0.9558800605	-1.3770175612	 0.145397
35.0551	178.8893	182.5477	239.0461	303.5301	326.0428	427.1202	455.7796	540.6989	645.8433	738.3107	791.739	839.0497	844.6233	895.4565	908.5049	936.4945	962.2069	963.5278	1020.0383	1048.6452	1055.5385	1080.3463	1089.5473	1121.8632	1165.6232	1199.957	1287.2359	1304.6982	1415.4889	1425.3769	1462.8857	1464.5649	1491.8123	1494.7387	1507.8082	1606.1732	3026.9659	3087.4761	3111.9536	3135.9959	3138.9108	3224.1882	3237.665	3275.5769
CC1(CC1)C1=NON=C1	CC1(CC1)c1nonc1	
InChI=1S/C6H8N2O/c1-6(2-3-6)5-4-7-9-8-5/h4H,2-3H2,1H3	InChI=1S/C6H8N2O/c1-6(2-3-6)5-4-7-9-8-5/h4H,2-3H2,1H3
