21
gdb 94808	2.91293	1.37251	1.11207	2.4507	78.88	-0.2239	0.0617	0.2857	1176.7745	0.182218	-424.215708	-424.206761	-424.205817	-424.24943	34.775	
C	-0.472138845	 1.4559413934	 0.040373104	-0.440443
C	 0.1369640235	 0.060270527	-0.0461312099	 0.010571
C	 1.2314184316	-0.1161164339	-1.1057304189	-0.095474
O	 1.8715481676	-1.3367792093	-0.7615860666	-0.298785
C	 1.8594270394	-1.447092462	 0.650181968	 0.469497
C	 2.040624771	-2.8259794106	 1.2070841083	-0.343106
C	 3.1428529467	-1.7907596484	 1.3447821569	-0.314616
C	 0.8851281755	-0.4205166739	 1.2225937086	-0.024563
O	 1.6381712771	 0.6160506081	 1.8466611128	-0.426447
H	 0.2950089005	 2.2057917543	 0.2557226289	 0.126825
H	-0.9532315098	 1.732317073	-0.9032270166	 0.121818
H	-1.2377981514	 1.5124551413	 0.822764006	 0.111574
H	-0.6499848286	-0.6751771726	-0.2556394507	 0.081586
H	 0.8499320153	-0.2108410824	-2.1260872316	 0.103473
H	 1.9395266259	 0.7272506523	-1.069499159	 0.096274
H	 1.477572163	-3.1105288434	 2.0901657598	 0.108928
H	 2.1886465864	-3.6207761823	 0.4842820923	 0.119738
H	 4.015088597	-1.9074930698	 0.7117887708	 0.118798
H	 3.329223412	-1.3451936309	 2.3146982114	 0.1231
H	 0.1995195991	-0.8760039203	 1.9495160219	 0.066822
H	 1.0165992532	 1.2131420203	 2.2751490936	 0.284431
37.5778	172.6758	218.1013	233.7713	245.892	280.3954	336.5218	353.2246	398.5746	450.8007	529.1152	595.38	628.6353	763.5877	796.2429	846.2844	884.3251	902.5211	926.5444	954.4248	973.7731	980.3472	1018.4607	1046.9072	1069.3601	1093.0169	1104.8341	1148.3285	1163.7898	1190.1414	1215.7227	1224.6606	1266.8609	1297.3176	1337.3224	1341.3443	1362.8556	1399.2102	1408.7535	1431.1107	1451.5929	1494.3713	1500.3971	1509.8024	1515.6389	2978.7673	3007.2086	3030.2383	3033.9167	3088.7128	3093.5752	3110.7696	3127.3942	3142.2857	3215.1719	3236.8073	3818.9495
CC1COC2(CC2)C1O	C[C@H]1COC2(CC2)[C@H]1O	
InChI=1S/C7H12O2/c1-5-4-9-7(2-3-7)6(5)8/h5-6,8H,2-4H2,1H3	InChI=1S/C7H12O2/c1-5-4-9-7(2-3-7)6(5)8/h5-6,8H,2-4H2,1H3/t5-,6-/m0/s1
