18
gdb 72066	2.55167	1.69795	1.33709	3.9247	78.23	-0.2425	-0.0347	0.2078	1017.4407	0.147139	-401.897819	-401.889803	-401.888858	-401.930274	30.476	
C	-0.3636112348	 1.3708611211	 0.0941237368	-0.495717
C	-0.0562805121	-0.0874637486	-0.0131955517	 0.30306
C	 0.8769707216	-0.8103805907	-0.9932380893	-0.286095
C	 0.1898485742	-2.1202889283	-0.5279650199	-0.151183
C	 0.5732688785	-2.1598319275	 0.9582125806	-0.150683
N	-0.2444491373	-0.9205325008	 1.200339434	-0.192795
C	-1.0306979218	-1.2470646884	-0.0491913166	 0.233764
C	-2.4910720941	-1.2427561904	-0.1614879405	 0.001311
O	-3.2158105247	-0.4886311192	 0.4469204727	-0.264649
H	 0.468560697	 1.9057922033	 0.564985695	 0.128321
H	-0.534423132	 1.806877117	-0.8951481505	 0.121067
H	-1.2595260821	 1.5168263896	 0.7017180532	 0.163248
H	 0.622193662	-0.5492391231	-2.0233388224	 0.111956
H	 1.9596691844	-0.7267593301	-0.8455498547	 0.09961
H	 0.1667310948	-3.0063881558	-1.1588365049	 0.08337
H	 0.1188187588	-2.9828078579	 1.51405815	 0.117983
H	 1.6334136948	-2.0666697001	 1.2202104908	 0.102951
H	-2.9014946471	-1.9775354	-0.8898124125	 0.074481
106.6343	148.4809	184.3289	192.6645	277.3602	317.1423	392.6525	488.6513	513.1572	616.165	686.0994	733.84	777.1151	820.1347	880.5267	934.5778	948.0741	972.6764	992.661	1023.2961	1041.0056	1057.6431	1090.062	1141.4691	1149.6271	1186.8373	1193.2334	1226.9323	1260.7625	1305.9185	1321.5993	1385.5757	1422.7976	1439.3178	1485.5756	1487.8917	1493.5224	1515.2991	1786.2578	2876.7331	3036.1408	3037.2258	3042.9479	3100.2278	3107.5185	3113.5533	3134.1432	3140.2907
CC12CC3CN1C23C=O	C[C@@]12C[C@H]3CN1[C@@]23C=O	
InChI=1S/C7H9NO/c1-6-2-5-3-8(6)7(5,6)4-9/h4-5H,2-3H2,1H3	InChI=1S/C7H9NO/c1-6-2-5-3-8(6)7(5,6)4-9/h4-5H,2-3H2,1H3/t5-,6-,7+,8?/m0/s1
