23
gdb 103171	2.00111	1.39593	1.10652	2.2973	81.65	-0.2372	0.0675	0.3047	1263.6193	0.202976	-425.417096	-425.406378	-425.405434	-425.453037	39.493	
C	 0.1388134215	 1.5557221061	-0.1408732058	-0.414113
C	 0.0705190485	 0.0657476795	 0.1203313376	 0.149882
O	 0.8783507077	-0.701251129	-0.8052443684	-0.320849
C	 1.4143837133	-1.5186783166	 0.2576044434	 0.117659
C	 2.9147324508	-1.7041622965	 0.1456290456	-0.410274
C	 0.7868230176	-0.5893756772	 1.3418123575	 0.234284
C	 1.7586251052	 0.2998795295	 2.1136519958	-0.460879
C	-0.1634350878	-1.3032293236	 2.2947640372	-0.140674
O	-0.9335420689	-0.3151093625	 2.9675725267	-0.425666
H	 1.1650513843	 1.9292788638	-0.1036035117	 0.116025
H	-0.2629436305	 1.7724041776	-1.1360933246	 0.122836
H	-0.4631886605	 2.0967528711	 0.5962306111	 0.125382
H	-0.9798301519	-0.2582170748	 0.0658336682	 0.065717
H	 0.9309771978	-2.5096553903	 0.254719544	 0.058627
H	 3.4420951058	-0.7473167256	 0.1458527086	 0.120391
H	 3.2933681003	-2.3161940798	 0.971515717	 0.112468
H	 3.1491377408	-2.2195712049	-0.7913186431	 0.126627
H	 2.4218040649	 0.8623704172	 1.4529602573	 0.119215
H	 1.2063813106	 1.0105344783	 2.7332789829	 0.136591
H	 2.386394788	-0.3046694977	 2.7782315147	 0.108429
H	-0.8130262068	-1.9844967219	 1.7229797287	 0.085666
H	 0.4117136732	-1.9158126276	 3.0095167753	 0.083003
H	-1.5515359436	-0.7593533851	 3.5549615721	 0.289654
28.5544	91.0475	174.5707	209.1056	211.095	223.1285	242.5208	266.1124	299.1235	309.5204	327.4502	391.3302	467.8274	496.8941	509.2323	666.0015	740.7669	838.3354	875.3872	915.9922	957.0206	969.6883	1025.2606	1051.4889	1060.623	1076.9485	1107.3427	1120.4621	1155.9567	1170.6875	1216.1856	1222.0812	1263.8493	1277.8104	1320.505	1343.7882	1373.4981	1389.8427	1399.9369	1408.9723	1434.1254	1456.3599	1479.2511	1480.8174	1483.7997	1496.808	1506.9778	1508.462	1521.0791	2950.8571	2959.6095	2979.6326	2994.5324	3036.2652	3038.9782	3041.9788	3103.4879	3106.1019	3108.7827	3122.4249	3124.408	3132.9376	3832.7401
CC1OC(C)C1(C)CO	C[C@H]1O[C@@H](C)[C@]1(C)CO	
InChI=1S/C7H14O2/c1-5-7(3,4-8)6(2)9-5/h5-6,8H,4H2,1-3H3	InChI=1S/C7H14O2/c1-5-7(3,4-8)6(2)9-5/h5-6,8H,4H2,1-3H3/t5-,6+,7-
