22
gdb 10392	2.51579	1.85098	1.3617	1.0348	77.76	-0.2418	0.0802	0.322	1044.0967	0.19904	-350.192886	-350.183629	-350.182685	-350.226374	34.507	
C	-0.5391809581	 1.1850840071	 0.3457359437	-0.385479
C	-0.0369127154	-0.2481177859	 0.1505779715	-0.236809
C	 0.9691293025	-0.7008138479	 1.2177200058	 0.449883
C	 0.3296442334	-0.9863746907	 2.6020965048	-0.26973
C	 0.3216131886	-2.5000403989	 2.2608432221	-0.218279
C	 1.328628196	-2.2184974472	 1.1128170804	-0.276331
O	 2.061251436	 0.1942455801	 1.3468045582	-0.288961
C	 2.9106381277	 0.2846390009	 0.2239691824	-0.254014
H	 0.2902107511	 1.8971502637	 0.3298114168	 0.127721
H	-1.2450538033	 1.4627967462	-0.442878482	 0.107606
H	-1.0514706346	 1.3028477226	 1.3061982693	 0.118051
H	-0.8821060091	-0.9474049148	 0.1589217045	 0.096926
H	 0.4199129145	-0.3506348535	-0.8422723454	 0.093226
H	 1.0427674867	-0.7443561365	 3.393197341	 0.110005
H	-0.6263738844	-0.5066997686	 2.825042578	 0.094065
H	 0.6470194368	-3.1856421435	 3.0455585878	 0.099772
H	-0.6484328375	-2.8411955868	 1.8900362728	 0.102587
H	 1.1595768864	-2.7150168896	 0.1533977029	 0.090103
H	 2.3610125871	-2.3911290212	 1.4285056381	 0.103879
H	 3.7743956392	 0.8819146175	 0.5274197997	 0.124115
H	 3.2668081226	-0.7030597098	-0.1041914765	 0.105644
H	 2.4319020038	 0.7800999367	-0.632798316	 0.10602
109.0405	124.7426	134.4428	192.8191	202.1587	206.4283	276.4289	348.4481	367.5066	433.7293	514.1645	633.3835	704.832	785.7128	792.7997	844.4054	892.7427	937.5863	948.5755	984.6857	1013.7606	1022.139	1049.6504	1105.1875	1132.9669	1180.5779	1187.2193	1194.9285	1209.1794	1231.1761	1249.1789	1270.2402	1277.3943	1292.5731	1328.4336	1366.963	1411.9723	1465.305	1472.8733	1479.975	1483.3679	1495.7873	1498.8924	1503.232	1504.1579	1512.9293	2985.3117	3021.1193	3034.1704	3040.6345	3052.9586	3053.1917	3061.9825	3068.4216	3101.7871	3103.8152	3107.5102	3114.9146	3119.345	3128.5004
CCC1(CCC1)OC	CCC1(CCC1)OC	
InChI=1S/C7H14O/c1-3-7(8-2)5-4-6-7/h3-6H2,1-2H3	InChI=1S/C7H14O/c1-3-7(8-2)5-4-6-7/h3-6H2,1-2H3
