19
gdb 17497	2.9694	2.43345	1.63848	1.6473	74.63	-0.2117	0.0787	0.2904	859.5748	0.164702	-327.84913	-327.841388	-327.840444	-327.880454	30.703	
C	-0.1027101754	 1.5219017998	 0.021352168	-0.497958
C	-0.0449766836	 0.0211848882	-0.0133088738	 0.28921
C	-0.8811952376	-0.8612389644	 0.8787100232	-0.357731
C	 0.6195794197	-0.9740055542	 0.9103746797	-0.042781
N	 1.3005225378	-1.7144885503	-0.2228210744	-0.178033
C	 0.2889364908	-2.2321942661	-1.1727275573	-0.297239
C	 0.6015420457	-0.7853445108	-1.1813149331	 0.283504
C	 1.345525453	-0.1121593906	-2.2989535106	-0.481832
H	 0.8445050802	 1.9776711387	-0.2852004507	 0.121876
H	-0.8876578195	 1.9099165295	-0.6396750682	 0.11981
H	-0.3248384903	 1.8733897172	 1.0339193192	 0.119533
H	-1.2750972638	-0.3373575593	 1.7457136109	 0.111563
H	-1.5486153991	-1.6354107299	 0.5177622185	 0.110614
H	 1.2005633617	-0.8287966971	 1.8131132265	 0.098066
H	 0.7471491336	-2.8293164973	-1.9568309824	 0.115926
H	-0.6533711696	-2.6333242589	-0.8200952547	 0.115505
H	 0.6522116741	 0.3449408627	-3.0149967743	 0.118675
H	 2.0103049714	 0.6730111103	-1.9245196264	 0.124131
H	 1.9594763809	-0.8401180177	-2.8364798701	 0.12716
144.6815	182.7533	194.2166	264.4357	310.8968	377.5096	405.9462	489.7235	507.2185	600.4711	612.312	717.8404	779.4361	823.6453	865.375	899.263	934.8629	969.283	983.9585	999.1159	1035.9774	1067.847	1083.1979	1099.5668	1109.8951	1125.9963	1132.6804	1187.1734	1257.3561	1304.7948	1347.2537	1386.0624	1414.9794	1422.2902	1476.0873	1481.6031	1491.9614	1495.1629	1502.9975	1530.6308	3021.4479	3029.4558	3079.9732	3091.5668	3100.7054	3113.7246	3119.7847	3131.6247	3180.8729	3197.1106	3213.1765
CC12CC1N1CC21C	C[C@]12C[C@H]1N1C[C@@]21C	
InChI=1S/C7H11N/c1-6-3-5(6)8-4-7(6,8)2/h5H,3-4H2,1-2H3	InChI=1S/C7H11N/c1-6-3-5(6)8-4-7(6,8)2/h5H,3-4H2,1-2H3/t5-,6+,7+,8?/m1/s1
