15
gdb 29323	3.36246	1.28103	0.93384	5.7421	78.12	-0.2178	-0.0251	0.1927	1188.1057	0.113375	-416.856281	-416.847815	-416.846871	-416.88932	30.995	
C	-0.0450102187	 1.5192912896	-0.0039863383	-0.517732
C	-0.0148947519	 0.0240658725	 0.0066482955	 0.232001
C	-0.0127116444	-0.8303834691	-1.0546677216	-0.110901
O	 0.0039816671	-2.122062376	-0.6741412955	-0.185415
C	 0.0199416087	-2.1179770399	 0.7041245264	 0.228843
C	 0.0528829224	-3.3327452438	 1.4022270648	 0.201375
N	 0.0871716637	-4.3034617188	 2.0393981119	-0.361532
C	 0.0033779347	-0.8204490199	 1.1693938117	 0.047355
N	-0.0639445953	-0.3914694466	 2.4784898722	-0.615847
H	 0.8483152698	 1.9481649846	 0.4672857093	 0.129979
H	-0.0904746244	 1.9036522555	-1.0259663905	 0.13704
H	-0.9156192399	 1.904741631	 0.5389164021	 0.142895
H	-0.0248502384	-0.6560556021	-2.119168392	 0.146481
H	 0.1746190199	-1.0857734001	 3.1727432432	 0.267883
H	 0.3747467567	 0.4985201532	 2.6631357008	 0.257574
107.3158	132.4902	139.5505	233.0652	256.4298	294.7134	353.5011	408.9104	509.7377	516.0277	586.2964	599.1127	616.9172	713.8516	733.1768	746.6945	796.4586	951.923	1012.5705	1066.498	1157.4512	1209.4222	1214.5886	1295.9332	1317.3958	1421.3497	1458.4401	1482.0452	1502.7157	1583.2644	1644.3231	1679.9819	2316.2648	3022.8435	3073.2854	3118.2299	3266.9199	3562.9553	3663.3633
CC1=COC(C#N)=C1N	Cc1coc(C#N)c1N	
InChI=1S/C6H6N2O/c1-4-3-9-5(2-7)6(4)8/h3H,8H2,1H3	InChI=1S/C6H6N2O/c1-4-3-9-5(2-7)6(4)8/h3H,8H2,1H3
