17
gdb 104938	2.92742	0.86215	0.7188	1.6861	92.17	-0.2452	-0.0275	0.2178	1572.4529	0.132581	-384.617572	-384.607943	-384.606999	-384.652489	34.93	
C	-0.4200492762	 1.403949169	-0.027136024	-0.382403
C	 0.2107902587	 0.0144672345	 0.1065326824	-0.265577
C	 0.8305694758	-0.4760015341	-1.1924914473	 0.123042
C	 0.7071487344	-1.8952224166	-1.5937756534	-0.215227
O	-0.1165255332	-0.9041355246	-2.1954767924	-0.255354
C	 1.9486018658	 0.2849656052	-1.6943830127	 0.447889
C	 2.8890379195	 0.9439151663	-2.0789463167	-0.215176
C	 3.9475143802	 1.6742481067	-2.5209842969	 0.290782
C	 4.8873539559	 2.3239772745	-2.9120118339	-0.572839
H	 0.3277329221	 2.1516435241	-0.3076431074	 0.132751
H	-1.1999523391	 1.3992643898	-0.7940788948	 0.134845
H	-0.8720561651	 1.7148399319	 0.9188790572	 0.116381
H	 0.9853119761	 0.0195742655	 0.8824552148	 0.112198
H	-0.547438931	-0.7155920927	 0.4087638478	 0.109219
H	 1.4625730016	-2.3362677238	-2.241300325	 0.12565
H	 0.2021774047	-2.5849895444	-0.9181144215	 0.119036
H	 5.7136677499	 2.8937774888	-3.2583446364	 0.194783
64.7926	88.8509	106.3803	199.9494	216.6146	254.1583	266.3944	337.5051	420.4755	490.1207	511.996	532.7146	560.7594	586.2395	606.0377	611.5916	761.394	822.5494	858.6622	943.546	994.0488	1042.3428	1096.3815	1104.9953	1136.2463	1169.8226	1267.6478	1294.5433	1351.1814	1390.5511	1410.9456	1471.1599	1497.31	1507.7373	1518.6801	2181.1373	2355.7355	3038.1544	3044.7212	3079.9554	3083.1484	3117.1986	3121.5599	3176.7359	3503.8339
CCC1(CO1)C#CC#C	CC[C@]1(CO1)C#CC#C	
InChI=1S/C8H8O/c1-3-5-6-8(4-2)7-9-8/h1H,4,7H2,2H3	InChI=1S/C8H8O/c1-3-5-6-8(4-2)7-9-8/h1H,4,7H2,2H3/t8-/m1/s1
