19
gdb 73561	2.79008	1.70488	1.34953	1.7747	76.46	-0.2149	0.0317	0.2466	1006.5403	0.16202	-419.2308	-419.222821	-419.221877	-419.262878	31.438	
O	-0.1275161103	 1.3759874452	 0.0930697558	-0.491657
C	-0.0553422644	-0.0546154233	 0.1108110602	 0.356821
C	-1.4811384753	-0.554455579	-0.1294494539	-0.272774
C	-1.606167786	-0.477331165	-1.6786076663	-0.165452
N	-0.224871408	-0.6351757791	-2.1512825288	-0.376868
C	 0.6635194313	-0.5713266441	-1.1265767655	 0.384269
N	 1.8974149715	-0.8832484019	-1.0171211555	-0.345588
C	 2.2367302435	-0.7140480349	 0.4135931463	-0.174129
C	 0.8853426379	-0.5951700143	 1.1938356102	-0.308987
H	 0.7567046899	 1.7180788123	-0.0795803389	 0.285598
H	-1.5757439101	-1.592612723	 0.2018543313	 0.108552
H	-2.2325104495	 0.0515879564	 0.379681314	 0.116405
H	-2.2506028053	-1.2660877748	-2.0796228549	 0.108323
H	-2.0191107669	 0.4893542919	-1.9901647064	 0.120069
H	 0.0009734271	-1.054868448	-3.0369727891	 0.250184
H	 2.8283506403	-1.5700974703	 0.7536667072	 0.105464
H	 2.8720459907	 0.1726192226	 0.5560228204	 0.092633
H	 0.9306078509	 0.0592299426	 2.0672901504	 0.103385
H	 0.5640379527	-1.5884400031	 1.5229258837	 0.103752
119.9428	159.0784	235.3697	254.801	308.3322	347.827	368.8966	391.3152	497.1322	628.8877	663.4997	710.2099	723.3638	748.8803	837.5766	862.5903	916.8534	928.6253	965.0125	992.4012	1026.2793	1042.5093	1055.0707	1127.1587	1143.4879	1183.0812	1211.0945	1235.4971	1266.9985	1275.0174	1303.5646	1319.185	1328.2851	1378.9296	1388.3098	1435.6382	1473.6538	1479.2466	1511.6108	1522.8438	1760.1506	2995.4972	3029.6994	3052.4381	3062.3239	3067.8331	3076.1161	3114.22	3128.0966	3660.628	3803.6155
OC12CCNC1=NCC2	O[C@@]12CCN[C]1[N]CC2	
InChI=1S/C6H10N2O/c9-6-1-3-7-5(6)8-4-2-6/h9H,1-4H2,(H,7,8)	InChI=1S/C6H10N2O/c9-6-1-3-7-5(6)8-4-2-6/h9H,1-4H2,(H,7,8)
