21
gdb 59770	2.53844	1.32627	0.97756	1.6695	74.46	-0.251	0.0647	0.3156	1259.3658	0.181301	-461.365459	-461.355699	-461.354754	-461.400431	35.791	
C	 0.0633656443	 1.6007397726	 0.044570308	-0.412575
C	-0.0332794365	 0.0782655036	 0.0609680732	 0.102424
O	-1.3856326447	-0.3734126253	 0.0780911638	-0.432604
C	 0.6999753923	-0.5572171378	-1.1203448824	 0.07056
O	 2.0764424379	-0.1976769134	-1.0865232642	-0.254556
C	 2.6982595053	-1.1195103528	-1.9443511017	 0.023268
O	 2.0339066928	-2.3537279174	-1.7891858542	-0.276224
C	 0.7521139399	-2.1062819289	-1.1857048833	 0.12651
C	 0.6753886398	-2.8431864215	 0.1452629617	-0.407901
H	 1.1075058035	 1.9207470772	 0.0794363483	 0.142438
H	-0.3813249002	 2.0076840362	-0.8730040271	 0.104142
H	-0.4703147426	 2.0212717113	 0.9010506712	 0.123461
H	 0.4058223792	-0.300906461	 0.9886016214	 0.102881
H	-1.8497316121	 0.0575491247	-0.6483839948	 0.280654
H	 0.2455501471	-0.1795335895	-2.055947543	 0.055378
H	 2.6270850733	-0.7793666166	-2.9943067664	 0.080622
H	 3.7499504037	-1.2191939388	-1.6555714152	 0.114257
H	-0.0266214009	-2.4802407239	-1.8604709892	 0.080359
H	 1.430269808	-2.4686174308	 0.8430639879	 0.120992
H	-0.3160797259	-2.7293362869	 0.5909922961	 0.135858
H	 0.8683881457	-3.9066840513	-0.01945945	 0.120055
45.5307	89.0656	160.4975	172.8255	238.8279	273.1916	281.5872	291.3045	323.3098	386.8591	423.2291	472.8027	510.6558	728.0911	747.7459	805.1474	882.1945	905.067	970.5649	1009.0343	1028.983	1053.5181	1076.4134	1095.2821	1103.2781	1136.5106	1155.4274	1176.1294	1191.7668	1225.5315	1274.5609	1318.781	1325.9774	1342.7056	1387.321	1399.557	1402.9157	1413.0059	1423.165	1433.2452	1490.9068	1495.1575	1496.1332	1499.4601	1545.8967	2917.8214	2928.5037	3024.2308	3034.7886	3044.3829	3066.6102	3073.2335	3103.1744	3117.8543	3130.7704	3133.7613	3797.6861
CC(O)C1OCOC1C	C[C@@H](O)[C@H]1OCO[C@H]1C	
InChI=1S/C6H12O3/c1-4(7)6-5(2)8-3-9-6/h4-7H,3H2,1-2H3	InChI=1S/C6H12O3/c1-4(7)6-5(2)8-3-9-6/h4-7H,3H2,1-2H3/t4-,5+,6-/m1/s1
