16
gdb 12322	3.10968	2.19881	1.34886	1.0807	67.9	-0.2283	-0.056	0.1722	889.6474	0.132504	-379.965348	-379.958069	-379.957125	-379.996675	28.024	
N	 0.0233535012	 1.3305847568	 0.0721686242	-0.539101
C	-0.0604100512	-0.0325622921	 0.0268552112	 0.264656
N	-1.1852990226	-0.6451745399	 0.0060481782	-0.28903
C	-1.2140315278	-2.099384112	 0.0120233874	-0.144414
C	 0.0474599577	-2.7803369016	-0.5286130425	-0.228891
C	 1.2840759596	-2.2093463126	 0.1740110331	-0.307272
C	 1.3051282977	-0.7050907267	 0.0425702979	 0.358019
O	 2.3171793885	-0.0437590859	-0.0424502022	-0.322798
H	 0.9228439229	 1.7277604155	-0.1467753532	 0.267522
H	-0.8050126346	 1.8533970055	-0.1584898088	 0.256479
H	-1.4024413209	-2.4388875064	 1.0436288577	 0.105772
H	-2.0891865986	-2.4175044429	-0.5660078712	 0.107685
H	-0.0113616133	-3.8651150847	-0.3908767109	 0.104037
H	 0.1235153509	-2.5968749533	-1.6078901692	 0.110495
H	 1.2354601868	-2.4384567191	 1.2495478453	 0.131639
H	 2.2293143738	-2.6109273305	-0.200264997	 0.125202
90.7027	199.3147	282.2508	332.1324	356.2773	428.5405	441.9773	476.8257	517.4033	562.8894	626.0932	686.932	745.5251	868.4709	883.4182	930.9868	953.6018	1049.3651	1082.6441	1153.5051	1182.9454	1203.6765	1236.3671	1282.1462	1340.276	1367.9599	1378.2044	1400.0328	1455.7627	1487.3888	1497.0659	1592.9831	1715.3827	1797.2957	2976.6006	3005.8402	3028.581	3050.4271	3077.225	3099.0595	3594.3572	3724.2649
NC1=NCCCC1=O	NC1=NCCCC1=O	
InChI=1S/C5H8N2O/c6-5-4(8)2-1-3-7-5/h1-3H2,(H2,6,7)	InChI=1S/C5H8N2O/c6-5-4(8)2-1-3-7-5/h1-3H2,(H2,6,7)
