18
gdb 79413	2.77096	1.59638	1.24958	0.9656	78.25	-0.2168	-0.0273	0.1895	1043.0807	0.147395	-401.805237	-401.797456	-401.796511	-401.837553	30.18	
C	-0.2167599345	 1.6311474083	 0.1560559826	-0.420202
C	 0.0184149525	 0.1357972137	-0.0291420375	-0.145224
C	 0.5609010236	-0.6237155357	-1.303186236	-0.000436
N	 1.6528684065	-0.3825797964	-2.4289595255	-0.171453
C	 2.4395125344	 0.289496092	-1.3060960424	-0.179755
C	 1.8437038186	-0.9488162515	-0.568151061	 0.082101
C	 2.2773069254	-1.7004125228	-1.8790565156	-0.254253
C	 1.1905627087	-0.5794503547	 0.7963069898	 0.307286
O	 1.3889361184	-0.7307209443	 1.9589136741	-0.282242
H	 0.6696408946	 2.2396729545	-0.0319311006	 0.130917
H	-1.011302637	 1.9783670533	-0.511485784	 0.133408
H	-0.5336237663	 1.823162682	 1.1863724957	 0.138396
H	-0.9126524784	-0.3780212312	 0.2431465795	 0.118364
H	-0.1043808681	-1.4357511813	-1.6029973174	 0.085175
H	 3.5221936665	 0.2885816869	-1.4564878252	 0.108394
H	 2.085732922	 1.2882210654	-1.0592308194	 0.115724
H	 1.7153798812	-2.6001648599	-2.1373537502	 0.117694
H	 3.3389098719	-1.7915367884	-2.1211975369	 0.116106
91.8818	148.5663	181.9862	234.4485	283.2239	374.7347	517.06	525.4314	577.443	623.0269	664.4178	761.5961	791.7998	830.9097	855.5046	877.1084	902.04	957.875	993.0081	1013.8531	1054.6186	1061.7507	1085.6852	1105.307	1145.2334	1155.6777	1175.4871	1182.8254	1192.0822	1215.9892	1261.764	1325.0854	1360.2086	1411.8813	1490.0504	1495.012	1505.3839	1546.1293	1891.3789	3027.2448	3044.0424	3061.8529	3072.0842	3084.0123	3107.2518	3127.6472	3140.6232	3166.5309
CC1C2N3CC2(C3)C1=O	C[C@H]1[C@H]2N3C[C@@]2(C3)C1=O	
InChI=1S/C7H9NO/c1-4-5-7(6(4)9)2-8(5)3-7/h4-5H,2-3H2,1H3	InChI=1S/C7H9NO/c1-4-5-7(6(4)9)2-8(5)3-7/h4-5H,2-3H2,1H3/t4-,5+/m0/s1
