14
gdb 12612	3.13187	2.19006	1.34893	4.9292	59.72	-0.2453	-0.0355	0.2098	854.4085	0.107515	-415.88017	-415.872852	-415.871908	-415.911855	27.123	
O	 0.2987842743	 1.2927125205	-0.3983069195	-0.422111
C	 0.0214099474	-0.0198670543	-0.0388491921	 0.006434
C	 0.6385309028	-0.4415333204	 1.2854216368	 0.348748
N	 1.7116468627	 0.108156022	 1.69123345	-0.565552
N	-0.1714112165	-1.4100230727	 1.828809728	-0.34064
C	-1.5062082082	-1.4615815289	 1.242382566	-0.278924
C	-1.4597638947	-0.3584127094	 0.1652469176	 0.362598
O	-2.4109583616	 0.1235117607	-0.3781225401	-0.279297
H	 1.0803702202	 1.5329328395	 0.1253442626	 0.30063
H	 0.3744170979	-0.7394357094	-0.8060617742	 0.118409
H	 2.0106215652	-0.2128902998	 2.6117112693	 0.212309
H	-0.0033899003	-1.7520967062	 2.7617156283	 0.249841
H	-1.7310599437	-2.4334436839	 0.7841009767	 0.14201
H	-2.3009142055	-1.2354647777	 1.9620350806	 0.145543
78.9402	153.3054	239.2713	284.1586	373.0686	413.1967	435.0922	520.1073	551.4313	592.7311	684.0089	696.679	782.2175	831.3509	917.0056	984.1193	1033.3668	1087.8025	1132.7842	1182.3059	1202.9695	1222.4719	1265.491	1334.9792	1408.5021	1422.3819	1426.1135	1499.42	1759.5351	1885.1285	2901.6945	3022.2281	3068.3479	3481.0623	3629.8316	3690.532
OC1C(=N)NCC1=O	O[C@H]1[C]([NH])NCC1=O	
InChI=1S/C4H6N2O2/c5-4-3(8)2(7)1-6-4/h3,8H,1H2,(H2,5,6)	InChI=1S/C4H6N2O2/c5-4-3(8)2(7)1-6-4/h3,8H,1H2,(H2,5,6)/t3-/m1/s1
