20
gdb 118538	3.16305	0.79378	0.67729	5.0265	76.89	-0.2665	0.0377	0.3042	1662.7861	0.168811	-440.282306	-440.271599	-440.270655	-440.318954	36.824	
C	-0.026776316	 1.3615804136	-0.0590018883	-0.231186
O	 0.0066047339	-0.044607446	 0.0278169618	-0.23672
C	-1.2727312773	-0.6309805492	-0.0091984883	-0.070243
C	-1.1160889501	-2.1475544283	 0.1126674256	-0.054325
C	-0.3818888167	-2.5161494376	 1.4135637886	-0.055216
O	-0.4226267592	-3.8981583482	 1.716135854	-0.414284
C	-2.5050718788	-2.8279734645	 0.0353050419	-0.342985
C	-2.4285575829	-4.2294236705	-0.370199826	 0.270999
N	-2.3621221268	-5.3228589826	-0.7388200357	-0.320822
H	 1.0064417791	 1.7144171225	-0.0290749359	 0.133907
H	-0.4924181106	 1.6994958267	-0.9978472438	 0.10883
H	-0.5813417798	 1.8084659228	 0.7807833454	 0.10889
H	-1.8997800884	-0.247003411	 0.8167048508	 0.089057
H	-1.787991481	-0.3755853825	-0.9513839567	 0.09215
H	-0.5183145198	-2.4853591516	-0.7431542151	 0.10237
H	 0.6439237166	-2.1307810863	 1.369737814	 0.116903
H	-0.8796360965	-2.0205357709	 2.2566887959	 0.106381
H	 0.0262166941	-4.3858470129	 1.0173237738	 0.293379
H	-3.0138643078	-2.7665716816	 1.0038453245	 0.156609
H	-3.138331922	-2.308872922	-0.6941483862	 0.146306
58.9082	89.203	94.2834	106.7081	132.3413	191.8352	234.4355	248.8043	332.8767	353.4571	363.5295	389.3033	435.3166	493.9229	621.1793	845.1598	885.1467	926.0697	951.14	999.9239	1071.758	1095.6715	1105.4582	1111.5287	1165.1864	1179.7026	1190.2891	1228.4102	1245.6709	1285.2186	1302.1294	1345.4986	1371.1903	1393.8303	1420.206	1428.4913	1461.39	1480.5846	1486.2194	1502.2054	1507.2386	1527.5411	2361.1743	2934.1349	2965.8121	2975.7535	3021.1525	3023.1854	3033.3118	3040.5471	3068.2791	3082.3578	3121.1601	3813.6308
COCC(CO)CC#N	COC[C@@H](CO)CC#N	
InChI=1S/C6H11NO2/c1-9-5-6(4-8)2-3-7/h6,8H,2,4-5H2,1H3	InChI=1S/C6H11NO2/c1-9-5-6(4-8)2-3-7/h6,8H,2,4-5H2,1H3/t6-/m1/s1
