16
gdb 6741	5.83991	0.9328	0.81246	1.3891	66.14	-0.2515	0.0107	0.2622	1371.4428	0.128934	-417.105021	-417.095889	-417.094944	-417.139491	31.454	
C	 0.5268263591	 1.0361101837	 0.4329030162	-0.399685
C	-0.3003211281	 0.1104170824	-0.4635700912	-0.113615
N	 0.3898226715	-0.8807911846	-1.2759869554	-0.224188
C	 1.6386577411	-0.9664714132	-1.2341388905	 0.118943
O	 2.2433737962	-1.9209933044	-2.0198350962	-0.237669
C	 3.618115379	-1.9914648303	-1.9679706038	 0.512298
N	 4.0293222645	-3.0012338072	-2.7734565505	-0.563291
O	 4.3260836147	-1.2791580361	-1.3003931466	-0.384368
H	 1.1018392374	 0.4759726572	 1.1776980424	 0.12595
H	 1.2260718375	 1.6477356458	-0.1468354789	 0.125818
H	-0.1410559601	 1.7152795917	 0.9711211347	 0.116374
H	-1.0274159735	-0.4391142753	 0.148533077	 0.117197
H	-0.9056362412	 0.7129163883	-1.1534449583	 0.116923
H	 2.3528370643	-0.3851362987	-0.6534400276	 0.137673
H	 3.3751608386	-3.4625970338	-3.3806758272	 0.275849
H	 5.0159349289	-3.1033025355	-2.9302435941	 0.27579
50.6623	93.8725	119.7877	175.6704	192.5453	254.4702	267.6387	336.6523	400.9182	456.0255	545.8308	601.015	666.1206	776.5097	779.6125	876.7243	977.9456	995.4527	1080.9261	1085.8312	1115.2521	1147.9495	1195.4677	1313.7682	1341.2975	1368.5655	1390.8986	1412.0834	1480.8926	1495.6564	1506.0798	1606.8164	1782.0372	1853.1434	3020.3478	3034.4948	3040.8762	3104.222	3108.7746	3151.9918	3626.8588	3763.6632
CCN=COC(N)=O	CCN=COC(=O)N	
InChI=1S/C4H8N2O2/c1-2-6-3-8-4(5)7/h3H,2H2,1H3,(H2,5,7)	InChI=1S/C4H8N2O2/c1-2-6-3-8-4(5)7/h3H,2H2,1H3,(H2,5,7)
