23
gdb 108872	2.70501	1.05587	0.82778	1.9575	88.79	-0.2327	0.0181	0.2508	1477.7566	0.206613	-388.317515	-388.307953	-388.307009	-388.351988	36.567	
C	 0.077497145	 1.5773774282	-0.170102801	-0.371535
C	-0.0645818799	 0.0585317991	 0.0364840418	-0.270954
C	 0.6425625766	-0.4564506089	 1.2688303219	 0.320094
C	-0.0303211409	-0.8242854242	 2.3639514466	-0.203885
C	 0.5923063586	-1.3724711026	 3.6237294867	 0.107555
O	-0.2010942907	-2.4253503618	 4.1737303437	-0.437914
C	 2.0427218934	-1.8084012762	 3.387598871	-0.216609
C	 2.7998164988	-0.7475631578	 2.5832052549	-0.218471
C	 2.1536132099	-0.5415308171	 1.2061575457	-0.28603
H	 1.1247382691	 1.8786468804	-0.2719382428	 0.11817
H	-0.4465220578	 1.8950902076	-1.0769535189	 0.113647
H	-0.3467709646	 2.124856516	 0.6772445934	 0.121383
H	-1.1284874866	-0.1953088119	 0.0973518582	 0.10065
H	 0.3308663002	-0.4574273897	-0.8499037724	 0.097071
H	-1.1166236692	-0.7502906862	 2.3862992572	 0.078987
H	 0.5728489887	-0.6004042031	 4.4060887148	 0.091752
H	-0.2970336699	-3.0947939981	 3.4868557796	 0.271495
H	 2.5289516046	-2.0112816514	 4.3468209716	 0.098479
H	 2.0331478769	-2.7546688366	 2.8278943089	 0.083205
H	 2.7861986502	 0.2016376335	 3.134818943	 0.101469
H	 3.8526056114	-1.0268001318	 2.4685789601	 0.093789
H	 2.4289428899	-1.3690950124	 0.5338065312	 0.105295
H	 2.5594216564	 0.360100805	 0.7311466849	 0.102357
65.3631	97.2376	140.8477	205.5457	244.1852	272.8929	302.8608	323.1343	402.1844	433.5532	456.6605	541.6959	564.7206	596.1122	771.5037	788.6291	858.688	863.5158	899.7573	923.009	951.7752	977.8913	1041.9759	1053.3519	1070.4055	1080.9847	1087.4351	1143.0311	1151.0699	1190.1715	1213.2678	1261.9608	1279.0118	1282.5114	1331.437	1349.5673	1353.3492	1370.7989	1376.9028	1395.0371	1407.1189	1422.7607	1472.2769	1480.9215	1488.1694	1496.6969	1500.01	1507.2216	1726.5869	2988.6978	3001.0554	3008.5849	3011.9804	3022.9832	3036.3902	3044.641	3062.6496	3070.08	3080.0191	3106.3102	3111.1394	3138.1902	3794.2972
CCC1=CC(O)CCC1	CCC1=C[C@@H](O)CCC1	
InChI=1S/C8H14O/c1-2-7-4-3-5-8(9)6-7/h6,8-9H,2-5H2,1H3	InChI=1S/C8H14O/c1-2-7-4-3-5-8(9)6-7/h6,8-9H,2-5H2,1H3/t8-/m0/s1
