22
gdb 113723	3.28007	0.89071	0.78484	1.5555	89.74	-0.2274	0.0512	0.2786	1556.4124	0.191276	-367.150021	-367.139499	-367.138554	-367.185771	38.724	
C	 1.467950656	 0.3889778539	 1.1702690526	-0.387295
C	 0.5658305905	 0.8438782	 0.0157733642	-0.198905
C	 0.927416166	 0.135815643	-1.276204388	 0.024586
C	 0.2696437897	-1.1457139697	-1.6650262957	-0.246195
N	 0.0664465329	 0.0578051473	-2.4630831304	-0.091864
C	-1.2675437547	 0.6729797844	-2.4529623183	-0.145687
C	-1.1565398633	 2.1275785039	-2.9367718255	-0.389541
C	-2.1616113308	-0.1045046704	-3.3150277732	 0.362828
C	-2.9085485146	-0.7315393304	-4.0169427846	-0.460935
H	 1.3544376083	-0.6834268275	 1.3587798445	 0.122184
H	 2.5231555541	 0.5761186807	 0.9435424902	 0.119358
H	 1.2258077418	 0.9230262025	 2.0938633022	 0.115004
H	-0.4795764334	 0.6568524789	 0.2814003096	 0.103138
H	 0.6671247184	 1.9289218442	-0.1173600402	 0.103686
H	 1.9761598252	 0.2606605418	-1.547998666	 0.088659
H	 0.8224269184	-1.948821437	-2.1451262765	 0.113932
H	-0.5550246444	-1.4808350479	-1.0356153874	 0.10796
H	-1.7145777232	 0.6765198055	-1.4443832568	 0.087685
H	-0.7208359873	 2.1530413211	-3.9381759696	 0.137405
H	-2.1424241471	 2.5984505232	-2.9660630838	 0.122582
H	-0.5141930565	 2.700464839	-2.2621403143	 0.117183
H	-3.5656120659	-1.2889723365	-4.6374106429	 0.194231
53.0911	81.0867	115.9252	155.2605	208.1914	220.4043	239.4993	250.4866	302.1375	373.737	440.1453	461.5552	549.0628	587.0699	620.0401	652.1841	743.9678	782.5267	820.6587	866.3227	922.8671	962.7871	972.421	1024.1986	1053.7103	1064.3084	1104.8312	1116.0957	1121.0905	1148.7564	1184.3565	1194.1847	1287.9253	1324.8399	1333.6133	1343.9205	1354.82	1401.3029	1410.4169	1427.7167	1484.1619	1487.2688	1494.4305	1499.0417	1507.6716	1511.838	2239.0799	2950.6378	3022.2344	3034.7175	3049.0653	3067.9514	3085.046	3095.4298	3106.628	3109.3437	3124.2825	3136.6671	3172.7695	3504.8001
CCC1CN1C(C)C#C	CC[C@H]1CN1[C@@H](C)C#C	
InChI=1S/C8H13N/c1-4-7(3)9-6-8(9)5-2/h1,7-8H,5-6H2,2-3H3	InChI=1S/C8H13N/c1-4-7(3)9-6-8(9)5-2/h1,7-8H,5-6H2,2-3H3/t7-,8-,9?/m0/s1
