23
gdb 60472	5.50467	0.48923	0.465	4.3929	88.51	-0.246	0.0237	0.2697	2354.8713	0.204391	-384.481357	-384.470177	-384.469233	-384.51907	39.181	
C	-0.0815409453	 1.5531735681	-0.0167044663	-0.389246
C	 0.0217646837	 0.0229764975	 0.0437935845	 0.041068
C	 0.8942573229	-0.4103586014	 1.2313061041	-0.382747
C	-1.3840431987	-0.6029669517	 0.0784286413	-0.189503
C	-1.4151013043	-2.1250952768	-0.0604673938	-0.135521
N	-2.7941562755	-2.5996448104	-0.1768438461	-0.297864
C	-2.88215327	-4.0520026013	-0.2461143078	-0.259501
C	-4.2772050805	-4.4961956518	-0.3164754019	 0.255656
N	-5.3764161142	-4.8492387956	-0.3482470565	-0.2983
H	 0.9092406591	 2.0140663978	-0.0842562216	 0.111388
H	-0.6651898652	 1.8805900311	-0.8832518364	 0.11305
H	-0.5698733175	 1.948340471	 0.8821933147	 0.112987
H	 0.5135642234	-0.3165173058	-0.8795949531	 0.073808
H	 1.8770058351	 0.070434788	 1.187700022	 0.113593
H	 0.4282746087	-0.1233652069	 2.1819882308	 0.112076
H	 1.0595218419	-1.4916010867	 1.2542272327	 0.113255
H	-1.8808998548	-0.3144827452	 1.016957685	 0.089809
H	-1.9896489489	-0.1822128424	-0.7327589126	 0.110326
H	-0.8829002009	-2.421576967	-0.9750176449	 0.105934
H	-0.8809682238	-2.6027695075	 0.780682301	 0.085245
H	-3.3393725238	-2.2674284147	 0.6128997608	 0.229379
H	-2.3663937253	-4.3935313012	-1.1527071768	 0.15592
H	-2.4010351562	-4.5782182069	 0.5999588712	 0.129188
34.635	63.9098	80.6187	117.001	137.7559	179.4071	223.6883	246.5136	285.5818	315.6383	394.6793	404.8672	425.1712	475.632	576.9029	773.5097	788.6507	832.5116	926.1964	932.1276	954.0902	966.4073	981.3545	1010.0994	1053.8082	1074.7044	1141.0516	1155.4816	1181.8034	1194.1592	1230.0669	1275.3585	1299.9796	1321.0882	1352.0957	1366.5375	1382.8718	1401.4077	1418.7298	1426.459	1482.4802	1488.9324	1490.2923	1495.8854	1498.2693	1505.5822	1510.4941	1521.7199	2368.4028	2928.3993	2935.8138	2992.5686	3003.1538	3023.9424	3024.7854	3029.9193	3044.4544	3063.7108	3089.1528	3095.0391	3101.8113	3105.3608	3514.7159
CC(C)CCNCC#N	CC(C)CCNCC#N	
InChI=1S/C7H14N2/c1-7(2)3-5-9-6-4-8/h7,9H,3,5-6H2,1-2H3	InChI=1S/C7H14N2/c1-7(2)3-5-9-6-4-8/h7,9H,3,5-6H2,1-2H3
