22
gdb 104625	2.44891	1.1504	0.93711	3.9839	86.69	-0.2965	0.0389	0.3354	1381.6584	0.193354	-367.234553	-367.22461	-367.223666	-367.269377	36.976	
C	 0.0364084237	 1.5472834305	-0.1053679903	-0.394506
C	-0.0309165974	 0.0338151526	 0.1142278851	-0.246838
C	-1.4530572827	-0.5447171741	 0.0384391207	 0.14937
C	-2.1683716082	-0.5391399679	-1.3597359705	-0.265666
C	-2.6604934738	-1.988112191	-1.095488374	 0.051551
C	-2.6384778926	-2.989392937	-2.2384202382	-0.411848
C	-1.5925515818	-2.1074389479	 0.0256458469	-0.278818
C	-2.3051521407	 0.0459778572	 1.0695051263	 0.26798
N	-2.9747934891	 0.5143968614	 1.8884970474	-0.35971
H	 1.0711002626	 1.8988015171	-0.0592718448	 0.119199
H	-0.3669621088	 1.8249242801	-1.0849510706	 0.120883
H	-0.5366478369	 2.0828972479	 0.657342049	 0.14437
H	 0.5704693977	-0.4820738705	-0.6437168768	 0.098957
H	 0.4034906536	-0.2236264183	 1.0877638991	 0.114096
H	-2.9158279751	 0.2349775238	-1.5400342565	 0.118944
H	-1.4179735357	-0.5042826093	-2.1562831738	 0.103753
H	-3.6582353601	-1.9568592768	-0.6455341885	 0.093408
H	-1.6468805288	-3.0355271413	-2.7034114085	 0.11106
H	-2.890161069	-3.9964491937	-1.8882482166	 0.120835
H	-3.3599836363	-2.7187780989	-3.0171089795	 0.120663
H	-0.6647730632	-2.5576296925	-0.3416388263	 0.103484
H	-1.8769796474	-2.5910304113	 0.9616886004	 0.118833
68.0066	95.6365	151.3118	172.6577	198.0118	232.8672	253.1226	308.7511	345.7991	394.8801	415.4668	500.5947	585.4592	626.6059	704.8966	788.0515	835.9591	847.0396	902.7391	917.3097	950.5108	956.7666	996.4952	1056.765	1065.8784	1086.3767	1120.6365	1151.6957	1182.8518	1215.3961	1239.8882	1263.402	1283.6274	1296.7125	1330.3185	1357.2399	1380.4305	1413.2626	1415.4431	1471.2168	1480.8159	1493.5808	1495.3197	1498.8024	1499.0413	1506.5599	2343.3546	3024.2134	3027.6835	3039.3241	3048.492	3051.2336	3058.6674	3065.7141	3092.6192	3095.4868	3108.0399	3116.974	3122.0972	3124.6645
CCC1(CC(C)C1)C#N	CC[C@]1(C[C@@H](C)C1)C#N	
InChI=1S/C8H13N/c1-3-8(6-9)4-7(2)5-8/h7H,3-5H2,1-2H3	InChI=1S/C8H13N/c1-3-8(6-9)4-7(2)5-8/h7H,3-5H2,1-2H3/t7-,8-
