20
gdb 126601	5.27816	0.70056	0.68249	0.8294	82.11	-0.2547	0.0017	0.2564	1728.6187	0.172571	-399.346046	-399.336896	-399.335952	-399.383116	32.093	
C	-0.0375305093	 1.5591398951	-0.0178779674	-0.381433
C	 0.0098628376	 0.0293593928	 0.0149230648	-0.165041
C	 0.743460754	-0.5160420708	 1.2443174474	-0.17269
C	 0.7818753298	-2.0471660736	 1.2621140647	-0.145751
N	 1.476883112	-2.5743712493	 2.4264545652	 0.15005
N	 2.7902404286	-2.7730079527	 2.4337922633	-0.231736
C	 3.0397180492	-3.1755695394	 3.6823199808	-0.061377
C	 1.8333646609	-3.1964650032	 4.3929257856	-0.061368
N	 0.8521310397	-2.8065786113	 3.5754369708	-0.231753
H	 0.9712078282	 1.9860125947	-0.0332864295	 0.118369
H	-0.5663174004	 1.9210658369	-0.9048414831	 0.114859
H	-0.551782984	 1.9580280031	 0.8632772459	 0.118371
H	-1.0129651808	-0.3696632437	-0.0052528526	 0.10005
H	 0.4992099661	-0.341899967	-0.8952972442	 0.100049
H	 1.7725553707	-0.1379447784	 1.2674723416	 0.116357
H	 0.2543421611	-0.1656720438	 2.1611152102	 0.116389
H	-0.2284794983	-2.4626952869	 1.2844820354	 0.135432
H	 1.3027158323	-2.4347761876	 0.3832282657	 0.135456
H	 4.0398069276	-3.4293950129	 3.9951800627	 0.122883
H	 1.628958195	-3.4711320319	 5.4153069828	 0.122883
7.2174	75.2394	82.613	102.3268	217.3384	247.5347	326.471	374.1689	427.4907	681.6049	699.3989	740.6493	774.1017	795.8247	845.3814	893.416	912.1051	937.9148	982.0451	996.7804	1019.4127	1064.6528	1100.8174	1102.9887	1130.5042	1208.1428	1240.7326	1291.8983	1295.6714	1299.0863	1327.8201	1379.9913	1385.2526	1399.7185	1402.1163	1413.2809	1446.7597	1472.5249	1486.137	1497.8141	1499.9242	1503.9831	1511.6184	3013.5317	3030.6381	3034.7311	3041.367	3073.5141	3076.145	3099.604	3105.3274	3130.298	3263.2011	3280.8785
CCCCN1N=CC=N1	CCCCn1nccn1	
InChI=1S/C6H11N3/c1-2-3-6-9-7-4-5-8-9/h4-5H,2-3,6H2,1H3	InChI=1S/C6H11N3/c1-2-3-6-9-7-4-5-8-9/h4-5H,2-3,6H2,1H3
