20
gdb 86148	2.4371	1.47399	1.03099	2.4568	75.33	-0.2192	-0.0315	0.1877	1196.1562	0.169752	-440.298486	-440.289111	-440.288167	-440.332399	35.067	
C	 0.0392097016	 1.6662936433	 0.2103238363	-0.403572
C	 0.0764400905	 0.1358522174	 0.0197220386	-0.085335
N	 0.8124791949	-0.3837332378	-1.1385853276	-0.071225
C	 0.6351927217	 0.2856201541	-2.4071641341	-0.32443
C	 2.1901906498	-0.6665403435	-0.7395096231	-0.205274
C	 1.9821334382	-1.3385457488	 0.622738798	 0.059573
O	 3.091088139	-1.3515327326	 1.475047232	-0.440338
C	 0.8346950449	-0.5019827558	 1.1823211914	 0.366847
O	 0.6732026466	-0.2982901504	 2.3603056341	-0.338126
H	 1.0443248385	 2.0995569124	 0.199715193	 0.125285
H	-0.5506648167	 2.1453013449	-0.5752192607	 0.121538
H	-0.4171597367	 1.8936197948	 1.1772236688	 0.142185
H	-0.9587323989	-0.2334318939	 0.0021663688	 0.105473
H	 1.0525305054	 1.3075758216	-2.4430165246	 0.10104
H	 1.122783638	-0.2993255176	-3.1943887681	 0.122841
H	-0.4310369819	 0.347939907	-2.6504099351	 0.121016
H	 2.6697585815	-1.3178261977	-1.4759222429	 0.112925
H	 2.8255646579	 0.2296436348	-0.6133816254	 0.093935
H	 1.5924987372	-2.3564382578	 0.4466349379	 0.102467
H	 2.7528508585	-1.1216726945	 2.3530695227	 0.293173
68.6675	128.2104	210.8543	218.7886	238.6608	254.0527	278.847	304.5889	383.3954	404.9681	453.8516	515.1306	532.9961	608.0561	675.3109	799.0771	819.0922	947.9512	968.5353	1026.7726	1040.4558	1087.7055	1100.7157	1120.2141	1142.9784	1165.8017	1186.8067	1215.3088	1255.4597	1262.6153	1325.0316	1331.9516	1354.2526	1384.2296	1394.3981	1413.3533	1456.7914	1484.9972	1491.4698	1496.8924	1512.9518	1526.1376	1842.6271	2933.9546	2945.9483	2958.206	3002.1712	3044.4746	3052.2252	3078.4191	3094.7379	3117.8285	3128.9568	3724.4798
CC1N(C)CC(O)C1=O	C[C@H]1N(C)C[C@@H](O)C1=O	
InChI=1S/C6H11NO2/c1-4-6(9)5(8)3-7(4)2/h4-5,8H,3H2,1-2H3	InChI=1S/C6H11NO2/c1-4-6(9)5(8)3-7(4)2/h4-5,8H,3H2,1-2H3/t4-,5-/m1/s1
