16
gdb 124900	3.74528	1.27187	1.0379	1.7347	70.16	-0.2567	-0.0083	0.2484	1125.4295	0.12556	-434.053069	-434.045246	-434.044302	-434.085961	28.873	
C	-0.3930647604	 1.3227196485	-0.8595292262	-0.46882
C	-0.0813260711	 0.0711945229	-0.0731968756	 0.302495
C	 1.1471802928	-0.6987273056	-0.3588913576	-0.215422
O	 1.0629892511	 0.1364365338	 0.7948053254	-0.269634
C	-1.2339965348	-0.6391723272	 0.5345999304	 0.283799
N	-2.4711845768	-0.5697964316	 0.0357391193	-0.300248
N	-3.1729496276	-1.3351147457	 0.8620158304	-0.069538
N	-2.510187381	-1.8944052137	 1.8645309849	-0.194802
C	-1.2638471067	-1.4625895972	 1.6773802112	-0.132932
H	 0.528242929	 1.7632090224	-1.2472458036	 0.123475
H	-1.0614200219	 1.0916224048	-1.6933747552	 0.141688
H	-0.8937641457	 2.0595189125	-0.2245125717	 0.134106
H	 1.1690696978	-1.7696469573	-0.1631859459	 0.116331
H	 1.8216273941	-0.3520024474	-1.1412327049	 0.117585
H	-4.1630853039	-1.4731567269	 0.7397357961	 0.294061
H	-0.4660915348	-1.7314545923	 2.3492821829	 0.137858
51.8653	162.5881	179.732	198.4918	319.1144	358.3443	439.6062	486.853	521.3057	561.9325	722.3514	746.5672	807.6143	869.7783	896.3724	926.7771	994.2645	1014.7087	1025.1011	1101.1335	1130.6778	1139.7847	1165.9577	1180.3175	1230.1384	1256.8648	1346.9392	1387.6559	1403.5985	1419.4459	1477.119	1486.9815	1501.1934	1523.9074	1570.436	3049.1201	3080.3668	3119.3206	3134.391	3170.6909	3285.8748	3669.1646
CC1(CO1)C1=NNN=C1	C[C@]1(CO1)c1n[nH]nc1	
InChI=1S/C5H7N3O/c1-5(3-9-5)4-2-6-8-7-4/h2H,3H2,1H3,(H,6,7,8)	InChI=1S/C5H7N3O/c1-5(3-9-5)4-2-6-8-7-4/h2H,3H2,1H3,(H,6,7,8)/t5-/m0/s1
