15
gdb 20596	3.4048	1.79921	1.20302	5.61	63.51	-0.2375	0.0078	0.2453	958.6324	0.119365	-395.980279	-395.97225	-395.971306	-396.013612	27.748	
C	-0.0841216551	 1.525279102	 0.1298169029	-0.502244
C	-0.0035004344	 0.0412381607	-0.0201399836	 0.206276
C	 0.0491081126	-0.7354582819	-1.1594748389	 0.284237
C	 0.0678928092	-0.434944348	-2.6207776551	-0.199405
O	-0.3184904654	-1.6178281894	-3.3084195558	-0.425142
N	 0.1275889721	-2.0001836631	-0.6850196383	-0.211793
N	 0.1096968347	-2.0316569972	 0.6573588099	-0.127206
N	 0.0387385054	-0.7944735098	 1.0604314	-0.248245
H	 0.8827183688	 2.0108585639	-0.0477156193	 0.130682
H	-0.8044727128	 1.9650581007	-0.5685360421	 0.122897
H	-0.3972847478	 1.7696821468	 1.147159781	 0.151126
H	-0.6140476886	 0.4031447393	-2.8319440442	 0.11689
H	 1.0761366012	-0.1139072388	-2.9289193012	 0.117228
H	-0.1627788844	-1.4879704807	-4.2482644211	 0.298994
H	 0.1296975446	-2.8506801544	-1.2258678642	 0.285707
49.2726	75.6057	172.4832	219.8306	261.0685	280.1768	314.6521	498.3282	611.9147	643.8746	688.9633	740.6127	758.2998	985.4166	1031.3668	1035.9542	1061.9686	1068.8342	1091.5795	1201.1209	1206.7204	1234.7674	1271.3431	1316.6886	1368.4705	1415.8753	1458.1449	1481.71	1491.3478	1511.1709	1517.3807	1626.5508	2967.8954	2995.591	3030.1245	3080.8495	3130.244	3660.2578	3838.7521
CC1=C(CO)NN=N1	Cc1c(CO)[nH]nn1	
InChI=1S/C4H7N3O/c1-3-4(2-8)6-7-5-3/h8H,2H2,1H3,(H,5,6,7)	InChI=1S/C4H7N3O/c1-3-4(2-8)6-7-5-3/h8H,2H2,1H3,(H,5,6,7)
