15
gdb 131837	2.81906	1.34373	1.09407	1.8034	62.38	-0.2404	0.0014	0.2417	1103.7928	0.112936	-491.107806	-491.099482	-491.098538	-491.142291	29.021	
O	 0.1971339888	 1.2559530855	-0.2752111194	-0.415809
C	-0.0326018586	-0.112619808	 0.0021691675	-0.08441
C	-1.5399795442	-0.329375226	 0.0757114826	-0.149074
N	-2.2061108116	-0.0621554109	-1.1858638305	-0.085934
N	-3.0461680019	 1.0184847026	-1.3612805489	-0.217598
C	-3.3819031074	 0.9382528128	-2.5962779581	 0.09682
O	-2.8348054719	-0.1012562719	-3.2711470169	-0.201573
C	-2.0387115886	-0.7761939223	-2.3387856226	 0.495768
O	-1.3848749784	-1.7563110068	-2.5690706467	-0.407733
H	 1.1205330871	 1.3650546107	-0.5187519584	 0.294055
H	 0.3844536168	-0.7661550935	-0.7753508852	 0.128024
H	 0.4000634932	-0.4161619981	 0.9690598296	 0.093805
H	-1.7439314922	-1.362416747	 0.3759788989	 0.133846
H	-1.9855748756	 0.348260368	 0.8058456447	 0.14901
H	-4.0423202056	 1.6044777649	-3.1264685568	 0.170802
30.208	65.7716	162.9993	220.5985	230.3542	271.405	333.541	487.9293	522.7488	640.319	674.8381	753.6504	778.1611	832.3924	876.3394	939.1233	953.5525	1005.104	1047.9679	1103.9242	1140.549	1193.3512	1262.0961	1281.3783	1305.4875	1358.6104	1390.7348	1397.4158	1454.5527	1466.1547	1522.812	1635.7478	1887.5647	2977.7758	3040.0346	3061.2622	3136.516	3290.3439	3839.8259
OCCN1N=COC1=O	OCCn1ncoc1=O	
InChI=1S/C4H6N2O3/c7-2-1-6-4(8)9-3-5-6/h3,7H,1-2H2	InChI=1S/C4H6N2O3/c7-2-1-6-4(8)9-3-5-6/h3,7H,1-2H2
