17
gdb 106360	3.12514	1.37033	1.16303	3.4632	68.05	-0.2668	0.008	0.2749	1073.1011	0.136932	-458.977602	-458.970048	-458.969104	-459.009748	29.459	
O	-0.0100245081	 1.3934971933	-0.1076871781	-0.41447
C	 0.0195702397	-0.0067149332	 0.0842981983	-0.174826
C	-1.3508460529	-0.6122095814	-0.0513231477	 0.420976
C	-2.2540747997	-0.5304509377	-1.3053911348	-0.266326
C	-3.0915762783	-1.5556313462	-0.4637419396	-0.19609
C	-1.713246139	-2.1146049186	 0.0363006649	-0.28842
C	-3.4318696134	-0.6622702572	 0.7206131104	 0.458718
O	-4.4351781421	-0.4765057621	 1.3370106916	-0.346674
O	-2.2315519595	-0.0355883764	 0.9810441164	-0.299114
H	-0.634349093	 1.7492518399	 0.5353836375	 0.298671
H	 0.6761931447	-0.4208131446	-0.6875911672	 0.116533
H	 0.4397865613	-0.2798907826	 1.0650944078	 0.104353
H	-2.6986959342	 0.4375976526	-1.5407185293	 0.1263
H	-1.802498947	-0.9835919399	-2.1896900892	 0.116263
H	-3.8923144451	-2.1709207394	-0.8633078901	 0.103631
H	-1.2123045281	-2.724356636	-0.7178032042	 0.117567
H	-1.6694509851	-2.5861431905	 1.0202165532	 0.122906
97.8311	142.4127	201.6997	281.6505	375.7361	417.5445	482.074	499.2441	513.3385	600.9006	711.3025	763.4755	790.0313	846.3083	881.9499	888.7183	937.2151	954.3252	993.1531	1031.9546	1044.9182	1075.7121	1094.4244	1106.4874	1154.3784	1181.8366	1216.4418	1230.4518	1260.0978	1290.3637	1333.4137	1385.4201	1439.0292	1477.7326	1492.5696	1512.7746	1916.3423	2986.7637	3072.7094	3080.1114	3082.5853	3140.8899	3148.2427	3169.8342	3801.9887
OCC12CC(C1)C(=O)O2	OC[C@@]12C[C@@H](C1)C(=O)O2	
InChI=1S/C6H8O3/c7-3-6-1-4(2-6)5(8)9-6/h4,7H,1-3H2	InChI=1S/C6H8O3/c7-3-6-1-4(2-6)5(8)9-6/h4,7H,1-3H2/t4-,6+
