23
gdb 105051	2.4791	1.33558	1.02826	1.3733	85.21	-0.2412	0.0746	0.3158	1275.2371	0.204535	-388.260289	-388.250611	-388.249667	-388.294547	38.199	
C	 0.0666592036	 1.5517335706	 0.0171711583	-0.405973
C	-0.0665384494	 0.0408772233	-0.2030293702	-0.2678
C	-1.4572468956	-0.5689198432	-0.0152756638	 0.311184
C	-2.4921775563	 0.1329715002	 0.8350053699	-0.292693
C	-2.6353313658	 0.1231258359	-0.6675005157	-0.318046
C	-1.4934414127	-2.0892852096	 0.0348555023	 0.336778
O	-2.7890879012	-2.6432489529	-0.0031877807	-0.459094
C	-0.406995373	-2.9492183563	-0.5680620993	-0.334962
C	-0.5784943439	-2.8643691305	 0.9375288007	-0.295492
H	 1.0892838458	 1.8694082308	-0.2083811991	 0.114002
H	-0.6017646918	 2.1288195577	-0.6292046648	 0.1203
H	-0.1411564638	 1.831988316	 1.0538189266	 0.123054
H	 0.2769989163	-0.1949095604	-1.2184552494	 0.102154
H	 0.6374261275	-0.45641809	 0.4757949321	 0.101032
H	-3.1725235951	-0.4974094286	 1.3953635344	 0.12272
H	-2.2313800482	 1.0654420144	 1.3208044123	 0.104556
H	-2.4493490662	 1.0433725752	-1.2100774661	 0.106051
H	-3.4326433585	-0.4790893289	-1.0863623545	 0.094385
H	-3.0851497982	-2.6296295588	-0.9195639137	 0.281768
H	-0.7280795227	-3.8648714436	-1.0526650456	 0.108374
H	 0.4629582989	-2.4821170907	-1.0137431149	 0.112563
H	 0.170308817	-2.3334042612	 1.5138213863	 0.114135
H	-1.0205157168	-3.7166732994	 1.4396830248	 0.121004
57.6412	80.3875	206.3344	229.3289	283.8452	302.4163	321.8323	340.4586	369.8629	393.8901	419.7461	469.6848	546.3625	598.9558	768.6364	781.0023	784.1911	814.2835	878.5827	899.5313	910.0383	924.4858	957.0734	968.082	991.6409	1031.1933	1050.5494	1056.6928	1075.5253	1084.1345	1086.2506	1140.1532	1184.634	1189.6707	1192.0152	1248.705	1315.3535	1318.8184	1330.9737	1363.8068	1393.2459	1415.0501	1451.96	1454.3381	1488.7936	1494.1142	1501.0551	1508.2607	1513.488	3015.809	3040.7429	3047.3793	3104.5463	3111.8449	3137.5717	3138.754	3142.2306	3145.7703	3215.9255	3221.4794	3234.2917	3235.2396	3801.8554	57.6405	80.3842	206.3341	229.3283	283.8447	302.4163	321.8325	340.4586	369.8628	393.8901	419.7461	469.6848	546.3625	598.9556	768.6363	781.0022	784.1911	814.2835	878.5825	899.5313	910.0385	924.4859	957.0734	968.0822	991.641	1031.1934	1050.5495	1056.6927	1075.5254	1084.1346	1086.2508	1140.154	1184.6344	1189.671	1192.0157	1248.7051	1315.3537	1318.8196	1330.9739	1363.8068	1393.2466	1415.0505	1451.9603	1454.3387	1488.7942	1494.115	1501.0556	1508.2611	1513.4888	3015.8089	3040.7428	3047.3792	3104.5463	3111.8448	3137.5717	3138.7538	3142.2306	3145.7703	3215.9255	3221.4793	3234.2917	3235.2396	3801.8558
CCC1(CC1)C1(O)CC1	CCC1(CC1)C1(O)CC1	
InChI=1S/C8H14O/c1-2-7(3-4-7)8(9)5-6-8/h9H,2-6H2,1H3	InChI=1S/C8H14O/c1-2-7(3-4-7)8(9)5-6-8/h9H,2-6H2,1H3
