16
gdb 42785	2.55761	1.69867	1.43255	3.8544	70.79	-0.2531	-0.0307	0.2224	956.7364	0.126181	-437.901565	-437.894424	-437.89348	-437.933351	27.552	
N	-0.0812077313	 1.2781827445	-0.2384867349	-0.526379
C	-0.0507173742	 0.0447843896	 0.027134775	 0.419835
O	 1.1109096354	-0.6128428094	 0.3336955114	-0.263535
C	 1.083211696	-1.9816147979	 0.7738884292	-0.087231
C	-0.3081509248	-2.6138738804	 0.6497564077	-0.169951
C	-0.9304500618	-2.1647159202	-0.706385024	-0.25425
C	-1.2941745655	-0.8138328865	-0.003860021	-0.208352
C	-1.3119533749	-1.6489498384	 1.2958440905	 0.431726
O	-1.9466718465	-1.6310787318	 2.3059327906	-0.307273
H	 0.8545039466	 1.682782999	-0.1650382999	 0.225461
H	 1.8050498035	-2.5249973097	 0.1547036125	 0.126722
H	 1.4265401296	-2.0079006876	 1.8141422665	 0.133769
H	-0.2943631428	-3.66285654	 0.9488153976	 0.103863
H	-0.2523150918	-2.0994159816	-1.5592209903	 0.125924
H	-1.8193510007	-2.7387317554	-0.9702084407	 0.127814
H	-2.1598162568	-0.2258447641	-0.2970406603	 0.121856
104.0679	132.3651	191.494	354.2559	402.5961	469.7215	475.5982	533.5881	651.658	697.7682	767.7837	798.4619	842.7713	886.7948	896.6707	907.5396	957.174	1012.2398	1027.4641	1050.1974	1088.3508	1095.0952	1133.4538	1155.9866	1205.4274	1227.6636	1259.3901	1280.1167	1288.0471	1312.5476	1419.5909	1494.9064	1517.4337	1757.1983	1904.9115	3035.7512	3079.4376	3080.2716	3113.7502	3144.2479	3164.2995	3468.871
N=C1OCC2CC1C2=O	[NH][C]1OC[C@@H]2C[C@H]1C2=O	
InChI=1S/C6H7NO2/c7-6-4-1-3(2-9-6)5(4)8/h3-4,7H,1-2H2	InChI=1S/C6H7NO2/c7-6-4-1-3(2-9-6)5(4)8/h3-4,7H,1-2H2/t3-,4-/m0/s1
