19
gdb 110377	3.87456	1.12717	1.07678	0.8203	74.91	-0.2393	0.0631	0.3024	1197.7087	0.159113	-422.940948	-422.93305	-422.932106	-422.973502	30.454	
C	-0.0191508966	 1.1634337136	 0.3731863693	-0.240032
O	-0.1871332244	 0.0393802889	-0.4688299985	-0.256151
C	-1.4060073769	-0.6052594694	-0.272475034	 0.109655
C	-1.3820243023	-2.0363801854	-0.6999380298	-0.120331
C	-1.4243777256	-1.6639196321	 0.8028991188	-0.109289
C	-2.8183503336	-2.309470028	 0.8991992172	 0.09898
O	-3.9600100141	-1.4431795727	 0.6516508508	-0.302704
C	-4.040440948	-1.876783005	-0.73299551	-0.108291
C	-2.7600479041	-2.7247700718	-0.5831261317	-0.083027
H	 0.9520892418	 1.6016210162	 0.1325884386	 0.127065
H	-0.8028405276	 1.9163928603	 0.2019330518	 0.110587
H	-0.0362150124	 0.8830215578	 1.4358972547	 0.109922
H	-2.2787201823	 0.0304442472	-0.4176055829	 0.102834
H	-0.5448981111	-2.4035259535	-1.2803212337	 0.099943
H	-0.6390569601	-1.7143971863	 1.5474297642	 0.089237
H	-2.986774836	-3.0014564697	 1.7277492588	 0.080703
H	-4.9479435354	-2.4680792778	-0.9063679172	 0.102666
H	-4.0165519992	-1.0372765511	-1.4371628544	 0.104787
H	-2.7869976122	-3.7665801112	-0.897593382	 0.083445
95.3627	152.9327	176.4417	210.4677	250.2503	383.9047	429.1326	440.8835	561.9443	694.0942	785.0663	797.2063	844.3075	862.4789	882.6312	928.328	965.5076	976.5021	985.259	999.7037	1025.7961	1056.7838	1072.8697	1100.497	1146.3884	1158.6587	1166.2021	1183.8424	1193.0308	1216.5924	1238.9015	1258.3465	1283.3941	1295.7929	1330.7671	1350.1443	1419.7049	1484.1032	1486.1017	1508.817	1520.5863	2986.7508	3017.5466	3038.0022	3064.3831	3080.1746	3108.4755	3120.5234	3128.1858	3182.8827	3195.815
COC1C2C1C1OCC21	CO[C@H]1[C@H]2[C@@H]1[C@H]1OC[C@@H]21	
InChI=1S/C7H10O2/c1-8-7-4-3-2-9-6(3)5(4)7/h3-7H,2H2,1H3	InChI=1S/C7H10O2/c1-8-7-4-3-2-9-6(3)5(4)7/h3-7H,2H2,1H3/t3-,4+,5+,6-,7-/m0/s1
