20
gdb 113212	3.29285	1.00289	0.86497	2.3459	75.18	-0.2463	0.0685	0.3148	1382.9061	0.169714	-440.233859	-440.224227	-440.223283	-440.268715	35.235	
C	-0.0662852131	 1.8135071862	 0.1723205218	-0.466556
C	-0.1023460345	 0.301107523	 0.1986848787	 0.347827
O	 0.9109686737	-0.3813073461	-0.5592524908	-0.309507
C	 0.9154029407	-0.521658417	 0.8811679124	-0.016266
C	 2.152958732	-0.013478458	 1.5769418528	-0.092811
O	 3.2470126045	-0.8903281233	 1.3625560996	-0.414938
C	-1.4830558659	-0.2841266479	 0.0256387581	-0.064793
C	-2.0125946695	-0.5120802624	-1.3416415603	-0.237607
N	-1.6466446171	-1.6500412328	-0.4763130818	-0.325774
H	 0.9487393825	 2.2034504975	 0.2547030564	 0.130893
H	-0.4978176994	 2.1772499898	-0.7655459828	 0.13368
H	-0.6641742735	 2.221592204	 0.9942540985	 0.128812
H	 0.6065802376	-1.5139943263	 1.214115189	 0.105365
H	 2.3914926994	 1.0080861894	 1.2539160893	 0.094112
H	 1.9838105053	 0.0060098176	 2.6592262678	 0.11716
H	 3.3778673219	-0.9447122193	 0.4091280451	 0.293166
H	-2.1800207368	-0.0094299716	 0.8156411247	 0.096
H	-3.0743406342	-0.4041303793	-1.5426485485	 0.118595
H	-1.3578482509	-0.2790826469	-2.1772039742	 0.120355
H	-0.7299460427	-1.9813408968	-0.7761222157	 0.242286
62.6618	96.3134	132.0396	162.0163	167.6327	265.6839	273.5255	345.6929	371.8089	400.3137	477.4996	519.3381	635.953	678.2925	801.0728	851.8394	868.8414	897.3752	940.8576	985.2852	1005.6692	1012.9	1057.6666	1093.6741	1111.7764	1115.3874	1135.4561	1156.7106	1197.813	1218.7055	1238.2773	1286.5244	1309.7829	1339.3656	1371.7863	1413.9615	1414.6312	1418.6891	1465.0545	1487.7697	1491.3579	1506.4763	1509.6332	3018.9405	3044.1354	3074.8351	3104.3002	3107.0747	3111.3112	3122.0214	3143.634	3199.4673	3473.9637	3803.1564
CC1(OC1CO)C1CN1	C[C@]1(O[C@H]1CO)[C@H]1CN1	
InChI=1S/C6H11NO2/c1-6(4-2-7-4)5(3-8)9-6/h4-5,7-8H,2-3H2,1H3	InChI=1S/C6H11NO2/c1-6(4-2-7-4)5(3-8)9-6/h4-5,7-8H,2-3H2,1H3/t4-,5+,6+/m1/s1
