16
gdb 30860	2.92011	1.23913	0.91817	0.674	68.15	-0.1806	0.0577	0.2382	1236.4979	0.124958	-471.233022	-471.224013	-471.223069	-471.267067	32.939	
C	-0.7146944682	 0.9227142832	-0.0787255009	-0.323765
N	 0.6826764213	 0.4759704636	-0.0269497521	-0.398
C	 0.9891370441	-0.4617072212	 0.9660225784	 0.161931
C	 0.6409911827	-1.7594548117	 1.2250383985	 0.298117
O	-0.1746968869	-2.5393396127	 0.4754872788	-0.445843
N	 1.2270331388	-2.238001536	 2.3737411969	-0.447589
C	 1.9349298648	-1.2254183719	 2.821451262	 0.444903
O	 2.6914209556	-1.2167237107	 3.9329134447	-0.425269
N	 1.8444685689	-0.1332080475	 2.0450534853	-0.335467
H	-0.970588306	 1.4143320163	 0.8644683126	 0.123664
H	-0.8251799496	 1.6559059267	-0.884117149	 0.112468
H	-1.4320908863	 0.1064152794	-0.2446111977	 0.122362
H	 0.9850255491	 0.163513542	-0.9423110065	 0.232967
H	-0.2214835112	-3.3918314142	 0.9234681551	 0.298218
H	 2.6058731268	-2.0948480761	 4.3244415651	 0.311831
H	 2.3100904862	 0.7489065607	 2.1726651386	 0.269472
43.9999	128.7779	174.5141	247.4951	273.9761	297.9755	324.8737	333.5889	390.5601	422.7832	477.2166	546.0794	619.8541	669.9636	674.7576	735.824	752.1637	836.9251	1039.4391	1066.7739	1125.6786	1148.9663	1173.3994	1188.2398	1233.582	1278.6767	1363.793	1429.1619	1466.9485	1473.0948	1490.1038	1518.9415	1568.483	1620.3333	1707.4759	2999.5986	3073.4296	3108.6492	3525.4768	3677.6253	3807.6484	3813.5402
CNC1=C(O)N=C(O)N1	CNc1c(O)nc(O)[nH]1	
InChI=1S/C4H7N3O2/c1-5-2-3(8)7-4(9)6-2/h5,8H,1H3,(H2,6,7,9)	InChI=1S/C4H7N3O2/c1-5-2-3(8)7-4(9)6-2/h5,8H,1H3,(H2,6,7,9)
