17
gdb 63156	2.35181	1.7114	1.35015	0.6585	68.2	-0.2407	-0.0378	0.2028	1004.2308	0.134112	-458.937696	-458.929191	-458.928247	-458.970739	31.676	
C	 0.2049557297	 1.5949104319	-0.1040931333	-0.464467
C	 0.0824110939	 0.0898448169	-0.0198608797	 0.263003
O	-1.250319911	-0.362395684	 0.2067769819	-0.465532
C	 0.6544148556	-0.7945819205	-1.1645168745	 0.086723
O	 1.8567511127	-0.2537221123	-1.7399669329	-0.284337
C	 2.6959157194	-1.0949896405	-0.915673553	-0.090005
C	 1.4737442721	-1.6627272515	-0.1557133271	-0.225226
C	 0.9957258716	-0.7208751031	 0.9562251837	 0.353895
O	 1.1507993925	-0.6751655299	 2.1426692803	-0.309693
H	 1.197333852	 1.8797902246	-0.461578674	 0.139298
H	-0.5454568525	 1.9910018629	-0.7951662921	 0.130496
H	 0.0447964033	 2.0462986862	 0.8810383	 0.124293
H	-1.4806130559	-0.1438191153	 1.1178209883	 0.294191
H	-0.0610698547	-1.1714749058	-1.8964146775	 0.096139
H	 3.2192903648	-1.845261284	-1.5192437573	 0.118777
H	 3.4274586707	-0.5247143447	-0.3328129756	 0.122026
H	 1.4013060959	-2.7380493011	-0.0049409772	 0.110418
76.8715	164.0024	193.7055	209.4819	239.2334	269.0937	334.2726	355.7243	455.0883	484.7729	636.9976	679.0021	723.2534	812.831	856.2307	904.9438	931.1267	948.0331	975.4883	1028.4792	1041.3903	1059.2804	1109.7626	1150.4111	1159.3341	1165.7349	1188.8525	1244.378	1255.4894	1294.0827	1350.9772	1365.5608	1398.7137	1483.4949	1490.7707	1526.2348	1884.7155	3027.3356	3037.7074	3075.8927	3107.1127	3111.8864	3130.5628	3138.6333	3791.4915
CC1(O)C2OCC2C1=O	C[C@@]1(O)[C@H]2OC[C@H]2C1=O	
InChI=1S/C6H8O3/c1-6(8)4(7)3-2-9-5(3)6/h3,5,8H,2H2,1H3	InChI=1S/C6H8O3/c1-6(8)4(7)3-2-9-5(3)6/h3,5,8H,2H2,1H3/t3-,5-,6-/m0/s1
