17
gdb 45275	2.97506	1.74455	1.3126	3.2755	73.68	-0.2309	0.0072	0.2381	977.7039	0.137611	-417.946978	-417.939978	-417.939034	-417.978378	27.793	
N	 0.1259988801	 1.119353715	 0.2923106873	-0.552811
C	 0.0181317265	-0.0806396585	-0.046473121	 0.391438
O	 0.9664470777	-0.9814941031	-0.5283937083	-0.283648
C	-0.0464899354	-2.0023920494	-0.7959465601	 0.047533
C	-0.2365444446	-3.0000032045	 0.3628331516	-0.213199
N	-1.1874932494	-2.0664318188	 1.0517538329	-0.145119
C	-2.6344354535	-2.2690052022	 0.6901500935	-0.173061
C	-2.6072967743	-1.0308485452	-0.2489010331	-0.367501
C	-1.09512587	-1.0874753999	-0.1132816767	 0.251066
H	 1.0872073785	 1.4533247984	 0.2036612817	 0.23151
H	-0.015846411	-2.3232699523	-1.8371052007	 0.100471
H	-0.6988469626	-3.9467061679	 0.0605494587	 0.109757
H	 0.6646524808	-3.2078065912	 0.9457655826	 0.125339
H	-2.8207495003	-3.2140864119	 0.1650436435	 0.100703
H	-3.2976905422	-2.2129680337	 1.5564972841	 0.118875
H	-3.0255296187	-1.1354884009	-1.2512846568	 0.116287
H	-3.0137219615	-0.1305871039	 0.2168842707	 0.142359
125.9026	151.4523	242.7516	298.4207	413.9692	436.0785	558.4182	631.0477	683.5067	713.1731	790.5045	807.0803	836.1275	865.3328	878.5244	914.601	946.9381	955.7856	1002.2144	1017.5836	1025.1398	1095.0654	1140.001	1151.7488	1175.4568	1202.1395	1208.6575	1235.4188	1260.8704	1294.2211	1302.3789	1315.8031	1374.524	1475.4986	1477.2543	1513.2372	1827.5331	3024.3315	3036.917	3078.3507	3093.6567	3100.2092	3114.4627	3133.8506	3477.9636
N=C1OC2CN3CCC123	[NH][C]1O[C@H]2CN3CC[C@]123	
InChI=1S/C6H8N2O/c7-5-6-1-2-8(6)3-4(6)9-5/h4,7H,1-3H2	InChI=1S/C6H8N2O/c7-5-6-1-2-8(6)3-4(6)9-5/h4,7H,1-3H2/t4-,6+/m0/s1
