21
gdb 77904	2.05417	1.52957	1.36232	1.9313	78.53	-0.2271	0.0734	0.3005	1117.1353	0.180896	-424.192397	-424.182828	-424.181883	-424.225721	37.2	
C	-0.3598758125	 1.5857954833	 0.2622957411	-0.412371
C	-0.0683310474	 0.0937275723	 0.1133133063	 0.018348
C	 0.3800733638	-0.4532510619	-1.2494213375	-0.239816
C	 1.7801758073	-0.0283546798	-1.6204826685	 0.065625
O	 2.34332177	 1.2357270241	-1.3746758555	-0.419889
C	 1.6632327015	-1.0583011451	-0.5722795214	 0.357385
O	 2.3229957686	-2.2602985372	-0.7527662147	-0.458931
C	 1.2126800068	-0.5322287722	 0.7935566598	-0.068437
C	 2.1729616883	 0.3105084918	 1.6275013578	-0.419742
H	 0.499165286	 2.195798615	-0.0203086709	 0.125266
H	-1.206759198	 1.8735386762	-0.3712626649	 0.106368
H	-0.6272988773	 1.8305936641	 1.2964142161	 0.109354
H	-0.9493485261	-0.4634483955	 0.4490440167	 0.069163
H	-0.2858618478	-0.8718384065	-1.9968268794	 0.081142
H	 2.0999608425	-0.4724842239	-2.5650287636	 0.096565
H	 1.9640396538	 1.8522672085	-2.0101764243	 0.284492
H	 1.8596354424	-2.9351192725	-0.2436935052	 0.281859
H	 0.8850495954	-1.3907206601	 1.3952528635	 0.058645
H	 2.5221320415	 1.1834155531	 1.0749525537	 0.146102
H	 1.6944259879	 0.6476866082	 2.5538517951	 0.104451
H	 3.0502454831	-0.2833500316	 1.9070505055	 0.114424
140.1888	184.8134	200.9931	227.1418	230.4445	243.5294	259.51	324.7904	342.2532	356.0543	397.7351	465.9091	557.3153	604.7703	680.4147	724.3536	749.6851	790.8071	887.3349	922.5384	952.1422	983.3805	1029.0699	1050.5921	1065.9165	1077.7741	1121.4026	1159.8799	1170.4884	1215.4725	1217.0493	1250.9559	1295.1696	1308.5756	1317.6721	1363.9631	1378.4217	1391.645	1400.9887	1412.3239	1486.7063	1498.854	1504.1571	1512.8464	1523.0678	3001.9168	3030.5368	3033.8569	3042.1527	3085.8676	3090.2541	3093.8029	3139.5871	3148.5228	3164.4186	3790.2926	3803.8518
CC1C2C(O)C2(O)C1C	C[C@H]1[C@H]2[C@@H](O)[C@@]2(O)[C@H]1C	
InChI=1S/C7H12O2/c1-3-4(2)7(9)5(3)6(7)8/h3-6,8-9H,1-2H3	InChI=1S/C7H12O2/c1-3-4(2)7(9)5(3)6(7)8/h3-6,8-9H,1-2H3/t3-,4+,5+,6-,7-/m1/s1
