17
gdb 33584	3.8379	1.50463	1.3623	0.9834	83.31	-0.2268	0.0391	0.2659	974.6167	0.136705	-347.44915	-347.442448	-347.441504	-347.479944	28.244	
C	 0.0495965738	-1.1073802219	-0.0277789869	-0.372798
C	 0.0010334412	 0.0961392567	-0.011825054	 0.045573
C	-0.0677219047	 1.5106697604	 0.0368215372	 0.332258
C	 0.1275854948	 2.4301980318	-1.1923606225	-0.119767
C	 1.0568754877	 2.5435699665	-0.0137845944	-0.172141
C	 0.0398732924	 3.5548103044	 0.5909301182	-0.061771
C	-0.7523710656	 3.6305262392	-0.771789675	-0.061933
C	-2.0135322083	 3.0621420022	-0.0760553672	-0.25019
C	-1.0005134075	 2.4124005797	 0.8947924146	-0.132181
H	 0.09429068	-2.1676558822	-0.0456580824	 0.174255
H	 0.3126786775	 2.0175451988	-2.174864626	 0.099296
H	 2.1251763493	 2.4003986489	 0.0756144755	 0.099015
H	 0.2418887505	 4.3991705523	 1.2436976353	 0.07463
H	-0.7714157657	 4.5085171394	-1.4160790499	 0.070817
H	-2.5910323921	 3.8518763691	 0.4155768469	 0.099254
H	-2.6816827024	 2.4110702267	-0.647613389	 0.100879
H	-1.2598410209	 2.0677384678	 1.8941272194	 0.074804
136.9615	158.044	382.7451	448.1806	497.6423	518.7587	552.4711	592.4962	653.9048	727.7796	739.9361	773.7045	812.2214	837.8475	855.1866	882.2749	897.5195	928.8789	943.5241	973.2267	985.8725	997.9153	1044.6911	1068.9183	1091.6627	1129.8558	1161.7139	1169.55	1191.4845	1204.9594	1244.796	1263.517	1267.7533	1285.0709	1385.0441	1487.8321	2228.8667	3045.1547	3102.1348	3122.7654	3134.0702	3158.1335	3202.4326	3214.5078	3504.562
C#CC12C3C1C1C3CC21	C#C[C@]12[C@@H]3[C@H]1[C@H]1[C@@H]3C[C@@H]21	
InChI=1S/C9H8/c1-2-9-5-3-4-6(5)8(9)7(4)9/h1,4-8H,3H2	InChI=1S/C9H8/c1-2-9-5-3-4-6(5)8(9)7(4)9/h1,4-8H,3H2/t4-,5+,6-,7-,8+,9-/m0/s1
