20
gdb 19212	2.60953	2.60914	2.17757	0.0002	77.18	-0.2136	0.0795	0.293	799.5256	0.178374	-311.80701	-311.800051	-311.799107	-311.838003	28.508	
C	 0.0340686806	 1.5133745383	-0.3315281283	-0.296783
C	 1.4675244581	 1.6124625096	 0.3130386925	-0.296782
C	 1.4082833372	 0.0929262106	 0.6345655836	 0.311164
C	 0.8469657529	-0.3904099276	 2.0009248766	-0.296923
C	-0.5864541845	-0.489518892	 1.3563470027	-0.296922
C	 0.0074825877	-0.0039091488	 0.0046609797	 0.311163
C	 0.5258189304	-1.038495343	-1.0329111371	-0.296805
C	 1.9593509507	-0.9393991194	-0.3882868347	-0.296805
H	-0.7362949299	 2.1074240885	 0.1694401378	 0.096551
H	-0.0061456091	 1.7469227672	-1.3997527031	 0.096553
H	 2.2631315935	 1.9037610222	-0.3793634481	 0.096553
H	 1.5323805915	 2.2642664637	 1.1895486031	 0.09655
H	 1.2576289525	-1.340811842	 2.3550200947	 0.096557
H	 0.9347297818	 0.3354317227	 2.8150135394	 0.096575
H	-1.0112040578	-1.4976916346	 1.3347417248	 0.096557
H	-1.3338840094	 0.1785528683	 1.7948870316	 0.096575
H	 0.0603302046	-2.0265582647	-0.9670921677	 0.096551
H	 0.4676903393	-0.7104981202	-2.0751903972	 0.096559
H	 2.7365890317	-0.5536387967	-1.054918762	 0.096559
H	 2.3293331082	-1.8697091321	 0.0532063315	 0.096551
63.8432	260.0679	266.4844	328.2649	328.8729	527.6242	665.4885	666.2195	705.1775	712.3894	717.845	719.3715	881.5306	882.5126	884.8721	897.07	904.6534	905.0881	911.8341	1019.2893	1020.0166	1032.9854	1096.5778	1189.2825	1190.1219	1217.3985	1238.4555	1239.1246	1239.3338	1240.5248	1260.9167	1276.742	1278.7125	1279.0211	1295.7038	1296.1848	1462.3554	1463.311	1472.5756	1474.1014	1475.8637	1494.4747	3039.0026	3039.2147	3040.1681	3043.9049	3044.0648	3049.7437	3081.2014	3084.7191	3084.8614	3098.2001	3104.765	3104.8959
C1CC23CCC12CC3	C1CC23CCC12CC3	
InChI=1S/C8H12/c1-2-8-5-3-7(1,8)4-6-8/h1-6H2	InChI=1S/C8H12/c1-2-8-5-3-7(1,8)4-6-8/h1-6H2
