18
gdb 71410	3.86586	1.31288	1.26855	0.9529	75.73	-0.2307	0.0785	0.3092	1047.2834	0.148285	-401.858602	-401.851282	-401.850338	-401.889902	30.207	
O	-0.0158555366	 1.3119688821	 0.1028618621	-0.463075
C	 0.0347187903	-0.0607033035	-0.0060370659	 0.390438
C	-0.6110144882	-0.931959627	-1.0836391595	-0.300816
C	-0.3946134919	-2.1062097525	-0.0797319843	-0.187487
C	-0.2856581547	-1.0363566925	 1.0846656236	-0.120473
C	 1.1680062347	-0.8858375607	 0.6460344671	-0.240427
C	 1.1342112262	-2.242850225	-0.0055922645	 0.443095
C	 1.8988886152	-3.4568160375	 0.3265841361	-0.334043
N	 2.0646816869	-2.7790726786	-0.9883201803	-0.386707
H	 0.69971965	 1.6848214077	-0.424231165	 0.287872
H	-1.6705638942	-0.6865228591	-1.1968239705	 0.103675
H	-0.1323091651	-1.012751397	-2.066909801	 0.090185
H	-1.0450000156	-2.9787126483	-0.09110247	 0.073967
H	-0.7528742466	-0.940679593	 2.0527488786	 0.100976
H	 1.9705917084	-0.3951762403	 1.1811821789	 0.090565
H	 2.7695890777	-3.4042921448	 0.9751503593	 0.118147
H	 1.3690388391	-4.4062372723	 0.3597488944	 0.108567
H	 1.5633004744	-3.2940273176	-1.7096152091	 0.225543
142.1273	227.3289	254.1731	304.0325	369.4924	401.8615	452.0966	477.0643	600.9898	639.6362	737.3347	775.0232	829.5129	855.8597	882.4578	906.6216	919.9308	922.4581	941.8495	965.0957	971.0504	1014.903	1032.3876	1063.6948	1102.6506	1117.8333	1128.5188	1140.2344	1172.9909	1217.8303	1220.4893	1260.4179	1270.4388	1299.8953	1308.8422	1422.0633	1453.4192	1501.4636	1522.521	3030.6116	3098.749	3100.8511	3133.8281	3182.5715	3203.9532	3237.7849	3482.203	3792.2672
OC12CC3C1C2C31CN1	O[C@]12C[C@@H]3[C@H]1[C@H]2[C@]13CN1	
InChI=1S/C7H9NO/c9-7-1-3-4(7)5(7)6(3)2-8-6/h3-5,8-9H,1-2H2	InChI=1S/C7H9NO/c9-7-1-3-4(7)5(7)6(3)2-8-6/h3-5,8-9H,1-2H2/t3-,4+,5+,6-,7-/m1/s1
