16
gdb 22857	2.24902	1.74429	0.98902	2.8554	80.67	-0.195	-0.0517	0.1433	1144.7742	0.124211	-434.046536	-434.03788	-434.036936	-434.079622	32.177	
C	-0.0431855648	 1.473809213	 0.1132088724	-0.496586
C	-0.0173295287	-0.0162492705	 0.0349707802	 0.215549
C	-0.0081541221	-0.8020639076	-1.0605891152	-0.130621
N	 0.088667824	-2.1575889204	-0.7286168069	-0.36511
C	 0.0424553379	-2.3213902056	 0.6604879702	 0.314111
N	 0.0144652066	-3.4008800238	 1.3386247188	-0.512286
C	 0.030126647	-0.9129923647	 1.1891910669	 0.279494
N	 0.0619279289	-0.4602289956	 2.3943533598	-0.246197
O	 0.1025947897	-1.4422128222	 3.3606898985	-0.340057
H	 0.8454902672	 1.8611623372	 0.6244347018	 0.134855
H	-0.0860682186	 1.919329841	-0.8845813984	 0.115194
H	-0.9091596663	 1.8251915926	 0.6851849775	 0.134832
H	-0.0299069905	-0.5075239383	-2.1005356885	 0.128532
H	-0.1542583629	-2.9015477816	-1.3605575248	 0.250797
H	 0.0292191202	-4.2164868666	 0.7202297275	 0.206392
H	 0.1307907222	-0.926531277	 4.1753451101	 0.311102
98.9758	152.2404	197.3501	208.3604	244.8435	273.8511	331.6499	378.036	422.504	514.7025	540.3262	582.7676	589.6798	737.3037	768.037	795.2038	838.9266	871.2453	986.8397	1033.1018	1055.4558	1069.1818	1098.8584	1124.9023	1240.3486	1337.7371	1362.2762	1404.8362	1420.6401	1439.1443	1472.9573	1497.1741	1678.9196	1688.2434	1726.5578	3029.4248	3079.5128	3111.7812	3234.6602	3429.2708	3660.6195	3793.7378
CC1=CNC(=N)C1=NO	CC1=CN[C]([NH])C1=NO	
InChI=1S/C5H7N3O/c1-3-2-7-5(6)4(3)8-9/h2,9H,1H3,(H2,6,7,8)	InChI=1S/C5H7N3O/c1-3-2-7-5(6)4(3)8-9/h2,9H,1H3,(H2,6,7,8)
