18
gdb 41874	3.35837	1.54315	1.11354	2.2002	71.7	-0.2519	0.0184	0.2702	1060.854	0.151197	-439.094697	-439.08757	-439.086626	-439.126482	27.692	
C	-0.0082512668	 1.4344310586	-0.0285927991	-0.077086
C	 1.468605292	 1.9338458947	 0.0161718312	-0.314367
C	 2.1767579776	 0.6783751423	 0.5053312467	 0.147915
O	 3.5452733982	 0.5220762264	 0.1446313053	-0.240038
C	 3.9333504646	-0.7882846575	 0.2284883153	 0.123777
N	 3.2377030947	-1.8305943542	 0.3998693937	-0.269222
C	 1.7691565579	-1.748489238	 0.4525120675	-0.205854
C	 1.3290253514	-0.4174328769	-0.1230272876	 0.113099
O	 0.0096201289	 0.0033601579	 0.1496217928	-0.278529
H	-0.6182115331	 1.8566864089	 0.7750692233	 0.115786
H	-0.4822778032	 1.6857082468	-0.9854997152	 0.107799
H	 1.8318114565	 2.1963346258	-0.9815056305	 0.122621
H	 1.6001961294	 2.7988705801	 0.6684778507	 0.116179
H	 2.0990401883	 0.5961599347	 1.5982023839	 0.094028
H	 5.0146971606	-0.8550849827	 0.1289100612	 0.126882
H	 1.3650707261	-2.5994872167	-0.1040946302	 0.119108
H	 1.4308116476	-1.8544797979	 1.4904195089	 0.122428
H	 1.5235626493	-0.4230385623	-1.2110725679	 0.075473
96.6232	164.868	191.5645	353.3453	367.8233	444.8073	515.0331	552.4622	555.8359	682.1967	806.4784	847.3719	881.3849	928.5664	940.8192	963.8634	973.8364	988.7352	1066.2056	1101.4444	1127.3715	1142.3549	1146.7181	1171.987	1197.3324	1228.7623	1245.4424	1285.368	1303.6499	1327.4087	1373.7072	1380.8272	1401.7908	1406.8393	1423.5179	1494.5971	1500.204	1526.0558	1720.2061	2938.8993	3013.7935	3025.029	3039.2989	3069.6128	3080.7733	3081.2947	3124.9178	3166.6043
C1CC2OC=NCC2O1	C1C[C@@H]2OC=NC[C@H]2O1	
InChI=1S/C6H9NO2/c1-2-8-6-3-7-4-9-5(1)6/h4-6H,1-3H2	InChI=1S/C6H9NO2/c1-2-8-6-3-7-4-9-5(1)6/h4-6H,1-3H2/t5-,6+/m0/s1
