23
gdb 95077	2.21286	1.87873	1.26515	1.5323	84.25	-0.2312	0.0795	0.3107	1106.1001	0.207181	-388.301514	-388.293033	-388.292089	-388.333766	34.721	
C	 0.0298686456	 1.5974351589	-0.0898005707	-0.415164
C	 0.0306470847	 0.070621503	 0.0448483863	 0.01255
C	 0.6073505169	-0.5887052842	-1.2378383882	-0.22211
C	 1.175613466	-2.0054984875	-0.9917287463	-0.212565
C	 1.6827603265	-2.0965011281	 0.4464561519	 0.099867
C	 2.2778687993	-0.7659761026	 0.9487041331	-0.300506
C	 0.7937866028	-0.4629050423	 1.2793756017	 0.408889
C	 0.4504892126	 0.20053726	 2.5945538084	-0.478207
O	 0.5349209994	-1.9059462977	 1.3186790351	-0.329018
H	 1.0519195812	 1.9940418018	-0.12478617	 0.111783
H	-0.4688810046	 1.8994715319	-1.0170281921	 0.113727
H	-0.4916009864	 2.0843597716	 0.7392365467	 0.115387
H	-1.0030134568	-0.2708067683	 0.1862067849	 0.079883
H	-0.1533364427	-0.603258503	-2.0250271714	 0.095666
H	 1.4123100974	 0.0522881506	-1.6172591	 0.096795
H	 0.4019150605	-2.7711450267	-1.1148612011	 0.1072
H	 1.9733102378	-2.2288219178	-1.7102982283	 0.089424
H	 2.2134474765	-3.0279609576	 0.6633422551	 0.068886
H	 2.8703421482	-0.8981836432	 1.8560241797	 0.101159
H	 2.8094553345	-0.1220719454	 0.2447905729	 0.0953
H	 0.8101436129	 1.2335761557	 2.6214087806	 0.119569
H	-0.633150772	 0.2107843114	 2.7560478823	 0.12127
H	 0.9130603697	-0.3500743705	 3.4180717993	 0.120215
133.8175	207.8013	230.295	243.5907	289.251	317.5182	345.5294	403.8615	459.1153	462.1578	510.0508	578.3894	669.8106	781.8409	819.4976	846.4401	861.1123	903.151	907.9763	938.9406	965.6318	989.2693	1005.0248	1033.8815	1057.0548	1081.8797	1090.3467	1126.6589	1154.8928	1197.286	1226.4622	1228.6975	1260.2023	1281.717	1308.0807	1323.9894	1344.3663	1359.164	1372.591	1381.8465	1406.9688	1411.4322	1475.6962	1479.8442	1485.4508	1493.1355	1499.8732	1504.9468	1510.5863	3018.9887	3024.2102	3028.5532	3034.7442	3035.1487	3063.8732	3066.3552	3074.3274	3082.4734	3089.0621	3103.9574	3106.5642	3118.7025	3128.03
CC1CCC2CC1(C)O2	C[C@H]1CC[C@H]2C[C@]1(C)O2	
InChI=1S/C8H14O/c1-6-3-4-7-5-8(6,2)9-7/h6-7H,3-5H2,1-2H3	InChI=1S/C8H14O/c1-6-3-4-7-5-8(6,2)9-7/h6-7H,3-5H2,1-2H3/t6-,7-,8-/m0/s1
