17
gdb 106698	2.53039	1.50789	1.17255	1.723	67.3	-0.2521	0.0526	0.3047	1084.5972	0.13357	-458.885954	-458.877479	-458.876535	-458.919152	31.776	
C	 0.1287716457	 1.4512678705	-0.0440539325	-0.50784
C	-0.0303674443	-0.0206256586	 0.1490946398	 0.308699
O	 1.098597895	-0.890218345	-0.0646347213	-0.328913
C	 0.4240607367	-0.9466837322	 1.216483222	 0.308796
C	 1.2582977773	-0.7389847826	 2.4389670813	-0.185376
O	 2.1142456598	-1.84494593	 2.6819122844	-0.413448
C	-0.8282655674	-1.7968987146	 1.0168867535	-0.059223
O	-1.9624935622	-0.9378784458	 1.2255152987	-0.24016
C	-1.2850366864	-0.8806023265	-0.0394650671	-0.054041
H	 1.0636858028	 1.8041344153	 0.3981132053	 0.136546
H	 0.1426621388	 1.7020685268	-1.1102792799	 0.136148
H	-0.7069346774	 1.9828845306	 0.4207962747	 0.142897
H	 1.8249547801	 0.1986425703	 2.3411958799	 0.097886
H	 0.6089662822	-0.6524548174	 3.3156590937	 0.128372
H	 2.6758705239	-1.9406948073	 1.9044879743	 0.294257
H	-0.9714462713	-2.8646356297	 1.118542297	 0.12015
H	-1.8591046834	-1.0873343339	-0.9340884035	 0.11525
72.8683	134.746	200.4331	205.3979	232.6358	277.4909	366.7965	417.9404	476.0607	563.2907	614.6778	623.8467	737.1051	772.0283	830.8638	858.9214	876.0874	929.6531	942.7761	977.2761	1039.1998	1053.915	1070.9419	1115.348	1161.2781	1199.4596	1211.3881	1271.2091	1313.0398	1350.1831	1373.9885	1408.591	1422.8671	1473.6769	1487.887	1489.0687	1502.2694	2997.8351	3040.1709	3087.4226	3104.9488	3127.1054	3197.7764	3215.6272	3804.2604
CC12OC1(CO)C1OC21	C[C@@]12O[C@]1(CO)[C@H]1O[C@@H]21	
InChI=1S/C6H8O3/c1-5-3-4(8-3)6(5,2-7)9-5/h3-4,7H,2H2,1H3	InChI=1S/C6H8O3/c1-5-3-4(8-3)6(5,2-7)9-5/h3-4,7H,2H2,1H3/t3-,4+,5+,6-/m1/s1
