14
gdb 85496	2.55204	1.45656	1.09255	5.396	61.94	-0.2864	-0.0161	0.2703	1068.3104	0.10061	-473.865569	-473.857502	-473.856558	-473.898653	29.018	
O	 0.1839916138	 1.1727100785	-0.6164690626	-0.415075
C	 0.0509494816	-0.0624947762	 0.0322919521	 0.102246
C	 0.398411385	-0.106316984	 1.5236210066	-0.410308
C	-0.5363372206	-1.1780153307	 2.0665829566	 0.441931
O	-0.4665969168	-1.8083010189	 3.073362885	-0.30595
O	-1.564215253	-1.368405964	 1.1658803305	-0.211123
C	-1.4469118004	-0.4692127495	 0.0601630569	-0.076586
C	-2.3433580869	 0.6844826571	 0.2438414165	 0.311407
N	-3.0670425626	 1.5708907968	 0.3965861343	-0.310448
H	 1.1191787666	 1.3702186659	-0.7270150805	 0.302025
H	 0.592006281	-0.85877162	-0.4984699629	 0.104751
H	 1.4351252607	-0.3505908074	 1.7564953836	 0.145649
H	 0.1483668956	 0.8526408403	 1.9920718922	 0.168641
H	-1.7465315541	-1.005115168	-0.8431769983	 0.152841
83.5241	112.1293	154.2285	229.0735	267.3018	318.1696	410.9487	484.5714	520.824	526.3222	593.213	669.2775	730.7057	835.2794	848.9599	925.5533	1021.9635	1062.5509	1082.2165	1131.4479	1146.5895	1170.2697	1230.9601	1254.7534	1307.8527	1364.5675	1371.5511	1430.9237	1463.4921	1911.0224	2367.7269	3005.4859	3060.9609	3097.6954	3138.869	3831.8388
OC1CC(=O)OC1C#N	O[C@H]1CC(=O)O[C@H]1C#N	
InChI=1S/C5H5NO3/c6-2-4-3(7)1-5(8)9-4/h3-4,7H,1H2	InChI=1S/C5H5NO3/c6-2-4-3(7)1-5(8)9-4/h3-4,7H,1H2/t3-,4-/m0/s1
