18
gdb 9394	5.60873	0.81715	0.73992	0.3963	71.41	-0.253	0.0304	0.2834	1510.8823	0.15032	-384.886604	-384.876731	-384.875787	-384.921892	34.171	
C	 0.0184026874	 1.3878291741	-0.0181938422	-0.228767
O	 0.0129754458	-0.0175993197	 0.0426098213	-0.233967
C	-1.2876356898	-0.5622201311	-0.0059005761	-0.057712
C	-1.1677147948	-2.080065609	 0.0446773798	-0.2086
C	-2.5405080843	-2.7737702399	-0.0047482729	-0.063701
O	-3.2841073314	-2.4108297497	-1.1680465612	-0.417035
C	-2.4019897011	-4.2283387675	 0.11245134	 0.294258
C	-2.2650774936	-5.4215254408	 0.1644376838	-0.433737
H	 1.06077942	 1.7138657301	 0.0195979531	 0.125869
H	-0.4372729519	 1.7596014909	-0.9498835088	 0.103432
H	-0.5248125183	 1.8368450417	 0.8289047042	 0.102741
H	-1.8904188251	-0.1979037104	 0.8455616972	 0.08198
H	-1.8095160719	-0.2533567037	-0.9243044354	 0.101291
H	-0.5552983134	-2.4264285947	-0.7960428368	 0.108386
H	-0.6469385528	-2.3762313694	 0.9613579894	 0.119541
H	-3.1500548819	-2.4083461885	 0.8318691794	 0.11962
H	-2.8875598963	-2.8694885103	-1.9174687554	 0.286047
H	-2.1595019767	-6.4767201222	 0.2246291807	 0.200353
61.228	76.1008	101.386	134.7234	188.4735	230.9174	235.5437	307.6503	312.1965	392.448	464.0709	569.2101	575.5075	632.302	673.1666	801.0997	881.0136	974.2351	1001.0442	1065.266	1089.3759	1109.4739	1165.0442	1180.2871	1221.9203	1224.9751	1271.8918	1288.4755	1316.964	1358.9521	1414.6064	1428.4495	1481.989	1483.5694	1485.0782	1505.4733	1534.1949	2233.515	2943.0122	2968.4524	3004.7277	3010.9052	3028.2803	3045.0792	3092.26	3112.2721	3502.9152	3803.1204
COCCC(O)C#C	COCC[C@@H](O)C#C	
InChI=1S/C6H10O2/c1-3-6(7)4-5-8-2/h1,6-7H,4-5H2,2H3	InChI=1S/C6H10O2/c1-3-6(7)4-5-8-2/h1,6-7H,4-5H2,2H3/t6-/m0/s1
