22
gdb 77425	1.86157	1.63141	1.62499	0.6937	87.09	-0.2033	0.0787	0.282	1102.4561	0.192035	-367.127916	-367.118486	-367.117542	-367.161132	36.802	
C	-0.0827785084	 1.5071878754	-0.0172362737	-0.333815
N	 0.1933707146	 0.0758366287	 0.0575996093	-0.150846
C	 1.3176167908	-0.7130003599	-0.3670948394	 0.254589
C	 1.1862743927	-1.6928632874	-1.4969238786	-0.482789
C	 2.7298877495	-0.2168144411	 0.1171836166	-0.103306
C	 2.7410366302	 1.0398047207	 0.9422065028	-0.318925
C	 2.2376688042	-0.2366077003	 1.5564386463	-0.103293
C	 0.8287267792	-0.732555519	 1.0623011895	 0.254576
C	 0.0412370014	-1.7385662598	 1.8507691445	-0.482789
H	 0.5803338043	 2.0169451852	-0.7243161627	 0.124489
H	-1.1123290443	 1.652550132	-0.3670296541	 0.112108
H	 0.0049002484	 1.9939710751	 0.9599450182	 0.124493
H	 1.3807496872	-1.2075074785	-2.4619529282	 0.117434
H	 1.904426103	-2.5140666439	-1.3926072273	 0.115452
H	 0.1764090707	-2.1097262001	-1.5263509281	 0.125539
H	 3.6418574543	-0.6565520721	-0.2673619742	 0.083953
H	 3.7333864299	 1.3223596598	 1.2854903244	 0.10962
H	 2.1077646049	 1.8889533387	 0.7373014511	 0.111132
H	 2.7269359085	-0.6933148122	 2.4078879033	 0.083957
H	-0.3997864085	-1.278588673	 2.7444103815	 0.117433
H	-0.7718122565	-2.1473758513	 1.2455531532	 0.125539
H	 0.679637314	-2.563081787	 2.1878343953	 0.11545
144.6693	166.8124	192.3573	197.6068	219.1847	248.2455	272.7518	297.5717	319.4493	383.8525	551.9344	587.1354	595.0519	661.6539	706.6976	708.22	789.1979	852.6568	862.9425	910.916	949.0874	982.6905	1007.5732	1054.4992	1066.8706	1084.4234	1097.5737	1121.8608	1130.0073	1159.3891	1171.41	1189.4684	1207.8299	1224.0386	1291.4815	1318.1803	1402.1848	1404.6657	1436.661	1471.2053	1480.3764	1483.1423	1490.0998	1492.6936	1508.1704	1521.1677	1523.2496	3008.9792	3019.2618	3021.1419	3060.5017	3076.1386	3077.1496	3093.7301	3117.7261	3119.9993	3133.499	3180.4966	3191.5839	3254.4876
CN1C2(C)C3CC3C12C	CN1[C@@]2(C)[C@H]3C[C@H]3[C@@]12C	
InChI=1S/C8H13N/c1-7-5-4-6(5)8(7,2)9(7)3/h5-6H,4H2,1-3H3	InChI=1S/C8H13N/c1-7-5-4-6(5)8(7,2)9(7)3/h5-6H,4H2,1-3H3/t5-,6+,7-,8+,9?
