19
gdb 108174	2.59185	1.388	1.20685	1.6736	75.66	-0.229	0.006	0.235	1109.5992	0.159439	-423.011416	-423.002946	-423.002001	-423.044259	32.985	
O	 0.0990535121	 1.374988471	-0.1251635124	-0.414225
C	 0.0284734262	-0.0200764127	 0.1390400143	-0.159268
C	-1.3848807857	-0.5398835435	 0.1140232968	 0.246645
C	-2.4018580768	 0.0339445534	 1.1087357093	-0.319984
C	-3.2768517585	-1.1469865319	 1.4697360251	-0.104864
C	-2.8724181887	-2.2736585954	 0.8712190229	-0.090067
C	-1.7111740517	-2.0385164793	-0.0318846576	-0.197862
C	-1.9682976902	-1.0703471391	-1.1750036685	 0.075861
O	-3.2438089442	-0.7376077925	-1.6205748529	-0.427605
H	-0.340070046	 1.5298362846	-0.9685579441	 0.284631
H	 0.6493315788	-0.595853081	-0.5674779411	 0.081726
H	 0.4694124512	-0.1486373144	 1.1346848583	 0.108251
H	-1.9033718002	 0.4579637528	 1.9896585987	 0.117704
H	-2.9849348585	 0.8496707397	 0.6624866959	 0.121632
H	-4.1314572879	-1.0608397204	 2.131766083	 0.100911
H	-3.3363552413	-3.2470502895	 0.9843164786	 0.103617
H	-0.9443862916	-2.7974440728	-0.1495112457	 0.087384
H	-1.2852681208	-1.1462353557	-2.0174690483	 0.100955
H	-3.8725745962	-1.0357353133	-0.9494866121	 0.284557
90.7775	146.8001	207.1408	215.451	290.964	332.8162	357.9852	394.7799	408.322	529.8845	598.8314	642.7941	739.5019	768.3763	775.2353	851.3992	890.163	935.3946	954.5858	963.2159	991.9255	1011.6607	1031.5933	1056.9175	1077.7566	1124.8451	1140.6091	1165.5799	1201.8061	1223.3461	1272.4922	1299.8074	1324.3933	1357.0036	1380.0248	1386.8885	1422.6811	1446.0128	1472.1425	1506.6287	1658.0626	2964.8739	3023.5722	3050.7873	3054.7642	3140.4289	3160.3287	3185.2837	3209.3512	3744.4923	3805.3701
OCC12CC=CC1C2O	OC[C@]12CC=C[C@H]1[C@H]2O	
InChI=1S/C7H10O2/c8-4-7-3-1-2-5(7)6(7)9/h1-2,5-6,8-9H,3-4H2	InChI=1S/C7H10O2/c8-4-7-3-1-2-5(7)6(7)9/h1-2,5-6,8-9H,3-4H2/t5-,6+,7+/m0/s1
