18
gdb 69736	3.71876	1.61626	1.42501	1.333	74.47	-0.2163	0.0711	0.2874	943.8169	0.149235	-401.850132	-401.843494	-401.842549	-401.880618	28.452	
O	-0.0595878035	 1.3908202468	 0.0724603114	-0.464392
C	 0.016664446	 0.0021238714	 0.0156956846	 0.393027
C	-0.5926753189	-0.7977249538	 1.1303833375	-0.333803
C	 0.8982205198	-0.885322864	 0.8590659399	-0.095657
N	 1.4108226545	-1.9125726672	-0.0682614124	-0.141293
C	 0.2731721664	-2.237317876	-1.0514970363	-0.022628
C	 1.3248663218	-2.4224947026	-2.1579461718	-0.247452
C	 1.7093729206	-1.1582411918	-1.3816544885	-0.021111
C	 0.1966082941	-0.7086848102	-1.3223122637	-0.119216
H	 0.7707265614	 1.751867983	-0.258651589	 0.280465
H	-0.8544816122	-0.2221623762	 2.012647214	 0.120786
H	-1.2556419149	-1.6321075146	 0.9310303745	 0.115673
H	 1.6012623406	-0.5183847832	 1.5973318224	 0.095621
H	-0.533754617	-2.9182341264	-0.7778596287	 0.084226
H	 1.9919784037	-3.277505438	-2.0409548965	 0.110101
H	 0.983494528	-2.2901644461	-3.1856994626	 0.097579
H	 2.5988808853	-0.5312107008	-1.4810042619	 0.075744
H	-0.3225715758	-0.3145271503	-2.1987164928	 0.072331
213.2672	263.7234	316.8311	346.031	430.4835	465.8997	510.3704	589.2881	675.4195	726.5572	795.3	801.7422	840.7865	885.5709	902.2538	919.2849	931.7746	956.8099	965.9193	1001.6378	1022.3785	1042.4881	1067.4895	1089.2942	1096.2463	1121.3187	1131.361	1157.6661	1174.2194	1210.6645	1223.7616	1232.2245	1250.8345	1285.6323	1300.6831	1341.2836	1405.204	1486.3117	1497.8044	3074.5857	3084.2926	3092.6587	3105.9027	3134.4156	3149.35	3184.6845	3218.3183	3786.4688
OC12CC1N1C3CC1C23	O[C@]12C[C@H]1N1[C@@H]3C[C@H]1[C@H]23	
InChI=1S/C7H9NO/c9-7-2-5(7)8-3-1-4(8)6(3)7/h3-6,9H,1-2H2	InChI=1S/C7H9NO/c9-7-2-5(7)8-3-1-4(8)6(3)7/h3-6,9H,1-2H2/t3-,4+,5-,6-,7-/m1/s1
