17
gdb 36404	5.37999	0.82312	0.76911	4.6989	74.27	-0.2436	0.0156	0.2592	1440.3345	0.135071	-417.96	-417.951583	-417.950639	-417.993843	30.578	
N	 0.0127970275	-1.1746048373	-0.154191856	-0.300719
C	 0.0016736888	-0.0213773	-0.0937689046	 0.280211
C	-0.0171486973	 1.4422418091	 0.0122671943	-0.292305
N	 1.3227323086	 1.9864969897	 0.0504878066	-0.08483
C	 2.1551485105	 1.7372415639	 1.2557459961	-0.255469
C	 2.5631995102	 3.2110446944	 1.2131309209	 0.431866
C	 3.19112142	 4.0813886111	 2.2003635411	-0.26429
O	 3.8926352226	 3.641631621	 1.0250226625	-0.257395
C	 1.4523567391	 3.4581509992	 0.1902072253	-0.253326
H	-0.5403986709	 1.8441516993	-0.8633836408	 0.159208
H	-0.6252583963	 1.708508908	 0.9001865671	 0.125004
H	 1.5718615695	 1.477126355	 2.152735211	 0.102898
H	 2.9505375156	 1.00096036	 1.1121877361	 0.137992
H	 2.9424066035	 5.1416323742	 2.2258854621	 0.121052
H	 3.5495077971	 3.664731332	 3.1407883435	 0.123181
H	 1.7375550076	 3.9782799734	-0.729388017	 0.129517
H	 0.5662890338	 3.9448492069	 0.6283072618	 0.097404
58.5063	73.0327	141.3061	269.1745	297.6297	304.5615	387.2706	390.9179	416.7209	461.1812	597.8784	766.5495	830.5028	864.6091	922.4471	934.399	956.2903	968.9451	994.7317	1090.0191	1106.4269	1121.3584	1129.7948	1160.7058	1188.3068	1192.0108	1212.7701	1257.0654	1295.0075	1320.6878	1387.6203	1457.9383	1471.6867	1487.0873	1510.5143	1546.9279	2368.2212	2905.6408	2976.5341	2987.7639	3058.5905	3077.6038	3082.0779	3091.4121	3168.7911
N#CCN1CC2(CO2)C1	N#CCN1CC2(CO2)C1	
InChI=1S/C6H8N2O/c7-1-2-8-3-6(4-8)5-9-6/h2-5H2	InChI=1S/C6H8N2O/c7-1-2-8-3-6(4-8)5-9-6/h2-5H2
