20
gdb 106471	2.52608	1.62703	1.25563	3.4386	78.47	-0.2361	0.022	0.258	1080.9856	0.172473	-403.16999	-403.161819	-403.160874	-403.202557	32.283	
C	-0.201427271	 1.5353680257	 0.0205508128	-0.391063
C	 0.0837401495	 0.0294236273	-0.0472746282	-0.290376
C	 0.732639865	-0.5076940475	 1.2062444465	 0.197513
C	 0.0940834795	-0.4559508407	 2.6411621859	-0.251368
C	 1.2059950713	-1.49266053	 2.9326644303	-0.010465
C	 0.9558158427	-2.0450845958	 1.5002924338	-0.279287
N	 2.4020098559	-0.6340932914	 2.7621040423	-0.32295
C	 2.1676709165	-0.0340547036	 1.5249646832	 0.413397
O	 2.9234707714	 0.6334440716	 0.8620255637	-0.388807
H	 0.7267083075	 2.0947014758	 0.1629070906	 0.147071
H	-0.6713263184	 1.8839542589	-0.9038045043	 0.111289
H	-0.8776716115	 1.7756502629	 0.848245734	 0.111377
H	-0.8467487304	-0.5208714214	-0.2346662443	 0.08941
H	 0.7483438923	-0.1760926128	-0.8952573528	 0.112182
H	 0.1329595738	 0.4835668775	 3.1960006213	 0.111008
H	-0.9108377281	-0.8845070369	 2.6573135049	 0.103952
H	 1.2323350605	-2.1080366193	 3.8298568396	 0.082574
H	 0.033442847	-2.6231602453	 1.3995653959	 0.104365
H	 1.785829611	-2.5510503644	 0.9989931636	 0.10341
H	 3.3287135254	-0.9804029005	 2.9666506313	 0.246767
83.8191	157.5663	194.8245	217.1992	285.5731	398.8411	424.0412	476.934	491.2632	528.299	642.9024	676.4256	746.2999	762.	804.0463	853.8068	905.9728	917.4856	930.138	971.2116	994.228	1002.4312	1055.7179	1066.0688	1093.5059	1103.8922	1160.1328	1179.1142	1204.0268	1222.557	1231.4015	1303.665	1307.2706	1342.598	1370.068	1386.1926	1408.3569	1477.5654	1479.7692	1500.2084	1512.5849	1517.7534	1853.3534	3023.5411	3038.4644	3052.4228	3060.3595	3066.1448	3103.4571	3117.2816	3127.3013	3132.616	3137.9451	3606.15
CCC12CC(C1)NC2=O	CC[C@@]12C[C@@H](C1)NC2=O	
InChI=1S/C7H11NO/c1-2-7-3-5(4-7)8-6(7)9/h5H,2-4H2,1H3,(H,8,9)	InChI=1S/C7H11NO/c1-2-7-3-5(4-7)8-6(7)9/h5H,2-4H2,1H3,(H,8,9)/t5-,7+
