18
gdb 127035	3.17853	1.10681	0.83064	1.4893	75.89	-0.1845	0.0378	0.2222	1376.2876	0.148259	-435.27683	-435.267291	-435.266347	-435.311728	33.91	
C	 0.0279050636	 1.4731072475	-0.055972631	-0.393175
C	 0.0184222737	-0.0436975103	-0.0275295714	-0.033474
O	 0.7096320442	-0.5055575597	-1.1916478217	-0.290518
C	 0.8032875005	-1.8436482412	-1.3339923036	 0.413447
N	 0.3034058887	-2.7240904804	-0.4791877052	-0.324142
N	 0.6328998813	-3.9181022791	-1.0223254234	-0.224089
C	 1.3315786199	-3.8010025015	-2.1865428424	-0.081011
C	 1.4636671553	-2.4505587241	-2.4331581548	 0.075392
N	 2.1464097064	-1.7786558538	-3.4654505929	-0.622006
H	 1.0526938335	 1.8554606228	-0.0506655882	 0.12719
H	-0.4746801078	 1.8486965449	-0.9520691564	 0.12436
H	-0.4924913406	 1.8666401042	 0.8222554917	 0.118653
H	 0.5163618844	-0.4353679218	 0.8678168262	 0.114205
H	-1.0033085994	-0.4429972074	-0.0299524293	 0.112192
H	 0.3439807744	-4.7589901758	-0.5578118663	 0.269601
H	 1.6726852299	-4.6626599833	-2.737641615	 0.124303
H	 1.9177505326	-2.1385331269	-4.3842067265	 0.240301
H	 1.9250533294	-0.790399004	-3.4430100399	 0.24877
65.6832	83.0179	133.2909	137.8866	224.4405	244.9781	273.2056	283.4103	350.7072	397.0032	538.677	632.6388	651.8555	718.0474	747.4378	795.724	813.1762	825.4202	920.3325	945.5897	1060.7261	1077.0809	1118.952	1132.8956	1184.9163	1216.9853	1279.5171	1290.0368	1338.1341	1393.8605	1416.7369	1443.682	1484.4725	1490.2036	1498.8452	1521.5913	1571.4125	1646.7645	1657.3138	3024.9455	3044.3357	3059.485	3119.1766	3121.048	3262.6426	3523.4578	3610.6774	3705.6561
CCOC1=NNC=C1N	CCOc1n[nH]cc1N	
InChI=1S/C5H9N3O/c1-2-9-5-4(6)3-7-8-5/h3H,2,6H2,1H3,(H,7,8)	InChI=1S/C5H9N3O/c1-2-9-5-4(6)3-7-8-5/h3H,2,6H2,1H3,(H,7,8)
