19
gdb 29512	3.00144	1.50234	1.02936	0.946	82.47	-0.2013	0.0301	0.2314	1171.3807	0.161567	-385.935407	-385.92746	-385.926516	-385.967924	30.393	
C	-0.008785022	 1.5418822997	-0.0330496904	-0.501647
C	-0.0146662656	 0.0461112726	 0.0271528474	 0.065106
C	-0.0111730578	-0.8163040779	-1.0317339037	-0.1132
O	-0.0175408238	-2.1291668402	-0.6260599554	-0.207405
C	-0.0328199301	-2.0784653826	 0.7245241735	 0.323191
C	-0.031337634	-0.8075502442	 1.1850646444	 0.174627
C	 0.0164240668	-0.7885095034	 2.6862869236	-0.352801
C	-0.2475758256	-2.2957163951	 3.0411913875	-0.194697
C	 0.0191465548	-3.1516262418	 1.7551371245	-0.348524
H	 0.8722595272	 1.9612305721	 0.4666558946	 0.127497
H	-0.0047721298	 1.8970453216	-1.0674660851	 0.123496
H	-0.8890321699	 1.9676496379	 0.4624990288	 0.127703
H	-0.0168643952	-0.6612961214	-2.0987395399	 0.127697
H	 0.9946492231	-0.4551526791	 3.0579616073	 0.10557
H	-0.7297278232	-0.1352159361	 3.1518746783	 0.103812
H	 0.3575913043	-2.6309729745	 3.886868005	 0.101246
H	-1.2957017032	-2.413294919	 3.3303727273	 0.112068
H	-0.7294238161	-3.9402447832	 1.6235642315	 0.11334
H	 0.9993067101	-3.6466230455	 1.7862477408	 0.112923
116.6584	138.5475	159.9416	224.1424	235.5808	322.4427	472.8416	560.5857	600.3649	619.2214	662.7382	716.4637	722.1725	766.2968	829.5057	894.5691	911.8972	983.4333	1008.7874	1037.5982	1057.2439	1066.5928	1118.0105	1153.4207	1179.7512	1214.6265	1220.4849	1245.7826	1291.8531	1301.9232	1332.6556	1376.2149	1419.2022	1451.8233	1482.3191	1484.6162	1496.8794	1501.6815	1511.8631	1583.4755	1666.0698	3011.4921	3012.851	3025.496	3048.9227	3056.6436	3067.4681	3074.3278	3107.2761	3107.8124	3266.9876
CC1=COC2=C1CCC2	Cc1coc2c1CCC2	
InChI=1S/C8H10O/c1-6-5-9-8-4-2-3-7(6)8/h5H,2-4H2,1H3	InChI=1S/C8H10O/c1-6-5-9-8-4-2-3-7(6)8/h5H,2-4H2,1H3
