21
gdb 97682	2.51472	0.84124	0.7158	1.7942	89.72	-0.2358	0.0478	0.2836	1700.4706	0.180787	-387.053696	-387.04318	-387.042235	-387.090589	37.68	
C	 0.1221117633	 1.3928717736	-0.4855715245	-0.362569
C	-0.0951174797	 0.1738195996	 0.4295028975	-0.318696
C	-1.4297614732	-0.4067183383	 0.3145554483	 0.094803
C	-2.5274462122	-0.8927043921	 0.1868380623	-0.032841
C	-3.8653706474	-1.4179669349	 0.0883590835	 0.149963
C	-4.8199207621	-0.8571344192	 1.1360661238	-0.120299
O	-4.9592477623	 0.5474174223	 1.0532073569	-0.417275
C	-4.420768788	-1.7340793929	-1.2902867186	-0.283964
C	-4.0662703572	-2.8570933676	-0.3580366866	-0.298951
H	 1.1352377219	 1.7873228017	-0.3626327412	 0.114855
H	-0.0173235818	 1.1202630374	-1.5351427573	 0.128537
H	-0.5885866438	 2.1893303588	-0.2482539186	 0.12552
H	 0.6530947398	-0.5955713157	 0.1984218357	 0.130494
H	 0.0874181497	 0.4614196121	 1.4730297344	 0.128923
H	-5.8197570698	-1.2762549575	 0.9809950299	 0.100269
H	-4.4779451931	-1.1669558956	 2.13638381	 0.090584
H	-4.0683713794	 0.9162238407	 1.0846575098	 0.283657
H	-5.4684462824	-1.5096367889	-1.4586595398	 0.123509
H	-3.7760265766	-1.5538576426	-2.142002591	 0.123004
H	-3.1793326468	-3.4423426051	-0.5689373797	 0.123192
H	-4.8710495389	-3.4110562757	 0.1142915954	 0.117285
28.2971	70.75	91.9542	111.811	200.8964	205.6038	240.6382	306.1728	326.1217	377.1264	414.288	484.9873	540.8496	549.6529	640.974	783.0934	784.0805	825.3681	903.3726	928.3924	944.7158	961.4977	1036.782	1057.6992	1066.105	1079.3978	1086.864	1099.6685	1103.8943	1190.8134	1206.1582	1285.6121	1288.8042	1342.3685	1370.1223	1376.4194	1409.6757	1430.8862	1466.3545	1473.3395	1493.3721	1494.7884	1504.9102	1507.3287	2349.8141	2977.8709	3018.8929	3043.9314	3045.5939	3069.8088	3117.1272	3123.1006	3135.1976	3141.6745	3220.838	3235.606	3784.8464
CCC#CC1(CO)CC1	CCC#CC1(CO)CC1	
InChI=1S/C8H12O/c1-2-3-4-8(7-9)5-6-8/h9H,2,5-7H2,1H3	InChI=1S/C8H12O/c1-2-3-4-8(7-9)5-6-8/h9H,2,5-7H2,1H3
