19
gdb 48155	3.86206	0.8215	0.72892	1.0821	76.77	-0.2494	-0.0939	0.1554	1556.7481	0.157225	-423.036465	-423.02716	-423.026216	-423.07219	32.915	
O	-0.8115305642	 1.3369971813	 0.2500145059	-0.218954
C	 0.2302123281	 0.9068134854	-0.1693057526	 0.094348
C	 1.5139186202	 1.7437544624	-0.2868636305	 0.287997
O	 2.4987531705	 1.1998281638	-0.7326484805	-0.277353
C	 1.4457825306	 3.1815873388	 0.1682560482	-0.343876
C	 2.7373738326	 3.9522641194	-0.0454683608	 0.062205
C	 3.1691605715	 4.3301137111	-1.4911931026	-0.215737
C	 3.6540978815	 5.6996262975	-0.9436770496	-0.210818
C	 2.7731220432	 5.4639942155	 0.3135419383	-0.2447
H	 0.3692750615	-0.1397240079	-0.5152931883	 0.106958
H	 0.5992293679	 3.6563705202	-0.3474360861	 0.134635
H	 1.1467898833	 3.1751656393	 1.2269879278	 0.138397
H	 3.5588306258	 3.4270362312	 0.4521497972	 0.085574
H	 3.8938113178	 3.6815497441	-1.986122952	 0.110026
H	 2.2998682305	 4.4465197185	-2.1480268688	 0.093464
H	 4.7200199106	 5.6830985329	-0.6993367277	 0.104839
H	 3.4512030047	 6.588682456	-1.5447823917	 0.097604
H	 1.7850888621	 5.9236570457	 0.2024974522	 0.098169
H	 3.177400112	 5.7465362647	 1.2888798215	 0.097221
31.4681	74.644	109.3551	130.1612	164.7755	212.042	317.8992	394.5149	459.51	505.301	577.9546	677.1913	766.0382	793.2552	824.0498	831.4808	902.7971	933.2376	952.6924	975.5807	990.2321	1054.8092	1115.0476	1134.8874	1160.8452	1200.4774	1212.0165	1253.3082	1258.7229	1263.5215	1279.519	1293.7073	1347.295	1363.5299	1399.1398	1430.8712	1480.6143	1487.986	1512.5216	1799.2352	1825.183	2919.5074	3014.5927	3038.3545	3043.9633	3046.773	3060.3008	3062.0835	3097.7088	3110.2194	3122.7965
O=CC(=O)CC1CCC1	O=CC(=O)CC1CCC1	
InChI=1S/C7H10O2/c8-5-7(9)4-6-2-1-3-6/h5-6H,1-4H2	InChI=1S/C7H10O2/c8-5-7(9)4-6-2-1-3-6/h5-6H,1-4H2
