18
gdb 87225	3.28531	1.00264	0.90164	2.1795	72.36	-0.2593	0.0123	0.2717	1315.9512	0.144813	-439.062991	-439.053275	-439.052331	-439.09826	35.148	
C	 0.4493417922	 1.5149782882	-0.2881871414	-0.462126
C	-0.2151826549	 0.2068029486	 0.0696035254	 0.394338
C	 0.4746930146	-1.1134007885	-0.2298792689	-0.379612
C	 0.317672004	-0.6225087964	 1.194804209	 0.047443
O	 1.4160081068	-0.1231405651	 1.8967115882	-0.424227
O	-1.630429911	 0.2136292901	 0.0408696734	-0.273489
C	-2.2234825021	 0.4107343703	-1.2190938091	-0.208452
C	-2.1166379277	-0.7524357001	-2.1245137269	 0.260572
N	-2.052957384	-1.6586306545	-2.8384481522	-0.311982
H	 1.4958883257	 1.4882283437	 0.0190404332	 0.145892
H	 0.4159394097	 1.719132086	-1.3635560106	 0.11799
H	-0.0379009243	 2.34038788	 0.2407996581	 0.129068
H	-0.1292820221	-1.9541753068	-0.546993121	 0.14128
H	 1.4634186213	-1.0564826698	-0.6733546096	 0.119634
H	-0.4384515759	-1.1217728059	 1.7994240183	 0.104386
H	 2.0004999809	-0.8618209083	 2.096012104	 0.292757
H	-3.2854482821	 0.5981303959	-1.0328227199	 0.161111
H	-1.8197458613	 1.2888964925	-1.73996996	 0.145415
28.0651	90.1033	178.5718	189.7189	210.5626	270.8072	290.8214	305.4515	366.6041	380.4008	413.5147	458.5097	546.441	629.8267	692.314	823.9567	884.6608	906.4163	931.6481	945.5282	1010.1474	1038.8829	1045.5258	1094.2012	1111.4436	1130.4212	1182.7868	1239.7619	1294.6784	1298.3402	1331.2858	1395.0792	1414.5007	1419.1647	1469.2924	1480.736	1494.7778	1507.9613	2356.4307	3027.9264	3039.9515	3089.5457	3100.8089	3115.5036	3139.957	3143.951	3239.43	3809.269
CC1(CC1O)OCC#N	C[C@]1(C[C@H]1O)OCC#N	
InChI=1S/C6H9NO2/c1-6(4-5(6)8)9-3-2-7/h5,8H,3-4H2,1H3	InChI=1S/C6H9NO2/c1-6(4-5(6)8)9-3-2-7/h5,8H,3-4H2,1H3/t5-,6-/m1/s1
