18
gdb 28762	3.11705	1.67859	1.22863	1.8067	83.96	-0.1899	0.0231	0.213	1037.0358	0.149267	-364.788071	-364.780644	-364.7797	-364.819904	29.279	
C	-0.0443943526	 1.5469820318	-0.0161959688	-0.493871
C	 0.0731478828	 0.0595447774	-0.0186710336	 0.237273
C	 0.1269245923	-0.8442123624	-1.0675529752	-0.198772
C	 0.2435907741	-2.1807163034	-0.5553203826	-0.265579
C	 0.167303294	-2.0515833624	 0.8097008117	 0.21418
C	 0.7016983485	-2.376143298	 2.1890213194	-0.191928
C	 1.9482770663	-1.5256616134	 2.4070979794	-0.274278
C	 0.5876158963	-0.8808605345	 2.4699943298	-0.029735
N	 0.0165326129	-0.7119862075	 1.1228068495	-0.031649
H	 0.7689685548	 2.0227909573	 0.546144089	 0.123918
H	-0.0046397332	 1.9275965639	-1.0396573005	 0.131997
H	-0.9868400611	 1.885241543	 0.4315996013	 0.12906
H	 0.0364240793	-0.5751019734	-2.1112527047	 0.087231
H	 0.3507331522	-3.0837579501	-1.1361220653	 0.094239
H	 0.4331611438	-3.1988269347	 2.8369829938	 0.105565
H	 2.4507753086	-1.649991537	 3.3638241654	 0.116988
H	 2.6049978795	-1.3144897445	 1.5691600032	 0.132929
H	 0.1831816114	-0.3597553921	 3.327652688	 0.112431
110.9935	143.0677	178.9345	262.7038	333.9199	486.5836	512.3297	619.9134	635.0309	701.6708	709.6875	781.4632	788.9114	808.5988	825.8229	856.2074	937.2678	981.1652	988.2437	999.5675	1034.9275	1047.4256	1060.6884	1078.9837	1087.6738	1149.4315	1184.1492	1226.3159	1254.5297	1262.8375	1301.3796	1375.1302	1402.8683	1416.5189	1470.9282	1479.5856	1497.7685	1528.2497	1593.4323	3017.7399	3061.8942	3112.4824	3119.146	3199.7423	3203.9346	3215.0422	3222.8216	3252.9877
CC1=CC=C2C3CC3N12	Cc1ccc2[C@H]3C[C@H]3n12	
InChI=1S/C8H9N/c1-5-2-3-7-6-4-8(6)9(5)7/h2-3,6,8H,4H2,1H3	InChI=1S/C8H9N/c1-5-2-3-7-6-4-8(6)9(5)7/h2-3,6,8H,4H2,1H3/t6-,8-/m1/s1
