14
gdb 7875	3.75844	1.75732	1.21531	2.2051	66.96	-0.2464	-0.0872	0.1591	933.1643	0.106252	-382.605379	-382.597908	-382.596964	-382.637616	26.68	
C	-0.0314548528	 1.5053474938	 0.0543642033	-0.492762
C	-0.0066729894	 0.0199600449	-0.0481492385	 0.218715
C	-0.0364977829	-0.7694290499	-1.1381480605	-0.273006
C	 0.0064533972	-2.2103469848	-0.7770219619	 0.385722
O	-0.0081763431	-3.1378943524	-1.550527471	-0.312901
C	 0.0721139536	-2.292346369	 0.7484864172	-0.450095
C	 0.0610081748	-0.8323683966	 1.1871363103	 0.332665
O	 0.0987267788	-0.404336519	 2.3156327786	-0.305651
H	 0.8590127355	 1.8620878517	 0.5835229219	 0.157009
H	-0.0814450282	 1.9835338365	-0.9256787257	 0.133739
H	-0.8883141626	 1.8278935614	 0.6559949971	 0.157034
H	-0.0857032401	-0.44709154	-2.172002526	 0.129362
H	-0.7804706218	-2.8423432109	 1.1586381111	 0.160069
H	 0.9782976609	-2.8059843357	 1.0842529739	 0.160102
79.3496	98.6132	165.8706	252.3052	343.6416	379.6455	509.6685	545.5789	573.2662	612.3698	666.9498	750.2472	842.0243	884.0386	970.8128	991.644	1060.793	1062.016	1135.0559	1180.694	1230.8696	1242.933	1326.4122	1409.0814	1419.68	1467.7346	1472.2234	1671.0064	1803.8166	1837.619	3040.6035	3066.8623	3093.9246	3108.5171	3135.9065	3207.3099
CC1=CC(=O)CC1=O	CC1=CC(=O)CC1=O	
InChI=1S/C6H6O2/c1-4-2-5(7)3-6(4)8/h2H,3H2,1H3	InChI=1S/C6H6O2/c1-4-2-5(7)3-6(4)8/h2H,3H2,1H3
