23
gdb 73815	2.57103	1.42825	1.02284	0.216	94.33	-0.2042	0.037	0.2412	1267.4218	0.205518	-351.174364	-351.164866	-351.163922	-351.208289	36.605	
C	 0.0753270711	 1.5145001778	-0.0302792754	-0.494146
C	-0.0104693685	 0.0206799488	-0.065284474	 0.208345
C	-1.100273585	-0.7592977681	 0.0156650907	 0.171486
C	-2.5287509806	-0.3279453336	 0.1473393289	-0.515298
C	-0.7203371607	-2.2098793921	-0.0160218351	 0.316033
C	-1.2573875442	-3.1869269944	 1.0158253093	-0.312001
C	-1.6663127311	-3.3103091821	-0.4297410763	-0.31992
C	 0.7530327624	-2.2357952237	-0.4348299832	-0.304428
C	 1.2593056686	-0.8040723862	-0.1508669732	-0.303
H	 0.6940461015	 1.8522743797	 0.8121487074	 0.121575
H	 0.5555925674	 1.9029674781	-0.9382010151	 0.12118
H	-0.9017906985	 1.9948087404	 0.0610305816	 0.118781
H	-2.6264440778	 0.7569009885	 0.2262064593	 0.122842
H	-3.1242681755	-0.6530735336	-0.7149857136	 0.126777
H	-3.0006697425	-0.7654945996	 1.0363319566	 0.124133
H	-0.5649815157	-3.9183150886	 1.4202112284	 0.108572
H	-1.9983018842	-2.837861234	 1.7275372006	 0.10773
H	-2.6863023278	-3.0504090774	-0.6931489859	 0.10718
H	-1.2562478819	-4.1301886299	-1.0115431224	 0.106803
H	 1.329120807	-3.0067523251	 0.0848279456	 0.093225
H	 0.8242164198	-2.4456212325	-1.5082793011	 0.10079
H	 1.9429696964	-0.440239659	-0.9278594434	 0.094452
H	 1.8173990297	-0.7439116636	 0.7954089502	 0.09889
78.3888	135.4749	149.1097	169.1216	235.9061	254.1492	305.2276	321.8277	396.9736	422.9279	480.3076	577.7326	615.9869	643.9247	762.9977	782.594	863.3222	887.2302	900.768	918.8193	971.1974	977.2093	1003.1007	1008.2908	1052.23	1063.3675	1073.4474	1090.5027	1113.1763	1136.8478	1181.6626	1191.641	1214.7222	1240.0097	1306.4681	1327.1024	1335.5006	1377.3977	1410.5835	1420.9239	1460.3521	1479.2941	1482.5003	1483.7423	1488.594	1493.3272	1500.661	1502.6094	1730.2378	2994.5548	3010.9871	3019.5675	3029.6984	3044.8513	3050.6723	3061.754	3085.3976	3111.8483	3120.8063	3122.0378	3126.1954	3199.0895	3214.8445
CC1=C(C)C2(CC2)CC1	CC1=C(C)C2(CC2)CC1	
InChI=1S/C9H14/c1-7-3-4-9(5-6-9)8(7)2/h3-6H2,1-2H3	InChI=1S/C9H14/c1-7-3-4-9(5-6-9)8(7)2/h3-6H2,1-2H3
