22
gdb 96111	2.18551	1.71589	1.19437	2.012	81.13	-0.2415	0.0715	0.313	1134.0087	0.196287	-404.349974	-404.341315	-404.340371	-404.382691	34.732	
C	-0.0212242178	 1.5342107401	-0.012039716	-0.479247
C	 0.0564020902	 0.0238002913	-0.0208622417	 0.296447
N	-0.8401327507	-0.7439739444	 0.870495663	-0.37972
C	 0.6147632587	-0.7044009637	 1.1533821267	-0.072388
C	 1.3814779778	-2.0123838377	 1.0141236357	-0.203708
C	 1.716142733	-2.3471654639	-0.4486915917	-0.211755
C	 0.5136856099	-2.095505356	-1.3640811384	-0.22806
C	 0.1497640619	-0.6060979237	-1.4078541788	 0.105238
O	-1.0621395329	-0.3825010688	-2.1211898175	-0.44699
H	 0.8972364409	 1.9773626549	-0.4132592154	 0.121382
H	-0.8536407324	 1.8738594874	-0.6361056216	 0.135828
H	-0.1626473038	 1.9193792984	 1.0034058724	 0.104956
H	-1.3311773135	-0.1111402951	 1.4976083137	 0.22443
H	 0.9127636431	-0.0785451634	 1.9930325822	 0.078752
H	 2.3033939225	-1.9546589033	 1.6030823178	 0.093757
H	 0.7769871756	-2.8157226207	 1.4516240418	 0.109352
H	 2.5583884568	-1.7254624162	-0.7820536063	 0.093833
H	 2.0498780973	-3.3871903568	-0.5272043949	 0.094585
H	 0.712304852	-2.4346591566	-2.3854666354	 0.097204
H	-0.3536603018	-2.6577965771	-0.9974840756	 0.103752
H	 0.9183332786	-0.0695078674	-1.9792342597	 0.079883
H	-1.7584174551	-0.7699520974	-1.5757012103	 0.282469
91.801	198.4078	227.7835	237.1954	267.0963	315.2784	362.3955	394.7517	440.8126	470.4021	494.4275	542.5055	640.9093	696.7469	783.7005	856.6674	857.752	883.436	924.3661	936.7769	980.8034	1019.1187	1033.7311	1067.5689	1084.2021	1105.688	1115.6243	1139.2331	1171.9908	1182.5306	1226.4927	1274.0435	1277.9962	1319.425	1333.2478	1367.51	1373.2662	1380.4227	1389.6837	1408.9257	1429.5533	1457.367	1476.8787	1483.0658	1485.562	1497.768	1505.8192	3015.0256	3025.5946	3029.7843	3031.1785	3037.6168	3066.1063	3076.2185	3086.7709	3092.9255	3107.4215	3115.3083	3489.5904	3775.8139
CC12NC1CCCC2O	C[C@]12N[C@H]1CCC[C@H]2O	
InChI=1S/C7H13NO/c1-7-5(8-7)3-2-4-6(7)9/h5-6,8-9H,2-4H2,1H3	InChI=1S/C7H13NO/c1-7-5(8-7)3-2-4-6(7)9/h5-6,8-9H,2-4H2,1H3/t5-,6+,7-/m0/s1
