16
gdb 18485	5.73462	1.24767	1.15261	1.7808	69.51	-0.2507	0.0558	0.3065	1032.5666	0.129317	-346.527864	-346.520398	-346.519453	-346.559884	28.156	
C	-0.0511794743	-1.149019644	-0.211819835	-0.450865
C	-0.0424926678	 0.0369484789	-0.0149518637	 0.296173
C	 0.0086103255	 1.4754459281	 0.2162084367	-0.360821
C	 1.4231381215	 2.0496043691	 0.0691133041	-0.005031
C	 2.0793432204	 2.0541064258	-1.3621679343	-0.263878
C	 2.1557798321	 3.5825870323	-1.2675720599	 0.037092
O	 0.8180142955	 4.0627352271	-1.0756693201	-0.24486
C	 1.5372890648	 3.5858497493	 0.0675746307	-0.000556
H	-0.0763259492	-2.196382569	-0.3835173348	 0.193855
H	-0.6487764733	 1.9930022248	-0.4919193544	 0.146887
H	-0.3741737735	 1.7003865116	 1.2207378601	 0.126468
H	 2.0975693938	 1.5976576271	 0.801186787	 0.08934
H	 3.0557027591	 1.565321149	-1.3747801351	 0.110382
H	 1.4672849643	 1.668963906	-2.1809811358	 0.118131
H	 2.8643179026	 4.2676703721	-1.7179649576	 0.106099
H	 1.6433036385	 4.2668347721	 0.904678842	 0.101582
70.0489	117.9351	185.4267	294.4024	349.4887	395.9209	501.9704	553.878	617.0676	635.2028	730.2437	812.1731	838.3138	855.2388	883.7778	927.5684	954.3974	971.3138	1002.9508	1039.931	1063.3284	1102.2004	1145.9019	1210.3966	1237.7279	1239.5298	1244.3979	1275.4488	1312.9076	1366.677	1393.7572	1470.9378	1479.5889	2237.4472	3019.5244	3062.2466	3072.3326	3082.4404	3129.9157	3177.4	3195.0269	3507.4219
C#CCC1CC2OC12	C#CC[C@H]1C[C@H]2O[C@@H]12	
InChI=1S/C7H8O/c1-2-3-5-4-6-7(5)8-6/h1,5-7H,3-4H2	InChI=1S/C7H8O/c1-2-3-5-4-6-7(5)8-6/h1,5-7H,3-4H2/t5-,6+,7-/m0/s1
