18
gdb 126688	3.12572	1.27477	0.98291	3.5186	75.4	-0.2223	0.0109	0.2332	1219.2636	0.148009	-435.272126	-435.263033	-435.262089	-435.307064	31.684	
C	-0.0675863903	 1.5205566286	-0.0420085045	-0.383382
C	-0.0066404807	-0.0102874895	-0.0563526413	-0.163601
N	 0.6856039858	-0.5635966988	-1.2190459518	-0.175009
C	 2.1362453081	-0.6696646173	-1.1933249699	-0.3513
C	 0.0343728271	-0.7439519727	-2.3832583265	 0.579705
N	 0.5304296589	-1.143104197	-3.5352114922	-0.391981
C	-0.592652057	-1.1706613411	-4.31091835	 0.050636
N	-1.711835573	-0.8199763549	-3.7420021356	-0.147032
O	-1.2890530123	-0.5185276775	-2.4127170704	-0.239765
H	 0.9334940113	 1.962205119	-0.0591737601	 0.123145
H	-0.6253338583	 1.8913034128	-0.9061320642	 0.143381
H	-0.5730761981	 1.8669941382	 0.8646825173	 0.124325
H	 0.5182319949	-0.3794759203	 0.8310759923	 0.112024
H	-1.0169201697	-0.4254626132	-0.0313754186	 0.143042
H	 2.447218037	-1.2244480371	-0.3020694538	 0.129932
H	 2.46651823	-1.2024045706	-2.0840585358	 0.177957
H	 2.617412094	 0.3167205913	-1.1758439314	 0.129721
H	-0.5788940378	-1.4648574101	-5.3515364834	 0.138203
57.3109	64.1193	100.4312	140.7273	208.6391	254.7719	277.3879	374.1045	412.895	528.7331	615.8291	628.3109	771.3569	793.2542	876.1318	896.7489	939.0823	976.269	982.9512	1045.9436	1093.9865	1113.048	1157.9299	1203.8204	1214.7693	1263.9148	1296.4865	1324.4514	1394.1385	1408.9765	1414.5289	1452.378	1483.8698	1490.4484	1497.1785	1505.5478	1508.605	1580.5424	1672.0398	3017.2011	3042.7433	3051.4333	3078.0916	3100.8374	3116.5497	3128.6246	3164.3229	3246.8576
CCN(C)C1=NC=NO1	CCN(C)c1ncno1	
InChI=1S/C5H9N3O/c1-3-8(2)5-6-4-7-9-5/h4H,3H2,1-2H3	InChI=1S/C5H9N3O/c1-3-8(2)5-6-4-7-9-5/h4H,3H2,1-2H3
