18
gdb 28451	3.08672	1.39573	0.97344	1.8956	85.43	-0.2137	-0.0265	0.1873	1214.4844	0.1484	-398.205188	-398.196398	-398.195454	-398.238487	33.091	
C	-0.04095473	 1.4962719685	 0.0622191375	-0.471868
C	 0.006073715	-0.0055296646	 0.0027221997	 0.313246
C	 0.1576528896	-0.6970784735	-1.1937538105	-0.101121
N	 0.1979273829	-2.0352060536	-1.2414831425	-0.290955
C	 0.0836895777	-2.7045307779	-0.1037279111	 0.283711
C	 0.1115089679	-4.2073060386	-0.1428421165	-0.502114
C	-0.0683572043	-1.9984268138	 1.1190120047	 0.306078
N	-0.2417867283	-2.6698517861	 2.3136135139	-0.566396
N	-0.1004052963	-0.6693405713	 1.1635161227	-0.371565
H	 0.0763516982	 1.9388526589	-0.9299563421	 0.12199
H	-0.9929863975	 1.8344453199	 0.484582777	 0.137918
H	 0.7515789461	 1.8803272918	 0.7126927049	 0.136227
H	 0.2503170326	-0.1689474171	-2.1383369684	 0.097889
H	 0.9706343957	-4.6147495795	 0.4081898399	 0.120745
H	-0.7922542569	-4.6359012392	 0.3073618955	 0.13404
H	 0.1839538425	-4.54030574	-1.1789965084	 0.145258
H	 0.1740243726	-3.5840701042	 2.3930690354	 0.252787
H	-0.1221405275	-2.0843779196	 3.1274641684	 0.25413
80.2655	117.9882	172.7663	225.5783	288.1102	297.7539	332.2706	399.845	474.0571	489.5593	497.7364	556.3685	595.3887	649.482	727.4056	762.2938	806.2941	892.5228	964.2709	1014.2542	1023.6972	1055.4661	1059.6073	1119.3502	1219.1387	1258.4208	1301.338	1320.1862	1400.652	1408.8027	1446.1474	1475.2243	1478.7032	1484.0305	1488.2696	1503.5319	1594.5344	1611.046	1639.459	3009.9909	3038.8867	3061.8013	3097.515	3124.706	3142.5936	3165.7588	3575.0924	3691.863
CC1=CN=C(C)C(N)=N1	Cc1cnc(C)c(N)n1	
InChI=1S/C6H9N3/c1-4-3-8-5(2)6(7)9-4/h3H,1-2H3,(H2,7,9)	InChI=1S/C6H9N3/c1-4-3-8-5(2)6(7)9-4/h3H,1-2H3,(H2,7,9)
