13
gdb 29108	3.10496	1.46463	0.998	7.2195	64.82	-0.222	-0.0544	0.1675	1080.7766	0.090065	-489.937352	-489.929675	-489.928731	-489.969667	28.656	
N	 0.1297841057	 1.4070729155	 0.3786131332	-0.587006
C	-0.0206279158	 0.0581719529	 0.0238459694	 0.280796
C	-1.1737485191	-0.5932275749	-0.1629726062	-0.041191
O	-1.219654373	-1.951866858	-0.3939875233	-0.214138
C	-0.0921077829	-2.7027357467	-0.5587182976	 0.337106
O	-0.1733854254	-3.8680713576	-0.8041432933	-0.288974
C	 1.2597161404	-1.9931767454	-0.376076304	 0.292204
O	 2.3057485326	-2.5884817084	-0.461859144	-0.324985
N	 1.1734296723	-0.6523037338	-0.0785272341	-0.376163
H	 0.6125942332	 1.9491127536	-0.3322244618	 0.257587
H	-0.7583582725	 1.8469590268	 0.5823992064	 0.260012
H	-2.1526445867	-0.1409390669	-0.1446719589	 0.135269
H	 2.0389737111	-0.1905891672	 0.1680326642	 0.269484
87.5418	139.9402	250.8496	313.1115	337.6727	360.3937	429.616	457.8366	509.6597	585.8123	619.2442	641.5385	657.123	733.5498	792.405	806.8985	824.1753	1038.2684	1081.855	1140.0928	1207.9979	1275.5164	1326.4162	1374.816	1491.1883	1643.2333	1749.1495	1818.9309	1864.5666	3260.4503	3501.094	3597.6208	3615.3352
NC1=COC(=O)C(=O)N1	Nc1coc(=O)c(=O)[nH]1	
InChI=1S/C4H4N2O3/c5-2-1-9-4(8)3(7)6-2/h1H,5H2,(H,6,7)	InChI=1S/C4H4N2O3/c5-2-1-9-4(8)3(7)6-2/h1H,5H2,(H,6,7)
