17
gdb 32608	2.85638	1.26606	0.93578	5.0244	72.15	-0.1852	0.0478	0.2329	1250.4819	0.136071	-455.199668	-455.190637	-455.189693	-455.234055	32.69	
C	-0.1596897033	 1.5755148047	-0.0640347172	-0.375318
C	 0.1245489515	 0.0728265378	-0.0058798526	-0.158225
N	 0.7250816698	-0.443173935	-1.2213560887	-0.114813
C	 0.0908039215	-0.6371883197	-2.4698001005	-0.236601
C	 1.0387288731	-1.0988204321	-3.3008853777	 0.355344
N	 1.090893867	-1.3885102664	-4.6540074794	-0.589465
O	 2.2323867528	-1.2102974689	-2.6350815611	-0.233315
C	 2.040149489	-0.8002519649	-1.3144833229	 0.478987
O	 2.9109717168	-0.7981550295	-0.4831010154	-0.419378
H	 0.7664122659	 2.1374598516	-0.2132055388	 0.13936
H	-0.8439799353	 1.8204719144	-0.8824195063	 0.120228
H	-0.6189584482	 1.9080844507	 0.8719162426	 0.122029
H	 0.8318277008	-0.1536457359	 0.7956532416	 0.149775
H	-0.7986639056	-0.4844798702	 0.1945828	 0.11166
H	-0.9533848275	-0.4345842773	-2.6256297934	 0.131924
H	 0.1742381919	-1.503927696	-5.0648236855	 0.255819
H	 1.6741641799	-2.1930343534	-4.8530297346	 0.261991
48.9581	80.3761	179.7701	199.6304	215.8027	280.4234	301.3193	338.685	400.7102	570.7993	606.3385	618.8239	632.8774	683.7807	734.3494	757.3264	795.7946	854.3035	954.2241	989.7995	1057.4963	1092.8781	1107.1672	1128.7853	1207.0496	1261.8304	1371.5953	1386.2739	1404.065	1413.1058	1439.7647	1484.1165	1491.0133	1503.09	1631.2036	1742.0933	1879.8412	3031.9998	3041.0206	3101.6858	3117.672	3126.5789	3294.5406	3532.7094	3636.5325
CCN1C=C(N)OC1=O	CCn1cc(N)oc1=O	
InChI=1S/C5H8N2O2/c1-2-7-3-4(6)9-5(7)8/h3H,2,6H2,1H3	InChI=1S/C5H8N2O2/c1-2-7-3-4(6)9-5(7)8/h3H,2,6H2,1H3
