25
gdb 96597	2.07527	1.36783	0.96169	1.4203	88.02	-0.2557	0.0792	0.3349	1343.0283	0.231958	-389.503685	-389.494502	-389.493558	-389.536986	36.894	
O	-0.1319404644	 1.5362413382	 0.1830841516	-0.448517
C	-0.0193698422	 0.1157534981	 0.0363019898	 0.155667
C	 0.7565120826	-0.4537632552	 1.2396546365	-0.219845
C	 0.6597425883	-1.9602159311	 1.5179361357	-0.198709
C	 1.2257887179	-2.9172147204	 0.4595007634	-0.185446
C	 0.5473186348	-2.918494897	-0.925579121	-0.18038
C	-0.9992528766	-2.9019302458	-0.9172085676	-0.185598
C	-1.6550537778	-1.5286266759	-1.1571051769	-0.198346
C	-1.455571621	-0.4144761127	-0.1147592869	-0.193065
H	 0.7497263812	 1.8840328259	 0.3537339232	 0.273622
H	 0.529976917	-0.0956645644	-0.893283577	 0.060221
H	 1.8147658614	-0.1694619935	 1.1405416106	 0.079942
H	 0.3744852663	 0.0792129646	 2.1199279729	 0.102691
H	 1.1880750686	-2.1543311352	 2.459571517	 0.091862
H	-0.3862358113	-2.2198493786	 1.717212433	 0.100283
H	 2.2983804905	-2.7220783967	 0.3274515776	 0.08887
H	 1.1564457559	-3.9316977949	 0.8737101054	 0.093962
H	 0.9114720993	-2.07757779	-1.5262764173	 0.096646
H	 0.8924021397	-3.8158094678	-1.4520595923	 0.088726
H	-1.3595181588	-3.5652280719	-1.7121865063	 0.091998
H	-1.3750369529	-3.3385179888	 0.0173848976	 0.093032
H	-1.3101952679	-1.1516437752	-2.1303368	 0.095943
H	-2.7351638432	-1.6875099291	-1.2663004354	 0.091883
H	-1.8508220577	-0.7248425423	 0.8605896647	 0.09249
H	-2.0604617399	 0.4428746895	-0.4269522679	 0.112067
113.2798	154.6335	201.8198	229.3745	271.5295	307.7249	318.0803	337.2801	394.5304	424.6527	449.2494	512.8614	521.7365	744.6139	756.4898	814.7202	819.4941	834.608	869.7139	941.1239	971.2058	989.0213	991.1592	1010.7422	1081.4551	1092.699	1098.6761	1126.372	1130.1151	1158.1301	1197.8529	1243.5199	1262.9355	1268.9085	1287.9183	1296.9442	1319.5172	1354.6152	1362.4122	1372.7492	1384.6616	1385.3088	1394.5918	1404.1537	1405.6801	1442.8947	1479.0661	1481.3381	1487.5201	1489.2704	1491.8675	1505.3054	1509.976	2976.9714	2996.6346	3006.9052	3008.3472	3018.7736	3025.9352	3029.5019	3034.2738	3039.8735	3047.7838	3051.5129	3058.2666	3066.5318	3072.6654	3080.7365	3807.1329
OC1CCCCCCC1	OC1CCCCCCC1	
InChI=1S/C8H16O/c9-8-6-4-2-1-3-5-7-8/h8-9H,1-7H2	InChI=1S/C8H16O/c9-8-6-4-2-1-3-5-7-8/h8-9H,1-7H2
