15
gdb 6083	4.82744	0.86729	0.75699	2.7482	68.4	-0.2575	-0.0255	0.2321	1440.9077	0.116614	-399.798816	-399.789334	-399.78839	-399.834452	32.438	
C	-0.231422344	 1.5670125719	-0.0706053105	-0.390057
C	 0.074836499	 0.0682027666	 0.0582281659	-0.033424
O	-1.0893000755	-0.6898387235	 0.3704686597	-0.408976
C	 0.7544016598	-0.4438980573	-1.1376769204	 0.081454
C	 1.2870451109	-0.8545577302	-2.1388172495	 0.000994
C	 1.9800880752	-1.2969108056	-3.341569886	 0.264298
N	 1.6088903855	-2.542512151	-3.763142398	-0.520268
O	 2.7978511354	-0.6085481486	-3.9200297931	-0.331932
H	 0.6874376886	 2.1405121649	-0.2198210053	 0.137377
H	-0.8887524209	 1.752029256	-0.9263981526	 0.122214
H	-0.7289603643	 1.9128607684	 0.838898839	 0.130214
H	 0.738639209	-0.0834698467	 0.9181984234	 0.129951
H	-1.6893776393	-0.6228145159	-0.3809889832	 0.284349
H	 1.0365642681	-3.1360505918	-3.1878779873	 0.267329
H	 2.1152298925	-2.9464794874	-4.5345937222	 0.266477
21.107	77.028	105.9045	194.1446	226.9411	241.3703	262.076	313.6114	363.1401	443.2033	526.245	558.4025	587.2895	607.0683	706.2318	772.9435	878.8032	978.3999	1046.8069	1091.1799	1094.6136	1139.415	1286.3545	1329.1102	1345.8855	1401.4784	1414.9116	1488.2292	1491.4859	1609.0602	1775.7517	2340.9163	3039.568	3043.8734	3117.8747	3132.3912	3596.95	3736.8351	3801.1357
CC(O)C#CC(N)=O	C[C@@H](O)C#CC(=O)N	
InChI=1S/C5H7NO2/c1-4(7)2-3-5(6)8/h4,7H,1H3,(H2,6,8)	InChI=1S/C5H7NO2/c1-4(7)2-3-5(6)8/h4,7H,1H3,(H2,6,8)/t4-/m1/s1
