15
gdb 35942	2.52765	1.57948	1.33324	2.5927	66.23	-0.267	-0.0122	0.2548	990.3065	0.113757	-453.943131	-453.935425	-453.934481	-453.975808	28.102	
N	-0.2802284341	-1.2315874378	-0.0405713289	-0.320004
C	-0.1380321464	-0.0864538146	 0.004517831	 0.258199
C	 0.0127667964	 1.3990088693	 0.0194324473	 0.080612
O	-0.5927681606	 1.9780836685	 1.1150414445	-0.22071
C	-0.1932465661	 1.4725339067	 2.392816112	-0.123103
C	 1.1815783085	 1.9798936722	 2.807677206	-0.15554
N	 2.3183200901	 1.5496576281	 2.0166554827	-0.230449
C	 2.3438247178	 1.4807705963	 0.763990986	 0.126791
O	 1.3762946178	 1.7251407369	-0.1904568698	-0.232128
H	-0.4958827519	 1.8024148893	-0.8594069938	 0.156127
H	-0.9494439517	 1.8327881338	 3.0947006711	 0.128488
H	-0.2194625967	 0.375279071	 2.3869062516	 0.137126
H	 1.166446085	 3.0785965423	 2.8067225576	 0.133737
H	 1.3553877338	 1.6689821719	 3.8442433641	 0.122798
H	 3.2758631381	 1.2515741361	 0.2504509684	 0.138056
74.1458	110.0606	185.6674	247.3246	327.1852	378.1755	403.3781	470.7858	568.1328	602.2824	659.9491	746.5917	844.9164	867.854	948.8699	958.1012	963.6951	1015.0642	1048.006	1076.7667	1118.1512	1185.0992	1268.6955	1314.0781	1356.181	1379.8433	1394.3323	1410.6153	1425.32	1472.9238	1496.0717	1769.7874	2358.9526	3020.0328	3032.9891	3066.3662	3098.9364	3108.8999	3159.5157
N#CC1OCCN=CO1	N#C[C@H]1OCCN=CO1	
InChI=1S/C5H6N2O2/c6-3-5-8-2-1-7-4-9-5/h4-5H,1-2H2	InChI=1S/C5H6N2O2/c6-3-5-8-2-1-7-4-9-5/h4-5H,1-2H2/t5-/m0/s1
