18
gdb 16695	4.30392	1.63507	1.50801	1.8888	72.89	-0.2242	0.0114	0.2356	930.3778	0.153587	-347.765812	-347.758403	-347.757459	-347.797044	28.937	
C	-0.1372187859	 1.5102859508	-0.0028589485	-0.425391
C	-0.0134753089	-0.0045633139	-0.0098464689	 0.039057
C	 1.2746039659	-0.605828281	-0.676152252	 0.014343
O	 2.0098849948	-0.2289255159	 0.5391880133	-0.288325
C	 0.7666862707	-0.6491913104	 1.1896002628	-0.045554
C	 0.7087492917	-2.1504149549	 0.8314902807	 0.360538
C	 0.3380739783	-3.2623639869	 1.7476049477	-0.518129
C	 1.0620051876	-2.1098666694	-0.4581780485	-0.205278
H	 0.8123857526	 1.974818536	 0.2723569164	 0.135892
H	-0.4326504939	 1.8806032215	-0.990863016	 0.113568
H	-0.9035545142	 1.8350280661	 0.7098207834	 0.112721
H	-0.9543787474	-0.4923374412	-0.2803781499	 0.067846
H	 1.7096797626	-0.2335982145	-1.6035405025	 0.07445
H	 0.6633028703	-0.3278228956	 2.2270463997	 0.071194
H	-0.6703448879	-3.1239070054	 2.1585871816	 0.127973
H	 0.3628571971	-4.2283074076	 1.2354982964	 0.128684
H	 1.0193575454	-3.3150734674	 2.6063899849	 0.133615
H	 1.1679805211	-2.9026170303	-1.1845158205	 0.102797
157.94	167.365	226.2604	236.8366	299.8397	338.7289	495.7242	546.3172	588.1725	675.4129	760.0203	804.3994	811.8964	835.0081	875.6082	900.5525	919.9829	1001.1243	1026.4669	1054.791	1062.6888	1076.6475	1114.4859	1152.1762	1193.3906	1215.0254	1235.0319	1243.8331	1292.9216	1298.3904	1372.3125	1401.398	1413.8797	1478.6376	1485.3946	1491.2755	1504.6085	1686.1548	3015.3707	3031.9427	3060.5786	3066.7137	3089.3245	3107.6619	3113.4372	3125.9263	3129.1948	3236.0553
CC1C2OC1C(C)=C2	C[C@H]1[C@H]2O[C@@H]1C(=C2)C	
InChI=1S/C7H10O/c1-4-3-6-5(2)7(4)8-6/h3,5-7H,1-2H3	InChI=1S/C7H10O/c1-4-3-6-5(2)7(4)8-6/h3,5-7H,1-2H3/t5-,6-,7+/m0/s1
