17
gdb 81635	4.32235	0.92695	0.84562	4.3443	72.26	-0.2604	0.0147	0.2751	1353.0887	0.136425	-455.05965	-455.051643	-455.050699	-455.093364	29.924	
O	 0.1440207074	 1.4325083088	-0.0736309212	-0.448467
C	 0.0704611382	 0.0512171095	-0.0718555313	 0.217789
C	 0.0542121092	-0.7007590197	 1.3008084228	-0.138235
N	-1.32667592	-0.0926654581	 1.4930980757	-0.359731
C	-1.3335867992	-0.6303022578	 0.0675307053	-0.13798
C	-0.6249359108	-1.8977844323	 0.5806004842	 0.163565
O	 0.0939695982	-2.6570124151	-0.3693430556	-0.202168
C	 0.531286315	-3.8751760127	 0.0153060291	 0.123745
N	 1.2622657474	-4.5538116225	-0.7552053394	-0.437441
H	-0.4600551292	 1.7243417329	 0.6250816772	 0.29264
H	 0.7303639359	-0.3450680714	-0.8399347446	 0.12115
H	 0.7981160193	-0.7040540012	 2.0983241763	 0.09122
H	-1.9010784641	-0.6813849119	 2.104168652	 0.215533
H	-2.2097081687	-0.5503545813	-0.5761176671	 0.094052
H	-1.2337334886	-2.5393124952	 1.2289463561	 0.085935
H	 0.1756909965	-4.171093676	 1.0122826784	 0.086198
H	 1.4840969534	-5.449602516	-0.3257891579	 0.232194
37.9647	98.7596	139.0582	271.8409	329.5894	352.5789	415.863	457.8595	584.2743	674.1755	703.2082	783.8156	812.8665	822.9358	868.0938	906.2152	910.5036	944.2203	1038.6449	1041.1904	1045.9776	1110.849	1115.6182	1129.4054	1152.5718	1166.6786	1185.1762	1195.4186	1260.5245	1263.521	1284.8002	1296.764	1345.7494	1390.2514	1428.5316	1465.5211	1749.1772	3017.1407	3041.0192	3114.4035	3122.9627	3162.3257	3393.7354	3519.3456	3732.502
OC1C2NC1C2OC=N	O[C@H]1[C@H]2N[C@@H]1[C@H]2O[CH][NH]	
InChI=1S/C5H8N2O2/c6-1-9-5-2-4(8)3(5)7-2/h1-8H	InChI=1S/C5H8N2O2/c6-1-9-5-2-4(8)3(5)7-2/h1-8H/t2-,3+,4+,5+
