17
gdb 84969	2.91575	1.33549	0.96119	5.5664	77.05	-0.234	-0.0854	0.1486	1200.7115	0.135673	-421.873073	-421.864781	-421.863836	-421.906318	30.895	
C	-0.0279453911	 1.5780024296	 0.0067920585	-0.404904
C	 0.0228813766	 0.0422664422	 0.010912509	-0.051139
C	 0.6579457723	-0.5055281313	-1.2841640818	-0.328619
C	 0.9695363931	-1.9875297353	-1.2126259086	 0.289425
O	 0.7087053605	-2.7755600632	-2.0848935771	-0.276308
C	 1.689816638	-2.4469260626	 0.0823144782	 0.294543
O	 2.3379789853	-3.4696884633	 0.0996685674	-0.302182
C	 1.498134295	-1.5835308691	 1.2604255852	-0.177832
C	 0.7298907948	-0.4844116282	 1.2316268423	-0.032061
H	 0.9811500912	 2.0031374454	-0.0178801302	 0.127434
H	-0.5703891786	 1.9437695492	-0.8698937508	 0.128304
H	-0.5338352644	 1.9581312607	 0.89980691	 0.123328
H	-1.0156686538	-0.3209798041	 0.0601368571	 0.11654
H	 0.0335842146	-0.3123597944	-2.1601344251	 0.128946
H	 1.6171543774	 0.0120600248	-1.4365216703	 0.131885
H	 1.9781243639	-1.919197846	 2.1749092509	 0.118561
H	 0.584444755	 0.0827897157	 2.1496522454	 0.114081
62.0046	101.6364	223.1655	254.0862	297.5004	326.8848	357.0548	403.1221	450.6342	515.2585	608.4727	659.5567	685.4883	763.5057	838.9027	866.6672	928.2793	955.3011	1021.5094	1039.4518	1090.5686	1107.6498	1130.3181	1160.5446	1238.6356	1269.957	1292.3262	1335.6422	1338.0594	1401.5908	1417.003	1458.5626	1496.3103	1498.8357	1673.2001	1781.6404	1828.3702	2983.6599	3009.2041	3034.7051	3102.4714	3105.8861	3113.3119	3142.8487	3183.6984
CC1CC(=O)C(=O)C=C1	C[C@H]1CC(=O)C(=O)C=C1	
InChI=1S/C7H8O2/c1-5-2-3-6(8)7(9)4-5/h2-3,5H,4H2,1H3	InChI=1S/C7H8O2/c1-5-2-3-6(8)7(9)4-5/h2-3,5H,4H2,1H3/t5-/m1/s1
