15
gdb 29930	2.10547	1.91058	1.0088	3.3057	77.24	-0.2089	-0.0175	0.1914	1108.5129	0.114789	-413.048122	-413.039675	-413.03873	-413.081336	30.462	
C	-0.0411215662	 1.4390925013	 0.049438375	-0.344866
N	-0.0011167798	-0.0092478532	 0.0322411421	-0.072292
C	-0.0188827376	-0.8217948176	-1.041380157	 0.011961
N	 0.0277995935	-2.1055055925	-0.7264820154	-0.318893
C	 0.0823651088	-2.1405004345	 0.6345659659	 0.245128
N	 0.2000110375	-3.3284215406	 1.3122896905	-0.595908
C	 0.063064167	-0.8461293329	 1.1535233534	 0.120676
C	 0.0895970418	-0.3829399042	 2.4745859649	 0.188081
N	 0.1064499347	-0.0155125473	 3.5773583578	-0.371563
H	 0.8565961961	 1.8447644029	 0.5246501115	 0.160907
H	-0.093792071	 1.7990171362	-0.9792547864	 0.148037
H	-0.9179258189	 1.7948001612	 0.5980890665	 0.160032
H	-0.0687238314	-0.4305206543	-2.0472570612	 0.140754
H	-0.1062085965	-4.1308025705	 0.7825322199	 0.263029
H	-0.110782088	-3.3286170439	 2.2718571725	 0.264918
94.2845	123.9883	142.4123	180.3424	271.902	323.3824	345.7235	416.3298	522.8633	540.5673	565.2208	592.2902	629.536	680.0632	756.7434	810.9871	840.2082	1042.5674	1076.7	1120.8997	1153.2149	1248.9188	1286.0982	1361.0162	1407.4508	1454.6357	1471.6596	1477.7358	1523.1643	1545.9662	1597.516	1655.1362	2310.7916	3047.4062	3111.8531	3146.2145	3247.0847	3577.2291	3686.4625
CN1C=NC(N)=C1C#N	Cn1cnc(N)c1C#N	
InChI=1S/C5H6N4/c1-9-3-8-5(7)4(9)2-6/h3H,7H2,1H3	InChI=1S/C5H6N4/c1-9-3-8-5(7)4(9)2-6/h3H,7H2,1H3
