17
gdb 28673	3.45546	1.02913	0.86835	0.8571	82.	-0.2102	0.0178	0.228	1354.1764	0.134512	-384.695223	-384.686344	-384.6854	-384.729564	32.467	
C	 0.1712040938	 1.3866095688	-0.2085618908	-0.492357
C	-0.0991394233	-0.067159845	-0.0601903374	 0.349152
C	-1.2260066769	-0.7970122047	 0.1566366372	-0.253628
C	-0.8209448462	-2.1724150114	 0.2013329511	-0.265941
C	 0.5233726922	-2.1805180032	 0.0091261837	 0.360001
C	 1.5433317771	-3.2746949348	-0.0467779042	-0.463828
C	 2.1710568583	-3.4344948182	-1.3593322367	 0.317277
C	 2.6872239913	-3.5645890495	-2.4360372234	-0.457276
O	 0.9776337866	-0.9040881234	-0.1499260403	-0.206931
H	 0.6157844265	 1.615448803	-1.1838032151	 0.139965
H	-0.7616285852	 1.9474187237	-0.1177486738	 0.134585
H	 0.8648730991	 1.7482798553	 0.5591563485	 0.137174
H	-2.2247544413	-0.405072837	 0.2707791207	 0.105313
H	-1.4485927395	-3.0370112601	 0.3521272853	 0.107636
H	 2.324043411	-3.0941879813	 0.705029574	 0.146114
H	 1.0488384612	-4.2090430988	 0.2418253596	 0.145576
H	 3.1408909252	-3.6765659732	-3.3893340383	 0.197166
42.5321	89.0421	131.0409	203.8373	245.1217	295.8884	330.6434	384.7135	450.6162	617.6712	619.8686	637.2315	644.7984	668.3224	762.7941	796.8041	826.9627	908.4916	945.3218	975.7307	995.844	1021.2198	1046.3267	1065.1079	1192.0373	1229.0576	1244.4747	1267.0104	1335.4069	1397.3816	1417.3797	1450.9987	1472.5916	1492.2145	1600.6244	1657.6184	2242.4426	3013.3452	3030.1842	3067.6651	3080.1794	3129.2775	3248.6442	3262.1514	3507.2719
CC1=CC=C(CC#C)O1	Cc1ccc(CC#C)o1	
InChI=1S/C8H8O/c1-3-4-8-6-5-7(2)9-8/h1,5-6H,4H2,2H3	InChI=1S/C8H8O/c1-3-4-8-6-5-7(2)9-8/h1,5-6H,4H2,2H3
