17
gdb 65823	2.59899	1.3163	1.23758	3.87	74.06	-0.2781	0.0084	0.2865	1106.7316	0.136127	-418.050016	-418.041589	-418.040644	-418.083125	31.566	
C	-0.0161995255	 1.5043059804	 0.0508307734	-0.432196
C	 0.030770728	-0.0191061813	-0.0311313576	 0.205121
C	 0.820928157	-0.5821706857	-1.2383721655	-0.261466
C	 1.3659108635	-1.9015793124	-0.6828798842	-0.309676
C	 1.5082966687	-1.6154548652	 0.7951274401	 0.417772
N	 2.2185670847	-2.2487288154	 1.6179112427	-0.529491
O	 0.7344115994	-0.5204581497	 1.1222021381	-0.257213
C	-1.3433816771	-0.5730926115	-0.0138243991	 0.2743
N	-2.4162000976	-1.0018853275	-0.0185718431	-0.329888
H	 1.0048580568	 1.8922334901	 0.0798622756	 0.137419
H	-0.5318459335	 1.9142857724	-0.8216913494	 0.142854
H	-0.5438366664	 1.8251130547	 0.9514738707	 0.152692
H	 0.1968262823	-0.6921900902	-2.1258663212	 0.135775
H	 1.6345185646	 0.1117738025	-1.4692516049	 0.124195
H	 0.6476800436	-2.717366456	-0.820258533	 0.153669
H	 2.315548673	-2.2169549509	-1.1142190243	 0.146301
H	 2.1221977383	-1.8631116442	 2.5586560917	 0.229832
79.4245	123.6761	197.255	205.346	239.8447	299.7084	401.4937	453.7323	488.9978	512.8382	579.0837	628.4998	663.4365	735.8847	816.1862	892.6145	897.9794	918.7162	935.5323	1005.7391	1028.1429	1070.0891	1116.1118	1122.3046	1192.7509	1219.2195	1253.0381	1299.9517	1322.7455	1342.993	1411.7392	1471.577	1480.5375	1489.569	1496.0644	1792.6906	2355.7568	3053.7282	3059.7478	3068.1469	3132.1946	3135.0813	3141.3023	3142.6695	3478.6118
CC1(CCC(=N)O1)C#N	C[C@]1(CC[C]([NH])O1)C#N	
InChI=1S/C6H8N2O/c1-6(4-7)3-2-5(8)9-6/h8H,2-3H2,1H3	InChI=1S/C6H8N2O/c1-6(4-7)3-2-5(8)9-6/h8H,2-3H2,1H3/t6-/m0/s1
