15
gdb 27797	2.12566	1.8124	0.98424	3.6356	73.7	-0.2259	-0.045	0.1809	1137.5596	0.113356	-454.003704	-453.995845	-453.994901	-454.036355	29.386	
C	 0.0789646883	 1.4682758977	 0.0136389868	-0.473911
C	-0.0568263037	-0.0170703461	-0.0010230174	 0.424041
C	-1.2119116858	-0.7084768559	-0.109879899	-0.337573
C	-1.082997887	-2.1352413816	-0.1004854693	 0.442012
O	-2.2162069606	-2.8376259343	-0.2085816928	-0.397706
N	 0.0408754198	-2.7697572277	 0.0040138369	-0.426932
C	 1.2096483404	-2.046117634	 0.1160070995	 0.42275
N	 2.3880364532	-2.4916878574	 0.2280009586	-0.534033
O	 1.1246291941	-0.6388196918	 0.1085105326	-0.236343
H	 0.722158872	 1.7938634818	-0.8103356537	 0.159715
H	-0.8955780144	 1.949663261	-0.0769602217	 0.140224
H	 0.5579878156	 1.7917271297	 0.9434634192	 0.159724
H	-2.172589852	-0.22516438	-0.1989713468	 0.123246
H	-1.9608402694	-3.7726426475	-0.1863683309	 0.306385
H	 2.3469786294	-3.5090135939	 0.223186398	 0.228399
94.9392	138.1008	178.6109	215.1403	289.4485	364.1159	517.7613	529.9086	559.149	559.6826	616.2069	653.4718	724.8407	765.4383	803.9687	850.1461	856.1696	967.9834	1019.3759	1049.9007	1063.9738	1106.8974	1175.0395	1257.949	1266.934	1384.0806	1415.57	1465.127	1466.5941	1501.8593	1630.2325	1701.6265	1746.7182	3046.776	3106.0642	3149.6047	3252.9716	3523.8914	3741.1083
CC1=CC(O)=NC(=N)O1	C[C@H]1C=C(O)N=C([NH])O1	
InChI=1S/C5H6N2O2/c1-3-2-4(8)7-5(6)9-3/h2H,1H3,(H2,6,7,8)	InChI=1S/C5H7N2O2/c1-3-2-4(8)7-5(6)9-3/h2-3,6H,1H3,(H,7,8)/t3-/m0/s1
