23
gdb 111986	3.89506	1.0367	0.92466	0.2203	91.53	-0.2226	0.0222	0.2448	1392.8607	0.206029	-351.163929	-351.154732	-351.153788	-351.197506	35.964	
C	 0.0454379635	 1.6165832626	 0.1280186026	-0.384992
C	 0.0400803019	 0.0853569573	 0.0843311673	-0.170628
C	-1.3664309374	-0.5319100774	-0.0434007072	-0.038194
C	-2.0840624374	-0.2472976954	-1.3533090788	-0.086642
C	-2.563827618	-1.3554534481	-1.9209520818	-0.14707
C	-2.2259195006	-2.5874252089	-1.1392734881	 0.322856
C	-3.2280525608	-3.7123347059	-1.0326698745	-0.487077
C	-0.7338811021	-2.8616407479	-1.0795833608	-0.321243
C	-1.3954765732	-2.0632898247	 0.0214740974	-0.102137
H	 1.0599906982	 2.0020971088	 0.2699020415	 0.1111
H	-0.3437746418	 2.0512080872	-0.7985253974	 0.11651
H	-0.5703219242	 1.9920055705	 0.9533411155	 0.112288
H	 0.6655033714	-0.2635731955	-0.7456762743	 0.095824
H	 0.5027719299	-0.3023842374	 1.0006481012	 0.094056
H	-1.967591043	-0.1303139183	 0.7883298029	 0.073438
H	-2.1698977311	 0.7508379166	-1.7680242859	 0.090801
H	-3.1188120102	-1.3961944652	-2.8529877646	 0.087334
H	-3.4252327537	-4.1631098754	-2.0128581527	 0.115353
H	-2.8606757163	-4.5061077883	-0.3746378172	 0.11367
H	-4.1849688981	-3.3594966681	-0.6313875037	 0.117044
H	-0.423170452	-3.8699877684	-0.8214853616	 0.102453
H	-0.0900310884	-2.3626212278	-1.7959425246	 0.107902
H	-1.4640701167	-2.5330899705	 0.9968263748	 0.077352
84.9686	127.0987	167.7622	205.6617	242.2022	258.0174	297.5629	360.274	392.5603	478.3041	532.4363	614.2789	708.5188	755.024	768.2962	784.0977	835.7881	864.0985	922.5614	930.7975	956.5937	965.9033	978.0604	997.7325	1049.8008	1061.9636	1072.9207	1084.5216	1111.4346	1130.1325	1134.0833	1152.457	1258.1749	1276.6713	1280.4381	1297.3023	1346.0345	1352.8602	1374.3994	1409.0106	1412.745	1420.2882	1481.6751	1486.6192	1488.6616	1500.5712	1502.077	1507.5226	1670.0381	2968.303	3021.2663	3024.4455	3030.5476	3060.7675	3079.2596	3097.1596	3098.1449	3102.319	3118.6917	3162.2321	3173.2988	3202.3684	3206.5007
CCC1C=CC2(C)CC12	CC[C@H]1C=C[C@@]2(C)C[C@@H]12	
InChI=1S/C9H14/c1-3-7-4-5-9(2)6-8(7)9/h4-5,7-8H,3,6H2,1-2H3	InChI=1S/C9H14/c1-3-7-4-5-9(2)6-8(7)9/h4-5,7-8H,3,6H2,1-2H3/t7-,8-,9-/m0/s1
