18
gdb 47098	2.63806	1.67235	1.16614	2.3732	70.06	-0.2266	-0.0262	0.2004	1045.8891	0.15049	-439.101422	-439.093903	-439.092958	-439.134463	28.597	
O	-0.113422224	 0.0947079385	 0.1658628181	-0.309785
C	-0.0648568955	 1.2965034354	 0.1296956204	 0.383494
C	-1.2537119661	 2.2550867955	 0.3147543002	-0.291362
N	-0.7919932515	 3.5986202757	-0.040755791	-0.304509
C	 0.6798584858	 3.603914396	 0.0492624924	-0.028924
C	 1.2126844938	 4.0270509621	 1.4344492839	-0.079527
O	 2.4261004435	 3.3183470722	 1.599531612	-0.240875
C	 2.2196812977	 2.0045702031	 1.0951451935	-0.090926
C	 1.1944127395	 2.1468992596	-0.061247946	-0.163876
H	-2.1146003085	 1.9377705688	-0.2791562606	 0.13507
H	-1.5616551084	 2.2021523086	 1.3690998272	 0.138992
H	-1.0684030319	 3.8084561374	-0.9916323385	 0.227966
H	 1.0909019617	 4.2567710996	-0.7227885687	 0.085799
H	 1.4275177943	 5.0947151291	 1.515633098	 0.115222
H	 0.4762397312	 3.7622074455	 2.2119927615	 0.092041
H	 3.1855700309	 1.6153703927	 0.7663384565	 0.118771
H	 1.8326645051	 1.3376982772	 1.8805299927	 0.105744
H	 1.6436842425	 1.9108544431	-1.0286006216	 0.106684
33.0223	121.7209	205.2927	249.3612	367.3835	435.1246	520.8758	582.5631	622.5125	665.1434	700.0545	781.7776	788.901	881.3784	921.4342	952.4755	964.9929	991.7885	1012.2651	1064.7537	1084.0108	1108.8483	1130.7603	1154.437	1198.7322	1208.6379	1248.1053	1259.0793	1267.6895	1293.832	1312.0564	1337.9054	1376.1393	1399.7324	1464.4339	1469.4177	1509.1869	1524.1738	1844.2391	2966.2968	2991.2936	3009.1278	3080.3676	3091.3921	3099.548	3103.0572	3110.5115	3551.8261
O=C1CNC2COCC12	O=C1CN[C@H]2COC[C@@H]12	
InChI=1S/C6H9NO2/c8-6-1-7-5-3-9-2-4(5)6/h4-5,7H,1-3H2	InChI=1S/C6H9NO2/c8-6-1-7-5-3-9-2-4(5)6/h4-5,7H,1-3H2/t4-,5+/m1/s1
