18
gdb 7501	4.07792	1.26083	1.1593	3.0335	64.59	-0.2461	0.0681	0.3142	1095.6637	0.152263	-422.037578	-422.028927	-422.027983	-422.071145	30.855	
C	-0.0586868468	 1.3580187427	-0.0221739509	-0.229386
O	-0.0789034809	-0.0517322047	-0.0635007679	-0.256165
C	 0.6798145463	-0.5984436284	-1.1255109386	-0.122804
C	 0.6374918968	-2.1092297095	-0.9576929895	 0.346083
O	 1.1020904077	-2.4765513163	 0.3136302827	-0.478185
C	-0.674568975	-2.7683217655	-1.4628745286	-0.122519
O	-0.009317099	-3.2173670196	-2.6643333255	-0.276011
C	 1.2835391771	-2.8863362003	-2.1179746017	-0.120112
H	 0.9645890972	 1.7451947115	 0.0972164865	 0.111828
H	-0.4893298245	 1.7941708296	-0.9357718381	 0.113513
H	-0.65941487	 1.6682569077	 0.835830759	 0.133096
H	 0.2677333397	-0.3035868848	-2.1029195592	 0.104005
H	 1.724120489	-0.2483294139	-1.0712493112	 0.094738
H	 0.7546630099	-1.8154796119	 0.9266408907	 0.287786
H	-0.990726178	-3.6041939155	-0.8263434964	 0.10196
H	-1.5272974206	-2.1156734948	-1.6780300082	 0.10306
H	 1.903829641	-2.3233598708	-2.8259226213	 0.099155
H	 1.8320264201	-3.7697337157	-1.7671568618	 0.109959
71.1919	110.0158	117.6924	174.7431	229.7374	318.7204	335.6689	386.5334	439.0257	456.3523	500.8582	721.8495	840.1241	920.183	935.653	973.7319	995.6908	1006.6246	1023.0819	1096.5173	1148.071	1154.9266	1164.2293	1172.9537	1195.609	1223.0392	1263.5957	1294.2302	1301.2029	1348.4686	1399.5709	1442.3759	1478.6853	1486.0146	1498.3277	1502.3399	1521.6756	1529.3563	2964.6428	2983.0725	3010.9501	3011.2011	3023.5129	3031.5186	3064.5566	3078.891	3120.1129	3768.482
COCC1(O)COC1	COCC1(O)COC1	
InChI=1S/C5H10O3/c1-7-2-5(6)3-8-4-5/h6H,2-4H2,1H3	InChI=1S/C5H10O3/c1-7-2-5(6)3-8-4-5/h6H,2-4H2,1H3
