21
gdb 89271	2.26606	1.80096	1.34258	1.5663	82.78	-0.2407	0.0174	0.2581	1056.8489	0.183417	-387.09555	-387.087249	-387.086305	-387.127938	33.507	
C	-0.1089772355	 1.5438062692	 0.0633291876	-0.474399
C	-0.0052474998	 0.0240792267	-0.0151819173	 0.315989
C	-1.293998176	-0.7845565641	 0.3385055756	-0.309298
C	-0.4452127863	-1.7414711077	 1.2222831951	 0.131812
O	-0.267625752	-3.0503167794	 0.7243996011	-0.430454
C	 0.7791696152	-0.7633993953	 1.0958429432	-0.088925
C	 2.0537532128	-1.3425686394	 0.4612826168	-0.283117
C	 1.7858470508	-1.1783042585	-1.0201188049	-0.085341
C	 0.6871830665	-0.4618302902	-1.269143436	-0.138716
H	 0.8754528831	 2.0154159981	-0.0277507487	 0.11664
H	-0.7419569646	 1.9388800513	-0.7403422171	 0.113731
H	-0.5497978074	 1.8577842963	 1.0158701636	 0.111329
H	-2.0161257482	-0.198957063	 0.9161540364	 0.095908
H	-1.8235003844	-1.2638694516	-0.490990997	 0.093441
H	-0.8105569355	-1.8715880224	 2.2438040055	 0.084646
H	-0.0243793027	-2.9795691122	-0.2059223555	 0.279724
H	 0.9606240683	-0.2071181664	 2.0181304915	 0.06103
H	 2.960940571	-0.8036818703	 0.7645992458	 0.10334
H	 2.1995984802	-2.3916056981	 0.7437656934	 0.119013
H	 2.4399815685	-1.5936020838	-1.7803853987	 0.09367
H	 0.317068526	-0.2126068394	-2.2597653406	 0.089978
86.8262	209.6559	218.9613	242.0077	289.5485	312.8032	405.7687	419.7412	465.2997	510.9124	621.3814	657.9993	753.9836	767.4883	793.3938	818.7148	876.9138	904.1997	941.4453	949.3978	970.7588	981.3678	989.4589	1040.7164	1050.2678	1101.6338	1132.6089	1135.5624	1176.1187	1191.5803	1217.3382	1240.9225	1264.7615	1272.8339	1280.8979	1323.0403	1331.479	1381.9191	1406.6985	1442.5422	1472.4175	1479.7058	1490.9514	1494.7501	1670.5083	3019.0772	3020.3484	3041.4542	3060.6941	3071.9719	3084.4837	3087.1843	3093.9466	3097.8923	3164.2101	3191.8609	3790.3765
CC12CC(O)C1CC=C2	C[C@]12C[C@@H](O)[C@H]1CC=C2	
InChI=1S/C8H12O/c1-8-4-2-3-6(8)7(9)5-8/h2,4,6-7,9H,3,5H2,1H3	InChI=1S/C8H12O/c1-8-4-2-3-6(8)7(9)5-8/h2,4,6-7,9H,3,5H2,1H3/t6-,7-,8+/m1/s1
