14
gdb 132957	2.47585	1.96361	1.10257	1.5718	67.16	-0.2423	-0.0519	0.1904	998.3413	0.102776	-474.198929	-474.191484	-474.190539	-474.231266	27.124	
C	-0.0330470188	 1.4700777129	 0.0088906396	-0.340784
N	 0.0122086494	 0.0071707885	 0.0005530585	-0.175533
C	-1.231781811	-0.7035665624	 0.0042271477	 0.427538
N	-2.2954975882	-0.0042607488	 0.0147792617	-0.563569
N	-1.1462366913	-2.0879862986	-0.0043354207	-0.301223
C	 0.0304143924	-2.6265820285	-0.0141326336	 0.06982
N	 1.2468000792	-1.9914975038	-0.017443565	-0.365959
C	 1.1470667004	-0.7067768916	-0.0098267789	 0.441473
F	 2.2540102819	 0.0064151471	-0.0120386746	-0.04652
H	 0.9803163119	 1.8626590724	 0.0021530689	 0.151066
H	-0.5882895781	 1.813760251	-0.8657905264	 0.167307
H	-0.5728197907	 1.8046136487	 0.8967550273	 0.167129
H	-3.0954004674	-0.6349287336	 0.0158908999	 0.233906
H	 0.0854062301	-3.7129455933	-0.0207380942	 0.135349
83.4174	135.6656	193.0509	240.5824	353.2123	390.8476	471.016	536.5804	554.9335	573.9769	729.182	731.2951	788.28	868.3754	881.0161	983.8009	1017.7467	1022.9128	1157.6772	1172.9813	1208.6865	1283.1788	1315.4178	1421.3311	1436.2455	1474.4502	1484.5105	1529.6571	1569.9611	1679.4102	1731.3441	3074.988	3139.8547	3165.4154	3196.1876	3516.2473
CN1C(=N)N=CN=C1F	CN1C(=NCN=C1F)[NH]	
InChI=1S/C4H5FN4/c1-9-3(5)7-2-8-4(9)6/h2,6H,1H3	InChI=1S/C4H6FN4/c1-9-3(5)7-2-8-4(9)6/h6H,2H2,1H3
