16
gdb 31111	3.80736	0.83856	0.6897	1.3769	74.41	-0.2139	-0.0584	0.1555	1581.5574	0.120079	-475.061133	-475.050524	-475.04958	-475.097644	36.604	
N	 0.6808018482	 1.610212007	-0.9748314388	-0.726258
H	 1.2476306592	 0.9657279591	-1.5191491022	 0.232014
H	 0.8141477565	 2.5253542134	-1.3963640145	 0.23202
H	-0.2901678263	 1.3536995711	-1.145026396	 0.269437
C	-0.874749906	 0.9428710852	 2.030058537	-0.42913
C	-2.1587126954	 0.60268039	 1.8436876823	 0.215013
C	-2.7791295606	 0.5378891575	 0.4848176868	 0.396663
O	-2.3587035035	 0.7402182613	-0.6157972933	-0.318695
O	-4.1174418105	 0.1536514392	 0.6707605289	-0.255101
C	-4.306332863	-0.0047123688	 2.023190084	 0.475645
O	-5.5346620663	-0.3716900795	 2.376532343	-0.405294
C	-3.2169027194	 0.2376159965	 2.7693816339	-0.43482
H	-0.4534047053	 0.9807582808	 3.029123909	 0.119744
H	-0.2250845185	 1.1883657513	 1.193809295	 0.184556
H	-6.0698375975	-0.4563431195	 1.5770860753	 0.318681
H	-3.1537886416	 0.1708423153	 3.8423228797	 0.125526
36.0448	95.1016	113.3707	132.9976	147.9411	188.9306	196.5614	298.0087	326.4453	337.9675	360.4223	428.6446	577.9485	615.7154	641.3202	668.0123	698.3607	778.0455	810.4359	827.4291	950.0449	976.5704	990.8625	1056.9539	1115.1257	1182.0603	1254.4401	1288.0513	1396.9391	1475.6679	1673.9003	1689.9059	1699.8331	1752.361	1880.0439	3128.9635	3230.5577	3275.7492	3455.9131	3570.4331	3583.3531	3801.2722
[NH3+]CC1=C([O-])OC(O)=C1	N.C=C1C(=O)OC(=C1)O	
InChI=1S/C5H7NO3/c6-2-3-1-4(7)9-5(3)8/h1,7-8H,2,6H2	InChI=1S/C5H4O3.H3N/c1-3-2-4(6)8-5(3)7;/h2,6H,1H2;1H3
