19
gdb 108607	2.79329	1.21984	0.91394	5.0747	79.83	-0.261	-0.0299	0.2311	1304.6755	0.158524	-423.096312	-423.086898	-423.085954	-423.131519	33.429	
C	-0.2597317123	 1.6103265847	-0.1210723741	-0.376862
C	 0.0342249439	 0.1022397201	 0.0000709857	-0.297096
C	 0.7853234566	-0.4504424924	-1.170929187	 0.197507
C	 2.0481771411	-0.8918942776	-1.2543580054	 0.029472
C	 3.1319624227	-0.996471305	-0.2335442261	-0.496647
C	 2.2991631727	-1.332169068	-2.6504465125	 0.411985
O	 3.2992544067	-1.7889973665	-3.1308649089	-0.352687
O	 1.1517813702	-1.1363041856	-3.3788045299	-0.232877
C	 0.1491263539	-0.5877354908	-2.5312833367	-0.171985
H	 0.6682553291	 2.183763481	-0.2030026199	 0.130248
H	-0.8704746552	 1.8327964512	-1.0013619133	 0.124344
H	-0.8034607779	 1.9647428433	 0.7591850026	 0.124572
H	 0.5986611973	-0.0853795763	 0.9186456761	 0.11671
H	-0.9165719362	-0.437989429	 0.1036591232	 0.115077
H	 3.4964530856	-2.0269952947	-0.1674753872	 0.148806
H	 3.9924018511	-0.383703632	-0.5236733718	 0.14774
H	 2.7989425496	-0.6785114641	 0.7569349579	 0.122317
H	-0.7184344975	-1.2612706432	-2.5168735391	 0.128629
H	-0.1816634514	 0.3725646148	-2.9470579936	 0.130748
38.6083	78.2585	110.3486	195.1263	204.9315	248.8604	262.3311	309.008	340.1005	504.9945	575.478	590.8765	659.1946	758.3657	770.0876	791.6925	883.767	964.7379	996.9618	1020.4474	1061.1097	1070.2385	1086.5563	1091.8951	1142.412	1196.2824	1205.5377	1291.6746	1334.9255	1356.5736	1374.7804	1411.11	1418.9793	1473.116	1478.4445	1489.1446	1495.7228	1499.5395	1508.3706	1733.8902	1862.4062	3015.4293	3021.0566	3039.896	3042.0301	3048.9389	3076.9229	3093.5038	3115.1739	3118.4249	3125.7159
CCC1=C(C)C(=O)OC1	CCC1=C(C)C(=O)OC1	
InChI=1S/C7H10O2/c1-3-6-4-9-7(8)5(6)2/h3-4H2,1-2H3	InChI=1S/C7H10O2/c1-3-6-4-9-7(8)5(6)2/h3-4H2,1-2H3
