16
gdb 50118	5.07121	1.00705	0.95856	1.1562	77.49	-0.2465	-0.0403	0.2062	1216.0201	0.122203	-400.671184	-400.662798	-400.661854	-400.704644	31.018	
O	-0.6475877308	 0.7993133271	-0.4810002238	-0.23848
C	 0.2212841121	 0.9486152316	 0.3410071376	 0.142705
C	 1.3374238376	 1.9584762957	 0.2332122381	-0.027262
C	 1.2815173917	 3.0348311466	-0.8682699714	-0.327766
C	 1.2241439439	 4.0710640141	 0.2640599527	 0.177093
C	 0.0904949738	 3.7749102599	 1.1696307146	-0.275232
N	 1.3207407473	 2.9803709455	 1.3609500858	-0.191059
C	 1.9726191353	 5.2819524178	 0.2996498603	 0.194197
C	 2.6017232239	 6.3073190064	 0.2860493178	-0.389273
H	 0.241687691	 0.3508356864	 1.2798785612	 0.093024
H	 2.29460514	 1.4288161127	 0.2813633568	 0.112397
H	 2.1977844396	 3.0936197734	-1.4548734644	 0.127564
H	 0.4170908302	 3.0056960185	-1.534550763	 0.132242
H	-0.0778555309	 4.466286652	 1.9881973218	 0.1389
H	-0.8067927429	 3.3085701	 0.7679140793	 0.136171
H	 3.1567036584	 7.2127616022	 0.2854394566	 0.194781
55.301	105.1988	133.5394	219.1394	240.6457	345.1389	437.9566	513.5636	541.6572	588.1811	606.388	626.0335	663.1222	701.8496	772.7019	825.0081	864.2884	948.6816	962.3241	1001.7484	1056.3858	1091.923	1116.4008	1146.0296	1158.9982	1222.8127	1244.6052	1269.9884	1344.9727	1374.243	1414.0765	1485.858	1503.9297	1822.7954	2235.4015	2886.8398	3056.7265	3084.7858	3110.0523	3147.7516	3211.8775	3502.0307
O=CC1CC2(CN12)C#C	O=C[C@H]1C[C@]2(CN12)C#C	
InChI=1S/C7H7NO/c1-2-7-3-6(4-9)8(7)5-7/h1,4,6H,3,5H2	InChI=1S/C7H7NO/c1-2-7-3-6(4-9)8(7)5-7/h1,4,6H,3,5H2/t6-,7+,8?/m1/s1
