15
gdb 28974	2.99988	1.51208	1.00593	4.1713	83.94	-0.2205	-0.0409	0.1796	1103.7303	0.115662	-379.762421	-379.754917	-379.753973	-379.79419	29.205	
N	-0.0144895232	 1.3914899196	-0.1309054744	-0.607496
C	-0.0001210094	 0.0186005327	-0.0506141234	 0.271498
C	-1.1939979754	-0.7208249656	-0.0297750116	-0.167731
C	-1.1716714836	-2.1058807159	-0.0035292032	-0.096559
C	 0.0366406671	-2.8091650767	 0.0031154796	-0.133083
C	 1.2256805707	-2.0999540776	-0.0129096346	-0.185085
C	 1.2222249994	-0.6977639871	-0.0361243189	 0.121785
C	 2.4438852869	 0.0350369041	-0.0354657151	 0.205225
N	 3.4069279682	 0.6811875174	-0.0263255148	-0.359529
H	 0.8394892323	 1.8792283418	 0.094221962	 0.272146
H	-0.8552178869	 1.8612477552	 0.1626611277	 0.256783
H	-2.1404073638	-0.189255278	-0.0402170437	 0.093521
H	-2.1115181181	-2.6481254932	 0.0122564197	 0.106539
H	 0.0451916189	-3.892120277	 0.0222192601	 0.10382
H	 2.1794175766	-2.6150654799	-0.0028031894	 0.118166
131.6006	145.5288	230.7787	373.3181	382.9482	404.1181	452.1242	471.7425	516.8121	564.5319	592.6294	610.8617	738.4768	763.2119	772.2166	858.4465	870.6166	945.0921	971.5116	1046.6285	1076.5039	1158.3487	1187.3092	1215.7387	1294.5757	1345.9016	1357.5065	1489.9638	1524.2101	1604.6574	1642.9281	1663.3317	2324.8979	3169.8736	3186.0891	3195.1248	3211.4097	3582.43	3695.8916
NC1=CC=CC=C1C#N	Nc1ccccc1C#N	
InChI=1S/C7H6N2/c8-5-6-3-1-2-4-7(6)9/h1-4H,9H2	InChI=1S/C7H6N2/c8-5-6-3-1-2-4-7(6)9/h1-4H,9H2
