17
gdb 53475	6.46521	0.59736	0.55379	2.4367	84.55	-0.2429	-0.0175	0.2255	1956.4341	0.13065	-384.647368	-384.636534	-384.63559	-384.686102	36.255	
C	 0.2565224032	 1.5339936639	-0.0094367901	-0.498777
C	 0.1233480649	 0.0849880323	 0.0030600572	 0.131579
C	 0.0052051631	-1.1118350412	 0.0138055571	 0.047162
C	-0.1465639152	-2.555547526	 0.0251262186	-0.486289
C	-1.6049186862	-3.0477830886	 0.0356090457	 0.384835
O	-2.5460098751	-2.3289115547	 0.2234588943	-0.253184
C	-1.7378813793	-4.5618362687	-0.222552805	-0.481859
C	-3.0559790291	-5.1063107026	 0.0482829194	 0.31949
C	-4.1430310189	-5.5628343641	 0.2738488193	-0.418265
H	 0.8588405365	 1.8864298188	 0.8350730367	 0.147844
H	 0.7381843354	 1.8827171392	-0.9295451862	 0.147251
H	-0.7237913942	 2.0182387631	 0.0567391755	 0.155778
H	 0.3666424753	-3.0171292666	-0.8303012317	 0.14334
H	 0.3356982617	-2.9926683121	 0.912917831	 0.154239
H	-1.4621279602	-4.7275054798	-1.2745364719	 0.159119
H	-0.9694354467	-5.0864971001	 0.3609517005	 0.147709
H	-5.1073399153	-5.9583435328	 0.4764329596	 0.200029
21.4293	33.1879	44.8374	70.1674	143.0557	203.2986	262.6691	297.9338	321.9822	370.9378	397.5277	423.5265	451.0609	626.979	645.536	694.0425	773.306	785.1215	871.7729	960.3717	988.4043	1049.9358	1053.0565	1055.7612	1176.7508	1183.3302	1253.2321	1320.4829	1346.3985	1414.4193	1434.5823	1445.2867	1477.7265	1478.048	1846.1113	2250.6115	2383.7903	2997.8844	3009.6848	3027.6045	3028.0031	3041.9673	3088.3924	3091.164	3507.4142
CC#CCC(=O)CC#C	CC#CCC(=O)CC#C	
InChI=1S/C8H8O/c1-3-5-7-8(9)6-4-2/h2H,6-7H2,1H3	InChI=1S/C8H8O/c1-3-5-7-8(9)6-4-2/h2H,6-7H2,1H3
