18
gdb 19416	4.02565	1.97528	1.61463	0.2394	77.76	-0.2137	0.0223	0.236	850.1139	0.155635	-310.652374	-310.645811	-310.644866	-310.682678	27.238	
C	 0.0158142076	 1.5361956391	-0.0056063513	-0.309422
C	 1.3073414736	 0.7647135104	-0.0018685273	-0.321844
C	-0.0133947004	 0.0209107329	-0.0045794976	 0.370788
C	-0.4678746154	-0.7610955085	 1.180674559	-0.16015
C	-1.0319601011	-1.9190557511	 0.8204085284	-0.093842
C	-1.0951546184	-2.057020899	-0.6648363499	-0.084596
C	-1.9447227232	-1.0211571099	-1.3792175314	-0.285485
C	-0.4658057687	-0.7806029484	-1.2060849295	-0.130871
H	-0.2775502553	 2.0510928246	 0.9033921364	 0.110832
H	-0.2806864239	 2.040748678	-0.9190265378	 0.114688
H	 1.892276224	 0.7413885165	-0.9161153311	 0.112307
H	 1.8996693562	 0.7505489854	 0.9070330274	 0.111438
H	-0.3608701441	-0.393122555	 2.1952592545	 0.090678
H	-1.4344281092	-2.6612656753	 1.4998290049	 0.092562
H	-0.9467172579	-3.0241945546	-1.1327352941	 0.083982
H	-2.2868494163	-1.2611406525	-2.3808303827	 0.105367
H	-2.6428094852	-0.4412996445	-0.7842873004	 0.111622
H	 0.1639578376	-0.7959766881	-2.0886248175	 0.081946
143.1124	230.2868	289.9738	371.5738	414.2299	513.7467	603.1692	719.2255	759.4528	776.117	780.6731	801.111	853.3321	888.649	908.832	923.833	950.9209	961.7418	993.7551	1000.6375	1043.1743	1056.6806	1069.1743	1073.771	1082.381	1095.8238	1125.5417	1190.1882	1196.6704	1273.0343	1283.5328	1337.4096	1364.1403	1412.1062	1463.9437	1476.3696	1497.5083	1654.3782	3122.8549	3123.2522	3128.598	3161.3549	3169.6978	3184.3431	3203.0258	3209.5935	3213.6835	3219.1738
C1CC11C=CC2CC12	C1CC21C=C[C@H]1C[C@@H]21	
InChI=1S/C8H10/c1-2-8(3-4-8)7-5-6(1)7/h1-2,6-7H,3-5H2	InChI=1S/C8H10/c1-2-8(3-4-8)7-5-6(1)7/h1-2,6-7H,3-5H2/t6-,7+/m0/s1
