20
gdb 79894	3.99704	1.35792	1.18358	2.4417	79.33	-0.2264	0.0861	0.3124	1098.762	0.173115	-403.073027	-403.065466	-403.064522	-403.104907	29.905	
C	-0.2070412353	 1.5992712008	 0.0751992103	-0.446402
C	 0.0065495599	 0.0998613795	-0.0161843115	 0.098705
C	 0.8232736595	-0.5975943786	-1.1302229401	-0.107213
C	 2.0738537745	-0.06877957	-0.3922087388	 0.013982
C	 3.3949836881	-0.8054991889	-0.5147325362	-0.103611
O	 3.3363772215	-2.1353314149	-0.0432092013	-0.244971
C	 2.0735973265	-2.7476382339	-0.2027352391	-0.10741
C	 0.9227790268	-1.7635523802	-0.121076063	 0.021186
N	 1.1725593153	-0.5297694201	 0.7852066443	-0.178709
H	 0.6513398387	 2.1960140232	-0.2405470219	 0.122194
H	-1.0581990345	 1.8853388233	-0.5518296882	 0.121034
H	-0.4463456368	 1.8754464836	 1.1073094946	 0.134
H	-0.9315671199	-0.4105928645	 0.2337803441	 0.069555
H	 0.6299606186	-0.6410427398	-2.2094928083	 0.057946
H	 2.2481963725	 1.008048974	-0.4127090127	 0.071336
H	 3.7236916866	-0.7669245571	-1.569182594	 0.088107
H	 4.16208644	-0.3045723236	 0.0860150205	 0.114658
H	 2.0085871303	-3.2899670425	-1.1632504368	 0.088598
H	 1.9917701314	-3.4894889255	 0.5992385462	 0.115337
H	-0.0140126839	-2.2790467848	 0.116751832	 0.071677
116.4858	168.0253	210.0321	252.7535	272.8929	386.4871	458.7005	542.7661	604.0459	725.2095	749.4546	773.0423	795.7522	833.6723	858.5792	900.1595	991.7923	998.6548	1023.8972	1036.0683	1053.7218	1081.0558	1086.5099	1136.2292	1144.9644	1168.0912	1184.4477	1203.1027	1228.9195	1235.7883	1254.4531	1276.6318	1312.2624	1358.4122	1386.1998	1400.6947	1416.3295	1431.1907	1453.7559	1495.1177	1497.9407	1499.8928	1510.1872	2940.9343	2948.9257	3019.1924	3028.6041	3041.3695	3049.1299	3058.1143	3064.7069	3096.9906	3102.5448	3123.9812
CC1C2C3COCC2N13	C[C@H]1[C@H]2[C@@H]3COC[C@H]2N13	
InChI=1S/C7H11NO/c1-4-7-5-2-9-3-6(7)8(4)5/h4-7H,2-3H2,1H3	InChI=1S/C7H11NO/c1-4-7-5-2-9-3-6(7)8(4)5/h4-7H,2-3H2,1H3/t4-,5-,6+,7-/m0/s1
