18
gdb 62079	3.14602	0.85956	0.7065	1.2881	70.8	-0.2544	-0.0384	0.216	1543.0569	0.145204	-476.268253	-476.258135	-476.257191	-476.304909	34.977	
C	-0.0587456138	 1.3948419602	 0.3494342561	-0.483734
C	-0.0751664923	-0.0478916746	-0.0899980538	 0.364199
O	 0.8734777197	-0.5859441277	-0.6217398423	-0.315347
C	-1.3408636534	-0.8748462525	 0.1519059468	 0.028943
O	-1.1751672155	-2.1670677287	-0.3727579842	-0.446023
C	-1.6812938869	-0.967766462	 1.6521688905	-0.176791
N	-2.8164137401	-1.8429586108	 1.8524477278	-0.270899
C	-3.9709886288	-1.4307884138	 2.4397411569	 0.153668
O	-4.1593469558	-0.3316353113	 2.9186664364	-0.325912
H	 0.7962560197	 1.9067379833	-0.0934928138	 0.153695
H	-0.9895926123	 1.9021347356	 0.0783462001	 0.150889
H	 0.0264317734	 1.4450389346	 1.4415304338	 0.162606
H	-2.1776118687	-0.3695503722	-0.3577758806	 0.102957
H	-0.2623556418	-2.1874225111	-0.7076660877	 0.295983
H	-0.8059496413	-1.3525192607	 2.1916304875	 0.116071
H	-1.9531571827	 0.0046709376	 2.0679268523	 0.14684
H	-2.7762641108	-2.7492918887	 1.4121233104	 0.263128
H	-4.7367734988	-2.2306585672	 2.4420301838	 0.079728
35.7605	66.895	75.5239	124.6087	151.9057	223.6352	264.3005	317.1113	371.7961	403.6002	470.3709	488.3695	574.1147	599.7954	636.5436	757.4685	838.5907	931.8789	957.4164	978.8126	1032.4536	1048.8662	1099.0063	1144.2893	1205.0048	1213.5192	1264.2363	1272.0703	1339.7486	1386.4616	1391.6449	1427.6281	1436.5502	1462.1414	1474.7912	1483.7381	1526.8395	1796.2364	1801.6979	2946.4201	2978.1999	3022.4483	3041.2211	3104.6853	3124.3888	3155.793	3633.92	3654.5658
CC(=O)C(O)CNC=O	CC(=O)[C@@H](O)CNC=O	
InChI=1S/C5H9NO3/c1-4(8)5(9)2-6-3-7/h3,5,9H,2H2,1H3,(H,6,7)	InChI=1S/C5H9NO3/c1-4(8)5(9)2-6-3-7/h3,5,9H,2H2,1H3,(H,6,7)/t5-/m0/s1
