14
gdb 20633	4.03416	1.87911	1.29217	0.1064	69.76	-0.2327	-0.0665	0.1662	897.8873	0.108498	-374.890167	-374.883202	-374.882257	-374.921353	25.929	
C	 0.0230483196	 1.480410204	 0.0091246609	-0.457632
C	-0.056211434	-0.0149978194	 0.036669702	 0.368107
C	-1.1964292943	-0.7184664844	-0.1372104697	-0.214088
C	-1.1765097711	-2.163868932	-0.0954847522	 0.426796
N	-2.2121252321	-2.8985928119	-0.250991475	-0.550692
N	 0.131931478	-2.6270366808	 0.1378767343	-0.303229
N	 1.250705104	-1.8993205792	 0.308294996	-0.039893
N	 1.1820357499	-0.6360606943	 0.2630454518	-0.260482
H	 0.7139758862	 1.8077308326	-0.7748305807	 0.14974
H	-0.9557639444	 1.9298400076	-0.1685132338	 0.130015
H	 0.421592593	 1.855072536	 0.9577014075	 0.149729
H	-2.1527968134	-0.2408229882	-0.3114588669	 0.127413
H	-1.9915734417	-3.8935627375	-0.1872639021	 0.203336
H	 0.3054997003	-3.6210961625	 0.1938674778	 0.27088
128.5155	152.9965	186.5593	303.6683	407.2187	449.364	532.5925	560.3738	587.5725	667.3875	757.0181	766.0222	803.1467	916.5169	928.7183	993.5546	1043.9468	1068.6023	1096.9544	1130.1646	1204.5607	1299.8801	1349.1076	1413.5511	1421.1873	1470.3648	1481.1009	1553.7295	1656.1145	1734.1639	3042.143	3099.9571	3137.3019	3213.2328	3463.2501	3604.7778
CC1=CC(=N)NN=N1	Cc1cc([NH])[nH]nn1	
InChI=1S/C4H6N4/c1-3-2-4(5)7-8-6-3/h2H,1H3,(H2,5,6,7)	InChI=1S/C4H11N4/c1-3-2-4(5)7-8-6-3/h3-8H,2H2,1H3
