15
gdb 20380	4.72852	2.00128	1.44976	3.5441	66.41	-0.2388	-0.0055	0.2333	827.7506	0.122199	-362.665741	-362.659688	-362.658744	-362.696014	23.287	
C	 0.027308579	 1.5170985722	-0.0723970863	-0.200009
C	 1.5359205836	 1.9241745524	 0.054560418	-0.354306
C	 2.0928337018	 0.6761487627	 0.6513576391	 0.393163
C	 1.2599550366	-0.3915563889	 0.6502162111	 0.173296
C	-0.0631337539	-0.0486789353	 0.0295610437	-0.355846
C	 2.0583779652	-1.4162659498	 1.2168434569	-0.129313
N	 3.2609534634	-0.9814571712	 1.5315036446	-0.144969
O	 3.287375328	 0.379068702	 1.1591756136	-0.229373
H	-0.5268831789	 1.9592033508	 0.7600702672	 0.119445
H	-0.4207538949	 1.8956323105	-0.9937017822	 0.109683
H	 1.9922956892	 2.135976244	-0.9204317367	 0.128467
H	 1.6785997532	 2.8140442323	 0.6746503851	 0.128362
H	-0.9295980299	-0.3591267584	 0.6215054624	 0.11525
H	-0.1771712864	-0.508461113	-0.9599606626	 0.11624
H	 1.8251739042	-2.4520351803	 1.422285446	 0.129912
118.1528	228.3782	250.9398	416.1913	565.8713	635.9463	658.7084	710.7026	722.1591	827.8167	868.5401	895.4601	902.2886	915.4812	975.6243	991.0114	1060.2395	1121.0737	1159.075	1197.7895	1217.9886	1222.4354	1284.1606	1296.3473	1331.6521	1367.7252	1418.5549	1482.7212	1492.1665	1508.4685	1510.1495	1656.7463	3027.9183	3031.5518	3061.2159	3074.0848	3082.0594	3114.7337	3236.9516
C1CC2=C(C1)C=NO2	C1Cc2c(C1)cno2	
InChI=1S/C6H7NO/c1-2-5-4-7-8-6(5)3-1/h4H,1-3H2	InChI=1S/C6H7NO/c1-2-5-4-7-8-6(5)3-1/h4H,1-3H2
