16
gdb 7484	4.13461	1.32567	1.21996	3.0137	61.57	-0.2676	-0.0036	0.2641	1011.1921	0.128559	-420.874261	-420.866173	-420.865229	-420.907098	28.607	
C	-0.0441991937	 1.6611717937	 0.0893066743	-0.441354
C	-0.0189076945	 0.1441722778	 0.0063322538	 0.332861
C	 1.1027484695	-0.4721920415	-0.8698941107	-0.118742
O	 1.8445456436	-0.8489006579	 0.3038729069	-0.268842
C	 0.7164126703	-0.5649032896	 1.1585133204	-0.112007
O	-1.3433637399	-0.380987323	-0.1667834984	-0.227206
C	-1.900037782	-0.293040966	-1.3898581526	 0.158424
O	-3.0116440022	-0.6638919467	-1.6198575488	-0.271061
H	 0.9592071059	 2.0413393683	 0.3009545006	 0.140049
H	-0.3868273207	 2.1063491319	-0.8503897269	 0.126967
H	-0.7178329301	 1.9839299548	 0.8885858021	 0.140999
H	 0.77628741	-1.3450333659	-1.4507465124	 0.110624
H	 1.6641767216	 0.2119886074	-1.5154613156	 0.113233
H	 0.9933063052	 0.0479453281	 2.0224914917	 0.11239
H	 0.2034581011	-1.4748898018	 1.491613868	 0.120809
H	-1.2235905942	 0.1443405604	-2.1489834526	 0.082856
88.3339	108.6924	165.4116	181.9101	262.051	316.5576	351.6608	405.4422	471.2896	524.9801	762.4485	839.3632	915.8426	934.3459	967.1702	991.9299	1014.3117	1035.7787	1045.4817	1154.4383	1161.8636	1170.6926	1216.2803	1228.1275	1274.0113	1308.2325	1381.3324	1412.857	1434.9575	1488.4286	1491.5567	1504.2408	1528.6969	1865.5071	2951.9668	3010.7315	3030.4758	3040.3177	3071.3941	3085.4294	3112.6465	3123.7466
CC1(COC1)OC=O	CC1(COC1)OC=O	
InChI=1S/C5H8O3/c1-5(8-4-6)2-7-3-5/h4H,2-3H2,1H3	InChI=1S/C5H8O3/c1-5(8-4-6)2-7-3-5/h4H,2-3H2,1H3
