17
gdb 40463	4.08846	1.3309	1.24995	0.7158	70.92	-0.2353	0.0597	0.295	1028.948	0.135861	-421.727279	-421.720206	-421.719262	-421.759242	27.863	
C	 0.1754597276	 1.4052874544	-0.0037443423	-0.172937
O	 1.1331848018	 0.3994241796	-0.3340637809	-0.231445
C	-0.2037660305	-0.0140083759	-0.0414364574	-0.087548
C	-0.3772794549	-0.8065784729	 1.2043645054	 0.47117
C	 0.367411244	-0.5268525197	 2.5375055917	-0.277756
C	-0.0101241232	-1.963444666	 2.8960221927	-0.127705
C	-1.3787304676	-2.1804062569	 2.2246635864	 0.099849
O	-1.7721158095	-0.9482073028	 1.6187725292	-0.339962
C	-0.1369650932	-2.3568004827	 1.4276794185	-0.208309
H	 0.3255905325	 1.8961083683	 0.9557034048	 0.121743
H	-0.122705275	 2.056392854	-0.8235749726	 0.121606
H	-0.7682759563	-0.377559775	-0.8999187714	 0.102753
H	 1.4416754065	-0.419109476	 2.3752441071	 0.121877
H	-0.0255107482	 0.2938587803	 3.146376638	 0.097737
H	 0.3404254153	-2.5708805573	 3.7201430415	 0.095017
H	-2.1412852274	-2.8691716926	 2.5620251282	 0.109319
H	 0.2800756979	-3.1541992188	 0.8292779312	 0.104592
57.929	173.2427	180.4964	359.1452	402.6163	497.8102	544.2695	631.2129	761.8662	766.4885	790.0644	813.6939	870.8715	876.1918	895.7318	937.1002	949.4085	968.1798	998.0872	1023.8574	1035.6081	1056.6779	1065.6214	1079.6665	1105.1574	1150.8643	1155.0509	1170.0027	1174.4223	1235.8192	1267.6061	1281.191	1334.5675	1357.8453	1453.5655	1491.4854	1524.1117	3048.4062	3091.823	3115.9184	3125.6749	3181.9694	3202.0916	3208.3909	3224.2141
C1OC1C12CC3C(O1)C23	C1O[C@H]1[C@@]12C[C@H]3[C@@H](O1)[C@@H]23	
InChI=1S/C7H8O2/c1-3-5-6(3)9-7(1,5)4-2-8-4/h3-6H,1-2H2	InChI=1S/C7H8O2/c1-3-5-6(3)9-7(1,5)4-2-8-4/h3-6H,1-2H2/t3-,4-,5+,6-,7-/m1/s1
