21
gdb 33187	5.16894	0.66651	0.6475	3.3842	85.89	-0.213	0.0369	0.2499	1819.5661	0.184144	-383.324199	-383.314838	-383.313894	-383.359895	33.982	
C	 0.1754148283	 1.5224306086	 0.2232421792	-0.382235
C	-0.0452001673	 0.0279310067	-0.0252052626	-0.162246
C	 0.774039195	-0.5113137129	-1.201661509	-0.153397
C	 0.5477044636	-2.0149876944	-1.454670206	-0.314814
C	 1.3166690157	-2.5414621488	-2.6238789797	 0.343319
N	 0.8829601095	-2.6196785852	-3.8648637633	-0.298186
C	 1.9354400226	-3.1132778946	-4.6018312552	-0.087815
C	 3.0219051835	-3.3378619396	-3.8014652864	-0.115087
N	 2.6145004614	-2.9670360327	-2.5372263594	-0.274026
H	 1.227018164	 1.7362643928	 0.444951649	 0.11219
H	-0.1027075052	 2.1141616335	-0.6557412476	 0.117906
H	-0.4219480586	 1.8795244939	 1.0679058797	 0.112187
H	 0.2064557173	-0.5366830714	 0.8829103188	 0.090928
H	-1.1105425191	-0.1605208728	-0.2122427292	 0.099954
H	 0.5205705198	 0.0382569107	-2.1162605353	 0.11567
H	 1.8419629427	-0.3274316809	-1.0208163797	 0.085864
H	 0.805035205	-2.5815444669	-0.5497616746	 0.094135
H	-0.5132742326	-2.1946521287	-1.6524906882	 0.130479
H	 1.8474752305	-3.2828233411	-5.6642643043	 0.102601
H	 4.0103986988	-3.7198738692	-3.9945813109	 0.122397
H	 3.1701778154	-3.0120546572	-1.6997494153	 0.260178
30.4354	79.7565	88.6232	121.8072	234.848	246.1383	318.5352	346.4592	421.0801	533.0847	646.8717	704.5799	722.9242	735.6373	773.0076	791.9139	854.5981	909.4268	926.3606	930.1248	986.5136	1012.8863	1061.7973	1082.5841	1108.9464	1122.1197	1139.5684	1190.4885	1231.2327	1271.7849	1283.9995	1320.0977	1330.7659	1360.4291	1393.5259	1396.1027	1415.4555	1463.018	1475.2215	1486.2334	1498.7009	1500.5239	1510.8051	1512.6859	1590.8853	3010.2499	3015.6804	3021.7365	3030.2851	3040.1255	3064.7049	3093.0904	3097.8711	3102.5315	3247.1514	3279.8584	3663.9349
CCCCC1=NC=CN1	CCCCc1ncc[nH]1	
InChI=1S/C7H12N2/c1-2-3-4-7-8-5-6-9-7/h5-6H,2-4H2,1H3,(H,8,9)	InChI=1S/C7H12N2/c1-2-3-4-7-8-5-6-9-7/h5-6H,2-4H2,1H3,(H,8,9)
