21
gdb 59447	2.95833	1.08847	0.89891	3.4171	80.57	-0.2444	-0.024	0.2204	1380.024	0.180187	-424.241406	-424.231225	-424.230281	-424.277203	37.248	
C	-0.0550825778	 1.6879648267	 0.1310416969	-0.388178
C	-0.0326840502	 0.1767976704	-0.0793913887	 0.119812
O	 0.568407073	-0.0667772012	-1.3412763732	-0.447351
C	 0.7249382852	-0.5048595287	 1.0605459578	-0.014743
C	-0.0106540352	-1.2703223612	 2.110580829	-0.2953
C	 0.9200758077	-2.012636337	 1.1482099824	-0.123676
C	 0.3454272847	-2.9752678207	 0.1674571407	 0.382197
C	 0.9073399097	-4.383229419	 0.2244888194	-0.477771
O	-0.5228792536	-2.677002817	-0.633735584	-0.343919
H	 0.9628325228	 2.0902401542	 0.0936872862	 0.119486
H	-0.6387758382	 2.1679566824	-0.6583997643	 0.121138
H	-0.4948179002	 1.9426233135	 1.1002505617	 0.110205
H	-1.0625753063	-0.2012475756	-0.0821805806	 0.078583
H	 0.3095405111	-0.9660462659	-1.5766868785	 0.292564
H	 1.6009457698	 0.0477138185	 1.3927850595	 0.09089
H	 0.2933540711	-1.2138447717	 3.149704623	 0.120698
H	-1.0739234625	-1.4206756649	 1.9519370135	 0.13359
H	 1.8569277777	-2.3391696877	 1.5887148088	 0.090767
H	 0.8296868265	-4.7873147106	 1.2397852906	 0.142203
H	 0.3747135603	-5.0259802773	-0.4768539093	 0.142867
H	 1.9737752043	-4.3676617772	-0.0297933908	 0.145939
29.7257	89.9034	135.5354	155.6019	194.6309	231.7412	237.6535	300.8031	329.8211	381.7501	482.8282	497.6703	537.9876	603.0602	667.5472	757.4513	775.6423	856.5832	896.5393	936.2406	952.3446	973.54	995.4991	1049.9657	1059.4006	1073.9865	1119.4056	1134.1219	1148.6454	1182.5	1197.4572	1238.2987	1302.7503	1328.7773	1377.147	1398.4839	1415.703	1428.0993	1437.3551	1462.9228	1474.5329	1482.3543	1483.5918	1499.1216	1770.7893	3023.3817	3035.3584	3038.5738	3096.1352	3109.6398	3123.3761	3130.6797	3132.7921	3154.1508	3157.3198	3221.5681	3784.5807
CC(O)C1CC1C(C)=O	C[C@@H](O)[C@H]1C[C@H]1C(=O)C	
InChI=1S/C7H12O2/c1-4(8)6-3-7(6)5(2)9/h4,6-8H,3H2,1-2H3	InChI=1S/C7H12O2/c1-4(8)6-3-7(6)5(2)9/h4,6-8H,3H2,1-2H3/t4-,6-,7+/m1/s1
