24
gdb 7456	2.80855	1.30672	1.13346	1.3565	81.2	-0.2596	0.0707	0.3303	1231.1417	0.220955	-351.416435	-351.405763	-351.404819	-351.451631	39.703	
C	 0.1243001257	 1.510587783	-0.1038364702	-0.40684
C	 0.0269792317	-0.0115169491	 0.0850582834	 0.049397
C	 0.6720743453	-0.3865970225	 1.4299927112	-0.39815
C	-1.4250429863	-0.5545185573	-0.0289659431	 0.046941
C	-2.2103377865	 0.089813758	-1.1843500137	-0.437326
C	-1.4237851459	-2.1010470238	-0.1578449142	 0.136088
C	-2.7917435426	-2.7474663167	 0.073580493	-0.418186
O	-0.8566583907	-2.5256315249	-1.3981328617	-0.437391
H	 1.1559457011	 1.8459974651	 0.0458659746	 0.107792
H	-0.1804787383	 1.829402482	-1.1036433884	 0.112096
H	-0.500953623	 2.0426118539	 0.6243435827	 0.107172
H	 0.6022521184	-0.490473292	-0.7182532294	 0.087766
H	 0.133625181	 0.082517715	 2.2629575546	 0.107724
H	 0.6887577103	-1.4646145234	 1.610474998	 0.11552
H	 1.7087380533	-0.0366662383	 1.4704397895	 0.110033
H	-1.9479826052	-0.3121300409	 0.9085164402	 0.061084
H	-1.6801959124	-0.0236044898	-2.1370739276	 0.114517
H	-3.2044080057	-0.3543900226	-1.295260857	 0.108572
H	-2.3586303856	 1.1592070957	-1.0210528839	 0.122203
H	-0.7396500636	-2.507428216	 0.5931292379	 0.084962
H	-3.5284141921	-2.4265673987	-0.6716790921	 0.109658
H	-2.7032014216	-3.8354036707	 0.0073748954	 0.122623
H	-3.1862367394	-2.4917628232	 1.0624987053	 0.115182
H	-1.4839308778	-2.309857893	-2.0961667943	 0.278562
49.8135	71.6667	197.8165	212.4173	219.1418	234.3961	261.3048	264.0846	306.0034	319.2239	359.1735	407.2471	417.2659	440.4908	495.7821	619.1202	762.9987	820.0696	905.9081	929.3522	934.7283	961.7733	980.1552	997.8357	1038.7889	1061.7416	1097.3051	1117.2064	1181.9172	1187.5857	1199.9968	1276.7094	1296.0016	1344.2029	1352.5361	1363.3051	1382.3629	1400.0941	1404.4361	1407.9528	1421.8668	1426.8746	1486.1659	1489.8333	1491.9869	1498.2812	1505.2147	1510.398	1511.0584	1521.957	2990.9722	3021.6197	3023.7032	3030.5584	3032.2508	3036.6368	3064.021	3085.0917	3093.1535	3094.8755	3102.1492	3110.3024	3111.7902	3115.3417	3122.347	3809.7076
CC(C)C(C)C(C)O	CC(C)[C@@H](C)[C@@H](C)O	
InChI=1S/C7H16O/c1-5(2)6(3)7(4)8/h5-8H,1-4H3	InChI=1S/C7H16O/c1-5(2)6(3)7(4)8/h5-8H,1-4H3/t6-,7-/m1/s1
