17
gdb 33118	4.4853	0.79822	0.71023	2.6427	71.	-0.2027	0.0487	0.2515	1535.6214	0.136901	-455.18429	-455.175421	-455.174477	-455.218573	32.477	
O	 0.1324422739	 1.411131969	 0.0710713107	-0.419321
C	 0.0675884498	-0.0045845612	 0.1405552802	-0.052776
C	-1.3605643199	-0.541792796	-0.0491553737	-0.323283
C	-1.4242637404	-2.0330118963	 0.0103197395	 0.279389
C	-1.9925652481	-2.8302661915	 0.9618545106	-0.202158
N	-1.7437990966	-4.1388786395	 0.5525105246	-0.297549
C	-1.0495865898	-4.0472950617	-0.6068112045	 0.443116
O	-0.6682710403	-5.1658988755	-1.2467698696	-0.42503
N	-0.8289487833	-2.8158714607	-0.9773963081	-0.412302
H	-0.1011106071	 1.6698029261	-0.8261017646	 0.27986
H	 0.7353301138	-0.4808750472	-0.5913134672	 0.105394
H	 0.4313312529	-0.2727398963	 1.1379207887	 0.108749
H	-2.0097050674	-0.1039509561	 0.7161348356	 0.105135
H	-1.7336810669	-0.1992297544	-1.0244847474	 0.097769
H	-2.5380925061	-2.6121579755	 1.8641708254	 0.12702
H	-2.0306396102	-4.9893344514	 1.005189609	 0.271774
H	-0.1966584946	-4.875048372	-2.0373254692	 0.314213
57.0182	93.4039	103.301	258.1469	299.7173	302.8093	354.8078	371.3237	406.4486	463.6292	477.1187	654.0313	677.8409	710.7834	736.9942	787.9617	796.8878	997.4571	1014.4649	1031.3174	1050.877	1072.6349	1098.9539	1153.3116	1192.8269	1253.8558	1291.3685	1311.5931	1329.6423	1379.0426	1395.1929	1413.3589	1474.6798	1512.2653	1565.518	1615.6996	1627.5181	3007.0995	3010.8377	3070.0218	3089.6028	3279.2476	3679.3082	3807.0798	3815.6871
OCCC1=CNC(O)=N1	OCCc1c[nH]c(O)n1	
InChI=1S/C5H8N2O2/c8-2-1-4-3-6-5(9)7-4/h3,8H,1-2H2,(H2,6,7,9)	InChI=1S/C5H8N2O2/c8-2-1-4-3-6-5(9)7-4/h3,8H,1-2H2,(H2,6,7,9)
