17
gdb 32879	6.35772	0.80286	0.71996	3.1847	72.32	-0.1916	0.0369	0.2285	1528.6383	0.13628	-455.17287	-455.163881	-455.162937	-455.207994	31.964	
C	-0.0109755594	 1.3243822646	-0.0068452892	-0.22712
O	-0.0167155598	-0.0830889097	-0.0792702771	-0.249463
C	-1.3154241053	-0.6339661477	-0.0114168244	-0.165934
C	-1.1859782084	-2.1236341291	-0.0328126306	 0.338368
N	-2.175987429	-2.9922711824	-0.1428026031	-0.407411
C	-1.5768585443	-4.2191191888	-0.0890759761	 0.335894
O	-2.3003946116	-5.3581418041	-0.1740824644	-0.440218
C	-0.2169150216	-4.1121393792	 0.0519623949	-0.214251
N	 0.007859229	-2.7432011898	 0.0896226649	-0.257231
H	 1.0302160265	 1.6494196362	-0.0641156671	 0.131457
H	-0.5719007479	 1.7747285382	-0.8397378007	 0.113539
H	-0.4470703181	 1.6838120148	 0.9378175258	 0.112174
H	-1.8273426261	-0.3059311075	 0.9096944098	 0.113783
H	-1.9372840007	-0.2996316208	-0.8572469798	 0.119072
H	-3.2197553157	-5.082301367	-0.2701078294	 0.298401
H	 0.5725258294	-4.8383412442	 0.1192117954	 0.126225
H	 0.887866253	-2.2615243834	 0.163254761	 0.272718
23.0059	70.5208	135.3553	208.3471	223.603	334.1613	342.9233	354.5177	368.017	493.9076	565.0001	643.4435	680.9456	697.0564	727.9171	774.0609	986.4591	1016.9696	1036.0358	1045.7277	1104.2048	1157.1669	1178.6989	1184.4106	1226.7203	1232.5503	1293.3792	1317.911	1385.6975	1431.207	1478.516	1485.3081	1499.8486	1507.8928	1523.4643	1573.4919	1660.3427	2954.5777	2979.3705	2988.8071	3027.1895	3120.4033	3297.5106	3677.3366	3806.1366
COCC1=NC(O)=CN1	COCc1nc(O)c[nH]1	
InChI=1S/C5H8N2O2/c1-9-3-4-6-2-5(8)7-4/h2,8H,3H2,1H3,(H,6,7)	InChI=1S/C5H8N2O2/c1-9-3-4-6-2-5(8)7-4/h2,8H,3H2,1H3,(H,6,7)
