19
gdb 103730	2.13995	1.43155	1.00275	2.0491	73.03	-0.2505	-0.0327	0.2178	1212.2759	0.155515	-460.151779	-460.141609	-460.140665	-460.186374	37.235	
C	-0.0596594015	 1.5231116263	 0.1055346365	-0.466684
C	-0.0029899187	 0.0072709988	 0.0444123745	 0.23307
C	-1.2964676485	-0.6314296928	-0.4414116626	-0.152281
O	-1.6174571793	-0.2031913996	-1.7612834671	-0.41443
C	 1.2989698922	-0.6486616996	-0.3183200901	-0.355012
C	 0.8483910906	-0.6887930866	 1.1288680433	 0.22719
O	 1.5692470379	 0.1132338364	 2.0222542948	-0.45755
C	 0.4653582717	-2.0082541777	 1.7103694297	 0.10836
O	 0.0296935339	-2.9553451701	 1.0990810775	-0.26894
H	 0.9086203606	 1.9621201949	 0.3508772321	 0.12816
H	-0.3882951402	 1.9037750791	-0.8650257968	 0.144007
H	-0.7913495517	 1.8595180973	 0.8509298009	 0.111428
H	-1.2395196395	-1.7216760369	-0.3747919509	 0.130934
H	-2.1332268654	-0.297368493	 0.1826359019	 0.106024
H	-0.9640669883	-0.5863580833	-2.3557683177	 0.285066
H	 1.2711579229	-1.6024454187	-0.8364577991	 0.132982
H	 2.1611894793	-0.0229209037	-0.5199485454	 0.131451
H	 0.9477968038	 0.6315180421	 2.5450444612	 0.292418
H	 0.6482688901	-2.0555987528	 2.8070159473	 0.083807
100.5933	117.8061	159.7811	181.9504	190.6668	248.9046	266.1665	285.1293	306.4176	346.5124	380.9433	393.2974	440.8011	540.4375	630.8558	709.3999	750.7413	857.1141	936.7753	944.1328	965.1148	990.6476	1037.291	1053.437	1080.9214	1094.1508	1137.5994	1205.7766	1234.7977	1283.7593	1328.536	1359.9407	1396.7035	1413.1224	1417.0522	1423.6697	1464.7071	1491.6238	1507.4411	1513.8612	1805.0141	2890.0162	3029.2112	3042.1452	3096.4275	3101.9336	3128.4505	3140.6564	3225.9026	3801.2311	3813.7487
CC1(CO)CC1(O)C=O	C[C@@]1(CO)C[C@]1(O)C=O	
InChI=1S/C6H10O3/c1-5(3-7)2-6(5,9)4-8/h4,7,9H,2-3H2,1H3	InChI=1S/C6H10O3/c1-5(3-7)2-6(5,9)4-8/h4,7,9H,2-3H2,1H3/t5-,6-/m0/s1
