14
gdb 24062	7.59772	0.79786	0.73877	2.5075	70.95	-0.2303	0.0011	0.2314	1440.6982	0.099948	-436.658016	-436.649903	-436.648959	-436.692369	28.533	
C	-0.0476407674	-1.1377714411	 0.162402074	-0.409329
C	 0.0218385984	 0.0502038506	 0.0061668262	 0.289865
C	 0.0716026577	 1.4861257575	-0.2001830302	-0.238474
O	 1.2942504548	 2.0023325172	 0.3738204259	-0.272888
C	 1.5119967501	 3.3020872102	 0.175494305	 0.406657
C	 2.5985166181	 4.0075948657	-0.2202836385	-0.211313
N	 2.2963258238	 5.3655270208	-0.1507957504	-0.250285
C	 1.0750630906	 5.4066991058	 0.2586662821	 0.079844
O	 0.5136875501	 4.1874778926	 0.4908203558	-0.188732
H	-0.1048286324	-2.1891224526	 0.3031463741	 0.210648
H	 0.0498998237	 1.7258609781	-1.2716519751	 0.143679
H	-0.7872011581	 1.9751198597	 0.2735343355	 0.15627
H	 3.5599252222	 3.6404784681	-0.5367055846	 0.132082
H	 0.4461126784	 6.2658132276	 0.4287478101	 0.151975
36.7987	51.0445	106.8461	207.5518	324.8974	358.6046	430.6106	487.0007	620.6904	666.4941	684.6969	694.2196	767.4556	807.0504	830.3154	929.1784	955.7822	990.9492	1020.6709	1021.2263	1110.2541	1120.9814	1241.7345	1251.0032	1280.8697	1353.4894	1397.4323	1494.8192	1561.3918	1669.3628	2252.4253	3016.9657	3064.2769	3277.9753	3282.4062	3504.6632
C#CCOC1=CN=CO1	C#CCOc1cnco1	
InChI=1S/C6H5NO2/c1-2-3-8-6-4-7-5-9-6/h1,4-5H,3H2	InChI=1S/C6H5NO2/c1-2-3-8-6-4-7-5-9-6/h1,4-5H,3H2
