18
gdb 65719	3.50541	1.18337	1.12419	3.3636	71.89	-0.2537	0.0212	0.275	1131.9444	0.146277	-439.068596	-439.059966	-439.059022	-439.101873	32.401	
C	 0.0181247347	 1.6313799413	 0.2498959314	-0.449582
C	 0.0125585705	 0.1189827365	 0.0645598574	 0.315407
C	 1.0547255311	-0.4840743075	-0.9609436175	-0.278586
C	 1.6735633163	-1.274344086	 0.1950740373	 0.032449
O	 2.0833093775	-0.3184522542	 1.1886567052	-0.245472
C	 0.7176794052	-0.7193270604	 1.1617017124	-0.029671
N	-1.3284791057	-0.4144916389	-0.1552356351	-0.338007
C	-2.040354703	-0.2193785763	-1.2975350796	 0.152756
O	-1.622797869	 0.3328837651	-2.2937939866	-0.327168
H	 1.0287327455	 1.9699256198	 0.4893529889	 0.135758
H	-0.3154275794	 2.1204983032	-0.6685374063	 0.149099
H	-0.6523157678	 1.9257971409	 1.0647295549	 0.105326
H	 0.5689918815	-1.1005781714	-1.7158841801	 0.131341
H	 1.7206989964	 0.2341987699	-1.4425197841	 0.116577
H	 2.1936261611	-2.2246705615	 0.1865426151	 0.10832
H	 0.2919035706	-1.1234394651	 2.0758739202	 0.098374
H	-1.8213507294	-0.7985003266	 0.6369365504	 0.244323
H	-3.0613455258	-0.6462096487	-1.2243163238	 0.078756
70.4632	145.884	168.242	224.3979	247.7248	268.3419	353.4155	391.0968	433.7676	513.7281	523.888	635.6433	788.7622	811.9622	836.789	864.0356	873.4718	930.1697	964.1171	990.479	1011.7737	1030.3153	1042.1503	1111.5141	1153.0667	1172.8783	1199.6318	1229.581	1255.1968	1263.3219	1289.5625	1382.8331	1403.2184	1429.5375	1467.1729	1484.9487	1498.025	1516.8879	1800.1315	2926.7667	3039.8083	3089.5486	3114.0246	3138.1861	3154.6835	3159.1702	3195.2019	3612.715
CC1(CC2OC12)NC=O	C[C@]1(C[C@H]2O[C@@H]12)NC=O	
InChI=1S/C6H9NO2/c1-6(7-3-8)2-4-5(6)9-4/h3-5H,2H2,1H3,(H,7,8)	InChI=1S/C6H9NO2/c1-6(7-3-8)2-4-5(6)9-4/h3-5H,2H2,1H3,(H,7,8)/t4-,5-,6-/m1/s1
