14
gdb 13840	4.02813	1.79458	1.39823	5.4169	58.15	-0.2366	0.0022	0.2388	851.0953	0.109569	-415.906785	-415.899921	-415.898977	-415.938379	24.985	
O	-0.2888456675	-0.0491381272	 0.6206760851	-0.366229
C	-0.1595359018	 1.147308099	 0.0341691546	 0.424463
O	 0.8805637097	 1.5523947153	-0.4106160138	-0.335292
C	-1.462129729	 1.9694258548	 0.0173742091	-0.120202
C	-1.6729413764	 2.7278954583	-1.3199372388	-0.194883
N	-2.7504792238	 1.9251564742	-1.9115294298	-0.28495
H	-3.3265251605	 2.2817306093	-2.6563969924	 0.256738
C	-3.2603380167	 1.1182556009	-0.9344696893	 0.076107
N	-2.6267498809	 1.0722454988	 0.182358471	-0.295
H	-1.3950921377	 2.6561548393	 0.8681021503	 0.124675
H	-1.9911448218	 3.7643229236	-1.1600643117	 0.114565
H	-0.7666242934	 2.7243343058	-1.929416721	 0.150548
H	-4.1455419211	 0.5234262553	-1.1396847435	 0.139587
H	-1.2438780691	-0.1578731574	 0.8069257203	 0.309872
84.3276	100.7728	241.0883	303.0814	407.8161	476.7029	516.516	596.4569	696.1341	763.0624	796.3317	837.0438	897.4682	967.4035	988.5627	998.5496	1039.2372	1074.8034	1151.8931	1189.7845	1224.0851	1265.8359	1301.805	1313.3128	1345.998	1409.5261	1460.8044	1529.3537	1667.3256	1868.7538	3033.2079	3054.7412	3107.9271	3190.4611	3547.5553	3647.6202
[O-]C(=O)C1C[NH+]=CN1	OC(=O)[C@H]1CN[CH][N]1	
InChI=1S/C4H6N2O2/c7-4(8)3-1-5-2-6-3/h2-3H,1H2,(H,5,6)(H,7,8)	InChI=1S/C4H6N2O2/c7-4(8)3-1-5-2-6-3/h2-3H,1H2,(H,5,6)(H,7,8)/t3-/m1/s1
