19
gdb 103783	3.35572	1.06664	0.97684	2.9997	72.13	-0.2406	0.0559	0.2965	1259.6476	0.157467	-460.108679	-460.099402	-460.098458	-460.142851	34.277	
O	-0.1351946347	 1.4194591916	-0.3547966781	-0.430739
C	 0.0034591951	 0.0704461637	 0.0902946944	-0.153292
C	-1.3780611984	-0.5295636871	 0.0598630389	 0.3815
O	-2.2943543674	 0.1764678458	 0.8461124672	-0.477303
C	-1.8890346126	-1.1990659358	-1.2028271309	-0.420418
C	-1.5814696659	-2.0045187547	 0.0303897988	 0.223126
C	-0.5859682269	-3.1390671649	 0.2561886889	-0.141758
O	-1.5162814831	-3.8083627847	 1.1316756836	-0.277691
C	-2.5310971242	-2.79636667	 0.9207480666	-0.129144
H	 0.639698957	 1.9147078588	-0.0752904492	 0.293986
H	 0.6883421167	-0.4971556048	-0.5565250404	 0.091091
H	 0.3932943402	 0.0378998618	 1.1182442544	 0.100438
H	-2.1967881083	 1.1020424316	 0.587555155	 0.290266
H	-2.9347767318	-1.0448077637	-1.4479224706	 0.119955
H	-1.2214194141	-1.2829187562	-2.0554773258	 0.112819
H	-0.3504662552	-3.740476773	-0.6326180406	 0.099853
H	 0.349841068	-2.8807448687	 0.7702500348	 0.097605
H	-2.8274499578	-2.3028631154	 1.8529142098	 0.119119
H	-3.4204304264	-3.2060112244	 0.4247687431	 0.100587
77.8482	111.1105	127.764	174.518	232.8764	254.5046	303.9104	388.001	405.9344	421.6739	459.4164	482.991	658.8384	753.8783	860.7928	877.9759	908.1393	917.4493	975.0772	994.0803	1005.5253	1029.3944	1044.6627	1054.4031	1127.8984	1144.1333	1151.145	1166.4951	1185.8767	1236.026	1263.1736	1299.3536	1308.4509	1317.1159	1377.6007	1427.196	1452.5183	1505.8382	1511.486	1522.0812	1536.354	2984.4201	2993.9508	3015.6811	3023.9463	3033.145	3067.939	3119.9472	3212.6863	3774.638	3839.9816
OCC1(O)CC11COC1	OC[C@@]1(O)CC21COC2	
InChI=1S/C6H10O3/c7-2-6(8)1-5(6)3-9-4-5/h7-8H,1-4H2	InChI=1S/C6H10O3/c7-2-6(8)1-5(6)3-9-4-5/h7-8H,1-4H2/t6-/m0/s1
