17
gdb 65526	3.24595	1.36444	1.18247	2.7549	67.18	-0.253	0.0555	0.3085	1059.77	0.13416	-458.884061	-458.876022	-458.875078	-458.916657	30.753	
O	-0.2715849316	 1.4663371538	-0.1333593765	-0.466728
C	-0.0220389147	 0.0869432891	 0.0067782208	 0.345141
C	 0.3135266056	-0.4902286767	 1.4396295341	-0.345972
C	-0.9755028975	-1.3124762197	 1.3400800844	 0.0525
O	-2.0536462432	-0.384930781	 1.1984288119	-0.24418
C	-1.3183942313	-0.7407959748	 0.0283977885	-0.007259
C	 0.9311442893	-0.3574250898	-1.0882611508	 0.009502
C	 2.3917635213	-0.3415738717	-0.9229330112	-0.194356
O	 1.6614980579	-1.5704090034	-0.9237836824	-0.223365
H	 0.5727128421	 1.9296519724	-0.0944017614	 0.280269
H	 1.2182316608	-1.0998299844	 1.4470466268	 0.124279
H	 0.3225379863	 0.2466056518	 2.2449189738	 0.109559
H	-1.198292491	-2.289077182	 1.7513262644	 0.108085
H	-1.8703160123	-1.1433022834	-0.8137300338	 0.104032
H	 0.5361243387	-0.2015985534	-2.0937838683	 0.10528
H	 3.0301380093	-0.1776151588	-1.7891089929	 0.125676
H	 2.8253261802	-0.0612040879	 0.0362843326	 0.117535
88.9852	136.3363	197.5215	248.8752	291.9986	326.9494	399.6015	420.8945	478.6254	600.3251	640.1944	792.8382	830.5857	860.0887	876.4102	882.5959	929.2705	932.648	964.9237	998.627	1048.0866	1054.4096	1097.3961	1126.2238	1154.97	1168.1056	1175.0815	1223.7585	1234.3282	1241.1013	1257.1877	1294.027	1359.2985	1388.7775	1429.4906	1448.9041	1524.233	3077.5269	3086.6374	3098.3849	3146.6092	3175.0801	3179.769	3203.1839	3798.5472
OC1(CC2OC12)C1CO1	O[C@]1(C[C@H]2O[C@@H]12)[C@H]1CO1	
InChI=1S/C6H8O3/c7-6(4-2-8-4)1-3-5(6)9-3/h3-5,7H,1-2H2	InChI=1S/C6H8O3/c7-6(4-2-8-4)1-3-5(6)9-3/h3-5,7H,1-2H2/t3-,4-,5-,6-/m1/s1
