19
gdb 83925	2.40001	1.48474	1.18094	2.0055	76.8	-0.2468	-0.0197	0.2271	1117.1512	0.158944	-423.030667	-423.02208	-423.021136	-423.064012	31.887	
C	-0.0419745767	 1.5711377675	-0.0673074376	-0.418642
C	 0.0482307528	 0.0659945303	 0.0239897093	-0.09802
C	 1.3248830261	-0.6780320595	-0.1716714481	 0.044651
O	 2.5141299092	 0.0524127016	-0.1330714505	-0.259201
C	 2.9514989374	 0.1552384661	 1.2329388349	-0.070182
C	 1.6775474393	 0.1215716282	 2.0992926597	-0.335026
C	 0.6936589376	-0.6481229707	 1.2276175225	 0.204858
C	 0.0307794505	-1.8521585261	 1.7629178587	 0.07803
O	 0.161282581	-2.2756694677	 2.8869799094	-0.271084
H	 0.9283902612	 2.0402652471	 0.1053633828	 0.135949
H	-0.3728141278	 1.8621231711	-1.0694779024	 0.127796
H	-0.7606422376	 1.9745016257	 0.6530339714	 0.124774
H	-0.8290376074	-0.4628111258	-0.3466167321	 0.093276
H	 1.3640302223	-1.5881631498	-0.7645611387	 0.105279
H	 3.609270877	-0.692345731	 1.4725287687	 0.10756
H	 3.5278526811	 1.0795603276	 1.3230819912	 0.114019
H	 1.8251684725	-0.4136045638	 3.0396923957	 0.137958
H	 1.3220620208	 1.1287886344	 2.3340606565	 0.111997
H	-0.6262884191	-2.3733930552	 1.0276059984	 0.066008
96.9923	125.268	147.2676	196.0863	234.2036	243.5817	299.617	404.7762	503.0741	599.6871	620.2478	684.003	765.7334	777.711	858.7245	870.4982	947.8559	964.4607	1007.3794	1021.7818	1049.61	1058.3801	1069.3154	1110.2987	1135.481	1159.263	1209.2213	1237.1645	1255.0801	1293.834	1327.5117	1341.5	1387.6924	1415.9902	1427.6972	1441.1081	1485.5056	1496.0699	1501.7188	1519.6371	1803.5506	2853.4509	3005.0484	3042.4299	3061.1172	3096.7759	3101.3542	3114.3906	3120.8381	3135.5716	3142.6723
CC1C2OCCC12C=O	C[C@H]1[C@H]2OCC[C@@]12C=O	
InChI=1S/C7H10O2/c1-5-6-7(5,4-8)2-3-9-6/h4-6H,2-3H2,1H3	InChI=1S/C7H10O2/c1-5-6-7(5,4-8)2-3-9-6/h4-6H,2-3H2,1H3/t5-,6+,7+/m0/s1
