21
gdb 109571	2.518	1.30282	0.99073	2.1734	79.61	-0.2226	-0.0205	0.2021	1284.6241	0.179805	-424.227797	-424.217525	-424.216581	-424.263093	36.742	
C	-0.7768446314	 1.7883218088	-0.0791507199	-0.247816
O	-0.5472124366	 0.532182778	-0.695879704	-0.24257
C	-1.25436746	-0.5116355593	-0.1039471822	 0.048217
C	-1.0145308025	-1.9379299757	-0.6987428467	-0.088946
C	 0.3212982642	-2.0640973418	-1.4253068419	-0.386255
C	-1.0403832031	-2.5275445863	 0.7620158581	-0.095405
C	-0.0996545907	-3.6364946543	 1.2094260799	-0.411114
C	-0.7716636351	-1.0937913734	 1.2452891206	 0.348582
O	-0.2013478301	-0.6323347327	 2.1938460044	-0.311152
H	-0.1881856564	 2.5249455759	-0.63040306	 0.12803
H	-1.8404706565	 2.0690058006	-0.1331014747	 0.103359
H	-0.4640690886	 1.7827454436	 0.9711824821	 0.141232
H	-2.3345347523	-0.2882406706	-0.0461715614	 0.08159
H	-1.8281340766	-2.2920619652	-1.3352691787	 0.07667
H	 1.1524507133	-1.698081641	-0.8143927631	 0.129119
H	 0.5242779701	-3.1065822531	-1.6886557492	 0.113628
H	 0.3114031747	-1.4712449541	-2.3433306648	 0.130642
H	-2.0754797836	-2.7870358623	 1.0199732578	 0.101321
H	 0.9393328586	-3.4084316571	 0.9577817325	 0.128415
H	-0.1563098665	-3.7596167005	 2.2950494499	 0.13373
H	-0.361593891	-4.5927079494	 0.7457743813	 0.118724
65.5222	98.1855	156.5466	159.5903	179.5119	200.6745	228.8418	243.3639	254.1187	331.8032	438.3874	500.2878	525.111	584.408	731.9936	767.8559	838.3874	870.0883	923.8449	986.8852	1013.7518	1046.8255	1054.5737	1090.0321	1136.0652	1156.885	1175.4776	1183.3723	1197.2152	1242.4825	1257.0141	1269.9187	1337.4999	1363.8625	1379.3418	1407.8397	1416.8947	1480.6364	1486.5323	1487.8885	1490.1551	1500.3492	1502.0241	1513.8004	1874.5792	2944.869	2984.1654	3025.8899	3040.6045	3043.9973	3067.6669	3080.1386	3108.8419	3111.3761	3119.4773	3122.7646	3125.0246
COC1C(C)C(C)C1=O	CO[C@H]1[C@@H](C)[C@@H](C)C1=O	
InChI=1S/C7H12O2/c1-4-5(2)7(9-3)6(4)8/h4-5,7H,1-3H3	InChI=1S/C7H12O2/c1-4-5(2)7(9-3)6(4)8/h4-5,7H,1-3H3/t4-,5+,7+/m1/s1
