14
gdb 19655	4.75832	2.08292	1.92251	1.5643	59.85	-0.2379	-0.0196	0.2183	706.7825	0.109129	-382.505011	-382.499573	-382.498629	-382.534435	22.183	
O	-0.0688672837	-0.0320980156	-0.0712042823	-0.324366
C	-0.0385511219	 1.158713602	 0.0374881995	 0.439276
C	-1.0726330751	 2.293427362	 0.0153050026	-0.216489
C	-0.7973317461	 2.9173631737	 1.4078692927	-0.220445
C	 0.6440957724	 3.3450475963	 1.0469275721	 0.070609
O	 0.3933139235	 4.2931845016	-0.030978335	-0.28584
C	 0.0516085565	 3.1280217047	-0.7811936233	 0.103106
C	 1.0517906936	 2.2220712811	 0.0106234347	-0.208866
H	-2.093743587	 2.1573320958	-0.3282089286	 0.094455
H	-1.4096762237	 3.7934953357	 1.6278690566	 0.122453
H	-0.8728971854	 2.1935175964	 2.2233290938	 0.118172
H	 1.320414892	 3.7148586296	 1.8152257307	 0.096232
H	-0.0063465333	 3.2418035909	-1.8604916109	 0.10913
H	 2.0967193481	 2.0698069758	-0.2428688826	 0.102575
159.0547	350.5924	454.0019	546.8781	571.5201	686.0504	706.9131	782.2801	800.3008	821.3816	857.8788	912.2551	921.0999	961.6043	977.5258	991.5085	1019.8981	1040.4084	1092.0988	1129.7406	1139.9127	1170.1723	1199.9477	1220.0189	1233.6589	1288.1436	1301.7093	1328.7267	1488.1584	1897.2975	3071.3661	3131.1403	3143.1922	3159.4021	3171.1222	3175.2993
O=C1C2CC3OC2C13	O=C1[C@H]2C[C@@H]3O[C@H]2[C@H]13	
InChI=1S/C6H6O2/c7-5-2-1-3-4(5)6(2)8-3/h2-4,6H,1H2	InChI=1S/C6H6O2/c7-5-2-1-3-4(5)6(2)8-3/h2-4,6H,1H2/t2-,3+,4+,6-/m1/s1
