17
gdb 33735	3.19184	1.58471	1.32887	5.0119	76.4	-0.2545	0.0219	0.2764	977.931	0.138786	-380.825624	-380.818938	-380.817994	-380.856525	27.636	
N	 0.0016659727	-1.1413821471	-0.0448106051	-0.343638
C	 0.0102824576	 0.0140921969	-0.0288029832	 0.196654
C	 0.0653106071	 1.4608012535	 0.0169669852	 0.225583
C	-0.2889067446	 2.2903893012	 1.2989443979	-0.23742
C	 0.4938327843	 3.389671363	 0.4934481593	-0.076714
C	 1.4207244716	 2.2318586641	 0.0431073209	-0.280355
C	-0.4843525427	 3.5505232651	-0.678938054	-0.017449
C	-0.1826914243	 2.9510294098	-2.0037700152	-0.259158
N	-0.8485006975	 2.1318916646	-0.9729199171	-0.137825
H	-1.3541049835	 2.4445049029	 1.4785581538	 0.123243
H	 0.2254652834	 1.9455722112	 2.196962466	 0.118809
H	 0.8818029503	 4.2899806947	 0.9655697511	 0.084773
H	 2.0520730316	 1.876600644	 0.8573513917	 0.124769
H	 2.0145711668	 2.3151341585	-0.8655568315	 0.115121
H	-1.3060055176	 4.2526686715	-0.5684846954	 0.106708
H	-0.8455835207	 3.1897726953	-2.8304011127	 0.129745
H	 0.8345940355	 2.738779551	-2.3090064218	 0.127153
144.2469	167.9902	347.7353	422.7013	508.0176	516.0663	532.8323	564.1172	583.5445	646.7066	749.7947	789.5538	831.3823	858.465	917.4396	925.8601	954.8144	975.2538	1001.2507	1040.5855	1057.6613	1075.3637	1097.4548	1118.4013	1141.6964	1159.7295	1171.7692	1212.226	1216.8435	1241.9011	1271.799	1294.4911	1363.852	1476.7621	1501.421	1543.8613	2361.6681	3081.0759	3101.0461	3133.9085	3138.759	3151.0134	3153.0332	3156.3845	3219.4699
N#CC12CC(C1)C1CN21	N#C[C@@]12C[C@@H](C1)[C@H]1CN21	
InChI=1S/C7H8N2/c8-4-7-1-5(2-7)6-3-9(6)7/h5-6H,1-3H2	InChI=1S/C7H8N2/c8-4-7-1-5(2-7)6-3-9(6)7/h5-6H,1-3H2/t5-,6-,7+,9?/m1/s1
