18
gdb 120357	3.28778	0.97836	0.80183	1.892	72.87	-0.2725	-0.0276	0.2448	1434.0355	0.147625	-439.14197	-439.133258	-439.132313	-439.176277	31.259	
C	-0.0311912204	 1.5821296882	 0.0550052342	-0.385675
C	-0.017867683	 0.0521257679	 0.0068035177	-0.17379
C	 0.7190269692	-0.4893639272	-1.2214549443	-0.169014
C	 0.7131429833	-2.0242361484	-1.2959104515	-0.157102
N	-0.6220402024	-2.5903902158	-1.5223143936	-0.24594
C	-0.5212899949	-3.276787377	-2.5806695579	 0.119884
O	 0.6939574395	-3.3420278883	-3.2192350218	-0.205267
C	 1.5574301541	-2.5511388331	-2.4544159424	 0.436207
O	 2.6977567359	-2.3813665577	-2.7468941129	-0.316657
H	 0.9856898589	 1.9893404833	 0.0789979251	 0.116884
H	-0.5347421615	 2.0018541379	-0.8227901323	 0.117691
H	-0.556447762	 1.9445148875	 0.9437771337	 0.116814
H	 0.4590695133	-0.3415408948	 0.9141068962	 0.097149
H	-1.0430800457	-0.3331298549	 0.0060149906	 0.124606
H	 0.2645342373	-0.0915929787	-2.1373630497	 0.107687
H	 1.7660195711	-0.1639004494	-1.2196900655	 0.124222
H	 1.1184704883	-2.4274692096	-0.3585083237	 0.13406
H	-1.3107233408	-3.84152209	-3.0618877818	 0.158241
73.2234	86.2131	114.2722	152.5607	247.8601	272.6518	308.9679	363.6455	519.0232	603.6058	661.0919	712.4073	750.2031	837.6312	858.8841	872.1489	917.8503	941.5741	959.5512	1037.4275	1063.4467	1092.6241	1127.5753	1139.6321	1159.3899	1246.1781	1257.102	1303.7113	1327.9362	1339.3291	1344.8514	1394.5765	1415.2284	1480.52	1494.1147	1500.5498	1510.5128	1696.6846	1918.5681	3020.9537	3027.5517	3031.4242	3036.624	3063.9026	3081.7491	3101.6943	3106.2902	3226.1708
CCCC1N=COC1=O	CCC[C@H]1N=COC1=O	
InChI=1S/C6H9NO2/c1-2-3-5-6(8)9-4-7-5/h4-5H,2-3H2,1H3	InChI=1S/C6H9NO2/c1-2-3-5-6(8)9-4-7-5/h4-5H,2-3H2,1H3/t5-/m1/s1
