17
gdb 133721	2.56214	1.35245	1.11998	2.7822	60.92	-0.2398	0.0671	0.3068	1108.2307	0.132941	-549.49794	-549.489349	-549.488405	-549.531786	31.538	
C	-0.2431320175	 1.5387588637	-0.1420676177	-0.404228
C	-0.0178648991	 0.0321909945	-0.0760430021	-0.012761
C	 1.2349646908	-0.4828644851	-0.8429436491	-0.170635
N	 1.9481130443	-0.614502849	 0.4489401061	-0.311231
C	 0.6817426737	-0.5597459243	 1.1885892421	-0.121973
C	 0.7397012141	 0.2234241587	 2.4886327655	 0.286394
F	 1.2822589206	 1.4369280245	 2.3603298294	-0.070365
F	-0.4998507088	 0.3810218504	 2.990873312	-0.085249
F	 1.4645245322	-0.4432808288	 3.4048675255	-0.084987
H	 0.6814462588	 2.091716862	 0.0368709206	 0.139074
H	-0.6188628199	 1.8108207904	-1.1340340483	 0.11198
H	-0.9806987756	 1.8642430787	 0.5976893019	 0.126626
H	-0.9420693428	-0.4930095527	-0.3245125801	 0.084818
H	 1.0537397594	-1.4329192142	-1.3633955809	 0.093864
H	 1.7050248064	 0.2180488695	-1.5414038795	 0.106806
H	 2.5026802989	-1.4522974774	 0.5787184325	 0.225831
H	 0.2545207945	-1.5374757509	 1.4558402922	 0.086035
58.3389	97.8686	157.8819	235.2694	266.7638	283.0193	356.237	379.9926	434.5	523.7058	576.196	667.1438	699.1628	793.443	824.4431	906.5509	921.6893	959.9647	1023.5801	1061.1538	1071.2028	1114.5811	1138.1404	1168.8578	1179.3214	1205.1115	1237.2652	1273.9643	1309.678	1337.5038	1373.4462	1382.4684	1415.473	1425.4282	1497.1474	1502.1643	1524.4885	2994.9231	3005.9749	3040.7875	3061.4206	3086.1593	3104.9899	3133.5502	3543.4423
CC1CNC1C(F)(F)F	C[C@H]1CN[C@H]1C(F)(F)F	
InChI=1S/C5H8F3N/c1-3-2-9-4(3)5(6,7)8/h3-4,9H,2H2,1H3	InChI=1S/C5H8F3N/c1-3-2-9-4(3)5(6,7)8/h3-4,9H,2H2,1H3/t3-,4+/m0/s1
