22
gdb 57203	2.27401	1.309	1.10326	2.2956	81.83	-0.2405	-0.0158	0.2247	1242.8046	0.191375	-404.350508	-404.339936	-404.338992	-404.386269	38.604	
C	-0.1912742567	 1.7056577092	 0.3779481959	-0.397449
C	 0.0281600544	 0.2349593648	 0.0081194202	-0.15347
C	 0.8270689401	 0.1063569285	-1.3021654148	 0.380778
C	 0.8892469732	-1.268941133	-1.9437618876	-0.491295
O	 1.3828914965	 1.059690254	-1.7972619128	-0.299189
C	 0.7033428534	-0.5635682763	 1.1329705352	 0.337908
C	 2.1336096725	-0.1816170614	 1.4633066863	-0.450637
C	-0.1653698757	-1.0881926784	 2.2183201598	-0.284399
N	 0.4328672498	-2.0139518002	 1.2348932359	-0.356196
H	 0.7597604967	 2.2316070471	 0.4820643827	 0.1391
H	-0.7564497439	 2.2194091201	-0.4038805188	 0.12259
H	-0.7447980737	 1.7847449261	 1.3178972104	 0.109533
H	-0.9488632577	-0.2386963792	-0.1680704511	 0.072832
H	-0.1201381574	-1.62663579	-2.1785865488	 0.130967
H	 1.4784976226	-1.2173753507	-2.8600374866	 0.141777
H	 1.3351832599	-1.9952167803	-1.2562186632	 0.163186
H	 2.1941758149	 0.8443773582	 1.8391934378	 0.124557
H	 2.530144938	-0.8547724091	 2.2265114357	 0.128836
H	 2.781049338	-0.2517128186	 0.5827436015	 0.127798
H	 0.2244212838	-1.1783685574	 3.2286126179	 0.11834
H	-1.2336711904	-0.8938128821	 2.1634387405	 0.11012
H	-0.2787912384	-2.2895817312	 0.5619626239	 0.224315
44.0792	76.3265	147.5365	170.0494	184.0956	201.357	242.8473	262.1429	334.3861	346.4069	388.675	401.3049	502.4463	555.9411	609.9228	713.8599	780.6773	830.5487	889.9754	919.0342	944.1938	976.2121	982.584	1009.3141	1048.4011	1082.46	1101.8619	1110.7939	1123.5814	1142.4756	1194.3006	1257.7164	1271.4999	1323.6692	1344.0394	1382.8635	1386.1421	1410.5109	1424.8969	1469.9646	1478.1291	1485.4101	1488.8804	1492.9015	1497.8956	1514.4156	1807.2717	2998.0424	3036.4654	3039.9675	3051.4104	3101.001	3102.5036	3104.6349	3120.6828	3128.0068	3136.5666	3151.6005	3188.8276	3490.3299
CC(C(C)=O)C1(C)CN1	C[C@@H](C(=O)C)[C@@]1(C)CN1	
InChI=1S/C7H13NO/c1-5(6(2)9)7(3)4-8-7/h5,8H,4H2,1-3H3	InChI=1S/C7H13NO/c1-5(6(2)9)7(3)4-8-7/h5,8H,4H2,1-3H3/t5-,7+/m0/s1
