23
gdb 101952	2.01207	1.29422	0.85234	1.7617	85.31	-0.2507	0.0799	0.3306	1417.7769	0.205416	-388.257455	-388.247645	-388.246701	-388.292484	37.006	
O	 0.2537448286	 1.2907029974	 0.2094873087	-0.428086
C	 0.0285119356	-0.1066315507	 0.1471723563	-0.06308
C	-1.4498244036	-0.4876069844	-0.0510678258	-0.048182
C	-1.9851024437	 0.058082937	-1.3659228498	 0.020768
C	-3.4479379859	 0.3609326701	-1.5506133596	-0.278065
C	-2.4549176086	 1.4943643272	-1.4937907365	-0.293532
C	-1.6119297093	-1.996272581	 0.0288743453	 0.04151
C	-1.6377631742	-2.7014137225	 1.3627374843	-0.278764
C	-2.8894623065	-2.6244785107	 0.5234425513	-0.273308
H	-0.0810841928	 1.6692698511	-0.6095849801	 0.287051
H	 0.6317979908	-0.5731917024	-0.6511865973	 0.076758
H	 0.3864313505	-0.5134718612	 1.0979822442	 0.107659
H	-2.0181716873	-0.0292008703	 0.7709158174	 0.068085
H	-1.4801781385	-0.3473245129	-2.2416159465	 0.080158
H	-3.907660629	 0.1268520618	-2.5042213378	 0.111839
H	-4.1048735053	 0.225647828	-0.6981888866	 0.113784
H	-2.4488141595	 2.111256346	-0.6013019782	 0.124007
H	-2.2386738266	 2.0337366413	-2.4100648271	 0.111609
H	-1.10883016	-2.5334841122	-0.7729541022	 0.077919
H	-1.1332425001	-3.6568018456	 1.4553517024	 0.110385
H	-1.5952321014	-2.0907797844	 2.2592259615	 0.112153
H	-3.681670904	-1.964860163	 0.8613263633	 0.109567
H	-3.2436687893	-3.5273353385	 0.0383216628	 0.109765
73.0058	88.6566	115.364	151.3635	177.9689	226.2921	312.3512	337.4263	389.3327	396.0358	445.0539	521.1803	756.9209	783.4831	815.658	822.8712	830.0909	867.3523	914.632	935.2992	950.8687	960.7658	1000.4961	1048.8426	1060.2005	1069.934	1075.977	1080.5409	1097.9077	1129.5843	1137.7041	1143.8852	1185.3689	1197.4053	1203.9507	1221.2694	1229.9627	1240.7944	1277.88	1310.0126	1385.8472	1406.9381	1419.9974	1431.2801	1469.8749	1472.2163	1501.1324	1506.3044	1509.8172	2952.4433	3008.0162	3078.9465	3114.402	3122.5114	3127.6595	3128.527	3134.3613	3136.7201	3205.9462	3207.2671	3221.21	3223.0998	3819.1127
OCC(C1CC1)C1CC1	OCC(C1CC1)C1CC1	
InChI=1S/C8H14O/c9-5-8(6-1-2-6)7-3-4-7/h6-9H,1-5H2	InChI=1S/C8H14O/c9-5-8(6-1-2-6)7-3-4-7/h6-9H,1-5H2
