11
gdb 20335	6.06217	1.35732	1.31225	4.6448	57.04	-0.3026	-0.0525	0.25	897.7255	0.071758	-389.663797	-389.657054	-389.656109	-389.696109	22.987	
C	-0.0224557883	-1.2210105551	-0.0048858209	-0.422133
C	 0.0003800504	-0.0218148632	 0.0020417299	 0.323871
C	 0.0098500853	 1.4338931928	 0.0101777627	-0.303235
N	 1.3651976406	 1.9907216113	 3.5964*^-6	 0.177003
N	 2.0674849672	 2.2500154455	 1.092130026	-0.106731
N	 3.2049188218	 2.6984259545	 0.6606275951	-0.079078
N	 3.1906951521	 2.7082886305	-0.6888505578	-0.079106
N	 2.0444153011	 2.2659022688	-1.1027898348	-0.10672
H	-0.0385027501	-2.2836586275	-0.011257129	 0.223631
H	-0.4962320741	 1.8387462926	-0.8700880863	 0.186271
H	-0.478998156	 1.8287175399	 0.9046276387	 0.186229
29.8476	98.8299	258.0195	311.2004	330.1847	466.8163	643.9116	695.6408	712.34	765.5225	788.3476	942.5852	968.8916	971.8174	1089.48	1137.7474	1142.672	1253.7639	1291.0498	1377.2014	1390.6037	1420.1861	1458.0044	2255.2662	3074.4743	3122.3016	3501.4124
C#CCN1N=NN=N1	C#CCn1nnnn1	
InChI=1S/C3H3N5/c1-2-3-8-6-4-5-7-8/h1H,3H2	InChI=1S/C3H3N5/c1-2-3-8-6-4-5-7-8/h1H,3H2
