16
gdb 23532	2.02944	1.78628	1.07411	1.1846	78.92	-0.2359	0.0077	0.2436	1110.1107	0.122607	-400.636338	-400.628001	-400.627057	-400.669248	31.851	
O	-0.0994979882	 1.2883068918	-0.0019986049	-0.391285
N	 0.0561220057	-0.1077535096	-0.082365957	-0.263693
C	-1.0532623666	-0.6990331403	 0.0604612687	 0.438434
C	-1.4040538943	-2.1344115716	-0.054343379	-0.146978
C	-2.2981459365	-2.5379373539	 1.1057247745	-0.285065
C	-2.89934488	-1.746643074	-0.0052251155	-0.052961
C	-2.5287257641	-0.2461077259	 0.1418650196	-0.295268
C	-3.0032197529	 0.4648736493	 1.3143692045	 0.34979
C	-3.4063964421	 1.0283400484	 2.2967095841	-0.461951
H	 0.8033000029	 1.5995130872	-0.1260628338	 0.30801
H	-0.8942243607	-2.8640816242	-0.6691376949	 0.109679
H	-2.5541030527	-3.5923800524	 1.1207707154	 0.122888
H	-2.1629510041	-2.091440172	 2.0860712584	 0.134525
H	-3.7042325695	-2.1113870207	-0.6289513383	 0.1066
H	-2.7628996145	 0.3182408553	-0.7679491587	 0.130228
H	-3.7550526126	 1.5380872726	 3.1603463571	 0.197047
91.6088	123.5331	162.8946	218.9013	303.8419	357.8853	415.8714	426.3327	503.1577	588.6338	603.7468	624.5856	634.7121	688.8463	771.9197	829.9386	850.7835	910.117	971.0159	981.8687	996.0665	1021.5888	1054.3412	1078.1576	1090.4993	1142.2286	1176.8215	1195.9559	1291.2361	1314.8218	1335.9869	1417.008	1489.8816	1785.2577	2236.3999	3050.8126	3126.242	3202.6897	3207.1922	3218.0459	3504.7747	3821.8731
ON=C1C2CC2C1C#C	ON=C1[C@H]2C[C@H]2[C@H]1C#C	
InChI=1S/C7H7NO/c1-2-4-5-3-6(5)7(4)8-9/h1,4-6,9H,3H2	InChI=1S/C7H7NO/c1-2-4-5-3-6(5)7(4)8-9/h1,4-6,9H,3H2/t4-,5+,6+/m1/s1
