19
gdb 101518	3.54532	0.63459	0.55585	4.7658	84.42	-0.2605	-0.0549	0.2057	1958.7701	0.155028	-422.997948	-422.986942	-422.985998	-423.036555	36.579	
C	-0.0297463009	 1.4403229808	-0.1502990529	-0.238422
O	-0.0275394643	 0.0440692989	 0.0438110911	-0.238876
C	-1.3073440888	-0.5625394054	 0.0265567903	 0.143929
C	-1.8299339725	-0.7684641383	-1.3972081408	-0.405319
C	-1.1486900386	-1.9072746828	 0.7598910993	-0.373297
C	-0.803681342	-1.7678717498	 2.1653474393	 0.093259
C	-0.5348998158	-1.6664701108	 3.3387732422	 0.048598
C	-0.2049137211	-1.4990095164	 4.7284304707	 0.018303
O	-0.1005901755	-2.4023263551	 5.5272909621	-0.232402
H	 1.0020617479	 1.7799586152	-0.0335279472	 0.133131
H	-0.3790082535	 1.7288757598	-1.1522965919	 0.108165
H	-0.6579191448	 1.9509847728	 0.5955994679	 0.109008
H	-2.017673162	 0.062384961	 0.5918820143	 0.077116
H	-1.1468818561	-1.4086335936	-1.9645852566	 0.127761
H	-2.8192940458	-1.2366898859	-1.3847560713	 0.119532
H	-1.9218245362	 0.18443262	-1.9249248421	 0.122917
H	-2.0757616516	-2.4863811801	 0.6697556246	 0.140095
H	-0.3663735714	-2.4851241605	 0.2511000524	 0.151783
H	-0.0464270472	-0.4430337098	 5.0303482887	 0.094718
21.7511	46.9376	66.454	89.9385	159.4559	191.1031	197.7871	220.8715	285.835	305.048	395.2251	410.8876	462.3647	541.4642	614.3828	810.4041	832.1193	888.7141	922.6092	1022.5835	1062.0344	1108.934	1116.0538	1160.1663	1166.3791	1182.0512	1206.3687	1267.2566	1311.2182	1380.2558	1382.9771	1404.8717	1423.1801	1443.5603	1478.2263	1482.6058	1492.921	1501.3565	1510.7348	1766.2207	2331.8565	2911.2436	2972.2129	2982.2713	3029.047	3029.8829	3041.3953	3068.5065	3111.98	3116.9534	3120.667
COC(C)CC#CC=O	CO[C@@H](C)CC#CC=O	
InChI=1S/C7H10O2/c1-7(9-2)5-3-4-6-8/h6-7H,5H2,1-2H3	InChI=1S/C7H10O2/c1-7(9-2)5-3-4-6-8/h6-7H,5H2,1-2H3/t7-/m0/s1
