23
gdb 65558	3.45343	0.96855	0.8996	1.4691	85.7	-0.2384	0.0791	0.3176	1428.8274	0.205081	-388.266992	-388.257451	-388.256507	-388.301874	36.033	
C	-0.1777750885	 1.673593303	-0.4290206497	-0.433872
C	-0.0164352861	 0.183600989	-0.1641233286	 0.443023
C	-1.3477326099	-0.5726248452	-0.0746961291	-0.256792
C	-2.2227515358	-0.1333490091	 1.0811358045	 0.036368
C	-3.3057222575	 0.9028555734	 0.9026065232	-0.254376
C	-3.6722707406	-0.5420853534	 1.1350055192	-0.284738
C	 1.0691174276	-0.5328425261	-1.0120507886	-0.340831
C	 1.780589614	-0.762004353	 0.33375343	-0.062976
O	 0.7653882265	-0.0366534101	 1.0532042948	-0.323927
H	 0.8009068717	 2.1598104644	-0.4740000249	 0.112354
H	-0.6933854917	 1.8437355751	-1.3809696935	 0.109092
H	-0.7605386978	 2.1468433592	 0.3651727913	 0.134206
H	-1.8884069593	-0.4605727944	-1.0246359048	 0.087702
H	-1.1206408474	-1.6414522861	 0.0322544128	 0.093118
H	-1.6965809856	-0.1153235412	 2.0309351203	 0.101165
H	-3.479657583	 1.6148396327	 1.7021895997	 0.110266
H	-3.4632943464	 1.3093859028	-0.0914196467	 0.106645
H	-4.071971895	-1.1029468254	 0.2958102367	 0.106255
H	-4.0961258449	-0.8201230009	 2.0937285567	 0.10951
H	 0.7362925975	-1.4313246773	-1.5353142096	 0.104209
H	 1.5991999457	 0.1148935914	-1.7127513271	 0.104858
H	 1.848369713	-1.8076298891	 0.6600810471	 0.098821
H	 2.7689293737	-0.2987787498	 0.4412111662	 0.09992
63.5014	70.7604	107.1082	152.8813	231.8333	282.5538	311.344	326.2544	390.6952	425.2792	480.5292	691.6726	773.4368	786.5215	807.4743	839.3092	861.433	863.6137	903.6961	926.0362	963.0392	974.8241	983.8653	1000.9873	1030.3185	1057.0816	1080.9483	1091.6186	1148.8246	1163.0575	1186.0125	1199.803	1201.2569	1209.2568	1225.9137	1245.8047	1265.1774	1302.5049	1346.4771	1359.813	1405.6568	1413.7153	1466.4421	1474.3736	1485.5294	1488.4041	1495.5384	1509.6903	1532.5354	3007.4213	3011.8942	3035.9586	3045.9477	3048.8761	3073.4739	3105.3992	3124.3169	3125.6932	3128.3792	3130.7503	3156.6074	3202.6219	3218.3519
CC1(CC2CC2)CCO1	C[C@@]1(CC2CC2)CCO1	
InChI=1S/C8H14O/c1-8(4-5-9-8)6-7-2-3-7/h7H,2-6H2,1H3	InChI=1S/C8H14O/c1-8(4-5-9-8)6-7-2-3-7/h7H,2-6H2,1H3/t8-/m0/s1
