16
gdb 97261	2.32005	1.18193	0.78601	4.3666	87.	-0.1784	0.0024	0.1808	1385.1073	0.125231	-430.282892	-430.273312	-430.272368	-430.317114	35.347	
N	-0.0889856349	 1.4095273112	 0.1205611932	-0.511072
C	-0.0664762728	 0.0378790253	 0.0178362896	 0.071327
N	-1.1345217437	-0.6610386415	 0.0408876973	-0.344644
C	-1.0873051363	-2.0619518288	 0.0245256859	 0.149985
C	 0.1348895672	-2.7809142587	 0.0018480885	 0.211237
N	 1.1516105172	-3.3465270823	-0.0162792609	-0.404612
C	-2.2764204289	-2.7517626052	 0.0219352813	 0.284016
N	-3.4745699161	-2.0895776988	-0.1159982661	-0.549151
N	-2.3718972309	-4.1213196049	 0.1638422547	-0.577179
H	-3.0668284523	-4.5533368269	-0.4306004712	 0.25524
H	-1.4849522446	-4.6062207266	 0.1374027592	 0.271617
H	 0.6875165949	 1.9058325672	-0.2871707223	 0.256806
H	-0.9897178386	 1.8387416228	-0.0359252929	 0.251403
H	 0.9402258554	-0.3899683194	-0.0294211989	 0.120439
H	-3.3488078786	-1.0869315733	-0.044240525	 0.262392
H	-4.2252257072	-2.4500643302	 0.4571848876	 0.252196
108.6814	120.3668	149.4596	152.1403	168.5607	343.9769	365.302	388.351	396.5354	433.1879	443.3003	493.3134	512.8957	551.1816	580.5187	639.6168	650.5369	700.0134	763.6914	789.147	983.3137	1035.3678	1108.7449	1138.7698	1230.887	1254.6585	1298.6835	1417.2791	1464.4926	1603.3223	1628.1303	1635.6337	1695.2507	1744.2318	2285.8449	3074.993	3530.4847	3543.7975	3570.0119	3640.0951	3646.1754	3689.2669
NC=N[C-](C#N)C(N)=[NH2+]	NC=N[C](C#N)C(=[NH2])N	
InChI=1S/C4H6N5/c5-1-3(4(7)8)9-2-6/h2H,(H2,6,9)(H3,7,8)/q-1/p+1	InChI=1S/C4H7N5/c5-1-3(4(7)8)9-2-6/h2H,7-8H2,(H2,6,9)
