21
gdb 88879	3.47957	0.99102	0.85546	2.6978	78.65	-0.2348	0.0745	0.3093	1390.5055	0.183129	-424.208726	-424.199631	-424.198687	-424.243795	33.485	
O	-0.0725548144	 1.529083884	 0.3753425679	-0.418069
C	 0.0249575337	 0.1492316648	 0.1623846454	 0.094235
C	-0.5447457927	-0.8063145108	 1.1804754363	-0.345944
C	-1.2528572704	-0.5772159841	-0.1447510065	-0.03735
C	-2.5672346728	 0.1625483512	-0.1939232356	 0.010626
C	-2.9084658066	 0.7860657205	-1.5599878055	-0.24836
C	-4.4303160868	 0.9552757318	-1.4707897635	-0.068934
O	-4.9028717916	-0.0270418901	-0.5429729408	-0.264839
C	-3.8027010536	-0.7209327852	 0.0315664667	-0.07546
H	 0.5369306976	 1.7650270355	 1.0821807062	 0.289081
H	 0.9195513551	-0.162900928	-0.3764729397	 0.085796
H	-0.0410216435	-1.7503364236	 1.3579764807	 0.11107
H	-1.0014715998	-0.3617150088	 2.0591830542	 0.114507
H	-1.1679021343	-1.3793938443	-0.8748744775	 0.084915
H	-2.5568156603	 0.9584357659	 0.5575441741	 0.085008
H	-2.3805488307	 1.7249462027	-1.7393800611	 0.115773
H	-2.642891081	 0.0895657077	-2.3643238398	 0.097083
H	-4.7014217732	 1.9535665164	-1.0989159003	 0.094808
H	-4.9310477804	 0.8108882245	-2.4358114684	 0.096505
H	-3.6691792132	-1.7015853294	-0.4563271152	 0.078577
H	-4.0189584511	-0.9004518807	 1.0901795726	 0.100972
44.244	61.1508	113.2323	141.8245	217.4672	295.7185	349.1836	382.4843	428.4234	534.3867	624.3134	683.8253	782.9829	837.2726	844.2207	882.1901	916.7756	932.0303	962.6234	980.6434	1012.7293	1014.2026	1050.677	1084.1541	1108.3392	1133.045	1135.6039	1174.0763	1187.6887	1194.4677	1231.9135	1236.5053	1255.6384	1285.5065	1302.7309	1306.2414	1346.1733	1367.8215	1399.1984	1414.1276	1438.0632	1489.9717	1493.5616	1521.1014	1535.6349	2956.1948	2999.7286	3031.1588	3047.9342	3055.4685	3068.9636	3096.2227	3113.6517	3126.5783	3130.0151	3216.0111	3808.303
OC1CC1C1CCOC1	O[C@H]1C[C@H]1[C@H]1CCOC1	
InChI=1S/C7H12O2/c8-7-3-6(7)5-1-2-9-4-5/h5-8H,1-4H2	InChI=1S/C7H12O2/c8-7-3-6(7)5-1-2-9-4-5/h5-8H,1-4H2/t5-,6-,7-/m0/s1
