12
gdb 129303	3.24638	1.53804	1.04361	1.355	75.61	-0.2605	-0.111	0.1494	1033.9889	0.076741	-431.598641	-431.591237	-431.590292	-431.631002	27.11	
N	-0.0432073094	 1.2317095222	 0.4011099888	-0.509625
C	-0.0320278684	 0.0334902741	-0.0020100813	 0.379246
O	 1.1124921687	-0.5629882291	-0.4844472066	-0.273382
N	 1.1288410313	-1.8871012956	-0.9307823005	-0.057564
C	 0.0072834374	-2.5111242926	-0.8617713396	 0.08697
N	-1.2137852956	-2.0499170559	-0.4056973983	-0.316416
C	-1.238411715	-0.8233304796	 0.0100758375	 0.091887
C	-2.448841486	-0.2620290818	 0.4970940811	 0.314639
C	-3.4813600864	 0.1996928768	 0.9068156707	-0.325974
H	 0.8814002788	 1.6579715974	 0.3148316644	 0.239273
H	 0.037660417	-3.5373525346	-1.2120277301	 0.153283
H	-4.3894027925	 0.6157380988	 1.270488074	 0.217662
63.695	149.5555	163.8655	305.9778	370.0061	460.5218	488.1314	539.0683	576.9625	598.6918	655.3572	693.5146	719.9208	807.6286	881.0537	883.1387	944.8433	954.0221	1021.5065	1154.431	1196.5514	1339.8672	1372.3298	1570.049	1635.6535	1729.1176	2232.2846	3203.3353	3477.5119	3496.7758
N=C1ON=CN=C1C#C	[NH]C1=C([N]C=NO1)C#C	
InChI=1S/C5H3N3O/c1-2-4-5(6)9-8-3-7-4/h1,3,6H	InChI=1S/C5H3N3O/c1-2-4-5(6)9-8-3-7-4/h1,3,6H
