20
gdb 119384	3.28674	1.0367	0.91926	1.9548	76.73	-0.2457	0.08	0.3256	1347.3535	0.170867	-440.201434	-440.192622	-440.191678	-440.235488	33.058	
C	-0.1370589459	 1.3103482975	-0.0381998381	-0.219764
O	-0.0109487573	-0.0919312358	-0.0044941391	-0.243322
C	 0.6595117901	-0.6108318207	-1.1347408007	-0.214774
C	 0.6855391657	-2.1037328644	-1.0291014084	 0.296482
C	 1.260813499	-3.0050448442	 0.0929274967	-0.268113
C	 0.5335985696	-3.9368596898	-0.9034224948	-0.07983
N	-0.6029487597	-2.9292062977	-1.0385869347	-0.392862
C	 1.2153723749	-3.150629542	-2.0648119614	 0.166817
O	 0.6479629497	-3.181852754	-3.3297351219	-0.452821
H	 0.8453101603	 1.8083141738	-0.0602383323	 0.104987
H	-0.7113931811	 1.647461074	-0.9153327059	 0.10755
H	-0.6659593224	 1.6130807841	 0.8687129935	 0.127832
H	 0.1440360356	-0.3195118683	-2.0649994961	 0.100413
H	 1.6911775404	-0.2227898595	-1.1929244265	 0.091499
H	 2.3499050276	-3.0868891714	 0.1807091621	 0.092661
H	 0.7828762405	-2.8923993185	 1.0681807709	 0.107101
H	 0.3388345419	-5.0072106211	-0.827005266	 0.084801
H	-1.0819725227	-2.8147686164	-0.1419032946	 0.217098
H	 2.2984239364	-3.2457586995	-2.1590639806	 0.085014
H	-0.3064939826	-3.1150334662	-3.1686312622	 0.289231
67.6483	94.003	110.6621	224.6108	251.8087	297.9128	342.8468	350.12	478.7545	529.2315	615.3893	667.8821	720.111	770.2197	812.8303	883.2032	898.7748	923.9516	961.7383	994.3529	1031.3302	1069.9861	1094.2836	1105.7855	1152.8811	1156.6428	1181.7306	1187.0678	1198.1814	1213.9634	1223.7554	1252.4291	1257.8562	1281.556	1325.2044	1342.2918	1426.5665	1457.5899	1478.6651	1485.0838	1497.4647	1513.389	1518.9314	2953.5474	2972.8917	2988.6815	3016.5121	3038.8927	3106.2339	3114.9282	3115.3794	3122.646	3417.6233	3705.8892
COCC12CC(N1)C2O	COC[C@@]12C[C@@H](N1)[C@H]2O	
InChI=1S/C6H11NO2/c1-9-3-6-2-4(7-6)5(6)8/h4-5,7-8H,2-3H2,1H3	InChI=1S/C6H11NO2/c1-9-3-6-2-4(7-6)5(6)8/h4-5,7-8H,2-3H2,1H3/t4-,5-,6-/m1/s1
