19
gdb 105469	2.84571	0.87056	0.728	4.5506	76.36	-0.2625	0.0369	0.2994	1539.0971	0.158739	-419.189633	-419.179824	-419.17888	-419.225438	34.837	
O	 0.0936937028	 1.4374273996	 0.7104425154	-0.413607
C	-0.0258317821	 0.1380071198	 0.1520754448	-0.152849
C	-1.4369633504	-0.4234809296	 0.2367508958	 0.316429
C	-2.4467596022	 0.3178614326	-0.6292185597	-0.264469
C	-3.8992909525	-0.1664883656	-0.4646107909	-0.355397
C	-4.8436247657	 0.6871087232	-1.1794527396	 0.258941
N	-5.5772578004	 1.3719648818	-1.7525306296	-0.307682
C	-1.5572455409	-1.8717378496	 0.5538104766	-0.284072
N	-1.9208503571	-0.8552268456	 1.555012185	-0.337991
H	-0.2354546711	 2.0784002186	 0.0738758005	 0.293149
H	 0.3228648399	 0.1164741497	-0.8919268614	 0.098845
H	 0.6495075495	-0.4995514231	 0.7339776043	 0.105815
H	-2.410915497	 1.3810103294	-0.3630297914	 0.118234
H	-2.1499484574	 0.2437507283	-1.6822687754	 0.119096
H	-4.015329518	-1.1896669497	-0.8378564543	 0.148782
H	-4.1537429508	-0.1840126328	 0.5995846391	 0.181347
H	-2.3878253893	-2.4613333893	 0.1769672178	 0.11956
H	-0.6390313071	-2.4387451524	 0.687767161	 0.115424
H	-1.1912305102	-0.7482145755	 2.255259602	 0.240447
56.335	65.374	87.8044	127.0048	225.1843	241.2163	260.2118	351.1633	357.0688	400.9396	442.9952	525.7388	568.4857	741.4496	770.3604	851.4659	903.0712	924.5038	947.6105	964.3544	1010.435	1043.8433	1066.8414	1069.317	1093.3757	1146.4889	1182.0365	1216.4012	1240.7805	1262.9537	1322.8093	1328.4114	1378.6885	1390.6765	1404.841	1425.6677	1475.2554	1488.3257	1492.1525	1519.9564	2362.2468	2987.5418	3029.8266	3054.7393	3063.7378	3068.0244	3102.8678	3109.1902	3189.4666	3503.1121	3835.8847
OCC1(CCC#N)CN1	OC[C@@]1(CCC#N)CN1	
InChI=1S/C6H10N2O/c7-3-1-2-6(5-9)4-8-6/h8-9H,1-2,4-5H2	InChI=1S/C6H10N2O/c7-3-1-2-6(5-9)4-8-6/h8-9H,1-2,4-5H2/t6-/m1/s1
