18
gdb 98362	2.99185	0.85258	0.69946	3.8513	71.15	-0.2472	-0.0247	0.2225	1578.636	0.144866	-476.260855	-476.2504	-476.249456	-476.298182	35.309	
C	 0.0378178668	 1.4342865768	 0.03275856	-0.338729
N	-0.0712122057	-0.0145423173	 0.0338061162	-0.310295
C	-1.2548355702	-0.6661278349	 0.0267185529	 0.400216
O	-2.3467462306	-0.1140537329	 0.0298528142	-0.392678
C	-1.1973454101	-2.2055207789	 0.0009669867	 0.008369
O	-2.4790606385	-2.7000603251	 0.2750614535	-0.433982
C	-0.7018795585	-2.7089948166	-1.3776463961	-0.285525
C	-0.6659965082	-4.2226268721	-1.4314532192	 0.151901
O	 0.3119252539	-4.8612405861	-1.7288105417	-0.24233
H	 0.5752885701	 1.7888456451	-0.8528696916	 0.135719
H	-0.9739665715	 1.8395670054	 0.0234606305	 0.176865
H	 0.5581732543	 1.7903935919	 0.927821946	 0.136004
H	 0.7743327041	-0.5615416888	 0.0585485013	 0.25758
H	-0.4988654732	-2.5501382637	 0.7788243145	 0.096401
H	-3.0543751332	-1.9146400888	 0.2348217334	 0.29655
H	-1.4132365947	-2.3505461254	-2.1335397088	 0.131512
H	 0.2951986378	-2.3302020027	-1.6207822496	 0.106582
H	-1.6239862224	-4.7137580458	-1.1646514422	 0.105838
44.4291	67.7056	72.6636	76.4404	108.2828	197.4311	233.4497	282.5358	375.2488	389.9332	465.314	499.9692	518.9717	531.6133	684.1041	755.6107	853.7389	870.8821	936.5363	1050.2129	1057.7133	1083.2722	1149.3932	1154.6387	1173.803	1223.3334	1240.6958	1281.4895	1303.8004	1363.0161	1417.2674	1443.7561	1446.5772	1457.9008	1498.3334	1498.6525	1576.8695	1769.2666	1826.5735	2932.7033	2989.9647	3029.7303	3037.0012	3092.8606	3101.6319	3162.0059	3623.4593	3637.9532
CNC(=O)C(O)CC=O	CNC(=O)[C@@H](O)CC=O	
InChI=1S/C5H9NO3/c1-6-5(9)4(8)2-3-7/h3-4,8H,2H2,1H3,(H,6,9)	InChI=1S/C5H9NO3/c1-6-5(9)4(8)2-3-7/h3-4,8H,2H2,1H3,(H,6,9)/t4-/m0/s1
