18
gdb 114276	4.43263	1.13322	1.09165	1.3526	73.46	-0.2315	0.0242	0.2556	1144.886	0.147642	-438.894427	-438.886832	-438.885888	-438.926496	30.22	
O	-0.0438307437	 1.5159964376	-0.2119563595	-0.414645
C	 0.1562188141	 0.147591999	 0.0902758877	-0.09173
C	-1.1872832103	-0.5553848563	 0.150736802	 0.052852
O	-1.9004222118	-0.4619718391	-1.1724013581	-0.382091
C	-1.8005238256	-1.9027364543	-1.2227962716	 0.362492
C	-2.4091058204	-3.3454586046	-1.2451892732	-0.240578
N	-1.0572061548	-3.4849210446	-0.4674814983	-0.16778
C	-0.4707459039	-2.6025804411	-1.5679644931	-0.213558
C	-1.5222864541	-2.1034063997	 0.2128599544	-0.088039
H	-0.5485237734	 1.5368747471	-1.0345315758	 0.295686
H	 0.8334583599	-0.3207607331	-0.6337102607	 0.097366
H	 0.6319077712	 0.1006334816	 1.0760149498	 0.120535
H	-1.8033505946	-0.0532938895	 0.9032401536	 0.115649
H	-3.2930464216	-3.5308347769	-0.6334813113	 0.121835
H	-2.407331661	-3.9264338392	-2.1711913519	 0.117112
H	-0.3880869287	-3.1059305273	-2.5337055382	 0.106088
H	 0.4700169872	-2.1363592551	-1.2821764137	 0.112966
H	-2.3350818785	-2.3007290145	 0.9100670179	 0.095841
87.9291	161.8512	203.5254	302.8204	380.3194	427.907	460.5267	475.1907	575.8055	589.8494	674.9679	729.2934	778.2726	826.7289	855.6901	896.0495	912.3835	976.4952	989.7411	1016.0202	1032.5927	1058.4227	1075.0667	1111.1967	1123.0922	1156.635	1167.0606	1180.0148	1214.1448	1232.8512	1243.9542	1292.79	1327.5543	1363.6308	1401.2979	1432.2779	1494.3034	1502.0573	1543.7555	3028.7449	3062.3946	3064.2305	3078.6853	3084.6437	3115.6758	3149.5152	3163.476	3786.0128
OCC1OC23CN(C2)C13	OC[C@H]1O[C@@]23CN(C2)[C@@H]13	
InChI=1S/C6H9NO2/c8-1-4-5-6(9-4)2-7(5)3-6/h4-5,8H,1-3H2	InChI=1S/C6H9NO2/c8-1-4-5-6(9-4)2-7(5)3-6/h4-5,8H,1-3H2/t4-,5+/m1/s1
