21
gdb 106725	2.44878	1.49001	1.10979	1.3975	83.9	-0.2229	0.025	0.2478	1171.9505	0.182252	-387.087564	-387.078553	-387.077609	-387.120874	34.991	
C	 0.0065488126	 1.5600331476	-0.0587431774	-0.4876
C	-0.0048512748	 0.0521300244	 0.0570364648	 0.25433
C	 1.2582753939	-0.7613308042	-0.1654608795	-0.351969
C	 0.6102453288	-0.7616475948	 1.199648395	 0.329099
C	 1.3403060115	-0.1369947995	 2.3540695034	-0.185062
O	 2.2389583007	-1.1088561136	 2.8830126847	-0.422019
C	-0.3454302642	-1.919764503	 1.5074973466	-0.326124
C	-1.4346238813	-1.7743350819	 0.4684990039	-0.091397
C	-1.2562019003	-0.6935842223	-0.2925027868	-0.125827
H	 0.965964483	 1.9848075434	 0.249951296	 0.116101
H	-0.1642930023	 1.8673173962	-1.0974244363	 0.117967
H	-0.7788256835	 2.0179317446	 0.5533921936	 0.117063
H	 1.1983104764	-1.6531398783	-0.7810951044	 0.106861
H	 2.1935031459	-0.2147998207	-0.2501881957	 0.104161
H	 1.8839195763	 0.7608885373	 2.0222839849	 0.079752
H	 0.6177357042	 0.1817877105	 3.1234891173	 0.082497
H	 2.6373494284	-0.7434461284	 3.6787462143	 0.284367
H	 0.156988354	-2.8931724926	 1.4557894536	 0.117347
H	-0.7473315515	-1.8402943004	 2.5277953687	 0.100381
H	-2.2412370564	-2.49103303	 0.3619769899	 0.090838
H	-1.9054851716	-0.3753058044	-1.1016296266	 0.089235
85.6171	144.7068	191.5333	211.0794	261.4506	274.8728	291.3529	370.8805	417.577	450.3042	492.8609	582.1293	708.3437	732.5576	756.1768	791.0361	898.5411	926.3678	939.5603	957.3234	963.3184	970.2344	989.1165	1014.2168	1054.1008	1067.284	1095.0622	1119.3867	1156.8964	1191.7731	1221.1221	1247.7931	1266.9699	1282.5758	1331.843	1379.4988	1390.9982	1417.5912	1464.742	1472.2639	1485.6945	1491.2758	1502.1268	1519.8318	1674.6109	2960.3933	2996.0434	3006.2351	3024.4305	3050.8149	3079.8393	3105.5601	3114.507	3177.0456	3202.6997	3204.3729	3822.764
CC12CC1(CO)CC=C2	C[C@@]12C[C@]1(CO)CC=C2	
InChI=1S/C8H12O/c1-7-3-2-4-8(7,5-7)6-9/h2-3,9H,4-6H2,1H3	InChI=1S/C8H12O/c1-7-3-2-4-8(7,5-7)6-9/h2-3,9H,4-6H2,1H3/t7-,8+/m1/s1
