19
gdb 96637	1.59297	1.23945	0.82613	0.7752	75.25	-0.1834	0.0465	0.2299	1454.253	0.15541	-456.398986	-456.386904	-456.38596	-456.439391	39.144	
C	 0.0940721933	 0.7841144185	 0.5989499717	-0.3232
N	-0.5656346176	 0.2271085172	-0.5852970505	-0.331468
H	-1.4325183096	-0.2334709657	-0.3429893322	 0.22956
C	 0.1820981974	-0.5812071574	-1.4578728595	 0.332336
N	 1.341805531	 0.066075872	-1.9179318486	-0.553327
C	-0.1924233783	-1.8251666376	-1.8105237213	-0.167953
C	 0.4095455402	-2.6506732912	-2.9133251276	-0.442935
C	 3.1113928155	-1.8234329864	-0.146421333	 0.599442
O	 2.8096237572	-1.4535025003	 0.913374425	-0.296262
O	 3.4374605219	-2.2112811505	-1.1939675292	-0.306274
H	 0.438404033	 0.0174806987	 1.30846295	 0.120657
H	 0.9633196769	 1.3705474853	 0.2976139175	 0.134236
H	-0.605918428	 1.4507596341	 1.110298885	 0.115955
H	 1.1642811654	 1.0193856662	-2.2128918015	 0.242886
H	 1.8346105309	-0.4515405804	-2.6316173386	 0.248993
H	-1.016220769	-2.2687200936	-1.2582853181	 0.057703
H	-0.3638059405	-3.2222045007	-3.4395687777	 0.114639
H	 0.9096169074	-2.0304205038	-3.6675053774	 0.101926
H	 1.1524793929	-3.3768052042	-2.556700064	 0.123083
23.3346	45.4979	62.7259	65.8088	89.0651	105.0857	137.769	145.3747	205.4326	285.359	335.2586	394.2541	465.1336	538.4848	620.8225	676.8731	685.2935	734.619	771.13	789.3178	853.0912	982.0607	1044.5207	1059.9481	1117.8522	1143.0783	1153.8124	1191.4367	1306.0443	1377.8436	1389.4041	1421.1625	1462.2596	1479.3314	1486.4262	1491.2133	1501.0701	1519.4652	1629.561	1740.0498	2431.1203	2998.5728	3006.0255	3051.293	3074.1907	3088.4967	3137.2427	3157.8606	3525.4063	3577.5202	3643.2455
C[NH+]=C(N)C(C)C([O-])=O	CNC(=[NH2])[CH]C.C(=O)=O	
InChI=1S/C5H10N2O2/c1-3(5(8)9)4(6)7-2/h3H,1-2H3,(H2,6,7)(H,8,9)	InChI=1S/C4H10N2.CO2/c1-3-4(5)6-2;2-1-3/h3,6H,5H2,1-2H3;
