12
gdb 131315	5.68914	1.37	1.10412	2.4663	61.39	-0.2404	-0.0054	0.235	973.7826	0.081815	-464.999443	-464.993256	-464.992312	-465.029902	23.917	
O	 0.094791374	 1.2540229573	-0.1085247947	-0.396272
C	 0.0724402502	-0.0779539932	-0.0563413549	 0.430315
N	 0.0321599095	-0.7898891432	-1.1817222524	-0.353165
N	 0.0233619412	-2.0550061386	-0.6496697703	 0.03391
C	-0.0094234517	-3.3719187869	-1.013321594	 0.031898
N	 0.0030702592	-4.1399365066	 0.0484801119	-0.205849
N	 0.0449054447	-3.2795073223	 1.1218050063	-0.368339
C	 0.0576276889	-1.9934265851	 0.7099009848	 0.527066
N	 0.0901346446	-0.7433402526	 1.1430446386	-0.485631
H	 0.1228172551	 1.5672186161	 0.8038399516	 0.315676
H	-0.0407051132	-3.729883293	-2.0278605207	 0.175387
H	 0.0596623574	-3.6480136519	 2.0557326339	 0.295004
163.4014	311.1469	347.6885	372.1468	405.6128	423.9603	576.071	615.0029	648.4866	737.3277	770.7336	815.818	832.457	872.746	993.7945	1027.7895	1063.7169	1188.8484	1225.2812	1249.1775	1353.1008	1390.8944	1405.3305	1466.6196	1558.6466	1609.1663	1670.0776	3301.0392	3703.6765	3812.6926
OC1=NN2C=NNC2=N1	Oc1nn2cn[nH]c2n1	
InChI=1S/C3H3N5O/c9-3-5-2-6-4-1-8(2)7-3/h1H,(H2,5,6,7,9)	InChI=1S/C3H3N5O/c9-3-5-2-6-4-1-8(2)7-3/h1H,(H2,5,6,7,9)
