18
gdb 97039	3.18097	1.31441	0.94661	1.8971	80.14	-0.2263	0.0092	0.2355	1233.4118	0.147887	-435.299968	-435.290476	-435.289532	-435.335612	32.566	
C	 0.0504076259	 1.4389367622	-0.0327790973	-0.33127
N	 0.0801013384	-0.0120394613	-0.0255698575	-0.373618
C	 0.5722908774	-0.6260850024	 0.9541324142	 0.52647
O	 1.1175081527	-0.0737496699	 2.0845907646	-0.259091
C	 1.5655132374	-1.1098771961	 2.9588627594	-0.194884
C	 1.236164398	-2.4078155542	 2.2406175437	 0.332192
N	 1.418111949	-3.6238657756	 2.5665338666	-0.54727
N	 0.6508811816	-2.0119075568	 1.0633249996	-0.144247
C	 0.1702235453	-2.9302869911	 0.0509462643	-0.335243
H	 0.5929728444	 1.8089707684	-0.9105725253	 0.123828
H	-0.9862773215	 1.7805076048	-0.1349431294	 0.123828
H	 0.48142871	 1.9026516162	 0.8618316822	 0.122595
H	 2.6419123357	-1.0046208384	 3.1327950191	 0.141792
H	 1.0424222468	-1.0334276818	 3.9182885128	 0.141792
H	 1.8671734163	-3.6920190269	 3.4784703676	 0.21946
H	-0.5987120279	-3.5846350407	 0.471101281	 0.144072
H	-0.2405209868	-2.3345474234	-0.7632914327	 0.165527
H	 0.9914168973	-3.5558473029	-0.309999433	 0.144067
46.6517	50.992	97.5034	158.3359	169.4615	206.987	266.2955	283.6127	393.7746	559.6857	560.2326	631.3125	698.5962	711.2165	753.1064	819.1234	944.5595	1035.1673	1043.1559	1066.8994	1101.3918	1122.5082	1138.2095	1163.349	1181.0575	1208.0802	1237.5399	1344.3343	1377.3243	1428.1347	1444.7897	1485.2608	1486.5703	1495.8966	1501.5731	1503.5125	1514.5736	1743.6548	1824.153	3014.0855	3039.8689	3050.0373	3070.0825	3081.3369	3083.2045	3110.4603	3169.7959	3497.4807
CN=C1OCC(=N)N1C	CN=C1OC[C]([NH])N1C	
InChI=1S/C5H9N3O/c1-7-5-8(2)4(6)3-9-5/h6H,3H2,1-2H3	InChI=1S/C5H9N3O/c1-7-5-8(2)4(6)3-9-5/h6H,3H2,1-2H3
