20
gdb 107444	2.66564	1.48195	1.32776	1.7337	77.12	-0.2254	0.0756	0.301	1069.217	0.172751	-403.106352	-403.098442	-403.097498	-403.13879	31.671	
O	-0.0216350523	 1.3521065411	 0.419485492	-0.419112
C	-0.027261727	 0.0425932167	-0.1244543298	-0.148835
C	-1.3956686634	-0.5938757956	-0.0365021668	 0.294699
C	-1.9030723435	-1.4424775085	-1.1447720469	-0.306192
N	-2.4056228258	-0.0673122076	-0.9975317697	-0.14311
C	-3.6944411288	 0.059466473	-0.2714475107	-0.191492
C	-3.4665561589	-0.271291385	 1.2058755061	-0.033944
C	-3.1208307459	-1.6802409815	 1.6154143911	-0.312661
C	-2.0173427298	-0.6889089559	 1.3433311857	-0.080228
H	-0.690714021	 1.8457188923	-0.0691590437	 0.288716
H	 0.3038001885	 0.0417550518	-1.1733149214	 0.090793
H	 0.7011346249	-0.5334113032	 0.4571860061	 0.108964
H	-1.2872744738	-1.6060246826	-2.0269176102	 0.110055
H	-2.5689852439	-2.2702766303	-0.9202392913	 0.110791
H	-4.0261394433	 1.0986751983	-0.3655183472	 0.108668
H	-4.4590492422	-0.5669785791	-0.745530462	 0.107231
H	-3.9354469417	 0.3726794302	 1.9422090848	 0.089905
H	-3.2936686262	-1.9424799687	 2.6545678053	 0.113073
H	-3.2957208224	-2.5026772948	 0.9314181431	 0.112636
H	-1.4068330237	-0.3374043205	 2.1657459255	 0.100044
70.2866	143.9507	239.9342	254.7121	320.7192	402.2641	445.1066	451.345	566.6143	595.1666	684.8302	713.3249	764.72	819.4013	833.9206	842.2708	900.7373	942.1369	980.0043	992.5726	1004.8491	1025.8365	1058.0084	1070.2599	1073.9628	1106.2564	1123.9591	1135.7322	1157.1552	1197.9108	1206.1801	1236.091	1258.6559	1321.9513	1345.4473	1357.0642	1397.0841	1403.431	1428.8297	1487.4313	1495.2532	1501.4336	1526.2336	2996.9297	3035.0096	3069.4167	3071.4671	3100.0818	3131.162	3162.8812	3182.1079	3190.5967	3213.0096	3793.2243
OCC12CN1CC1CC21	OC[C@]12CN1C[C@H]1C[C@@H]21	
InChI=1S/C7H11NO/c9-4-7-3-8(7)2-5-1-6(5)7/h5-6,9H,1-4H2	InChI=1S/C7H11NO/c9-4-7-3-8(7)2-5-1-6(5)7/h5-6,9H,1-4H2/t5-,6-,7+,8?/m1/s1
