21
gdb 74333	4.15301	0.94717	0.8182	1.6702	86.9	-0.2258	0.0239	0.2496	1468.1726	0.182183	-387.08755	-387.078517	-387.077573	-387.121827	33.739	
C	-0.108967466	 1.5493792211	-0.0886816045	-0.492715
C	-0.0139382528	 0.0600786492	-0.0192892227	 0.296801
C	-0.9657624873	-0.8359247919	 0.2260832033	-0.216394
C	-0.4059424777	-2.2337785893	 0.2018906211	 0.080682
O	 0.9944939571	-2.0497860384	-0.0550086593	-0.280476
C	 1.2835046443	-0.6732492904	-0.2523539166	-0.153018
C	-0.6098916074	-3.0146666644	 1.4812832076	 0.028183
C	-1.8482301617	-3.8626116845	 1.6442229919	-0.272863
C	-0.5019030533	-4.5164677079	 1.4669096393	-0.266654
H	 0.5579598717	 2.0234389863	 0.642494127	 0.129447
H	 0.1965122336	 1.9204682981	-1.0752208994	 0.129453
H	-1.1269876616	 1.8967983506	 0.1041868836	 0.128356
H	-2.0100230637	-0.6298352042	 0.4266051916	 0.098302
H	-0.842692274	-2.8218540579	-0.6262641338	 0.069224
H	 1.6684400079	-0.5049048544	-1.2729269039	 0.096404
H	 2.0763444648	-0.352614451	 0.4428249156	 0.099341
H	-0.2443807504	-2.504409793	 2.3679480432	 0.079978
H	-2.3201489296	-3.8992784728	 2.6195699951	 0.110465
H	-2.5461921467	-3.9077238202	 0.8138946776	 0.108923
H	-0.2904039699	-4.9955043819	 0.5165732254	 0.115509
H	-0.0480221775	-5.0054296731	 2.321351658	 0.111051
71.3891	74.5761	137.2845	170.1472	217.4068	286.6258	305.8691	365.945	452.2083	475.1134	610.0051	754.2308	789.0199	824.0279	834.2404	882.225	904.2115	912.8272	927.227	984.8369	1001.1773	1001.4929	1047.3656	1057.7024	1076.4091	1094.4371	1101.7591	1134.6427	1169.0375	1196.2222	1203.2891	1215.4901	1222.125	1283.4119	1319.0626	1330.4771	1386.4681	1414.9374	1423.2295	1469.3187	1480.1209	1489.5662	1504.6202	1521.4864	1734.6946	2925.012	2954.7791	2977.5674	3019.8824	3065.4299	3116.0979	3128.9078	3134.802	3148.2888	3207.5026	3209.6091	3223.2149
CC1=CC(OC1)C1CC1	CC1=C[C@@H](OC1)C1CC1	
InChI=1S/C8H12O/c1-6-4-8(9-5-6)7-2-3-7/h4,7-8H,2-3,5H2,1H3	InChI=1S/C8H12O/c1-6-4-8(9-5-6)7-2-3-7/h4,7-8H,2-3,5H2,1H3/t8-/m1/s1
