20
gdb 62863	2.76601	1.8605	1.43134	1.5037	77.23	-0.2317	0.0754	0.3072	979.2653	0.171519	-403.070793	-403.063039	-403.062094	-403.102493	31.911	
C	-0.1398417377	 1.4531551657	 0.3885296403	-0.449586
C	-0.0760087257	-0.0350178227	 0.0062083709	 0.352298
C	-1.5035667121	-0.5221804674	-0.3089284249	-0.456177
C	 1.1609373907	-0.3080209464	-0.9197540635	 0.010526
O	 2.0153176308	-0.0992375622	 0.2637188274	-0.302925
C	 0.9153484541	-0.7996324085	 0.951950756	 0.010531
C	 1.1156681825	-2.2134597508	 0.3618488513	-0.049221
N	 0.1271861033	-2.6456129247	-0.6529748644	-0.336939
C	 1.3021064777	-1.8403048197	-1.0587600818	-0.049221
H	 0.8417158084	 1.8628865817	 0.6246055278	 0.133462
H	-0.5746889489	 2.0300666435	-0.4356382218	 0.109534
H	-0.7961799286	 1.5859645132	 1.2561418188	 0.109534
H	-1.592413187	-0.8957885212	-1.3297395968	 0.125544
H	-1.8115298905	-1.3381846422	 0.3458562676	 0.12564
H	-2.2139365664	 0.3015424912	-0.1844064322	 0.092189
H	 1.4231376866	 0.3257153329	-1.7678380541	 0.072736
H	 0.9241876347	-0.6732800924	 2.0352660491	 0.072734
H	 1.7294228467	-2.942038374	 0.8775771578	 0.099459
H	 0.3154435963	-3.6204005719	-0.8842860978	 0.230425
H	 2.0672862851	-2.2658091941	-1.6966821397	 0.099456
110.1865	185.9321	264.3587	301.6999	320.57	383.6413	421.7355	439.1999	589.3287	604.2838	662.5435	708.5853	757.4763	830.6444	832.734	854.05	892.4105	895.8602	919.0549	938.4065	970.5512	992.9915	1019.8681	1047.2856	1054.4341	1102.4722	1121.0873	1172.6173	1185.7222	1190.3232	1230.9423	1235.9864	1241.4262	1293.4308	1323.5464	1334.6026	1395.2538	1403.1966	1426.4377	1484.3963	1491.3193	1496.4075	1513.9033	3029.212	3045.5917	3085.0533	3113.3262	3116.3392	3118.9383	3142.669	3151.8123	3181.9282	3191.9892	3470.5334
CC1(C)C2OC1C1NC21	CC1(C)[C@H]2O[C@@H]1[C@H]1N[C@@H]21	
InChI=1S/C7H11NO/c1-7(2)5-3-4(8-3)6(7)9-5/h3-6,8H,1-2H3	InChI=1S/C7H11NO/c1-7(2)5-3-4(8-3)6(7)9-5/h3-6,8H,1-2H3/t3-,4+,5+,6-
