19
gdb 74290	2.70785	1.17876	1.11454	3.6626	83.06	-0.237	-0.0005	0.2365	1227.8591	0.158884	-382.096508	-382.087228	-382.086284	-382.130337	34.488	
C	-0.0010375725	 1.5351967311	 0.0637054206	-0.492566
C	 0.0423158493	 0.0433316965	 0.0084382928	 0.332973
C	-0.0493207727	-0.7443465975	-1.060522825	-0.205676
C	 0.0244396063	-2.2121687902	-0.6800977797	 0.114308
C	 1.017555566	-3.0265904402	-1.5273160059	-0.404655
N	 0.4592764297	-2.1406290497	 0.728465476	-0.33672
C	 0.1820593999	-0.7972385146	 1.2549662683	-0.250055
C	-1.3283941225	-2.8209567479	-0.8020904583	 0.238174
N	-2.3771903895	-3.3061680265	-0.8594611759	-0.345915
H	 0.9178936367	 1.9398968998	 0.5051552867	 0.134345
H	-0.1257466079	 1.9717382929	-0.9300910328	 0.132425
H	-0.8299502276	 1.8796264053	 0.6945078129	 0.136654
H	-0.1840483274	-0.4305466046	-2.0878286045	 0.107989
H	 2.0049643168	-2.567577377	-1.4439431447	 0.129591
H	 1.0762034818	-4.0563562322	-1.1641553286	 0.129581
H	 0.71177297	-3.0494826835	-2.5776003791	 0.126175
H	 0.0589260082	-2.8796110449	 1.2919210023	 0.232833
H	 1.0061487593	-0.4552820818	 1.8965912186	 0.112011
H	-0.7385171638	-0.7363329149	 1.8611015662	 0.108528
82.8379	126.7263	168.0419	194.5764	214.2108	234.9837	285.469	359.0149	382.4797	467.9596	493.7181	556.2563	605.5159	631.6301	685.4625	834.8008	857.6608	890.4719	915.7912	972.2014	995.0923	1018.4405	1058.8807	1099.5461	1115.016	1148.7961	1196.6524	1205.5983	1231.4271	1304.6682	1360.9641	1401.1154	1414.264	1444.9557	1477.7689	1483.324	1486.6399	1491.2465	1514.2014	1728.9623	2333.8298	2952.6435	3012.5255	3024.2174	3044.5017	3072.2055	3120.022	3120.4608	3137.0912	3216.7989	3570.2401
CC1=CC(C)(NC1)C#N	CC1=C[C@@](C)(NC1)C#N	
InChI=1S/C7H10N2/c1-6-3-7(2,5-8)9-4-6/h3,9H,4H2,1-2H3	InChI=1S/C7H10N2/c1-6-3-7(2,5-8)9-4-6/h3,9H,4H2,1-2H3/t7-/m1/s1
