19
gdb 83162	2.56885	1.49093	1.34873	3.6769	75.33	-0.2157	0.0308	0.2465	1052.5269	0.161128	-419.218183	-419.209759	-419.208815	-419.251423	31.66	
C	 0.3001706868	 1.7580935572	-0.1555372818	-0.434613
C	 0.0762821342	 0.262430569	-0.0816150077	 0.009155
C	 0.4202257127	-0.7160570905	-1.1568787402	-0.034737
C	 1.1395427935	-0.3453996276	-2.4412395495	-0.191853
N	 2.3739316235	 0.3878062943	-2.2144505907	-0.307187
C	 3.1332611716	 0.3777903329	-1.0809003667	 0.369581
O	 4.229937629	 0.9029545222	-1.0288132158	-0.375327
C	 2.5365105958	-0.3376279503	 0.1297032549	-0.268093
N	 1.1333986242	-0.7410885472	 0.1200808989	-0.119543
H	 1.1037177257	 2.0528053775	-0.8302343944	 0.143387
H	-0.6199451503	 2.2427862294	-0.4999046741	 0.123826
H	 0.5226778415	 2.1605613068	 0.8389842385	 0.130051
H	-0.8083593161	 0.0109211186	 0.5041830035	 0.093545
H	-0.2531364449	-1.5600324828	-1.304362852	 0.093608
H	 1.3439113466	-1.2727516169	-2.9970069697	 0.118449
H	 0.4783815692	 0.2586854967	-3.0765336939	 0.120672
H	 2.829010264	 0.8118414961	-3.0106453422	 0.248418
H	 3.1402632391	-1.2430092499	 0.2712881207	 0.13977
H	 2.7330366239	 0.2944194643	 1.0008192521	 0.14089
71.5191	135.0566	143.9507	162.5746	245.153	411.8599	418.555	434.8178	505.0042	526.8111	581.4495	647.049	722.0614	747.3199	783.0398	853.2868	869.7179	982.9765	1001.0222	1021.0033	1054.8097	1060.7493	1136.824	1149.9881	1163.3449	1190.5363	1266.4636	1273.9506	1331.2268	1338.6227	1354.1002	1377.4384	1395.937	1423.1458	1452.2296	1462.7457	1489.278	1499.939	1503.2294	1529.9606	1791.4119	2986.0137	3025.6733	3034.5367	3038.9876	3089.5954	3091.2782	3092.2268	3104.5379	3153.7239	3600.2407
CC1C2CNC(=O)CN12	C[C@H]1[C@H]2CNC(=O)CN12	
InChI=1S/C6H10N2O/c1-4-5-2-7-6(9)3-8(4)5/h4-5H,2-3H2,1H3,(H,7,9)	InChI=1S/C6H10N2O/c1-4-5-2-7-6(9)3-8(4)5/h4-5H,2-3H2,1H3,(H,7,9)/t4-,5+,8?/m0/s1
