20
gdb 22604	2.82008	1.23081	1.04991	1.3833	84.01	-0.2266	0.0166	0.2431	1233.8397	0.169173	-403.088582	-403.079221	-403.078277	-403.122213	35.674	
C	-0.1026361669	 1.6114317879	 0.0142616914	-0.414675
C	 0.0622405649	 0.0949724361	 0.0006259244	-0.138575
C	 1.1195882926	-0.5679923747	-0.8862690748	 0.445095
N	 1.319340926	-0.6773116939	-2.1334532601	-0.277716
O	 0.3941761845	 0.1124587747	-2.8576194129	-0.400719
C	 1.7730819131	-1.2664411305	 0.2472418997	-0.198785
C	 2.1665939687	-0.245442957	 1.302424503	-0.333555
C	 0.7255216639	-0.6334808775	 1.2017392107	 0.346765
C	-0.0428362965	-1.2747415038	 2.3202791295	-0.497089
H	 0.839188929	 2.1211232943	 0.2376948501	 0.115568
H	-0.4473387608	 1.960072632	-0.9623156813	 0.140949
H	-0.8365406978	 1.9150333864	 0.7686948554	 0.112478
H	-0.9028159364	-0.3755401303	-0.2280404122	 0.097411
H	 0.6529668796	-0.064036046	-3.7678682066	 0.304057
H	 2.1914363953	-2.2650137467	 0.2307892006	 0.10068
H	 2.6997425757	-0.6681565918	 2.1491531346	 0.115178
H	 2.5214635518	 0.7377736134	 1.0073435511	 0.11677
H	-0.4793374151	-0.5190073638	 2.9846622591	 0.124308
H	-0.8629789159	-1.8928700533	 1.9379811097	 0.121432
H	 0.6040005642	-1.9131646854	 2.9307940287	 0.120423
86.2593	169.2151	196.8213	198.2942	211.3904	254.3909	275.3331	341.8741	352.0376	414.4455	486.2006	519.5196	619.6262	629.1247	713.8929	759.5212	797.8979	895.9541	916.7062	961.8054	970.5645	992.0802	1036.5022	1063.695	1078.8552	1099.3433	1111.4146	1123.2124	1183.9744	1199.3681	1254.9924	1280.77	1343.3685	1392.1083	1404.9941	1409.8256	1424.8019	1485.7884	1490.8297	1495.8595	1498.4113	1506.5511	1781.6848	3021.1038	3028.5591	3038.4112	3079.7755	3097.3572	3103.7165	3116.463	3125.1917	3192.8713	3200.7805	3824.7146
CC1C(=NO)C2CC12C	C[C@H]1C(=NO)[C@H]2C[C@@]12C	
InChI=1S/C7H11NO/c1-4-6(8-9)5-3-7(4,5)2/h4-5,9H,3H2,1-2H3	InChI=1S/C7H11NO/c1-4-6(8-9)5-3-7(4,5)2/h4-5,9H,3H2,1-2H3/t4-,5+,7-/m0/s1
