20
gdb 8957	3.24378	1.22252	1.0703	3.4186	67.67	-0.2457	0.0703	0.316	1193.2673	0.174845	-423.263444	-423.253536	-423.252592	-423.298306	35.319	
C	 0.1509099917	 1.3084035863	 0.2728053377	-0.23796
O	-0.0282419782	-0.0661260732	 0.0150976964	-0.266043
C	 0.6038197024	-0.5634881271	-1.164610904	 0.106611
C	 2.1172281733	-0.6990786558	-0.9937611298	-0.408843
C	-0.0707657787	-1.9177401232	-1.4273158535	 0.10523
O	-0.0309158731	-2.7278996304	-0.2520116923	-0.451475
C	-1.5237757537	-1.7874499093	-1.8980711721	-0.071771
O	-2.1271915848	-3.0601054506	-1.9955776297	-0.428284
H	 1.1948110589	 1.5613726606	 0.5033532722	 0.114634
H	-0.1758163507	 1.9224501948	-0.5798113796	 0.110851
H	-0.465514412	 1.5547606679	 1.1407731489	 0.1321
H	 0.3816897702	 0.1136322576	-2.0061223974	 0.070575
H	 2.5709618183	-1.0467036992	-1.9271610831	 0.121112
H	 2.5837427233	 0.2550829839	-0.7346115908	 0.115369
H	 2.3394725665	-1.4268140223	-0.2089855677	 0.136741
H	 0.4961824578	-2.4669026805	-2.1873367279	 0.088664
H	-0.2683909809	-2.1357342994	 0.474963057	 0.293424
H	-2.068145799	-1.1289765303	-1.2019138222	 0.086834
H	-1.5603445955	-1.3280171898	-2.8929066297	 0.097524
H	-1.8292739357	-3.5366703998	-1.2091804824	 0.284707
63.6557	92.6384	111.9276	169.9021	201.7253	229.4794	245.9884	314.3259	339.8321	366.4671	448.2541	490.2973	523.5461	564.0055	683.7186	817.0798	871.3265	957.8917	1001.0178	1022.1811	1085.9852	1098.5857	1124.1916	1146.2538	1165.8421	1182.6434	1200.569	1220.6171	1294.7172	1307.0396	1358.8801	1367.4057	1396.3434	1404.0727	1436.4716	1445.6811	1478.8183	1482.6885	1494.7934	1502.8308	1511.1442	1514.032	2968.1743	2977.8777	2988.1279	3040.3087	3046.517	3051.1161	3065.7795	3113.5247	3115.5527	3129.6562	3755.4007	3761.1181
COC(C)C(O)CO	CO[C@@H](C)[C@@H](O)CO	
InChI=1S/C5H12O3/c1-4(8-2)5(7)3-6/h4-7H,3H2,1-2H3	InChI=1S/C5H12O3/c1-4(8-2)5(7)3-6/h4-7H,3H2,1-2H3/t4-,5-/m0/s1
