19
gdb 96374	2.3804	1.74109	1.14851	0.3147	70.86	-0.2522	0.0771	0.3293	1084.3067	0.159735	-460.141329	-460.133275	-460.132331	-460.173694	31.307	
C	-0.0555468705	 1.5301090144	-0.1111401228	-0.428578
C	 0.0916073162	 0.0254870111	 0.0184757719	 0.04792
O	 0.7463119778	-0.4633409735	-1.1558646062	-0.245894
C	 0.888833736	-1.857668986	-1.1413423053	 0.019493
O	 1.689724364	-2.3101592078	-0.0806944604	-0.229719
C	 1.1144903453	-1.9621769191	 1.170868715	-0.174038
C	 0.8687866938	-0.4640775209	 1.2386779682	 0.402414
C	 1.7478090082	 0.3977800342	 2.0342884819	-0.230234
O	 0.4454534717	 0.0201753742	 2.5120795639	-0.283619
H	 0.9126769687	 1.9952172785	-0.314967875	 0.129725
H	-0.7276786103	 1.7693660882	-0.9386776521	 0.126261
H	-0.4691674866	 1.9458146377	 0.811166377	 0.137693
H	-0.9121048906	-0.4335681578	 0.0803672836	 0.074638
H	-0.1084095851	-2.3365811202	-1.0867492519	 0.076199
H	 1.3953991747	-2.1382629741	-2.0665087807	 0.120535
H	 0.1551844406	-2.4892574735	 1.3119225749	 0.098526
H	 1.8034307316	-2.2892780158	 1.9526471498	 0.118603
H	 2.5851374183	-0.0462379481	 2.5704824133	 0.118672
H	 1.8614741163	 1.4503350286	 1.7879623451	 0.121403
102.2365	181.0848	237.0541	269.6411	283.1197	343.8689	370.5619	420.9349	442.4789	491.3836	542.1091	661.0043	756.1534	861.0889	896.7042	906.9087	937.2846	963.5803	1024.6924	1060.5049	1076.3209	1104.8757	1113.294	1128.0382	1156.209	1171.8891	1208.8276	1240.6002	1270.2293	1319.2126	1354.4006	1380.2887	1388.6796	1404.0119	1435.9683	1444.3961	1490.4193	1491.6171	1501.7682	1508.2469	1535.7663	2914.4959	2938.0865	2965.904	3051.6424	3095.9563	3105.6724	3118.2696	3126.6784	3134.7796	3186.7077
CC1OCOCC11CO1	C[C@H]1OCOC[C@]21CO2	
InChI=1S/C6H10O3/c1-5-6(3-9-6)2-7-4-8-5/h5H,2-4H2,1H3	InChI=1S/C6H10O3/c1-5-6(3-9-6)2-7-4-8-5/h5H,2-4H2,1H3/t5-,6-/m1/s1
