17
gdb 69100	2.60159	1.60454	1.17355	2.3816	75.12	-0.2549	0.0169	0.2717	1068.1068	0.133948	-421.780935	-421.772453	-421.771509	-421.81369	32.161	
C	-0.0406161696	 1.511541788	-0.041374755	-0.488037
C	-0.0505401059	 0.0146480467	 0.0651312924	 0.290109
C	-1.25552581	-0.8045734048	-0.3664759547	-0.133052
O	-1.0446556999	-2.1155980272	 0.1378057208	-0.257788
C	-0.2108545292	-2.0546877792	 1.2846884045	-0.170257
C	 0.6101695635	-0.7837453806	 1.1235674273	 0.190624
O	 1.1753031383	-0.6779538695	-0.1991685893	-0.319174
C	 1.3529489345	-0.2469028054	 2.223125254	 0.202886
C	 1.9627444004	 0.1777211285	 3.168292749	-0.368634
H	 0.8459944425	 1.9210891004	 0.4468558371	 0.146128
H	-0.0314946179	 1.8198745198	-1.0921136894	 0.135119
H	-0.9314674846	 1.9391485352	 0.4295504547	 0.128515
H	-2.1729903806	-0.3505072052	 0.042832902	 0.095845
H	-1.3565515885	-0.8768650047	-1.4545210617	 0.120317
H	-0.7914853584	-1.9953067751	 2.2186898344	 0.104383
H	 0.4032348858	-2.9598734991	 1.305875975	 0.126923
H	 2.5095444494	 0.555200172	 3.9970359291	 0.196092
126.1095	143.1333	168.3135	207.2126	236.7449	307.1137	369.646	429.3928	505.0322	540.9285	561.2942	623.0027	631.0764	677.4583	704.0603	773.2479	886.18	931.6948	961.2986	989.8108	1060.9988	1075.6299	1107.063	1136.8944	1198.1699	1222.574	1246.5633	1249.841	1360.3109	1367.6726	1414.4546	1453.8348	1484.8513	1493.8311	1498.4485	1510.6885	2241.0349	2973.4688	2988.0433	3041.7598	3071.5593	3085.1725	3105.2082	3135.3074	3500.3865
CC12COCC1(O2)C#C	C[C@]12COC[C@]1(O2)C#C	
InChI=1S/C7H8O2/c1-3-7-5-8-4-6(7,2)9-7/h1H,4-5H2,2H3	InChI=1S/C7H8O2/c1-3-7-5-8-4-6(7,2)9-7/h1H,4-5H2,2H3/t6-,7+/m0/s1
