16
gdb 5574	3.2389	1.80503	1.2425	2.5471	67.05	-0.1944	0.0456	0.24	971.1839	0.131299	-379.962322	-379.954295	-379.953351	-379.9951	29.185	
C	 0.0022676279	 1.6319054363	-0.192279699	-0.359876
C	-0.03976455	 0.1363159686	 0.1590890585	-0.301127
C	-1.4251222124	-0.431065342	 0.1562840868	 0.162548
C	-2.1429469875	-0.9660793486	 1.1955151988	 0.293013
O	-1.903404492	-1.1850367381	 2.512845833	-0.436179
N	-3.3625753606	-1.3352138436	 0.6879733762	-0.29294
C	-3.344078203	-1.0092968567	-0.6449134446	-0.004246
N	-2.2049239741	-0.47017007	-0.9903656282	-0.304085
H	 1.0323358274	 2.0006394876	-0.2313982199	 0.10354
H	-0.4628878486	 1.7984926434	-1.1673679967	 0.141117
H	-0.5475031475	 2.2250927372	 0.5456510575	 0.109188
H	 0.5816680077	-0.4172179326	-0.5563836593	 0.11662
H	 0.4236607532	-0.0246449552	 1.1432669313	 0.067943
H	-1.0086265183	-0.8890188092	 2.7084544927	 0.308424
H	-4.107130352	-1.7616292678	 1.21340179	 0.269947
H	-4.1880245401	-1.1954384894	-1.2914321768	 0.126113
46.7546	153.0939	201.1297	217.4121	282.1269	286.0836	382.4218	475.5018	487.9898	628.1171	668.753	706.671	744.9224	771.0513	785.5979	945.2727	982.3769	1034.8102	1085.7487	1096.8006	1127.9904	1207.3977	1284.8434	1287.465	1319.0343	1360.2054	1403.6238	1410.9859	1474.5681	1493.2731	1505.9795	1511.3063	1549.4019	1656.1785	2999.6173	3035.403	3039.6079	3103.8369	3123.128	3254.1916	3667.8382	3835.1981
CCC1=C(O)NC=N1	CCc1c(O)[nH]cn1	
InChI=1S/C5H8N2O/c1-2-4-5(8)7-3-6-4/h3,8H,2H2,1H3,(H,6,7)	InChI=1S/C5H8N2O/c1-2-4-5(8)7-3-6-4/h3,8H,2H2,1H3,(H,6,7)
