19
gdb 97548	3.16102	0.69931	0.65217	2.1309	77.47	-0.2587	0.0198	0.2785	1762.6958	0.155703	-460.120323	-460.10933	-460.108385	-460.157754	38.796	
C	-0.1891985531	 1.5916177817	-0.1023884847	-0.394877
C	-0.0357653993	 0.0675605537	-0.0553425951	 0.120921
O	 0.6099519264	-0.2250187495	 1.2031423344	-0.459425
C	-1.4192816196	-0.6347308647	-0.0313135702	-0.059403
O	-2.1275407827	-0.2911733816	 1.1351265167	-0.421035
C	 0.7560861586	-0.435581487	-1.1784028477	 0.024664
C	 1.3872738344	-0.8776413714	-2.1060312168	 0.072966
C	 2.1484065861	-1.4434331318	-3.2202412916	-0.198053
O	 1.4788363496	-2.5010986488	-3.8900892815	-0.398221
H	 0.7871603843	 2.0692048036	-0.0012610674	 0.128737
H	-0.6401282595	 1.8976761366	-1.0493084116	 0.125234
H	-0.8367190079	 1.9104988324	 0.7170301254	 0.136149
H	 0.9969749936	-1.1048918014	 1.1325199323	 0.28518
H	-2.0184400013	-0.3239676249	-0.8923592769	 0.118334
H	-1.2574432906	-1.7227789281	-0.1074802649	 0.077699
H	-1.487418512	-0.3767586455	 1.8549373944	 0.285708
H	 2.3241377827	-0.6742785186	-3.9803663214	 0.146433
H	 3.1392517452	-1.7588226674	-2.8555393378	 0.12153
H	 1.2285258453	-3.1530921374	-3.2272833056	 0.28746
19.9662	69.9865	94.9883	161.4349	178.9359	214.8844	253.8652	287.9575	303.482	334.8193	368.7924	370.2449	417.2187	532.1555	546.8475	558.4361	593.359	731.6599	854.6335	927.0657	944.6545	980.9204	1029.5984	1068.6393	1089.8865	1116.2248	1165.9437	1198.6153	1214.7409	1240.19	1337.9919	1359.2665	1384.5669	1409.8503	1416.429	1434.7693	1482.7294	1488.732	1490.505	1504.0269	2349.0123	2966.2076	2976.7569	3058.3839	3065.7236	3087.2637	3138.5358	3146.049	3755.655	3806.3372	3816.9392
CC(O)(CO)C#CCO	C[C@@](O)(CO)C#CCO	
InChI=1S/C6H10O3/c1-6(9,5-8)3-2-4-7/h7-9H,4-5H2,1H3	InChI=1S/C6H10O3/c1-6(9,5-8)3-2-4-7/h7-9H,4-5H2,1H3/t6-/m0/s1
