16
gdb 16387	3.08992	2.38831	1.76094	2.3294	64.03	-0.2358	-0.0164	0.2195	778.9091	0.132254	-383.741452	-383.734895	-383.733951	-383.772002	25.943	
O	 0.0243141867	 1.3822136116	 0.1102500191	-0.449737
C	-0.0462736075	-0.0251373279	 0.0402862186	 0.059786
C	-1.4611420214	-0.5552706458	-0.2298647524	-0.043763
C	-1.1483549876	-2.0163792788	-0.6661912521	-0.245868
C	-0.5115186737	-1.3212878168	-1.9160861101	-0.133962
C	-1.6514940124	-0.2485700228	-1.7432149937	-0.232222
C	 0.6153112567	-0.5553159113	-1.2605080962	 0.401925
O	 1.7224628727	-0.2870930303	-1.6495934947	-0.351547
H	 0.9134434944	 1.6291219455	-0.1744256249	 0.293643
H	 0.4000637557	-0.4928124786	 0.9321340552	 0.083328
H	-2.226815032	-0.3240545442	 0.5086385905	 0.080417
H	-0.5026979399	-2.6282571182	-0.029163629	 0.105619
H	-2.0497873865	-2.5717353428	-0.9316850072	 0.114851
H	-0.3040231352	-1.8282650452	-2.8556879631	 0.086319
H	-2.601887847	-0.6179785695	-2.1332168755	 0.110199
H	-1.4618455129	 0.7702659151	-2.0854187146	 0.121011
117.7787	234.6224	261.4607	367.9496	455.2524	468.5928	527.7015	600.3779	706.5514	793.3201	812.0203	850.9728	877.6657	892.8804	932.183	994.634	1006.7107	1022.3909	1061.8752	1078.2732	1099.9342	1141.496	1173.5038	1198.946	1225.156	1240.8921	1253.6662	1285.3078	1315.3899	1351.1343	1404.153	1487.6746	1520.7033	1862.2714	2978.3468	3057.4596	3075.141	3123.5816	3131.9212	3139.1291	3149.1087	3774.7995
OC1C2CC(C2)C1=O	O[C@H]1[C@@H]2C[C@@H](C2)C1=O	
InChI=1S/C6H8O2/c7-5-3-1-4(2-3)6(5)8/h3-5,7H,1-2H2	InChI=1S/C6H8O2/c7-5-3-1-4(2-3)6(5)8/h3-5,7H,1-2H2/t3-,4+,5-/m0/s1
