19
gdb 65436	3.85779	0.79381	0.74269	1.9618	84.37	-0.2418	-0.0249	0.217	1548.5641	0.155358	-385.855556	-385.84546	-385.844516	-385.891487	36.285	
C	 0.0200872354	 1.5374031773	-0.1273187206	-0.459958
C	 0.0028726837	 0.0191713488	-0.0116791825	 0.119666
C	 1.3144940404	-0.748531375	-0.1361479389	-0.312234
C	 0.6209967299	-0.6872662971	 1.1966825885	-0.042386
C	 1.2156033263	 0.0688113396	 2.371762154	-0.314844
C	 2.1687716576	-0.8127839269	 3.1558696796	 0.169752
O	 3.304846858	-0.5241236823	 3.4265957578	-0.234953
C	-1.1740457404	-0.6005686266	-0.5651884632	 0.276437
C	-2.1662134479	-1.1005733225	-1.0271290626	-0.45711
H	 0.9545336736	 1.9598493884	 0.2488729373	 0.119642
H	-0.083397671	 1.8340394338	-1.1751630896	 0.133346
H	-0.8092236624	 1.9832466171	 0.4305580501	 0.129179
H	 1.3105748517	-1.6822775875	-0.6853396186	 0.127568
H	 2.2097812286	-0.1485726937	-0.2667336797	 0.123733
H	 0.0931527161	-1.5923073569	 1.4846744178	 0.104227
H	 1.7605408822	 0.9641594742	 2.066059169	 0.124165
H	 0.4118188797	 0.375737633	 3.0575833455	 0.125762
H	 1.7323267531	-1.7877682331	 3.4771481221	 0.074244
H	-3.0386625347	-1.5459035404	-1.436635666	 0.193764
41.949	58.0161	130.6862	137.6853	170.3303	213.2424	267.088	319.3526	379.7096	410.5277	516.81	541.3472	563.4726	590.5528	645.2473	674.4803	760.4859	842.4062	873.9212	915.5356	942.3791	985.6024	1045.5349	1058.8418	1086.1964	1108.4203	1116.7865	1170.3213	1224.7028	1268.5636	1296.7402	1300.9774	1415.5661	1419.4341	1430.3521	1459.2998	1484.8944	1487.3299	1502.4752	1837.48	2232.5021	2857.4335	3007.9438	3043.1255	3108.8046	3111.3198	3126.3757	3134.2054	3147.7041	3227.0279	3503.307
CC1(CC1CC=O)C#C	C[C@]1(C[C@H]1CC=O)C#C	
InChI=1S/C8H10O/c1-3-8(2)6-7(8)4-5-9/h1,5,7H,4,6H2,2H3	InChI=1S/C8H10O/c1-3-8(2)6-7(8)4-5-9/h1,5,7H,4,6H2,2H3/t7-,8-/m1/s1
