19
gdb 53533	3.7058	0.77694	0.72909	1.9808	80.8	-0.2401	0.0535	0.2936	1622.9189	0.155703	-422.980649	-422.970144	-422.9692	-423.017319	37.485	
C	 0.0032311097	 1.4211260639	-0.292042099	-0.498032
C	 0.0012469287	-0.0178274668	-0.0652182724	 0.092024
C	 0.0344588477	-1.2083428171	 0.1188950139	 0.019823
C	 0.0039330932	-2.6512642057	 0.3515366007	-0.403086
C	-1.3967615886	-3.2107871159	 0.1329876044	 0.404046
O	-2.3739263335	-2.6466817627	 0.9575911413	-0.47126
C	-1.8156530904	-3.6596714362	-1.2562706227	-0.379528
C	-1.5818867976	-4.6636827896	-0.1394447382	 0.038091
O	-0.4349989392	-5.4634438497	-0.1486441995	-0.420215
H	 0.9917913551	 1.7685331545	-0.6121717282	 0.150304
H	-0.713437257	 1.7048377045	-1.0707275043	 0.146625
H	-0.2609509952	 1.9710391984	 0.6180155767	 0.147598
H	 0.7137648746	-3.171205602	-0.298230483	 0.136075
H	 0.3079071405	-2.8673998543	 1.3836849135	 0.135899
H	-2.3604273307	-1.6952852005	 0.7898683573	 0.283563
H	-2.8400184079	-3.4712574723	-1.557094034	 0.113921
H	-1.074396545	-3.6128988897	-2.0474012737	 0.112612
H	-2.4658415645	-5.1157680794	 0.3093280308	 0.101411
H	-0.5346158201	-6.1161893292	-0.8493961338	 0.290128
33.6828	49.4616	78.5866	179.5306	204.7898	240.9301	260.1903	297.1265	366.5883	385.3044	401.3068	419.0746	459.1931	481.7527	548.5111	733.6178	781.1018	843.9183	899.3508	923.1758	976.131	1001.9997	1021.7711	1053.0807	1055.4443	1087.7909	1150.4192	1162.3321	1199.9984	1259.9643	1277.2367	1312.9978	1319.2286	1382.8694	1415.7764	1421.6437	1464.8152	1478.7852	1479.8941	1509.8627	2366.8972	3026.7283	3031.1777	3086.7038	3087.7213	3088.6174	3111.3859	3131.3591	3227.9821	3761.3301	3806.6456
CC#CCC1(O)CC1O	CC#CC[C@@]1(O)C[C@H]1O	
InChI=1S/C7H10O2/c1-2-3-4-7(9)5-6(7)8/h6,8-9H,4-5H2,1H3	InChI=1S/C7H10O2/c1-2-3-4-7(9)5-6(7)8/h6,8-9H,4-5H2,1H3/t6-,7-/m1/s1
