24
gdb 58116	2.82423	0.99667	0.89998	4.1197	89.22	-0.3089	0.0332	0.3421	1435.0866	0.214995	-368.444988	-368.433836	-368.432892	-368.480937	41.541	
C	 0.1205900093	 1.529107735	-0.0857919413	-0.415228
C	-0.0093722737	 0.0028663309	 0.059476259	 0.033709
C	 0.8241520273	-0.4544602746	 1.2697534576	-0.412806
C	-1.4942960939	-0.4963219343	 0.0694785648	 0.261711
C	-2.2567020581	-0.0569481511	 1.3328189488	-0.427902
C	-2.2344448049	 0.0217290017	-1.1799896682	-0.43296
C	-1.4689038778	-2.0562791609	 0.0050548087	-0.369127
C	-2.7948345623	-2.6674565783	-0.0629245848	 0.272362
N	-3.8469807235	-3.1440318171	-0.1127831607	-0.32528
H	 1.1782617935	 1.8103767635	-0.1052604107	 0.115174
H	-0.332748556	 1.9025185563	-1.0063506038	 0.119467
H	-0.3387826633	 2.0571184687	 0.7565998924	 0.119242
H	 0.4472279189	-0.4421271479	-0.8372238324	 0.07081
H	 1.8643611159	-0.1392918205	 1.1412905998	 0.118037
H	 0.4634557169	-0.0060452018	 2.2010469212	 0.122778
H	 0.8345410417	-1.5397085096	 1.4019362024	 0.112729
H	-2.2768809089	 1.0325096745	 1.4234013883	 0.119163
H	-3.2938407317	-0.402994761	 1.2931298571	 0.1387
H	-1.8084534085	-0.4633007432	 2.2443866556	 0.115958
H	-1.6711826462	-0.1943965305	-2.095216201	 0.110516
H	-3.2175209185	-0.449127452	-1.2720383665	 0.139923
H	-2.3940588149	 1.1012352683	-1.1304200121	 0.121458
H	-0.8991886132	-2.3815774936	-0.8737823867	 0.143523
H	-0.9634426678	-2.4706507426	 0.8822412024	 0.148046
45.6432	80.9285	134.9051	193.5023	222.0904	240.0514	258.8941	272.1684	298.3655	344.3945	363.4079	372.2971	400.7057	422.3132	438.4972	489.8411	587.3286	722.9933	822.131	891.3673	922.0831	929.3895	950.8258	960.1088	961.1639	974.2473	1025.8541	1088.1095	1118.2407	1166.5075	1190.9768	1217.8349	1240.5606	1284.2819	1329.4775	1352.1223	1370.6568	1403.52	1406.4998	1420.4421	1433.6517	1463.9211	1485.2686	1485.9045	1488.5282	1502.708	1510.0766	1512.0091	1515.787	1520.5049	2355.7097	2989.9152	3033.773	3037.8023	3041.2826	3042.2203	3047.5389	3093.8821	3096.9305	3102.8648	3105.5641	3111.4684	3113.7445	3116.3205	3121.0867	3128.7454
CC(C)C(C)(C)CC#N	CC(C)C(C)(C)CC#N	
InChI=1S/C8H15N/c1-7(2)8(3,4)5-6-9/h7H,5H2,1-4H3	InChI=1S/C8H15N/c1-7(2)8(3,4)5-6-9/h7H,5H2,1-4H3
