14
gdb 21015	5.11673	1.45851	1.14327	5.5106	68.09	-0.2445	-0.0443	0.2001	989.7454	0.107951	-378.752279	-378.744929	-378.743984	-378.784751	25.517	
C	-0.0599534732	 1.4406718432	 0.0199231831	-0.322428
N	 0.0388349715	-0.0058510797	-0.0337733916	 0.068901
C	 0.1771959054	-0.7848221767	-1.1425357496	-0.018096
C	 0.1603677109	-2.0898971888	-0.7093019154	-0.300597
C	 0.0041957804	-1.9959644494	 0.6947678325	 0.250354
C	-0.0645297727	-3.1189510956	 1.641117611	 0.094119
O	-0.1909993575	-3.0306316434	 2.8385046341	-0.263506
N	-0.0709103806	-0.715881443	 1.0893006907	-0.301502
H	 0.465244728	 1.8706665639	-0.8347705554	 0.143711
H	-1.1064642976	 1.7600124462	 0.0004477207	 0.15381
H	 0.400176097	 1.783707738	 0.9466414151	 0.169308
H	 0.2767046465	-0.3501396396	-2.1244301407	 0.140327
H	 0.2565727988	-2.9818619252	-1.3073891304	 0.119738
H	 0.012472303	-4.1111449397	 1.1397534759	 0.065861
49.02	131.4862	176.6395	182.439	309.1303	382.5539	493.4843	637.8385	678.0184	696.4496	773.0317	801.4264	845.479	1018.8047	1024.4353	1034.3604	1080.5481	1096.8011	1148.4511	1209.9897	1342.4571	1378.8038	1403.0202	1442.1682	1463.1128	1482.0079	1493.2496	1516.1606	1545.7841	1809.3152	2865.8699	3051.8892	3126.648	3163.1792	3256.165	3274.6183
CN1C=CC(C=O)=N1	Cn1ccc(C=O)n1	
InChI=1S/C5H6N2O/c1-7-3-2-5(4-8)6-7/h2-4H,1H3	InChI=1S/C5H6N2O/c1-7-3-2-5(4-8)6-7/h2-4H,1H3
