20
gdb 102518	2.09959	1.19656	0.89297	4.9412	76.15	-0.2389	0.0317	0.2707	1361.6507	0.17053	-436.45114	-436.440427	-436.439483	-436.487206	37.896	
C	-0.0600157597	 1.4276593707	 0.0411994578	-0.324909
N	-0.0092787084	-0.0274280138	-0.0593513234	-0.289126
C	 0.7233688366	-0.5440752575	-1.2135603775	 0.016472
C	 2.2398383354	-0.5855316966	-0.9920059774	-0.11045
O	 2.4592196142	-1.3848335029	 0.166044968	-0.424209
C	 0.1423017299	-1.9616117173	-1.536393589	-0.110732
N	-1.3114301843	-1.9987797416	-1.7005953592	-0.513185
C	 0.7880052827	-2.5210200761	-2.7304698282	 0.285997
N	 1.3123294141	-2.9205341943	-3.6797990878	-0.334891
H	 0.9240087337	 1.9251381752	 0.0536299852	 0.102802
H	-0.6277777361	 1.8338673249	-0.8028505674	 0.125349
H	-0.5864259728	 1.7048900163	 0.9589304533	 0.126496
H	 0.4148017494	-0.4168775827	 0.777596614	 0.235044
H	 0.5147171036	 0.1057398261	-2.0721042581	 0.08459
H	 2.7412279854	-1.0068971205	-1.8736715668	 0.123422
H	 2.6185638563	 0.4371137898	-0.8443829562	 0.094273
H	 3.4055795482	-1.4751636289	 0.3059891549	 0.298201
H	 0.4062029952	-2.6111993191	-0.6930144935	 0.143659
H	-1.6885961863	-1.4412265085	-0.9356313043	 0.240752
H	-1.5657871169	-1.5145815732	-2.5583941946	 0.230446
55.9596	86.5223	109.7609	151.9696	190.0535	210.9596	239.3872	273.8969	280.0472	318.6717	337.0841	394.7333	436.5265	563.2614	578.3427	646.1143	792.5069	864.3881	909.9479	924.883	957.7263	1024.3291	1074.3525	1098.232	1134.4592	1149.1186	1162.739	1180.7991	1200.6383	1233.1179	1268.4897	1301.9032	1344.5311	1364.9059	1412.9851	1442.4013	1460.5514	1490.5404	1500.5832	1518.26	1523.3042	1662.4586	2358.1191	2963.5233	2988.4735	3035.7531	3039.8026	3054.5994	3062.2415	3108.0135	3463.9197	3516.521	3545.8535	3845.8431
CNC(CO)C(N)C#N	CN[C@@H](CO)[C@@H](N)C#N	
InChI=1S/C5H11N3O/c1-8-5(3-9)4(7)2-6/h4-5,8-9H,3,7H2,1H3	InChI=1S/C5H11N3O/c1-8-5(3-9)4(7)2-6/h4-5,8-9H,3,7H2,1H3/t4-,5-/m0/s1
