19
gdb 60810	2.29972	1.60135	1.16707	3.444	71.77	-0.2246	0.0137	0.2383	1113.1952	0.15908	-456.379665	-456.370305	-456.369361	-456.413721	34.338	
C	-0.2308524518	 1.2882445689	-1.3691043052	-0.403008
C	-0.1215421059	 0.4403295593	-0.0871993345	-0.143081
N	-1.343765872	-0.0981883972	 0.474092717	-0.068644
C	-2.5297812618	 0.7162549602	 0.6104716389	-0.322839
C	-1.4897371338	-1.4882752037	 0.1178497831	 0.134622
N	-2.4247043995	-1.7400047736	-0.9400615245	-0.493719
H	-2.1081879632	-1.337627196	-1.8174071961	 0.234069
H	-2.5535367916	-2.7371926183	-1.0777297557	 0.241972
C	 0.676585597	-0.8304998357	-0.3621372531	 0.438364
O	 1.8218841022	-0.920511454	-0.6961640436	-0.346304
O	-0.1377025589	-1.9036479367	-0.202186716	-0.232944
H	 0.7735350593	 1.5519535771	-1.7109796234	 0.147163
H	-0.7342336273	 0.7447003297	-2.175859813	 0.113859
H	-0.7861339257	 2.2110131086	-1.1803883292	 0.124765
H	 0.4213827153	 1.0304465388	 0.6640767051	 0.108778
H	-3.0127661749	 0.9838472826	-0.3410801389	 0.111987
H	-3.268917967	 0.1798710258	 1.2131151162	 0.130346
H	-2.272944598	 1.6399543289	 1.140359237	 0.121946
H	-1.8011947325	-2.0967216547	 0.9766161658	 0.10267
78.3369	109.5249	152.3069	196.5153	223.144	243.3825	280.2696	313.3019	385.8936	419.6737	521.64	552.3747	576.2836	700.1336	716.5028	793.5064	821.1512	849.7251	943.9743	985.437	1048.9625	1073.6903	1103.1875	1126.7686	1155.1665	1184.6176	1218.296	1244.3091	1319.6694	1349.3899	1369.8834	1382.5588	1395.3773	1443.4097	1467.6804	1487.3432	1490.4126	1500.125	1514.5793	1654.8785	1885.3733	2988.4137	3005.3343	3027.8353	3037.9879	3061.6938	3103.6422	3110.0346	3127.1012	3498.855	3588.3827
CC(N(C)C=[NH2+])C([O-])=O	C[C@H]1N(C)[C@@H](N)OC1=O	
InChI=1S/C5H10N2O2/c1-4(5(8)9)7(2)3-6/h3-4,6H,1-2H3,(H,8,9)	InChI=1S/C5H10N2O2/c1-3-4(8)9-5(6)7(3)2/h3,5H,6H2,1-2H3/t3-,5-/m1/s1
