22
gdb 99277	4.30482	0.68581	0.62263	2.4333	81.04	-0.248	0.0675	0.3155	1881.0786	0.191803	-441.541214	-441.529749	-441.528805	-441.579715	39.165	
C	-0.0429703276	 1.3538551559	-0.1433347435	-0.328501
N	 0.1063871026	-0.0719378217	 0.0460638547	-0.358833
C	 0.6995631213	-0.6023975078	 1.1492879078	 0.519356
O	 1.157027765	 0.0233409436	 2.0807591021	-0.413935
O	 0.706901884	-1.9578596012	 1.055432852	-0.284162
C	 1.3133943587	-2.6449595416	 2.1611320789	-0.040534
C	 1.1885630496	-4.1458857516	 1.9176172507	 0.013485
C	 1.961468193	-4.9092091342	 3.0009437997	-0.393352
C	-0.2787007222	-4.5892204358	 1.8552028684	-0.380791
H	 0.4754590385	 1.6964038899	-1.0464031918	 0.123864
H	-1.0978988936	 1.6430725573	-0.216018391	 0.123944
H	 0.3979561313	 1.8462673095	 0.7241810777	 0.169889
H	-0.2265021951	-0.7149214198	-0.6519900736	 0.250685
H	 2.3622865425	-2.3400175189	 2.2406466095	 0.112282
H	 0.8130471389	-2.3488780064	 3.0904304346	 0.114803
H	 1.6550829873	-4.3560146281	 0.9456354415	 0.080936
H	 1.5433558611	-4.7134039654	 3.9953806039	 0.117368
H	 1.9088901303	-5.9882973843	 2.827479784	 0.115339
H	 3.0181646396	-4.6228470649	 3.0203663296	 0.11508
H	-0.7778868783	-4.4177240854	 2.8166692658	 0.111617
H	-0.8258350688	-4.0345826488	 1.0889065406	 0.121511
H	-0.3561076181	-5.65698343	 1.6265731285	 0.109947
26.9343	49.1377	68.6004	109.9508	120.1003	172.4724	218.9445	234.9917	254.0308	283.4489	348.9552	408.0207	424.9053	460.3833	552.5564	714.6059	779.1644	834.4483	913.5416	931.0178	951.6455	959.9607	977.9186	1033.8746	1153.2042	1159.4431	1171.2833	1178.8158	1191.0041	1200.805	1250.2354	1274.408	1329.8683	1372.8175	1398.2299	1403.5041	1425.3593	1445.8352	1488.9629	1490.2215	1498.0064	1498.4335	1503.1972	1510.8758	1516.1847	1569.5399	1816.1925	3015.3802	3022.6505	3027.415	3030.414	3038.5143	3071.33	3080.5861	3091.879	3098.0932	3105.9206	3120.0971	3152.0777	3661.4926
CNC(=O)OCC(C)C	CNC(=O)OCC(C)C	
InChI=1S/C6H13NO2/c1-5(2)4-9-6(8)7-3/h5H,4H2,1-3H3,(H,7,8)	InChI=1S/C6H13NO2/c1-5(2)4-9-6(8)7-3/h5H,4H2,1-3H3,(H,7,8)
