14
gdb 35835	2.08861	1.67942	1.02471	3.272	75.96	-0.2707	-0.0571	0.2136	1115.6708	0.100105	-399.52298	-399.514839	-399.513895	-399.556342	29.282	
C	-0.0511885014	-1.1650248443	 0.3423811005	-0.45683
C	-0.0245327342	 0.0148425494	 0.1196559515	 0.346534
C	 0.0162081131	 1.4516971803	-0.1635489798	-0.167705
O	-0.7508840065	 2.2103421032	 0.7721276621	-0.256605
C	 0.1017867362	 2.9922396876	 1.6027211514	-0.113013
C	 1.4595935735	 2.8946715535	 0.9786613949	-0.204734
C	 1.4274260937	 2.0290238615	-0.0353780321	 0.200004
C	 2.4959469047	 1.6440664746	-0.8827469627	 0.231758
N	 3.3485332058	 1.3203305612	-1.5964515552	-0.32723
H	-0.0758039995	-2.2091922208	 0.5372714947	 0.211025
H	-0.3956975529	 1.6300695149	-1.1662822817	 0.134079
H	-0.2764794023	 4.0230919896	 1.6323753339	 0.131533
H	 0.1052687247	 2.6121732844	 2.6370306584	 0.12907
H	 2.3264111751	 3.4411950949	 1.3253396342	 0.142114
61.727	105.8266	165.7349	194.0014	230.8937	364.1876	457.9625	471.3887	555.372	577.1373	640.1846	650.158	683.5692	772.7646	848.2946	899.5968	928.8273	951.946	1021.0796	1042.0684	1098.0326	1182.4334	1199.5384	1268.3723	1302.0486	1350.8988	1374.9748	1508.1986	1692.8744	2238.7346	2344.875	2980.2558	3013.2795	3028.375	3234.7613	3500.4588
C#CC1OCC=C1C#N	C#C[C@H]1OCC=C1C#N	
InChI=1S/C7H5NO/c1-2-7-6(5-8)3-4-9-7/h1,3,7H,4H2	InChI=1S/C7H5NO/c1-2-7-6(5-8)3-4-9-7/h1,3,7H,4H2/t7-/m1/s1
