21
gdb 117184	3.7697	0.6838	0.66927	2.3615	76.85	-0.2418	-0.012	0.2298	1787.1223	0.178306	-461.358145	-461.346754	-461.34581	-461.396496	38.631	
C	 0.0223860359	 1.4050589389	-0.0649563716	-0.22574
O	 0.1548459726	 0.0110695006	 0.0899819428	-0.210781
C	 0.5782004769	-0.6260673781	-1.0738335233	-0.160201
C	 0.6784933951	-2.1319774998	-0.8649943624	 0.355103
O	 0.3177092154	-2.6736110369	 0.1511986755	-0.302114
C	 1.2815100748	-2.9080769001	-2.0342695669	-0.086247
C	 2.768425788	-3.1959878909	-1.7480462128	-0.391637
C	 0.4937604437	-4.2011458247	-2.2586717919	-0.074674
O	 1.0420988122	-4.8511120439	-3.3956574298	-0.426278
H	 0.9786702614	 1.8802867122	-0.3356610204	 0.105153
H	-0.719048469	 1.6620036399	-0.8381822025	 0.105369
H	-0.312861411	 1.8060163581	 0.8940398417	 0.134804
H	-0.1189046713	-0.4544851479	-1.9173361597	 0.108335
H	 1.5614171388	-0.2537446007	-1.4190611188	 0.106803
H	 1.2117805914	-2.3019058389	-2.9467611055	 0.084307
H	 2.8712323314	-3.7530169597	-0.8115754789	 0.133048
H	 3.18762994	-3.7938977686	-2.5594528393	 0.142121
H	 3.3480697004	-2.2718595555	-1.6601212529	 0.112837
H	 0.5645673477	-4.8219331074	-1.3555847073	 0.111868
H	-0.5707547457	-3.9640235339	-2.4120663647	 0.088404
H	 0.6247804313	-5.7132074729	-3.4778963312	 0.28952
16.9834	83.6883	91.7933	92.6928	146.6774	208.4635	223.2596	237.4165	242.0369	253.4315	299.9243	341.4776	379.3834	482.2672	582.6303	710.2352	844.9854	884.7949	930.5675	977.6308	985.1576	1042.1893	1068.2187	1099.8306	1115.3495	1165.6583	1175.4482	1183.5844	1241.0199	1250.2331	1255.2532	1268.1819	1343.4306	1352.4924	1395.2268	1406.6548	1453.5445	1464.3132	1486.8463	1490.2306	1493.398	1504.1958	1514.7711	1522.2974	1823.0236	2922.0533	2942.6611	2970.1534	2978.0928	3014.1274	3022.8256	3040.1767	3042.6032	3109.9363	3120.9834	3137.8391	3835.162
COCC(=O)C(C)CO	COCC(=O)[C@@H](C)CO	
InChI=1S/C6H12O3/c1-5(3-7)6(8)4-9-2/h5,7H,3-4H2,1-2H3	InChI=1S/C6H12O3/c1-5(3-7)6(8)4-9-2/h5,7H,3-4H2,1-2H3/t5-/m0/s1
