16
gdb 88053	2.51034	1.35665	1.1294	3.5359	69.26	-0.254	0.008	0.262	1111.4496	0.123268	-437.848883	-437.840509	-437.839565	-437.882227	30.825	
O	 0.0164613926	 1.3469820167	-0.0088188738	-0.429977
C	 0.0644876882	-0.0353410125	 0.1199384431	 0.06434
C	-0.5223518157	-0.7008279814	 1.363754441	-0.390942
C	-1.2375640422	-0.7645472507	 0.055622375	 0.400483
O	-2.4128376239	 0.0150497885	-0.1941080638	-0.309847
C	-2.8435525649	-0.9125414441	-1.2175952325	-0.082829
C	-1.7202986294	-1.9176273042	-0.8332242593	-0.318486
C	-0.8304844461	-2.3846483741	-1.8813838865	 0.295987
N	-0.1142386247	-2.7477956045	-2.7125904622	-0.321611
H	-0.8869761813	 1.5711414224	-0.274306943	 0.29622
H	 0.9477512822	-0.4823466882	-0.3290585066	 0.123324
H	-0.0499029794	-1.6027276017	 1.7403729361	 0.127491
H	-0.9505038214	-0.0453701343	 2.1155157039	 0.137286
H	-3.8665019106	-1.2564450865	-1.0484877329	 0.132243
H	-2.7437317839	-0.4932725679	-2.2232070914	 0.135683
H	-2.0965561494	-2.7683087577	-0.2593269272	 0.140634
77.8398	102.6348	159.0517	218.3756	242.8607	328.0353	378.2628	431.5442	506.9742	540.1281	584.5344	614.5164	742.5642	813.6591	866.264	880.2448	986.6161	992.8688	1008.1173	1029.6215	1069.2643	1075.1685	1094.9997	1161.3034	1166.4962	1187.4398	1218.3201	1306.6533	1331.1998	1354.3895	1380.9369	1415.8629	1479.9206	1522.0801	2361.1619	3053.912	3080.8436	3117.1505	3125.9441	3146.2483	3221.9778	3732.2541
OC1CC11OCC1C#N	O[C@H]1C[C@]21OC[C@H]2C#N	
InChI=1S/C6H7NO2/c7-2-4-3-9-6(4)1-5(6)8/h4-5,8H,1,3H2	InChI=1S/C6H7NO2/c7-2-4-3-9-6(4)1-5(6)8/h4-5,8H,1,3H2/t4-,5+,6+/m1/s1
