16
gdb 23390	3.05553	1.39063	1.31519	1.4093	72.87	-0.2427	-0.008	0.2347	1022.4908	0.124912	-437.814311	-437.807003	-437.806059	-437.846011	28.75	
O	-0.1398495965	 1.3759834283	-0.0097806898	-0.397689
N	 0.0377278928	-0.0228576307	 0.0356381987	-0.282135
C	-1.0713048158	-0.6188983435	 0.0760041952	 0.465077
C	-1.4694055498	-2.0760739514	 0.0192524394	-0.003378
C	-1.8673090576	-2.5965605022	 1.4127461084	-0.269359
C	-2.7922844156	-1.5860477131	 2.0627164623	-0.067919
C	-3.1241261575	-0.474303208	 1.403975724	-0.049507
C	-2.5605529283	-0.3385915987	 0.000387736	-0.052933
O	-2.6885096739	-1.6409257097	-0.6672705267	-0.303343
H	 0.7682273081	 1.6920120833	-0.0672205046	 0.308311
H	-0.8730123605	-2.7761863118	-0.5694348927	 0.099069
H	-2.3591988991	-3.5734438545	 1.3211362372	 0.121319
H	-0.9688495497	-2.7506841993	 2.024661344	 0.123122
H	-3.1673999099	-1.7961937915	 3.0597788285	 0.102257
H	-3.7548698091	 0.3027940362	 1.8201148443	 0.103735
H	-2.9435418978	 0.4900534066	-0.5940883642	 0.103374
105.7977	169.9418	258.6451	316.4436	360.1997	402.2627	488.1119	504.3389	581.1077	616.3704	680.7253	764.672	807.6091	869.8958	875.6016	907.9695	940.0365	961.0866	969.5645	989.427	996.8098	1085.5362	1137.0786	1159.8822	1170.2405	1217.1969	1264.872	1290.6192	1314.3828	1353.5722	1387.2809	1414.7465	1463.9141	1688.7362	1820.5921	3021.1638	3054.3647	3098.1125	3128.8514	3171.4279	3201.8545	3818.9792
ON=C1C2CC=CC1O2	ON=C1[C@H]2CC=C[C@@H]1O2	
InChI=1S/C6H7NO2/c8-7-6-4-2-1-3-5(6)9-4/h1-2,4-5,8H,3H2	InChI=1S/C6H7NO2/c8-7-6-4-2-1-3-5(6)9-4/h1-2,4-5,8H,3H2/t4-,5+/m0/s1
