16
gdb 125230	4.59196	1.00012	0.87341	2.6663	72.73	-0.2548	-0.0121	0.2426	1310.7673	0.123798	-437.865167	-437.857047	-437.856103	-437.898708	29.128	
C	 0.1993124474	 1.2106926742	 0.7482925264	-0.492113
C	-0.0421050376	-0.0998991667	 0.0879550522	 0.446606
C	-0.5305774859	-1.2929417829	 0.5193687033	-0.439959
C	-0.495854586	-2.1135597511	-0.6437131894	 0.406143
N	-0.0328461801	-1.4631100256	-1.6856823825	-0.216925
O	 0.2628488541	-0.1845990132	-1.2222481963	-0.210792
C	-0.9033423679	-3.5269285003	-0.7812391925	-0.025791
C	-0.5511058504	-4.532873878	 0.2363385263	-0.177642
O	-1.8695048293	-3.9978881421	 0.1644046705	-0.22912
H	 1.2565137435	 1.4895749234	 0.6905511184	 0.152138
H	-0.3775095394	 2.0050096576	 0.2636302328	 0.153632
H	-0.0906814679	 1.1614408008	 1.7992839905	 0.143505
H	-0.88549125	-1.5526056047	 1.5020867855	 0.128972
H	-1.0540501314	-3.8592181579	-1.8062932744	 0.115469
H	-0.4477938312	-5.5752919157	-0.0612113949	 0.126027
H	 0.0326418421	-4.230613438	 1.1042092542	 0.11985
70.9526	93.064	139.3698	149.8457	266.0165	326.2843	432.2124	458.6072	605.9708	643.3562	724.284	729.1146	818.2723	859.9038	904.4247	936.9271	990.1241	1011.4192	1023.1291	1035.0448	1065.8092	1095.4235	1150.2442	1161.4648	1171.0539	1270.6695	1295.6068	1390.1688	1412.5783	1463.7703	1473.5098	1490.8548	1519.0135	1540.4815	1646.9596	3044.0421	3086.7154	3100.9585	3140.2407	3140.7189	3178.1779	3284.2467
CC1=CC(=NO1)C1CO1	Cc1cc(no1)[C@H]1CO1	
InChI=1S/C6H7NO2/c1-4-2-5(7-9-4)6-3-8-6/h2,6H,3H2,1H3	InChI=1S/C6H7NO2/c1-4-2-5(7-9-4)6-3-8-6/h2,6H,3H2,1H3/t6-/m1/s1
