19
gdb 51189	4.16459	1.0741	1.01672	2.8318	79.12	-0.2456	-0.0223	0.2233	1211.0387	0.159033	-385.847847	-385.839942	-385.838998	-385.881262	30.348	
O	-0.0250736081	-0.1257097863	-0.2273799702	-0.24006
C	 0.023125621	 1.0720466449	-0.1137794669	 0.165196
C	 1.2997570954	 1.885601762	-0.0687396851	-0.404134
C	 1.3498334074	 2.9211608765	-1.1748943689	 0.315323
C	 1.4885327873	 2.4982170013	-2.6692616416	-0.267835
C	 2.160928278	 3.8507990888	-2.8812533718	-0.059452
C	 1.4418809313	 4.8663234184	-1.9791004943	-0.060843
C	 0.3446737837	 4.1144194412	-1.2334115728	-0.273731
C	 2.5198957968	 3.9698830466	-1.4205200801	-0.138711
H	-0.9112116231	 1.6752619861	-0.0376604925	 0.077245
H	 1.3354399438	 2.3956218364	 0.9053480737	 0.116342
H	 2.1491661934	 1.1978866343	-0.1268153912	 0.120206
H	 2.200978412	 1.6763383508	-2.7859077352	 0.104156
H	 0.567128124	 2.2656921269	-3.2166210709	 0.09248
H	 2.7453161302	 4.1807837361	-3.7303079925	 0.087694
H	 1.505956706	 5.9283227318	-2.1776521521	 0.087495
H	-0.6175838293	 3.9436712313	-1.7308910196	 0.091857
H	 0.1737253245	 4.5442420567	-0.2413755436	 0.096598
H	 3.4501478557	 4.1747274362	-0.9107303544	 0.090174
45.1861	67.1107	170.5898	283.4184	324.9095	428.1103	437.7241	480.6868	641.1754	718.6834	744.9273	781.6963	800.0061	837.2653	882.6321	908.5581	934.1715	952.1255	983.3656	998.2803	1006.9303	1027.6504	1040.7886	1057.6431	1104.0012	1112.5953	1146.3542	1156.749	1171.8027	1235.1957	1245.8723	1254.8348	1284.0934	1308.879	1334.659	1366.7679	1430.843	1461.9144	1491.0541	1508.3704	1832.5181	2863.4764	3007.1646	3022.5837	3031.003	3084.1687	3088.2007	3093.2774	3194.1037	3200.2663	3223.055
O=CCC12CC3C(C1)C23	O=CC[C@@]12C[C@H]3[C@@H](C1)[C@@H]23	
InChI=1S/C8H10O/c9-2-1-8-3-5-6(4-8)7(5)8/h2,5-7H,1,3-4H2	InChI=1S/C8H10O/c9-2-1-8-3-5-6(4-8)7(5)8/h2,5-7H,1,3-4H2/t5-,6+,7-,8+
