21
gdb 107619	2.47327	1.50214	1.12744	2.6623	78.54	-0.2466	0.0668	0.3134	1153.2796	0.182576	-424.219642	-424.210637	-424.209693	-424.25306	34.465	
C	 0.0174026548	 1.5513967392	-0.1287625233	-0.401407
C	 0.0426202268	 0.0379242632	 0.0068134151	 0.07868
O	 0.7716475094	-0.5090816009	-1.0971224713	-0.271398
C	 1.2516781245	-1.7955159538	-0.7298276863	-0.095473
C	 1.5224267298	-1.716470648	 0.7620730666	-0.127905
C	 2.2331755894	-0.4758412971	 1.2379744237	-0.325428
C	 0.7247024355	-0.529777957	 1.2529595773	 0.361117
C	-0.0308148781	-0.5570436625	 2.5495243458	-0.19135
O	-0.1837569083	 0.7787894145	 3.0213023318	-0.416585
H	 1.0332588992	 1.9559655567	-0.1084730619	 0.118404
H	-0.4511564138	 1.8407679678	-1.0737792484	 0.114726
H	-0.5440807624	 1.9854990153	 0.7013841256	 0.131667
H	-0.9946947425	-0.3454200504	-0.007540399	 0.055878
H	 0.5023866535	-2.5781250738	-0.9364089092	 0.087248
H	 2.1381762559	-2.0005515978	-1.3397893907	 0.106398
H	 1.5885566039	-2.6347867965	 1.3350692989	 0.08486
H	 2.7360393235	-0.5239949158	 2.1976011048	 0.110791
H	 2.7210272808	 0.1513770375	 0.4990734968	 0.122817
H	-1.0149525534	-1.0291644561	 2.3930694368	 0.085743
H	 0.5161557349	-1.1726104617	 3.281246374	 0.083996
H	-0.7572698634	 0.7592286771	 3.7933750028	 0.28722
86.192	138.4493	189.4115	212.8554	253.0118	263.9567	306.6864	328.4614	382.1533	421.6463	527.7654	625.7118	675.1523	732.5437	831.3833	877.8544	896.1923	933.8195	941.6276	977.5503	1025.5489	1042.8339	1067.6059	1071.4673	1090.7157	1095.888	1119.459	1128.5873	1151.8969	1226.4005	1242.9868	1244.943	1263.2153	1322.8842	1346.1391	1370.3509	1390.4582	1407.3501	1414.0457	1463.5033	1483.5107	1489.7751	1497.004	1513.5677	1516.9179	2925.3661	2958.5171	2964.203	2989.6284	3047.9943	3062.8982	3118.5928	3131.1644	3138.3069	3172.0687	3218.449	3824.9776
CC1OCC2CC12CO	C[C@H]1OC[C@H]2C[C@@]12CO	
InChI=1S/C7H12O2/c1-5-7(4-8)2-6(7)3-9-5/h5-6,8H,2-4H2,1H3	InChI=1S/C7H12O2/c1-5-7(4-8)2-6(7)3-9-5/h5-6,8H,2-4H2,1H3/t5-,6-,7-/m1/s1
