21
gdb 115817	3.24862	1.11181	1.04298	1.7545	78.32	-0.247	0.0782	0.3252	1272.8236	0.182136	-424.215945	-424.206951	-424.206007	-424.250206	33.685	
C	 0.2797980447	 1.0004081815	 0.7356006543	-0.381058
C	-0.1871202735	-0.3531795274	 0.1966135308	-0.185434
C	-1.5888405405	-0.2931346104	-0.4222814516	 0.123257
C	-2.1314153591	-1.6686400609	-0.845214459	-0.319918
C	-2.7734550554	-2.150480424	 0.4429655545	 0.393634
C	-3.3508100883	-3.475062598	 0.6651920869	-0.2571
O	-2.0696977057	-3.1375613398	 1.2090720238	-0.27033
C	-3.2054981776	-0.8842419248	 1.1741077518	-0.13472
O	-2.5621194979	 0.2008725343	 0.5141980654	-0.277179
H	 1.2682837484	 0.9225069796	 1.1978739777	 0.109051
H	 0.3431071217	 1.7453826414	-0.0658993009	 0.109789
H	-0.4223604239	 1.377596236	 1.4836906407	 0.131625
H	 0.5082808391	-0.7143008081	-0.5724450805	 0.092253
H	-0.1787493577	-1.1037888613	 0.9967626569	 0.115806
H	-1.5858878403	 0.4207096039	-1.254170395	 0.074732
H	-2.8905271593	-1.552590402	-1.6260640276	 0.108876
H	-1.3637415865	-2.3605877413	-1.196558051	 0.117666
H	-4.1489539477	-3.6043086817	 1.396252103	 0.114797
H	-3.3415697111	-4.2119991421	-0.1376589359	 0.114905
H	-4.289918473	-0.7239348413	 1.1228306403	 0.1055
H	-2.9127820864	-0.9478639535	 2.2301470055	 0.113847
55.6533	81.2519	123.0055	217.4511	237.9122	285.8495	366.0955	382.0169	395.2941	457.4722	542.7873	724.8888	765.5913	781.9212	824.964	850.51	891.616	919.6436	957.9173	969.6495	996.4114	1025.2738	1059.559	1072.5348	1114.6321	1125.5296	1150.6456	1171.1418	1201.1072	1232.2959	1241.3089	1273.6532	1297.2535	1324.7	1339.5551	1369.3374	1405.1438	1411.3154	1441.2195	1471.4471	1483.8347	1497.0966	1510.3262	1515.8425	1537.2185	3011.5972	3022.3979	3034.3618	3035.3272	3048.4218	3053.308	3065.6173	3074.602	3101.0127	3121.451	3122.7975	3157.6725
CCC1CC2(CO2)CO1	CC[C@H]1C[C@]2(CO2)CO1	
InChI=1S/C7H12O2/c1-2-6-3-7(4-8-6)5-9-7/h6H,2-5H2,1H3	InChI=1S/C7H12O2/c1-2-6-3-7(4-8-6)5-9-7/h6H,2-5H2,1H3/t6-,7+/m0/s1
