19
gdb 89292	2.18487	1.7261	1.13515	3.389	78.22	-0.2198	0.0222	0.242	1134.6023	0.158322	-419.176783	-419.168101	-419.167157	-419.209891	32.886	
C	-0.0445520566	 1.5334234721	 0.1021917053	-0.329077
N	 0.103752176	 0.0961985904	 0.1477863538	-0.073119
C	-1.1102917927	-0.7251032921	 0.3627400702	-0.227909
C	-0.3827112329	-1.5238458341	 1.4639020769	 0.428717
C	-1.0871614337	-1.990287914	 2.7053145435	-0.47689
O	 0.5037809431	-2.5594026893	 0.908289412	-0.309744
C	 1.5963591171	-1.7023487661	 0.9078520467	 0.471082
N	 2.8007332944	-1.9176696002	 0.641706661	-0.558315
C	 0.778031795	-0.4997864391	 1.3303826832	-0.20404
H	 0.9413868328	 2.0038233159	 0.0370907967	 0.133568
H	-0.606851768	 1.8126299816	-0.7948689271	 0.127634
H	-0.5727147891	 1.9561626562	 0.9788775766	 0.088241
H	-1.9543019612	-0.1515547901	 0.7762297182	 0.094174
H	-1.4482996798	-1.2882511175	-0.5128839463	 0.116398
H	-1.7871997595	-2.7981686122	 2.4651138892	 0.13747
H	-0.3700691889	-2.3697848816	 3.438636242	 0.135319
H	-1.6535408716	-1.1718499169	 3.158968888	 0.126721
H	 2.9531488211	-2.8890877	 0.363188272	 0.227026
H	 1.1443657446	 0.1781988369	 2.102418178	 0.092744
96.0851	136.2431	197.17	218.5075	246.8683	301.3968	323.2396	336.8632	405.0289	454.9116	609.8962	639.0446	667.9147	802.6932	835.3628	869.7325	902.4558	935.3375	972.0653	975.1942	1004.7265	1014.1316	1085.1896	1127.187	1155.6162	1166.5975	1188.6782	1207.8199	1221.8493	1274.8511	1296.5307	1321.3053	1361.7532	1416.57	1454.4606	1482.2808	1484.7802	1489.3489	1499.1122	1501.3206	1828.2649	2917.2471	2983.5343	3038.1416	3061.7032	3074.1202	3105.3738	3106.5593	3110.3476	3121.3947	3468.3167
CN1CC2(C)OC(=N)C12	CN1C[C@@]2(C)O[C]([NH])[C@@H]12	
InChI=1S/C6H10N2O/c1-6-3-8(2)4(6)5(7)9-6/h4,7H,3H2,1-2H3	InChI=1S/C6H10N2O/c1-6-3-8(2)4(6)5(7)9-6/h4,7H,3H2,1-2H3/t4-,6-/m1/s1
