20
gdb 38101	2.58272	1.96893	1.46132	1.3367	83.24	-0.2306	0.0119	0.2426	965.4841	0.175399	-365.981363	-365.974553	-365.973608	-366.01208	29.084	
C	-0.023339827	 1.5488696976	-0.0092098928	-0.229045
C	 1.5418601279	 1.5057018245	 0.0245321126	-0.053596
C	 1.414160514	 0.0562651905	 0.5999831733	-0.227261
C	-0.0291456175	-0.0001027434	 0.0166878941	-0.017921
C	-0.04306811	-0.6661985191	-1.3474872005	-0.033737
N	-0.6101569619	 0.0586672697	-2.4919944784	-0.339818
C	 0.8500643536	-0.2560099876	-2.4663194429	-0.063616
C	 1.8327470349	 0.8583920969	-2.4129448863	-0.040373
C	 2.1493129928	 1.6025154697	-1.3490854765	-0.073768
H	-0.431415195	 1.9568926887	 0.9195951368	 0.090817
H	-0.4903268085	 2.0315984521	-0.8673179334	 0.125128
H	 2.0204265734	 2.2276407484	 0.6897405599	 0.059253
H	 2.1298845448	-0.6886909363	 0.2435096839	 0.095767
H	 1.4165603125	 0.0648590773	 1.6934953148	 0.094668
H	-0.7958352031	-0.4594341917	 0.6477502049	 0.058856
H	-0.2387086441	-1.7374260655	-1.2951152176	 0.077551
H	-1.0885453986	-0.5823204732	-3.1201617238	 0.227794
H	 1.1550886103	-1.0617119847	-3.133171461	 0.082096
H	 2.342063911	 1.0608003095	-3.3531301314	 0.082795
H	 2.8910988204	 2.3860798068	-1.4873088154	 0.084411
195.5354	216.8029	310.3007	344.3068	384.2004	474.3456	527.4809	591.9853	721.2298	744.1634	787.3418	793.841	799.2348	825.2638	858.307	885.8262	935.641	946.8751	967.0676	989.626	1003.3333	1023.3575	1065.897	1084.221	1098.6376	1141.5409	1154.4814	1170.2572	1184.1662	1222.2094	1239.5917	1258.7696	1268.744	1275.3468	1293.2655	1363.3061	1372.5508	1406.0435	1431.8609	1464.2043	1471.2554	1497.3426	1713.6166	3047.2732	3054.7369	3064.3851	3077.3228	3096.1021	3107.9674	3110.8684	3134.1819	3143.2647	3158.1447	3493.8385
C1C2CC1C1NC1C=C2	C1[C@H]2C[C@@H]1[C@H]1N[C@H]1C=C2	
InChI=1S/C8H11N/c1-2-7-8(9-7)6-3-5(1)4-6/h1-2,5-9H,3-4H2	InChI=1S/C8H11N/c1-2-7-8(9-7)6-3-5(1)4-6/h1-2,5-9H,3-4H2/t5-,6+,7-,8+/m0/s1
