23
gdb 114392	3.77774	0.95125	0.91967	0.8857	87.23	-0.2369	0.0914	0.3283	1432.7356	0.204138	-388.255813	-388.246062	-388.245118	-388.289866	37.232	
C	 0.2226978417	 1.2996093436	 0.1500272175	-0.238479
O	-0.1951546135	-0.008080186	-0.1660414179	-0.248638
C	 0.5010806271	-0.5640419294	-1.2566021072	 0.132805
C	 1.9161536944	-1.1339807167	-0.8915194043	-0.288118
C	 1.3965047409	-2.5509393869	-1.169933207	-0.094124
C	 0.0098413612	-1.9867293588	-1.5158591627	-0.119339
C	 0.832473703	-2.7021681632	-2.5617894788	 0.330253
C	 1.4189561947	-2.0123285021	-3.7808619639	-0.461816
C	 0.3294179839	-4.1059137473	-2.8663774193	-0.451795
H	 1.2790247939	 1.3365036759	 0.4573268856	 0.105049
H	 0.0905484942	 1.9847304851	-0.7026069316	 0.102955
H	-0.395328182	 1.6468060023	 0.9815867076	 0.125563
H	 0.4652908482	 0.1329015233	-2.1094652688	 0.055299
H	 2.7822181934	-0.7908983069	-1.4669340243	 0.089168
H	 2.1065818758	-0.9723784053	 0.1720298845	 0.110433
H	 1.6419302648	-3.4219837971	-0.572276757	 0.077766
H	-0.9733264551	-2.3332854104	-1.2187864684	 0.085481
H	 1.8086500503	-1.015169739	-3.566654073	 0.118316
H	 2.2433406982	-2.604583802	-4.1952594184	 0.112241
H	 0.6619802274	-1.9083559947	-4.5670378105	 0.114164
H	-0.4510152395	-4.0855851498	-3.6356835052	 0.114427
H	 1.1432193009	-4.7405640959	-3.2359463833	 0.113433
H	-0.091140154	-4.5838624587	-1.9760671435	 0.114953
98.2937	129.9742	170.9507	193.8214	221.762	240.52	274.5659	289.9463	324.4295	379.6419	451.882	474.2654	508.3755	665.2462	751.457	836.376	847.0538	864.0941	954.4103	963.7976	969.3081	981.263	999.9237	1038.0703	1055.7166	1063.7833	1086.3691	1138.2738	1157.5608	1162.3483	1184.0963	1203.6542	1224.7735	1249.794	1260.0558	1294.7434	1302.5035	1391.4951	1407.2274	1417.4634	1427.3006	1471.3085	1482.006	1484.9755	1487.9558	1493.0538	1503.7762	1509.8721	1513.7332	2961.55	2973.7505	3017.9051	3022.0661	3028.3405	3044.8767	3079.485	3084.2477	3099.7867	3109.0949	3113.4836	3123.8467	3163.6836	3180.7916
COC1CC2C1C2(C)C	CO[C@H]1C[C@H]2[C@@H]1C2(C)C	
InChI=1S/C8H14O/c1-8(2)5-4-6(9-3)7(5)8/h5-7H,4H2,1-3H3	InChI=1S/C8H14O/c1-8(2)5-4-6(9-3)7(5)8/h5-7H,4H2,1-3H3/t5-,6-,7-/m0/s1
