22
gdb 105800	2.37006	1.4278	1.1981	1.6829	85.97	-0.2002	0.0733	0.2735	1191.9118	0.193263	-367.125506	-367.116189	-367.115245	-367.159933	35.478	
C	 0.0661671773	 1.4961847059	 0.2519353743	-0.371102
C	-0.0281539126	-0.0012550566	-0.0749905398	-0.288335
C	-1.4425326152	-0.5152580289	-0.0672397345	 0.348165
C	-2.1548848256	-1.03359386	 1.1601449944	-0.063343
C	-3.4322983962	-0.5529801524	 1.8446521136	-0.394847
C	-1.9611761102	-1.9595151351	-0.0268441822	-0.160363
C	-2.8462130287	-1.6570388069	-1.2626444148	-0.050384
N	-3.796354841	-0.5625306702	-0.9394040951	-0.339711
C	-2.382362729	-0.2591586997	-1.2906610826	-0.121367
H	 1.1028323296	 1.845697255	 0.2153327826	 0.108473
H	-0.5122927459	 2.0945537743	-0.46040218	 0.11499
H	-0.327992429	 1.7033002043	 1.2519201727	 0.120476
H	 0.4260581546	-0.1893035716	-1.0583172654	 0.091637
H	 0.564307051	-0.574859555	 0.6485170452	 0.095411
H	-1.392181429	-1.299387181	 1.8941838396	 0.082878
H	-4.2182992221	-1.3114989473	 1.8031537706	 0.118782
H	-3.2229382634	-0.3441061433	 2.9000930593	 0.090758
H	-3.8327098333	 0.3487900544	 1.3853691127	 0.132826
H	-1.3779143732	-2.8699573613	 0.0520134918	 0.081214
H	-3.040047294	-2.3458263948	-2.0745863443	 0.090815
H	-4.3455743769	-0.3933542193	-1.7829772082	 0.225232
H	-2.1373762471	 0.3819089794	-2.12833012	 0.087794
51.2193	81.7606	130.9219	199.2562	207.359	283.6809	306.509	354.2427	412.5136	484.3666	590.0492	698.93	712.1906	745.3526	780.4719	812.8382	824.4855	867.0794	904.45	913.7974	950.6689	965.186	982.1953	1010.0496	1044.4082	1078.5469	1089.7058	1096.4715	1114.4215	1127.2898	1162.6584	1214.743	1227.1543	1274.8948	1288.1425	1323.3475	1354.046	1363.917	1365.7994	1407.9179	1418.4147	1462.8307	1479.541	1486.5978	1494.5172	1497.2199	1505.9185	3003.9668	3032.2045	3034.358	3046.3744	3086.9345	3099.2194	3104.8146	3106.6622	3158.2799	3170.9072	3184.4731	3200.109	3456.1388
CCC12C(C)C1C1NC21	CC[C@]12[C@@H](C)[C@H]1[C@H]1N[C@@H]21	
InChI=1S/C8H13N/c1-3-8-4(2)5(8)6-7(8)9-6/h4-7,9H,3H2,1-2H3	InChI=1S/C8H13N/c1-3-8-4(2)5(8)6-7(8)9-6/h4-7,9H,3H2,1-2H3/t4-,5-,6+,7+,8-/m0/s1
