22
gdb 7833	3.85916	1.04877	0.92799	1.3968	78.74	-0.2523	0.0791	0.3314	1342.4796	0.198719	-350.194597	-350.184958	-350.184014	-350.22911	35.843	
C	-0.4059242695	 1.3852098843	-0.1616694746	-0.381763
C	 0.11652831	-0.0455413332	 0.0268303798	 0.052464
C	 0.9014468889	-0.5025676999	-1.2100432412	-0.386951
C	 0.982046292	-0.1930540217	 1.2930790598	-0.196071
C	 0.2565188805	 0.0915425068	 2.5928052711	-0.019704
C	-0.680651292	-0.9456078972	 3.1901498735	-0.327063
C	 0.6325078026	-0.6236960451	 3.8591866465	 0.087864
O	 1.6874819458	-1.5409227156	 3.7872353119	-0.41674
H	 0.4252897922	 2.0955167561	-0.2525077951	 0.108367
H	-1.0098622561	 1.4658744113	-1.0717256301	 0.106908
H	-1.0303465761	 1.706828905	 0.6771935494	 0.11165
H	-0.7525068214	-0.7088625677	 0.1424161722	 0.069763
H	 1.7871438827	 0.1255955017	-1.3653575462	 0.110229
H	 1.2445501124	-1.5374236925	-1.105633565	 0.108007
H	 0.2894075237	-0.4405366352	-2.1161690386	 0.105597
H	 1.3909087034	-1.2075110082	 1.3380818622	 0.104402
H	 1.8494832854	 0.4778686531	 1.2118976761	 0.090041
H	-0.043733116	 1.1257582873	 2.7356646103	 0.086018
H	-1.6070297448	-0.6277553583	 3.6565368018	 0.106801
H	-0.7342514991	-1.9016084572	 2.677902383	 0.110739
H	 0.6000381277	-0.0487931076	 4.7850037216	 0.082397
H	 1.4596953876	-2.2959902663	 4.3390278416	 0.287045
50.8447	91.7726	131.968	211.5508	227.971	255.187	302.013	312.2032	360.4924	411.6301	420.9201	482.6095	566.6119	765.8272	822.5944	833.1191	874.8885	886.5	927.6857	954.3099	966.1858	985.7951	1015.8044	1046.6407	1092.1128	1132.8824	1154.288	1180.3516	1188.29	1195.825	1241.2102	1267.0506	1301.5363	1308.0662	1359.5046	1373.3346	1400.3325	1407.4389	1420.5199	1426.9712	1481.3716	1489.2224	1489.7481	1497.7422	1504.7433	1512.1856	2998.513	3011.966	3020.9607	3026.7352	3076.2141	3084.8851	3091.7766	3092.1143	3095.7522	3102.6992	3124.8781	3148.2397	3212.9483	3810.0461
CC(C)CC1CC1O	CC(C)C[C@H]1C[C@H]1O	
InChI=1S/C7H14O/c1-5(2)3-6-4-7(6)8/h5-8H,3-4H2,1-2H3	InChI=1S/C7H14O/c1-5(2)3-6-4-7(6)8/h5-8H,3-4H2,1-2H3/t6-,7+/m0/s1
