21
gdb 117785	2.05748	1.13515	1.03052	2.3719	81.38	-0.2531	0.0401	0.2933	1355.2228	0.178089	-424.1787	-424.167699	-424.166755	-424.214707	40.087	
C	-0.1186275639	 1.5145988897	-0.2268852067	-0.384027
C	 0.1271389013	 0.0367892478	 0.032342427	-0.051468
O	 0.5398517444	-0.5465170303	-1.1997934449	-0.299166
C	 0.6876664629	-1.981819711	-1.2520787192	 0.100502
C	 1.4604608813	-2.558364531	-0.0552937311	-0.437277
C	-0.7264047899	-2.6049371017	-1.3539969471	-0.05209
O	-1.4842664827	-1.9977204232	-2.3703103556	-0.427235
C	 1.4371485147	-2.2397175757	-2.4878392222	 0.367539
C	 2.065931758	-2.4930521736	-3.478943244	-0.468141
H	 0.7868417629	 1.9888800361	-0.6150224007	 0.133212
H	-0.9187881382	 1.6536544605	-0.9596052414	 0.125253
H	-0.4070096967	 2.0183156113	 0.7005728381	 0.118049
H	 0.906917029	-0.0880916562	 0.7957736262	 0.101628
H	-0.7873883032	-0.4402279072	 0.4132900696	 0.098475
H	 0.897596612	-2.4491882682	 0.8755464183	 0.120608
H	 1.6436643915	-3.6229374897	-0.2205203873	 0.135949
H	 2.426167713	-2.0580301726	 0.0493361789	 0.138248
H	-0.639523622	-3.6716110583	-1.5836281659	 0.113431
H	-1.2189612538	-2.5159271151	-0.3710596402	 0.081188
H	-1.2197186203	-1.0682922767	-2.3734946803	 0.287632
H	 2.6108293998	-2.7070679948	-4.3650998817	 0.19769
68.0532	75.5972	117.3402	133.4136	197.1535	237.967	246.2783	260.3312	265.5852	340.484	383.1179	436.3069	444.4098	456.426	557.8493	621.235	629.1089	666.1594	736.3911	828.0438	838.8392	905.2232	955.998	1002.8039	1075.1843	1101.397	1113.6408	1138.0417	1173.7082	1186.85	1214.4575	1267.7976	1301.1061	1360.8943	1396.2245	1401.1949	1420.7121	1444.0453	1484.0391	1487.7718	1492.2918	1500.1333	1509.2256	1530.3307	2242.8642	2960.6221	2995.4992	3031.8371	3045.3786	3050.0369	3077.3046	3118.9329	3125.1191	3125.3737	3132.8815	3502.4688	3760.65
CCOC(C)(CO)C#C	CCO[C@@](C)(CO)C#C	
InChI=1S/C7H12O2/c1-4-7(3,6-8)9-5-2/h1,8H,5-6H2,2-3H3	InChI=1S/C7H12O2/c1-4-7(3,6-8)9-5-2/h1,8H,5-6H2,2-3H3/t7-/m1/s1
