20
gdb 122272	2.37304	1.1119	0.90598	1.9139	76.77	-0.2487	-0.0281	0.2206	1380.1871	0.168827	-440.258752	-440.248737	-440.247793	-440.295174	35.179	
C	 0.0368948061	 1.1213058302	 0.8050137853	-0.384894
C	-0.7793055586	 0.1666605973	-0.0488418875	-0.044531
O	-0.611730845	-1.1471447053	 0.4708690191	-0.243281
C	-1.220881749	-2.1637309674	-0.3017657546	-0.197868
C	-2.7414284719	-2.1753294934	-0.1700710512	 0.202858
C	-3.3998716571	-3.2422991284	 0.6594063776	-0.26892
N	-3.3341766894	-1.8796529948	 1.1571195566	-0.334643
C	-3.5455598628	-1.613652994	-1.2958610399	 0.137569
O	-3.1035001037	-1.3340137402	-2.3826180139	-0.271005
H	-0.0681522009	 2.1451361381	 0.4341903385	 0.119228
H	-0.3015286977	 1.0945329691	 1.8449267066	 0.124395
H	 1.0958164288	 0.8488957162	 0.7820450263	 0.126929
H	-1.8417776876	 0.4535006972	-0.0360825597	 0.102073
H	-0.4476917262	 0.1946416997	-1.097930431	 0.103187
H	-0.9684196681	-2.0603438405	-1.3656241541	 0.126204
H	-0.7981729103	-3.1019618639	 0.0683218131	 0.107533
H	-4.3972036935	-3.5919408599	 0.4037747257	 0.127868
H	-2.7419688536	-4.0033823901	 1.0716284154	 0.127703
H	-2.5587714566	-1.760318883	 1.8071121447	 0.251402
H	-4.6189232531	-1.4720684469	-1.0398580468	 0.088193
31.218	64.7547	86.8394	116.7526	217.6197	230.1765	268.994	301.0733	328.4401	374.1881	414.1577	531.232	619.0595	773.6013	817.023	824.3069	855.4626	905.6531	944.0179	991.0692	1021.4835	1035.061	1052.7899	1094.8648	1130.6728	1140.6179	1146.1995	1184.4926	1260.0606	1287.9413	1303.7751	1323.1747	1371.1105	1396.0899	1406.4356	1422.7042	1434.361	1483.7755	1486.0454	1498.1988	1514.0319	1523.4369	1818.43	2895.1839	2982.8751	3014.3168	3023.5833	3044.9099	3090.2851	3103.4316	3119.1464	3122.0306	3189.7726	3489.7145
CCOCC1(CN1)C=O	CCOC[C@]1(CN1)C=O	
InChI=1S/C6H11NO2/c1-2-9-5-6(4-8)3-7-6/h4,7H,2-3,5H2,1H3	InChI=1S/C6H11NO2/c1-2-9-5-6(4-8)3-7-6/h4,7H,2-3,5H2,1H3/t6-/m0/s1
