18
gdb 19428	3.90889	1.92637	1.60861	1.3945	70.91	-0.2254	0.0883	0.3137	853.8872	0.155251	-347.77327	-347.766527	-347.765583	-347.80394	27.256	
C	-0.0618788578	 1.4910264435	 0.0339723477	-0.317787
C	 1.2800884601	 0.8001031471	-0.0689416875	-0.318845
C	 0.010521227	-0.009543075	-0.0148597902	 0.36834
C	-0.3439190797	-0.8592442577	 1.2093259176	-0.169522
O	-0.3852196014	-2.2154022099	 0.7644316887	-0.258428
C	-0.640916687	-2.2144433921	-0.6171501454	 0.124886
C	-1.819111257	-1.4356784476	-1.1427145311	-0.341538
C	-0.4157740027	-0.8446957389	-1.1911910944	-0.160428
H	-0.3223490469	 1.96041659	 0.9781438596	 0.11017
H	-0.4379745871	 2.0144242218	-0.8385854558	 0.115017
H	 1.8133839372	 0.8574580178	-1.0126685868	 0.112355
H	 1.9239348378	 0.7999520988	 0.8049203083	 0.112239
H	 0.3902261342	-0.7881444271	 2.0179795322	 0.109412
H	-1.3237102998	-0.5653253152	 1.615147518	 0.096735
H	-0.3232964409	-3.1366611311	-1.088621458	 0.100631
H	-2.246439974	-1.7640736146	-2.0842453208	 0.111714
H	-2.5399524138	-1.0255291275	-0.4433858926	 0.117925
H	 0.0665881518	-0.6855633622	-2.1486047097	 0.087124
115.8491	219.1056	281.7585	319.6158	386.4396	479.7301	524.0528	698.6553	736.7776	775.9087	797.881	831.0736	876.2919	917.4386	932.0383	955.8281	982.5001	989.8399	1026.4489	1031.8268	1056.3316	1062.8767	1077.5095	1094.8687	1101.4499	1159.5563	1186.9233	1198.2634	1225.4244	1274.4235	1295.7091	1333.7409	1391.389	1415.938	1467.4718	1476.1385	1505.0147	1523.0783	2984.2095	3070.2112	3120.6329	3124.6729	3131.352	3172.073	3187.1627	3199.172	3214.2563	3218.4817
C1CC11COC2CC12	C1CC21CO[C@H]1C[C@@H]21	
InChI=1S/C7H10O/c1-2-7(1)4-8-6-3-5(6)7/h5-6H,1-4H2	InChI=1S/C7H10O/c1-2-7(1)4-8-6-3-5(6)7/h5-6H,1-4H2/t5-,6+/m1/s1
