23
gdb 80906	2.35307	1.40758	1.3194	1.2641	86.42	-0.2508	0.0739	0.3247	1167.6757	0.203895	-388.249543	-388.239659	-388.238715	-388.283188	38.612	
C	-0.1352512931	 1.6222222187	 0.1576871992	-0.4427
C	 0.0231158221	 0.1075688271	 0.1077706472	 0.011071
C	 1.1694668871	-0.573564576	-0.7077650763	-0.144779
C	 2.1531518065	-0.1197911695	 0.4103739282	-0.284126
C	 0.8909736865	-0.66311555	 1.1668563835	 0.285258
C	 0.6783722197	-0.7500732996	 2.6552333335	-0.526392
C	 0.9226597389	-1.8609756214	 0.1584683505	 0.439179
C	-0.2939865249	-2.752074922	-0.077045178	-0.49153
O	 2.0420431613	-2.7065530477	 0.3867612067	-0.489672
H	 0.7975232776	 2.1665942918	 0.318183348	 0.118734
H	-0.570726671	 1.9865833431	-0.7796249831	 0.114517
H	-0.8234338709	 1.904011286	 0.9630041105	 0.114707
H	-0.9667288995	-0.3245515986	-0.0549636861	 0.053708
H	 1.3259267199	-0.5255226286	-1.7880710451	 0.05508
H	 3.0669132575	-0.6983011052	 0.5189443795	 0.112055
H	 2.3487795816	 0.948607302	 0.4908182825	 0.08331
H	 0.7360662719	 0.23906034	 3.1227399792	 0.116811
H	-0.3039236225	-1.1744875261	 2.8929884871	 0.113242
H	 1.4405990623	-1.3860255745	 3.1174863744	 0.130256
H	-1.2273421303	-2.2139097599	-0.2422553188	 0.125029
H	-0.1253232083	-3.3799735838	-0.9619578746	 0.104937
H	-0.4281794654	-3.4218590182	 0.7780867589	 0.12713
H	 2.0757066531	-3.3522101078	-0.326121477	 0.274174
160.4428	162.317	176.521	183.7149	194.8045	228.4275	260.0659	265.1296	336.8816	413.7017	460.2519	496.0223	530.0871	577.1048	639.9482	691.8028	735.2084	799.9998	804.0436	897.3121	932.7516	954.2762	1009.5249	1016.7584	1020.8035	1069.0806	1079.2059	1099.2286	1117.801	1154.4286	1162.2626	1188.6114	1206.2508	1210.0566	1239.9993	1242.9065	1299.7763	1377.9847	1400.5745	1406.5931	1412.8957	1433.2389	1488.1965	1489.2989	1495.3751	1495.716	1498.8818	1502.0598	1530.7004	3024.0106	3025.1842	3031.4034	3070.3952	3081.567	3083.8841	3088.0076	3089.696	3098.7032	3105.2456	3124.2247	3141.9277	3174.0162	3812.2443
CC1C2CC1(C)C2(C)O	C[C@H]1[C@H]2C[C@]1(C)[C@]2(C)O	
InChI=1S/C8H14O/c1-5-6-4-7(5,2)8(6,3)9/h5-6,9H,4H2,1-3H3	InChI=1S/C8H14O/c1-5-6-4-7(5,2)8(6,3)9/h5-6,9H,4H2,1-3H3/t5-,6+,7-,8+/m0/s1
