18
gdb 71551	2.54094	1.51768	1.40722	3.1788	77.51	-0.2423	-0.0388	0.2035	1029.6211	0.146299	-401.861808	-401.853696	-401.852752	-401.894529	30.826	
C	-0.1190616584	 1.4949367357	 0.0015179452	-0.521401
C	-0.0200925097	-0.0062814352	-0.0343823371	 0.27064
C	 0.4900992688	-0.9466362885	-1.1229406806	-0.234939
N	 0.0741381846	-1.9656107648	-0.0680087623	-0.189136
C	 0.5588718559	-0.9862253859	 1.038520155	-0.036379
C	-0.7543396725	-1.1165139002	 1.8136164608	-0.315255
C	-1.1404082465	-1.073134853	 0.3360083477	 0.2517
C	-2.4785070226	-1.2324114715	-0.2930396769	 0.028401
O	-3.5157841215	-1.0815535383	 0.305111919	-0.247827
H	 0.8732417179	 1.948072102	-0.1016250343	 0.128585
H	-0.7446995943	 1.8695597934	-0.8154839486	 0.129967
H	-0.5523852063	 1.8434267562	 0.9448009589	 0.131262
H	-0.0665793546	-1.0216883708	-2.0623972009	 0.10338
H	 1.5674077149	-0.9521815605	-1.3224076853	 0.102899
H	 1.5907316509	-1.0406245513	 1.3911127085	 0.086997
H	-0.9248612806	-2.0688760154	 2.3205197195	 0.118597
H	-1.0586851158	-0.2687253334	 2.4295784107	 0.112625
H	-2.4664156402	-1.4917206686	-1.3752071394	 0.079883
70.8058	166.2178	191.3305	207.2623	257.0911	340.1974	372.4317	449.6711	513.6926	607.2945	676.8618	695.6933	797.4967	854.0026	877.9165	890.5178	926.9293	950.7628	996.2381	1009.2403	1019.4871	1059.156	1100.8472	1130.9061	1147.3201	1160.0042	1194.7591	1218.2132	1232.5515	1259.5814	1323.947	1329.1427	1410.4114	1424.581	1484.1738	1487.2753	1495.8142	1526.3808	1810.016	2880.7116	3029.5785	3036.5966	3072.4305	3093.0903	3097.0788	3099.1371	3103.2674	3139.5717
CC12CN3C1CC23C=O	C[C@@]12CN3[C@@H]1C[C@@]23C=O	
InChI=1S/C7H9NO/c1-6-3-8-5(6)2-7(6,8)4-9/h4-5H,2-3H2,1H3	InChI=1S/C7H9NO/c1-6-3-8-5(6)2-7(6,8)4-9/h4-5H,2-3H2,1H3/t5-,6-,7-/m1/s1
