17
gdb 12628	3.29263	2.02581	1.35881	3.0154	71.02	-0.2087	0.0002	0.2089	925.4048	0.142258	-363.914049	-363.905946	-363.905001	-363.946502	29.407	
C	-0.1348623217	 1.5521452967	 0.0605009719	-0.388335
C	 0.0393183097	 0.0300318091	-0.0524664072	-0.163982
C	 0.9113834503	-0.4553362391	-1.1837893408	-0.15804
C	 1.9103752567	-1.1804027189	-0.6722450226	-0.027658
N	 1.833870505	-1.2613625802	 0.7286591802	-0.080379
C	 2.7722144445	-1.9365642734	 1.5953062559	-0.352528
C	 0.7420613644	-0.5457473243	 1.1913521532	 0.409871
O	 0.4315099931	-0.4041013118	 2.35507555	-0.393454
H	 0.836343108	 2.0557753816	 0.0733247705	 0.122493
H	-0.7096718014	 1.9419645622	-0.7844501631	 0.115166
H	-0.6609140204	 1.7946724816	 0.9876982732	 0.141159
H	-0.9571707888	-0.43127763	-0.0987672754	 0.116911
H	 0.7458507841	-0.2491507799	-2.2303485668	 0.105701
H	 2.7209451315	-1.6872455757	-1.1779635823	 0.124411
H	 2.80890893	-3.0113439304	 1.3845424779	 0.130158
H	 3.7823060035	-1.5236004695	 1.4916536762	 0.129745
H	 2.4281231617	-1.7846435479	 2.6199616294	 0.16876
95.6336	125.8312	156.0658	224.0303	245.3492	295.6539	303.1649	497.9481	545.8551	607.6996	687.7519	714.9029	744.4883	814.7006	905.8896	924.2937	979.0175	1020.2847	1073.3226	1102.0804	1111.1008	1155.6453	1157.9806	1253.4188	1286.426	1314.2851	1332.6468	1397.1118	1416.5586	1458.5161	1494.3089	1494.8975	1499.524	1511.9645	1668.3295	1810.2604	3015.6625	3022.8866	3041.7437	3076.2265	3114.166	3124.6683	3142.6892	3225.4803	3253.5323
CC1C=CN(C)C1=O	C[C@H]1C=CN(C)C1=O	
InChI=1S/C6H9NO/c1-5-3-4-7(2)6(5)8/h3-5H,1-2H3	InChI=1S/C6H9NO/c1-5-3-4-7(2)6(5)8/h3-5H,1-2H3/t5-/m0/s1
