21
gdb 65976	2.25625	1.45666	1.32961	2.5197	81.99	-0.2361	-0.0197	0.2164	1129.1105	0.181224	-387.090981	-387.081732	-387.080788	-387.125208	34.974	
C	-0.0113629385	 1.6242392903	-0.1289797655	-0.438943
C	-0.0357584996	 0.0936283367	 0.000604075	 0.192487
C	 0.942504291	-0.6297180906	-0.9953582269	-0.277896
C	 1.9432256554	-0.9295084211	 0.1600230888	-0.339967
C	 0.8992962783	-0.379888485	 1.1405016286	 0.373254
O	 0.8128198647	-0.3575640227	 2.3363435123	-0.311669
C	-1.459258544	-0.4244746558	 0.0355815945	-0.034146
C	-1.8312646696	-1.7368772887	 0.6814379303	-0.292671
C	-2.2660068584	-0.434945708	 1.3100944346	-0.271359
H	 1.0116430701	 2.0135497553	-0.1689207987	 0.113075
H	-0.5229094171	 1.9324309782	-1.0476682091	 0.118269
H	-0.5201809348	 2.0893248694	 0.7200923514	 0.13522
H	 0.5076893973	-1.5327331931	-1.4277112209	 0.111618
H	 1.3300507591	-0.0020729678	-1.7999129117	 0.102754
H	 2.2211258253	-1.9739884748	 0.325264042	 0.130863
H	 2.8609398075	-0.3331156865	 0.1436805513	 0.132501
H	-2.0120436452	-0.1791188412	-0.8696996666	 0.082244
H	-2.5769581003	-2.3523640196	 0.190454338	 0.10805
H	-1.0595579613	-2.3008352084	 1.1943522957	 0.118052
H	-1.7588167036	-0.1388612595	 2.2209650198	 0.140881
H	-3.3130868263	-0.1577177873	 1.2575850968	 0.107384
53.4763	89.8867	145.9714	203.2727	226.2593	241.9697	306.3366	364.394	441.8138	483.9624	521.7199	640.338	701.1615	750.8719	792.2318	831.3597	857.5528	873.8694	921.9766	938.5133	946.6463	982.5405	1027.1508	1062.1702	1067.4835	1089.0665	1098.0485	1141.2993	1155.8466	1176.8174	1202.2291	1211.3293	1226.4488	1229.2206	1246.9325	1306.2797	1387.0022	1407.0442	1436.5565	1466.9826	1487.8582	1493.0699	1494.521	1504.6898	1872.811	3027.4032	3057.7657	3076.6447	3092.8723	3106.5059	3113.1664	3115.108	3132.5254	3133.7737	3139.2538	3213.9158	3232.1702
CC1(CCC1=O)C1CC1	C[C@]1(CCC1=O)C1CC1	
InChI=1S/C8H12O/c1-8(6-2-3-6)5-4-7(8)9/h6H,2-5H2,1H3	InChI=1S/C8H12O/c1-8(6-2-3-6)5-4-7(8)9/h6H,2-5H2,1H3/t8-/m0/s1
