19
gdb 120836	3.17001	0.71659	0.62867	5.1271	73.75	-0.2692	0.0024	0.2716	1751.9735	0.156937	-460.158165	-460.148182	-460.147238	-460.194591	34.531	
O	-0.1181377705	 1.4039489962	 0.0617750741	-0.418347
C	-0.1507140412	 0.0214510201	 0.3751907529	-0.065385
C	-1.2878272348	-0.605693033	-0.4250968144	-0.196922
C	-1.3897074771	-2.0991289894	-0.2009588357	-0.040023
C	-2.1320029443	-2.6544690813	 1.0007129769	-0.32319
C	-2.6859717353	-2.8267220208	-0.389114076	 0.084158
O	-3.7983007168	-2.0508207333	-0.7917004751	-0.184761
C	-5.0022224475	-2.4304896583	-0.3091358564	 0.174979
O	-6.0160463456	-1.8770730099	-0.608865677	-0.269982
H	 0.5877827765	 1.813053012	 0.5704076364	 0.286834
H	 0.8022576156	-0.4701961197	 0.116880511	 0.081878
H	-0.3187725272	-0.1440238055	 1.4516429316	 0.087285
H	-2.2270950019	-0.1140767754	-0.1564663689	 0.123658
H	-1.1214361157	-0.3980535138	-1.4885009716	 0.11612
H	-0.5138256484	-2.6631984198	-0.5124710214	 0.09547
H	-1.7472556851	-3.5261126199	 1.5181614865	 0.122244
H	-2.636280903	-1.9342402365	 1.6369363553	 0.130612
H	-2.6672648171	-3.8102716732	-0.8498618676	 0.112279
H	-4.9328500605	-3.2931782986	 0.3797849694	 0.083096
47.5448	81.8846	95.312	103.4779	147.027	194.7503	256.4236	277.4094	320.7797	429.8768	474.2002	562.8754	640.5102	783.8647	804.7504	837.7064	929.2897	958.5983	1003.035	1039.6796	1050.6889	1056.5848	1080.0246	1089.2203	1135.9415	1166.4992	1176.2404	1182.3882	1237.9886	1241.5624	1253.204	1308.7093	1325.7362	1380.0155	1418.6281	1428.0953	1464.0153	1482.2718	1495.9025	1528.0534	1870.0276	2957.6906	2965.8014	2985.7976	3047.8082	3099.3667	3133.2735	3134.9145	3148.0787	3222.4513	3831.409
OCCC1CC1OC=O	OCC[C@H]1C[C@H]1OC=O	
InChI=1S/C6H10O3/c7-2-1-5-3-6(5)9-4-8/h4-7H,1-3H2	InChI=1S/C6H10O3/c7-2-1-5-3-6(5)9-4-8/h4-7H,1-3H2/t5-,6+/m0/s1
