19
gdb 10736	2.44749	1.98123	1.61434	0.6887	77.25	-0.2359	0.0458	0.2817	936.9569	0.16263	-327.865186	-327.856178	-327.855234	-327.897975	34.203	
C	 0.3714316785	 1.5127785313	 0.2194173199	-0.392858
C	-0.0623916847	 0.0498918853	 0.0083679925	 0.098461
C	 0.5037787737	-0.8458853284	 1.1263195976	-0.392858
C	-1.5347907453	-0.0294858787	 0.0168013741	 0.350863
C	-2.7360319011	-0.1016033531	 0.0044072412	-0.523994
N	 0.5527569415	-0.4028422771	-1.258877248	-0.080074
C	-0.0363041046	-1.5171010517	-1.9914920649	-0.230324
C	-0.1142086285	-0.1278499727	-2.5256941143	-0.230321
H	 1.4631345388	 1.5693472424	 0.208092026	 0.123503
H	-0.0191566001	 2.1491393367	-0.5789954519	 0.122937
H	-0.000375577	 1.891931687	 1.1747870831	 0.12004
H	 0.1351942184	-0.5234829674	 2.1035246765	 0.120041
H	 0.2072652845	-1.8867992739	 0.9728491599	 0.122938
H	 1.5954515286	-0.7887720284	 1.1147432406	 0.123502
H	-3.7966584064	-0.1599499634	 0.0067291694	 0.198311
H	 0.672420803	-2.2320155339	-2.3998161503	 0.113039
H	-0.96588658	-1.9433285536	-1.620618001	 0.12188
H	-1.0941340919	 0.3437718191	-2.5000608644	 0.121876
H	 0.5362852224	 0.1957122605	-3.3333374861	 0.113041
95.6546	151.2542	179.6595	226.655	242.8449	257.6129	309.6776	328.9139	408.0697	458.8122	572.077	579.7376	623.4102	639.4302	655.046	782.0257	829.2381	913.9056	941.1115	944.4026	994.28	1021.9119	1043.2697	1114.8963	1126.2063	1167.3632	1172.2773	1192.1145	1207.4456	1243.4733	1310.9614	1390.0424	1411.0912	1476.1371	1482.972	1483.8848	1491.247	1505.573	1511.4918	2216.7064	3044.0145	3048.181	3102.3378	3104.427	3123.6468	3125.4461	3125.5982	3131.506	3183.1944	3196.6321	3498.6058
CC(C)(C#C)N1CC1	CC(C)(C#C)N1CC1	
InChI=1S/C7H11N/c1-4-7(2,3)8-5-6-8/h1H,5-6H2,2-3H3	InChI=1S/C7H11N/c1-4-7(2,3)8-5-6-8/h1H,5-6H2,2-3H3
