15
gdb 22580	4.39499	1.05691	0.88473	4.2674	65.2	-0.2606	-0.0137	0.2469	1225.5833	0.113415	-491.079937	-491.071898	-491.070954	-491.113081	29.48	
O	-0.2196816713	 1.3074283492	 0.6538166825	-0.394009
N	 0.0066418165	-0.0555588402	 0.4108609758	-0.187172
C	-0.9802647023	-0.5781461392	-0.1991640527	 0.361856
C	-0.9365448207	-2.0373508876	-0.5553160444	-0.254511
N	-2.2970072996	-2.5542042056	-0.4465712569	-0.365423
C	-3.3290416651	-1.9451309957	-1.1237474258	 0.445548
O	-4.3475080754	-2.4899817726	-1.4566187807	-0.372034
O	-3.1052653273	-0.6304551948	-1.4169619845	-0.242241
C	-2.2445278345	 0.1453299483	-0.5791103388	-0.153028
H	 0.5857718201	 1.575516447	 1.1089122272	 0.31486
H	-0.5345422674	-2.1644944438	-1.5731008496	 0.133174
H	-0.2798884687	-2.572290222	 0.1328238579	 0.144239
H	-2.4148341673	-3.5534811068	-0.3759492162	 0.263452
H	-2.7823116615	 0.4477132445	 0.3293441963	 0.148558
H	-2.0146443053	 1.0566020895	-1.1366186502	 0.156729
53.5647	153.3217	174.4839	215.372	298.9948	374.7703	408.0538	442.552	509.636	561.9742	585.9326	625.3946	764.2243	788.7492	817.0716	863.0725	970.6611	1004.2145	1038.6578	1070.8334	1127.0167	1234.8824	1246.041	1267.58	1285.1204	1360.6325	1392.7692	1418.5707	1460.1175	1480.2767	1502.2829	1754.8972	1861.6172	2976.6675	3025.7243	3102.1495	3114.881	3630.1664	3820.623
ON=C1CNC(=O)OC1	ON=C1CNC(=O)OC1	
InChI=1S/C4H6N2O3/c7-4-5-1-3(6-8)2-9-4/h8H,1-2H2,(H,5,7)	InChI=1S/C4H6N2O3/c7-4-5-1-3(6-8)2-9-4/h8H,1-2H2,(H,5,7)
