14
gdb 125076	3.12053	1.38297	0.98133	2.3734	67.11	-0.2463	-0.0425	0.2039	1114.9467	0.10057	-470.01306	-470.004972	-470.004028	-470.046888	28.394	
C	-0.1174842389	 1.1955043806	-0.6744711351	-0.515353
C	-0.0840506614	-0.0933152495	 0.0621802941	 0.350704
C	-0.9957808025	-0.99448228	 0.5417186152	 0.250301
N	-2.3884004517	-1.0933890837	 0.5293839578	-0.400999
C	-3.2668740236	-0.542261859	-0.3602905474	 0.142848
O	-2.9841535989	 0.2090377166	-1.2662606202	-0.301328
N	-0.3013856312	-1.9800501128	 1.1983580667	-0.188421
N	 0.9391823248	-1.7499647462	 1.147693166	-0.006994
O	 1.1249398366	-0.562476495	 0.4239666654	-0.197207
H	 0.6711405683	 1.2132043898	-1.4321005554	 0.151848
H	-1.0887115751	 1.3219175012	-1.1493894697	 0.195117
H	 0.0632495064	 2.0318893076	 0.0104612075	 0.148771
H	-2.7534142936	-1.7722505828	 1.1823922865	 0.273328
H	-4.3013001993	-0.8658874368	-0.1426342614	 0.097386
31.1373	110.8931	191.8729	220.4794	248.5457	285.7786	388.8574	434.5571	574.8398	621.1538	662.8591	693.9197	731.2203	782.0704	873.0762	995.4687	1020.0465	1036.0838	1072.3225	1145.209	1203.7129	1259.7098	1357.5808	1413.5222	1437.7097	1441.3284	1480.179	1493.0122	1558.6766	1673.605	1806.6705	2968.8063	3041.1072	3101.8189	3176.0885	3611.0294
CC1=C(NC=O)N=NO1	Cc1c(NC=O)nno1	
InChI=1S/C4H5N3O2/c1-3-4(5-2-8)6-7-9-3/h2H,1H3,(H,5,8)	InChI=1S/C4H5N3O2/c1-3-4(5-2-8)6-7-9-3/h2H,1H3,(H,5,8)
