21
gdb 113227	2.91145	1.05579	0.97521	0.8746	79.58	-0.2369	0.0867	0.3236	1331.1363	0.180263	-424.176897	-424.167157	-424.166213	-424.211599	35.848	
C	-0.0387295711	 1.0404313365	 0.5140606134	-0.241007
O	-0.2086384385	 0.0236323446	-0.4579887322	-0.235013
C	-1.3848270716	-0.6948498068	-0.2818148615	 0.091047
C	-1.473354363	-2.0257284012	-0.9506420582	-0.373376
C	-1.3962399273	-1.9607877084	 0.5704375706	 0.287526
C	-0.1095349471	-2.3990465416	 1.2394895843	-0.494687
C	-2.6708100722	-2.2284189083	 1.3095989414	 0.033212
C	-2.846773663	-3.3071634645	 2.2915637037	-0.193627
O	-2.6930610431	-1.9488573207	 2.71441593	-0.241243
H	 0.899511324	 1.5500554704	 0.2836677036	 0.127343
H	-0.860465144	 1.7709337742	 0.4752771648	 0.110425
H	 0.0112381906	 0.6284534819	 1.5309199596	 0.120092
H	-2.2832236979	-0.0743785786	-0.2525643371	 0.083413
H	-2.4069376901	-2.309597477	-1.4255323728	 0.111724
H	-0.5813655732	-2.3685318746	-1.4635742518	 0.125304
H	 0.7475022511	-1.9274115134	 0.7543651929	 0.132037
H	-0.1129325463	-2.1121018185	 2.2954525401	 0.133697
H	 0.02462058	-3.484678857	 1.180189174	 0.113482
H	-3.5687310246	-1.8897028886	 0.7869472534	 0.082711
H	-3.8352591458	-3.7372458485	 2.44924548	 0.112915
H	-2.013727747	-3.96514196	 2.530380312	 0.114025
66.1168	112.7516	133.3921	167.6272	226.8447	232.3472	265.1188	277.648	331.9314	402.6716	463.2422	511.6714	565.1173	716.9347	801.5902	839.8709	855.2625	897.5679	933.8148	969.0551	1018.277	1032.5728	1067.645	1084.5502	1106.1292	1121.8451	1133.7534	1156.6271	1176.4493	1182.7746	1185.2704	1243.5999	1273.6602	1286.8475	1348.9047	1392.6797	1412.4778	1446.1671	1471.1577	1486.0501	1493.8335	1499.3455	1510.2529	1511.1241	1529.6398	2989.389	3035.4593	3045.8386	3073.0137	3079.2917	3087.1504	3098.4909	3121.9903	3129.0884	3131.7165	3173.4651	3219.3688
COC1CC1(C)C1CO1	CO[C@H]1C[C@]1(C)[C@H]1CO1	
InChI=1S/C7H12O2/c1-7(6-4-9-6)3-5(7)8-2/h5-6H,3-4H2,1-2H3	InChI=1S/C7H12O2/c1-7(6-4-9-6)3-5(7)8-2/h5-6H,3-4H2,1-2H3/t5-,6+,7-/m0/s1
