15
gdb 75854	3.25969	1.37932	0.98108	3.001	76.08	-0.2457	-0.0503	0.1954	1132.8329	0.111875	-416.824262	-416.815774	-416.81483	-416.857562	30.519	
C	 0.0027281347	 1.4612026254	-0.0336050256	-0.354364
N	 0.0240000263	 0.0132860101	-0.0304237275	-0.152826
C	-1.1171027553	-0.7829235973	-0.0989161102	 0.387934
O	-2.2548461568	-0.3848397616	-0.1687362704	-0.373081
C	-0.5600236782	-2.2066150314	-0.0631519001	-0.309138
N	 0.8934899246	-2.0908966139	 0.0252435886	-0.308964
C	 1.141526747	-0.829054108	 0.0387319736	 0.23157
C	 2.4456926792	-0.2619839797	 0.1174536488	 0.276154
C	 3.5324932306	 0.2473829264	 0.1830033524	-0.380921
H	 0.5489497856	 1.862772825	-0.892048382	 0.143862
H	-1.0457721295	 1.7582537716	-0.0979547581	 0.170044
H	 0.4406099449	 1.8650426695	 0.8838408563	 0.143861
H	-0.9609863557	-2.7583848769	 0.7946223684	 0.156284
H	-0.8539889394	-2.7606449739	-0.9618358082	 0.156284
H	 4.5013457021	 0.6802936847	 0.2414629141	 0.213305
99.6876	114.0406	140.5189	181.9368	207.225	291.2176	381.2534	426.8114	534.7989	555.8897	595.2843	655.6421	681.3112	710.0342	727.7035	730.599	945.3904	969.6355	1037.9291	1096.6358	1157.547	1165.9935	1173.4986	1268.0461	1337.8182	1382.3816	1431.8799	1458.3657	1492.5797	1508.5822	1642.4988	1837.1007	2244.4677	3042.6221	3049.1523	3082.4194	3106.589	3145.1509	3497.1447
CN1C(=O)CN=C1C#C	CN1C(=O)CN=C1C#C	
InChI=1S/C6H6N2O/c1-3-5-7-4-6(9)8(5)2/h1H,4H2,2H3	InChI=1S/C6H6N2O/c1-3-5-7-4-6(9)8(5)2/h1H,4H2,2H3
