25
gdb 122376	4.10073	0.67984	0.66762	0.1764	93.28	-0.2464	0.0868	0.3332	1863.9109	0.229384	-352.334795	-352.324955	-352.32401	-352.370476	37.038	
C	 0.2388377147	 1.4845939019	 0.1591086422	-0.379715
C	-0.0790714986	 0.0056381718	-0.0770515835	-0.163835
C	 0.7687847718	-0.6242847732	-1.1870567393	-0.148888
C	 0.451411833	-2.1054318185	-1.4335510219	-0.225139
C	 1.2768315203	-2.7010487155	-2.5572321247	 0.011046
C	 2.6915568801	-3.2080304497	-2.4346059039	-0.061908
C	 2.9208284919	-3.9489760845	-1.1094733217	-0.227934
C	 1.753171341	-4.9244049803	-1.4677927383	-0.226072
C	 1.5409334178	-4.1656687472	-2.7851115619	-0.086902
H	 1.2888348046	 1.6234467665	 0.4403994278	 0.112545
H	 0.0600725905	 2.0772174284	-0.7451845987	 0.112255
H	-0.3782088794	 1.905228422	 0.9594576949	 0.109288
H	 0.0714222174	-0.5549669497	 0.8553425659	 0.092473
H	-1.1426179997	-0.1059009861	-0.3271561213	 0.092533
H	 0.6210063893	-0.0610414478	-2.1194645949	 0.08778
H	 1.8337096557	-0.5195429314	-0.9389514966	 0.095728
H	 0.6026132558	-2.6642299202	-0.5030868087	 0.09616
H	-0.6148325318	-2.2126523093	-1.6774252377	 0.09066
H	 1.130413017	-2.1777529317	-3.5023117594	 0.078063
H	 3.482570077	-2.835242521	-3.0752674073	 0.07686
H	 3.8847956335	-4.4613494354	-1.0770483711	 0.100408
H	 2.8176221317	-3.3580992011	-0.1932279169	 0.093435
H	 2.10994409	-5.9445123946	-1.6263018939	 0.099825
H	 0.9014240875	-4.9636300663	-0.7808456343	 0.094191
H	 1.3148563789	-4.6355584569	-3.735655565	 0.077141
46.675	73.9396	104.3511	122.0484	221.6812	236.0758	256.5179	311.0837	368.0795	461.226	549.6709	709.7373	734.3557	756.8983	786.6205	794.5695	805.432	892.425	912.2512	929.9483	954.7635	959.4539	994.3523	1014.3077	1017.5967	1032.5072	1065.6567	1074.6588	1094.292	1116.9525	1137.0371	1158.1541	1212.3836	1224.027	1243.1816	1251.2715	1263.4412	1275.5703	1306.045	1315.4306	1327.9455	1343.1407	1365.7405	1395.5982	1413.074	1453.5436	1474.8577	1484.7935	1488.4816	1498.6211	1499.2842	1507.3457	1512.8498	3002.8536	3009.2664	3015.7899	3027.6886	3029.271	3042.3168	3047.3294	3050.3805	3067.0369	3092.3598	3093.9061	3099.3112	3108.1112	3111.0236	3164.6084	3176.8309
CCCCC1C2CCC12	CCCC[C@H]1[C@H]2CC[C@@H]12	
InChI=1S/C9H16/c1-2-3-4-7-8-5-6-9(7)8/h7-9H,2-6H2,1H3	InChI=1S/C9H16/c1-2-3-4-7-8-5-6-9(7)8/h7-9H,2-6H2,1H3/t7-,8+,9-
