19
gdb 108129	3.00797	1.496	1.35166	1.9502	74.19	-0.2411	0.0644	0.3055	1019.8539	0.160764	-422.974994	-422.967601	-422.966656	-423.006885	29.822	
O	 0.0946609009	 1.4248647736	-0.0937001763	-0.414773
C	 0.0531574319	 0.0098316184	 0.0527264652	-0.192049
C	-1.3545986815	-0.5237935139	 0.0691728129	 0.303231
C	-2.3341440333	-0.3749488857	 1.2510258679	-0.306392
C	-3.1365542876	-1.4252367347	 0.4555745169	 0.075407
O	-3.5564877357	-0.6739779458	-0.6937714177	-0.271086
C	-2.2489364347	-0.4519273574	-1.2473819195	 0.047709
C	-1.8069378297	-1.8892229845	-1.6063614018	-0.248982
C	-1.7739849913	-2.0411242246	-0.0791407721	-0.119387
H	-0.3810062645	 1.8088339204	 0.6500244872	 0.285752
H	 0.6081606617	-0.3876841453	-0.8042324591	 0.109766
H	 0.5878268143	-0.3136753231	 0.960601224	 0.087129
H	-1.8948854843	-0.7788361589	 2.168490896	 0.097475
H	-2.8347616649	 0.5784990119	 1.4421828119	 0.097901
H	-3.9578182024	-2.0095009508	 0.8668975544	 0.079665
H	-2.2444826853	 0.3888331538	-1.9377957598	 0.087587
H	-2.5091186518	-2.4815674103	-2.1973234136	 0.102367
H	-0.8025805164	-1.9392542934	-2.0338153316	 0.10411
H	-1.3105390255	-2.8606457298	 0.4678813949	 0.07457
83.1517	150.944	258.3486	315.1517	358.7919	434.782	470.3739	530.127	604.9148	696.9554	715.476	806.6235	840.3561	895.1337	905.8532	922.7963	929.3	940.5702	968.573	991.5099	1019.8635	1045.8711	1051.5754	1062.8275	1116.273	1139.0558	1148.4222	1172.7607	1200.5434	1216.544	1236.5302	1249.0921	1273.2972	1283.4265	1314.1375	1345.8868	1374.889	1419.6283	1478.7826	1480.8832	1501.5864	2971.7168	3046.8084	3060.9766	3068.2915	3109.1956	3126.6795	3129.7172	3139.2875	3147.7774	3815.0852
OCC12CC3OC1CC23	OC[C@@]12C[C@H]3O[C@@H]1C[C@@H]23	
InChI=1S/C7H10O2/c8-3-7-2-5-4(7)1-6(7)9-5/h4-6,8H,1-3H2	InChI=1S/C7H10O2/c8-3-7-2-5-4(7)1-6(7)9-5/h4-6,8H,1-3H2/t4-,5-,6-,7-/m1/s1
