18
gdb 22816	2.75505	1.43845	1.01277	1.4136	76.51	-0.2454	-0.0016	0.2437	1160.2404	0.148119	-439.053889	-439.045569	-439.044624	-439.0869	32.364	
O	-0.1515282964	 1.376460107	-0.4255711397	-0.411693
N	-0.0392151504	-0.0331813403	-0.3127310397	-0.206831
C	-1.1383121713	-0.5875761624	 0.0280022128	 0.362272
C	-1.1408623585	-2.0942619892	 0.0330236744	-0.286767
C	-1.8520216326	-2.6750651148	 1.264045564	-0.260952
C	-3.163769351	-1.9780495417	 1.5057524479	-0.065792
C	-3.427266773	-0.7503188117	 1.067074734	-0.043292
C	-2.4436748554	 0.1369235241	 0.3458882519	-0.009396
O	-2.2629325533	 1.2711305864	 1.1827654251	-0.439876
H	 0.7582366441	 1.6414531074	-0.5937343531	 0.311877
H	-1.6875423555	-2.427598221	-0.8607396187	 0.120495
H	-0.1141523941	-2.4557061339	-0.0626783452	 0.120042
H	-2.0117187689	-3.7498360791	 1.1219889298	 0.107488
H	-1.2125317196	-2.5810563514	 2.1530756608	 0.124481
H	-3.9184546377	-2.5166348769	 2.0733618417	 0.093391
H	-4.3797990478	-0.2751594858	 1.2826460265	 0.099385
H	-2.8799607971	 0.4476255497	-0.6226662489	 0.089751
H	-1.5607535716	 1.7964315135	 0.7767213664	 0.295417
53.8555	137.9226	263.67	315.3588	321.566	323.2595	385.7298	409.1591	452.3163	489.2821	538.7393	606.5878	625.4469	708.0388	736.0554	854.0087	881.7054	933.0959	951.9215	984.2713	1010.3642	1037.0949	1058.4447	1084.847	1169.5621	1186.1489	1248.2894	1259.1252	1263.4924	1339.5878	1345.9268	1357.5595	1395.8023	1411.7008	1446.8562	1470.1479	1485.4229	1724.2976	1736.1596	2913.9023	3007.0453	3015.8586	3058.6899	3101.3524	3153.491	3180.5212	3751.5318	3831.428
ON=C1CCC=CC1O	ON=C1CCC=C[C@H]1O	
InChI=1S/C6H9NO2/c8-6-4-2-1-3-5(6)7-9/h2,4,6,8-9H,1,3H2	InChI=1S/C6H9NO2/c8-6-4-2-1-3-5(6)7-9/h2,4,6,8-9H,1,3H2/t6-/m1/s1
