25
gdb 115268	3.29455	0.88866	0.85431	1.2568	88.65	-0.2617	0.0791	0.3409	1524.9285	0.22883	-389.512127	-389.501895	-389.500951	-389.547638	39.255	
C	-0.146820165	 1.5595867847	-0.0486799586	-0.427783
C	-0.0108571326	 0.0282632475	-0.008006277	 0.355611
C	-1.4085494153	-0.6079520425	-0.0047507255	-0.436521
C	 0.8330597431	-0.4773966101	-1.219561787	-0.251483
C	 2.2530874535	-0.6867727868	-0.6778834334	-0.204354
C	 2.0012846334	-1.2584039254	 0.726348327	 0.058861
C	 3.2099107032	-1.2478091511	 1.6474841941	-0.10072
O	 4.2102103182	-2.083601833	 1.0802882446	-0.424804
C	 0.8196118829	-0.4132700606	 1.2461218889	-0.279871
H	 0.8333143767	 2.0442809717	-0.1186205058	 0.107901
H	-0.7410956266	 1.8810767908	-0.91158406	 0.107194
H	-0.6387589813	 1.9368790664	 0.8552461188	 0.107243
H	-1.9499682415	-0.3771282592	-0.929499579	 0.108059
H	-1.3458953662	-1.6985587244	 0.0799349733	 0.107513
H	-2.0116382569	-0.2412410144	 0.8338869474	 0.106659
H	 0.4349903158	-1.4365889465	-1.5727167697	 0.089481
H	 0.790631252	 0.2140829079	-2.0671381367	 0.086338
H	 2.8692227743	-1.3388533182	-1.3007922276	 0.105397
H	 2.7789186334	 0.2744949552	-0.5934354663	 0.087518
H	 1.6800380419	-2.3032754083	 0.6175496455	 0.075713
H	 3.573650867	-0.21180215	 1.7584120519	 0.078759
H	 2.9205515201	-1.6012985455	 2.6508764766	 0.081334
H	 4.9788195297	-2.0678980163	 1.6576656809	 0.284965
H	 1.2040326984	 0.472068043	 1.7687514726	 0.086207
H	 0.2059674416	-0.9599091849	 1.968905585	 0.090783
24.3169	116.175	158.2856	197.3286	257.3473	263.0399	285.1313	300.642	332.589	367.5712	411.2533	417.2635	453.7975	566.3636	581.2083	737.2322	824.4334	869.4833	887.6666	914.8078	941.1485	952.6712	966.9728	997.6397	1010.4524	1057.7428	1060.3341	1088.3485	1094.2708	1118.2571	1188.8098	1210.7212	1222.7623	1250.3957	1256.7456	1284.4631	1286.4336	1302.7133	1325.5618	1348.8767	1355.6668	1388.2542	1399.5588	1422.1945	1460.3966	1485.4912	1486.5653	1489.0435	1496.8689	1504.0976	1506.6844	1508.8561	1520.1332	2951.069	2978.9445	3009.3177	3016.5105	3016.9233	3019.7571	3027.1657	3030.7662	3073.426	3075.6449	3084.9515	3088.5487	3089.4449	3090.8752	3105.717	3830.4448
CC1(C)CCC(CO)C1	CC1(C)CC[C@@H](CO)C1	
InChI=1S/C8H16O/c1-8(2)4-3-7(5-8)6-9/h7,9H,3-6H2,1-2H3	InChI=1S/C8H16O/c1-8(2)4-3-7(5-8)6-9/h7,9H,3-6H2,1-2H3/t7-/m1/s1
