19
gdb 117964	2.89455	0.82175	0.68	1.7891	69.39	-0.2636	0.0024	0.266	1647.8579	0.15634	-497.323063	-497.312274	-497.31133	-497.360098	36.719	
C	-0.0242204845	 1.3448701145	 0.0032458742	-0.244029
O	-0.074688213	-0.0911959269	 0.0118576133	-0.224826
C	-1.297266137	-0.6278101449	-0.003323436	 0.42759
O	-2.326186338	 0.0084384161	-0.0132847964	-0.3802
C	-1.2736108082	-2.1516205272	-0.012683827	 0.008427
O	-2.5891113984	-2.6302119246	 0.135789385	-0.438488
C	-0.6212284436	-2.6810862643	-1.3003476891	-0.181407
C	-0.5841892865	-4.2034958247	-1.3290757106	-0.081246
O	 0.0445403312	-4.5921557516	-2.5416390248	-0.424271
H	 1.0341964934	 1.6025517243	 0.018254775	 0.14119
H	-0.503341054	 1.7386166477	-0.8961417234	 0.147475
H	-0.5316081724	 1.7491934858	 0.8822197719	 0.147055
H	-0.6693828726	-2.4766306224	 0.848727493	 0.100206
H	-3.1606977284	-1.8495987156	 0.077667949	 0.295261
H	-1.1877381677	-2.3227172499	-2.167528542	 0.110875
H	 0.3979020296	-2.2903118415	-1.3819626391	 0.11759
H	-0.026071884	-4.5758991422	-0.4531474895	 0.081306
H	-1.6084780418	-4.5929531785	-1.2580324181	 0.111477
H	-0.0208285241	-5.5482812739	-2.6183198855	 0.286013
48.9784	89.9799	93.7326	109.4263	114.6636	183.3778	221.3556	250.0089	297.1941	342.8954	366.5671	399.5561	441.6214	524.9684	693.1408	768.5003	809.7231	907.2525	954.492	1014.9943	1036.5084	1078.676	1110.8368	1149.5674	1177.9573	1210.1991	1226.2056	1229.3461	1257.1936	1297.8002	1313.6372	1325.8603	1371.6962	1446.396	1462.1243	1477.8505	1482.6092	1485.0521	1495.6887	1531.3274	1801.8918	2958.2721	2989.0916	3030.6571	3045.5842	3056.6715	3099.9457	3134.2101	3167.0478	3711.1086	3831.8698
COC(=O)C(O)CCO	COC(=O)[C@@H](O)CCO	
InChI=1S/C5H10O4/c1-9-5(8)4(7)2-3-6/h4,6-7H,2-3H2,1H3	InChI=1S/C5H10O4/c1-9-5(8)4(7)2-3-6/h4,6-7H,2-3H2,1H3/t4-/m0/s1
