15
gdb 130374	3.55689	1.10195	0.84163	6.8846	92.64	-0.1399	-0.045	0.0949	1286.1616	0.113919	-450.102532	-450.094264	-450.09332	-450.13557	30.683	
N	 0.1165960465	 1.4186919696	 0.1022104318	-0.514261
C	-0.0362088988	 0.0718400663	 0.0125266075	 0.140402
N	 0.9578702819	-0.7658939732	-0.001781619	-0.290981
H	 1.9582607062	-0.4772997927	-0.0051357781	 0.264636
C	 0.9927618291	-2.143563064	-0.0139607891	 0.287859
N	-0.0259694289	-3.0036667984	-0.002954767	-0.350749
N	 0.624833484	-4.1777387718	-0.024628062	-0.164931
C	 1.9910131675	-4.0969797696	-0.0466670978	-0.212746
C	 2.3203547692	-2.7134103943	-0.0420698337	 0.23825
O	 3.3704664658	-2.0154368893	-0.0551393717	-0.530451
H	 1.0277658005	 1.8220816611	-0.0559963242	 0.282329
H	-0.6623094485	 1.9962079154	-0.1667564463	 0.284126
H	-1.0426334016	-0.3281420954	 0.0077266916	 0.180799
H	 0.0751009561	-5.0193602932	-0.0215380141	 0.269589
H	 2.601801281	-4.9842112305	-0.064418688	 0.116129
92.5601	112.205	170.4341	288.0801	290.979	362.4886	378.651	404.3742	449.3391	467.7708	599.8865	645.7128	650.5434	704.8314	745.8475	847.1988	861.3455	936.8061	1020.8149	1044.9553	1077.8727	1161.4341	1217.6381	1272.021	1317.519	1340.4939	1358.4987	1453.4957	1485.5855	1549.7759	1647.1935	1667.8706	1743.2762	3164.7155	3228.777	3268.0151	3589.4386	3676.3348	3709.7925
NC=[NH+]C1=NNC=C1[O-]	[NH2]=CNC1=NN[CH]C1=O	
InChI=1S/C4H6N4O/c5-2-6-4-3(9)1-7-8-4/h1-2,9H,(H3,5,6,7,8)	InChI=1S/C4H6N4O/c5-2-6-4-3(9)1-7-8-4/h1-2,7H,5H2,(H,6,8)
