13
gdb 27510	2.09824	2.0063	1.02568	5.6494	64.63	-0.2608	-0.0187	0.2421	1054.851	0.090966	-486.148127	-486.140291	-486.139347	-486.180945	28.462	
N	 0.0320080122	 1.3263986441	-0.0231614873	-0.555233
C	-0.0757354906	-0.0098518031	 0.0713941093	 0.507928
N	-1.1805665225	-0.6280948303	-0.1472833462	-0.400126
C	-1.2003256501	-2.0062318607	-0.002150756	 0.439983
O	-2.1713341545	-2.6990410359	-0.1760554258	-0.364217
N	 0.0235085582	-2.5912542697	 0.3746746013	-0.384778
C	 1.2041815175	-1.9378616193	 0.6010392698	 0.475207
N	 2.2755451173	-2.5120137131	 0.9320149808	-0.559151
O	 1.1192771421	-0.5610352736	 0.4318423007	-0.249579
H	 0.9278620054	 1.7724768833	 0.0593663308	 0.282001
H	-0.7656140177	 1.8412368257	-0.3527296098	 0.291181
H	 0.0354160872	-3.5943814673	 0.485375323	 0.283168
H	 3.0319407756	-1.8434858	 1.0518114594	 0.233616
101.0636	122.1719	133.8688	183.3299	341.5254	387.1942	511.4442	531.1123	552.0821	604.2238	612.4745	678.7937	705.915	741.5856	778.9339	806.1378	910.1114	955.5112	1010.5929	1114.7535	1138.4259	1268.9172	1372.1983	1394.3337	1433.4635	1604.122	1710.2446	1805.2641	1843.7765	3544.3263	3629.6733	3636.3121	3765.736
NC1=NC(=O)NC(=N)O1	NC1=NC(=O)N[C]([NH])O1	
InChI=1S/C3H4N4O2/c4-1-6-3(8)7-2(5)9-1/h(H4,4,5,6,7,8)	InChI=1S/C3H4N4O2/c4-1-6-3(8)7-2(5)9-1/h(H4,4,5,6,7,8)
