18
gdb 69910	2.73747	1.76383	1.41473	2.2877	75.	-0.2357	0.0006	0.2364	967.9342	0.149031	-401.917651	-401.910363	-401.909419	-401.949079	29.601	
C	 0.011388095	 1.4763202569	 0.0084060051	-0.495094
C	 0.0435006812	-0.025976579	-0.0241417396	 0.335925
N	-0.8228737435	-0.8429265238	 0.8569787508	-0.379758
C	 0.6501436999	-0.9070577522	 1.0195309877	-0.091593
C	 1.3554903552	-1.9794177317	 0.173425497	-0.162796
C	 0.3142663325	-2.2663603017	-0.9552347478	-0.247994
C	 0.4822917749	-0.7568699973	-1.3126373615	-0.204181
C	 1.9682727634	-1.0241829128	-0.9031283891	 0.428175
O	 3.0511636668	-0.7415935661	-1.3085210887	-0.317437
H	 0.9179443527	 1.8943053777	-0.4426082259	 0.139778
H	-0.8477688119	 1.8683855936	-0.5479094666	 0.129148
H	-0.0544395671	 1.8485716047	 1.0363583592	 0.116311
H	-1.1922759592	-0.2353839234	 1.5855374949	 0.229914
H	 1.1163405518	-0.5184548128	 1.9173694967	 0.099327
H	 1.9262442906	-2.7625815296	 0.6663628166	 0.083974
H	 0.7146217911	-2.9225699909	-1.7295106837	 0.111608
H	-0.6747969138	-2.5769514575	-0.6296330427	 0.144223
H	 0.2016140305	-0.3399258242	-2.2774599224	 0.080469
121.3664	192.839	229.274	310.24	374.2105	461.0138	489.0276	521.5335	587.7339	657.31	699.5274	765.9126	820.7667	840.808	857.5547	908.9538	915.7249	955.2066	970.1972	993.5383	1008.856	1037.2156	1051.3304	1076.3288	1098.4359	1119.5563	1161.649	1185.6105	1207.6668	1239.3151	1255.3675	1305.1025	1329.571	1408.0516	1426.8551	1478.827	1485.1086	1501.1831	1905.703	3025.2919	3088.8032	3094.1301	3098.7437	3145.355	3151.7298	3180.7442	3182.9031	3494.6681
CC12NC1C1CC2C1=O	C[C@]12N[C@H]1[C@H]1C[C@@H]2C1=O	
InChI=1S/C7H9NO/c1-7-4-2-3(5(4)9)6(7)8-7/h3-4,6,8H,2H2,1H3	InChI=1S/C7H9NO/c1-7-4-2-3(5(4)9)6(7)8-7/h3-4,6,8H,2H2,1H3/t3-,4+,6-,7+/m0/s1
