18
gdb 125689	3.0687	1.00462	0.80759	0.9947	73.85	-0.2472	0.0008	0.248	1401.6812	0.148596	-435.276893	-435.267641	-435.266697	-435.312032	32.564	
C	-0.075711143	 1.5169718305	-0.079388826	-0.507388
C	-0.0202579947	 0.0262320371	 0.0062199179	 0.246055
N	-0.0400022536	-0.7444693493	-1.0841499377	-0.258461
N	 0.0199317483	-1.9751228025	-0.5921017815	-0.084797
N	 0.071368937	-2.0839714974	 0.7277084003	-0.265978
C	 0.047355943	-0.8140721351	 1.1434774885	 0.234662
C	 0.1259847057	-0.455153526	 2.5928981	-0.32736
C	 1.5758905935	-0.275726397	 3.0794131604	-0.056874
O	 1.6469826285	 0.1306436071	 4.4339144855	-0.413991
H	 0.8397064796	 1.9790996538	 0.3058805795	 0.13659
H	-0.2015809389	 1.8254696687	-1.1190044197	 0.146253
H	-0.9113442255	 1.9196373042	 0.5032834826	 0.134987
H	 0.0081834989	-2.7846803058	-1.1902912412	 0.289897
H	-0.4200947057	 0.4743899238	 2.7855544126	 0.11415
H	-0.353081722	-1.2447720181	 3.1831631787	 0.110871
H	 2.1374359815	-1.2045363882	 2.8992610828	 0.103017
H	 2.0668651372	 0.5161134108	 2.503769804	 0.114978
H	 1.3080246101	-0.5888517565	 4.9761550633	 0.283389
47.8841	90.7385	99.3956	121.9847	242.5769	266.5636	304.5315	360.5695	387.426	427.3469	494.116	670.7559	719.9304	733.1532	780.8018	809.4519	978.3291	1013.1166	1023.6815	1041.7319	1069.6296	1077.7104	1142.1074	1195.1434	1201.7991	1252.8611	1301.9568	1314.4094	1374.5012	1394.303	1412.86	1418.5044	1453.9564	1477.5956	1484.4655	1489.0803	1510.8694	1527.1018	1564.873	2996.9148	3037.1605	3038.7775	3069.8482	3088.0284	3093.6716	3135.4038	3673.5497	3815.0118
CC1=NNN=C1CCO	Cc1n[nH]nc1CCO	
InChI=1S/C5H9N3O/c1-4-5(2-3-9)7-8-6-4/h9H,2-3H2,1H3,(H,6,7,8)	InChI=1S/C5H9N3O/c1-4-5(2-3-9)7-8-6-4/h9H,2-3H2,1H3,(H,6,7,8)
