23
gdb 40667	3.22926	1.02281	0.91314	0.1087	91.03	-0.2391	0.0927	0.3318	1409.4863	0.206268	-351.116956	-351.108012	-351.107068	-351.151266	34.681	
C	-0.3863664883	 1.3032103223	-0.4299502712	-0.272846
C	 1.0260661995	 1.4142860107	 0.0902730329	-0.272199
C	 0.3330071631	 0.0721709364	 0.0652724453	 0.028464
C	-0.0865080798	-0.5911516347	 1.3381522962	-0.065622
C	-0.7443456324	-1.955833014	 1.3144139425	-0.377829
C	 0.639381984	-1.7986281701	 1.8735419245	 0.366267
C	 1.9658301031	-2.3661464288	 1.3432708858	-0.291625
C	 2.5407719295	-2.2494748981	 2.7864003092	-0.199166
C	 1.1032513141	-1.9877820758	 3.3254561905	-0.293331
H	-1.1861547499	 1.7006641814	 0.1864684947	 0.109577
H	-0.5538928053	 1.4113575555	-1.495974516	 0.108053
H	 1.8252560197	 1.5995986367	-0.6191317994	 0.108175
H	 1.1735935752	 1.8871912047	 1.0559388546	 0.108576
H	 0.6675759426	-0.6168424805	-0.70592341	 0.078244
H	-0.4582441706	 0.1002208496	 2.0934637511	 0.071853
H	-1.560486112	-2.1525649886	 2.003370378	 0.104376
H	-0.8505156411	-2.4441010998	 0.3492500936	 0.104701
H	 1.8808149597	-3.4029304459	 1.00187165	 0.096274
H	 2.4749840886	-1.7871828155	 0.5680476828	 0.099346
H	 3.0579696557	-3.1272742112	 3.1796179483	 0.095358
H	 3.1944094552	-1.3817395729	 2.9038511126	 0.102986
H	 0.9764966235	-1.1355338046	 3.9997874682	 0.093313
H	 0.6624869659	-2.8712146666	 3.7995950157	 0.097055
50.4022	84.8999	137.5037	142.1599	286.0982	309.0431	338.4614	404.4252	474.2288	572.0099	714.5175	746.7111	784.3983	805.5305	822.1687	853.6101	875.0844	897.8227	911.8652	927.4209	939.9152	962.1747	984.3602	1039.3472	1047.5619	1057.4721	1072.1838	1076.4283	1097.5394	1136.0457	1141.8896	1186.3266	1198.6456	1214.0637	1226.051	1233.4906	1237.9096	1254.6261	1269.3189	1280.4504	1313.3756	1364.9315	1450.5595	1469.2674	1476.5792	1480.6628	1492.6027	1505.8476	1510.5906	3038.4307	3044.7592	3065.2885	3083.7192	3092.0273	3108.744	3111.7503	3120.2922	3126.9573	3131.6885	3139.4604	3194.6948	3204.5974	3220.2991
C1CC1C1CC11CCC1	C1CC1[C@H]1CC21CCC2	
InChI=1S/C9H14/c1-4-9(5-1)6-8(9)7-2-3-7/h7-8H,1-6H2	InChI=1S/C9H14/c1-4-9(5-1)6-8(9)7-2-3-7/h7-8H,1-6H2/t8-/m1/s1
