12
gdb 49127	3.65368	1.26626	0.94036	3.6373	68.54	-0.2777	-0.1254	0.1523	1123.2084	0.077264	-472.681331	-472.673962	-472.673017	-472.713783	26.17	
N	-0.0855609867	 1.2782082637	 0.0101997161	-0.505257
C	-0.02827525	 0.0173652184	 0.0033769652	 0.43409
O	 1.1253157816	-0.7363393047	-0.0067413456	-0.233569
C	 0.7879941943	-2.0975150525	-0.0119367182	 0.404527
O	 1.6154873298	-2.9487932779	-0.0208257379	-0.280985
C	-0.7075799196	-2.1633597089	-0.0042087515	 0.071281
C	-1.5170468917	-3.4000297925	-0.0062206975	 0.089338
O	-1.0656984197	-4.5159127515	-0.0143881862	-0.223937
C	-1.1710641002	-0.9033434618	 0.004807177	-0.267974
H	 0.8499220192	 1.6900510426	 0.0072730842	 0.251535
H	-2.6123829733	-3.2094505942	 0.0006295361	 0.093031
H	-2.1958269437	-0.5583410607	 0.0121236283	 0.167919
78.4035	164.4433	168.4468	208.8599	360.8346	362.1087	433.238	543.0752	644.2986	670.9875	755.9769	784.8006	784.9202	904.1283	920.4432	943.13	1003.7778	1039.0894	1102.7815	1173.4393	1328.6844	1349.7209	1427.2009	1661.3665	1754.9754	1807.3116	1917.7608	2896.0349	3245.3297	3479.1929
N=C1OC(=O)C(C=O)=C1	[NH]C1=C[C](C(=O)O1)C=O	
InChI=1S/C5H3NO3/c6-4-1-3(2-7)5(8)9-4/h1-2,6H	InChI=1S/C5H3NO3/c6-4-1-3(2-7)5(8)9-4/h1-2,6H
