15
gdb 61490	2.95355	1.00408	0.91907	2.577	65.75	-0.3129	-0.0181	0.2948	1267.5018	0.111578	-453.952893	-453.943661	-453.942717	-453.987491	32.62	
O	-1.0812288908	 0.6891989988	 0.0772760924	-0.41234
C	-0.1091537683	-0.3309522646	 0.0857046472	 0.002527
C	 0.1400356149	-0.9501594562	-1.3133043252	-0.272405
C	 0.1887142587	 0.1404146891	-2.4071604648	-0.021083
O	 0.8488786064	 1.3269327591	-1.9938797397	-0.419398
C	 0.763059883	-0.4007269908	-3.652205301	 0.268825
N	 1.2323643505	-0.8357265886	-4.6139830402	-0.299709
C	 1.1680605312	 0.1372172276	 0.6692697877	 0.249641
N	 2.178567723	 0.5036931469	 1.0943785719	-0.322196
H	-0.6853933411	 1.4504376061	-0.3696389186	 0.311525
H	-0.4956183241	-1.114863631	 0.7453487747	 0.151398
H	 1.0689816089	-1.5283932061	-1.2978280855	 0.146271
H	-0.6732394658	-1.6410461554	-1.552706056	 0.144228
H	-0.835227623	 0.4596610407	-2.6230647063	 0.159272
H	 1.7669588065	 1.1285971643	-1.7684124466	 0.313443
52.0692	98.0327	143.071	181.6426	218.6711	260.2398	272.9882	362.9686	397.1576	458.1515	548.1475	570.6975	586.2966	601.9601	686.809	776.8771	885.5961	937.707	987.7102	1054.5679	1091.5202	1102.9587	1200.6787	1257.8118	1303.5837	1304.297	1335.044	1373.8587	1430.7579	1439.3279	1479.0784	2351.3491	2360.0803	3059.4004	3070.3277	3078.4115	3113.0215	3759.1708	3785.195
OC(CC(O)C#N)C#N	O[C@@H](C[C@@H](O)C#N)C#N	
InChI=1S/C5H6N2O2/c6-2-4(8)1-5(9)3-7/h4-5,8-9H,1H2	InChI=1S/C5H6N2O2/c6-2-4(8)1-5(9)3-7/h4-5,8-9H,1H2/t4-,5+
