23
gdb 118434	2.11597	1.05959	0.7794	3.6584	83.6	-0.2266	0.0627	0.2893	1573.9789	0.20503	-421.654917	-421.64378	-421.642836	-421.692056	39.903	
C	-0.0792458163	 1.5893170508	 0.0178665524	-0.379363
C	-0.06910204	 0.0586934599	 0.0136218948	-0.166658
C	 0.7164574813	-0.5130459654	-1.1727639866	-0.157127
N	 0.7155261424	-1.9741894038	-1.2167188453	-0.090462
C	-0.3483689814	-2.6363380285	-1.9607383534	-0.172411
C	 0.0225271651	-2.9821134564	-3.4077219811	-0.375702
C	 1.7929561908	-2.6269222468	-0.6598317258	 0.441116
N	 1.8145082282	-4.0125620816	-0.8015292169	-0.569395
O	 2.7099042666	-2.038215746	-0.1078536298	-0.414377
H	 0.9388141104	 1.9902451703	 0.0694752673	 0.123314
H	-0.5459426323	 1.9884460986	-0.8901657725	 0.110349
H	-0.6345608832	 1.9807570828	 0.875358576	 0.114098
H	 0.3861559893	-0.3188990305	 0.9357111582	 0.117871
H	-1.099119555	-0.3207848646	-0.0091808329	 0.087863
H	 0.2995843457	-0.1398728815	-2.1168546637	 0.090514
H	 1.7562684471	-0.1862311565	-1.1144591481	 0.141609
H	-0.6801024223	-3.5368488817	-1.4286573933	 0.100776
H	-1.2151220213	-1.9677161601	-1.9483874351	 0.116072
H	-0.8221778347	-3.4560453171	-3.9186959561	 0.11303
H	 0.293387913	-2.0792220432	-3.963519795	 0.126363
H	 0.8745303312	-3.6662283546	-3.4357043189	 0.138981
H	 0.9447569568	-4.5176749723	-0.8576104712	 0.24597
H	 2.4939710287	-4.4308126817	-0.184467333	 0.257569
46.9621	77.4394	87.0675	97.1994	116.1562	227.9987	235.2146	267.7713	317.8033	339.5498	381.7253	428.103	436.7767	539.8408	578.4972	597.0618	745.3742	763.0027	784.9241	796.6659	877.0551	896.8139	951.9567	1037.6579	1061.6546	1091.8369	1101.2593	1121.4465	1124.5388	1226.775	1248.1279	1304.0552	1323.3184	1334.1989	1351.4698	1383.2027	1408.0004	1410.303	1419.4901	1454.7195	1474.6344	1489.8989	1492.3168	1499.5062	1502.1352	1508.1957	1525.0596	1621.6839	1771.38	3019.7156	3023.8561	3025.4961	3030.3631	3039.7636	3068.6189	3071.2242	3096.6306	3105.6015	3109.2889	3121.0837	3127.0882	3584.3625	3696.7099
CCCN(CC)C(N)=O	CCCN(CC)C(=O)N	
InChI=1S/C6H14N2O/c1-3-5-8(4-2)6(7)9/h3-5H2,1-2H3,(H2,7,9)	InChI=1S/C6H14N2O/c1-3-5-8(4-2)6(7)9/h3-5H2,1-2H3,(H2,7,9)
