19
gdb 6284	2.94235	1.21127	1.05892	4.8931	71.96	-0.279	0.038	0.317	1211.756	0.163615	-365.088524	-365.078903	-365.077959	-365.122994	34.448	
C	 0.003920884	 1.5931906923	-0.0739118231	-0.411209
C	-0.0058322881	 0.0667092616	-0.0346982612	 0.12207
O	 0.5674990924	-0.4296203744	 1.174682695	-0.427239
C	-1.4124187178	-0.5108246816	-0.246754585	-0.196323
C	-1.4379076743	-2.054954351	-0.2727992181	-0.120068
C	-2.8688078792	-2.6216142808	-0.219581099	-0.402531
C	-0.7333702708	-2.5573572103	-1.4580254834	 0.272834
N	-0.1887960746	-2.9418456047	-2.4026962093	-0.335345
H	 1.0152866234	 1.9684619807	 0.102581652	 0.131208
H	-0.3414082558	 1.9674774423	-1.0426632741	 0.124765
H	-0.6565766298	 2.0088100442	 0.6983281621	 0.106694
H	 0.6521888479	-0.3162514557	-0.8238042875	 0.117179
H	 0.1251507709	 0.0089866599	 1.9104365297	 0.277531
H	-2.0624145526	-0.1767103203	 0.5733790673	 0.090454
H	-1.8428948818	-0.1175925538	-1.1748976286	 0.113585
H	-0.8764619554	-2.4016437853	 0.6025622073	 0.14047
H	-2.8608883218	-3.7142321067	-0.2324312131	 0.138182
H	-3.3631357735	-2.2901421872	 0.6981178763	 0.122426
H	-3.4589772931	-2.2750696993	-1.0729251372	 0.135315
58.1765	93.1187	140.8169	206.293	223.0818	246.3874	271.9348	313.8657	328.1969	356.6412	466.7407	481.1723	559.4959	599.4355	783.1117	835.1067	898.2094	923.2705	962.1077	1019.8166	1055.8837	1081.3417	1118.484	1140.4201	1172.7218	1204.4902	1282.0359	1320.4904	1341.0793	1369.4285	1390.0525	1405.4025	1414.3311	1424.0549	1473.4422	1492.642	1494.4491	1495.8745	1501.673	2353.0245	3016.2823	3023.0374	3045.1205	3047.9905	3053.4877	3074.8754	3096.2685	3119.8266	3122.5788	3127.0145	3793.726
CC(O)CC(C)C#N	C[C@@H](O)C[C@@H](C)C#N	
InChI=1S/C6H11NO/c1-5(4-7)3-6(2)8/h5-6,8H,3H2,1-2H3	InChI=1S/C6H11NO/c1-5(4-7)3-6(2)8/h5-6,8H,3H2,1-2H3/t5-,6-/m1/s1
