23
gdb 119407	3.84174	0.91968	0.87838	1.3192	85.3	-0.2615	0.0809	0.3425	1430.1045	0.207625	-388.281615	-388.272824	-388.27188	-388.315364	34.395	
O	-0.1401968127	 1.4823758131	 0.0713650645	-0.418652
C	 0.0122212953	 0.0696767129	 0.0866300939	-0.078096
C	-1.37115594	-0.5453886106	-0.1016435883	-0.298314
C	-1.3946330851	-2.0593483667	-0.040473468	 0.363529
C	-1.0401890634	-2.862311435	 1.2549733784	-0.256277
C	-1.8539025364	-3.9842833824	 0.5520574174	-0.01722
C	-2.7451412469	-2.8424423816	-0.0097541075	-0.266659
C	-0.9626542085	-4.3160775205	-0.660084712	-0.212375
C	-0.613453846	-2.8601504193	-1.1120970865	-0.249023
H	 0.7286154251	 1.8790458452	 0.182139664	 0.283657
H	 0.6891723775	-0.2625061394	-0.7158353869	 0.086402
H	 0.4448359326	-0.2724544092	 1.0409258974	 0.086693
H	-2.0298628221	-0.1318077936	 0.6718648987	 0.099982
H	-1.7726151697	-0.2057211456	-1.0654429537	 0.100709
H	 0.0149908962	-3.0525261434	 1.4780523801	 0.081598
H	-1.5445065436	-2.4645231839	 2.1396743737	 0.092205
H	-2.275901262	-4.8219797404	 1.1080213832	 0.055673
H	-3.4383381639	-2.4396607776	 0.7333726467	 0.091671
H	-3.2662227733	-3.0094897913	-0.9585195644	 0.08314
H	-0.0766992875	-4.8940133765	-0.3803228419	 0.092198
H	-1.4998738879	-4.8788888574	-1.4292415524	 0.093667
H	-0.9641432381	-2.6337060716	-2.1241640609	 0.093207
H	 0.4619226706	-2.6617486354	-1.0813921953	 0.092285
76.8279	84.6108	135.5179	264.628	269.4013	311.2062	338.5128	379.783	441.5983	509.0391	627.8219	716.2191	790.4262	828.2813	831.1664	840.0613	891.1925	902.9581	940.2903	956.9295	973.2992	988.2931	1002.2199	1023.97	1060.6808	1073.9735	1091.3543	1118.3773	1147.766	1165.7056	1198.1879	1210.7525	1235.5455	1242.3633	1257.8032	1269.8231	1272.9368	1285.1988	1315.0256	1329.1125	1337.0647	1365.6115	1461.8566	1485.9087	1487.3112	1493.0095	1501.1994	1527.4105	1533.1438	2965.4771	2992.5695	3021.2603	3037.6927	3041.85	3044.2947	3054.2506	3062.5727	3079.1785	3097.278	3102.8521	3104.6092	3111.5189	3830.0517
OCCC12CC(C1)CC2	OCC[C@@]12C[C@@H](C1)CC2	
InChI=1S/C8H14O/c9-4-3-8-2-1-7(5-8)6-8/h7,9H,1-6H2	InChI=1S/C8H14O/c9-4-3-8-2-1-7(5-8)6-8/h7,9H,1-6H2/t7-,8-
