22
gdb 104726	2.34235	1.30937	0.98306	2.6653	78.63	-0.2477	0.0656	0.3132	1289.5436	0.193053	-441.457561	-441.447219	-441.446275	-441.492547	38.741	
C	 0.0378364894	 1.4868952701	-0.0678296874	-0.442158
C	 0.0031006641	-0.0234080144	 0.1075317544	 0.262988
C	-1.0837716496	-0.6630791983	-0.7410314256	-0.465369
N	 1.3290354418	-0.6729772611	 0.172872815	-0.412895
C	 0.46709098	-0.6707242217	 1.3823879058	 0.219308
C	 1.0975560249	 0.1283958045	 2.516575017	-0.12859
O	 2.3199392593	-0.493585867	 2.9248637259	-0.422926
C	-0.0799696464	-2.0066419903	 1.8718534199	-0.135695
O	 0.9575068204	-2.8914965935	 2.2606548176	-0.431848
H	 0.9308625358	 1.9326024635	 0.3697268524	 0.130239
H	 0.0414949308	 1.7332747068	-1.135328521	 0.119464
H	-0.8462742152	 1.955957921	 0.3780223181	 0.117492
H	-0.9434100013	-0.377178777	-1.7895580806	 0.125138
H	-1.0813815702	-1.7530889515	-0.6954668286	 0.123095
H	-2.0764088744	-0.3124349683	-0.4373875963	 0.126208
H	 1.3015835706	-1.5969980611	-0.2546542131	 0.233583
H	 1.2800957579	 1.1696071098	 2.2344124951	 0.099644
H	 0.4484894045	 0.1280712069	 3.3980018846	 0.112655
H	 2.8514451618	-0.5472128816	 2.1183646437	 0.298192
H	-0.7786905113	-1.8176913251	 2.7047930554	 0.085423
H	-0.6449921938	-2.5260902662	 1.0948538582	 0.098063
H	 1.5811623709	-2.3679593955	 2.7856063395	 0.287991
82.4734	103.7138	125.6747	155.3618	182.6062	244.624	276.2433	343.6241	350.2547	373.9258	395.8403	432.1286	464.4771	538.2278	564.1493	662.4613	700.07	805.695	902.1308	922.8666	939.8003	956.223	987.2442	1017.5806	1030.5399	1067.4709	1070.2397	1087.1886	1139.9351	1153.1416	1205.5766	1252.7242	1289.6042	1324.1689	1360.3197	1382.6854	1408.7675	1419.43	1425.2271	1430.9357	1473.4351	1477.4958	1490.6932	1502.9144	1506.3945	1508.7257	1524.4642	2956.8673	3032.4795	3038.073	3050.5463	3088.4051	3092.3996	3094.7154	3096.9312	3135.6699	3147.6644	3482.7879	3707.6967	3756.6714
CC1(C)NC1(CO)CO	CC1(C)NC1(CO)CO	
InChI=1S/C6H13NO2/c1-5(2)6(3-8,4-9)7-5/h7-9H,3-4H2,1-2H3	InChI=1S/C6H13NO2/c1-5(2)6(3-8,4-9)7-5/h7-9H,3-4H2,1-2H3
