18
gdb 113119	2.37677	1.18024	0.88716	1.3704	86.82	-0.2402	0.0125	0.2527	1357.3937	0.14418	-364.718481	-364.708606	-364.707662	-364.753216	36.564	
C	 0.2445073579	 1.5124140936	 0.1585175082	-0.380061
C	-0.271397286	 0.1071856764	-0.1725962288	-0.195812
C	 0.4570712851	-0.4911050669	-1.3520272893	-0.029875
N	 1.7755306746	-1.0627419642	-1.0987785331	-0.353329
C	 0.6685835453	-1.9833643877	-1.5103459547	-0.049402
C	 0.2064708112	-2.9061966034	-0.5012179799	 0.317951
C	-0.2023837719	-3.6810016165	 0.3209116113	-0.454463
C	 0.6957492554	-2.5024102638	-2.8564543483	 0.264418
C	 0.7402939453	-2.9245146795	-3.9814397457	-0.447342
H	 1.3119227598	 1.4831233427	 0.3975308889	 0.132401
H	 0.105687983	 2.1997258316	-0.6835912163	 0.112053
H	-0.2852842215	 1.9303515596	 1.0194519529	 0.116288
H	-0.1477993115	-0.552475768	 0.6908029427	 0.121775
H	-1.343814469	 0.1400564565	-0.4009189325	 0.104389
H	 0.3164814966	 0.0316777909	-2.2975401679	 0.097887
H	 2.3909206374	-0.9296533045	-1.8982023904	 0.244045
H	-0.5531166892	-4.3682290474	 1.0505646283	 0.198331
H	 0.7714356175	-3.3055686994	-4.9721678654	 0.200748
69.4633	116.0678	127.585	138.1909	201.8097	238.4246	256.8586	347.1073	402.7822	470.3336	519.6793	571.207	593.4517	607.9762	621.8093	655.056	663.269	666.0112	768.1574	804.983	894.6591	943.8231	991.3607	1051.7446	1071.4732	1093.287	1121.9168	1228.6374	1250.3529	1299.8949	1326.1339	1347.7469	1407.0262	1447.2796	1479.4313	1498.6166	1508.3403	2236.4171	2243.7781	3034.0651	3038.1757	3087.0605	3105.1071	3114.5406	3120.6648	3500.8294	3502.0243	3503.1163
CCC1NC1(C#C)C#C	CC[C@H]1NC1(C#C)C#C	
InChI=1S/C8H9N/c1-4-7-8(5-2,6-3)9-7/h2-3,7,9H,4H2,1H3	InChI=1S/C8H9N/c1-4-7-8(5-2,6-3)9-7/h2-3,7,9H,4H2,1H3/t7-/m1/s1
