16
gdb 45765	3.38355	1.14319	0.89045	3.9853	77.79	-0.2371	-0.0114	0.2257	1253.289	0.124543	-396.916558	-396.908113	-396.907168	-396.950124	31.225	
N	-0.1282258183	 1.2698950095	 0.0877111853	-0.543236
C	 0.0088629411	 0.0102507321	 0.013490677	 0.375582
N	 1.1510009192	-0.7815563298	-0.1007981505	-0.34773
C	 0.7687616374	-2.1189236467	-0.0613549535	 0.05994
N	-0.4835620408	-2.3408908395	 0.0186023635	-0.235689
C	-1.1280245737	-1.0167502382	 0.0478096465	-0.051334
C	-2.0359444099	-0.8207814735	 1.2799305411	-0.352678
C	-3.2366657461	-1.642927352	 1.248871264	 0.315392
C	-4.2347791779	-2.3106081101	 1.212033154	-0.443943
H	 0.7652437173	 1.7625651855	 0.0492950505	 0.210037
H	 2.097725341	-0.4407147901	-0.0874186837	 0.259362
H	 1.5294440748	-2.8921200457	-0.1042475508	 0.13778
H	-1.7430462178	-0.9065720078	-0.8527416752	 0.133539
H	-1.4540317137	-1.0372094284	 2.1838487721	 0.130826
H	-2.2986319877	 0.2427158302	 1.3195989678	 0.158569
H	-5.1133497549	-2.9058425055	 1.185007222	 0.193584
64.8435	99.0594	128.7431	229.6741	275.5931	346.5343	388.9976	419.7777	513.5568	605.725	612.7185	631.0615	643.6934	685.8634	835.1132	853.6972	885.1304	922.2427	939.743	983.5783	1030.4339	1076.9112	1086.3971	1094.2014	1215.3468	1242.4653	1290.3409	1314.2936	1350.9216	1357.5475	1411.7965	1465.662	1682.8998	1761.8727	2243.4475	3032.3818	3049.6807	3076.4178	3192.5353	3459.9175	3508.1757	3658.9656
N=C1NC=NC1CC#C	[NH][C]1NC=N[C@H]1CC#C	
InChI=1S/C6H7N3/c1-2-3-5-6(7)9-4-8-5/h1,4-5H,3H2,(H2,7,8,9)	InChI=1S/C6H7N3/c1-2-3-5-6(7)9-4-8-5/h1,4-5H,3H2,(H2,7,8,9)/t5-/m0/s1
