14
gdb 133244	3.35368	1.41866	1.00315	2.1404	69.86	-0.2316	-0.0742	0.1574	1082.4007	0.10167	-474.16399	-474.156507	-474.155563	-474.196224	27.698	
C	-0.0328211623	 1.4491115387	-0.0028719762	-0.305383
N	-0.007505722	-0.0081549087	 0.0113199207	-0.026149
N	-0.040473451	-0.6213814868	-1.1573400175	-0.136003
C	-0.019140137	-1.9244603352	-1.171094916	-0.159522
C	 0.0380619343	-2.6245339491	 0.0733608167	 0.319076
F	 0.0587961525	-3.9463104006	 0.0125821975	-0.052673
N	 0.0713886515	-2.066486112	 1.2209169938	-0.369958
C	 0.0500901174	-0.6735394488	 1.2642875798	 0.448094
N	 0.0756600854	 0.045822336	 2.3160479274	-0.558773
H	 0.8613524396	 1.838466145	 0.4898621698	 0.158953
H	-0.0761658652	 1.7637759377	-1.0441079013	 0.146139
H	-0.9014263984	 1.8085911303	 0.5541368866	 0.158947
H	-0.045733	-2.4277503237	-2.1276918467	 0.146235
H	 0.115309855	-0.5624215129	 3.1315381854	 0.231018
91.2008	154.2215	196.311	282.4509	340.0271	366.6193	460.1624	490.8301	537.4641	608.8301	714.6978	751.4273	762.7222	786.1633	830.615	847.4616	996.6016	1043.7261	1129.5287	1152.3911	1220.0022	1270.8588	1299.0254	1358.8619	1432.0869	1457.4698	1465.7198	1508.0977	1557.8936	1682.2712	1718.7705	3060.3318	3125.4515	3178.363	3229.8173	3519.3575
CN1N=CC(F)=NC1=N	Cn1ncc(F)nc1[NH]	
InChI=1S/C4H5FN4/c1-9-4(6)8-3(5)2-7-9/h2,6H,1H3	InChI=1S/C4H10FN4/c1-9-4(6)8-3(5)2-7-9/h3-4,6-8H,2H2,1H3
