15
gdb 26017	5.10489	0.98169	0.82409	4.3481	69.	-0.2037	0.02	0.2237	1304.5759	0.114176	-454.007059	-453.999041	-453.998096	-454.040082	30.06	
N	-0.1510097496	 1.4090383949	 0.1207553738	-0.575641
C	 0.0896277715	 0.0409216486	 0.0399215877	 0.451978
O	 1.2076707965	-0.4351505048	 0.0223307455	-0.376267
N	-1.0614536	-0.7191245635	 0.0247690634	-0.467203
C	-1.0768448107	-2.1170262655	 0.0099441896	 0.31425
C	-0.0317981145	-2.9929543393	-0.0396576189	-0.070737
O	-0.5122522087	-4.2730064548	-0.0534168399	-0.147641
C	-1.8604381002	-4.2028317191	-0.0083000772	 0.024959
C	-2.2738087001	-2.9097958391	 0.0302591011	-0.320384
H	 0.6809865666	 1.9482406278	-0.0669002858	 0.264468
H	-0.9755371021	 1.7697468047	-0.3363361655	 0.248281
H	-1.9397692906	-0.2632944709	 0.2091151965	 0.249227
H	 1.0324405842	-2.8658499696	-0.0677530668	 0.165462
H	-2.3853358049	-5.1436575192	-0.0100995741	 0.136353
H	-3.2930122173	-2.5565731801	 0.0671167806	 0.102894
73.202	89.2512	167.9735	334.1198	337.8839	357.1405	389.1597	444.8537	560.6713	614.6171	617.8189	650.7433	719.8028	766.4403	773.5147	801.0831	805.2263	890.3392	981.7584	1023.4013	1068.7458	1094.0973	1106.7878	1214.6986	1244.8038	1282.3177	1335.0133	1411.2582	1524.5464	1574.6876	1630.1241	1653.2774	1805.3758	3246.6327	3284.0957	3341.7844	3571.7462	3644.438	3684.1639
NC(=O)NC1=COC=C1	NC(=O)Nc1cocc1	
InChI=1S/C5H6N2O2/c6-5(8)7-4-1-2-9-3-4/h1-3H,(H3,6,7,8)	InChI=1S/C5H6N2O2/c6-5(8)7-4-1-2-9-3-4/h1-3H,(H3,6,7,8)
