21
gdb 100494	4.49461	0.51554	0.49165	2.8687	90.12	-0.2445	-0.0262	0.2183	2271.8926	0.178811	-387.08315	-387.071907	-387.070963	-387.122048	38.396	
C	-0.3392362012	 1.5122850204	-0.2290821629	-0.393947
C	-0.103551277	-0.0003761227	-0.2089056014	-0.158013
C	 0.9999501801	-0.4819321723	-1.1838817605	-0.142885
C	 2.3970533305	 0.0654517119	-0.8259312818	-0.383778
C	 1.0245522557	-1.9441047772	-1.2466976241	 0.075176
C	 1.0539084005	-3.1487553418	-1.258419446	 0.049427
C	 1.0763987185	-4.6017650314	-1.350490088	-0.41459
C	 0.6678439534	-5.0997622451	-2.7385100994	 0.173482
O	 1.1779187199	-6.0373502881	-3.288381224	-0.232379
H	 0.5368971818	 2.0713647829	 0.1125623777	 0.121373
H	-0.5855646215	 1.8618914227	-1.2382148296	 0.115606
H	-1.1736481135	 1.7799945406	 0.426208961	 0.116267
H	 0.1590724121	-0.3280664115	 0.8044057927	 0.104325
H	-1.0344892124	-0.5171161918	-0.4665002701	 0.105149
H	 0.739890499	-0.1087555352	-2.1856295699	 0.102166
H	 2.6863769046	-0.2502112106	 0.1814591361	 0.12357
H	 3.1490903297	-0.3080266167	-1.5255574622	 0.125847
H	 2.410994551	 1.1579226234	-0.8628670712	 0.117685
H	 2.0585290404	-5.0236804578	-1.112894006	 0.15206
H	 0.3609062621	-5.0400936114	-0.6370403692	 0.152033
H	-0.1621974638	-4.5233833882	-3.2022501412	 0.091425
17.1616	47.1302	73.5384	98.8972	112.8213	179.8351	215.2046	264.8522	281.0422	305.8609	367.793	441.575	492.213	517.8958	540.7914	713.7233	764.035	795.6784	853.8613	962.0366	978.5618	1029.2249	1035.0948	1043.5126	1075.8149	1131.9772	1154.9035	1199.6142	1212.8827	1282.499	1290.6906	1316.2958	1342.6561	1376.7907	1407.3045	1414.1308	1415.7859	1442.8926	1483.2812	1492.5393	1498.6979	1505.2074	1510.2573	1840.7256	2362.234	2898.7723	2993.4355	2996.9583	3032.6205	3035.1871	3044.0706	3069.5325	3077.481	3101.0137	3109.5472	3116.9587	3124.0609
CCC(C)C#CCC=O	CC[C@@H](C)C#CCC=O	
InChI=1S/C8H12O/c1-3-8(2)6-4-5-7-9/h7-8H,3,5H2,1-2H3	InChI=1S/C8H12O/c1-3-8(2)6-4-5-7-9/h7-8H,3,5H2,1-2H3/t8-/m1/s1
