18
gdb 70212	3.21878	1.35163	1.1296	2.3939	72.7	-0.2585	0.0241	0.2826	1112.1279	0.148051	-439.087659	-439.079637	-439.078693	-439.120157	31.008	
C	-0.3984019739	 1.4699643642	 0.2450195574	-0.481647
C	 0.057962285	 0.0481190624	 0.0467894774	 0.381044
C	-0.7069417781	-0.8212691125	-0.944755627	-0.153227
O	-1.5207003631	-1.8030464485	-0.279012533	-0.247443
C	-0.9453917322	-2.5721310187	 0.6916341026	 0.392283
N	-1.5813291403	-3.5011920467	 1.2702696444	-0.514134
C	 0.4856897019	-2.2426436584	 1.0598873264	-0.327306
C	 0.7073340937	-0.7387178726	 1.1052925382	-0.020462
O	 1.4788283156	-0.1683764456	 0.0428373469	-0.28839
H	 0.198216339	 1.9614265205	 1.0170716615	 0.13391
H	-0.2962380764	 2.0428561394	-0.6833697428	 0.131208
H	-1.4518415955	 1.4970314521	 0.5432955888	 0.134246
H	-1.4095339456	-0.2393795001	-1.5444688576	 0.122581
H	 0.0049584161	-1.3130617072	-1.617083943	 0.128568
H	-2.5225149559	-3.57929578	 0.8784301588	 0.218839
H	 0.7059885422	-2.7308699047	 2.0087244343	 0.141232
H	 1.1603630434	-2.6615820849	 0.3036297211	 0.142526
H	 0.876583664	-0.2845465786	 2.0798008458	 0.106171
84.617	169.2546	198.123	228.7762	330.1973	368.809	425.6471	438.0968	487.4707	501.266	588.6379	677.466	769.6529	815.0433	833.0399	903.9224	916.0392	943.3559	963.9868	1010.7712	1044.3109	1050.948	1102.1209	1126.0285	1129.309	1204.2344	1250.676	1279.4977	1305.0927	1319.2724	1334.1032	1409.8931	1414.9614	1459.1683	1463.9532	1487.0743	1498.305	1505.1171	1752.8319	3034.6094	3043.7318	3047.5993	3098.3365	3115.4784	3124.5107	3127.3325	3144.3466	3460.0329
CC12COC(=N)CC1O2	C[C@]12CO[C]([NH])C[C@H]1O2	
InChI=1S/C6H9NO2/c1-6-3-8-5(7)2-4(6)9-6/h4,7H,2-3H2,1H3	InChI=1S/C6H9NO2/c1-6-3-8-5(7)2-4(6)9-6/h4,7H,2-3H2,1H3/t4-,6+/m1/s1
