19
gdb 49075	2.79842	1.72043	1.23472	2.8994	79.85	-0.2432	-0.024	0.2192	1029.861	0.161177	-385.866355	-385.859162	-385.858218	-385.897983	28.894	
O	-0.0206730321	-0.0364370091	 0.2066680721	-0.257375
C	 0.0279917255	 1.1540385512	 0.0000298718	 0.05178
C	 1.2972675747	 1.9352774388	-0.0242495574	 0.282412
C	 2.5980984967	 1.1699353783	 0.2273845152	-0.288463
C	 3.6254117466	 2.3267144083	 0.11475618	-0.261568
C	 2.680070013	 3.4886033443	-0.1752576137	 0.00573
C	 1.5493791012	 3.0200167792	-1.1493143006	-0.094524
C	 0.5790604732	 4.0019203778	-0.453847835	-0.259044
C	 1.3848873012	 3.3450625951	 0.690015861	-0.094461
H	-0.9060550868	 1.7274338809	-0.1857244237	 0.070579
H	 2.5959278915	 0.687513356	 1.208332766	 0.111449
H	 2.7501039371	 0.3827247218	-0.51571485	 0.111436
H	 4.193391541	 2.480813977	 1.037503616	 0.101788
H	 4.348293045	 2.1747707624	-0.6928027774	 0.101788
H	 3.0963786846	 4.488709254	-0.3147586068	 0.06711
H	 1.6473029816	 2.8091745469	-2.2162795512	 0.077522
H	 0.7741871906	 5.0643114389	-0.6241666954	 0.096086
H	-0.4915497324	 3.7990534414	-0.513714697	 0.100249
H	 1.291321398	 3.5128841168	 1.7649861159	 0.077507
94.4909	198.1395	219.9927	299.1211	371.378	393.9968	513.0344	631.5567	704.6329	705.1806	760.5449	803.9494	823.5562	883.613	901.2228	917.2503	955.9802	1001.8365	1007.402	1017.952	1030.4914	1063.6812	1069.8782	1108.6532	1116.0778	1150.905	1180.1618	1206.8946	1216.7703	1230.2393	1237.0711	1255.6674	1260.21	1293.4824	1332.3752	1351.7419	1442.7305	1487.244	1509.0633	1536.4807	1803.6004	2890.96	3048.537	3060.412	3067.6594	3083.7806	3088.2076	3089.0794	3100.6864	3109.4291	3121.6777
O=CC12CCC3C1CC23	O=C[C@@]12CC[C@H]3[C@@H]1C[C@@H]23	
InChI=1S/C8H10O/c9-4-8-2-1-5-6(8)3-7(5)8/h4-7H,1-3H2	InChI=1S/C8H10O/c9-4-8-2-1-5-6(8)3-7(5)8/h4-7H,1-3H2/t5-,6-,7+,8-
