18
gdb 109522	1.94654	1.45294	1.12296	0.8067	85.09	-0.2276	0.0149	0.2424	1197.2831	0.144051	-364.711963	-364.702218	-364.701274	-364.746511	36.021	
C	 0.2375685098	 1.5779218081	 0.0598605367	-0.379572
C	-0.2213587612	 0.1318076321	-0.1005097144	-0.119561
N	 0.5569124277	-0.5233380812	-1.1559511066	-0.109537
C	 1.808373975	-1.2031793209	-0.7950967487	-0.221228
C	 2.2905383527	-1.261872827	 0.5559065257	 0.373417
C	 2.7350228767	-1.2832388123	 1.6733838756	-0.462682
C	 0.5782157072	-1.9884015264	-1.2157031076	-0.226351
C	-0.1320626262	-2.8071387244	-0.2740779999	 0.370533
C	-0.7575608324	-3.5112766912	 0.4737053312	-0.45869
H	 1.2752794905	 1.6194345815	 0.4041595458	 0.127337
H	 0.1692250299	 2.114600508	-0.8906076546	 0.124458
H	-0.3841731801	 2.0939326733	 0.7977941461	 0.113246
H	-0.1556537735	-0.3972428465	 0.8593288444	 0.114784
H	-1.2686006844	 0.0955082282	-0.4197936125	 0.108863
H	 2.5898488676	-1.0931172955	-1.544516338	 0.120763
H	 3.1213920356	-1.3155813031	 2.6620720592	 0.202071
H	 0.5794543053	-2.3766569156	-2.2326862657	 0.120962
H	-1.2991873002	-4.1328725571	 1.1430316033	 0.201186
75.6499	95.5628	120.7587	158.0121	223.1199	238.6857	263.092	349.3314	388.6822	428.5424	588.3368	605.5579	610.4396	633.1583	641.6772	663.2177	665.4476	707.0107	809.4408	828.0159	841.9584	975.7065	1017.3919	1045.8345	1093.3438	1129.2428	1141.3924	1180.1906	1306.0346	1313.8326	1356.4237	1363.7094	1389.8946	1410.8142	1489.2139	1493.6092	1510.1071	2232.6493	2234.7572	3019.6023	3042.2059	3068.258	3114.5913	3115.8774	3120.8537	3123.9335	3502.5229	3503.2921
CCN1C(C#C)C1C#C	CCN1[C@@H](C#C)[C@H]1C#C	
InChI=1S/C8H9N/c1-4-7-8(5-2)9(7)6-3/h1-2,7-8H,6H2,3H3	InChI=1S/C8H9N/c1-4-7-8(5-2)9(7)6-3/h1-2,7-8H,6H2,3H3/t7-,8+,9?
