19
gdb 83444	2.86891	1.20792	1.03664	1.2259	80.59	-0.234	0.0483	0.2823	1228.7154	0.157191	-385.81619	-385.807111	-385.806166	-385.850195	34.095	
C	 0.5514332598	 1.9030720712	 0.3229200353	-0.424931
C	 0.1266115511	 0.4938459893	 0.669416408	-0.063392
C	 0.6384184742	-0.7673554592	-0.0202559666	-0.197069
C	 2.1376863323	-0.653863235	-0.2613105584	-0.099635
O	 2.3736539162	-0.2747268992	 1.1235660316	-0.324925
C	 0.9838166302	-0.4743403171	 1.4256032216	 0.448807
C	 0.7013774643	-1.1477127881	 2.7457389286	-0.466163
C	-0.707190494	-1.4621167117	 2.9471211987	 0.299743
C	-1.8704662664	-1.7226817304	 3.0989316769	-0.445024
H	 1.6392651399	 1.9813064814	 0.2556413216	 0.134213
H	 0.1194085412	 2.2272923149	-0.6298102734	 0.11503
H	 0.2194025928	 2.6047257269	 1.095414556	 0.118534
H	-0.9238765709	 0.3806093377	 0.9284268963	 0.103967
H	-0.019329728	-1.5120869588	-0.4480327481	 0.101556
H	 2.6202840859	-1.6128432451	-0.4801828742	 0.110174
H	 2.493553045	 0.1064393264	-0.9661519143	 0.105291
H	 1.303006669	-2.0634101324	 2.8094822795	 0.14091
H	 1.0566914133	-0.4925090501	 3.5536190223	 0.144206
H	-2.8960293959	-1.9563570706	 3.2442516386	 0.19871
51.3386	117.6174	161.4741	197.0679	249.3471	259.3851	312.0516	345.2323	441.6444	480.3439	601.5601	622.6821	647.3335	677.8031	751.8316	763.5665	876.1917	925.7696	963.9448	973.6919	980.9148	990.7535	1006.8883	1045.3884	1092.2655	1127.9519	1143.3273	1152.4214	1174.3433	1227.9691	1258.8945	1323.0023	1325.6947	1356.8189	1410.5437	1466.3637	1476.9271	1492.5026	1507.4704	1521.2871	2241.8042	3011.4176	3026.2059	3035.9228	3045.2684	3073.0293	3093.8573	3117.7749	3145.2273	3201.3098	3505.3185
CC1C2COC12CC#C	C[C@H]1[C@H]2CO[C@@]12CC#C	
InChI=1S/C8H10O/c1-3-4-8-6(2)7(8)5-9-8/h1,6-7H,4-5H2,2H3	InChI=1S/C8H10O/c1-3-4-8-6(2)7(8)5-9-8/h1,6-7H,4-5H2,2H3/t6-,7+,8-/m0/s1
