18
gdb 26323	3.90179	0.98668	0.82949	4.9625	74.1	-0.2375	-0.0092	0.2283	1370.5207	0.147545	-439.126457	-439.117669	-439.116724	-439.160205	32.861	
C	 0.5348980872	 1.6272124096	-0.4701809826	-0.399734
C	-0.0263139236	 0.2680491279	-0.0272626474	-0.079564
N	-0.0227975491	-0.765144331	-1.0803406759	-0.511515
H	 0.9249705534	-0.8784213591	-1.4332689224	 0.224805
H	 0.4118519458	-2.4576213131	 1.1670488862	 0.166323
H	-0.5830005571	-0.4490228988	-1.8674516577	 0.227858
C	 0.6726194157	-0.2881404854	 1.1789556991	 0.244893
C	 1.6975587076	 0.2169452024	 1.8645612268	-0.04456
O	 2.1167510833	-0.5594457955	 2.9330962066	-0.208481
C	 1.3156221817	-1.6909810013	 2.9799959975	 0.435064
O	 1.4639400773	-2.5326603688	 3.8112492682	-0.318788
C	 0.3138771332	-1.5955768711	 1.8339748198	-0.464801
H	 1.5901293837	 1.5399537953	-0.752705687	 0.115988
H	-0.016045794	 1.9962188526	-1.3405621966	 0.111938
H	 0.4529284494	 2.3780812419	 0.3228459119	 0.121693
H	-1.0847791791	 0.4095527819	 0.239421178	 0.091628
H	 2.2596228536	 1.1298140971	 1.7386089402	 0.137271
H	-0.7065940088	-1.6264644248	 2.2339116551	 0.14998
62.77	105.9805	174.4308	218.8393	270.5794	295.1604	321.9719	414.2266	444.3284	488.1822	538.622	569.369	620.4914	731.9066	826.2922	853.8282	880.162	903.6134	927.7675	960.9086	1015.3723	1065.3564	1075.4192	1120.1849	1148.587	1155.0607	1200.1203	1222.7357	1290.6145	1322.52	1368.2177	1403.2986	1411.2268	1438.0153	1492.3828	1502.5782	1653.6798	1716.1961	1904.3392	2988.6824	3028.7496	3049.9518	3091.9552	3099.567	3106.6192	3257.8755	3471.5357	3554.3651
CC([NH3+])C1=COC([O-])=C1	C[C@@H](N)C1=COC(=O)C1	
InChI=1S/C6H9NO2/c1-4(7)5-2-6(8)9-3-5/h2-4,8H,7H2,1H3	InChI=1S/C6H9NO2/c1-4(7)5-2-6(8)9-3-5/h3-4H,2,7H2,1H3/t4-/m1/s1
