15
gdb 71382	2.71133	1.80899	1.29744	3.5957	65.2	-0.2202	-0.0057	0.2145	959.1182	0.110059	-457.704993	-457.697018	-457.696074	-457.737158	30.229	
C	-0.0376406445	 1.3995905775	-0.0268103189	-0.517933
C	 0.0245670299	-0.0889825882	-0.0213473424	 0.399105
O	-1.1616300223	-0.8567145341	-0.2800565958	-0.320952
C	-0.4230487029	-2.0135085681	 0.2156667264	-0.088553
C	 0.627144094	-1.0860491815	 0.9012862574	-0.22994
C	 1.2270965133	-0.9013094555	-0.5470480851	 0.154168
O	 2.4473765514	-0.3627265341	-0.8457871474	-0.444032
C	 0.6514853311	-2.24928417	-0.8836892741	 0.408898
O	 1.0126643977	-3.1922492072	-1.5252991428	-0.335649
H	 0.9546615091	 1.815355888	 0.1686363401	 0.140946
H	-0.3846264373	 1.76332031	-0.9997708433	 0.140488
H	-0.7270129464	 1.7611828273	 0.7409519953	 0.145735
H	-1.0281924257	-2.8009190076	 0.6544770263	 0.110321
H	 1.1453963664	-1.077807959	 1.848589768	 0.134188
H	 2.3599356763	 0.2096781926	-1.6166987537	 0.30321
129.0114	176.3916	207.5031	234.3728	263.0839	287.4095	356.1184	479.1056	511.3513	563.2903	696.072	707.1132	720.1432	786.6171	813.7645	861.0326	889.7876	947.607	954.1515	992.1775	1016.43	1083.9158	1129.2056	1157.8477	1184.068	1258.7292	1284.6535	1384.3208	1430.4291	1454.1685	1477.5277	1501.1887	1889.3909	3041.8669	3111.2713	3126.8192	3177.4431	3233.0532	3791.8425
CC12OC3C1C2(O)C3=O	C[C@]12O[C@@H]3[C@H]1[C@@]2(O)C3=O	
InChI=1S/C6H6O3/c1-5-3-2(9-5)4(7)6(3,5)8/h2-3,8H,1H3	InChI=1S/C6H6O3/c1-5-3-2(9-5)4(7)6(3,5)8/h2-3,8H,1H3/t2-,3-,5+,6-/m1/s1
