13
gdb 27501	2.11379	1.88094	0.99571	4.703	64.51	-0.2415	-0.0224	0.2191	1077.111	0.090738	-489.984603	-489.97709	-489.976146	-490.016673	28.322	
N	 0.1018234096	 1.3333845076	 0.1378922167	-0.559375
C	-0.0624531327	-0.0124058173	 0.0487723879	 0.486218
C	-1.2380951209	-0.6866615873	 0.0219325813	-0.390638
C	-1.2380621175	-2.1251125496	-0.0117937274	 0.45349
O	-2.1975247551	-2.8661236402	-0.0350114152	-0.375984
N	 0.0704553775	-2.6790345688	-0.0198531878	-0.445063
C	 1.2620116874	-2.0160571496	-0.0079835225	 0.489562
O	 2.3524665022	-2.5063797727	-0.0270585823	-0.355843
O	 1.146461179	-0.6309083497	 0.0289988842	-0.253857
H	 1.0083227659	 1.6987268991	-0.1066377431	 0.27899
H	-0.6901797425	 1.9197066091	-0.0647125573	 0.277807
H	-2.1853497572	-0.1684533572	 0.0345150733	 0.11579
H	 0.1253842343	-3.6878095834	-0.0469691278	 0.278902
132.0452	163.6437	171.0525	331.9989	384.1487	389.3603	406.0592	502.5516	519.0606	607.8546	647.8316	652.9439	701.9524	725.2095	762.8179	806.4734	906.5096	975.0669	1027.3803	1106.5501	1196.8868	1283.4412	1367.8345	1397.3388	1441.9309	1626.6698	1700.4184	1808.5344	1892.3711	3243.8865	3604.4501	3620.2056	3725.0638
NC1=CC(=O)NC(=O)O1	Nc1cc(=O)[nH]c(=O)o1	
InChI=1S/C4H4N2O3/c5-2-1-3(7)6-4(8)9-2/h1H,5H2,(H,6,7,8)	InChI=1S/C4H4N2O3/c5-2-1-3(7)6-4(8)9-2/h1H,5H2,(H,6,7,8)
