18
gdb 56959	2.25693	1.3271	0.90803	2.9598	80.39	-0.2428	-0.0291	0.2137	1283.5807	0.14408	-401.886369	-401.876789	-401.875845	-401.921115	34.825	
C	-0.0839099986	 1.5713026177	-0.1157367085	-0.385406
C	 0.1161595818	 0.0657077515	 0.1161639747	-0.150581
C	 0.8070825264	-0.2045411807	 1.3755139952	 0.358199
C	 1.3825215824	-0.4331046246	 2.4050158784	-0.45507
N	-1.2164004239	-0.5723298238	 0.1234204873	-0.070703
C	-1.6787452542	-1.176006016	-1.1021401065	-0.255716
C	-1.3466526289	-2.0358032643	 0.0896011476	-0.082661
C	-0.1775147068	-2.9509241193	-0.0133042847	 0.163292
O	-0.1752567715	-4.0684401907	 0.4397205875	-0.265749
H	 0.880516698	 2.084801159	-0.1327907178	 0.128305
H	-0.5869149423	 1.7364066156	-1.072964218	 0.120024
H	-0.6997854723	 1.9933493103	 0.6811870747	 0.141942
H	 0.7425671056	-0.3207947767	-0.705010736	 0.098293
H	 1.8901994727	-0.6402643784	 3.3147918198	 0.206197
H	-2.7208575354	-1.0191379999	-1.365921758	 0.134716
H	-0.9909981828	-1.2192264165	-1.9478943103	 0.120198
H	-2.152916824	-2.4308323351	 0.7015220097	 0.117043
H	 0.7021716639	-2.5505241479	-0.562536145	 0.077675
50.7476	102.7212	141.3186	190.0346	208.8346	235.2373	286.5002	306.9802	387.726	420.7069	498.3591	534.1519	603.6941	637.123	666.9801	741.471	855.4779	866.9891	927.5709	961.8235	1021.8049	1032.7127	1087.8534	1100.975	1114.6591	1131.3314	1153.6378	1182.9554	1300.6171	1330.4933	1341.812	1349.5841	1404.1671	1445.4879	1487.1814	1493.6052	1502.2507	1815.6296	2241.2131	2889.8747	2954.6028	3049.5126	3081.964	3124.9935	3141.2349	3155.8374	3181.1335	3502.1272
CC(C#C)N1CC1C=O	C[C@@H](C#C)N1C[C@H]1C=O	
InChI=1S/C7H9NO/c1-3-6(2)8-4-7(8)5-9/h1,5-7H,4H2,2H3	InChI=1S/C7H9NO/c1-3-6(2)8-4-7(8)5-9/h1,5-7H,4H2,2H3/t6-,7-,8?/m0/s1
