16
gdb 30425	3.3333	1.17555	0.87929	3.2413	71.64	-0.1746	0.0494	0.224	1276.6409	0.123599	-471.208473	-471.199115	-471.19817	-471.242787	33.553	
C	-0.0283420375	 1.4120671952	 0.0065568129	-0.319492
N	-0.0152033822	-0.0395551306	-0.0051199452	-0.374906
C	 0.4813212275	-0.6281124187	-1.0034262354	 0.50445
N	 0.5760805587	-2.0041007881	-1.1850287592	-0.407028
C	 1.3510797805	-2.2507384024	-2.3347095187	 0.186076
N	 1.7349794994	-3.5548088399	-2.661819347	-0.61142
C	 1.5792459262	-1.0651979644	-2.9066185834	 0.275088
O	 2.1133053095	-0.7360196489	-4.0966794311	-0.423775
O	 1.0425137467	-0.0394098329	-2.1240693151	-0.250832
H	 0.8575817205	 1.8618021791	-0.4626642635	 0.107964
H	-0.9107448077	 1.8067974357	-0.5165564405	 0.115816
H	-0.0833464954	 1.7597994034	 1.0423526198	 0.114893
H	 0.6240751941	-2.5993310307	-0.3732674728	 0.26749
H	 0.933121257	-4.1463504536	-2.8654801659	 0.251562
H	 2.3413530622	-3.550429627	-3.4736080301	 0.256074
H	 2.8659083605	-0.1448877562	-3.9608653049	 0.308042
55.5947	118.1095	176.559	203.3433	215.4558	255.8798	281.9063	314.5223	345.8187	413.0502	455.6802	563.8904	605.4741	662.5995	683.8676	724.0528	830.0181	855.369	926.1108	1018.3046	1090.04	1126.9842	1154.8801	1171.8796	1247.7723	1285.7581	1323.6538	1367.664	1446.8759	1457.7249	1493.1145	1502.0672	1642.4507	1798.5821	1853.8603	2992.6682	3039.8814	3087.919	3482.708	3596.0416	3645.9769	3739.3625
CN=C1NC(N)=C(O)O1	CN=c1[nH]c(N)c(O)o1	
InChI=1S/C4H7N3O2/c1-6-4-7-2(5)3(8)9-4/h8H,5H2,1H3,(H,6,7)	InChI=1S/C4H7N3O2/c1-6-4-7-2(5)3(8)9-4/h8H,5H2,1H3,(H,6,7)
