19
gdb 8477	2.85767	1.95068	1.54354	1.0128	72.29	-0.2169	0.0774	0.2943	924.2155	0.164204	-365.027309	-365.01874	-365.017795	-365.059609	32.634	
C	-0.0850103664	 1.5503880968	 0.0650308544	-0.509859
C	 0.1405743528	 0.072037922	 0.0060707561	 0.294774
C	 0.6739551391	-0.7393009359	-1.1831363082	-0.300777
C	 1.2962703235	-1.7544678358	-0.1581539686	 0.098122
O	 2.708801576	-1.7464502497	-0.1156423379	-0.442229
C	 0.7378815996	-0.8910127695	 0.9814092096	 0.287521
C	 1.3464114127	-0.7274920374	 2.3376082234	-0.517447
N	-0.7316913839	-0.8850720842	 0.7457719922	-0.417456
H	 0.7757503896	 2.0957951391	-0.3366094083	 0.125149
H	-0.9666322197	 1.840746863	-0.5192608436	 0.126996
H	-0.2442360094	 1.8863768904	 1.0958226405	 0.115358
H	-0.0796395116	-1.1195238032	-1.8780066205	 0.095059
H	 1.4714029316	-0.2231847506	-1.7244103844	 0.095668
H	 0.8946278568	-2.7758128789	-0.1976054324	 0.067464
H	 3.0343381972	-2.1867094862	-0.9068723092	 0.284501
H	 2.4301847001	-0.6096994202	 2.2529411692	 0.143915
H	 0.941058128	 0.151325456	 2.851236048	 0.111362
H	 1.1510315759	-1.6035467421	 2.9677008019	 0.125082
H	-1.1442137119	-0.3673829937	 1.5235617479	 0.216797
126.9236	185.067	198.4179	206.9942	233.0904	255.7339	327.2467	411.2704	439.4179	473.702	497.2448	595.0506	693.859	726.2128	831.5994	854.4516	910.2687	958.9098	979.15	1031.9331	1057.5081	1091.2867	1105.6872	1126.3791	1167.6717	1182.5097	1209.6375	1227.1147	1276.8772	1328.0564	1350.9186	1403.4447	1410.792	1421.4624	1446.0235	1477.7889	1479.246	1493.2029	1497.5737	1510.0469	3011.1636	3020.2842	3026.3171	3054.3591	3081.2762	3084.8506	3094.1874	3115.2868	3117.9194	3451.0512	3820.9746
CC12CC(O)C1(C)N2	C[C@@]12C[C@@H](O)[C@]1(C)N2	
InChI=1S/C6H11NO/c1-5-3-4(8)6(5,2)7-5/h4,7-8H,3H2,1-2H3	InChI=1S/C6H11NO/c1-5-3-4(8)6(5,2)7-5/h4,7-8H,3H2,1-2H3/t4-,5-,6+/m1/s1
