20
gdb 47553	2.52805	1.53539	1.04628	3.6394	79.75	-0.2337	0.0317	0.2655	1163.7272	0.174046	-403.177701	-403.169661	-403.168717	-403.210746	31.41	
O	-0.297843103	-0.0277709342	 0.8260980068	-0.372906
C	-0.2632293693	 1.0490789601	 0.2563078162	 0.362394
C	-1.3525251112	 1.3541743813	-0.7796820429	-0.274479
C	-1.4596016606	 2.6819672486	-1.5454116931	-0.213476
C	-1.1963361141	 3.9237671361	-0.6790501291	-0.23608
C	 0.2939443306	 4.1770679347	-0.6075082386	 0.013622
C	 1.0387309329	 4.4885411362	 0.6619119422	-0.321347
C	 1.2038901043	 3.1392964601	-0.0129197834	 0.00407
N	 0.6717268289	 1.9831838266	 0.6428118384	-0.301257
H	-1.3303685147	 0.5123282161	-1.4794904018	 0.131217
H	-2.2731069615	 1.2104447224	-0.2002588841	 0.138664
H	-0.7673744827	 2.693047096	-2.3962425532	 0.099699
H	-2.4665652032	 2.7238103638	-1.9759200218	 0.098952
H	-1.6928258192	 4.8033501771	-1.1034376195	 0.101001
H	-1.6190327732	 3.7821069411	 0.3221419675	 0.10353
H	 0.6937478577	 4.6344090329	-1.5093066163	 0.093229
H	 1.8653185649	 5.1895265863	 0.630838589	 0.115071
H	 0.4696354468	 4.4911775884	 1.5853875068	 0.121255
H	 2.1462565021	 2.967473796	-0.5307278959	 0.09612
H	 1.2471630444	 1.6051134601	 1.3857389727	 0.24072
53.7625	101.7617	224.0239	283.4074	325.841	359.6563	430.0315	498.1914	512.418	566.171	669.8669	702.6396	729.8938	798.9543	846.9677	854.0525	883.6481	905.4935	961.1434	991.8705	1038.0949	1056.525	1088.2149	1098.5841	1135.4012	1139.289	1175.6176	1220.8646	1233.0708	1264.8251	1291.2567	1336.6705	1363.3547	1372.0126	1393.4685	1405.2104	1428.3451	1454.6078	1468.6093	1489.6781	1497.3662	1503.3962	1762.8784	3026.865	3034.2673	3038.2187	3065.0178	3072.486	3083.5967	3102.2453	3134.0152	3138.0168	3224.8183	3560.8324
O=C1CCCC2CC2N1	O=C1CCC[C@H]2C[C@H]2N1	
InChI=1S/C7H11NO/c9-7-3-1-2-5-4-6(5)8-7/h5-6H,1-4H2,(H,8,9)	InChI=1S/C7H11NO/c9-7-3-1-2-5-4-6(5)8-7/h5-6H,1-4H2,(H,8,9)/t5-,6+/m0/s1
