19
gdb 77071	2.6366	1.29825	1.18078	3.5361	75.56	-0.2552	0.0042	0.2594	1148.9785	0.157817	-419.20671	-419.197035	-419.196091	-419.240924	35.817	
C	-0.3709833151	 1.5374691434	 0.0134598785	-0.436672
C	-0.074764071	 0.0433803628	 0.0367937334	 0.41804
C	-1.2926936953	-0.7920776049	-0.3172322563	-0.439671
O	 1.047593677	-0.273073916	-0.8603870576	-0.319354
C	 1.9423755432	-0.5308877741	 0.2242675722	-0.056251
C	 2.9561148206	 0.5136285434	 0.4046136992	 0.284111
N	 3.7246322809	 1.3540783795	 0.6068551695	-0.332883
C	 0.7557458165	-0.4522714315	 1.2611438115	-0.083993
N	 0.7882066741	 0.3609335011	 2.4405886793	-0.510291
H	 0.5314909602	 2.130099596	 0.1852585927	 0.130041
H	-0.7719249365	 1.8183775619	-0.9648968729	 0.128309
H	-1.1067813627	 1.7940556785	 0.7808535864	 0.132952
H	-1.6799242546	-0.5110627588	-1.3016716944	 0.129648
H	-1.0416797905	-1.8563054965	-0.33914177	 0.11851
H	-2.0869014243	-0.6348310447	 0.4201417848	 0.128975
H	 2.4424718379	-1.5011214749	 0.1270808008	 0.119203
H	 0.459677133	-1.464822022	 1.5441015196	 0.099058
H	 1.256070878	-0.111364175	 3.2056597469	 0.241149
H	 1.2713508187	 1.2401760616	 2.2862408163	 0.249118
63.3248	129.0923	175.0554	196.1639	219.7553	253.2614	275.851	299.7041	342.0445	385.1397	426.5392	505.3203	547.502	616.8121	699.2675	753.3093	817.5233	847.8433	877.4861	938.1133	982.693	987.1976	1001.5976	1042.6033	1124.3249	1160.5612	1188.1845	1205.6105	1255.3198	1289.2854	1297.9462	1355.0381	1402.0229	1412.3271	1438.7233	1473.1471	1483.3089	1495.0412	1507.7481	1670.5398	2343.399	3036.1827	3044.9427	3045.778	3086.8382	3109.4766	3115.3295	3118.9017	3125.5399	3512.1557	3592.9151
CC1(C)OC(C#N)C1N	CC1(C)O[C@@H](C#N)[C@H]1N	
InChI=1S/C6H10N2O/c1-6(2)5(8)4(3-7)9-6/h4-5H,8H2,1-2H3	InChI=1S/C6H10N2O/c1-6(2)5(8)4(3-7)9-6/h4-5H,8H2,1-2H3/t4-,5+/m0/s1
