14
gdb 28652	6.00001	1.03996	0.88694	4.1421	85.77	-0.221	-0.0377	0.1832	1230.0973	0.101963	-395.745726	-395.738038	-395.737094	-395.777716	29.462	
N	-0.016359733	 1.4138691029	 0.1281635319	-0.594963
C	 0.0019005773	 0.0332662585	 0.0430214188	 0.283673
C	-1.1697069601	-0.7373872939	 0.0339492027	-0.062124
N	-1.1615534711	-2.0621885626	 0.0105437177	-0.269894
C	 0.0382825204	-2.6638892041	-0.0050730015	 0.163735
N	 1.2214141439	-2.0297891754	-0.0037927492	-0.269894
C	 1.1938314681	-0.7052505803	 0.01973157	-0.062125
C	 0.0575967312	-4.0950198013	-0.0285891188	 0.255248
C	 0.0738318792	-5.2974505036	-0.0481095269	-0.362803
H	 0.8140999703	 1.8879403163	-0.1943557137	 0.258137
H	-0.8632475275	 1.865125554	-0.1842054883	 0.258136
H	-2.1454627485	-0.2520609488	 0.0463710772	 0.105337
H	 2.1561120024	-0.1935770366	 0.0204954596	 0.105337
H	 0.0882303674	-6.3590571151	-0.0649349195	 0.192198
90.7547	153.0161	255.6768	307.9656	359.0915	429.5512	452.0436	463.4949	531.4465	543.6908	571.2598	616.6134	650.0092	669.4959	737.3238	825.4208	863.8384	936.7658	961.3121	1041.0866	1089.2254	1250.9582	1293.9143	1309.5265	1335.8477	1444.758	1478.2451	1572.5701	1623.0131	1659.1382	2237.2341	3127.3166	3130.0475	3504.1552	3570.0864	3670.6218
NC1=CN=C(N=C1)C#C	Nc1cnc(nc1)C#C	
InChI=1S/C6H5N3/c1-2-6-8-3-5(7)4-9-6/h1,3-4H,7H2	InChI=1S/C6H5N3/c1-2-6-8-3-5(7)4-9-6/h1,3-4H,7H2
