19
gdb 102223	2.65481	1.0826	0.80429	3.0348	79.53	-0.2402	-0.0213	0.2189	1443.3494	0.157466	-456.379989	-456.369479	-456.368535	-456.417669	36.009	
C	-0.7601407614	 1.7249867724	-0.9202093208	-0.32758
N	-0.7895507988	 0.3123572253	-0.620415459	-0.286553
C	 0.2319714657	-0.4392295249	-0.6970875426	 0.369679
C	 1.6666459304	-0.0901602657	-1.070027501	-0.15888
O	 2.107787476	-0.7414219281	-2.236608733	-0.421309
N	-0.0391503625	-1.787260876	-0.3534033247	-0.350104
C	 0.7563670445	-2.9013420072	-0.3289205389	 0.419619
C	 0.03859437	-4.1535570299	 0.1454262015	-0.488671
O	 1.9333712845	-2.9230604979	-0.6609278729	-0.381965
H	 0.1406505058	 2.0899110852	-1.429005219	 0.118216
H	-1.6242105104	 1.9643884094	-1.549586903	 0.132409
H	-0.8818839547	 2.2964627112	 0.008541482	 0.130128
H	 1.7317771956	 0.9834944172	-1.2502961984	 0.11834
H	 2.3067048345	-0.3180337275	-0.2047730349	 0.114123
H	 2.2876117544	-1.6541231023	-1.9541106484	 0.306521
H	-1.010290394	-1.9020935811	-0.0946753828	 0.252614
H	-0.6755323033	-4.4873635719	-0.6152412474	 0.153913
H	 0.7766926987	-4.9386419852	 0.3040863118	 0.157995
H	-0.5163872648	-3.9752283929	 1.0711778516	 0.141503
19.1916	51.1556	82.0383	102.771	137.5934	222.315	251.1165	269.6287	322.9211	363.4121	406.087	549.2103	587.637	639.655	646.5684	691.2014	723.2292	843.149	948.241	962.8642	1014.6637	1052.7593	1089.5222	1098.7575	1130.805	1149.4204	1218.1169	1265.1569	1315.068	1385.994	1390.2986	1438.7343	1461.989	1467.0519	1476.5939	1483.7001	1484.4225	1508.484	1528.0899	1740.9609	1763.7644	2998.9054	3008.9346	3046.3058	3066.6143	3079.1745	3110.8444	3122.5922	3167.2065	3587.6414	3646.9547
CN=C(CO)NC(C)=O	CN=C(CO)NC(=O)C	
InChI=1S/C5H10N2O2/c1-4(9)7-5(3-8)6-2/h8H,3H2,1-2H3,(H,6,7,9)	InChI=1S/C5H10N2O2/c1-4(9)7-5(3-8)6-2/h8H,3H2,1-2H3,(H,6,7,9)
