16
gdb 7069	2.12092	1.87	1.05022	4.1018	67.55	-0.2715	0.0114	0.2828	1095.6345	0.127137	-383.734522	-383.725502	-383.724558	-383.768657	31.527	
C	 0.0756019904	 1.6808237435	 0.1014973855	-0.397246
C	 0.0096593459	 0.1627364877	 0.0048439096	 0.107042
C	 0.6155017772	-0.5320364886	 1.2407885145	-0.3447
C	 0.6488981191	-1.9825083529	 1.1127139007	 0.278634
C	 0.6643317268	-3.1757608421	 0.9704892487	-0.419769
O	-1.3736758553	-0.2049563513	-0.104698618	-0.188098
C	-1.7230622341	-1.1487419285	-1.0032883065	 0.175528
O	-2.8467037823	-1.5316791314	-1.1270571552	-0.27783
H	 1.1146292096	 2.0158538521	 0.1707053328	 0.123964
H	-0.3789613072	 2.1374458087	-0.7809698614	 0.133761
H	-0.4643023161	 2.032721806	 0.9855279449	 0.137743
H	 0.5422499868	-0.1819905279	-0.8910589566	 0.099944
H	 1.6304631713	-0.1457093439	 1.3949364218	 0.135221
H	 0.0278850193	-0.2427729433	 2.1204997347	 0.147542
H	 0.6766338129	-4.2323149751	 0.8628672621	 0.204826
H	-0.8676231044	-1.5046491631	-1.6074139376	 0.083438
58.8952	87.0252	144.9577	171.6414	214.0818	267.0644	303.5002	345.1279	385.0863	487.7516	543.4217	612.5222	630.3317	658.2742	873.4056	902.7526	943.0874	987.7954	1038.3272	1081.1175	1122.0259	1141.0624	1192.5282	1254.134	1306.5548	1375.3137	1379.372	1412.5797	1443.1711	1458.6706	1486.7438	1498.2426	1865.9103	2240.8406	2964.0437	3023.387	3031.6629	3047.4427	3070.654	3122.1911	3129.2029	3504.6027
CC(CC#C)OC=O	C[C@@H](CC#C)OC=O	
InChI=1S/C6H8O2/c1-3-4-6(2)8-5-7/h1,5-6H,4H2,2H3	InChI=1S/C6H8O2/c1-3-4-6(2)8-5-7/h1,5-6H,4H2,2H3/t6-/m0/s1
