20
gdb 57050	2.47552	1.24984	0.9563	4.4611	79.33	-0.27	0.046	0.316	1282.5649	0.170226	-403.155183	-403.145539	-403.144595	-403.189916	35.305	
C	-0.1327242236	 1.5011126726	 0.0149391264	-0.403268
C	 0.0675026988	-0.0238535541	-0.0766890127	-0.152904
C	 0.8686506329	-0.3677981544	-1.2572456947	 0.274044
N	 1.5199621918	-0.6270627979	-2.1765005193	-0.336125
C	 0.7224200777	-0.5981043158	 1.1873812073	 0.036475
C	-0.0230309562	-0.4724561932	 2.5467608151	-0.248859
C	 0.4645677976	-1.9068597753	 2.8906641104	-0.250067
C	 0.7378298238	-2.1401210361	 1.3779739229	 0.101106
O	-0.3733874259	-2.6902260002	 0.6925432655	-0.435002
H	 0.8257124996	 2.0159479912	 0.1289712603	 0.132848
H	-0.6215600224	 1.8867395799	-0.883045423	 0.135939
H	-0.7584933356	 1.7409566741	 0.8787906602	 0.128191
H	-0.9051952614	-0.5119797556	-0.1995318547	 0.140352
H	 1.7423999193	-0.2114153388	 1.2785552159	 0.089729
H	 0.2761870289	 0.3396482854	 3.2120195774	 0.103483
H	-1.1072481199	-0.4379028993	 2.410464223	 0.112917
H	 1.3880541004	-1.9023690222	 3.4764509724	 0.105886
H	-0.2520833598	-2.5862175398	 3.3584241898	 0.098846
H	 1.6642030662	-2.6605655166	 1.1068509759	 0.07651
H	-0.419609722	-3.6292876739	 0.8962054717	 0.289897
57.9848	104.3776	127.1764	199.5443	212.2271	227.0164	255.6443	297.8372	379.276	395.2659	470.8256	545.7876	601.4357	696.4298	761.0682	840.5197	870.4702	895.7392	938.7982	953.1067	985.7538	1014.2217	1071.4025	1079.4413	1109.6741	1135.5317	1172.5183	1200.4307	1223.1288	1255.0287	1262.7318	1279.0716	1295.8762	1318.382	1335.1931	1380.5305	1410.879	1418.2963	1469.5413	1491.7572	1493.6531	1499.2868	2354.0275	3025.2472	3046.7537	3054.1933	3060.5944	3066.0108	3070.0045	3110.2481	3122.077	3126.2481	3127.2418	3824.9532
CC(C#N)C1CCC1O	C[C@@H](C#N)[C@H]1CC[C@H]1O	
InChI=1S/C7H11NO/c1-5(4-8)6-2-3-7(6)9/h5-7,9H,2-3H2,1H3	InChI=1S/C7H11NO/c1-5(4-8)6-2-3-7(6)9/h5-7,9H,2-3H2,1H3/t5-,6+,7+/m0/s1
