14
gdb 129206	3.15671	1.48879	1.01166	1.6339	84.6	-0.2132	-0.0728	0.1404	1088.1205	0.102427	-395.707567	-395.700074	-395.699129	-395.739574	28.709	
N	-0.0374969162	 1.258236044	 0.4024047185	-0.549144
C	-0.0221361151	 0.0275113132	 0.0522771339	 0.313029
N	 1.1213402	-0.6856302641	-0.3422783006	-0.293043
N	 1.2288521643	-1.9669437253	-0.7222419176	-0.178229
C	 0.1267073187	-2.6581944829	-0.7312354783	 0.002086
C	-1.1370286822	-2.1079250182	-0.3623670492	-0.219978
C	-1.2367717721	-0.8029323562	 0.0229746908	 0.102874
C	-2.4720010885	-0.2193153596	 0.3964468428	 0.285113
C	-3.5388275707	 0.2438673777	 0.7074481058	-0.378926
H	 0.8931499782	 1.6771253148	 0.3634714071	 0.19914
H	 1.9997980012	-0.1873982714	-0.3499942713	 0.265556
H	 0.2205082646	-3.6927466288	-1.0392056176	 0.128648
H	-2.0217351325	-2.7332359239	-0.3894788327	 0.122212
H	-4.4690553095	 0.6737252308	 0.9859214383	 0.200662
99.1674	147.5476	182.0759	340.346	380.0133	461.8123	468.9224	554.6086	574.7051	604.105	623.7899	647.3573	662.6756	732.5229	780.5228	802.5615	873.7695	892.9879	960.8362	1054.8383	1079.2281	1178.984	1201.0608	1290.1284	1380.2968	1398.4611	1462.5948	1578.8277	1638.5013	1702.9873	2227.3605	3197.6371	3211.1583	3458.5796	3503.4461	3605.8538
N=C1NN=CC=C1C#C	[NH]C1=C(CC=NN1)C#C	
InChI=1S/C6H5N3/c1-2-5-3-4-8-9-6(5)7/h1,3-4H,(H2,7,9)	InChI=1S/C6H6N3/c1-2-5-3-4-8-9-6(5)7/h1,4,7,9H,3H2
