20
gdb 10212	2.19005	1.43046	0.92421	2.096	73.06	-0.2421	-0.0287	0.2135	1299.0858	0.173451	-386.149684	-386.139588	-386.138644	-386.185578	34.57	
C	-0.0645784502	 1.7273206031	-0.212816212	-0.385661
C	 0.145459301	 0.2376511937	-0.007415979	-0.044864
O	 0.5177453507	-0.3386764089	-1.2506388986	-0.253289
C	 0.7493832182	-1.7301842371	-1.1939794274	 0.050045
C	 0.7475269127	-2.2813809685	-2.6278620073	-0.194879
C	-0.5936121631	-2.0766816737	-3.3355418074	-0.388712
C	 2.1024521969	-2.0222569309	-0.5498813584	 0.133233
O	 2.4021388541	-3.0673021259	-0.03512803	-0.246456
H	 0.8561806332	 2.2005065877	-0.5652828575	 0.128833
H	-0.8472209638	 1.9046216269	-0.9558534123	 0.129127
H	-0.3622645416	 2.202221702	 0.7265878646	 0.119215
H	 0.9256068396	 0.0597233545	 0.7508510941	 0.094655
H	-0.7759966473	-0.240042034	 0.3630831257	 0.095448
H	-0.0304157554	-2.2404890567	-0.6057338966	 0.08626
H	 1.5482737981	-1.7853653131	-3.1902115882	 0.108568
H	 1.0021295036	-3.3452559168	-2.5750298939	 0.119299
H	-0.5519551326	-2.45481989	-4.3612163245	 0.115849
H	-1.3986411335	-2.6066500498	-2.8147750694	 0.115068
H	-0.8528754328	-1.0159941164	-3.3693462839	 0.135045
H	 2.8209118822	-1.1728534261	-0.636099588	 0.083215
56.2086	66.1013	106.3074	109.6177	167.1071	227.0768	240.3719	249.8349	297.8528	375.4114	427.2796	469.8936	587.201	774.7286	820.8351	864.6529	900.4049	973.0198	1000.4497	1028.386	1080.1339	1102.5283	1137.4694	1158.6902	1181.6477	1187.6883	1275.2764	1297.7997	1302.5553	1339.9082	1374.4948	1395.4085	1404.1837	1407.3684	1437.4213	1479.9553	1483.1771	1495.0861	1499.0301	1509.106	1528.0278	1836.3661	2858.8769	2963.6299	2981.4923	2992.6648	3034.6157	3039.9393	3046.3066	3081.4915	3105.9236	3121.7725	3122.8542	3130.3583
CCOC(CC)C=O	CCO[C@@H](CC)C=O	
InChI=1S/C6H12O2/c1-3-6(5-7)8-4-2/h5-6H,3-4H2,1-2H3	InChI=1S/C6H12O2/c1-3-6(5-7)8-4-2/h5-6H,3-4H2,1-2H3/t6-/m0/s1
