13
gdb 21934	5.05883	1.43858	1.14903	4.3077	56.08	-0.2208	0.01	0.2307	962.0047	0.097019	-431.954171	-431.946822	-431.945878	-431.986171	26.2	
O	 0.3842911503	 0.2927564022	 0.9640413557	-0.422429
C	-0.1453473579	 0.2401726259	-0.3534862491	-0.185769
C	-1.4923209901	-0.3936173469	-0.2642810831	 0.405692
N	-2.516748871	-0.0852335645	-0.9975706	-0.273386
N	-3.4893171317	-0.9757722178	-0.5986876319	-0.297542
C	-3.0978818702	-1.8277795664	 0.4160384149	 0.457833
O	-3.7241658963	-2.6831506787	 1.0003974491	-0.419306
N	-1.7630361762	-1.4351766642	 0.5862353077	-0.38061
H	 1.3055900669	 0.5624417385	 0.9075404143	 0.300369
H	-0.2600606925	 1.2315868199	-0.8104230307	 0.131827
H	 0.5012400134	-0.3617604843	-1.0119407049	 0.117659
H	-4.414197365	-0.920141495	-0.9865970531	 0.281351
H	-1.1616484198	-1.7671175087	 1.320382591	 0.284309
74.7825	140.0781	202.8415	254.2382	305.3744	413.5933	455.4847	520.3878	544.8967	648.0651	703.9467	756.4937	785.2839	997.7081	1017.09	1024.7584	1065.447	1103.3063	1208.9955	1233.7625	1253.6822	1278.448	1386.7777	1443.3009	1498.9797	1509.9603	1655.7997	1859.3011	2975.2007	3042.0018	3690.219	3698.9277	3837.1075
OCC1=NNC(=O)N1	OCc1n[nH]c(=O)[nH]1	
InChI=1S/C3H5N3O2/c7-1-2-4-3(8)6-5-2/h7H,1H2,(H2,4,5,6,8)	InChI=1S/C3H5N3O2/c7-1-2-4-3(8)6-5-2/h7H,1H2,(H2,4,5,6,8)
