23
gdb 112790	2.10019	1.18314	0.83714	2.9778	86.71	-0.2405	-0.0199	0.2206	1471.0061	0.204105	-388.298625	-388.288378	-388.287434	-388.334378	37.454	
C	-0.0558132353	 1.6390547085	-0.054701805	-0.38318
C	 0.0608044856	 0.114638855	 0.0508109606	-0.207274
C	-1.2962008816	-0.5795204262	-0.014277975	 0.045231
C	-2.0863286958	-0.628282722	-1.3495104919	-0.252823
C	-2.5822523585	-2.0459836445	-0.9630992567	 0.034029
C	-2.7693305673	-3.1079569087	-2.0385543232	-0.420025
C	-1.3991499413	-2.1486642268	 0.0721935765	-0.147883
C	-0.1891379294	-2.8687912761	-0.4522758825	 0.168414
O	 0.3943672071	-3.7431943157	 0.1401171188	-0.263637
H	 0.9273758775	 2.1166483484	-0.0069146593	 0.11616
H	-0.5251659184	 1.9373628486	-0.9983664931	 0.119516
H	-0.6646011731	 2.0455039302	 0.7607043276	 0.115727
H	 0.710938659	-0.2549644528	-0.7519926921	 0.096369
H	 0.5568416582	-0.1529454294	 0.9928267558	 0.106103
H	-1.9425075159	-0.1692621814	 0.7706477664	 0.08011
H	-2.8388478559	 0.1425499985	-1.533285408	 0.098862
H	-1.410502711	-0.6620199915	-2.212208443	 0.098312
H	-3.5068568064	-1.9554247647	-0.3830621733	 0.084823
H	-1.8853414083	-3.2090134899	-2.67621287	 0.117451
H	-2.9764735513	-4.0888909068	-1.5972681367	 0.12552
H	-3.6134729028	-2.8503644153	-2.6875921247	 0.118617
H	-1.6390795322	-2.5704803523	 1.0506911368	 0.080323
H	 0.162112517	-2.5463307152	-1.459401328	 0.069256
56.7283	82.4018	92.275	143.8832	209.7778	227.9408	259.0592	293.4197	317.5234	389.1965	439.8668	452.6527	477.4191	641.9184	743.949	785.3669	873.198	882.6102	928.8704	945.3898	971.6553	976.8061	1007.2905	1028.793	1058.6312	1116.1693	1141.5466	1149.3943	1161.8605	1187.7178	1237.2923	1254.6219	1265.9997	1273.8408	1297.345	1331.4292	1344.6823	1367.1314	1401.7111	1410.8522	1416.1837	1441.2734	1484.9392	1494.1673	1498.3849	1499.7161	1501.6991	1506.831	1818.9216	2858.2943	3019.9585	3028.6842	3031.1448	3031.9854	3038.3925	3045.2112	3055.0733	3089.0993	3095.7585	3097.9458	3098.4191	3105.4892	3106.1338
CCC1CC(C)C1C=O	CC[C@H]1C[C@@H](C)[C@H]1C=O	
InChI=1S/C8H14O/c1-3-7-4-6(2)8(7)5-9/h5-8H,3-4H2,1-2H3	InChI=1S/C8H14O/c1-3-7-4-6(2)8(7)5-9/h5-8H,3-4H2,1-2H3/t6-,7+,8-/m1/s1
