23
gdb 58995	3.44473	1.01539	1.00245	0.2194	91.68	-0.2156	0.0287	0.2442	1363.4578	0.206379	-351.165634	-351.156561	-351.155617	-351.199413	35.587	
C	 0.0216445344	 1.5545523772	-0.0686420365	-0.388718
C	 0.0504686896	 0.0170570102	 0.0142780417	-0.072348
C	 0.6912145721	-0.5828351042	-1.2528278911	-0.385587
C	 0.7313541706	-0.4652358334	 1.2694578241	 0.343167
C	 0.2079643328	-1.2845089273	 2.1900295145	-0.2111
C	 1.1799928143	-1.6451473907	 3.2601800835	-0.062518
C	 2.4018166636	-2.409690001	 2.785632406	-0.276225
C	 2.4570980659	-0.9076474209	 2.8900419253	-0.036112
C	 2.1596904546	-0.0790779236	 1.6418065706	-0.327416
H	 1.0333967805	 1.9677245894	-0.1457262029	 0.115355
H	-0.5363707389	 1.883338837	-0.9515926351	 0.109145
H	-0.4530732177	 1.9903696006	 0.8158152704	 0.115277
H	-0.9883546303	-0.3356588614	 0.0563099129	 0.072863
H	 1.7294319159	-0.2531101522	-1.3685410594	 0.114463
H	 0.6877096899	-1.6763546816	-1.2162962624	 0.114505
H	 0.1437286246	-0.2688983487	-2.1480278888	 0.109295
H	-0.7994520596	-1.6866147122	 2.1528347278	 0.082295
H	 0.8496427113	-1.7652939742	 4.2863052018	 0.080876
H	 2.9635845716	-2.9714962511	 3.5252978946	 0.104817
H	 2.3574744983	-2.8708008206	 1.803572236	 0.106087
H	 3.0931267874	-0.4808023689	 3.6564912957	 0.081035
H	 2.8709558259	-0.279640425	 0.8300624999	 0.106636
H	 2.2347902432	 0.9961578128	 1.8533185014	 0.104206
54.2009	112.8562	204.6487	231.238	252.2823	264.7659	312.1412	342.3842	456.1599	493.0737	536.7546	591.4326	690.4022	789.7938	808.6135	832.7417	866.7037	893.22	898.785	926.9959	939.4938	961.1838	986.0374	1019.2229	1031.776	1055.7046	1072.4267	1091.2261	1104.7642	1118.2909	1168.519	1188.7747	1203.8505	1228.6275	1274.5958	1321.9921	1339.9755	1341.825	1365.7653	1384.1867	1392.5929	1415.6052	1472.1107	1483.4646	1487.7912	1492.292	1502.2532	1512.2096	1695.2906	3010.6137	3016.2491	3027.7814	3032.5615	3039.6636	3094.3467	3100.4659	3105.1201	3107.7046	3117.8053	3161.6312	3175.7769	3181.9984	3207.077
CC(C)C1=CC2CC2C1	CC(C)C1=C[C@H]2C[C@H]2C1	
InChI=1S/C9H14/c1-6(2)7-3-8-5-9(8)4-7/h3,6,8-9H,4-5H2,1-2H3	InChI=1S/C9H14/c1-6(2)7-3-8-5-9(8)4-7/h3,6,8-9H,4-5H2,1-2H3/t8-,9+/m0/s1
