23
gdb 116893	4.18574	0.50358	0.46262	1.5121	92.87	-0.2412	0.0597	0.3009	2439.1046	0.202995	-388.27241	-388.260611	-388.259667	-388.311612	40.843	
C	-0.0251791971	 1.5723874425	-0.0171636865	-0.381388
C	-0.0100005448	 0.0426511949	-0.0080336689	-0.151513
C	 0.7267348714	-0.5301035666	 1.220046008	-0.335934
C	 0.7552682497	-1.988799954	 1.2500613364	 0.020004
C	 0.7741035559	-3.1938712587	 1.2449845647	 0.102857
C	 0.7846875039	-4.6557854246	 1.2710186252	-0.137739
C	 1.5713755841	-5.2028752927	 2.4778336687	-0.381125
C	-0.6554686329	-5.1941877122	 1.2473949344	-0.067391
O	-0.586516881	-6.607023701	 1.1310318858	-0.420479
H	 0.9919351188	 1.9797846581	-0.0345694048	 0.11549
H	-0.5526186766	 1.957876886	-0.8948733631	 0.113745
H	-0.5250001035	 1.9704613099	 0.8731075349	 0.114883
H	-1.0348837598	-0.3451046772	-0.0179587783	 0.105888
H	 0.4709293525	-0.3358770182	-0.916902846	 0.10812
H	 1.7547257464	-0.1425561386	 1.2366872279	 0.123587
H	 0.2507290567	-0.1510042553	 2.1348799909	 0.121808
H	 1.2666960317	-5.0233982584	 0.3543986337	 0.108841
H	 1.5419164871	-6.2943874507	 2.4744181685	 0.132365
H	 2.6125904194	-4.872554631	 2.4427122672	 0.117775
H	 1.1337531477	-4.8431025165	 3.4146662705	 0.115808
H	-1.1703191155	-4.8879962568	 2.1713930847	 0.091857
H	-1.1949777334	-4.7468657341	 0.3998966409	 0.09407
H	-1.4806433607	-6.957108565	 1.1730975854	 0.288473
15.6083	57.4481	66.6674	113.8653	142.1225	179.6539	221.0694	237.7159	239.4368	271.5464	302.4905	346.345	407.3944	470.2208	514.5157	554.7948	742.5179	769.5512	869.2357	872.356	898.4978	931.4915	1014.2289	1043.6264	1077.2025	1102.7161	1108.5988	1122.4439	1137.0765	1188.5369	1237.1106	1259.6227	1261.5822	1306.1405	1321.9941	1329.3201	1348.8651	1381.0162	1396.9928	1411.327	1450.5873	1474.3729	1491.7936	1493.8808	1498.7358	1500.7766	1508.6777	1521.4614	2363.2589	2977.7316	3005.5988	3006.4084	3022.7351	3029.1517	3032.2975	3040.5397	3045.248	3072.1356	3099.477	3104.9754	3115.5709	3137.7096	3838.3527
CCCC#CC(C)CO	CCCC#C[C@@H](C)CO	
InChI=1S/C8H14O/c1-3-4-5-6-8(2)7-9/h8-9H,3-4,7H2,1-2H3	InChI=1S/C8H14O/c1-3-4-5-6-8(2)7-9/h8-9H,3-4,7H2,1-2H3/t8-/m1/s1
