14
gdb 25984	5.09045	0.98272	0.91951	4.6345	64.74	-0.2344	0.0015	0.2358	1233.4694	0.102489	-470.06564	-470.05763	-470.056686	-470.099403	28.718	
N	-0.1396624404	 1.3794963173	-0.020433409	-0.56957
C	-0.0314604705	 0.0293424057	 0.2667284824	 0.433532
O	 0.81198985	-0.4457101281	 0.9902682622	-0.354536
N	-1.0303122375	-0.7348980231	-0.3478980609	-0.479894
C	-1.13902111	-2.0986694552	-0.1271268461	 0.400912
C	-2.0611401277	-2.8949887881	 0.4672960247	-0.169293
N	-1.6875555976	-4.2231867716	 0.3101645961	-0.257015
C	-0.5742420886	-4.159280782	-0.344024261	 0.086369
O	-0.1744301933	-2.9097183927	-0.6662872314	-0.150357
H	 0.6718505027	 1.9054037559	 0.2663363638	 0.268565
H	-0.5103345856	 1.6471972075	-0.9196507221	 0.253455
H	-1.8525134266	-0.2614406316	-0.6877317734	 0.260081
H	-2.9565969973	-2.6094507391	 0.995461611	 0.125164
H	 0.0716282725	-4.9675775851	-0.6486726664	 0.152587
40.4352	80.4573	114.1119	308.1137	313.7824	395.817	421.3065	425.4745	546.2187	614.4673	664.5973	671.1267	767.8518	828.3007	836.9009	862.8143	936.9983	959.0118	1011.3835	1103.5903	1128.1515	1145.5104	1249.4271	1289.537	1311.0211	1356.1795	1487.1067	1551.0524	1627.7399	1662.9036	1835.2513	3267.0069	3277.4161	3578.4776	3625.2184	3692.7436
NC(=O)NC1=CN=CO1	NC(=O)Nc1cnco1	
InChI=1S/C4H5N3O2/c5-4(8)7-3-1-6-2-9-3/h1-2H,(H3,5,7,8)	InChI=1S/C4H5N3O2/c5-4(8)7-3-1-6-2-9-3/h1-2H,(H3,5,7,8)
