21
gdb 109953	2.26376	1.46584	1.04982	2.1314	79.69	-0.2252	0.0749	0.3001	1235.537	0.180209	-424.184921	-424.175321	-424.174377	-424.219605	35.487	
C	 0.0899174198	 1.4995823103	-0.0957254064	-0.240946
O	-0.1881761747	 0.1311613536	-0.3100425374	-0.235655
C	 0.6382531317	-0.4747085428	-1.2648549199	-0.028911
C	 1.9552694969	-1.16820137	-0.7870747662	 0.110512
C	 2.2268406336	-1.2035518082	 0.7031786897	-0.400604
O	 1.4752186695	-2.4481601316	-1.2874087714	-0.32427
C	 0.2124642578	-1.88396904	-1.6365734251	 0.437026
C	-1.0857873041	-2.5564375017	-1.3426819582	-0.321757
C	-0.6088342576	-2.3784656475	-2.7784738961	-0.346214
H	 1.0937070046	 1.6597904121	 0.3228861728	 0.111205
H	 0.0079331742	 2.0773932546	-1.0290487794	 0.109144
H	-0.6499899907	 1.8704479209	 0.6172540898	 0.131268
H	 0.7868083445	 0.1945735439	-2.1241290076	 0.072559
H	 2.8490231001	-0.8616535663	-1.3444291845	 0.073106
H	 1.3075763867	-1.394100217	 1.2615057984	 0.133796
H	 2.9467032707	-1.9971829436	 0.9248067312	 0.125758
H	 2.6525816411	-0.2538346945	 1.0449751618	 0.110948
H	-1.0358953349	-3.5547896217	-0.9215858007	 0.121567
H	-1.9014361376	-1.9408312794	-0.9798885646	 0.12569
H	-1.1103445965	-1.653246429	-3.4118174769	 0.112783
H	-0.2464945752	-3.260713562	-3.2953266093	 0.122995
54.0713	95.6519	154.6033	178.7524	220.0438	229.8278	250.5431	306.9273	383.9484	416.3174	487.5888	522.3895	641.6756	759.1446	798.2057	830.0916	873.7596	899.0001	929.0705	971.3902	986.4005	1023.4585	1047.9832	1064.2887	1081.1968	1082.1793	1144.6916	1168.5961	1182.0921	1187.7146	1224.1809	1234.2208	1251.3907	1318.4528	1352.6996	1381.62	1408.3134	1416.0699	1446.671	1479.7253	1483.0582	1490.4076	1493.9173	1501.3463	1508.7719	2980.9052	2997.3631	3027.3472	3032.654	3041.1368	3106.7139	3119.084	3125.4363	3133.5247	3135.2842	3211.3857	3229.2978
COC1C(C)OC11CC1	CO[C@H]1[C@@H](C)OC21CC2	
InChI=1S/C7H12O2/c1-5-6(8-2)7(9-5)3-4-7/h5-6H,3-4H2,1-2H3	InChI=1S/C7H12O2/c1-5-6(8-2)7(9-5)3-4-7/h5-6H,3-4H2,1-2H3/t5-,6+/m1/s1
