21
gdb 38788	2.56396	2.25951	1.83914	0.1686	83.26	-0.2503	0.0763	0.3267	880.963	0.187368	-349.928821	-349.922766	-349.921822	-349.95869	27.512	
C	-0.0244017521	 1.5617270361	 0.1090529934	-0.244252
C	 1.5338144173	 1.561520574	-0.0007845914	-0.026151
C	 2.1100200023	 1.8256993535	-1.3999000408	-0.224706
C	 1.7953654654	 0.5812310838	-2.2434767551	-0.026152
C	 0.2936203844	 0.3697842589	-2.6178453752	-0.244252
C	 0.1328820813	-0.6062990983	-1.4283836252	-0.029283
C	-0.0338158075	 0.0184757099	 0.0009635313	-0.029283
C	 1.5227405987	 0.0019376835	 0.1804054678	-0.036699
C	 1.6876355118	-0.6160726797	-1.2334719047	-0.0367
H	-0.350968634	 1.8829166969	 1.1023930468	 0.094101
H	-0.5840779994	 2.1386556728	-0.6337702603	 0.090827
H	 2.0396676316	 2.1493641597	 0.7682407512	 0.060571
H	 1.7169322956	 2.7463223605	-1.8481525878	 0.091774
H	 3.1985387732	 1.9433523897	-1.3243811931	 0.091515
H	 2.4884472172	 0.4673548406	-3.0798484681	 0.060572
H	-0.3484211388	 1.2553978833	-2.6544720872	 0.090827
H	 0.1939488042	-0.1594182911	-3.5699714894	 0.094101
H	-0.4501441925	-1.5128245838	-1.5978519138	 0.057798
H	-0.7132133154	-0.5268612328	 0.6578153091	 0.057798
H	 2.0294105448	-0.4408147156	 1.0377517365	 0.053797
H	 2.311395862	-1.4976673617	-1.380101854	 0.053797
258.2208	293.3167	391.0677	418.8388	586.4942	603.4199	625.6984	720.6073	777.5693	787.356	797.7873	846.0694	853.6729	877.6666	890.8718	913.2552	916.2239	940.2982	960.4043	981.3354	1010.1888	1048.9052	1063.9369	1068.3542	1119.4367	1120.2307	1141.7382	1144.801	1176.0452	1187.7513	1207.796	1213.25	1250.258	1251.375	1252.0458	1275.1897	1292.0454	1297.3683	1313.9942	1323.564	1349.0512	1351.7993	1473.7313	1477.9302	1496.5293	3018.5163	3040.9347	3046.7152	3060.5577	3072.6026	3077.3165	3079.072	3091.2695	3091.999	3098.6873	3102.6949	3117.1744
C1C2CC3CC4C1C2C34	C1[C@@H]2C[C@@H]3C[C@@H]4[C@H]1[C@H]2[C@H]34	
InChI=1S/C9H12/c1-4-2-6-7-3-5(1)9(7)8(4)6/h4-9H,1-3H2	InChI=1S/C9H12/c1-4-2-6-7-3-5(1)9(7)8(4)6/h4-9H,1-3H2/t4-,5+,6-,7+,8-,9+
