16
gdb 124216	4.90433	0.98193	0.82232	2.8646	74.33	-0.2266	-0.0063	0.2203	1341.3837	0.125252	-434.073135	-434.06485	-434.063906	-434.106896	30.099	
C	-0.0149234817	 1.5177644473	-0.1446022156	-0.490587
C	-0.0129348868	 0.0354760438	 0.1676214468	 0.369562
N	-0.0410959762	-0.4971060426	 1.3279159804	-0.507696
N	 0.023811236	-0.7434485979	-0.9748554745	-0.413772
C	 0.0357482521	-2.1232225247	-1.0653499651	 0.488549
N	 0.0721311197	-2.6596210792	-2.27001495	-0.249033
O	 0.0760051758	-4.0355344135	-2.0569368732	-0.165626
C	 0.0416796605	-4.2681537665	-0.73808374	 0.082564
C	 0.0146215541	-3.1096109251	-0.0349094387	-0.328475
H	 0.8826887916	 1.7998339609	-0.7060570015	 0.14525
H	-0.8846854563	 1.7873578664	-0.7539815088	 0.145267
H	-0.0440204988	 2.1014120983	 0.7762481791	 0.137549
H	-0.0658926799	 0.2242432761	 2.0441948314	 0.216584
H	 0.0447432317	-0.2726398307	-1.8656363668	 0.262036
H	 0.0409257094	-5.3070315309	-0.4456714431	 0.14908
H	-0.0153284311	-2.9379043218	 1.0239272095	 0.158749
64.7417	77.7814	115.2965	180.4793	327.8875	352.8871	370.1813	500.1328	570.8061	577.4309	599.6587	721.3364	774.0634	817.5206	831.3649	881.3149	913.4686	931.9392	971.2025	1001.2716	1043.517	1062.8041	1069.5842	1152.2686	1169.8771	1319.5139	1329.1811	1401.8886	1440.4922	1478.6171	1482.4657	1509.6329	1547.5348	1644.1216	1719.479	3036.6799	3096.3721	3143.9125	3263.3118	3332.6653	3515.9112	3638.8096
CC(=N)NC1=NOC=C1	CC(=N)Nc1nocc1	
InChI=1S/C5H7N3O/c1-4(6)7-5-2-3-9-8-5/h2-3H,1H3,(H2,6,7,8)	InChI=1S/C5H7N3O/c1-4(6)7-5-2-3-9-8-5/h2-3H,1H3,(H2,6,7,8)
