17
gdb 29554	2.34774	1.80719	1.02869	5.4683	81.44	-0.1852	-0.0058	0.1795	1121.7977	0.138052	-418.077511	-418.069149	-418.068205	-418.110037	32.322	
C	-0.0131405429	 1.493797831	 0.0401649425	-0.474235
C	-0.0195248142	-0.0067758887	-0.0121283927	 0.130458
C	-0.0537098809	-0.6962800443	-1.1889947897	-0.06184
N	-0.0454875981	-2.0544799264	-1.222273566	-0.322924
C	-0.013373733	-2.8064962006	-0.0700123509	-0.089729
C	 0.0173588067	-2.1984982206	 1.1488049303	 0.163193
N	-0.0017555862	-2.8542523853	 2.3675990085	-0.581472
C	 0.0293556632	-0.728213385	 1.245031617	 0.282574
O	 0.0899757877	-0.1788593251	 2.3532983432	-0.427287
H	 0.875060119	 1.857329198	 0.5677502515	 0.138821
H	-0.0334993008	 1.9347564738	-0.9606269093	 0.102285
H	-0.8744333237	 1.8652631579	 0.605670923	 0.139037
H	-0.084315916	-0.2032313429	-2.1538636693	 0.121113
H	-0.0700691018	-2.5266127234	-2.1094311008	 0.26463
H	-0.0198682497	-3.8809811233	-0.2040602868	 0.114461
H	 0.4821164447	-3.737342622	 2.4208530015	 0.240222
H	 0.2368581861	-2.2032845031	 3.108992998	 0.260693
119.2313	127.7992	246.5709	270.0337	300.8375	331.3472	368.5319	434.8804	480.5057	489.2169	510.7545	569.92	576.4275	674.4146	692.6386	797.6633	814.5418	870.8366	875.6136	977.371	1032.3233	1063.514	1100.2831	1153.5562	1258.8902	1275.13	1326.7398	1401.3599	1414.8277	1434.2818	1467.6922	1491.753	1562.1406	1597.7668	1646.2103	1680.3192	1689.6821	3033.662	3089.0198	3112.3073	3194.9621	3203.5665	3514.5883	3652.9706	3670.9319
CC1=CNC=C(N)C1=O	Cc1c[nH]cc(N)c1=O	
InChI=1S/C6H8N2O/c1-4-2-8-3-5(7)6(4)9/h2-3H,7H2,1H3,(H,8,9)	InChI=1S/C6H8N2O/c1-4-2-8-3-5(7)6(4)9/h2-3H,7H2,1H3,(H,8,9)
