16
gdb 43781	4.0017	1.2147	1.09377	2.322	73.62	-0.2567	-0.0272	0.2296	1087.1368	0.125978	-400.773797	-400.766613	-400.765669	-400.805463	28.152	
O	 0.0264788954	 0.0534961123	-0.0340737072	-0.320508
C	 0.0202368699	 1.2518258895	-0.0028795788	 0.435081
C	-1.2017212558	 2.2017009573	 0.0170310936	-0.378355
C	-0.4168253235	 3.535463985	 0.0548169973	 0.205703
C	 0.6975496267	 3.285547101	-1.0148690651	-0.267692
C	 1.1899796539	 2.2276440353	 0.0271523018	-0.143861
C	 0.6890877222	 3.23002652	 1.1188489786	-0.26769
C	-1.1784065269	 4.7637425739	 0.0837145117	 0.169149
N	-1.7798844898	 5.7508004254	 0.1071575243	-0.335548
H	-1.8201810216	 2.084958198	-0.8767096938	 0.14506
H	-1.8271671007	 2.0387564328	 0.8985993572	 0.145063
H	 0.3825860066	 2.9420109383	-2.002820055	 0.124792
H	 1.3843700479	 4.1286424799	-1.1004063492	 0.132408
H	 2.1919028673	 1.8076305845	 0.0201964297	 0.099199
H	 1.3750292573	 4.067395582	 1.2535536284	 0.132407
H	 0.366382351	 2.835636895	 2.0850711864	 0.124793
118.363	144.1388	196.9069	382.4033	418.4772	476.6413	497.7337	545.1326	560.4548	621.0667	633.3688	763.0389	813.0889	820.4486	906.8045	944.9886	964.8256	997.1765	999.0221	1022.5873	1071.6587	1108.305	1146.8493	1184.3544	1194.1794	1210.1077	1229.4069	1237.1277	1272.6103	1313.7591	1460.3935	1489.3388	1524.7625	1879.8032	2356.9765	3069.7641	3072.727	3075.7536	3121.3496	3141.4436	3143.79	3166.8825
O=C1CC2(CC1C2)C#N	O=C1C[C@@]2(C[C@H]1C2)C#N	
InChI=1S/C7H7NO/c8-4-7-1-5(2-7)6(9)3-7/h5H,1-3H2	InChI=1S/C7H7NO/c8-4-7-1-5(2-7)6(9)3-7/h5H,1-3H2/t5-,7-
