20
gdb 32595	2.66818	1.25496	0.91951	3.0517	83.6	-0.1747	0.0407	0.2154	1323.3375	0.171636	-399.379169	-399.369447	-399.368503	-399.413983	35.592	
C	-0.0068165806	 1.5885019957	 0.1945614551	-0.371657
C	-0.0324313947	 0.0802517505	-0.071276276	-0.161278
N	-1.3704870485	-0.4838666107	-0.0325975808	-0.013048
C	-2.0862340889	-0.7734184371	 1.1266388209	-0.220406
C	-3.3100243687	-1.2193936446	 0.6938656198	 0.272362
N	-4.4349373469	-1.5950577214	 1.4369726778	-0.59914
N	-3.3665188631	-1.2072423755	-0.6761666667	-0.357116
C	-2.1923058495	-0.7555660774	-1.0844633884	 0.336033
C	-1.8087008131	-0.5773772938	-2.5165315019	-0.506107
H	 1.0221059461	 1.960965264	 0.1712417134	 0.118726
H	-0.5865682899	 2.12754355	-0.5603604116	 0.130769
H	-0.434062163	 1.8172548471	 1.1748103263	 0.132806
H	 0.3983644249	-0.1388916451	-1.0518588602	 0.121514
H	 0.5809275152	-0.4445337155	 0.6695045831	 0.119172
H	-1.6580444552	-0.6386166478	 2.1055861463	 0.106078
H	-4.207068967	-2.0951838707	 2.2858934515	 0.236999
H	-5.0625806542	-2.1474028564	 0.8663756177	 0.2449
H	-1.5743237219	 0.4651870689	-2.7619828697	 0.128086
H	-0.9379516621	-1.183721782	-2.7938373465	 0.128336
H	-2.6519747388	-0.890906298	-3.1331157402	 0.152972
49.7704	104.2206	137.3653	202.0624	206.7586	228.7686	278.6038	301.4273	316.8728	418.4629	501.0914	606.9752	629.686	641.5779	661.1283	697.3619	774.915	790.5276	818.0332	964.7587	1005.7176	1043.4161	1059.5025	1095.0072	1098.7801	1106.3555	1198.7881	1226.3011	1299.0709	1366.5541	1391.9004	1407.4532	1408.5851	1425.5765	1466.8877	1484.0168	1485.7811	1489.0927	1504.9332	1517.8318	1547.774	1621.2061	1649.263	3024.3687	3041.9671	3046.1337	3070.6074	3095.3455	3116.1136	3126.0261	3145.9446	3269.4859	3538.9955	3634.4953
CCN1C=C(N)N=C1C	CCn1cc(N)nc1C	
InChI=1S/C6H11N3/c1-3-9-4-6(7)8-5(9)2/h4H,3,7H2,1-2H3	InChI=1S/C6H11N3/c1-3-9-4-6(7)8-5(9)2/h4H,3,7H2,1-2H3
