21
gdb 56144	3.14692	0.84959	0.78998	3.2623	75.9	-0.2686	0.0164	0.2851	1553.7339	0.177617	-461.410219	-461.398843	-461.397899	-461.448062	39.797	
C	-0.0579305585	 1.4278748644	-0.0788925139	-0.480398
C	-0.0592294794	-0.0730566304	 0.0871835728	 0.435583
O	-0.0870312092	-0.6657273103	 1.1346422894	-0.344605
O	-0.0244158378	-0.6850557709	-1.1174225037	-0.247097
C	-0.0219596083	-2.1213697115	-1.0930455148	-0.064762
C	 0.0194479726	-2.6259660217	-2.5391587852	 0.316245
C	-1.2274889459	-2.1807149533	-3.3130143552	-0.414082
C	 1.3055368095	-2.1750795792	-3.2424560186	-0.414081
O	 0.0178589442	-4.0465089646	-2.3685107239	-0.468729
H	 0.8375212793	 1.7451874382	-0.6207832776	 0.148553
H	-0.9235577485	 1.7413350469	-0.6693138057	 0.14856
H	-0.085996092	 1.9006131893	 0.9019448634	 0.149303
H	 0.8483502661	-2.4818029492	-0.5376716373	 0.125331
H	-0.9202683454	-2.4856667539	-0.586959068	 0.125326
H	-1.2924331343	-1.090670941	-3.362639127	 0.127895
H	-1.1997544521	-2.5659424236	-4.3387354859	 0.103219
H	-2.1295828371	-2.5643219993	-2.8275516259	 0.122073
H	 2.1809203043	-2.5545831729	-2.7074023937	 0.122073
H	 1.3367206388	-2.5604502154	-4.2680257657	 0.103217
H	 1.3682194803	-1.0847536582	-3.2886897906	 0.127895
H	 0.0431963634	-4.4473961133	-3.2434127028	 0.278482
30.6536	48.9996	68.6974	127.4452	177.9442	218.5629	232.3765	240.0254	254.7161	311.0355	339.5142	375.932	457.0185	470.4918	510.9188	605.1704	639.9238	765.6965	902.6522	913.0528	943.0685	951.3526	982.1019	1016.242	1034.5729	1064.3789	1074.0253	1144.878	1200.767	1223.5779	1266.0708	1288.945	1364.5562	1392.1074	1392.1174	1401.5255	1419.5356	1469.8399	1476.1773	1479.2609	1484.9982	1491.7538	1508.8425	1515.5068	1829.2975	3030.3576	3035.9188	3056.9878	3061.4049	3099.0398	3104.5243	3111.813	3121.6349	3123.5058	3127.2836	3169.7855	3816.2494
CC(=O)OCC(C)(C)O	CC(=O)OCC(C)(C)O	
InChI=1S/C6H12O3/c1-5(7)9-4-6(2,3)8/h8H,4H2,1-3H3	InChI=1S/C6H12O3/c1-5(7)9-4-6(2,3)8/h8H,4H2,1-3H3
