19
gdb 79906	2.48862	1.48575	1.28447	3.2386	82.31	-0.2334	-0.0453	0.1881	1101.2004	0.159093	-385.922663	-385.914027	-385.913083	-385.955839	32.619	
C	-0.1104304319	 1.5507081074	-0.0463018176	-0.417846
C	 0.0458650964	 0.0494959056	 0.0310077594	 0.000509
C	 1.3394295995	-0.7161130994	-0.2079881093	-0.112307
C	 2.6175344078	 0.0467846651	-0.0856282852	-0.174442
C	 2.8397595759	 0.4988329956	 1.1598957463	 0.190123
C	 3.9584344647	 1.3340447546	 1.6898496901	-0.49306
C	 1.711046849	 0.0600469876	 2.0409870837	 0.343783
O	 1.6192065069	 0.2639245148	 3.2314250759	-0.337251
C	 0.7313509664	-0.6983181404	 1.1731973457	-0.187853
H	 0.7958933113	 2.0794530906	 0.2549234144	 0.127098
H	-0.3544440484	 1.8565237267	-1.0694795416	 0.119112
H	-0.925749276	 1.8831934729	 0.604499247	 0.129319
H	-0.8303871042	-0.4867496248	-0.3291777186	 0.098117
H	 1.3073540281	-1.5968513097	-0.8397878822	 0.096857
H	 3.2575343387	 0.2412867594	-0.9403585974	 0.107453
H	 3.5800127286	 2.2758021014	 2.1032875104	 0.140174
H	 4.4626090827	 0.8202766647	 2.5154810853	 0.143606
H	 4.6959138434	 1.5637443442	 0.9166841367	 0.11949
H	 0.218160361	-1.5446649762	 1.6122608371	 0.107116
102.5539	119.2021	137.9289	201.8497	252.2031	283.5617	326.9632	421.5687	483.8528	518.9508	611.22	668.5714	747.4761	754.1232	814.8432	831.4596	895.8191	911.1604	924.3335	998.1434	1003.765	1038.2181	1064.3501	1069.5338	1087.1511	1127.5325	1140.684	1212.3489	1227.1862	1319.262	1327.7289	1349.3967	1405.5073	1413.0678	1425.4852	1472.5152	1484.6138	1494.4251	1500.014	1684.7263	1801.1078	3034.6054	3038.2177	3087.3632	3095.9785	3118.5246	3120.2985	3134.7596	3169.1706	3184.853	3195.6713
CC1C2C=C(C)C(=O)C12	C[C@H]1[C@H]2C=C(C)C(=O)[C@@H]12	
InChI=1S/C8H10O/c1-4-3-6-5(2)7(6)8(4)9/h3,5-7H,1-2H3	InChI=1S/C8H10O/c1-4-3-6-5(2)7(6)8(4)9/h3,5-7H,1-2H3/t5-,6+,7-/m0/s1
