15
gdb 27494	2.0237	1.8674	0.97276	3.8817	74.12	-0.2109	-0.0047	0.2063	1130.9442	0.115899	-450.206544	-450.198747	-450.197803	-450.238713	30.291	
N	 0.0753683058	 1.3829230431	 0.1469162234	-0.583468
C	-0.0402255505	 0.0060503484	 0.0361716589	 0.425364
C	-1.202285161	-0.6856778927	 0.0269323017	-0.241675
C	-1.2075558768	-2.1314130998	-0.0045611752	 0.393857
N	-2.2921996451	-2.8128418131	-0.0092993582	-0.554809
N	 0.085132213	-2.7026592583	-0.0461658109	-0.442243
C	 1.2945706827	-2.0456385115	-0.0191674815	 0.478324
O	 2.3708823076	-2.6032753892	 0.0003638498	-0.397803
N	 1.1730170539	-0.6605675526	-0.0166281615	-0.43133
H	 0.7833601931	 1.7980957284	-0.4453516717	 0.257324
H	-0.8055673779	 1.8689915114	 0.0585870404	 0.266158
H	-2.1584186779	-0.1833985263	 0.0262889203	 0.105939
H	-2.1069172665	-3.815906251	-0.0482938342	 0.198583
H	 0.1662789335	-3.7088748677	-0.0539682853	 0.259225
H	 2.0333631961	-0.1660412392	 0.160803654	 0.266554
137.2446	149.6813	193.8288	314.5593	333.1457	373.396	475.549	509.0357	528.9094	581.4278	590.2876	610.815	646.3915	692.5347	708.4868	764.1549	804.2438	824.0451	965.8871	1004.3011	1042.7018	1132.2861	1146.2242	1249.0159	1298.0248	1359.1163	1407.8909	1432.3231	1522.3797	1645.2037	1697.9313	1729.3984	1829.9498	3241.909	3463.5377	3547.599	3624.5471	3644.1933	3651.518
NC1=CC(=N)NC(=O)N1	N[C]1C=C([NH])NC(=O)N1	
InChI=1S/C4H6N4O/c5-2-1-3(6)8-4(9)7-2/h1H,(H5,5,6,7,8,9)	InChI=1S/C4H6N4O/c5-2-1-3(6)8-4(9)7-2/h1H,(H5,5,6,7,8,9)
