16
gdb 72373	2.63879	1.70956	1.4127	1.5557	70.33	-0.262	-0.0078	0.2542	958.4737	0.124724	-437.890592	-437.882843	-437.881899	-437.923035	29.358	
O	 0.1369097427	 1.2903264256	-0.1713096562	-0.477291
C	 0.1000767439	-0.1050103414	-0.0467064493	 0.277459
C	 0.8259977388	-0.8330481396	-1.2016862157	-0.33693
C	-0.1338727078	-1.9207523549	-1.613889095	-0.054631
C	-1.2776698028	-1.9117001024	-0.9245206846	-0.090346
C	-1.2759567461	-0.827904742	 0.1001008676	 0.034558
O	-0.8554162467	-1.3027954128	 1.4527383938	-0.275641
C	 0.3287049497	-0.623758407	 1.3623038991	 0.359888
N	 1.2417020633	-0.4117901445	 2.1980067066	-0.556921
H	 0.5736006134	 1.6386398272	 0.614678263	 0.300048
H	 1.0046283394	-0.1128221182	-2.0089871675	 0.13117
H	 1.804386113	-1.2239316564	-0.9013262761	 0.132698
H	 0.1052008097	-2.6258053013	-2.4030339582	 0.110246
H	-2.1053437039	-2.5968437092	-1.0612841416	 0.108858
H	-2.1742142286	-0.2175380717	 0.1976744707	 0.105132
H	 1.0444496221	-0.8490388614	 3.0996684933	 0.231702
74.7584	133.8592	189.4394	249.8598	288.9619	368.41	441.4027	523.7853	608.8799	678.3554	715.0372	730.8921	790.0225	814.0184	870.3512	891.8025	924.0417	959.9956	977.8618	1004.8723	1019.0866	1041.9581	1118.1452	1139.2245	1148.3407	1214.3022	1233.7354	1282.2448	1319.7195	1352.0082	1377.8646	1389.4152	1472.4783	1671.8088	1816.1952	3039.5516	3076.247	3116.7064	3187.7757	3216.4479	3477.6899	3799.811
OC12CC=CC1OC2=N	O[C@]12CC=C[C@H]1O[C]2[NH]	
InChI=1S/C6H7NO2/c7-5-6(8)3-1-2-4(6)9-5/h1-2,4,7-8H,3H2	InChI=1S/C6H7NO2/c7-5-6(8)3-1-2-4(6)9-5/h1-2,4,7-8H,3H2/t4-,6-/m1/s1
