20
gdb 95699	3.11251	1.21245	0.93509	3.1463	76.29	-0.2371	0.0292	0.2663	1267.4847	0.172182	-440.327772	-440.318995	-440.318051	-440.361281	33.397	
C	 0.0269180112	 1.5674003023	 0.0801286558	-0.399127
C	-0.0086110476	 0.0439465354	 0.0311188045	 0.134449
C	 0.5620710509	-0.4835542363	-1.2964979523	-0.174577
N	 0.2763715378	-1.8833692683	-1.5685857836	-0.300936
C	 0.6657842901	-2.9789077019	-0.845227752	 0.370588
O	 0.4284007922	-4.1086842762	-1.2323686112	-0.366602
C	 1.389626718	-2.7032252422	 0.4677711687	-0.312402
C	 0.6415927688	-1.7860789262	 1.4478829889	-0.086022
O	 0.7403879046	-0.4071312189	 1.1490428929	-0.253424
H	 1.048630091	 1.9331726168	-0.0641834838	 0.126358
H	-0.6110144454	 1.9992633296	-0.6964244497	 0.114952
H	-0.3225438403	 1.9151934471	 1.0548170683	 0.130698
H	-1.0490931658	-0.3121642932	 0.1186939684	 0.072434
H	 0.122970929	 0.0907544043	-2.1167574477	 0.113227
H	 1.6430172581	-0.2838647575	-1.3055660455	 0.118171
H	-0.176430816	-2.1186367956	-2.4387227406	 0.246121
H	 1.549908537	-3.6804151087	 0.9285927427	 0.129112
H	 2.374179785	-2.26201364	 0.2670453023	 0.123122
H	-0.4147734634	-2.0911510631	 1.5192140468	 0.100184
H	 1.0865072247	-1.8952121673	 2.4414468669	 0.113674
62.5666	133.3059	208.6341	210.1728	270.8887	321.0568	326.4539	363.5792	457.5486	481.7756	507.4897	540.6168	631.4533	721.9587	759.118	830.2821	879.4563	912.0106	941.0001	988.8729	1062.2077	1082.9943	1125.605	1133.4325	1146.6659	1158.733	1211.0553	1278.09	1306.2432	1312.7549	1344.9672	1362.3067	1393.2096	1405.273	1411.0781	1421.0082	1456.819	1464.587	1480.9153	1492.1306	1496.9997	1502.0903	1787.3655	2963.2466	2982.3916	3008.1308	3039.0418	3044.0384	3081.0367	3092.3446	3115.3489	3116.4161	3130.5508	3621.9569
CC1CNC(=O)CCO1	C[C@H]1CNC(=O)CCO1	
InChI=1S/C6H11NO2/c1-5-4-7-6(8)2-3-9-5/h5H,2-4H2,1H3,(H,7,8)	InChI=1S/C6H11NO2/c1-5-4-7-6(8)2-3-9-5/h5H,2-4H2,1H3,(H,7,8)/t5-/m0/s1
