15
gdb 42643	2.98416	1.46468	1.21905	3.1638	78.58	-0.2439	-0.0065	0.2374	1028.3267	0.112229	-383.426828	-383.419596	-383.418652	-383.458517	28.553	
O	 0.0025951786	 0.0726763826	-0.0114459532	-0.335555
C	 0.0133891029	 1.2677559632	 0.0589596387	 0.446816
C	-1.0436219322	 2.3293008918	-0.005810245	-0.242324
C	-0.4434084224	 3.5763935437	 0.6437268726	-0.130384
C	 0.912958119	 3.1905195583	 1.241616597	-0.243408
C	 1.1225463763	 2.3344004341	-0.0376366005	-0.244859
C	 0.0025072536	 3.2235785234	-0.7504036182	 0.317965
C	-0.0872397876	 3.8357186977	-2.0146426566	 0.020929
C	-0.1416131463	 4.360274012	-3.0969833511	-0.358196
H	-2.0966470878	 2.2422525472	-0.2340551463	 0.127357
H	-1.0947325788	 4.393334389	 0.9273106408	 0.116193
H	 1.5877475783	 4.0489605668	 1.274165591	 0.119972
H	 0.9287739351	 2.6616992938	 2.2005094752	 0.11162
H	 2.1043279385	 2.0920693015	-0.4327216578	 0.107505
H	-0.1929088571	 4.8216417548	-4.0519204164	 0.186371
94.5617	159.1594	213.1346	382.4108	438.9994	479.7032	511.4837	554.5539	582.427	596.4583	662.1542	703.3605	748.9865	772.3939	831.9987	885.1606	927.5756	965.4736	979.617	990.7546	1044.3071	1074.2787	1114.2947	1125.8306	1143.986	1187.1179	1207.3358	1282.1164	1299.4317	1411.2762	1499.7841	1887.264	2234.6609	3047.8004	3113.859	3177.0456	3201.2793	3228.7029	3501.9125
O=C1C2C3CC1C23C#C	O=C1[C@H]2[C@H]3C[C@@H]1[C@@]23C#C	
InChI=1S/C8H6O/c1-2-8-4-3-5(8)7(9)6(4)8/h1,4-6H,3H2	InChI=1S/C8H6O/c1-2-8-4-3-5(8)7(9)6(4)8/h1,4-6H,3H2/t4-,5+,6-,8+/m1/s1
