13
gdb 125555	5.56418	1.38316	1.11545	1.8519	65.5	-0.2599	-0.0329	0.227	1009.2293	0.091762	-448.930161	-448.923565	-448.922621	-448.961424	24.279	
C	-0.0173218564	 1.4065066432	-0.0199514316	-0.483055
C	 0.0036825157	-0.082554097	 0.0124014721	 0.345
N	-0.0618731107	-0.8091208188	-1.1111086337	-0.306209
N	-0.0126944069	-2.0579816656	-0.5935479237	 0.090534
N	-0.0278428741	-3.3402763708	-1.0660415586	-0.21135
C	 0.0532059672	-4.0215694577	 0.0306365826	 0.076394
O	 0.1209193292	-3.2837924373	 1.1913387629	-0.203114
C	 0.075255208	-2.0090584994	 0.741998348	 0.486886
N	 0.0911159575	-0.7877961294	 1.2027729494	-0.421996
H	 0.8859153712	 1.8136671785	 0.4445321107	 0.146178
H	-0.0788613219	 1.7558302415	-1.0515209083	 0.147658
H	-0.8745600659	 1.7912810251	 0.5410489436	 0.146154
H	 0.072782967	-5.0934635524	 0.1259063968	 0.18692
104.8981	147.5649	289.738	292.8872	365.9208	546.0107	591.4158	632.8754	691.7409	749.0632	792.9422	815.0393	860.7664	949.0015	980.1929	1028.7185	1066.1916	1081.0307	1174.1765	1282.385	1335.2719	1355.6923	1404.8021	1453.4421	1474.9998	1475.839	1521.6783	1564.645	1629.6109	3049.6522	3107.2635	3150.769	3312.5549
CC1=NN2N=COC2=N1	Cc1nn2ncoc2n1	
InChI=1S/C4H4N4O/c1-3-6-4-8(7-3)5-2-9-4/h2H,1H3	InChI=1S/C4H4N4O/c1-3-6-4-8(7-3)5-2-9-4/h2H,1H3
