18
gdb 44002	3.57671	1.41683	1.32558	3.2859	75.25	-0.2319	0.0259	0.2579	1013.9599	0.149988	-401.955612	-401.948486	-401.947541	-401.986945	29.257	
O	 0.0286454855	-0.0466097624	 0.2723626117	-0.355759
C	-0.0196918795	 1.1449447139	 0.088246151	 0.377703
C	-1.3022596371	 2.0272908224	 0.0163461669	-0.431239
C	-0.7804803319	 3.4420548096	-0.0211725165	 0.25227
C	 0.0658074005	 3.974795972	 1.1075505153	-0.36097
C	 0.7466754796	 3.3606860182	-0.0897165214	 0.257045
C	 0.7717485814	 4.2961248749	-1.312588702	-0.270821
C	-0.7881640396	 4.4204915869	-1.2144055273	-0.284787
N	 1.0796451833	 1.9823858113	-0.0648083184	-0.362401
H	-1.8610016267	 1.7653855856	-0.8882236653	 0.130973
H	-1.9389399446	 1.7782497993	 0.8699098875	 0.135069
H	 0.1164424612	 5.0485300424	 1.2687264845	 0.113826
H	 0.0963202675	 3.3804813828	 2.0142663453	 0.122654
H	 1.3607172591	 5.2119302402	-1.2071582607	 0.100741
H	 1.0878150027	 3.7750357031	-2.2179459513	 0.113895
H	-1.2977586675	 4.0168584195	-2.0919430971	 0.109661
H	-1.1938346587	 5.4151209685	-1.0057919247	 0.103907
H	 1.9952384548	 1.6151883417	 0.1474847925	 0.248234
100.2968	197.4506	312.5475	353.843	417.4832	461.8976	498.4171	576.6895	598.4959	603.0689	660.0022	742.3779	764.0872	808.9457	829.5117	854.7271	924.0286	931.4073	950.8985	966.7698	1017.6629	1072.9486	1098.0265	1121.9169	1190.6827	1218.1975	1232.8555	1234.3581	1247.0318	1267.567	1289.16	1330.6702	1370.9937	1405.1063	1463.3922	1474.4258	1476.0162	1499.2404	1832.7714	3050.3341	3056.8906	3059.0104	3098.2518	3104.936	3116.1524	3126.1963	3213.1582	3616.0653
O=C1CC23CC2(CC3)N1	O=C1C[C@@]23C[C@@]2(CC3)N1	
InChI=1S/C7H9NO/c9-5-3-6-1-2-7(6,4-6)8-5/h1-4H2,(H,8,9)	InChI=1S/C7H9NO/c9-5-3-6-1-2-7(6,4-6)8-5/h1-4H2,(H,8,9)/t6-,7+/m0/s1
