15
gdb 28074	4.59867	0.86767	0.78529	4.35	69.11	-0.2131	-0.0184	0.1948	1397.5782	0.112425	-453.989705	-453.981294	-453.98035	-454.023949	30.047	
N	 0.2058927711	 1.3561337791	 0.1304707013	-0.587414
C	 0.0269049388	 0.0020596175	 0.0389366202	 0.459524
N	-1.0854657345	-0.6477177557	-0.1243728841	-0.381669
C	-0.6986731273	-1.9909149735	-0.0639079527	 0.236936
C	-1.7048558087	-3.0879260137	-0.1813416922	-0.391078
C	-2.6409148918	-3.1350968857	 1.0211113602	 0.161344
O	-2.9892503183	-4.1503053992	 1.5640691833	-0.237906
C	 0.6356446531	-2.0627094575	 0.1308859917	-0.137074
O	 1.1237144104	-0.7675712905	 0.1957165544	-0.179317
H	 1.1167671449	 1.689223873	-0.1477603096	 0.267787
H	-0.561375149	 1.8879206703	-0.2515928125	 0.273888
H	-2.334160765	-2.9029810519	-1.0638986706	 0.141151
H	-1.234900357	-4.0671594199	-0.296759483	 0.128053
H	-2.9925302178	-2.1376522132	 1.3620521461	 0.099146
H	 1.3589274812	-2.8520360692	 0.2296219776	 0.14663
44.2059	65.2268	132.6552	239.4906	285.0206	324.962	386.8441	432.4391	464.4483	570.5735	639.8972	676.0995	712.1511	752.1581	767.8986	823.1433	967.7024	998.5171	1034.4276	1052.1068	1107.9437	1137.1812	1189.2705	1236.0915	1295.5873	1315.4218	1416.7244	1445.5249	1447.3001	1603.4007	1644.1701	1686.285	1834.7883	2908.1395	3015.9635	3115.3867	3304.0297	3582.8236	3692.9424
NC1=NC(CC=O)=CO1	Nc1nc(CC=O)co1	
InChI=1S/C5H6N2O2/c6-5-7-4(1-2-8)3-9-5/h2-3H,1H2,(H2,6,7)	InChI=1S/C5H6N2O2/c6-5-7-4(1-2-8)3-9-5/h2-3H,1H2,(H2,6,7)
