17
gdb 40353	4.02566	1.33529	1.25948	2.226	71.7	-0.2399	-0.0046	0.2354	1029.3356	0.136087	-421.746996	-421.739889	-421.738945	-421.778801	28.25	
C	 0.6296307875	 1.4502522388	 0.1991451792	-0.167746
O	 1.102830669	 0.2518106192	-0.4195320203	-0.233172
C	-0.2236716138	 0.2583647395	 0.1046195959	-0.099832
C	-0.4789699663	-0.6068552664	 1.2933591812	 0.398975
C	-0.0196239481	-2.1005470659	 1.409961219	-0.256515
C	-0.1429301751	-1.6553498189	 2.8950586037	 0.00548
O	 0.3449008146	-0.3359495505	 2.4780774552	-0.315013
C	-1.6582510727	-1.3975617737	 3.0184554497	-0.08834
C	-1.8924517929	-0.6806323778	 1.9187068149	-0.127138
H	 1.0861298399	 1.6870033586	 1.1567312747	 0.139213
H	 0.4562124842	 2.2891019438	-0.4731821938	 0.114172
H	-1.0079649428	 0.2313848071	-0.6536855455	 0.095888
H	-0.6819515871	-2.8841498357	 1.0378343311	 0.098153
H	 1.0146412472	-2.2307932598	 1.0863695657	 0.124167
H	 0.411768665	-2.103888421	 3.7171751791	 0.084986
H	-2.3222775667	-1.7354684911	 3.8000888661	 0.114541
H	-2.8022145217	-0.2497804062	 1.5270705043	 0.112182
69.5836	170.4322	192.8437	369.2778	429.9643	485.9745	540.0321	616.6381	649.8217	707.11	762.4909	832.3861	860.7482	861.9874	884.8449	902.5807	905.1005	917.2882	975.5386	984.279	1032.9589	1051.0222	1079.6992	1099.5119	1123.7852	1160.9361	1168.3262	1201.6589	1234.2907	1261.5416	1278.4355	1293.5683	1316.8327	1449.1621	1486.8017	1521.3586	1616.9217	3071.9314	3092.0459	3100.0862	3142.734	3149.7077	3193.7238	3230.9815	3258.5506
C1OC1C12CC(O1)C=C2	C1O[C@H]1[C@@]12C[C@@H](O1)C=C2	
InChI=1S/C7H8O2/c1-2-7(6-4-8-6)3-5(1)9-7/h1-2,5-6H,3-4H2	InChI=1S/C7H8O2/c1-2-7(6-4-8-6)3-5(1)9-7/h1-2,5-6H,3-4H2/t5-,6+,7+/m0/s1
