18
gdb 47806	2.30649	1.7747	1.21311	2.3769	72.63	-0.2382	-0.02	0.2182	1044.5103	0.149733	-439.075649	-439.068049	-439.067105	-439.107839	29.513	
O	 0.0013289273	 0.0615397795	 0.6066294747	-0.319758
C	-0.0468087875	 1.2094135138	 0.2181438113	 0.388563
C	-1.3607555373	 1.935021141	 0.0026029975	-0.299211
C	-1.6624291965	 2.2072447399	-1.4827014729	-0.092467
O	-0.9029511783	 3.2611100687	-2.037338569	-0.222407
C	 0.4005355579	 2.9406206802	-2.4520609354	-0.101185
C	 1.4300236372	 2.7356940259	-1.349362996	-0.027574
N	 1.2390850571	 3.4102464484	-0.0774218948	-0.323067
C	 1.2293004436	 1.931144996	-0.0971744264	-0.132666
H	-2.1492539874	 1.3038102897	 0.421583589	 0.11636
H	-1.3436415254	 2.8978734703	 0.5221264096	 0.140993
H	-1.5382496193	 1.2856225098	-2.0741940439	 0.099433
H	-2.7068783249	 2.5206955037	-1.5719278322	 0.117978
H	 0.4010054903	 2.0472071503	-3.100344346	 0.096866
H	 0.7281156451	 3.7887765767	-3.0643539679	 0.117253
H	 2.4417008534	 2.6755112612	-1.7532307082	 0.097335
H	 2.1177839164	 3.7475402293	 0.3048847705	 0.24343
H	 2.1005333384	 1.3951827557	 0.2715413199	 0.100126
84.0882	166.0904	220.6843	279.2014	338.8097	386.4683	442.9506	472.8923	511.0381	649.9164	676.0214	746.3349	788.4627	858.0193	887.3449	919.5909	952.7445	976.4385	1024.432	1028.4321	1085.0168	1088.4463	1145.6813	1155.7605	1194.6432	1221.677	1238.9346	1284.9397	1295.4469	1326.261	1358.6716	1394.0556	1402.7738	1419.0075	1451.1704	1463.718	1481.3098	1498.355	1791.509	2961.3839	2978.3908	3057.7052	3058.7066	3081.9895	3098.7776	3119.6669	3145.3643	3515.8147
O=C1CCOCC2NC12	O=C1CCOC[C@H]2N[C@@H]12	
InChI=1S/C6H9NO2/c8-5-1-2-9-3-4-6(5)7-4/h4,6-7H,1-3H2	InChI=1S/C6H9NO2/c8-5-1-2-9-3-4-6(5)7-4/h4,6-7H,1-3H2/t4-,6-/m1/s1
