15
gdb 31407	3.03145	1.34899	0.94429	3.6959	69.55	-0.283	-0.0791	0.2039	1187.2373	0.112523	-454.0127	-454.004683	-454.003739	-454.04605	28.651	
C	-0.0810184015	 1.5335588336	 0.1337112376	-0.379824
C	 0.023057789	 0.0221236434	-0.0410368818	-0.265401
C	 0.7318165417	-0.4387178992	-1.2807431019	 0.365148
N	 1.2070708677	 0.4331210387	-2.1197218846	-0.351314
C	 1.8530245866	 0.0002011366	-3.2506913484	 0.458348
O	 2.3412965661	 0.6576319454	-4.1122202246	-0.313926
O	 1.948419331	-1.4341647395	-3.4096637868	-0.190598
C	 1.4195271697	-2.2103329892	-2.4775553101	 0.157676
N	 0.813094371	-1.8191417374	-1.4160036547	-0.309838
H	 0.9083558693	 1.9956113023	 0.1727682915	 0.137136
H	-0.6200170109	 1.9912147184	-0.699297569	 0.137168
H	-0.6107511989	 1.7682862011	 1.0609453503	 0.114604
H	 0.5386388626	-0.4486057947	 0.807175504	 0.140245
H	-0.9674794684	-0.4528727808	-0.0522833278	 0.140275
H	 1.548182665	-3.2684278888	-2.6971915437	 0.160304
64.9702	108.4233	154.3116	185.9062	234.0627	401.7184	410.2606	524.2124	559.6146	597.6801	622.0398	676.1695	792.2921	817.703	825.4383	941.2588	989.9705	1003.8057	1078.8856	1104.1324	1127.5191	1231.4859	1275.9354	1277.2426	1390.4739	1421.2884	1426.4625	1444.4737	1493.0194	1499.0732	1568.231	1679.0298	1907.3462	3026.5404	3048.9312	3054.6152	3126.2549	3131.6958	3169.4208
CCC1=NC(=O)OC=N1	CCc1nc(=O)ocn1	
InChI=1S/C5H6N2O2/c1-2-4-6-3-9-5(8)7-4/h3H,2H2,1H3	InChI=1S/C5H6N2O2/c1-2-4-6-3-9-5(8)7-4/h3H,2H2,1H3
