22
gdb 116803	3.30855	0.74123	0.70671	1.5252	83.12	-0.2434	0.0291	0.2724	1750.1753	0.191504	-441.481583	-441.470662	-441.469717	-441.518792	38.867	
C	 0.9291821933	 1.3515098557	-0.2587626042	-0.397553
C	-0.002051956	 0.2023477251	-0.6589799931	-0.111593
N	 0.5799632052	-1.0502089298	-1.1141145849	-0.23202
C	 1.8261044197	-1.2041665336	-1.145132235	 0.110509
O	 2.346333415	-2.4037538386	-1.5064514594	-0.213532
C	 3.7176917883	-2.4151513843	-1.89391764	-0.100252
C	 3.8468199147	-2.2421468547	-3.4129534303	 0.138863
C	 3.2248652476	-3.4013847531	-4.1900951737	-0.409733
O	 3.3018099884	-0.9877308243	-3.8048223513	-0.438143
H	 1.5741028024	 1.0814322605	 0.5843750653	 0.119139
H	 1.5691434617	 1.6666517382	-1.0898586398	 0.123973
H	 0.3317403885	 2.2160037576	 0.0460727271	 0.1154
H	-0.6600571826	-0.0408373309	 0.1861771946	 0.113535
H	-0.6770819586	 0.5463456867	-1.4540363387	 0.110741
H	 2.5867439562	-0.4596663614	-0.8814066459	 0.087531
H	 4.2636189024	-1.6112663402	-1.3836731815	 0.108378
H	 4.1286332641	-3.3774794134	-1.5726854486	 0.112408
H	 4.9176274626	-2.1771288372	-3.6446428912	 0.088465
H	 2.1710110249	-3.5210085454	-3.9178686554	 0.137428
H	 3.2933863277	-3.2123261909	-5.2644579355	 0.125582
H	 3.7367723196	-4.3438798001	-3.970230831	 0.116998
H	 2.3413990549	-1.071530566	-3.7880920875	 0.293875
33.608	57.8831	70.584	162.0537	176.1854	216.8417	247.972	276.7067	320.267	333.7504	370.4368	390.3466	426.8199	497.6358	555.7971	676.9565	781.8099	807.7732	891.1416	924.2269	965.5068	981.2308	1005.1497	1056.2619	1081.7605	1086.9609	1113.3981	1148.7994	1164.0543	1219.5805	1299.4114	1315.1805	1325.1975	1354.6378	1378.6745	1389.3095	1399.3093	1408.3108	1419.7389	1427.5264	1484.0652	1488.6736	1495.8116	1498.0839	1501.7501	1507.6271	1773.5145	3014.3561	3019.8282	3031.2206	3033.6012	3037.2686	3038.5994	3048.3236	3088.337	3100.8786	3107.4887	3109.1552	3123.703	3799.4207
CCN=COCC(C)O	CCN=COC[C@@H](C)O	
InChI=1S/C6H13NO2/c1-3-7-5-9-4-6(2)8/h5-6,8H,3-4H2,1-2H3	InChI=1S/C6H13NO2/c1-3-7-5-9-4-6(2)8/h5-6,8H,3-4H2,1-2H3/t6-/m1/s1
