14
gdb 7935	3.55949	1.93182	1.33626	2.3469	60.06	-0.2731	-0.0059	0.2672	878.0556	0.108452	-415.930104	-415.922965	-415.922021	-415.961698	26.206	
C	-0.025079903	 1.5410629399	-0.0139337569	-0.39433
C	 0.0446717405	 0.0231889171	 0.0260171151	 0.051022
O	 0.8247921746	-0.4838598402	-1.0797044113	-0.24549
C	 1.8523824536	-1.2472741431	-0.6341635966	 0.489032
O	 2.656116896	-1.792910635	-1.3301361687	-0.375549
N	 1.7899667781	-1.269953924	 0.7582074671	-0.418871
C	 0.7410202518	-0.5246301887	 1.2651682774	 0.381996
N	 0.365496607	-0.286235577	 2.4506622558	-0.536862
H	 0.9783625323	 1.9738433677	 0.0255116999	 0.132036
H	-0.5175272783	 1.875275613	-0.93013514	 0.136628
H	-0.5920972021	 1.8925238821	 0.8512585228	 0.153911
H	-0.9576690385	-0.4109819052	-0.0529725677	 0.132091
H	 2.4741189014	-1.7746277714	 1.2977336942	 0.275056
H	 0.9584272665	-0.7391923854	 3.146617979	 0.219329
92.8878	138.784	227.7739	250.0115	375.4536	412.0999	515.4299	562.0004	633.0721	655.7195	711.9872	770.5793	817.8579	863.5961	924.5899	988.7546	1067.1711	1088.1011	1123.2451	1134.7954	1197.4803	1342.983	1350.5175	1360.1953	1397.8523	1408.1451	1485.7966	1493.4544	1780.5712	1910.0662	3052.5986	3059.4292	3131.8606	3142.1729	3475.5381	3662.2526
CC1OC(=O)NC1=N	C[C@H]1OC(=O)N[C]1[NH]	
InChI=1S/C4H6N2O2/c1-2-3(5)6-4(7)8-2/h2H,1H3,(H2,5,6,7)	InChI=1S/C4H6N2O2/c1-2-3(5)6-4(7)8-2/h2H,1H3,(H2,5,6,7)/t2-/m1/s1
