25
gdb 96549	2.20868	1.39049	0.99852	1.2599	88.38	-0.2428	0.0791	0.3219	1318.3874	0.230704	-389.501069	-389.491681	-389.490737	-389.534642	37.239	
C	-0.0759122605	 1.6178048201	-0.0150046058	-0.418485
C	 0.0263480761	 0.0845422379	-0.0071702191	 0.044115
C	 0.5635786114	-0.4467704725	-1.3531869118	-0.2133
C	 0.0202735369	-1.8271308886	-1.7420946362	-0.072438
O	 0.4893123769	-2.9111219395	-0.9689364646	-0.241636
C	 0.1612889597	-2.8740691952	 0.4100447218	-0.086123
C	 1.0929124442	-1.9610188547	 1.2157600705	-0.209377
C	 0.7892422148	-0.4408245743	 1.2419692211	 0.028999
C	 2.0961269122	 0.3146067819	 1.534325143	-0.395625
H	 0.8883155992	 2.0891931107	-0.23102365	 0.118491
H	-0.7825285039	 1.9502701533	-0.7825564584	 0.107826
H	-0.4264910118	 2.0022328599	 0.9492332392	 0.10885
H	-1.0033433163	-0.2893264314	 0.0834602498	 0.067388
H	 0.2635332793	 0.2439751754	-2.1521354496	 0.090819
H	 1.6603404804	-0.4678652878	-1.3628757948	 0.101406
H	-1.0839626272	-1.7933315159	-1.7148089029	 0.079712
H	 0.3146606092	-2.06373127	-2.7701290186	 0.101264
H	-0.8989921459	-2.6083467671	 0.5522092458	 0.084323
H	 0.2856924417	-3.9046769192	 0.7593124643	 0.101442
H	 1.1251756642	-2.3198797792	 2.2522125255	 0.09215
H	 2.098284278	-2.1282896572	 0.8094806309	 0.104713
H	 0.1168990491	-0.2550243616	 2.0913192997	 0.066988
H	 2.7889986497	 0.2565786527	 0.6866535283	 0.11571
H	 1.9265780996	 1.3708211175	 1.7589627509	 0.112555
H	 2.6038967929	-0.1283999653	 2.3977702107	 0.110233
83.8265	140.2625	234.8481	246.7369	269.3151	293.0165	306.053	329.2704	357.3835	384.8029	414.925	511.6172	540.9979	569.5913	709.3746	822.0087	827.6869	879.8745	909.3941	966.292	973.8432	999.761	1011.867	1023.2294	1045.2806	1077.8883	1085.7808	1140.21	1156.0568	1169.4591	1201.4798	1230.7197	1252.4397	1300.0151	1324.9439	1335.0524	1350.8079	1360.4805	1367.4982	1390.8328	1393.6797	1404.0095	1412.1931	1417.3837	1427.9822	1471.3521	1480.5391	1489.9285	1496.9998	1497.2371	1500.2658	1505.0707	1515.1069	2942.7264	2971.5243	2988.2304	3002.926	3018.5908	3020.879	3028.2943	3031.9253	3059.3769	3062.7978	3065.4168	3069.3835	3091.0751	3094.1793	3100.6643	3112.7127
CC1CCOCCC1C	C[C@H]1CCOCC[C@H]1C	
InChI=1S/C8H16O/c1-7-3-5-9-6-4-8(7)2/h7-8H,3-6H2,1-2H3	InChI=1S/C8H16O/c1-7-3-5-9-6-4-8(7)2/h7-8H,3-6H2,1-2H3/t7-,8+
