20
gdb 111131	3.40248	1.27311	1.1657	2.5908	78.37	-0.2238	0.0727	0.2965	1128.561	0.173325	-403.074582	-403.067006	-403.066062	-403.106734	30.641	
O	 0.1811764054	 1.12774863	-0.3800018683	-0.42234
C	 0.1816242262	-0.295651474	-0.3590896091	-0.141653
C	-1.2679717488	-0.7289456737	-0.2155121167	 0.054242
C	-1.5489688429	-2.2238534978	 0.1133580835	-0.084604
C	-1.2231724612	-1.8545836154	 1.6083275674	-0.222211
C	-1.9379212763	-0.5378718249	 1.1786573644	 0.005814
N	-3.3455607052	-1.0615507311	 1.0849818593	-0.113751
C	-3.9304073056	-1.1573675874	-0.2645070967	-0.257306
C	-3.0806622327	-2.2666529809	 0.2399316437	-0.025364
H	 1.0862660096	 1.4266714037	-0.5074842305	 0.287174
H	 0.580596184	-0.7036205032	-1.3026867963	 0.085368
H	 0.8196873537	-0.6734877906	 0.4506263083	 0.088567
H	-1.7867338107	-0.3021182122	-1.0745719686	 0.072174
H	-1.060239702	-3.0433069082	-0.414958867	 0.061931
H	-1.7248634866	-2.4350760146	 2.3855438476	 0.1035
H	-0.1622408479	-1.7546285656	 1.8334462197	 0.097921
H	-1.8720675955	 0.3946381265	 1.7360309488	 0.080909
H	-5.0072822821	-1.303426861	-0.2363437674	 0.114
H	-3.6063850974	-0.5059433557	-1.0669489841	 0.122444
H	-3.5371563242	-3.2022925942	 0.5540781019	 0.093186
73.3478	156.5422	246.2399	299.2542	349.9709	396.515	467.4213	530.8546	577.8144	643.1754	739.4755	780.8309	829.6708	844.9986	855.1616	887.7589	922.0037	986.7202	999.4188	1024.5939	1037.5853	1060.0803	1067.4419	1083.909	1102.8215	1108.8805	1114.5876	1121.5782	1165.6871	1198.1889	1225.1259	1229.0375	1244.722	1254.4249	1265.2744	1275.4896	1287.7364	1362.437	1403.0447	1459.9754	1499.9152	1517.147	1532.537	2963.4227	3020.2206	3080.6045	3096.6864	3108.4229	3123.5013	3134.0523	3139.0979	3149.0524	3206.9752	3829.6532
OCC1C2CC1N1CC21	OC[C@H]1[C@H]2C[C@@H]1N1C[C@@H]21	
InChI=1S/C7H11NO/c9-3-5-4-1-6(5)8-2-7(4)8/h4-7,9H,1-3H2	InChI=1S/C7H11NO/c9-3-5-4-1-6(5)8-2-7(4)8/h4-7,9H,1-3H2/t4-,5+,6+,7+,8?/m1/s1
