15
gdb 49468	3.72269	1.15026	1.05225	3.8867	71.34	-0.2692	-0.0612	0.2079	1126.5678	0.11248	-416.771747	-416.76392	-416.762976	-416.804525	28.406	
O	-0.4925583062	 0.51719917	 0.7521932362	-0.266224
C	 0.0410779866	 1.1520497218	-0.1284998946	 0.142101
C	 1.2758673199	 1.9762827589	 0.0010336565	-0.0994
C	 1.5950318318	 2.8504121505	 1.1701700222	-0.049707
C	 1.1023470136	 2.2602935447	 2.5041789301	-0.180472
C	 2.0001806332	 1.0333192122	 2.1441822247	-0.173814
N	 2.4612989885	 1.6754369829	 0.8600485991	-0.136991
C	 1.5158629624	 3.0093021579	 3.6778756438	 0.273035
N	 1.8486235298	 3.6072814915	 4.6095147785	-0.315312
H	-0.3879136098	 1.1677663801	-1.1537290818	 0.101465
H	 1.6137936027	 2.3797597573	-0.9500724536	 0.121145
H	 1.9206113456	 3.8757135649	 1.0278954714	 0.13056
H	 0.0318534267	 2.0529623216	 2.5524743484	 0.154892
H	 2.863804656	 0.9300444868	 2.8009054328	 0.14683
H	 1.4837662393	 0.082580519	 2.0299314563	 0.151892
99.3687	106.2307	156.321	221.5084	251.8142	371.9583	381.1406	505.2007	551.7654	693.6242	731.1677	765.3763	834.5318	862.9085	901.021	920.5672	1005.5113	1041.3519	1050.4743	1071.435	1080.4612	1105.5932	1183.7999	1222.5138	1234.3754	1277.2921	1300.4642	1360.3524	1407.5385	1435.2002	1483.5644	1799.2416	2359.3146	2900.5315	3100.1721	3103.034	3150.4537	3172.4026	3173.6396
O=CC1C2C(CN12)C#N	O=C[C@H]1[C@H]2[C@@H](CN12)C#N	
InChI=1S/C6H6N2O/c7-1-4-2-8-5(3-9)6(4)8/h3-6H,2H2	InChI=1S/C6H6N2O/c7-1-4-2-8-5(3-9)6(4)8/h3-6H,2H2/t4-,5+,6-,8?/m1/s1
