23
gdb 65650	3.62812	0.96991	0.85727	0.9686	86.72	-0.2408	0.085	0.3258	1458.2019	0.204582	-388.263919	-388.254438	-388.253494	-388.298764	36.289	
C	 1.2420312559	-0.5338812974	-1.0987678698	-0.4496
C	 0.1777205477	-0.0872171254	-0.1194845537	 0.438042
C	 0.4982635161	 0.003781173	 1.3410354636	-0.314086
C	 0.2742374629	 1.2708201931	 0.5358076162	-0.315287
O	-1.1155214909	-0.5709082166	-0.3764207738	-0.29558
C	-1.7744748335	-0.0154164589	-1.4912294314	 0.160262
C	-1.6922076528	-0.7345518252	-2.8690822511	-0.241135
C	-3.212393794	-0.4635292354	-3.0369693936	-0.221398
C	-3.2998594916	-0.2447138897	-1.5012387782	-0.248458
H	 2.230353897	-0.1933546095	-0.7765388186	 0.113302
H	 1.2611105997	-1.6265187357	-1.1684823888	 0.122555
H	 1.0613826396	-0.1317865752	-2.101125851	 0.119221
H	-0.2868912394	-0.2914481076	 2.02711316	 0.121806
H	 1.5048580453	-0.2360322528	 1.6659693146	 0.107876
H	 1.1276030859	 1.901204671	 0.3091520514	 0.108956
H	-0.6525012444	 1.8063932747	 0.7081992387	 0.115697
H	-1.5255606282	 1.0502812027	-1.5859467235	 0.068546
H	-1.0077428676	-0.3396324428	-3.6240524181	 0.09178
H	-1.487560956	-1.7984938611	-2.7195639805	 0.107903
H	-3.4045738221	 0.4579659893	-3.5934227012	 0.102275
H	-3.8219276012	-1.2604922875	-3.4667454221	 0.100607
H	-3.5312345491	-1.1761662193	-0.9766890499	 0.112537
H	-3.9423810992	 0.5507225663	-1.116677689	 0.094179
45.041	74.9031	124.3037	199.0708	220.1986	298.1046	307.6149	326.1397	416.9825	473.6491	481.1766	642.6878	718.5354	772.1763	779.0319	785.3198	856.3553	902.7185	924.8331	926.0147	938.2486	940.4956	960.3674	998.7982	1032.967	1051.9832	1058.7097	1076.1981	1123.3203	1133.8008	1170.8319	1188.535	1192.3536	1244.6604	1247.1431	1258.1404	1273.7754	1287.4188	1301.2121	1336.3777	1395.6492	1413.6652	1454.5771	1471.5617	1481.3093	1486.9116	1491.5397	1505.0343	1511.2871	3009.7972	3033.1229	3055.581	3060.7146	3065.9708	3098.863	3105.8447	3110.5262	3113.5677	3126.6415	3131.8834	3138.3631	3216.6051	3232.0398
CC1(CC1)OC1CCC1	CC1(CC1)OC1CCC1	
InChI=1S/C8H14O/c1-8(5-6-8)9-7-3-2-4-7/h7H,2-6H2,1H3	InChI=1S/C8H14O/c1-8(5-6-8)9-7-3-2-4-7/h7H,2-6H2,1H3
