20
gdb 64102	3.2458	1.2007	1.07583	4.8119	75.38	-0.2324	0.0367	0.2691	1192.6664	0.171488	-440.339441	-440.330414	-440.32947	-440.372835	34.814	
C	 0.0124151983	 1.5693587178	 0.0425330745	-0.43452
C	-0.0198229957	 0.0390430147	 0.000733845	 0.337879
O	-1.3698140937	-0.4235281494	-0.0675715446	-0.45848
C	 0.6646742332	-0.5142236865	-1.2546376753	-0.223471
C	 0.5688811576	-2.0421496228	-1.2950515243	-0.315668
C	 0.967591081	-2.7337374996	 0.0010004253	 0.39992
O	 1.2861490417	-3.9078837796	 0.0441522543	-0.383199
N	 0.9009934766	-1.9717005424	 1.137734225	-0.310996
C	 0.6883895574	-0.5390374511	 1.2390991801	-0.168177
H	 1.0352164312	 1.9552792096	-0.0068350047	 0.119921
H	-0.5530251818	 1.9712820986	-0.8022352687	 0.13028
H	-0.4430768658	 1.9460225371	 0.9666018808	 0.106161
H	-1.8357667365	-0.1139765239	 0.7162971771	 0.278841
H	 0.1972629196	-0.0807717577	-2.1445473503	 0.106786
H	 1.7129823479	-0.1934330341	-1.2502851227	 0.101861
H	-0.4659428621	-2.3376446351	-1.4960801582	 0.148553
H	 1.1841360258	-2.4681444018	-2.0907785642	 0.122607
H	 1.1824173645	-2.4691312031	 1.9703463794	 0.24237
H	 1.6427632676	-0.0092884012	 1.3809170242	 0.104104
H	 0.0782609831	-0.3293042194	 2.1285022972	 0.095228
71.1591	143.2471	210.8287	234.8812	261.4964	276.8164	329.7558	390.1735	405.1868	474.2239	483.9787	516.7617	559.6876	647.8061	699.1053	761.1401	783.3526	883.1835	924.9327	930.2301	987.9744	1014.6328	1038.7245	1104.5916	1123.1133	1138.0504	1172.4214	1229.0663	1247.0383	1292.3096	1321.0027	1349.6693	1366.8999	1391.1809	1405.767	1409.7707	1458.1766	1479.6596	1489.1178	1494.6719	1496.3876	1522.6613	1789.5526	2982.0778	3019.9469	3027.6998	3038.9909	3064.0955	3084.0723	3095.3765	3115.0237	3122.8114	3605.437	3808.4186
CC1(O)CCC(=O)NC1	C[C@@]1(O)CCC(=O)NC1	
InChI=1S/C6H11NO2/c1-6(9)3-2-5(8)7-4-6/h9H,2-4H2,1H3,(H,7,8)	InChI=1S/C6H11NO2/c1-6(9)3-2-5(8)7-4-6/h9H,2-4H2,1H3,(H,7,8)/t6-/m1/s1
