16
gdb 23554	1.98748	1.64195	0.9985	2.2252	68.63	-0.2561	-0.0172	0.2389	1156.1173	0.122736	-474.919857	-474.911403	-474.910458	-474.953199	31.287	
O	 0.0810283927	 1.3666204548	 0.239858529	-0.422724
C	 0.0481412396	-0.0019287994	-0.1200950965	-0.077047
C	-1.3720296365	-0.5533679212	-0.0237521888	-0.140735
C	-1.608632313	-2.0846985354	-0.0796594779	 0.006326
O	-0.9110786895	-2.6694498669	 1.0171994701	-0.231602
C	-2.2159088005	-2.102910255	 1.2724672772	-0.085808
C	-1.9864870934	-0.6192894248	 1.3790456355	 0.427318
N	-2.1903740268	 0.3158050837	 2.2072628783	-0.263477
O	-2.828054544	-0.142536214	 3.3691761283	-0.388123
H	-0.3218540068	 1.4429616628	 1.1142895747	 0.293164
H	 0.4114589353	-0.0612885078	-1.1518735407	 0.107995
H	 0.7136554649	-0.6099995183	 0.5085338993	 0.10578
H	-2.0387391661	-0.0135014581	-0.7054246911	 0.109096
H	-1.8183446732	-2.7102652067	-0.9383356659	 0.119168
H	-2.9636468933	-2.7404084062	 1.7231597038	 0.129128
H	-2.9398890793	 0.6680807925	 3.8780986747	 0.311541
98.1144	110.6477	165.0154	193.1054	249.2744	307.2712	387.854	419.6934	435.8527	537.3701	555.8255	670.3501	739.9541	801.5498	845.6583	853.5091	908.0177	969.8509	989.7128	1018.1955	1047.1288	1076.2865	1101.6142	1149.0213	1180.2813	1217.3072	1231.8241	1258.9177	1317.9771	1349.2766	1389.1646	1410.6312	1436.3345	1512.7208	1788.7086	3008.442	3056.9964	3073.9465	3200.9563	3226.5439	3770.036	3813.9146
OCC1C2OC2C1=NO	OC[C@H]1[C@H]2O[C@H]2C1=NO	
InChI=1S/C5H7NO3/c7-1-2-3(6-8)5-4(2)9-5/h2,4-5,7-8H,1H2	InChI=1S/C5H7NO3/c7-1-2-3(6-8)5-4(2)9-5/h2,4-5,7-8H,1H2/t2-,4-,5+/m1/s1
