25
gdb 60408	4.03958	0.6639	0.60104	1.5637	90.14	-0.2406	0.0848	0.3254	1960.6258	0.227838	-389.485585	-389.474931	-389.473987	-389.52242	38.649	
C	 0.1981574169	 1.5169308477	 0.0280253609	-0.380438
C	-0.0096174599	-0.0037485967	-0.013328128	 0.039828
C	 0.7271613234	-0.6804838276	 1.1505116295	-0.388099
C	-1.4975464935	-0.396984607	-0.0079580355	-0.165995
C	-2.3000003655	 0.0771682534	-1.2260244247	-0.214944
C	-3.7096124056	-0.4875301222	-1.2426510515	 0.165578
C	-4.5458242337	-0.3355336581	-2.5337147548	-0.301168
C	-4.6030773108	-1.8753574943	-2.5078820757	-0.056705
O	-3.7283631944	-1.9348098268	-1.3633010058	-0.293206
H	 1.2643458888	 1.7671882834	 0.0309639415	 0.108507
H	-0.254529088	 2.0182711803	-0.8325886464	 0.111035
H	-0.2444132532	 1.946309545	 0.9354819805	 0.108723
H	 0.4283166551	-0.3783701474	-0.9504031167	 0.069691
H	 0.3297503438	-0.3416552357	 2.1150150899	 0.109755
H	 0.6188484588	-1.7694091187	 1.1114519285	 0.111262
H	 1.7970306005	-0.4470043147	 1.133757265	 0.106339
H	-1.5756958302	-1.4895237572	 0.0408410156	 0.114249
H	-1.9671174491	-0.0128757473	 0.9095990735	 0.085035
H	-2.3723158628	 1.1725017461	-1.2488458453	 0.094772
H	-1.7907143013	-0.2298328084	-2.1495217352	 0.091885
H	-4.2485635366	-0.1781376308	-0.3343146461	 0.06821
H	-5.499024059	 0.1856138314	-2.4343457581	 0.107665
H	-3.9903797899	 0.0868163029	-3.3741528907	 0.107335
H	-5.5916270746	-2.2993625764	-2.2881191595	 0.098535
H	-4.1817479093	-2.3977608509	-3.3749422707	 0.102153
45.7646	61.2432	90.7883	120.2237	139.8612	226.6722	244.9122	249.1631	297.1812	395.2635	410.8479	457.4945	477.5381	732.664	769.9088	816.1224	828.6256	882.1164	914.4282	926.8411	942.5743	963.8199	972.9766	1006.8323	1024.0971	1040.8145	1076.2465	1111.4521	1139.6694	1163.1996	1189.5719	1194.3013	1217.3093	1235.7503	1254.7177	1272.0157	1299.2076	1323.7483	1343.5423	1364.7436	1372.7018	1391.6873	1399.6457	1407.3751	1421.6932	1470.3541	1486.3892	1490.1602	1490.602	1498.9046	1505.4971	1510.0587	1533.6295	2983.9392	2991.5069	3004.6505	3011.2644	3014.4279	3021.5639	3026.7148	3048.5815	3051.481	3069.6771	3073.9626	3085.1746	3091.9056	3098.2666	3102.7782	3130.2743
CC(C)CCC1CCO1	CC(C)CC[C@H]1CCO1	
InChI=1S/C8H16O/c1-7(2)3-4-8-5-6-9-8/h7-8H,3-6H2,1-2H3	InChI=1S/C8H16O/c1-7(2)3-4-8-5-6-9-8/h7-8H,3-6H2,1-2H3/t8-/m0/s1
