17
gdb 32200	2.75361	1.48604	1.03601	0.7941	77.98	-0.2432	-0.045	0.1982	1137.0649	0.137203	-418.056659	-418.04837	-418.047426	-418.089777	30.584	
C	 0.0330717655	 1.514243031	 0.0141954579	-0.497128
C	 0.0242906332	 0.0097836181	 0.0332323182	 0.288166
N	 0.031840691	-0.622367822	-1.1433789823	-0.2897
C	 0.0226755349	-1.9578442797	-1.1224253777	-0.020808
C	 0.0107858956	-2.6730787689	 0.0665240612	-0.030726
N	 0.0039057679	-2.0552460458	 1.2508391033	-0.293228
C	 0.0058878458	-0.7209979658	 1.2423486673	 0.234024
C	 0.0250940456	-0.0362886443	 2.5921562001	-0.160832
O	 1.2487133521	 0.6531791992	 2.8378244969	-0.410064
H	 0.7884202532	 1.9062099841	 0.6993985303	 0.157522
H	 0.2255272223	 1.8640778835	-1.0007980898	 0.138386
H	-0.936087378	 1.9148597312	 0.33744615	 0.133843
H	 0.0267631765	-2.465758228	-2.0835876203	 0.115195
H	 0.0083201554	-3.7597618331	 0.0729778357	 0.114387
H	-0.7549404223	 0.7297160364	 2.6511010748	 0.118145
H	-0.1766373804	-0.7940849813	 3.3589884616	 0.113927
H	 1.953552112	-0.0033314247	 2.831659263	 0.288889
85.6296	117.659	144.0705	210.7424	281.8229	350.1128	374.0089	426.264	477.9008	525.3052	586.7503	638.4102	735.8955	815.498	879.4777	902.6867	961.7008	987.7069	1000.5894	1048.2751	1065.9678	1101.9572	1162.568	1205.0487	1248.7242	1279.7685	1291.529	1373.0804	1404.0555	1416.3566	1432.3684	1473.4551	1484.5439	1497.3618	1501.8616	1587.4741	1603.7182	3030.0525	3033.367	3084.8032	3105.1533	3153.3718	3154.2709	3173.9951	3809.8694
CC1=NC=CN=C1CO	Cc1nccnc1CO	
InChI=1S/C6H8N2O/c1-5-6(4-9)8-3-2-7-5/h2-3,9H,4H2,1H3	InChI=1S/C6H8N2O/c1-5-6(4-9)8-3-2-7-5/h2-3,9H,4H2,1H3
