14
gdb 25661	6.13017	0.77214	0.68872	0.9467	80.76	-0.2089	-0.0132	0.1958	1566.8822	0.100685	-436.704855	-436.696421	-436.695476	-436.740009	29.42	
C	-0.1170124509	 1.4323932761	-0.0651031556	-0.511897
C	-0.0253765669	-0.016993401	-0.0231351449	 0.253142
C	 0.0478880402	-1.2218153564	 0.0111665941	-0.113864
C	 0.1485502949	-2.6161280036	 0.0540810713	 0.176463
C	 1.1579609738	-3.502342562	 0.2729388153	-0.220728
N	 0.6829346841	-4.8042241671	 0.1977031262	-0.368121
C	-0.5771666141	-4.6404731152	-0.0602876294	 0.459915
O	-1.5083856685	-5.5716089262	-0.2339530376	-0.398601
O	-1.0047488155	-3.3812557014	-0.1672671933	-0.198544
H	 0.5284440443	 1.8526385219	-0.8446657841	 0.154278
H	-1.1440359445	 1.7479474356	-0.2786574784	 0.158851
H	 0.1761495266	 1.8806344434	 0.8909694462	 0.154276
H	 2.1933148631	-3.2845352208	 0.4792253938	 0.130972
H	-1.0689363965	-6.4258457233	-0.1311092536	 0.323859
14.489	85.9431	97.8147	237.1619	299.0691	326.888	422.6587	444.9384	470.3258	473.995	562.0194	662.9654	741.8066	752.72	860.6887	939.703	1008.199	1023.2371	1050.3697	1050.6248	1149.3163	1229.0812	1241.2898	1307.729	1411.4339	1470.953	1476.3706	1488.245	1626.1268	1641.9458	2352.1255	3025.1036	3083.9173	3092.018	3271.7567	3802.7712
CC#CC1=CN=C(O)O1	CC#Cc1cnc(O)o1	
InChI=1S/C6H5NO2/c1-2-3-5-4-7-6(8)9-5/h4H,1H3,(H,7,8)	InChI=1S/C6H5NO2/c1-2-3-5-4-7-6(8)9-5/h4H,1H3,(H,7,8)
