16
gdb 35826	2.53829	1.75166	1.30818	4.9857	67.14	-0.2734	0.0112	0.2847	977.6124	0.126066	-437.869466	-437.862046	-437.861101	-437.902291	27.299	
N	 0.0512337693	-0.9268969474	 0.7693125563	-0.325499
C	 0.052082154	 0.1561546941	 0.3682620675	 0.308936
C	-0.0071542539	 1.5415861801	-0.1409665882	-0.098834
O	-0.8395839595	 2.3565801504	 0.6668847389	-0.238719
C	-0.0336830196	 2.9039464855	 1.7154450755	-0.111402
C	 1.3264628221	 3.2097786154	 1.0693958727	-0.091617
C	 2.5568138137	 2.4231779675	 1.5698206589	-0.090391
O	 2.458123176	 1.4882232963	 0.46852917	-0.273768
C	 1.3886120247	 2.2354036629	-0.1269465753	 0.113777
H	-0.4498398343	 1.5219636222	-1.1409803429	 0.133145
H	-0.5574977846	 3.7853036487	 2.0897203676	 0.125488
H	 0.0691474811	 2.179146495	 2.5357248047	 0.117601
H	 1.4749369748	 4.2686368109	 0.8621459405	 0.097595
H	 3.501274684	 2.9767740268	 1.535251911	 0.114847
H	 2.4588192681	 1.9266523952	 2.5416661779	 0.120633
H	 1.6566435142	 2.6217103265	-1.114593515	 0.098205
42.3819	126.6729	164.2057	265.0855	357.3558	372.3353	498.168	589.4812	653.1224	739.0418	769.5578	863.9293	884.3153	893.4817	942.22	960.5565	1000.9352	1021.5377	1047.9712	1082.9275	1100.1174	1132.4476	1171.3103	1205.2562	1246.5564	1257.9913	1287.6947	1322.3824	1336.8824	1347.8465	1367.4711	1388.4188	1511.1315	1523.318	2360.6416	3008.2214	3031.1342	3063.4688	3080.0261	3081.5418	3109.7023	3127.5451
N#CC1OCC2COC12	N#C[C@H]1OC[C@H]2CO[C@@H]12	
InChI=1S/C6H7NO2/c7-1-5-6-4(2-8-5)3-9-6/h4-6H,2-3H2	InChI=1S/C6H7NO2/c7-1-5-6-4(2-8-5)3-9-6/h4-6H,2-3H2/t4-,5+,6+/m0/s1
