16
gdb 85097	2.02262	1.61014	1.26722	5.6342	71.74	-0.258	-0.0067	0.2513	1071.2634	0.123047	-434.066644	-434.057465	-434.056521	-434.100459	33.368	
C	-0.3154240595	 1.4224361541	 0.0431002887	-0.397696
C	 0.0135623978	-0.057388397	-0.0339563694	 0.00671
N	 1.2205741416	-0.4169839413	-0.81190921	-0.338529
C	 1.9809861314	-0.774510956	 0.2788415724	 0.337066
N	 3.179443318	-1.0220161193	 0.5853154537	-0.549646
C	 0.7651702217	-0.658460626	 1.2206884945	 0.169838
O	 0.9571161388	 0.2334738043	 2.2812997472	-0.446543
C	 0.2121132966	-1.9411444879	 1.6763109132	 0.259607
N	-0.2351672313	-2.9459402217	 2.0305652668	-0.334288
H	 0.5386973337	 1.9993291279	 0.4034150798	 0.135684
H	-0.6067831437	 1.7931627087	-0.9452550498	 0.120855
H	-1.1534013134	 1.5885807002	 0.7259487267	 0.144456
H	-0.8599790105	-0.6427357014	-0.3344711459	 0.110575
H	 1.5338890259	-0.0198377011	-1.6861210943	 0.248939
H	 3.8230545877	-0.9357369856	-0.2014835401	 0.223496
H	 1.8643555453	 0.102120462	 2.5895053966	 0.309478
81.2169	118.7452	154.9617	191.7799	218.9829	259.8424	316.3418	341.5093	414.0779	419.9595	492.492	551.7198	605.1773	647.9539	697.6637	773.1896	828.7996	894.7819	913.6935	1023.5888	1050.0657	1079.9482	1117.9111	1161.17	1199.2239	1249.1716	1317.5098	1362.6904	1368.7058	1394.0483	1411.0274	1485.5602	1489.2251	1809.0871	2355.5901	3044.42	3069.1986	3113.7473	3139.1032	3482.0737	3601.8017	3763.8135
CC1NC(=N)C1(O)C#N	C[C@H]1N[C]([NH])[C@]1(O)C#N	
InChI=1S/C5H7N3O/c1-3-5(9,2-6)4(7)8-3/h3,9H,1H3,(H2,7,8)	InChI=1S/C5H7N3O/c1-3-5(9,2-6)4(7)8-3/h3,9H,1H3,(H2,7,8)/t3-,5+/m1/s1
