21
gdb 103408	2.40953	1.36902	1.22552	2.6102	77.37	-0.2487	0.0625	0.3112	1148.0708	0.181276	-424.189075	-424.179542	-424.178598	-424.222829	36.531	
C	-0.0715026218	 1.5937461434	-0.0257885569	-0.465469
C	 0.0088601187	 0.0703630521	-0.0287106887	 0.249543
C	-1.3683247227	-0.560733883	 0.2093194053	-0.115608
O	-1.9013443295	-0.303194395	 1.4975487316	-0.421419
C	 0.7045327891	-0.6198316648	-1.2181690594	-0.074728
C	 2.1523798757	-0.247159292	-1.3112047955	-0.324167
C	 1.7332803753	-1.2679868963	-0.2831726243	-0.081192
C	 1.0898230493	-0.5907052543	 0.9249697054	 0.086798
O	 1.8877527829	 0.2326760149	 1.7443075447	-0.433143
H	 0.895869765	 2.0625280699	-0.2228495763	 0.110211
H	-0.77324196	 1.9511187621	-0.7887445728	 0.111355
H	-0.3993588973	 1.9662425349	 0.95102127	 0.118135
H	-2.0628450338	-0.2367064888	-0.584004183	 0.082265
H	-1.2853589527	-1.6511930352	 0.1393357142	 0.10594
H	-2.0655095161	 0.641630724	 1.5713593588	 0.285521
H	 0.182731655	-1.0795811269	-2.0501324775	 0.083902
H	 2.6866337481	-0.6556584303	-2.1629709224	 0.11816
H	 2.4975808683	 0.7455922156	-1.0302061065	 0.097245
H	 2.1320173884	-2.2752768084	-0.3011729109	 0.087473
H	 0.6050274217	-1.2975162924	 1.60156503	 0.099628
H	 2.5622219765	 0.6410195304	 1.1921418842	 0.279551
100.9806	130.5604	172.0232	200.9605	236.7749	250.7855	283.9098	317.2043	339.6807	384.9367	459.0495	527.5574	575.1774	655.9754	746.0547	801.9385	817.573	893.4643	934.0286	949.8474	955.354	995.3065	1013.1854	1022.4713	1068.9717	1075.1818	1087.9018	1117.2966	1140.5208	1158.0923	1188.5139	1212.2886	1236.6549	1267.1697	1300.2056	1320.3394	1358.8241	1375.8565	1409.8783	1421.3907	1436.8842	1486.0632	1493.1861	1504.3895	1507.7416	2962.1586	3027.7266	3061.7291	3090.0658	3091.3911	3104.3948	3110.7746	3169.0452	3179.4765	3196.7649	3816.3609	3829.0626
CC1(CO)C2CC2C1O	C[C@@]1(CO)[C@H]2C[C@H]2[C@H]1O	
InChI=1S/C7H12O2/c1-7(3-8)5-2-4(5)6(7)9/h4-6,8-9H,2-3H2,1H3	InChI=1S/C7H12O2/c1-7(3-8)5-2-4(5)6(7)9/h4-6,8-9H,2-3H2,1H3/t4-,5+,6-,7-/m1/s1
