15
gdb 47477	2.8936	1.27683	1.02126	4.8361	65.53	-0.2753	0.0066	0.2818	1140.7692	0.114335	-454.001399	-453.993337	-453.992393	-454.035108	28.088	
O	-0.0692736525	-0.0580610295	-0.1414550884	-0.393293
C	-0.0291401864	 1.1374689076	-0.0506432667	 0.507361
O	-1.1134820562	 1.9282422849	 0.1598054156	-0.238686
C	-0.7275852791	 3.310395006	 0.1188503159	-0.09174
C	 0.8056275466	 3.3044638194	 0.2646468806	-0.203418
N	 1.0942125108	 1.9443190644	-0.1534089767	-0.14004
C	 2.4065014161	 1.3472154548	-0.0912832776	-0.296455
C	 3.0334784459	 1.4745052739	 1.237247845	 0.260773
N	 3.5108381436	 1.6142932483	 2.2798431644	-0.300823
H	-1.0422871737	 3.7323614588	-0.8410275078	 0.130996
H	-1.2361698672	 3.835940722	 0.9280222637	 0.14061
H	 1.2859955756	 4.043366038	-0.3837574779	 0.128732
H	 1.1299620826	 3.4856647765	 1.2983180962	 0.139679
H	 2.2838364131	 0.2876806456	-0.3362276416	 0.197285
H	 3.0757457707	 1.7970017592	-0.8337961448	 0.159017
55.354	87.6638	149.7952	194.0836	252.8871	290.3157	374.9812	461.0298	579.6586	690.4897	708.4198	768.469	805.3892	887.1289	910.3974	955.7564	986.632	1071.342	1110.6044	1145.2422	1209.0358	1226.6797	1247.4765	1288.7218	1331.3176	1375.2527	1404.7496	1439.9988	1457.5928	1522.9561	1536.1686	1876.6381	2360.4622	3016.021	3043.537	3054.6088	3079.1909	3102.8864	3128.1887
O=C1OCCN1CC#N	O=C1OCCN1CC#N	
InChI=1S/C5H6N2O2/c6-1-2-7-3-4-9-5(7)8/h2-4H2	InChI=1S/C5H6N2O2/c6-1-2-7-3-4-9-5(7)8/h2-4H2
