16
gdb 98394	2.39023	1.24878	0.82447	2.5153	70.46	-0.2686	-0.0498	0.2188	1307.5537	0.12406	-471.221511	-471.212582	-471.211637	-471.255755	31.88	
O	-0.0654206984	 1.3846569939	 0.2328326503	-0.423566
C	 0.0081664292	 0.0046893362	 0.0728018218	-0.118433
C	-1.3965021914	-0.6070316103	 0.0968220516	 0.382861
N	-2.3588683211	 0.197419174	 0.2507470945	-0.523469
N	-1.5135205531	-2.0241496189	-0.0546355878	-0.183839
C	-2.7445339816	-2.7066853469	-0.0498656153	 0.121387
N	-3.864508298	-2.126892392	 0.0891872643	-0.467132
C	-0.3732184363	-2.8327125764	-0.2206024087	 0.171483
O	-0.4077012504	-4.0293342014	-0.3520909045	-0.300086
H	-1.0186465685	 1.5742217206	 0.3170699073	 0.300032
H	 0.5002328117	-0.2486937423	-0.8809945586	 0.113134
H	 0.6161755488	-0.4460751388	 0.8748123062	 0.113129
H	-3.2692460381	-0.264078565	 0.2589706842	 0.270806
H	-2.5854497286	-3.7765021197	-0.1804189716	 0.161161
H	-4.6202331685	-2.8086178091	 0.0625824614	 0.247277
H	 0.5635525542	-2.2640278639	-0.2191049751	 0.135257
52.8621	120.8191	165.5961	197.4117	218.2135	286.9021	297.8625	368.6851	409.9321	465.1134	492.5853	553.3438	589.7193	760.9118	837.2142	843.7965	963.5995	970.0079	1015.3707	1060.2368	1093.0556	1140.4558	1161.2761	1225.2326	1283.7288	1285.7806	1324.7358	1400.2561	1422.5895	1459.4733	1485.4294	1521.3784	1698.9435	1747.5265	1820.1676	2960.8752	2978.7613	3081.9864	3145.7662	3449.7197	3507.376	3591.487
OCC(=N)N(C=N)C=O	OCC(=N)N(C=N)C=O	
InChI=1S/C4H7N3O2/c5-2-7(3-9)4(6)1-8/h2-3,5-6,8H,1H2	InChI=1S/C4H7N3O2/c5-2-7(3-9)4(6)1-8/h2-3,5-6,8H,1H2
