17
gdb 25768	4.16653	1.02603	0.8284	4.4148	82.51	-0.193	-0.031	0.162	1347.8648	0.136281	-418.065449	-418.056419	-418.055474	-418.099301	33.255	
C	-0.0564297566	 1.5177230385	 0.022112912	-0.513181
C	 0.0561877638	-0.0040556896	-0.0039878979	 0.310918
O	 1.1438426159	-0.5534905536	-0.0178755575	-0.326902
C	-1.1840840348	-0.7736068098	-0.0113668622	 0.247071
C	-1.3519286688	-2.1535177979	-0.0347126922	-0.290625
C	-2.7372404177	-2.4263442747	-0.02624021	 0.265858
N	-3.3409141867	-3.6912254711	-0.1163263277	-0.607743
C	-3.3906873736	-1.1993636527	 0.00185126	-0.144417
N	-2.4415281483	-0.2143261124	 0.0094910155	-0.329761
H	 0.9473990077	 1.9429578012	 0.0204400074	 0.146398
H	-0.6034172921	 1.8886078998	-0.8526094304	 0.131181
H	-0.5873197491	 1.8590708666	 0.9186167563	 0.130032
H	-0.5417873787	-2.8656100763	-0.0584176564	 0.115352
H	-2.7579327765	-4.4235247297	 0.2668800845	 0.245804
H	-4.2511460179	-3.7293255205	 0.3233812366	 0.240444
H	-4.4437904173	-0.9668223335	 0.0101504659	 0.116801
H	-2.6369881994	 0.7705015457	 0.0338541561	 0.262769
81.6371	115.4652	152.0235	161.6677	182.4701	322.985	329.1257	402.0363	434.3659	506.6339	565.2963	601.8402	632.2304	682.876	694.2153	712.0053	758.3535	842.9554	918.29	990.4394	996.3221	1036.2914	1092.1415	1101.4114	1139.2966	1243.2042	1296.1957	1357.9669	1369.2207	1453.0129	1464.9069	1477.2231	1480.4213	1531.9468	1629.5309	1658.9826	1754.1172	3027.8734	3088.6143	3153.1937	3257.4432	3259.7186	3541.6827	3630.6469	3692.2749
CC(=O)C1=CC(N)=CN1	CC(=O)c1cc(N)c[nH]1	
InChI=1S/C6H8N2O/c1-4(9)6-2-5(7)3-8-6/h2-3,8H,7H2,1H3	InChI=1S/C6H8N2O/c1-4(9)6-2-5(7)3-8-6/h2-3,8H,7H2,1H3
