18
gdb 5318	4.3323	1.5128	1.21468	3.261	73.47	-0.2165	0.0366	0.2532	1021.574	0.155329	-344.034746	-344.026805	-344.025861	-344.067254	29.776	
C	 0.0281404342	 1.498044356	-0.1880270612	-0.379314
C	-0.0145572588	-0.017008552	 0.0824253045	-0.068413
C	 0.7534447066	-0.3801608586	 1.3585691049	-0.393837
C	-1.4343188562	-0.5118867815	 0.1107072771	 0.29709
C	-2.13009885	-1.1158007821	 1.1283196702	-0.195361
N	-3.3927440887	-1.3555779186	 0.6259990656	-0.239705
C	-3.4076399433	-0.8947938793	-0.6549430922	 0.009041
N	-2.250535101	-0.3821551954	-0.9978828989	-0.308726
H	 1.0605022489	 1.8429313256	-0.3104296519	 0.100983
H	-0.5314593637	 1.7398767115	-1.0945731227	 0.135402
H	-0.4192800503	 2.0526467995	 0.6447554282	 0.106666
H	 0.4796937187	-0.5113488186	-0.7655873711	 0.087683
H	 0.3084343631	 0.1020375118	 2.2369222775	 0.111035
H	 0.7583631578	-1.4611793499	 1.5317867652	 0.110848
H	 1.7929032708	-0.044978687	 1.2909971383	 0.109869
H	-1.8600823051	-1.3939259458	 2.1326788143	 0.125958
H	-4.1542863193	-1.7937920777	 1.1155160324	 0.264066
H	-4.2841747638	-0.9630416078	-1.2823509202	 0.126717
48.2252	165.1882	204.0856	241.6499	274.8509	321.4058	425.0295	466.4389	505.5005	622.7023	661.8488	719.0155	752.6504	819.9816	883.2935	928.8907	949.1814	965.1149	974.9132	1089.4938	1105.2594	1123.7372	1140.3844	1179.4017	1243.8466	1253.3266	1338.166	1351.3094	1366.5601	1393.0605	1414.4804	1457.2038	1488.5598	1492.3859	1500.904	1512.9049	1529.7958	1593.485	3005.4198	3026.2027	3030.8607	3090.7926	3096.2744	3104.5682	3125.7304	3247.5053	3280.1345	3669.6791
CC(C)C1=CNC=N1	CC(C)c1c[nH]cn1	
InChI=1S/C6H10N2/c1-5(2)6-3-7-4-8-6/h3-5H,1-2H3,(H,7,8)	InChI=1S/C6H10N2/c1-5(2)6-3-7-4-8-6/h3-5H,1-2H3,(H,7,8)
