16
gdb 130451	4.15187	0.89834	0.76036	7.0738	70.68	-0.224	0.01	0.234	1430.4432	0.124411	-471.22923	-471.220028	-471.219083	-471.264074	32.291	
N	-0.9087282995	 1.071798306	 0.4442046679	-0.507637
H	-0.9591291671	 0.0586900078	 0.4152546422	 0.245133
H	-0.7528593661	 1.3831551604	-0.5105942727	 0.240355
H	-2.2673247751	 2.1877592788	 1.4357303479	 0.284415
C	 0.2017590799	 1.5052471896	 1.30911527	-0.175704
C	 0.1956706117	 3.0259985534	 1.5158978346	-0.294678
C	-0.9956898136	 3.5995278776	 2.2739660024	 0.416069
N	-2.1859976598	 2.992170977	 2.0528932388	-0.290011
N	-3.3241010277	 3.4437182434	 2.6782113007	-0.318933
C	-3.3187730938	 4.4115664571	 3.448369221	 0.538831
O	-3.6289760798	 5.2562752822	 4.1925264923	-0.270013
O	-0.917833665	 4.5625892769	 3.0251910752	-0.374327
H	 0.080268965	 1.006229818	 2.276624998	 0.12861
H	 1.1883994751	 1.2128795552	 0.9202682502	 0.105379
H	 1.0853689798	 3.3279175923	 2.0734174099	 0.142644
H	 0.253251636	 3.5326895143	 0.5429005415	 0.129867
44.3772	106.0292	115.1567	185.7836	195.0173	236.4306	308.9717	350.6678	376.1036	488.949	559.77	567.3115	637.6082	705.8585	762.2664	846.0106	895.8623	941.2715	976.8689	1004.0433	1042.2031	1088.3263	1150.5632	1248.5903	1302.2465	1313.8057	1368.8914	1421.4789	1435.8653	1462.2653	1507.5776	1542.2528	1654.9243	1738.2032	2279.4297	2991.3308	3028.435	3072.5693	3112.1091	3473.6459	3495.2276	3575.7269
[NH3+]CCC1=N[N-]C(=O)O1	NCCC(=O)NN=C=O	
InChI=1S/C4H7N3O2/c5-2-1-3-6-7-4(8)9-3/h1-2,5H2,(H,7,8)	InChI=1S/C4H7N3O2/c5-2-1-4(9)7-6-3-8/h1-2,5H2,(H,7,9)
