16
gdb 101544	2.93307	0.92181	0.78459	3.9663	66.92	-0.2779	-0.0878	0.1901	1418.6582	0.121426	-475.027161	-475.017169	-475.016225	-475.063354	34.264	
O	 0.1331928221	 0.8314392354	 0.6842944523	-0.404209
C	-0.1540123953	 0.147478909	-0.5206899605	-0.104921
C	-1.4785180223	-0.6279905141	-0.4672034519	 0.09965
O	-1.7648441598	-1.2405874367	-1.7114385636	-0.422583
C	-1.4905310678	-1.6352389952	 0.7038199614	-0.323175
C	-2.8371325855	-2.3125696231	 0.7981136773	 0.317811
O	-3.7754701258	-1.8847180796	 1.4210329094	-0.266051
C	-2.9660836494	-3.5691287577	 0.0263752651	 0.219964
N	-3.0370207904	-4.5626687246	-0.5611978861	-0.308205
H	-0.4529007594	 1.5926456732	 0.746317081	 0.294408
H	-0.1842791983	 0.8196770501	-1.3893568553	 0.113514
H	 0.6739344224	-0.5562818439	-0.6766308524	 0.108918
H	-2.2986498782	 0.0837879072	-0.3085842978	 0.110297
H	-1.0792563608	-1.8906520625	-1.9055129586	 0.291569
H	-0.6976108295	-2.3780106628	 0.5551602362	 0.118989
H	-1.3018478419	-1.0929675747	 1.6331752136	 0.154023
41.2559	51.338	119.9993	147.6328	166.0976	237.4399	281.5717	314.0256	329.1106	406.149	418.8185	456.2569	499.4133	620.9448	677.2223	802.7253	857.6336	917.9486	1023.9809	1046.4975	1093.6956	1096.7663	1123.7165	1173.6799	1214.9737	1286.8394	1323.0813	1363.747	1381.072	1410.3596	1421.6321	1472.066	1499.7714	1798.9316	2336.1236	3008.0632	3032.7748	3044.6939	3063.2436	3124.931	3794.3735	3819.4153
OCC(O)CC(=O)C#N	OC[C@@H](O)CC(=O)C#N	
InChI=1S/C5H7NO3/c6-2-4(8)1-5(9)3-7/h5,7,9H,1,3H2	InChI=1S/C5H7NO3/c6-2-4(8)1-5(9)3-7/h5,7,9H,1,3H2/t5-/m0/s1
