15
gdb 123610	3.16151	2.26587	1.51665	5.1682	70.03	-0.2182	-0.0527	0.1654	827.7991	0.115381	-412.868785	-412.862476	-412.861532	-412.899389	25.1	
C	-0.1098370515	 1.517400312	-0.0483174858	-0.171453
C	 1.4396316983	 1.7286873113	 0.0478971598	-0.098317
C	 2.1634580914	 2.1852415276	 1.3597528897	-0.182617
N	 2.1798362547	 0.9908219934	 2.2767112951	-0.344909
C	 1.5750703272	-0.0565121767	 1.5571821088	 0.190508
C	 1.3912262523	 0.2469020508	 0.2521322957	 0.0803
N	 0.0644408063	-0.048079099	-0.0657813733	-0.091385
N	-0.4211490831	-0.7881484621	 1.0557879557	-0.117401
N	 0.4812428098	-0.8242967506	 1.9687962446	-0.155348
H	-0.6687840052	 1.7992993752	 0.8437391012	 0.158864
H	-0.593991183	 1.8612996966	-0.9607421933	 0.146733
H	 1.8779256556	 2.1557622036	-0.8542270912	 0.099917
H	 3.1814707666	 2.4979694509	 1.1009502704	 0.119438
H	 1.6755598407	 3.0332555502	 1.8563976441	 0.121094
H	 3.0677966099	 0.8245217266	 2.7315744284	 0.244575
107.1465	274.8087	314.4823	341.0781	487.4225	532.551	647.4575	676.668	706.5676	751.209	780.5579	837.1799	852.085	882.2599	892.6408	965.4034	1031.3826	1036.8979	1060.778	1123.4839	1146.6647	1179.7894	1203.5324	1227.1621	1257.1862	1307.7944	1315.3179	1346.1125	1361.9413	1413.0911	1470.7124	1507.0609	1587.0471	3021.0501	3060.4137	3095.432	3103.7605	3178.0987	3562.3589
C1C2CNC3=C2N1N=N3	C1[C@H]2CN[C]3[C]2N1[N][N]3	
InChI=1S/C5H6N4/c1-3-2-9-4(3)5(6-1)7-8-9/h3,6H,1-2H2	InChI=1S/C5H6N4/c1-3-2-9-4(3)5(6-1)7-8-9/h3,6H,1-2H2/t3-/m1/s1
