14
gdb 28696	3.61896	1.07467	0.85072	3.1182	68.35	-0.2129	0.0172	0.2301	1259.573	0.102046	-432.915564	-432.907419	-432.906475	-432.949325	29.242	
O	-0.6352828042	 1.1200983515	 0.2670698473	-0.430645
C	-0.1008734914	-0.091581813	-0.001466839	 0.366038
C	 0.7536170496	-0.5935402967	-0.9474826736	-0.232043
N	 0.9360716691	-1.9474107321	-0.7317221911	-0.295499
C	 0.2162402458	-2.2463856756	 0.316605342	 0.360239
C	 0.1481165792	-3.6019720019	 0.9597514185	-0.442554
C	-1.1544396787	-3.8729788588	 1.5692005645	 0.255095
N	-2.1821118313	-4.0391821701	 2.0705239737	-0.308372
N	-0.4382905284	-1.1431169606	 0.8107531565	-0.336369
H	-0.3401198818	 1.7427287712	-0.4047360564	 0.315061
H	 1.2360996148	-0.0739385026	-1.7603833236	 0.106261
H	 0.3648315433	-4.3515169502	 0.1933346898	 0.187098
H	 0.9158853656	-3.7147072014	 1.7376617808	 0.170179
H	-1.1017378115	-1.1096790496	 1.5687376707	 0.285511
34.2253	101.2232	202.851	238.5281	286.2904	347.0005	378.1554	445.0374	493.7761	525.3328	660.6938	673.1177	694.3391	763.5572	775.8044	937.2285	947.6066	1001.6593	1056.6299	1144.4391	1176.3175	1206.7487	1247.5818	1294.1276	1319.7474	1446.2999	1461.1537	1505.9467	1559.868	1640.6499	2363.6548	3019.139	3099.2453	3252.2449	3649.2334	3843.4962
OC1=CN=C(CC#N)N1	Oc1cnc(CC#N)[nH]1	
InChI=1S/C5H5N3O/c6-2-1-4-7-3-5(9)8-4/h3,9H,1H2,(H,7,8)	InChI=1S/C5H5N3O/c6-2-1-4-7-3-5(9)8-4/h3,9H,1H2,(H,7,8)
