15
gdb 94143	1.95173	1.71361	1.1983	3.7724	71.53	-0.2677	-0.029	0.2387	1061.9844	0.113421	-412.972155	-412.963483	-412.962539	-413.005726	31.356	
N	 0.2229373571	 1.3907322836	-0.1428831642	-0.487847
C	 0.0946485882	-0.0125117074	 0.0435842825	-0.008693
C	 0.1071827556	-0.4615218154	 1.5241410482	-0.17561
N	-1.3622699473	-0.6339932946	 1.4900537553	-0.327702
C	-1.4049933115	-0.6714285329	 0.0175676323	-0.017299
C	-2.4379218285	 0.1674002613	-0.5880844889	 0.276902
N	-3.190595335	 0.8977333822	-1.0730981991	-0.326127
C	-1.3938592682	-2.0131928863	-0.5693914334	 0.255817
N	-1.326361721	-3.0903581595	-0.9851230401	-0.32489
H	 0.0874385765	 1.6701267362	-1.1082016347	 0.254647
H	-0.422749002	 1.9187113221	 0.4353064637	 0.255659
H	 0.7693382072	-0.544588287	-0.6264328815	 0.124013
H	 0.6780413757	-1.3843142495	 1.6793174155	 0.126095
H	 0.4451969153	 0.2975454627	 2.2348681855	 0.127791
H	-1.7549817321	-1.4424521353	 1.9590634988	 0.247244
75.0861	125.5955	128.6459	175.5008	237.3243	326.9475	351.5938	414.0445	495.3727	510.0011	546.8183	583.8865	610.2967	694.9957	799.1845	823.5526	875.3063	971.5018	999.1356	1039.1424	1072.4286	1116.2808	1149.3394	1187.3258	1259.9225	1284.1381	1316.5197	1386.7805	1430.1228	1519.5216	1664.7193	2342.5747	2357.5629	3035.1126	3095.2875	3123.2812	3513.8365	3548.4843	3598.7459
NC1CNC1(C#N)C#N	N[C@H]1CNC1(C#N)C#N	
InChI=1S/C5H6N4/c6-2-5(3-7)4(8)1-9-5/h4,9H,1,8H2	InChI=1S/C5H6N4/c6-2-5(3-7)4(8)1-9-5/h4,9H,1,8H2/t4-/m0/s1
