17
gdb 126949	6.45952	0.79478	0.71523	4.3491	71.93	-0.2008	0.048	0.2488	1545.087	0.137252	-451.370514	-451.361429	-451.360485	-451.404945	32.476	
C	-0.0058801325	 1.5075621919	-0.0817608654	-0.403191
C	-0.0247907586	-0.0106038186	 0.0492132311	-0.104722
N	-1.3998434621	-0.5097000842	-0.0112401445	-0.406588
C	-1.5831209467	-1.8723137123	 0.005796124	 0.51905
N	-0.6395166899	-2.7639186876	-0.077589794	-0.307225
N	-1.3352650636	-3.9696648347	-0.1136407239	-0.30956
C	-2.6974967885	-3.8423527093	-0.040689213	 0.460067
O	-3.5719808755	-4.6812813402	-0.0541413138	-0.424849
N	-2.8344849103	-2.443735524	 0.0590924963	-0.433729
H	 1.0228414663	 1.8767074719	-0.0548236957	 0.128857
H	-0.464394704	 1.8259367312	-1.02237358	 0.131539
H	-0.5489392718	 1.9863769095	 0.7417431938	 0.114888
H	 0.5244444593	-0.4781724845	-0.7727044891	 0.13894
H	 0.4749714346	-0.3275104729	 0.9762237356	 0.110796
H	-2.0362850624	-0.0104167233	 0.5970078656	 0.237553
H	-0.8342812808	-4.8347232793	-0.2009854916	 0.276854
H	-3.7244190637	-1.9793666836	 0.0112224346	 0.271318
59.2707	83.2673	133.2635	150.1319	248.4921	273.3798	339.3812	363.1927	398.0755	464.6485	537.6576	568.8703	699.6016	736.4849	760.3585	803.808	822.9463	920.8975	997.4108	1021.8897	1077.1928	1113.271	1148.4312	1175.0053	1255.6211	1267.6069	1292.3047	1369.7266	1387.4669	1414.7468	1441.7639	1493.5789	1498.0932	1523.6867	1556.9161	1676.2574	1857.8114	3001.67	3033.8839	3084.57	3107.1768	3124.6785	3563.895	3686.967	3711.2851
CCNC1=NNC(=O)N1	CCNc1n[nH]c(=O)[nH]1	
InChI=1S/C4H8N4O/c1-2-5-3-6-4(9)8-7-3/h2H2,1H3,(H3,5,6,7,8,9)	InChI=1S/C4H8N4O/c1-2-5-3-6-4(9)8-7-3/h2H2,1H3,(H3,5,6,7,8,9)
