15
gdb 80112	2.91235	1.52846	1.28599	1.1571	72.7	-0.2288	-0.0033	0.2255	998.0768	0.112762	-416.75313	-416.74527	-416.744326	-416.785255	30.108	
N	 0.0425930448	 1.44442732	-0.1080713072	-0.524282
C	-0.0158828897	 0.0202408153	-0.0436831764	-0.073567
C	-0.3393205709	-0.7116130965	 1.2411099938	-0.103448
N	-1.0217005321	 0.0366770521	 2.2627748556	-0.25502
C	-2.1317498035	 0.3962408511	 1.7522108138	 0.078537
O	-2.4453078698	-0.0123748414	 0.4996473783	-0.233997
C	-1.3228440012	-0.7754324069	 0.0489762932	 0.197112
C	-1.6335161396	-1.8889471343	-0.7773758493	 0.219902
C	-1.8577321901	-2.8327275098	-1.4888080187	-0.379496
H	-0.605501441	 1.8216218292	-0.7903431049	 0.242573
H	-0.1681261937	 1.8621715861	 0.791466799	 0.246894
H	 0.7218607865	-0.5001392472	-0.6502303923	 0.116284
H	 0.2762856533	-1.5415641745	 1.5643668643	 0.120447
H	-2.887213363	 1.0061908314	 2.2324392047	 0.151004
H	-2.06462429	-3.6671698446	-2.1122741639	 0.197056
131.6155	154.4325	173.0909	243.094	260.7939	417.2176	478.4693	490.2059	538.4271	563.6173	606.8611	698.6679	714.5278	730.7234	769.1354	802.6291	913.7485	927.351	944.0285	980.8363	1050.5495	1099.6176	1128.1317	1145.8785	1211.8485	1247.4375	1282.2068	1316.9288	1338.6285	1414.0554	1654.074	1662.3884	2235.4908	3134.8674	3194.7114	3230.8645	3501.5657	3515.2418	3592.9746
NC1C2N=COC12C#C	N[C@H]1[C@H]2N=CO[C@@]12C#C	
InChI=1S/C6H6N2O/c1-2-6-4(7)5(6)8-3-9-6/h1,3-5H,7H2	InChI=1S/C6H6N2O/c1-2-6-4(7)5(6)8-3-9-6/h1,3-5H,7H2/t4-,5+,6-/m0/s1
