17
gdb 42919	2.91134	1.32152	1.0125	3.5532	73.4	-0.234	-0.0251	0.2089	1165.5073	0.136676	-417.937462	-417.929657	-417.928712	-417.970433	29.399	
O	-0.2505281011	-0.0168784744	-0.0217893872	-0.303167
C	-0.1833232648	 1.1727497821	 0.052389171	 0.439771
C	-1.1708977707	 2.3082837856	-0.0983353422	-0.193983
N	-0.9130117792	 3.1881831402	 1.0978170966	-0.325008
C	-0.0329914278	 3.2907794357	-0.068192278	-0.066898
C	 1.0241206136	 2.1812193423	 0.1080566337	-0.148426
C	 1.9324429122	 2.2126588859	 1.3034019284	 0.015935
C	 3.1336876528	 1.3435676563	 1.343916664	-0.238299
N	 3.2829188903	 2.8033559799	 1.2093610767	-0.326693
H	-2.1256231215	 2.3354680836	-0.6071256558	 0.11918
H	-1.6032916016	 3.9373622005	 1.0449550773	 0.243641
H	 0.0640541278	 4.2049542098	-0.6389462078	 0.112715
H	 1.5986870946	 2.027733791	-0.8153133814	 0.095083
H	 1.426122534	 2.4417354585	 2.2361314721	 0.114193
H	 3.4730186455	 0.9322679692	 2.2898941847	 0.123453
H	 3.3346336495	 0.7137202185	 0.4808249201	 0.115121
H	 3.4906516561	 3.0358379653	 0.240138488	 0.223383
69.4373	115.3551	155.9738	205.1328	306.3807	355.3203	516.8656	530.2483	602.4274	700.7065	787.534	823.2618	830.7867	848.048	882.9613	900.0244	927.3052	961.1275	984.929	1011.1128	1038.487	1074.7965	1096.7198	1102.7849	1132.1337	1159.0531	1169.8863	1207.7514	1248.854	1262.8868	1291.656	1308.411	1318.2305	1352.3	1431.7226	1515.6299	1899.7863	3029.9522	3110.7105	3161.2683	3196.1556	3201.6225	3212.9769	3472.8209	3482.4888
O=C1C2NC2C1C1CN1	O=C1[C@H]2N[C@H]2[C@H]1[C@H]1CN1	
InChI=1S/C6H8N2O/c9-6-3(2-1-7-2)4-5(6)8-4/h2-5,7-8H,1H2	InChI=1S/C6H8N2O/c9-6-3(2-1-7-2)4-5(6)8-4/h2-5,7-8H,1H2/t2-,3-,4+,5+/m1/s1
