17
gdb 67114	2.64133	2.09592	1.79216	2.7375	71.36	-0.2252	0.0733	0.2985	849.3751	0.136987	-421.723035	-421.716434	-421.715489	-421.753501	27.736	
O	 0.0090129992	 1.3739445433	 0.0008071696	-0.474752
C	 0.1305848502	 0.0001923697	-0.0277250227	 0.381497
C	 0.3976140188	-0.9742004076	 1.1616675211	-0.185384
C	-1.1284435797	-0.9629455113	 1.5749879048	-0.343136
C	-1.0982478012	-0.9364372453	 0.0398773836	 0.413989
O	-1.8590189175	-0.8983925955	-1.1313042732	-0.347035
C	-0.761567734	-0.8799818986	-2.1038891729	-0.105672
C	 0.5202573929	-0.9210865988	-1.2127332719	-0.218598
C	 0.1220071517	-1.8866454832	-0.0700705998	-0.082134
H	 0.8883865194	 1.7599776247	 0.0732831023	 0.286801
H	 1.2575880611	-1.00832563	 1.8273078867	 0.080446
H	-1.5127889572	-1.8677116766	 2.0534669001	 0.103652
H	-1.4879746926	-0.0621345562	 2.0777744663	 0.116346
H	-0.856078374	-1.7523333887	-2.7592162342	 0.107853
H	-0.8317549552	 0.0353971192	-2.7003189562	 0.116897
H	 1.4831754723	-0.9221982387	-1.7273762755	 0.065753
H	 0.0600749359	-2.9716858363	-0.0776616382	 0.083478
226.8872	249.959	276.1756	325.5871	427.9448	479.2748	509.5821	676.541	695.4923	721.7168	756.6041	816.7899	848.6029	880.6919	893.0028	916.3207	926.5254	955.3694	990.2201	1009.1037	1046.7843	1049.3338	1106.6328	1111.4507	1127.3554	1150.1856	1171.2872	1201.5118	1209.1109	1245.1403	1267.7955	1282.8178	1290.2819	1349.967	1418.0011	1503.0745	1507.8148	3040.108	3059.1917	3089.8062	3096.9778	3125.2539	3136.5915	3156.1798	3805.2814
OC12C3CC11OCC2C31	O[C@@]12[C@H]3C[C@]41OC[C@@H]2[C@@H]34	
InChI=1S/C7H8O2/c8-7-3-1-6(7)5(3)4(7)2-9-6/h3-5,8H,1-2H2	InChI=1S/C7H8O2/c8-7-3-1-6(7)5(3)4(7)2-9-6/h3-5,8H,1-2H2/t3-,4+,5+,6-,7+/m0/s1
