22
gdb 14271	2.70629	2.39452	1.69658	0.032	80.37	-0.2785	0.0783	0.3568	888.8628	0.204909	-313.078706	-313.071879	-313.070935	-313.109091	29.001	
C	-0.0553710458	 1.5151559413	 0.0516625329	-0.230131
C	 1.5005758622	 1.549386686	 0.0240776286	 0.019859
C	 1.4762194627	 0.0862989889	 0.5593613562	-0.230133
C	 0.0100450491	-0.0415925395	 0.052519553	 0.019859
C	-0.1344848302	-0.6964003829	-1.3299027666	-0.202048
C	 0.9945729999	-0.4211698944	-2.3414146929	-0.186223
C	 1.3491109547	 1.0598291294	-2.5413956281	-0.186223
C	 2.1124058733	 1.7166617499	-1.3753633055	-0.202048
H	-0.4472382305	 1.8964353714	 0.9990077645	 0.089644
H	-0.5967098481	 2.0042968506	-0.7636878229	 0.088111
H	 1.9673453973	 2.2736790047	 0.6986862264	 0.057764
H	 2.2201908347	-0.6142480245	 0.168412008	 0.088111
H	 1.5254474284	 0.0624946629	 1.6517921549	 0.089645
H	-0.6861532773	-0.5265218023	 0.7436934532	 0.057765
H	-0.2144557973	-1.7832897767	-1.1989686866	 0.089723
H	-1.0911507821	-0.3732840945	-1.7637396032	 0.090777
H	 1.8986546988	-0.9688934847	-2.0454404463	 0.094416
H	 0.6930452551	-0.8492640163	-3.3050820794	 0.088109
H	 1.9640874307	 1.1609009767	-3.4438518614	 0.088108
H	 0.4297577946	 1.6234827646	-2.7464583861	 0.094416
H	 2.2070120604	 2.7882892182	-1.5933817937	 0.089723
H	 3.1377582192	 1.3218725713	-1.3504477549	 0.090777
201.4003	258.48	309.5179	339.6159	355.0391	389.4808	497.7305	538.0332	738.251	776.1713	781.9367	804.7863	847.1511	875.6351	880.3421	900.6471	926.211	946.5625	1011.4007	1025.2394	1049.6189	1067.6018	1072.0697	1137.9068	1153.6419	1166.3853	1185.2454	1188.3579	1225.1775	1260.2004	1273.6393	1285.3192	1297.3588	1322.9338	1351.1145	1356.6594	1375.9328	1394.1171	1394.4818	1397.1836	1473.2169	1480.4234	1485.7936	1492.4561	1499.6094	1516.3688	3005.0027	3005.1381	3016.7814	3017.8794	3038.4674	3038.8003	3045.5489	3046.2692	3051.1112	3054.3406	3061.6678	3062.2987	3096.9142	3098.1268
C1C2CC1CCCC2	C1[C@H]2C[C@@H]1CCCC2	
InChI=1S/C8H14/c1-2-4-8-5-7(3-1)6-8/h7-8H,1-6H2	InChI=1S/C8H14/c1-2-4-8-5-7(3-1)6-8/h7-8H,1-6H2/t7-,8+
