15
gdb 108750	2.5616	1.34564	0.88704	2.8013	72.65	-0.2616	-0.0726	0.189	1221.1919	0.113167	-453.996687	-453.9883	-453.987356	-454.03008	30.389	
O	 0.0070863149	 1.3880820375	 0.0069780324	-0.416598
C	-0.0117629528	-0.0251693224	 0.0025647767	-0.176142
C	-1.4276799241	-0.4853278468	 0.0122774231	 0.294983
C	-2.556134704	 0.2357896264	 0.0230924625	-0.34609
C	-3.7255965056	-0.6893219977	 0.0295509473	 0.430113
O	-4.9063563079	-0.4396567835	 0.039384696	-0.351756
N	-3.1685090781	-1.9764227829	 0.021518354	-0.412573
C	-1.7789488427	-1.9329957648	 0.0108554444	 0.330236
N	-0.9164359856	-2.869750964	 0.0014867499	-0.529478
H	 0.9241865986	 1.6756570571	 0.0004849563	 0.296405
H	 0.4906202578	-0.4472324824	-0.8825962555	 0.125214
H	 0.5045804682	-0.4529503534	 0.876871702	 0.125227
H	-2.6568710887	 1.3097690863	 0.0269608523	 0.148245
H	-3.7289006366	-2.8125720847	 0.0234346239	 0.26143
H	-1.3529054735	-3.7933292947	 0.0022347447	 0.220784
85.6781	127.031	167.0429	173.7296	231.0229	320.1786	365.6505	430.4617	449.3692	571.2568	613.1165	659.0688	701.0982	768.3491	825.7726	876.0377	894.731	931.9953	1034.5328	1054.4902	1099.9205	1147.4583	1182.5935	1225.0482	1241.5622	1301.9127	1339.5909	1407.2086	1470.4303	1493.5945	1687.8904	1742.3109	1840.0242	2977.6585	2995.819	3269.2966	3463.6083	3664.3846	3843.5
OCC1=CC(=O)NC1=N	OCC1=C(NC(=O)[CH]1)[NH]	
InChI=1S/C5H6N2O2/c6-5-3(2-8)1-4(9)7-5/h1,8H,2H2,(H2,6,7,9)	InChI=1S/C5H6N2O2/c6-5-3(2-8)1-4(9)7-5/h1,8H,2H2,(H2,6,7,9)
