20
gdb 22345	3.01123	1.08488	0.83611	1.861	89.57	-0.2109	-0.0196	0.1913	1401.2369	0.169898	-403.141967	-403.132458	-403.131513	-403.176554	35.449	
C	-0.177154689	 1.5265559199	 0.0216782404	-0.401957
C	 0.0672177137	 0.0105302524	 0.0004286682	-0.074854
C	 0.9066283661	-0.4621822331	-1.2190268386	-0.318376
C	 1.9930161478	-1.33944385	-0.6228239051	 0.38179
C	 1.8992011029	-1.2547046354	 0.8290640134	-0.265063
C	 0.8443017735	-0.5099771645	 1.2008462173	 0.32674
C	 0.4096049306	-0.2239906027	 2.6019108637	-0.494559
N	 2.7986624613	-2.0032155328	-1.3620766943	-0.246411
O	 3.723277831	-2.7332907233	-0.5841853935	-0.400741
H	 0.7710232832	 2.0740945413	 0.0628359422	 0.120077
H	-0.7087744135	 1.8424839373	-0.8815002779	 0.120001
H	-0.7807581941	 1.8279651247	 0.8834564544	 0.115432
H	-0.9161587564	-0.4827449472	-0.0089389859	 0.084537
H	 0.3125761227	-1.0013155886	-1.9610339917	 0.121825
H	 1.3550894476	 0.3950218198	-1.7335365912	 0.120847
H	 2.5890468119	-1.756241113	 1.4935479018	 0.112506
H	 1.0419315343	-0.7354507019	 3.3317095852	 0.130336
H	 0.440591744	 0.8507849805	 2.8191179316	 0.135432
H	-0.6288013907	-0.5418193025	 2.7632697572	 0.129973
H	 4.2470671431	-3.1733212108	-1.2610058972	 0.302464
38.0535	138.6989	181.6884	196.028	236.3435	257.9277	263.0767	334.5014	363.3179	377.1137	506.0477	532.4219	573.4272	625.6371	694.7533	767.5402	886.873	895.7406	912.8482	914.6687	976.0241	1008.5684	1025.2811	1064.5052	1093.9448	1119.3833	1175.603	1211.6378	1240.482	1278.5614	1308.7842	1333.2771	1351.7979	1398.065	1407.086	1412.1426	1476.0743	1477.7478	1481.136	1498.8333	1501.9483	1678.2573	1726.7469	2988.8115	3018.3671	3030.6617	3048.2622	3064.6756	3097.378	3101.818	3104.6937	3117.3705	3234.1714	3827.9475
CC1CC(C=C1C)=NO	C[C@H]1CC(=NO)C=C1C	
InChI=1S/C7H11NO/c1-5-3-7(8-9)4-6(5)2/h3,6,9H,4H2,1-2H3	InChI=1S/C7H11NO/c1-5-3-7(8-9)4-6(5)2/h3,6,9H,4H2,1-2H3/t6-/m0/s1
