15
gdb 68104	3.1979	1.32456	1.09619	2.6658	75.51	-0.2482	-0.0169	0.2313	1110.9462	0.108948	-420.54288	-420.534363	-420.533419	-420.575818	31.714	
C	 0.0879413492	 1.4749187958	 0.1087482798	-0.516298
C	-0.0432862618	 0.0028722239	-0.0853038083	 0.260643
C	 0.5676240961	-0.9409132416	-1.1537367149	-0.294982
C	-0.0078664734	-1.8804801255	-0.061250879	 0.192534
O	 0.510903744	-0.9143614222	 0.9618100176	-0.354293
C	 0.1551015466	-3.2797325406	 0.130031005	 0.063266
C	 0.2514767742	-4.4702723507	 0.2671611283	-0.333386
C	-1.2720575752	-0.9445367555	-0.0230576704	 0.408099
O	-2.4456671245	-0.9604448693	 0.1284034835	-0.302412
H	 1.1401149657	 1.771090251	 0.1477863601	 0.142476
H	-0.3916450368	 2.0034402495	-0.7206689187	 0.142414
H	-0.3985720252	 1.7806947179	 1.0390891019	 0.15161
H	 0.1246105838	-0.9724549891	-2.1522540691	 0.118029
H	 1.658776877	-0.9271123654	-1.1599247207	 0.127365
H	 0.3378373202	-5.5213856283	 0.3949349049	 0.194935
120.8076	136.609	156.8202	190.2575	209.2959	307.3558	362.3391	500.0431	514.6969	533.1788	573.9776	615.4021	661.9027	693.7164	710.2169	768.036	818.1899	842.357	913.0338	955.0663	1025.4437	1090.9617	1110.3393	1147.7866	1173.8482	1259.9904	1380.3627	1424.8444	1475.1039	1483.6861	1486.1818	1934.9704	2239.352	3045.7071	3066.5974	3119.4608	3124.2723	3151.7842	3498.851
CC12CC(O1)(C#C)C2=O	C[C@@]12C[C@](O1)(C#C)C2=O	
InChI=1S/C7H6O2/c1-3-7-4-6(2,9-7)5(7)8/h1H,4H2,2H3	InChI=1S/C7H6O2/c1-3-7-4-6(2,9-7)5(7)8/h1H,4H2,2H3/t6-,7+/m0/s1
