21
gdb 83238	2.71882	1.34296	1.17127	1.8055	84.78	-0.2224	0.0147	0.2371	1172.172	0.183743	-387.095032	-387.08649	-387.085546	-387.127862	33.811	
C	-0.0591873367	 1.5020009165	-0.0401619719	-0.478492
C	 0.0651294056	 0.0043153952	-0.0408030212	 0.317477
C	-0.0324233664	-0.7261814502	-1.1597394149	-0.195263
C	 0.0499508094	-2.2078120676	-1.1729579455	-0.131659
C	 1.4130435132	-2.8682974682	-1.1949009233	 0.110673
O	 2.5771124265	-2.1038883579	-1.2726063609	-0.419782
C	 0.5894874469	-2.8862333631	 0.0775316202	-0.094234
C	 1.0261398977	-1.9912412557	 1.2318636838	-0.24001
C	 0.2442157426	-0.6663926195	 1.3077122	-0.286657
H	 0.8465232396	 1.9768886479	 0.3584978486	 0.124544
H	-0.2414767051	 1.8969203104	-1.0434175215	 0.120081
H	-0.8845625407	 1.8233953432	 0.6086909008	 0.12665
H	-0.1933664323	-0.2275897567	-2.1143090238	 0.081506
H	-0.7361841375	-2.7138555032	-1.7275354157	 0.08722
H	 1.5208956298	-3.7966023539	-1.7476361472	 0.096759
H	 2.3131123278	-1.1747972298	-1.2871818796	 0.280813
H	 0.1371765305	-3.8350503762	 0.3475561375	 0.080841
H	 0.9253881319	-2.5317699951	 2.1777198492	 0.096211
H	 2.0920910249	-1.7636300648	 1.113656217	 0.114474
H	 0.7492302018	 0.020385902	 1.9978534639	 0.097323
H	-0.7524407897	-0.8389028832	 1.7406733544	 0.111524
100.4173	121.0484	205.0642	245.7205	297.2115	331.4842	341.742	406.9137	466.1716	515.1537	564.3457	606.7284	713.6507	758.5455	777.3656	780.3025	875.1829	887.7595	927.2121	969.4966	990.2114	1031.4271	1043.0669	1047.101	1076.9137	1106.77	1116.3774	1134.5201	1178.9994	1212.0757	1225.5164	1262.1174	1323.9775	1333.2393	1346.7828	1375.5349	1376.924	1397.3299	1412.6289	1442.6316	1474.9864	1480.4182	1490.3256	1493.5409	1719.2852	2998.7965	3014.0489	3032.0145	3049.6718	3059.9211	3080.2054	3109.0318	3127.8827	3137.6063	3148.2421	3160.6705	3751.6758
CC1=CC2C(O)C2CC1	CC1=C[C@H]2[C@@H](O)[C@H]2CC1	
InChI=1S/C8H12O/c1-5-2-3-6-7(4-5)8(6)9/h4,6-9H,2-3H2,1H3	InChI=1S/C8H12O/c1-5-2-3-6-7(4-5)8(6)9/h4,6-9H,2-3H2,1H3/t6-,7+,8-/m0/s1
