20
gdb 107351	2.94696	1.30349	1.03772	3.081	80.36	-0.2444	0.0275	0.2719	1220.3705	0.171359	-403.167138	-403.158584	-403.15764	-403.200466	32.935	
C	 0.1186650715	 1.4936618777	 0.2856710573	-0.377289
C	 0.0840202638	-0.0187226111	 0.0342447712	-0.265556
C	-1.310531376	-0.5607390169	-0.1187901798	 0.444771
C	-2.2145083967	-0.9090225776	 1.0327742165	-0.346716
C	-1.7493534615	-1.9869243885	 0.0649776963	-0.129397
C	-2.6592240274	-2.3024112601	-1.1037197453	-0.312969
C	-2.825154973	-0.9655895703	-1.8126197453	 0.383565
N	-3.613966696	-0.7372953948	-2.7701197538	-0.535802
O	-1.987023369	-0.0327008024	-1.2579036159	-0.273513
H	 1.1486836172	 1.8496127607	 0.3799967663	 0.11267
H	-0.3544247149	 2.0334564161	-0.5390864537	 0.135471
H	-0.4152351338	 1.7518648217	 1.2059164373	 0.118339
H	 0.6559794812	-0.2603438452	-0.8701824031	 0.107981
H	 0.5656441037	-0.5502754383	 0.8632712997	 0.101513
H	-1.7817501784	-0.9176630228	 2.0274711641	 0.118447
H	-3.2484239009	-0.5807829434	 0.9892242038	 0.124688
H	-1.0568186593	-2.7408167456	 0.4197144713	 0.097712
H	-2.1977848724	-3.020156424	-1.789755453	 0.136086
H	-3.6367239911	-2.7041592508	-0.8247310838	 0.138415
H	-3.5424566069	 0.2364216355	-3.0696887001	 0.221584
87.7441	96.8873	150.2944	199.0693	270.5496	345.9357	409.2341	428.6663	457.5441	531.6546	619.2177	680.2518	731.6935	783.2363	842.7287	851.2625	884.0852	895.2215	942.1861	955.0663	986.9641	1005.9161	1046.0847	1058.8515	1073.5641	1095.871	1106.198	1128.1451	1194.104	1217.0545	1260.312	1290.7747	1303.052	1346.5298	1367.0873	1409.4792	1419.6201	1471.6634	1474.1994	1487.9716	1496.8653	1509.6272	1776.6039	3028.4978	3041.946	3059.4474	3066.5922	3101.1775	3110.2914	3121.9877	3126.0673	3181.2423	3216.8094	3474.9978
CCC12CC1CC(=N)O2	CC[C@]12C[C@H]1C[C]([NH])O2	
InChI=1S/C7H11NO/c1-2-7-4-5(7)3-6(8)9-7/h5,8H,2-4H2,1H3	InChI=1S/C7H11NO/c1-2-7-4-5(7)3-6(8)9-7/h5,8H,2-4H2,1H3/t5-,7+/m1/s1
