17
gdb 24124	4.99841	0.99457	0.86706	4.0614	74.61	-0.2157	0.0324	0.2482	1298.0526	0.13833	-418.023725	-418.016033	-418.015089	-418.056694	28.611	
C	-0.0157640026	 1.4292811401	 0.5849729544	-0.363896
C	-0.1149980192	-0.0302403351	 0.1861915167	 0.097705
C	-1.2676008069	-0.5639604043	-0.5482441638	-0.181989
O	-0.0374601723	-0.2851332724	-1.2257735632	-0.24604
C	 1.3418585913	 1.9936141135	 0.3126515182	 0.304981
C	 2.2480362877	 2.6916793774	 1.0702093211	-0.175773
N	 3.3683425793	 3.0065684263	 0.3349001965	-0.258209
C	 3.1473964864	 2.5026368398	-0.8577186345	 0.012356
N	 1.9356161088	 1.8847109407	-0.9297718386	-0.284821
H	-0.7871444215	 1.9912866831	 0.0412915399	 0.114401
H	-0.2384231198	 1.5330218258	 1.6521215812	 0.124591
H	 0.4807160366	-0.7207799127	 0.7836138176	 0.1076
H	-1.5226359146	-1.6192483336	-0.4705765382	 0.123375
H	-2.0964287131	 0.0979092081	-0.7953374774	 0.12004
H	 2.1520150891	 2.9875609561	 2.1046024566	 0.10159
H	 3.8203587006	 2.5514653488	-1.7008844086	 0.126615
H	 1.5416136701	 1.3731605781	-1.7040630779	 0.277474
76.2036	89.6321	130.3866	288.5865	297.2184	367.1947	460.5779	599.8064	666.5684	694.9337	742.3799	788.938	814.1309	844.4048	864.0057	929.4223	936.5802	953.0511	1021.185	1092.8864	1096.6151	1118.5612	1146.2179	1159.089	1170.3285	1231.6179	1257.1539	1282.5544	1291.8406	1325.8383	1383.8432	1431.4947	1438.2518	1466.2579	1508.9153	1526.9818	1614.2922	3014.3771	3080.4159	3088.5655	3115.1024	3177.3592	3240.9911	3250.6966	3644.4698
C(C1CO1)C1=CN=CN1	C([C@H]1CO1)c1cnc[nH]1	
InChI=1S/C6H8N2O/c1(6-3-9-6)5-2-7-4-8-5/h2,4,6H,1,3H2,(H,7,8)	InChI=1S/C6H8N2O/c1(6-3-9-6)5-2-7-4-8-5/h2,4,6H,1,3H2,(H,7,8)/t6-/m0/s1
