14
gdb 49122	3.68682	1.23717	0.98189	1.3017	71.52	-0.2503	-0.1061	0.1442	1123.1922	0.10126	-436.68826	-436.680937	-436.679993	-436.720443	27.076	
O	 0.0136932019	-0.0545338091	 0.016235313	-0.254487
C	 0.0245777299	 1.1518198922	 0.1025136867	 0.086101
C	 1.2585833906	 1.9531134929	 0.0545735036	 0.287877
C	 1.3316886234	 3.2953512285	 0.1228604304	-0.309498
C	 2.7538203722	 3.7462030949	-0.0182538805	 0.463799
O	 3.1491943963	 4.8810787355	-0.1138124097	-0.315574
C	 3.5826577935	 2.4732357183	-0.0806382901	-0.185858
N	 3.4268494563	 1.6676672554	 1.1658920196	-0.326177
C	 2.6264334803	 1.344557353	-0.0425866785	-0.163364
H	-0.9121936017	 1.7374378277	 0.2137200817	 0.089173
H	 0.50835755	 3.9870034597	 0.2527504238	 0.136682
H	 4.5218418816	 2.4635425081	-0.6193920971	 0.119581
H	 4.2183197423	 1.0260748788	 1.2202393019	 0.245734
H	 2.7762110136	 0.4043638242	-0.5568650148	 0.126011
89.6567	165.4702	188.8342	223.4277	326.8475	403.2908	496.6118	552.6239	637.8831	709.9978	744.7654	827.9221	839.0409	846.2508	886.733	917.6619	924.0182	1023.8429	1041.8557	1117.8979	1139.1417	1154.5126	1177.2465	1259.1926	1308.7465	1353.77	1397.0496	1419.9641	1648.1353	1786.2263	1827.0344	2914.0767	3199.1939	3211.229	3219.0946	3468.8745
O=CC1=CC(=O)C2NC12	O=CC1=CC(=O)[C@H]2N[C@@H]12	
InChI=1S/C6H5NO2/c8-2-3-1-4(9)6-5(3)7-6/h1-2,5-7H	InChI=1S/C6H5NO2/c8-2-3-1-4(9)6-5(3)7-6/h1-2,5-7H/t5-,6+/m0/s1
