19
gdb 68827	2.62609	1.51205	1.26821	1.9286	76.83	-0.2218	0.0688	0.2906	1088.3211	0.156646	-422.96777	-422.95893	-422.957985	-423.000691	34.392	
C	-0.1608266723	 1.4836813836	 0.036124531	-0.487806
C	 0.0046023328	 0.0027715616	 0.0897028149	 0.404003
C	 1.2051012905	-0.8014756837	-0.3580035162	-0.411299
C	 0.6526385155	-0.97009423	 1.045616401	 0.179605
O	 1.3719355374	-0.7481937538	 2.2021470517	-0.452027
C	-0.6552747234	-1.7194104243	 0.9717834717	 0.414705
C	-0.9905296817	-3.1709972762	 1.0081091285	-0.350259
C	-1.4815743135	-2.2249342422	 2.101198367	-0.340159
O	-1.179680725	-0.8136029898	-0.0151004045	-0.349454
H	 0.7888888313	 1.9782045961	 0.2582018869	 0.128684
H	-0.4869618522	 1.803487844	-0.9598548445	 0.130909
H	-0.9067314284	 1.8154587601	 0.7645019446	 0.133312
H	 1.0977147574	-1.5832970456	-1.10515272	 0.113372
H	 2.1318959204	-0.2353333104	-0.3961804788	 0.112013
H	 2.1487490726	-1.3178389366	 2.1908087809	 0.290707
H	-1.7266307267	-3.5259546777	 0.2950082505	 0.125335
H	-0.206766922	-3.8839587688	 1.2446895308	 0.110452
H	-1.0165747219	-2.2741454137	 3.0801777806	 0.123412
H	-2.5346941409	-1.9663175926	 2.1019393741	 0.124496
116.6333	164.5391	183.0701	200.9535	219.1832	287.8897	337.6327	399.8473	454.6856	479.8376	509.2097	578.9128	631.2925	744.3295	763.507	812.0576	868.1538	880.0669	900.4041	947.9357	965.3424	983.8623	1001.5128	1039.1888	1048.7486	1064.3127	1108.5464	1112.2191	1177.4517	1185.3077	1231.407	1289.7618	1338.5008	1378.8511	1416.6437	1430.0055	1447.0956	1472.5409	1489.8726	1499.5703	1535.0139	3035.2038	3100.1193	3108.274	3120.6091	3126.5477	3133.229	3203.7873	3211.7279	3227.7787	3796.5132
CC12CC1(O)C1(CC1)O2	C[C@@]12C[C@]1(O)C1(CC1)O2	
InChI=1S/C7H10O2/c1-5-4-7(5,8)6(9-5)2-3-6/h8H,2-4H2,1H3	InChI=1S/C7H10O2/c1-5-4-7(5,8)6(9-5)2-3-6/h8H,2-4H2,1H3/t5-,7-/m1/s1
