20
gdb 72337	2.27063	2.09137	1.52962	1.8523	82.26	-0.2227	0.0118	0.2345	967.8343	0.172621	-365.978001	-365.970581	-365.969637	-366.009248	30.786	
C	-0.0343403651	 1.4641174722	-0.0103038851	-0.481923
C	-0.0221126655	-0.0574433952	-0.0196341421	 0.335946
C	-1.3516003484	-0.6969564921	-0.4992500739	-0.337242
C	-1.6781796294	-1.695991166	 0.5907619935	-0.058973
C	-0.7720040617	-1.728291432	 1.5727507112	-0.087018
C	 0.3324393635	-0.7477288353	 1.329897442	-0.043873
N	 1.6841605571	-1.2443417159	 0.7990481042	-0.155744
C	 1.4113562688	-2.1096159103	-0.3643892184	-0.257808
C	 1.2955041703	-0.6526555693	-0.5488465587	-0.073232
H	 0.9003823006	 1.8651972546	 0.3956311706	 0.123328
H	-0.158146358	 1.8643465511	-1.0236236579	 0.115164
H	-0.859831209	 1.8441603272	 0.6015801017	 0.116899
H	-2.1511465129	 0.0476908555	-0.6120527696	 0.10287
H	-1.247650333	-1.1847210549	-1.4775267393	 0.107732
H	-2.5725189998	-2.3109283016	 0.5553121035	 0.096443
H	-0.8155124882	-2.3765740915	 2.441023843	 0.097533
H	 0.5379249246	-0.0854279711	 2.1751557229	 0.079426
H	 2.3143175838	-2.583770164	-0.737755364	 0.117277
H	 0.5319478913	-2.7464845429	-0.3686946969	 0.117359
H	 2.0140701609	-0.0860968885	-1.1358245466	 0.085836
164.159	227.4945	241.8096	275.9328	322.2659	390.7244	451.918	525.4931	598.8463	646.0815	724.9272	747.882	782.3693	791.9781	858.7705	914.5809	931.7077	956.8606	959.6318	977.123	985.6408	1002.3948	1025.5935	1058.7674	1113.5435	1118.3364	1133.1676	1143.4958	1180.3041	1204.7882	1221.7978	1251.135	1255.8305	1303.216	1325.4099	1369.1715	1385.4397	1411.0924	1480.6051	1492.6889	1496.4002	1498.4233	1666.752	3010.2351	3022.0978	3038.5759	3069.4549	3086.7483	3097.6646	3118.4729	3138.7516	3172.62	3201.1754	3201.6715
CC12CC=CC1N1CC21	C[C@]12CC=C[C@H]1N1C[C@@H]21	
InChI=1S/C8H11N/c1-8-4-2-3-6(8)9-5-7(8)9/h2-3,6-7H,4-5H2,1H3	InChI=1S/C8H11N/c1-8-4-2-3-6(8)9-5-7(8)9/h2-3,6-7H,4-5H2,1H3/t6-,7+,8+,9?/m1/s1
