13
gdb 132203	1.95908	1.88293	0.96159	8.2058	64.21	-0.2337	-0.013	0.2207	1096.8109	0.090385	-494.093369	-494.085902	-494.084958	-494.125374	28.243	
N	 0.1096793115	 1.3929697539	 0.1583865993	-0.588868
C	-0.0149523774	 0.018982955	 0.03717496	 0.426648
C	-1.1644015417	-0.6948889413	 0.0122338665	-0.307885
C	-1.1530451374	-2.1565071775	-0.023323986	 0.390547
O	-2.1575737422	-2.8341329228	-0.0390125089	-0.360642
N	 0.1360596826	-2.7758242816	-0.0562826569	-0.387014
C	 1.1540217657	-2.0332951285	-0.0311940253	 0.407992
F	 2.3797487191	-2.5412794684	-0.0345184024	-0.068339
N	 1.1894172445	-0.6672841899	-0.0039499752	-0.423643
H	 0.8088232734	 1.8143836917	-0.4404076606	 0.258803
H	-0.7720604212	 1.8807304632	 0.0872728089	 0.270559
H	-2.1252614299	-0.1973299318	 0.0091201561	 0.106395
H	 2.0619894529	-0.1984219119	 0.1850179545	 0.275445
129.4582	181.5414	225.0829	303.9988	324.5655	380.4662	442.2551	496.6552	532.2369	611.7742	621.2754	637.5458	688.3267	733.6591	765.2491	850.1641	919.903	1028.0871	1064.0555	1137.3204	1194.8639	1243.0659	1298.7878	1426.4248	1521.5298	1641.897	1678.269	1750.6349	1796.3631	3219.5037	3545.721	3633.4973	3650.4224
NC1=CC(=O)N=C(F)N1	Nc1cc(=O)nc(F)[nH]1	
InChI=1S/C4H4FN3O/c5-4-7-2(6)1-3(9)8-4/h1H,(H3,6,7,8,9)	InChI=1S/C4H4FN3O/c5-4-7-2(6)1-3(9)8-4/h1H,(H3,6,7,8,9)
