20
gdb 103431	2.34699	1.50347	1.27925	1.3449	73.99	-0.2343	0.0667	0.301	1101.22	0.170109	-440.236977	-440.2279	-440.226955	-440.270249	35.347	
C	-0.0694383703	 1.5574349914	 0.1125744686	-0.410969
C	 0.0509920457	 0.0288391522	 0.0663834325	-0.221716
C	 0.6909088938	-0.4922427188	-1.2147451688	 0.373956
O	 2.0314074287	-0.0569922246	-1.3773177573	-0.492997
C	 0.6894035425	-2.0044971241	-1.4625782746	-0.089463
N	-0.7316350954	-2.4079873587	-1.6037480771	-0.369008
C	 0.0054929667	-1.8565700582	-2.7717650917	-0.086395
C	-0.1231558673	-0.3398438352	-2.5868463472	 0.07293
O	-1.4261187805	 0.1746815299	-2.5689289818	-0.433679
H	 0.9122317142	 2.0455366419	 0.0808494077	 0.101164
H	-0.6681034003	 1.9232152188	-0.7259909054	 0.142762
H	-0.5500005841	 1.8808786938	 1.0405877389	 0.115811
H	 0.6499200908	-0.3279952683	 0.9138103694	 0.096865
H	-0.9401312287	-0.4235056171	 0.1653619199	 0.107281
H	 2.0285007115	 0.9057973505	-1.4018250227	 0.280277
H	 1.4529260107	-2.7075012058	-1.1540308638	 0.099045
H	-0.7584447824	-3.4210342593	-1.7022485054	 0.237024
H	 0.1023228579	-2.4271592559	-3.687116191	 0.095385
H	 0.4662917361	 0.2420703191	-3.2986213144	 0.088281
H	-1.9554840697	-0.4848952119	-2.0995416857	 0.293447
100.5075	127.177	183.6777	241.3138	268.7004	285.119	295.9083	341.7404	386.1106	474.3643	521.0086	553.6546	630.9932	644.9889	767.6766	781.0248	843.4805	848.4355	917.7315	938.2232	966.1846	980.6555	1014.5794	1026.6742	1083.9058	1096.8326	1098.5459	1128.7174	1176.3916	1190.6367	1203.6252	1269.9491	1282.7473	1303.5162	1320.7011	1337.5899	1381.4804	1398.3982	1416.545	1433.1202	1481.5893	1507.2478	1510.3266	3028.8334	3031.5185	3081.9859	3095.7859	3099.348	3123.4923	3186.9058	3202.4302	3495.0352	3750.8274	3811.2296
CCC1(O)C2NC2C1O	CC[C@@]1(O)[C@H]2N[C@H]2[C@H]1O	
InChI=1S/C6H11NO2/c1-2-6(9)4-3(7-4)5(6)8/h3-5,7-9H,2H2,1H3	InChI=1S/C6H11NO2/c1-2-6(9)4-3(7-4)5(6)8/h3-5,7-9H,2H2,1H3/t3-,4+,5-,6-/m1/s1
