14
gdb 130383	3.63054	1.11158	0.85102	9.4352	83.93	-0.1562	-0.0661	0.0901	1255.7317	0.100077	-469.951243	-469.943023	-469.942079	-469.984579	29.533	
N	 0.1921171451	 1.3959068144	 0.0069198761	-0.504059
C	 0.0051548442	 0.069712294	 0.000670191	 0.189771
N	 0.9698254197	-0.7960072204	-0.0116599755	-0.319664
H	 2.013320927	-0.5925847531	-0.0184027636	 0.269707
C	 0.9475389875	-2.180614711	-0.0194710554	 0.339581
N	-0.0521300739	-3.0239290571	-0.016688371	-0.258087
O	 0.591708389	-4.2477277056	-0.0287201049	-0.173173
C	 1.9532266491	-4.0865900541	-0.0381543408	-0.115893
C	 2.2851423439	-2.7338482927	-0.0326622212	 0.196425
O	 3.2987550184	-1.9702177276	-0.0360778833	-0.545348
H	 1.1151970408	 1.7996110181	 0.0021574169	 0.297553
H	-0.5957717973	 2.0183859157	 0.0163743746	 0.298198
H	-1.0162417052	-0.2959381318	 0.0063212218	 0.195951
H	 2.5151418916	-5.0049444389	-0.0479319646	 0.129039
75.326	110.3363	160.8038	218.915	268.784	293.382	399.6337	400.633	543.5464	577.1736	604.0822	666.264	708.932	745.8921	825.8067	921.8353	936.5175	968.602	1064.1488	1077.6964	1088.374	1198.8085	1240.6961	1307.7577	1332.3155	1340.9412	1442.7504	1591.301	1648.579	1684.3264	1760.4037	2877.9125	3209.6402	3279.4895	3612.915	3744.3307
NC=[NH+]C1=NOC=C1[O-]	[NH2]=CNC1=NO[CH]C1=O	
InChI=1S/C4H5N3O2/c5-2-6-4-3(8)1-9-7-4/h1-2,8H,(H2,5,6,7)	InChI=1S/C4H5N3O2/c5-2-6-4-3(8)1-9-7-4/h1-2H,5H2,(H,6,7)
