17
gdb 85763	2.99453	1.22772	0.91982	2.3933	72.96	-0.2545	-0.0264	0.2281	1242.7731	0.134954	-455.169516	-455.160233	-455.159288	-455.204164	32.764	
C	-0.0052876993	 1.4752139885	-0.0130370845	-0.440602
C	-0.016837938	-0.0269802491	 0.0493981084	 0.367701
N	-0.0301429786	-0.6436047395	 1.1641752061	-0.498479
N	-0.0063303164	-0.6724101187	-1.1925210482	-0.148632
C	-0.0173930759	-2.1119341003	-1.5141688909	-0.203207
C	 0.0133700572	-1.7210722243	-3.0150129246	-0.020044
O	-1.1033540806	-2.1759392456	-3.7310065677	-0.42367
C	-0.0517389826	-0.2542540947	-2.5208959357	 0.392394
O	-0.1456407184	 0.8241185174	-3.0402613891	-0.362073
H	 0.89095203	 1.8357538344	-0.5268175191	 0.146545
H	-0.8613780534	 1.8481198509	-0.5818288438	 0.153221
H	-0.030910554	 1.8635104434	 1.0044690295	 0.144754
H	-0.0396216983	-1.6576511729	 1.036986303	 0.21584
H	 0.8535416453	-2.6554945296	-1.1391768997	 0.128638
H	-0.9431546996	-2.6166332774	-1.226369779	 0.141117
H	 0.962567474	-1.9623644845	-3.5125031879	 0.103175
H	-1.2073230614	-1.609256558	-4.5040462667	 0.303321
67.5144	79.6473	149.2727	163.2178	190.4447	200.6658	292.2273	350.5433	395.0718	439.3471	560.0108	581.5418	622.0911	771.1474	791.7319	879.9729	898.7649	946.026	985.9432	1047.0276	1077.6142	1094.4576	1145.8388	1154.4122	1180.4602	1211.0858	1250.0044	1310.4275	1348.658	1374.509	1410.0686	1426.7502	1461.5951	1479.2438	1511.2	1714.1476	1877.0174	3016.2891	3057.0589	3060.5317	3117.5157	3120.0658	3167.4059	3454.4242	3805.0395
CC(=N)N1CC(O)C1=O	C[C]([NH])N1C[C@@H](O)C1=O	
InChI=1S/C5H8N2O2/c1-3(6)7-2-4(8)5(7)9/h4,6,8H,2H2,1H3	InChI=1S/C5H8N2O2/c1-3(6)7-2-4(8)5(7)9/h4,6,8H,2H2,1H3/t4-/m1/s1
