14
gdb 60777	3.31911	0.93784	0.79498	1.6732	62.81	-0.284	-0.0641	0.2198	1375.3977	0.097681	-510.985841	-510.976691	-510.975747	-511.021019	30.975	
O	-0.1211211884	 1.4359249102	 0.0508632256	-0.402356
C	 0.0417918454	 0.0661014721	 0.1271430457	-0.056449
C	 0.7410862578	-0.4824312128	-1.1207521472	 0.125908
O	 1.1054669467	 0.2696346941	-1.9876293467	-0.242552
C	 0.8422002675	-0.3522241698	 1.3684089594	 0.411186
O	 1.4403551287	 0.3722519597	 2.1034859593	-0.308026
O	 0.7616411589	-1.7181998999	 1.4876803475	-0.212561
C	 1.4136778105	-2.3187937389	 2.5438291606	 0.118685
N	 1.367630939	-3.5710823411	 2.6184796224	-0.413917
H	 0.3602303546	 1.7193713089	-0.7434012169	 0.304181
H	-0.9265332659	-0.4574380944	 0.1993688052	 0.140359
H	 0.885476827	-1.5760063867	-1.1706210546	 0.136762
H	 1.9007851124	-1.5996409916	 3.202043566	 0.152077
H	 1.8802158659	-3.89032649	 3.4393943336	 0.246704
50.8952	87.7367	111.5245	140.4768	153.7522	276.0466	317.3072	332.2496	392.6638	441.8998	526.3429	640.7226	742.8413	775.4237	854.2608	859.8841	953.7807	1001.9237	1027.0708	1070.5115	1146.1026	1194.7141	1228.7684	1256.7782	1342.7147	1386.8844	1388.3928	1423.3056	1749.6076	1813.6675	1874.9709	2978.3966	2993.6532	3144.4692	3509.9876	3687.0932
OC(C=O)C(=O)OC=N	O[C@@H](C=O)C(=O)O[CH][NH]	
InChI=1S/C4H5NO4/c5-2-9-4(8)3(7)1-6/h1-3,5,7H	InChI=1S/C4H5NO4/c5-2-9-4(8)3(7)1-6/h1-3,5,7H/t3-/m0/s1
