18
gdb 95872	2.43166	1.34558	1.08987	3.5882	71.59	-0.2619	0.0309	0.2928	1152.7075	0.148955	-439.102147	-439.093763	-439.092819	-439.135142	31.611	
O	-0.0730582603	 1.466118585	 0.0958989871	-0.42678
C	 0.040397011	 0.0540743558	 0.0297031805	 0.094917
C	 0.7351972802	-0.5038942349	 1.2808102149	-0.101642
O	 0.7471793569	-1.9221050203	 1.2849673595	-0.23443
C	-0.5505026489	-2.4690115856	 1.2978985025	-0.078669
C	-1.3619225568	-2.0528783213	 0.0492739474	-0.180942
C	-1.3765223591	-0.5097897679	-0.0641381478	-0.223374
C	-0.8156149591	-2.6748633765	-1.1614665877	 0.284189
N	-0.3947765593	-3.1644858959	-2.1200945544	-0.328008
H	 0.8037764641	 1.8464399071	-0.0175466853	 0.289733
H	 0.610463093	-0.258795614	-0.8577013741	 0.099265
H	 1.7823488948	-0.1879894455	 1.3222606426	 0.106163
H	 0.2207824284	-0.1108142243	 2.1736771029	 0.096897
H	-0.4336921395	-3.5540443084	 1.3447684754	 0.130737
H	-1.1076893359	-2.1359489215	 2.1893788352	 0.098342
H	-2.3898383245	-2.416303657	 0.1668580815	 0.129099
H	-1.965154933	-0.106612618	 0.7682936625	 0.116124
H	-1.8541489823	-0.1873459768	-0.9925970128	 0.128378
99.2209	116.3587	204.5444	259.8525	267.2531	330.4078	355.1682	403.2903	413.2622	467.5024	528.3895	608.4203	737.0797	784.4302	887.0141	895.728	943.4532	960.5669	988.8827	1066.6328	1093.4873	1105.8618	1121.768	1158.5752	1207.4441	1221.5633	1262.6278	1295.5922	1321.3617	1338.906	1344.6992	1359.6976	1394.2549	1411.2319	1444.362	1485.8358	1487.5955	1503.0065	2356.8545	2969.5105	2974.4834	3000.7327	3041.6354	3051.1684	3080.7615	3105.6859	3107.1075	3820.5303
OC1COCC(C1)C#N	O[C@H]1COC[C@@H](C1)C#N	
InChI=1S/C6H9NO2/c7-2-5-1-6(8)4-9-3-5/h5-6,8H,1,3-4H2	InChI=1S/C6H9NO2/c7-2-5-1-6(8)4-9-3-5/h5-6,8H,1,3-4H2/t5-,6+/m0/s1
