16
gdb 66037	2.3188	1.38607	1.12442	3.9995	73.97	-0.2836	-0.0083	0.2753	1120.9058	0.125183	-396.940448	-396.931827	-396.930883	-396.973749	31.741	
N	-0.0850716202	 1.4742936026	 0.0170031489	-0.535413
C	 0.0249165585	 0.0269368602	-0.0423704336	 0.129642
C	 0.2085078078	-0.5614163312	 1.3924015357	-0.244598
C	-1.3296321461	-0.7086147241	 1.505012064	-0.237346
C	-1.4096331185	-0.6301092162	-0.0499524096	-0.157176
C	-2.4801230062	 0.1219544857	-0.677299039	 0.286618
N	-3.3197919477	 0.7380347914	-1.179412409	-0.324969
C	 0.9468793195	-0.4647288594	-1.074992612	 0.226332
N	 1.6847616924	-0.8306977293	-1.8870569534	-0.330137
H	 0.8260100076	 1.8900890818	 0.185626302	 0.248733
H	-0.435862471	 1.8477730433	-0.860867721	 0.258939
H	 0.7216523375	-1.5246196763	 1.3695612648	 0.132466
H	 0.7067254348	 0.1042883454	 2.0976411125	 0.126974
H	-1.7196643175	-1.6204128348	 1.9564269688	 0.126573
H	-1.7922408395	 0.1614730897	 1.9689388974	 0.148921
H	-1.3562586213	-1.6275572187	-0.4929756665	 0.144443
88.8964	133.7867	150.6429	197.1265	245.3817	296.2607	361.7075	383.799	482.2399	504.4104	559.0952	587.2915	622.707	730.6316	794.3118	854.5104	924.8662	939.1917	959.8733	975.7393	1056.3734	1102.1696	1139.1981	1183.885	1226.1511	1262.1923	1272.2197	1285.1438	1296.4809	1355.9319	1473.6966	1490.287	1657.0372	2341.2732	2356.1805	3083.7049	3090.0907	3101.9639	3143.5612	3166.6636	3494.4837	3577.7512
NC1(CCC1C#N)C#N	N[C@]1(CC[C@H]1C#N)C#N	
InChI=1S/C6H7N3/c7-3-5-1-2-6(5,9)4-8/h5H,1-2,9H2	InChI=1S/C6H7N3/c7-3-5-1-2-6(5,9)4-8/h5H,1-2,9H2/t5-,6+/m0/s1
