19
gdb 51732	3.35805	0.96124	0.82238	3.7351	76.83	-0.2441	-0.0219	0.2222	1407.3335	0.157371	-422.996862	-422.987828	-422.986884	-423.031931	32.424	
O	-0.3423928562	 0.1107212648	 0.0530549452	-0.240525
C	-0.0842748261	 1.2866970754	 0.0051722179	 0.152248
C	 1.318512788	 1.8515817059	-0.0891262814	-0.293526
C	 1.4770725347	 2.7726297525	-1.2991499463	 0.056056
O	 0.597716324	 3.9227289765	-1.2258180374	-0.300374
C	 1.7035418634	 4.8510297336	-1.310683657	-0.135746
C	 2.6970191923	 3.6951327973	-1.3556312454	 0.291635
C	 4.0154483042	 3.5658373296	-0.657240771	-0.324243
C	 3.9443112426	 3.5581202294	-2.1686169584	-0.32399
H	-0.8856185587	 2.0558912781	 0.0253639942	 0.099316
H	 1.515711857	 2.4372528765	 0.8184255901	 0.120667
H	 2.0280099968	 1.019393196	-0.1366709886	 0.117349
H	 1.3003450495	 2.2090565327	-2.226495975	 0.088812
H	 1.6486068807	 5.4681429951	-2.2168423183	 0.106415
H	 1.7564567629	 5.5061735335	-0.4317305354	 0.105805
H	 4.4173141177	 4.4466252481	-0.1661962997	 0.119059
H	 4.2433397063	 2.6327250886	-0.1520504339	 0.121694
H	 4.1179150354	 2.6174918167	-2.6821476044	 0.120623
H	 4.3015943356	 4.4310986098	-2.7057613953	 0.118725
53.2486	68.7486	84.3313	143.0546	236.66	252.2309	318.1842	427.6462	432.3344	531.6535	566.9862	774.3648	809.292	835.3973	866.778	888.1028	921.0305	941.4164	977.282	1018.3111	1046.7586	1060.394	1079.3885	1088.2413	1088.6251	1122.3032	1152.1952	1187.8468	1218.4809	1247.8435	1260.0131	1301.9831	1329.8564	1377.5906	1414.5874	1421.8771	1449.8969	1463.6609	1508.7813	1526.02	1829.1074	2909.7822	2997.7633	3007.7365	3028.2835	3048.5578	3097.256	3122.9441	3126.5981	3200.876	3215.4567
O=CCC1OCC11CC1	O=CC[C@H]1OCC21CC2	
InChI=1S/C7H10O2/c8-4-1-6-7(2-3-7)5-9-6/h4,6H,1-3,5H2	InChI=1S/C7H10O2/c8-4-1-6-7(2-3-7)5-9-6/h4,6H,1-3,5H2/t6-/m1/s1
