17
gdb 73707	2.75888	2.07067	1.40279	0.9652	66.89	-0.2437	0.0651	0.3088	916.8082	0.136383	-458.892819	-458.885895	-458.884951	-458.923737	28.183	
C	 0.0205435351	 1.521092193	-0.1146655551	-0.476614
C	-0.0025040315	 0.016179534	-0.0155367882	 0.436967
O	 0.3598904182	-0.544411558	-1.2630595082	-0.307084
C	-0.1282028583	-1.8519780577	-1.4168581232	 0.00877
O	 0.1214863304	-2.6530839113	-0.2856444672	-0.260554
C	-0.2046436175	-1.9497859578	 0.8811283857	 0.115596
C	 0.6192738394	-0.681241703	 1.2369665831	-0.036786
O	-0.5295809889	-0.2211665718	 2.0373190426	-0.305926
C	-1.1469004182	-0.7041007339	 0.7967304416	-0.086
H	 1.0071651241	 1.8571695705	-0.44741454	 0.130056
H	-0.7152388541	 1.8651800562	-0.8476122296	 0.123949
H	-0.2018665007	 1.9631402099	 0.8572294467	 0.143273
H	-1.2160249431	-1.8188157151	-1.6025356284	 0.090515
H	 0.3869203868	-2.3029200876	-2.266835255	 0.126181
H	-0.3920212988	-2.640649407	 1.7025416602	 0.10614
H	 1.6167310894	-0.5898276272	 1.6664345411	 0.094857
H	-2.2323935423	-0.6301063733	 0.7224578939	 0.09666
202.1835	219.8773	265.949	309.8208	371.3758	437.3433	469.3973	558.9095	575.9538	658.051	747.486	782.6637	843.6069	870.1963	898.9178	907.9079	935.5703	1001.6273	1045.4995	1057.6564	1102.9545	1128.8575	1144.1254	1144.762	1170.405	1201.1405	1225.3171	1235.2719	1263.3107	1285.429	1327.4672	1365.9146	1406.0498	1447.4888	1489.5155	1491.6996	1521.2664	2949.7773	3049.2626	3111.8886	3112.5994	3117.9647	3124.3011	3136.5576	3151.986
CC12OCOC3C1OC23	C[C@@]12OCO[C@H]3[C@@H]1O[C@@H]23	
InChI=1S/C6H8O3/c1-6-4-3(5(6)9-4)7-2-8-6/h3-5H,2H2,1H3	InChI=1S/C6H8O3/c1-6-4-3(5(6)9-4)7-2-8-6/h3-5H,2H2,1H3/t3-,4-,5+,6+
