17
gdb 70178	3.6386	1.32307	1.09079	3.8244	75.23	-0.2449	-0.063	0.1819	1110.699	0.135557	-421.848787	-421.840895	-421.839951	-421.881192	30.36	
C	 0.0963037696	 1.5674183176	-0.0467707136	-0.484764
C	 0.0582124374	 0.0602341731	 0.0123377986	 0.360068
O	-0.7723356797	-0.4912378894	 1.0655705264	-0.287858
C	 0.6375701707	-0.6814139264	 1.1509648923	-0.015763
C	 1.1524910881	-2.0878084967	 0.9723446667	-0.367918
C	 0.6556767682	-2.8102975833	-0.281163671	 0.372294
O	 0.6851600648	-4.0211766034	-0.3573698607	-0.327508
C	 0.2057986195	-1.9713661692	-1.4125296972	-0.174803
C	-0.0426812018	-0.6623434882	-1.286246274	-0.073815
H	 0.956032547	 1.9134661401	-0.6304348157	 0.128606
H	-0.8114119944	 1.9558201647	-0.5213394105	 0.133429
H	 0.1629750699	 1.989126367	 0.9584419334	 0.135292
H	 1.1184294276	-0.1020023608	 1.9408718543	 0.094439
H	 2.2490495189	-2.0581570925	 0.9076111969	 0.136818
H	 0.9130214972	-2.7087754793	 1.8412099217	 0.145283
H	 0.0719131049	-2.4914042929	-2.3556265805	 0.116899
H	-0.3577618577	-0.0790090205	-2.1483903872	 0.109299
70.1027	183.7754	226.6106	246.087	314.1593	361.3256	411.9913	461.0377	482.863	594.2937	629.6394	689.4757	731.3787	748.0667	821.4295	863.3337	916.6276	948.4493	992.2224	1016.5941	1051.1638	1080.7363	1122.0333	1161.6828	1213.1772	1239.1094	1253.0497	1319.294	1350.8259	1413.672	1415.5814	1438.4807	1459.7494	1486.1138	1497.3483	1685.9018	1778.0683	3028.6257	3036.6994	3088.2014	3095.0986	3099.548	3130.8551	3155.1326	3192.8168
CC12OC1CC(=O)C=C2	C[C@]12O[C@H]1CC(=O)C=C2	
InChI=1S/C7H8O2/c1-7-3-2-5(8)4-6(7)9-7/h2-3,6H,4H2,1H3	InChI=1S/C7H8O2/c1-7-3-2-5(8)4-6(7)9-7/h2-3,6H,4H2,1H3/t6-,7+/m0/s1
