17
gdb 25709	5.01397	0.78129	0.68163	3.4299	81.95	-0.2177	0.0348	0.2526	1616.3131	0.136549	-380.889327	-380.880264	-380.879319	-380.92557	31.622	
C	 0.3343509016	 1.3053677311	-0.8538787837	-0.497198
C	 0.1219310914	-0.0173019794	-0.2820643672	 0.060749
C	-0.0429310555	-1.1096365216	 0.1966550294	 0.073949
C	-0.2408628641	-2.4342137605	 0.7783812667	-0.474255
C	-1.5178543623	-3.1061623634	 0.3517130922	 0.292777
C	-2.4964525029	-2.6496693339	-0.4906788802	-0.166103
N	-3.4380772477	-3.6565128104	-0.5339409948	-0.241976
C	-2.9922240593	-4.6597324116	 0.2718124268	 0.009047
N	-1.8382340933	-4.3622121565	 0.8216908077	-0.309303
H	 1.2800087652	 1.7387230408	-0.5094690453	 0.148012
H	 0.3692111912	 1.2683288459	-1.948506566	 0.144269
H	-0.466612935	 1.9978571181	-0.5715456179	 0.144287
H	 0.6059098603	-3.0845438332	 0.5197592932	 0.142552
H	-0.2252550646	-2.3652843145	 1.8746699699	 0.142549
H	-2.6032673665	-1.7323610139	-1.0429078041	 0.137158
H	-4.2933315411	-3.6476892977	-1.0631625051	 0.265346
H	-3.5475752875	-5.5745423894	 0.4166118086	 0.128139
18.1463	41.1101	75.7912	200.4102	236.4952	251.3885	341.0083	380.9758	452.4855	513.3555	652.4894	687.022	720.1215	738.9586	782.7616	817.6288	949.7214	954.899	982.7395	1053.5088	1054.8665	1090.2382	1134.9449	1164.5065	1215.0909	1227.9316	1243.6962	1344.8825	1365.2338	1415.6633	1455.5529	1466.0378	1479.571	1480.3338	1526.3087	1602.4376	2375.9332	3010.7713	3024.4226	3031.6257	3083.3522	3084.5862	3249.0448	3290.0677	3669.8543
CC#CCC1=CNC=N1	CC#CCc1c[nH]cn1	
InChI=1S/C7H8N2/c1-2-3-4-7-5-8-6-9-7/h5-6H,4H2,1H3,(H,8,9)	InChI=1S/C7H8N2/c1-2-3-4-7-5-8-6-9-7/h5-6H,4H2,1H3,(H,8,9)
