16
gdb 82688	2.85238	1.59255	1.24184	5.1237	74.13	-0.2717	0.0208	0.2925	1006.0775	0.125322	-400.712661	-400.705208	-400.704264	-400.744488	28.875	
O	-0.040175474	 1.4804324073	 0.1400145692	-0.428057
C	-0.0230044456	 0.0796947626	 0.0890992882	 0.072203
C	 0.2188531109	-0.7341099507	 1.3965784416	-0.137516
C	-0.8284018138	-0.1583807162	 2.3880699157	-0.230116
C	-1.8782995618	-0.7965257638	 1.4802394362	-0.108119
C	-0.87959725	-1.7498452162	 0.8948513195	-0.123934
C	-1.3871680081	-0.5952144693	 0.0264436723	 0.227901
C	-2.2730366265	-0.6612225975	-1.0856403199	 0.159829
N	-2.9823205419	-0.713192513	-1.9992007515	-0.353209
H	 0.8387359897	 1.8123570707	-0.0667388363	 0.291263
H	 0.6107110573	-0.2958156395	-0.7237290662	 0.088836
H	 1.2279682704	-0.9842460537	 1.7141495293	 0.081568
H	-0.7898989451	-0.6715152155	 3.3519797052	 0.109126
H	-0.8387531695	 0.9254320631	 2.5250645179	 0.11884
H	-2.9320967207	-0.9619224874	 1.6604631313	 0.113051
H	-0.8949670712	-2.8084929608	 0.6866602375	 0.118334
135.1902	154.9375	191.0594	234.876	314.9536	434.8747	503.3115	545.2493	580.4116	624.1158	711.6618	769.9424	811.3752	856.7437	873.4554	922.921	961.0767	972.984	995.4577	1008.7485	1041.9693	1102.6535	1130.6671	1147.0439	1149.3236	1199.1831	1223.1426	1232.4472	1253.4813	1290.5215	1310.8197	1376.5824	1446.4976	1492.3168	2346.9791	3034.8873	3066.1254	3126.1215	3150.3131	3211.9385	3244.8594	3828.989
OC1C2CC3C2C13C#N	O[C@H]1[C@H]2C[C@@H]3[C@H]2[C@]13C#N	
InChI=1S/C7H7NO/c8-2-7-4-1-3(5(4)7)6(7)9/h3-6,9H,1H2	InChI=1S/C7H7NO/c8-2-7-4-1-3(5(4)7)6(7)9/h3-6,9H,1H2/t3-,4+,5-,6-,7+/m0/s1
