17
gdb 105559	2.07804	1.41258	1.22845	3.3277	74.01	-0.2663	-0.0527	0.2136	1135.3208	0.134635	-418.014787	-418.005602	-418.004657	-418.049066	32.811	
C	-0.0571518277	 1.6008820753	-0.0498269447	-0.403847
C	 0.2017895198	 0.0967261921	-0.1531321736	-0.207076
C	 0.6960807483	-0.5206897534	 1.1617383622	 0.035057
N	-0.3156510924	-0.5502274134	 2.2639187438	-0.346289
C	-0.1672129507	-2.0122171078	 2.4978144932	-0.279953
C	 0.6759914763	-2.091502455	 1.2235958259	 0.362046
O	 1.0970560236	-2.9475149157	 0.5163010787	-0.264615
C	 1.9946960333	 0.0117309803	 1.5766617018	 0.259225
N	 3.0097035959	 0.4320413408	 1.9401794914	-0.334928
H	 0.8598189078	 2.148013066	 0.1901026349	 0.139862
H	-0.4428143671	 1.9876358119	-0.9970398262	 0.125902
H	-0.7975437659	 1.811662048	 0.7277210424	 0.132331
H	-0.720520784	-0.4271347756	-0.4248077088	 0.114584
H	 0.9424246841	-0.1232078443	-0.9298249991	 0.129331
H	-0.0741903866	 0.0275141765	 3.0605349857	 0.244371
H	 0.4151464614	-2.2966383722	 3.384681551	 0.146356
H	-1.1068183261	-2.5734165135	 2.4948926015	 0.147642
86.8842	96.4433	126.5743	143.8383	186.5856	240.8918	299.5632	350.8308	427.1276	522.1294	546.3155	599.6278	632.6683	702.1454	763.6636	804.9182	899.8771	976.3785	980.7502	1008.6318	1019.0397	1054.3584	1117.6371	1136.327	1173.1289	1180.4263	1278.5303	1299.8648	1361.5201	1375.3236	1411.3187	1472.6859	1473.6009	1497.0307	1507.6475	1931.3518	2337.019	3021.0018	3042.622	3046.6697	3084.3549	3087.5187	3117.7114	3118.9418	3556.4493
CCC1(NCC1=O)C#N	CC[C@]1(NCC1=O)C#N	
InChI=1S/C6H8N2O/c1-2-6(4-7)5(9)3-8-6/h8H,2-3H2,1H3	InChI=1S/C6H8N2O/c1-2-6(4-7)5(9)3-8-6/h8H,2-3H2,1H3/t6-/m0/s1
