13
gdb 24875	3.4819	1.3077	0.95066	3.4517	77.2	-0.2401	-0.0891	0.151	1128.3191	0.092436	-411.838099	-411.831026	-411.830082	-411.869874	26.422	
N	-0.1758300169	 1.3256441993	 0.0090304914	-0.557624
C	 0.0221068646	 0.0637406701	 0.0009501456	 0.362194
N	-1.1165985372	-0.7682160657	 0.0026150357	-0.36329
C	-1.0506130539	-2.1245410809	-0.0052676572	 0.336881
N	 0.0457199346	-2.8170980451	-0.0151368007	-0.317866
C	 1.2074161604	-2.0714092626	-0.0173957557	-0.010201
C	 1.2484968536	-0.7177991623	-0.0101209951	-0.161861
C	-2.3182310417	-2.814065509	-0.0021090475	 0.256188
N	-3.3501796796	-3.3340128236	 0.0006898151	-0.306193
H	 0.7094224875	 1.8280377765	 0.0069502095	 0.223398
H	-2.0104939771	-0.2931521363	 0.0101620888	 0.287205
H	 2.1213395455	-2.6566859912	-0.0256644442	 0.131199
H	 2.1926259101	-0.1862334192	-0.0123672657	 0.11997
128.0306	152.7406	161.0857	354.1543	410.2919	456.1635	489.9144	545.3265	587.7393	650.9681	723.7458	740.7221	762.8022	800.0661	864.4417	934.2988	1002.6421	1007.8595	1077.0645	1137.511	1233.4023	1286.9535	1347.0683	1438.3071	1490.4898	1574.2538	1628.69	1727.5489	2362.7629	3184.3965	3210.4908	3513.077	3589.8259
N=C1NC(=NC=C1)C#N	[NH]C1=CCN=C(N1)C#N	
InChI=1S/C5H4N4/c6-3-5-8-2-1-4(7)9-5/h1-2H,(H2,7,8,9)	InChI=1S/C5H5N4/c6-3-5-8-2-1-4(7)9-5/h1,7H,2H2,(H,8,9)
