20
gdb 54851	2.5796	1.44897	1.35268	3.3691	77.64	-0.2373	0.0282	0.2655	1072.8572	0.172982	-403.186896	-403.178219	-403.177275	-403.221392	32.807	
N	 0.9067141358	-0.1150829773	 1.0365530894	-0.515301
C	 0.1644554532	-0.02253777	-0.1084340094	 0.380288
O	 0.5139028605	 0.6594294082	-1.0537919092	-0.370015
C	-1.1348757338	-0.7919431623	-0.0473201766	-0.137652
C	-1.7794768815	-1.4568505545	-1.232763965	-0.056334
C	-0.9440492441	-1.7430600688	-2.474778467	-0.204061
C	 0.3216517373	-2.4765459096	-1.9663707028	-0.229504
C	-0.0755160948	-3.1272056128	-0.6166090861	-0.214766
C	-1.2488323388	-2.3075242253	-0.0942906274	-0.058765
H	 1.7913871048	 0.364122389	 1.0767048419	 0.258201
H	 0.6631125103	-0.754997482	 1.771692658	 0.259806
H	-1.8321249634	-0.3254632077	 0.6458956684	 0.107046
H	-2.8455850984	-1.3038081879	-1.3621802456	 0.080784
H	-1.5273092649	-2.3912703283	-3.139159974	 0.089838
H	-0.6888028965	-0.8367532781	-3.0284127616	 0.124683
H	 0.6830960816	-3.2184046243	-2.6833945411	 0.091038
H	 1.1296782494	-1.7577269585	-1.8210973705	 0.128181
H	-0.4166095321	-4.1582621892	-0.7667029103	 0.09867
H	 0.7689394022	-3.1715304193	 0.0805575957	 0.08988
H	-1.9198874966	-2.7760105113	 0.6185637432	 0.077982
17.784	129.9298	160.1482	171.8198	218.825	301.577	395.4087	466.1953	543.1451	594.8299	649.8081	693.9994	709.7633	768.6965	811.9253	817.0243	881.4802	887.582	896.0553	983.003	990.1798	1016.7988	1034.8624	1084.475	1092.4109	1106.101	1113.7247	1184.8381	1188.214	1213.6717	1261.6322	1286.3034	1315.5323	1324.406	1329.6644	1361.7009	1385.6846	1437.2334	1485.8673	1493.0365	1514.3325	1609.6377	1783.9147	3030.1984	3037.6085	3062.4537	3072.4507	3103.6315	3123.9286	3125.2914	3153.3018	3167.3087	3600.3656	3740.7198
NC(=O)C1C2CCCC12	NC(=O)[C@H]1[C@H]2CCC[C@@H]12	
InChI=1S/C7H11NO/c8-7(9)6-4-2-1-3-5(4)6/h4-6H,1-3H2,(H2,8,9)	InChI=1S/C7H11NO/c8-7(9)6-4-2-1-3-5(4)6/h4-6H,1-3H2,(H2,8,9)/t4-,5+,6-
