18
gdb 46556	4.04437	1.17338	1.08015	4.8128	71.82	-0.2595	0.0531	0.3126	1152.6475	0.149727	-439.133376	-439.125708	-439.124764	-439.165813	29.61	
O	-0.0431992104	-0.0082462538	-0.0846810684	-0.39059
C	-0.0828061956	 1.1890000452	-0.0450380639	 0.453032
N	-1.1558710582	 2.0170709659	-0.3050748074	-0.367934
C	-0.8930683085	 3.3638506433	 0.1609056392	-0.241457
C	 0.6491744804	 3.3625149474	 0.1407196806	 0.438851
C	 1.3162279103	 4.1108750104	-1.0435332915	-0.278588
C	 1.6086028516	 5.2894022979	-0.0737281452	-0.217552
C	 1.3616829686	 4.3200248159	 1.1171663423	-0.289022
O	 0.9921044766	 1.9783312054	 0.2657943807	-0.277741
H	-2.0730568319	 1.6033795976	-0.263487832	 0.261209
H	-1.3134534321	 4.1232866062	-0.5046326716	 0.121771
H	-1.2765654482	 3.5396176577	 1.1768671827	 0.109623
H	 2.2301955356	 3.5918226567	-1.3414556031	 0.124156
H	 0.7060066338	 4.300163714	-1.9297977959	 0.10553
H	 2.5939386862	 5.752549081	-0.1396803819	 0.111746
H	 0.8514055454	 6.0754966952	-0.1317168734	 0.107785
H	 0.7860012282	 4.6808150548	 1.9734982606	 0.101826
H	 2.2888381681	 3.8670467292	 1.4760495882	 0.127354
89.4782	113.5127	174.1319	282.5766	353.3534	417.1904	445.5581	505.2775	543.0842	689.447	733.7309	772.6637	788.3252	802.4112	871.5796	924.5079	929.5474	947.3885	967.0484	985.6843	1044.0046	1087.9574	1138.5242	1154.5672	1177.2031	1203.2618	1213.9757	1242.1399	1250.2398	1275.1758	1296.1567	1322.218	1359.0039	1435.311	1470.6888	1485.7951	1506.333	1531.2425	1894.7036	2992.1114	3062.752	3067.0574	3072.3607	3076.4514	3114.5122	3123.1553	3135.2929	3653.9154
O=C1NCC2(CCC2)O1	O=C1NCC2(CCC2)O1	
InChI=1S/C6H9NO2/c8-5-7-4-6(9-5)2-1-3-6/h1-4H2,(H,7,8)	InChI=1S/C6H9NO2/c8-5-7-4-6(9-5)2-1-3-6/h1-4H2,(H,7,8)
