21
gdb 65926	3.25414	1.10563	1.10412	3.3749	77.67	-0.2348	0.061	0.2958	1228.8906	0.182547	-424.18949	-424.180641	-424.179697	-424.223338	33.612	
O	-0.3392933402	 1.577532615	-0.0287947397	-0.477017
C	 0.0483312676	 0.2207832226	-0.0094651802	 0.379351
C	 1.0960854551	-0.250584293	-1.0676559136	-0.275818
C	 1.7961247136	-1.0780035419	 0.0439895959	-0.212765
C	 1.0408593385	-0.2353917537	 1.1070129888	-0.275817
C	-1.2289998433	-0.6040243112	-0.036108663	-0.039444
C	-2.3462716694	-0.2430172927	 0.9711862511	-0.089844
O	-3.2986096066	-0.041238398	-0.0924176993	-0.274671
C	-2.2937383474	-0.2574159578	-1.1035641256	-0.089848
H	 0.4547588546	 2.1203710494	-0.0123960686	 0.276496
H	 0.7258090276	-0.7735251841	-1.9535131079	 0.102442
H	 1.7152678232	 0.5907746219	-1.3965474435	 0.0916
H	 1.4810913995	-2.1243751199	 0.0433019005	 0.109894
H	 2.8867948969	-1.0500554334	 0.0714897023	 0.102392
H	 1.6428488123	 0.6106886269	 1.4551529222	 0.0916
H	 0.6259094695	-0.7460570839	 1.9801400675	 0.102444
H	-0.9716658689	-1.6656552263	-0.0222271921	 0.076346
H	-2.6608136843	-1.0397344732	 1.6562382224	 0.091405
H	-2.1636167649	 0.6769580122	 1.5379075998	 0.109923
H	-2.0823135415	 0.6546714748	-1.6730222883	 0.109927
H	-2.5734909722	-1.0636745637	-1.7925314088	 0.091405
74.9926	80.7597	154.2559	188.5339	277.4104	283.4802	323.3678	350.2456	470.4682	483.9118	661.043	677.9936	787.2299	789.0073	864.1271	891.8586	893.3015	930.1739	963.0744	983.7801	987.3211	1034.9363	1045.6916	1049.3964	1089.4712	1099.7547	1122.2335	1167.636	1170.5066	1197.5143	1210.2866	1222.3685	1245.3567	1262.7606	1271.4464	1284.1441	1315.0412	1344.745	1386.763	1429.1947	1472.1654	1487.1334	1504.6294	1507.2876	1533.1385	3013.2715	3022.8443	3043.1488	3048.3932	3062.8493	3066.875	3070.0619	3085.6722	3097.6894	3100.248	3124.2847	3823.4822
OC1(CCC1)C1COC1	OC1(CCC1)C1COC1	
InChI=1S/C7H12O2/c8-7(2-1-3-7)6-4-9-5-6/h6,8H,1-5H2	InChI=1S/C7H12O2/c8-7(2-1-3-7)6-4-9-5-6/h6,8H,1-5H2
