19
gdb 81554	4.14677	1.20362	1.06669	1.979	75.25	-0.2469	0.0676	0.3146	1158.9504	0.159406	-422.939502	-422.931856	-422.930912	-422.971607	30.687	
O	-0.1071119112	 1.4373616121	-0.3190824019	-0.452971
C	 0.0344192544	 0.0720110208	-0.1224354809	 0.194096
C	-0.0267356401	-0.4735361922	 1.3351097025	-0.110017
O	-1.4737552352	-0.0946116696	 1.3498953476	-0.347522
C	-1.2543874969	-0.7863803148	 0.0458970796	-0.090949
C	-0.4328786335	-1.8565603811	 0.7964933526	 0.442794
C	 0.4523528534	-2.9252356076	 0.1117443648	-0.323602
C	-0.5187748081	-4.0101083138	 0.6599047272	-0.213962
C	-1.1287225583	-2.9531945058	 1.626598302	-0.29978
H	-0.8133519231	 1.7023681997	 0.2890512811	 0.287391
H	 0.8213515343	-0.3012067534	-0.7799369181	 0.094494
H	 0.5655537885	-0.2086717993	 2.2126369009	 0.090966
H	-2.1192840894	-0.8956980134	-0.6106875775	 0.094324
H	 0.5748483947	-2.8620722189	-0.9725103878	 0.104161
H	 1.4456432155	-2.9876472043	 0.566990947	 0.107616
H	-1.2355139537	-4.3393042379	-0.0968616027	 0.10592
H	-0.0655767862	-4.8939788766	 1.11292075	 0.101508
H	-0.7145081061	-3.0277839281	 2.6365505235	 0.104022
H	-2.2160633191	-2.9014731359	 1.7039878702	 0.111511
88.6568	162.3103	214.2644	278.0767	324.1254	402.8867	446.3219	562.5014	587.8452	685.0379	740.0248	741.9202	765.9683	809.7579	856.6285	865.4726	886.5204	911.804	937.2505	956.0001	1042.9806	1054.0072	1089.6595	1098.8724	1131.2637	1154.9645	1161.9384	1172.5112	1182.5756	1206.292	1237.2109	1254.2865	1256.2414	1277.5839	1281.9093	1317.5868	1351.1533	1455.0147	1473.2162	1482.5476	1505.0477	3050.3941	3058.7951	3065.3361	3097.2504	3103.1918	3104.3819	3112.2152	3114.7448	3125.6388	3728.8062
OC1C2OC1C21CCC1	O[C@H]1[C@H]2O[C@@H]1C12CCC1	
InChI=1S/C7H10O2/c8-4-5-7(2-1-3-7)6(4)9-5/h4-6,8H,1-3H2	InChI=1S/C7H10O2/c8-4-5-7(2-1-3-7)6(4)9-5/h4-6,8H,1-3H2/t4-,5+,6-
