21
gdb 80391	2.19604	1.60121	1.32648	2.0728	78.46	-0.2252	0.0701	0.2953	1110.3939	0.1795	-424.189617	-424.179885	-424.178941	-424.223082	37.57	
C	 0.1675962941	 1.6216713884	-0.4193424802	-0.428481
C	 0.2423762002	 0.1303269547	-0.1686274421	-0.09655
C	 1.5050576327	-0.6809820235	-0.2880457977	 0.014089
O	 2.6274856667	 0.048022201	 0.2178796838	-0.332528
C	 2.1061409795	-0.0427375672	 1.5940803566	 0.337571
C	 2.900344049	-1.1025199955	 2.3523633994	-0.406272
C	 2.1200277412	 1.2901700383	 2.3276160526	-0.449638
C	 0.7917371143	-0.6230215977	 1.0379230863	 0.245181
O	 0.0729454833	-1.6164107165	 1.6806316126	-0.455035
H	 1.1551695702	 2.0779205913	-0.3296692387	 0.141957
H	-0.1928119507	 1.8090427858	-1.4365276167	 0.114568
H	-0.5167352029	 2.1275682358	 0.2706048741	 0.110122
H	-0.6071052134	-0.4366415254	-0.5506115644	 0.091216
H	 1.6906283885	-1.4777887542	-0.9989774838	 0.104806
H	 3.931595198	-0.763676533	 2.4897023619	 0.116587
H	 2.4587952497	-1.2867607457	 3.3365100813	 0.114622
H	 2.9115736658	-2.0464639342	 1.8029168772	 0.125854
H	 1.5349769528	 2.0541212834	 1.8163659497	 0.122766
H	 1.7137079756	 1.1628240718	 3.3369002419	 0.115145
H	 3.1484007655	 1.6534211795	 2.4272153878	 0.125195
H	-0.69642197	-1.212665347	 2.0965098783	 0.288825
157.7802	165.3127	171.1513	208.9675	227.8838	253.2513	272.2038	284.8054	318.5853	365.5119	419.8148	445.5754	546.1368	601.4233	641.2557	660.4979	778.0068	826.0832	901.1198	928.5851	935.3607	975.2338	1000.1131	1003.2619	1009.3712	1074.8428	1112.5282	1121.1169	1159.8757	1217.2017	1219.2905	1243.2383	1295.8449	1316.2678	1350.1836	1398.9064	1407.0543	1414.5553	1469.0477	1476.1322	1478.2195	1494.7204	1499.289	1507.7442	1513.4707	3032.6529	3039.1854	3045.5083	3087.1875	3099.4082	3111.4382	3115.0811	3129.5277	3133.2148	3154.3397	3179.9484	3796.9561
CC1C2OC(C)(C)C12O	C[C@H]1[C@H]2OC(C)(C)[C@@]12O	
InChI=1S/C7H12O2/c1-4-5-7(4,8)6(2,3)9-5/h4-5,8H,1-3H3	InChI=1S/C7H12O2/c1-4-5-7(4,8)6(2,3)9-5/h4-5,8H,1-3H3/t4-,5+,7+/m0/s1
