19
gdb 62813	2.31169	1.49472	1.32577	2.522	80.52	-0.2536	0.0162	0.2699	1084.8158	0.15924	-382.006224	-381.99744	-381.996496	-382.039723	33.173	
C	-0.0825281444	 1.5164507934	-0.0044337913	-0.474796
C	 0.0156460632	-0.0113027464	 0.0253098609	 0.327825
C	-1.3541631087	-0.5611884901	-0.36901012	-0.476054
N	 1.240157061	-0.6241129068	-0.7405173625	-0.18533
C	 2.0957175944	-0.1223999275	 0.4354654383	-0.212688
C	 0.8577994387	-0.711568753	 1.1582689529	 0.168648
C	 1.0505106012	-1.8676084753	 0.148666877	-0.214191
C	 0.5726612581	-0.7769553298	 2.5779728421	 0.137199
N	 0.3280159465	-0.8179720944	 3.7076720052	-0.342987
H	-0.0552512331	 1.8564502379	-1.0451901277	 0.140496
H	-1.0394258697	 1.830638371	 0.4211862876	 0.131239
H	 0.6994091442	 2.0411804184	 0.5433802704	 0.127192
H	-1.6615265914	-0.1065286186	-1.3162919784	 0.135833
H	-1.4074500616	-1.6413025878	-0.4921221607	 0.126896
H	-2.0915871013	-0.2756856823	 0.3879847296	 0.136969
H	 3.0316799437	-0.6720728707	 0.5479911546	 0.117286
H	 2.2708338163	 0.9492598586	 0.4579666095	 0.120076
H	 0.2070982692	-2.5039648796	-0.10228258	 0.118749
H	 1.9628194637	-2.4574759969	 0.2515198724	 0.117637
84.2345	115.94	128.1614	156.1916	231.921	346.0804	417.8222	439.6307	495.8018	519.9536	556.3887	572.8353	615.9321	697.7221	761.27	809.3809	878.1248	954.5132	958.4998	981.3096	994.0701	995.7493	1061.9745	1077.7329	1127.3259	1138.9098	1166.731	1192.1017	1220.9553	1240.3605	1259.0746	1288.013	1407.4047	1421.5006	1475.6057	1482.6822	1502.0165	1509.8618	1536.8551	1571.586	2343.7575	3046.056	3052.2593	3089.8593	3097.2404	3105.1291	3113.6673	3140.9957	3150.9883	3181.7926	3184.4356
CC1(C)N2CC1(C2)C#N	CC1(C)N2C[C@@]1(C2)C#N	
InChI=1S/C7H10N2/c1-6(2)7(3-8)4-9(6)5-7/h4-5H2,1-2H3	InChI=1S/C7H10N2/c1-6(2)7(3-8)4-9(6)5-7/h4-5H2,1-2H3
