16
gdb 17854	5.19619	1.63054	1.53385	1.4221	64.31	-0.2155	0.0578	0.2734	858.9989	0.130705	-383.66041	-383.653681	-383.652736	-383.691569	25.465	
C	 0.0515538121	 1.3448993494	-0.2385747011	-0.077319
C	 1.5216151225	 1.5147319503	 0.2073708669	-0.359772
C	 1.3286600304	 0.1177857709	 0.7815574063	 0.460375
O	-0.0044635669	-0.0050568958	 0.2916514576	-0.323387
C	 2.1820896423	-1.1222142406	 0.825920962	-0.227706
C	 3.5604345418	-0.7495526621	 1.3526252175	-0.08603
O	 2.9879272832	-0.0555728891	 2.4984381424	-0.285201
C	 1.6734225035	-0.4616275536	 2.109166687	-0.00236
H	-0.6705979623	 2.000982021	 0.2596846801	 0.110647
H	-0.1304174064	 1.3571865102	-1.3180777544	 0.110099
H	 2.2446693327	 1.5882677771	-0.6074945493	 0.114166
H	 1.7169550961	 2.2969973151	 0.9415935707	 0.126526
H	 1.8901659809	-2.0406869247	 0.33462862	 0.109453
H	 4.1556543912	-1.608009313	 1.6842881362	 0.113373
H	 4.1805563491	-0.0882804837	 0.7349534569	 0.105728
H	 0.9652823199	-0.7647002115	 2.8724230412	 0.111407
82.8962	163.2649	195.331	326.2721	428.3664	456.2309	584.1126	747.6109	793.7902	805.7296	873.0305	907.8717	936.3036	946.0199	962.3301	1000.445	1006.361	1015.8484	1060.562	1082.7946	1128.1402	1148.9813	1156.3839	1166.163	1208.8524	1227.205	1228.3594	1263.7132	1335.7434	1352.7607	1447.2152	1490.1063	1517.456	1530.1538	3019.1834	3033.2223	3066.3701	3076.5038	3081.4088	3136.5348	3176.7783	3206.4446
C1CC2(O1)C1COC21	C1C[C@@]2(O1)[C@H]1CO[C@@H]21	
InChI=1S/C6H8O2/c1-2-8-6(1)4-3-7-5(4)6/h4-5H,1-3H2	InChI=1S/C6H8O2/c1-2-8-6(1)4-3-7-5(4)6/h4-5H,1-3H2/t4-,5+,6+/m0/s1
