21
gdb 32971	3.1871	1.01069	0.82099	4.0104	85.64	-0.2103	0.0354	0.2457	1460.158	0.183626	-383.318599	-383.309047	-383.308103	-383.353782	34.344	
C	-0.0784631117	 1.5865106545	 0.0944848688	-0.379969
C	-0.090972285	 0.0562338194	 0.0977527445	-0.158841
C	 0.8126118211	-0.5435622783	 1.1950894212	-0.312371
C	 0.8547435962	-2.0374513747	 1.2170265349	 0.267331
C	 1.7632340381	-2.9296818712	 0.7014377912	-0.16635
N	 1.3816169576	-4.2286213173	 0.9386098334	-0.273552
C	 0.2502105977	-4.1295192095	 1.5944593897	-0.006361
N	-0.1256730914	-2.830621812	 1.7945760297	-0.04042
C	-1.3061296591	-2.3898476122	 2.5074740078	-0.345069
H	 0.9332727359	 1.9732804129	-0.0709803162	 0.11764
H	-0.721201075	 1.9880388127	-0.6948210674	 0.115062
H	-0.4327074836	 1.9898565353	 1.0499776479	 0.112617
H	-1.1194631914	-0.3033357913	 0.2281900878	 0.095481
H	 0.2407004949	-0.3259400718	-0.8745660139	 0.109383
H	 1.83631203	-0.1819729631	 1.0446928701	 0.115958
H	 0.4984209126	-0.1522864691	 2.1729127665	 0.097863
H	 2.6780473751	-2.6980381087	 0.1753188637	 0.100624
H	-0.3493127854	-4.9515139705	 1.9593285315	 0.119518
H	-1.0403625343	-1.7252307542	 3.3354990679	 0.143225
H	-2.001720738	-1.8626907412	 1.8468759785	 0.143207
H	-1.8147906141	-3.2638979297	 2.9186303825	 0.145023
60.2693	77.7699	111.8139	120.369	210.6519	247.8483	266.3896	307.1956	364.7961	414.1734	644.9653	676.5252	694.7806	738.6919	760.3478	800.4813	843.0609	870.0671	897.0388	933.6966	1040.9794	1074.2942	1082.8972	1108.9989	1149.2991	1150.9184	1207.7891	1246.4387	1276.6719	1292.7412	1314.5661	1322.5754	1378.2202	1380.1485	1413.6456	1424.946	1457.3917	1475.7101	1482.9794	1492.1389	1500.5681	1509.2727	1512.8439	1533.3334	1595.7102	3008.0148	3026.8402	3030.0212	3038.0946	3053.6092	3071.5457	3096.2529	3097.6757	3104.7754	3134.5115	3235.6143	3239.3157
CCCC1=CN=CN1C	CCCc1cncn1C	
InChI=1S/C7H12N2/c1-3-4-7-5-8-6-9(7)2/h5-6H,3-4H2,1-2H3	InChI=1S/C7H12N2/c1-3-4-7-5-8-6-9(7)2/h5-6H,3-4H2,1-2H3
