18
gdb 96928	2.51318	1.34678	1.11926	1.3526	75.98	-0.242	0.0154	0.2574	1181.2334	0.145248	-439.046737	-439.037385	-439.036441	-439.080902	33.976	
C	-0.1069688332	 1.4335491192	 0.0733301758	-0.340633
N	-0.0485757198	-0.020562032	 0.1376196146	-0.350202
C	-1.0927509785	-0.684256891	-0.0327367492	 0.388872
O	-2.418259523	-0.2726615831	-0.2428386027	-0.28468
C	-2.8878682065	-1.6298586978	-0.0170600869	-0.020227
C	-2.3493897917	-2.5377989079	-1.0839935204	-0.068945
C	-2.1634219429	-2.1496031531	-2.5335373814	-0.423864
C	-1.4435642518	-2.1345961769	 0.0668866131	 0.225663
O	-0.7828116565	-3.0788612757	 0.8068474919	-0.440823
H	 0.4809096831	 1.7773294581	-0.7849331645	 0.132579
H	-1.1231956696	 1.8346278788	-0.0127946357	 0.13052
H	 0.3653829302	 1.8483843656	 0.969900072	 0.127755
H	-3.7665735073	-1.7523442576	 0.600998753	 0.124453
H	-2.6774269467	-3.564149617	-0.917799547	 0.110055
H	-1.9312287927	-1.0865540114	-2.627337262	 0.13946
H	-1.3505383543	-2.722844635	-2.9893944464	 0.129101
H	-3.077750016	-2.3457413586	-3.1031431932	 0.121877
H	-0.429050823	-2.6462606245	 1.5935752892	 0.299038
83.9237	96.4908	172.178	182.4884	218.4805	231.1878	249.2159	300.5424	349.1245	456.236	523.0682	591.3992	636.6128	743.9193	756.0403	787.9261	892.7575	918.2581	922.8632	959.7241	1044.0165	1052.9865	1075.2466	1117.7673	1120.9086	1132.8024	1171.3891	1209.3921	1269.5777	1351.214	1361.674	1413.386	1438.8806	1480.5937	1492.2344	1493.541	1497.5523	1506.0426	1850.4612	3020.2815	3042.4295	3086.105	3093.1199	3104.486	3119.0767	3135.5095	3216.9608	3786.2389
CN=C1OC2C(C)C12O	CN=C1O[C@H]2[C@@H](C)[C@@]12O	
InChI=1S/C6H9NO2/c1-3-4-6(3,8)5(7-2)9-4/h3-4,8H,1-2H3	InChI=1S/C6H9NO2/c1-3-4-6(3,8)5(7-2)9-4/h3-4,8H,1-2H3/t3-,4+,6+/m1/s1
