14
gdb 10247	3.19348	1.75501	1.14894	2.8041	62.34	-0.2596	-0.04	0.2196	977.0863	0.105413	-415.900481	-415.892058	-415.891113	-415.934323	28.546	
C	 0.0501245265	 1.4879471064	 0.0462850855	-0.514034
C	 0.0077486039	-0.0273300513	 0.001866122	 0.435404
O	-0.050059158	-0.6845286257	 1.0148517774	-0.322521
N	 0.035094707	-0.6707789019	-1.2642176381	-0.176965
C	-0.0859888255	-2.0921573535	-1.2426245171	 0.083777
N	 0.2954957771	-2.8134642185	-2.2051321553	-0.399115
C	 0.0960835739	 0.0612709575	-2.4715125509	 0.175303
O	-0.0416461998	-0.3911242682	-3.5709876008	-0.252382
H	 0.9794385726	 1.8798419909	-0.3779237831	 0.160221
H	-0.7853041822	 1.9400704095	-0.4953933133	 0.157483
H	-0.0061478769	 1.7702825932	 1.0970222676	 0.161051
H	-0.516071807	-2.4271170263	-0.2996493827	 0.147256
H	 0.1059535152	-3.7925875115	-1.9895070659	 0.240528
H	 0.2799181132	 1.1304725295	-2.2881269052	 0.103995
48.4948	76.3479	119.9752	220.9685	257.2558	268.9178	304.6954	422.6361	494.6056	515.8259	596.0255	639.0807	840.1866	868.0985	963.9637	1018.3885	1055.7144	1060.3575	1091.447	1174.0781	1294.7945	1339.7868	1391.3351	1418.8578	1460.4639	1484.2478	1488.9562	1724.8269	1791.3827	1855.217	3022.91	3053.5113	3120.2198	3139.4737	3164.5184	3483.252
CC(=O)N(C=N)C=O	CC(=O)N(C=N)C=O	
InChI=1S/C4H6N2O2/c1-4(8)6(2-5)3-7/h2-3,5H,1H3	InChI=1S/C4H6N2O2/c1-4(8)6(2-5)3-7/h2-3,5H,1H3
