19
gdb 39105	3.44782	1.6942	1.45815	1.8469	73.93	-0.2394	0.0857	0.3251	950.5103	0.162296	-423.004961	-422.998272	-422.997328	-423.035687	27.992	
C	 0.065368823	 1.2781188078	 0.2963370102	-0.064547
C	 1.4344543129	 1.9134554709	-0.0611734181	-0.374978
C	 2.1692286102	 0.6877386829	-0.5195505605	 0.432723
C	 3.441447854	 0.4436060398	-1.3292024535	-0.317177
C	 3.3242880601	-1.1289397338	-1.353308705	-0.222707
C	 2.0431337227	-1.2683292476	-0.4882665792	 0.020403
O	 2.3095098202	-0.3024154385	 0.5684234746	-0.34741
C	 1.1051631233	-0.2340535704	-1.1531425429	 0.132617
O	-0.1067144391	 0.1168261587	-0.5380746094	-0.290589
H	 0.058991179	 0.9712116467	 1.3473312646	 0.116321
H	-0.7792990994	 1.951373593	 0.118223409	 0.101715
H	 1.3484389019	 2.6332922285	-0.882260318	 0.111375
H	 1.8930988987	 2.4098855572	 0.7971915727	 0.119396
H	 3.4117541092	 0.8939684286	-2.3249039112	 0.103371
H	 4.3377406288	 0.7895498853	-0.8109542692	 0.112363
H	 3.2105559372	-1.53312596	-2.3634141269	 0.102287
H	 4.1738609211	-1.6193637903	-0.8752216723	 0.1134
H	 1.7381192533	-2.2544517844	-0.1387828428	 0.082801
H	 0.9810741329	-0.2870435844	-2.2410419521	 0.068636
173.9986	237.4154	275.0855	339.167	397.0934	456.9735	584.502	664.2481	706.7805	723.1054	811.4924	820.4859	857.8421	889.2922	894.6408	925.3809	936.1473	949.0907	963.7045	1002.4375	1022.8383	1047.2613	1110.0733	1140.9704	1157.7129	1174.4376	1200.6103	1218.034	1230.2879	1242.8547	1256.8239	1293.0819	1301.6054	1306.6287	1348.426	1373.2419	1405.4951	1474.3171	1479.0517	1499.8715	1515.485	3035.7895	3041.6	3053.6483	3062.3924	3071.509	3083.3525	3111.771	3115.7456	3126.4798	3129.4355
C1CC23CCC(O2)C3O1	C1C[C@@]23CC[C@@H](O2)[C@H]3O1	
InChI=1S/C7H10O2/c1-2-7-3-4-8-6(7)5(1)9-7/h5-6H,1-4H2	InChI=1S/C7H10O2/c1-2-7-3-4-8-6(7)5(1)9-7/h5-6H,1-4H2/t5-,6-,7-/m1/s1
