16
gdb 23297	2.91989	1.32937	0.98921	2.5016	73.53	-0.2385	-0.0211	0.2174	1152.8639	0.124148	-437.865356	-437.857606	-437.856662	-437.897759	29.944	
O	-0.0753832415	 1.3175946942	-0.0534203847	-0.391089
N	 0.0428140884	-0.0822859128	-0.0713648258	-0.242325
C	-1.0978868044	-0.64084575	 0.0175543126	 0.420768
C	-2.4492261614	 0.0023856929	 0.2123748987	-0.444453
C	-3.3285588679	-1.1283467313	 0.7788529178	 0.414049
O	-4.3653838421	-0.9744842796	 1.3710635293	-0.320742
C	-2.6385267926	-2.4378236749	 0.5370192426	-0.150185
C	-2.2368727074	-2.7027705421	-0.9019230671	-0.295959
C	-1.2244387812	-2.123988959	 0.0484973663	-0.113963
H	 0.8449685735	 1.6001122722	-0.0816194169	 0.309154
H	-2.4077449699	 0.8479932618	 0.9028165534	 0.16364
H	-2.8725757527	 0.3883451855	-0.723118204	 0.152337
H	-2.8747286194	-3.2732730343	 1.1830981144	 0.116261
H	-2.1161845594	-3.7453324937	-1.1725217446	 0.135743
H	-2.6450964269	-2.0800373446	-1.6904331295	 0.131888
H	-0.366992285	-2.7155052942	 0.3414998978	 0.114876
86.104	152.6808	207.8654	259.0646	358.8973	421.6922	447.5882	465.0014	526.9395	551.7778	615.6836	677.6525	770.5525	804.6864	844.2277	897.162	911.4964	952.4235	972.1989	989.4096	1049.9771	1071.4318	1098.9153	1139.7021	1173.3336	1190.5825	1234.1504	1268.1944	1325.5082	1334.8947	1415.2993	1434.0351	1489.3378	1753.73	1845.4738	3046.849	3112.5014	3138.9783	3202.9342	3208.251	3228.4001	3819.2335
ON=C1CC(=O)C2CC12	ON=C1CC(=O)[C@H]2C[C@@H]12	
InChI=1S/C6H7NO2/c8-6-2-5(7-9)3-1-4(3)6/h3-4,9H,1-2H2	InChI=1S/C6H7NO2/c8-6-2-5(7-9)3-1-4(3)6/h3-4,9H,1-2H2/t3-,4+/m1/s1
