18
gdb 28463	3.04566	1.40418	0.97309	1.1098	83.87	-0.2142	-0.0187	0.1955	1206.5809	0.148863	-398.215228	-398.206491	-398.205546	-398.248281	32.978	
C	 0.0115537199	 1.524394113	-0.0257874434	-0.506128
C	-0.0021645046	 0.020094255	-0.001525217	 0.210991
C	-0.0220670953	-0.7335965852	-1.1707411325	-0.054541
N	-0.035708206	-2.064213685	-1.2084649509	-0.321615
C	-0.0329541341	-2.6678055918	-0.0118398249	 0.41703
N	-0.1028286273	-4.0348687916	-0.005798193	-0.556955
N	 0.0005509064	-2.0613140128	 1.1859044321	-0.358166
C	 0.0141349285	-0.728029788	 1.1893698343	 0.25175
C	 0.05147518	-0.057185272	 2.5360418885	-0.485364
H	 0.9028585088	 1.9369786872	 0.4622658646	 0.12811
H	-0.0009791445	 1.8937578449	-1.0553839427	 0.124083
H	-0.8568761845	 1.9526979821	 0.4890965581	 0.128893
H	-0.024276361	-0.2301674186	-2.1375173656	 0.100648
H	 0.1303452643	-4.4958326262	-0.869432424	 0.258992
H	 0.1610591004	-4.491553789	 0.8510803822	 0.258289
H	 0.9389404089	 0.5784662124	 2.6365308547	 0.132062
H	-0.8191193699	 0.5941403187	 2.6758497588	 0.133132
H	 0.0617758099	-0.8109015132	 3.3239004606	 0.138787
115.689	126.1511	160.539	216.9563	281.6915	316.9171	325.412	417.6614	459.1615	466.5555	499.7611	521.4759	581.167	650.7761	761.9324	777.2669	827.77	957.72	974.7032	1010.8042	1026.8911	1047.5898	1076.5601	1109.821	1186.4231	1279.517	1304.7582	1374.1776	1396.8918	1422.1671	1443.7347	1477.6712	1479.4799	1491.0353	1491.5589	1499.4721	1589.1624	1624.9994	1647.5569	3020.8076	3031.903	3068.2361	3082.7001	3104.1409	3127.8887	3148.4687	3605.901	3733.5902
CC1=CN=C(N)N=C1C	Cc1cnc(N)nc1C	
InChI=1S/C6H9N3/c1-4-3-8-6(7)9-5(4)2/h3H,1-2H3,(H2,7,8,9)	InChI=1S/C6H9N3/c1-4-3-8-6(7)9-5(4)2/h3H,1-2H3,(H2,7,8,9)
