19
gdb 22380	2.86017	1.19492	1.01527	0.9507	81.56	-0.2318	0.0077	0.2395	1243.5878	0.157076	-419.121272	-419.112007	-419.111063	-419.154983	34.842	
C	-0.1083917452	 1.5261990441	 0.0152408397	-0.323701
N	 0.1091098875	 0.0874553589	 0.1102699976	-0.116951
C	 1.3978945465	-0.5289642558	-0.1854365207	-0.200033
C	 2.5271307734	 0.2839200192	 0.3652221233	 0.440902
C	 1.9456544167	 0.3044820909	 1.7729899499	-0.395705
C	 0.7782548997	-0.5567583534	 1.2150106247	 0.327535
C	 0.1008058478	-1.6688232642	 1.9580607359	-0.483757
N	 3.6133270793	 0.6412617892	-0.1803404129	-0.263776
O	 4.4347283107	 1.3289749993	 0.7349706779	-0.39251
H	 0.7409379347	 2.1480648814	 0.3270785071	 0.119042
H	-0.3408271948	 1.7704142208	-1.0254153702	 0.129595
H	-0.9767870124	 1.7896259179	 0.6269998764	 0.123508
H	 1.4576691965	-1.2820326034	-0.9629328631	 0.100802
H	 2.5879791044	-0.2401239692	 2.4714989584	 0.130342
H	 1.692611342	 1.2730888351	 2.212364297	 0.118556
H	-0.5216099808	-1.272766837	 2.7695613801	 0.123911
H	-0.5461820494	-2.2346169977	 1.2833192865	 0.134679
H	 0.8335615086	-2.349835854	 2.4034000251	 0.121368
H	 5.2133358948	 1.5208190279	 0.2014291271	 0.306192
85.9742	141.2646	180.6463	199.8359	217.8906	255.3711	303.8707	341.6367	374.3208	455.8759	487.7521	496.3687	599.6901	664.6763	710.8852	727.3522	863.9114	907.8097	945.2803	952.2099	975.9801	1008.8418	1074.316	1106.4172	1142.0138	1158.183	1171.7414	1179.9211	1209.9679	1237.2238	1256.2889	1395.7702	1404.136	1428.4535	1450.957	1470.7468	1483.1727	1489.7545	1493.3206	1504.0384	1782.8602	3012.5723	3028.9948	3059.6452	3082.2092	3088.9041	3106.206	3109.5831	3124.683	3181.8797	3816.8826
CN1C2C(CC12C)=NO	CN1[C@H]2C(=NO)C[C@@]12C	
InChI=1S/C6H10N2O/c1-6-3-4(7-9)5(6)8(6)2/h5,9H,3H2,1-2H3	InChI=1S/C6H10N2O/c1-6-3-4(7-9)5(6)8(6)2/h5,9H,3H2,1-2H3/t5-,6+,8?/m0/s1
