17
gdb 76038	2.43151	1.25858	1.13166	2.5202	77.72	-0.25	-0.0377	0.2123	1165.4063	0.131583	-421.792676	-421.782882	-421.781937	-421.827112	35.478	
C	-0.2378634444	 1.3833847401	-0.0703801018	-0.414094
C	 0.0520899304	-0.0924206847	 0.0387243391	-0.058183
C	 1.4427966515	-0.6602267393	-0.1639541268	-0.295475
C	 2.5853927691	 0.179635789	-0.3399624501	 0.300239
C	 3.5607621042	 0.8836506859	-0.4074059525	-0.418463
C	 0.799185918	-0.6387342947	 1.2438372096	 0.263656
O	 1.2892618022	 0.2399799549	 2.1997343996	-0.465025
C	 0.3737174902	-1.959428902	 1.7860700507	 0.112966
O	-0.1115604939	-2.8397129669	 1.1161252836	-0.272735
H	 0.5507568413	 1.9802876587	 0.3904175028	 0.134255
H	-0.3269476077	 1.6812706597	-1.1197659738	 0.127072
H	-1.1800620434	 1.6226912848	 0.4318996283	 0.128991
H	-0.7260310645	-0.7636028604	-0.3138231314	 0.120463
H	 1.4921608333	-1.6467123231	-0.6151899905	 0.139498
H	 4.4164736277	 1.5034351113	-0.5173445762	 0.207369
H	 2.2056712041	 0.4563716081	 1.9800415013	 0.295022
H	 0.5424372721	-2.0628673114	 2.8789264982	 0.094445
97.8616	114.271	134.9081	153.8378	201.2328	208.2607	257.8174	301.8035	365.5675	386.2829	480.4571	572.2615	602.3473	611.9452	665.6681	669.2081	713.7863	736.3038	832.7251	976.0532	1017.2915	1025.4458	1062.6929	1086.6129	1123.1595	1147.0708	1215.2904	1269.414	1343.0451	1361.6337	1405.8904	1411.2683	1425.6322	1487.3242	1495.9747	1807.0237	2224.0279	2916.9308	3046.4899	3107.5111	3137.6243	3156.1931	3162.4495	3500.0922	3739.4477
CC1C(C#C)C1(O)C=O	C[C@H]1[C@@H](C#C)[C@]1(O)C=O	
InChI=1S/C7H8O2/c1-3-6-5(2)7(6,9)4-8/h1,4-6,9H,2H3	InChI=1S/C7H8O2/c1-3-6-5(2)7(6,9)4-8/h1,4-6,9H,2H3/t5-,6+,7-/m0/s1
