23
gdb 63747	3.56626	1.09056	0.98651	1.5492	85.74	-0.2354	0.0753	0.3107	1325.2183	0.204427	-388.275948	-388.266515	-388.265571	-388.310192	36.371	
C	-0.8002132141	 1.4781839607	-0.1029671079	-0.450287
C	 0.0257033386	 0.2007120819	 0.0152695342	 0.354096
C	-0.8752823076	-1.0364370895	-0.0332072371	-0.441047
C	 1.2478171146	 0.0862975448	-0.9541314583	-0.337811
C	 2.1278740857	-0.3582488368	 0.2338147495	 0.473188
C	 2.6871311983	-1.7957016653	 0.3313704586	-0.343391
C	 4.0584601533	-1.104708793	 0.4414509503	-0.080523
O	 3.4522783919	 0.1996623548	 0.3436470204	-0.314029
C	 1.0410142614	 0.1523386718	 1.2040485846	-0.337814
H	-0.1627827856	 2.3677758484	-0.0690976364	 0.110926
H	-1.3586450949	 1.5016152663	-1.0463660669	 0.110587
H	-1.5273646813	 1.5554812753	 0.7141452447	 0.110587
H	-1.4343988246	-1.0766678747	-0.9752652017	 0.111474
H	-0.3004874189	-1.9649381333	 0.0502872112	 0.113139
H	-1.6032033258	-1.0227581532	 0.7863333362	 0.111475
H	 1.1621275685	-0.5976339905	-1.8042577598	 0.089184
H	 1.5767464086	 1.0648853043	-1.316609246	 0.106067
H	 2.3721204	-2.3570408602	 1.213365557	 0.108569
H	 2.5416850933	-2.4113919915	-0.5585829791	 0.108567
H	 4.5877571651	-1.2401988348	 1.3924695787	 0.100896
H	 4.7574753659	-1.2943841988	-0.3821723656	 0.100892
H	 1.3008707286	 1.1529808715	 1.5623898456	 0.106069
H	 0.791623399	-0.4793219281	 2.0623196476	 0.089185
62.8159	68.3903	199.5197	224.3988	247.7152	304.9656	312.6155	314.2048	355.8199	425.8769	456.8386	476.8319	681.7834	783.1061	807.3071	850.9597	863.4328	868.1579	924.6193	928.8079	938.804	960.5948	976.9749	999.6394	1014.3856	1030.463	1085.2015	1124.2416	1154.3738	1172.2327	1207.1318	1222.751	1225.4827	1239.4196	1249.74	1288.356	1303.2689	1312.2428	1359.6061	1402.0154	1419.4822	1459.7946	1478.9966	1483.102	1484.8871	1493.2105	1502.962	1505.0598	1531.1807	3015.696	3016.7871	3021.8994	3040.5836	3047.0875	3054.1915	3071.0924	3080.4935	3086.9226	3091.0701	3094.7194	3100.6642	3102.8174	3125.4515
CC1(C)CC2(CCO2)C1	CC1(C)CC2(CCO2)C1	
InChI=1S/C8H14O/c1-7(2)5-8(6-7)3-4-9-8/h3-6H2,1-2H3	InChI=1S/C8H14O/c1-7(2)5-8(6-7)3-4-9-8/h3-6H2,1-2H3
