15
gdb 30988	3.31763	1.19916	0.90675	4.4033	64.96	-0.1885	0.0294	0.218	1205.6691	0.113045	-491.125924	-491.117181	-491.116237	-491.15956	31.608	
N	-0.0879269728	 1.29422538	-0.2657773922	-0.59523
C	-0.1523172529	-0.0782401711	-0.127832712	 0.298775
C	-1.1769121968	-0.9327094373	 0.0592405055	 0.16578
C	-2.6469221374	-0.6755570585	 0.0824128672	-0.181175
O	-3.0055152878	 0.3929250334	-0.7927916473	-0.405486
N	-0.5670644956	-2.1965895869	 0.2531838005	-0.443632
C	 0.7919359791	-2.0994252903	 0.1581264305	 0.475128
O	 1.6501897496	-2.9343484454	 0.2426842244	-0.401779
O	 1.0449344001	-0.7459637399	-0.0835322912	-0.228321
H	 0.6263677664	 1.5954228326	-0.9177115846	 0.258331
H	-0.9969778088	 1.6776243487	-0.4962137286	 0.262178
H	-3.1918773993	-1.6004875575	-0.1661522296	 0.103579
H	-3.0018196829	-0.356588169	 1.07036556	 0.134578
H	-2.7484576947	 0.1254432077	-1.6827159954	 0.286562
H	-1.0271051761	-3.0708940564	 0.4330987229	 0.270712
78.32	120.8412	155.0809	195.536	241.7025	302.7463	351.3736	357.4534	427.2135	442.8724	572.5234	638.6896	648.7018	725.5442	747.973	771.6681	838.8004	935.5822	975.2468	1032.7392	1053.0814	1177.0507	1196.0943	1244.799	1292.6718	1375.4116	1381.8284	1411.7548	1465.5234	1507.6215	1628.6399	1761.0431	1905.8789	2975.8054	3038.8654	3523.8082	3625.9069	3698.2267	3796.5078
NC1=C(CO)NC(=O)O1	Nc1c(CO)[nH]c(=O)o1	
InChI=1S/C4H6N2O3/c5-3-2(1-7)6-4(8)9-3/h7H,1,5H2,(H,6,8)	InChI=1S/C4H6N2O3/c5-3-2(1-7)6-4(8)9-3/h7H,1,5H2,(H,6,8)
