17
gdb 131146	3.70308	1.26704	1.03089	2.6181	74.71	-0.2264	0.0199	0.2463	1145.7939	0.137442	-418.011094	-418.003204	-418.00226	-418.043838	30.585	
O	 0.2349799933	 1.3214828582	 0.3780903431	-0.458977
C	 0.0649209418	-0.036433384	 0.0643797081	 0.30853
C	-0.6877379986	-0.9045310771	 1.0463948613	-0.322007
C	-1.358700785	-0.4341098359	-0.222108475	-0.282603
C	 1.1716505846	-0.6146159342	-0.7392211719	 0.288925
N	 1.3031070192	-1.9294190536	-0.9180596881	-0.313245
N	 2.3920538814	-2.0546866974	-1.702263994	-0.18162
C	 2.9606658103	-0.8673869679	-2.0169080997	-0.019932
C	 2.1931693632	 0.1018841505	-1.4081706896	-0.306777
H	 0.951340564	 1.3832215441	 1.020249151	 0.280741
H	-0.3922681211	-1.9444218603	 1.1203631573	 0.133326
H	-0.9882062175	-0.4282005207	 1.9730576978	 0.109098
H	-2.0985775908	 0.3538024949	-0.1386291774	 0.120943
H	-1.5239844043	-1.1542565296	-1.0147221489	 0.124901
H	 2.6952848665	-2.9756836428	-1.9686630538	 0.27402
H	 3.8431382012	-0.8064332009	-2.6341510738	 0.133126
H	 2.3257949518	 1.1696362168	-1.4451991563	 0.111552
49.22	161.1199	189.3341	313.639	329.3244	355.9343	451.1561	494.9977	504.9989	544.4157	660.5714	741.6862	775.2969	778.4094	848.6766	864.9097	910.163	929.1719	947.5281	974.7818	1000.0576	1052.9384	1063.5553	1080.7908	1100.0282	1189.5082	1197.2984	1220.126	1269.5638	1322.8884	1364.1027	1397.4527	1442.9181	1477.1376	1485.9555	1506.6174	1570.7586	3137.5305	3141.0988	3228.3386	3241.933	3259.3601	3287.1918	3677.5909	3789.8229
OC1(CC1)C1=NNC=C1	OC1(CC1)c1n[nH]cc1	
InChI=1S/C6H8N2O/c9-6(2-3-6)5-1-4-7-8-5/h1,4,9H,2-3H2,(H,7,8)	InChI=1S/C6H8N2O/c9-6(2-3-6)5-1-4-7-8-5/h1,4,9H,2-3H2,(H,7,8)
