21
gdb 40900	3.42841	1.27578	1.23003	1.4665	82.23	-0.2424	0.0855	0.3279	1131.7921	0.184569	-387.069826	-387.061975	-387.061031	-387.102425	30.86	
C	 0.0666743842	 1.5411233453	-0.1593545211	-0.207541
C	 1.5940823174	 1.5281140643	 0.1470739863	-0.287502
C	 1.430777309	 0.0943036117	 0.6782089852	 0.38562
C	 0.0079719991	 0.0072434678	 0.1045972543	-0.310494
C	 2.4275848189	-1.0236351486	 0.7715129804	-0.154468
C	 3.893117763	-0.6302410032	 0.7993930536	-0.093882
O	 3.9923029822	 0.4401038719	 1.735491508	-0.254342
C	 2.9790189107	 0.2786345153	 2.7247184948	-0.095023
C	 1.8291868803	-0.4282751886	 2.0319094351	-0.14173
H	-0.5023913718	 2.1136229911	 0.577195656	 0.102663
H	-0.2287059425	 1.8740083126	-1.1565821526	 0.097333
H	 2.2119863596	 1.5798255084	-0.7547652101	 0.099924
H	 1.9609967971	 2.2770127001	 0.8520893039	 0.106295
H	-0.7749416744	-0.345988245	 0.7820964426	 0.096707
H	-0.043661402	-0.5817179034	-0.8170203992	 0.09891
H	 2.1565643378	-2.0142569066	 0.4215193033	 0.08319
H	 4.5096102696	-1.4909349873	 1.107246756	 0.089759
H	 4.2804768565	-0.2561299534	-0.1548325587	 0.105744
H	 3.3382734086	-0.3274024725	 3.5728265695	 0.090189
H	 2.737001933	 1.2795231252	 3.0998515271	 0.104862
H	 1.1059154136	-0.9687230651	 2.6336249055	 0.083785
67.0051	156.8423	173.287	244.012	247.4217	391.5514	429.2921	552.7102	675.4763	714.2261	741.1418	782.5178	840.2068	848.9873	863.6217	922.8789	940.8793	945.7342	968.2618	990.746	999.8721	1014.2853	1067.3265	1098.6139	1108.8813	1117.0212	1141.2151	1150.3913	1209.188	1218.9505	1227.3078	1248.0217	1251.9813	1254.5769	1279.1588	1302.3956	1303.8336	1352.343	1382.4439	1451.9252	1475.3636	1481.1981	1504.8341	1511.4115	1522.9721	2964.6904	2970.7491	3040.4304	3052.4623	3054.3921	3058.8471	3065.0033	3085.4959	3102.1254	3121.228	3159.7697	3168.926
C1CC2(C1)C1COCC21	C1CC2(C1)[C@H]1COC[C@@H]21	
InChI=1S/C8H12O/c1-2-8(3-1)6-4-9-5-7(6)8/h6-7H,1-5H2	InChI=1S/C8H12O/c1-2-8(3-1)6-4-9-5-7(6)8/h6-7H,1-5H2/t6-,7+
