17
gdb 85563	2.85298	1.39215	1.08916	4.8978	70.5	-0.22	-0.0133	0.2066	1110.1282	0.136502	-455.173729	-455.165165	-455.16422	-455.207609	32.204	
N	 0.0604900435	 1.4193884744	 0.1815027402	-0.552244
C	-0.0087650328	 0.0393776371	 0.0594304007	 0.324087
N	-1.1412261542	-0.539205499	-0.0031794791	-0.288132
C	-1.2030884808	-1.9529170587	-0.3240093171	-0.259301
C	 0.0750213927	-2.7889626443	-0.2315467029	 0.386865
O	 0.0938994371	-3.9481329425	-0.5669282498	-0.31294
C	 1.2854214787	-2.0776518632	 0.349067793	-0.319135
C	 1.3449207236	-0.6358114768	-0.1374290153	 0.041406
O	 1.6698070584	-0.6753399447	-1.5240476797	-0.429254
H	 0.8254623982	 1.7859617896	 0.7290330202	 0.250382
H	-0.8306595445	 1.8504821199	 0.3892270349	 0.255569
H	-1.9447525721	-2.4302751996	 0.3310206253	 0.13675
H	-1.6001772918	-2.0831930431	-1.3398444778	 0.143579
H	 1.1865821546	-2.0817248947	 1.4428647702	 0.126846
H	 2.193107729	-2.6241109067	 0.0848917544	 0.135176
H	 2.1204900574	-0.0849449703	 0.4195581207	 0.065345
H	 1.5396764929	 0.2094150627	-1.8837158678	 0.295002
31.3086	95.5783	224.0227	247.6198	323.4441	355.4976	377.515	420.4803	453.811	480.7914	494.5002	598.3926	630.7472	723.3572	733.3027	767.5389	818.1603	913.5154	949.0765	993.4236	1040.8159	1079.7438	1162.4655	1196.5704	1210.3009	1251.6428	1253.5513	1306.448	1329.5396	1347.9585	1387.065	1439.2508	1441.3748	1445.7935	1626.0743	1749.4868	1826.2509	2958.2225	3017.9428	3035.0613	3041.3665	3119.2585	3550.3283	3663.2664	3805.441
NC1=NCC(=O)CC1O	NC1=NCC(=O)C[C@H]1O	
InChI=1S/C5H8N2O2/c6-5-4(9)1-3(8)2-7-5/h4,9H,1-2H2,(H2,6,7)	InChI=1S/C5H8N2O2/c6-5-4(9)1-3(8)2-7-5/h4,9H,1-2H2,(H2,6,7)/t4-/m1/s1
