21
gdb 91765	2.37828	1.78573	1.59351	0.837	76.96	-0.2347	0.0796	0.3143	991.6156	0.185515	-424.241899	-424.234258	-424.233314	-424.273533	31.134	
C	-0.0702428651	 1.5460423703	-0.0514068409	-0.412927
C	 0.0306144601	 0.0309613064	 0.0176468712	 0.131279
O	 0.700973053	-0.503626395	-1.1427100524	-0.305257
C	 1.5729290116	-1.5729502736	-0.7261025518	 0.108629
C	 1.0436542719	-1.9881582234	 0.6517104997	-0.247504
C	 0.8011798418	-0.5770142944	 1.202930403	 0.094639
O	 2.0425228493	 0.0609364125	 1.4870987089	-0.281788
C	 2.9564095837	 0.1837300512	 0.3930784346	-0.065608
C	 2.9992348774	-1.0373786464	-0.5403029053	-0.230148
H	 0.8977326773	 2.0331810347	 0.0735806227	 0.131625
H	-0.4926054889	 1.846463866	-1.0143205062	 0.125707
H	-0.735198836	 1.9079087541	 0.7395805942	 0.114645
H	-0.9918426671	-0.3807534511	 0.0452847543	 0.068611
H	 1.5273043798	-2.3580818159	-1.4854325108	 0.073335
H	 0.1082864606	-2.5505046374	 0.5773675634	 0.101183
H	 1.7615181807	-2.556168387	 1.245698746	 0.103579
H	 0.2319682655	-0.5416629251	 2.1345527113	 0.078936
H	 2.7024083908	 1.0658599654	-0.2063821827	 0.102466
H	 3.9333863447	 0.3655942371	 0.8500203555	 0.10631
H	 3.6284259833	-1.8346975608	-0.1285937323	 0.098859
H	 3.4323470556	-0.7339463577	-1.4991336025	 0.103429
164.881	174.5179	225.5217	253.8709	351.7591	368.6737	421.9473	463.2094	535.2931	593.8115	734.1562	781.0502	809.3605	826.7193	839.5373	890.6952	911.4094	920.4403	979.1016	981.986	1025.6585	1045.0183	1078.6336	1090.2675	1099.2943	1124.3973	1152.7148	1198.2248	1222.8099	1246.8868	1287.0752	1308.9714	1329.1333	1340.2195	1353.5595	1367.089	1383.2643	1393.6494	1414.8035	1423.773	1474.2138	1486.1799	1491.916	1492.3292	1515.8019	2958.3795	3029.2507	3037.6892	3049.7282	3059.4468	3074.4701	3080.1419	3091.2711	3094.074	3113.8488	3124.8222	3144.6651
CC1OC2CC1OCC2	C[C@H]1O[C@@H]2C[C@H]1OCC2	
InChI=1S/C7H12O2/c1-5-7-4-6(9-5)2-3-8-7/h5-7H,2-4H2,1H3	InChI=1S/C7H12O2/c1-5-7-4-6(9-5)2-3-8-7/h5-7H,2-4H2,1H3/t5-,6+,7-/m1/s1
