21
gdb 114089	3.20919	1.12175	0.97337	1.6301	78.43	-0.2369	0.0742	0.3111	1288.5464	0.181646	-424.190895	-424.181684	-424.180739	-424.225156	34.644	
C	 0.1619908674	 1.4422168935	-0.3458624978	-0.475832
C	-0.0538446	 0.0144712374	 0.0800080525	 0.460595
C	-1.4368382229	-0.4385458591	 0.6178846888	-0.287381
C	-0.7315564649	-1.1229243406	 1.8314807343	 0.044091
C	-1.03913448	-2.5817861917	 2.1060995045	-0.102873
O	-2.3699121833	-2.6452940912	 2.601899737	-0.422405
C	 0.6594979282	-0.7300340427	 1.2567598559	-0.176941
C	 1.2334620181	-1.6230017366	 0.1447193652	-0.091156
O	 0.477461578	-0.9398446855	-0.878815641	-0.3273
H	 1.220190493	 1.6361253558	-0.5456648684	 0.120259
H	-0.4004067536	 1.6486299479	-1.2638269747	 0.128782
H	-0.1835365956	 2.1370713741	 0.4264551262	 0.115708
H	-2.1176958065	 0.3715200167	 0.89046976	 0.099176
H	-1.9505565926	-1.1188403122	-0.0653069094	 0.107601
H	-0.9242441728	-0.5662827819	 2.7535537125	 0.083668
H	-0.9367541568	-3.1740029279	 1.1837123272	 0.089632
H	-0.3190705203	-2.9850292888	 2.8384457156	 0.0822
H	-2.6174266642	-3.5708176787	 2.6837882316	 0.286595
H	 1.3719323809	-0.2647268881	 1.9382089673	 0.07134
H	 2.3137914087	-1.5001680932	-0.0095708496	 0.097474
H	 1.0108580789	-2.6962508773	 0.1831851323	 0.096764
49.286	100.7781	178.3555	212.4366	231.3469	263.4948	290.6744	347.1144	394.8618	425.1778	480.8353	632.2635	663.6173	784.6126	836.2817	868.2993	892.489	920.6399	921.7061	988.0555	1005.5287	1022.1625	1056.2992	1073.2546	1094.354	1128.5101	1158.6314	1165.8966	1180.6718	1202.8	1221.167	1246.1271	1267.7089	1284.2929	1312.3478	1332.8585	1355.6513	1365.6197	1408.0532	1460.5604	1466.756	1480.2993	1487.9034	1522.0953	1528.593	2956.1261	2995.1443	3006.2616	3029.7256	3047.4471	3059.1133	3064.3504	3097.984	3105.8505	3109.6906	3121.2217	3829.816
CC12CC(CO)C1CO2	C[C@]12C[C@@H](CO)[C@H]1CO2	
InChI=1S/C7H12O2/c1-7-2-5(3-8)6(7)4-9-7/h5-6,8H,2-4H2,1H3	InChI=1S/C7H12O2/c1-7-2-5(3-8)6(7)4-9-7/h5-6,8H,2-4H2,1H3/t5-,6+,7-/m0/s1
