18
gdb 113621	3.51148	0.86897	0.82952	4.3591	80.34	-0.2888	-0.0833	0.2054	1455.8744	0.146222	-401.965788	-401.956313	-401.955368	-402.000959	33.609	
C	 0.06751521	 1.5447208356	 0.0052125903	-0.377825
C	-0.2717914001	 0.0625760716	-0.2006322018	-0.214262
C	 0.5787641973	-0.5562374859	-1.2894547988	 0.020568
C	 1.9306513139	-1.1128555715	-1.0187538755	-0.285974
C	 0.817555551	-2.0801394414	-1.4026502333	-0.162598
C	 0.2894407489	-2.9889515915	-0.3684981647	 0.307347
O	 0.3706542374	-2.8342493329	 0.8301006083	-0.3025
C	-0.4025006514	-4.1854468287	-0.9023456978	 0.218682
N	-0.9396404021	-5.1197010934	-1.3218292879	-0.303945
H	 1.1121725249	 1.6723147977	 0.306756114	 0.122338
H	-0.0869611861	 2.1219222852	-0.9129985202	 0.115767
H	-0.5635921765	 1.98222403	 0.7841122473	 0.12108
H	-0.130960754	-0.4855916567	 0.7345543421	 0.136786
H	-1.3307613521	-0.037557899	-0.4691074289	 0.106
H	 0.4460583517	-0.1016867963	-2.2686633712	 0.105863
H	 2.7273373155	-0.9775980068	-1.7410948493	 0.129152
H	 2.2452433774	-1.1724998454	 0.0181435265	 0.146892
H	 0.8129032641	-2.4847362606	-2.407972049	 0.116628
42.4186	85.4767	129.4826	160.1673	203.8007	236.8236	268.4238	297.0843	404.4675	410.8233	507.4893	600.4995	743.4657	762.7942	797.7564	805.2802	850.2538	898.1965	934.6152	991.7385	1026.0656	1072.6719	1086.5637	1109.7701	1126.247	1141.7674	1203.3362	1238.364	1301.7055	1347.9068	1405.7119	1411.5454	1428.8083	1479.3598	1494.0379	1497.6691	1509.1069	1764.7505	2336.4035	3033.4702	3035.3407	3089.7369	3110.2249	3111.7735	3137.2923	3138.6887	3183.8516	3230.9346
CCC1CC1C(=O)C#N	CC[C@H]1C[C@H]1C(=O)C#N	
InChI=1S/C7H9NO/c1-2-5-3-6(5)7(9)4-8/h5-6H,2-3H2,1H3	InChI=1S/C7H9NO/c1-2-5-3-6(5)7(9)4-8/h5-6H,2-3H2,1H3/t5-,6+/m0/s1
