17
gdb 131137	3.72293	1.2505	1.02167	2.2508	74.98	-0.2268	0.0183	0.2451	1151.4534	0.137473	-418.008197	-418.000297	-417.999352	-418.041058	30.522	
O	 0.0686573433	 1.3692106197	 0.1033657485	-0.452253
C	 0.0045173559	-0.0242736516	-0.0187865473	 0.32462
C	-0.5913287968	-0.7954697602	 1.1428804101	-0.337026
C	-1.4004029039	-0.5587064259	-0.1109589085	-0.29003
C	 1.0959666366	-0.5966361627	-0.8398348936	 0.332994
C	 1.9917098405	 0.0370815194	-1.6814677197	-0.327195
C	 2.8007365934	-0.9987855729	-2.1952923095	-0.002118
N	 2.4494887812	-2.1887779205	-1.7208243324	-0.229403
N	 1.4132433184	-1.9180282943	-0.8973262988	-0.287361
H	 0.887554193	 1.5838717678	 0.5656119975	 0.285692
H	-0.2310830663	-1.7954105204	 1.3629281634	 0.106733
H	-0.8446337098	-0.206752065	 2.0169291256	 0.127575
H	-2.1923904996	 0.1796415599	-0.0659759628	 0.135806
H	-1.5825417178	-1.3906328969	-0.7818189647	 0.122556
H	 2.0282221127	 1.091593476	-1.8974484974	 0.109713
H	 3.6232867785	-0.9238620108	-2.8916105615	 0.110663
H	 0.9820395809	-2.6796568215	-0.4024561091	 0.269034
44.2918	153.692	189.2245	316.6913	333.641	365.7795	441.1957	473.8743	516.2163	536.3565	681.22	712.9185	767.5994	813.2954	865.4103	891.6107	901.0246	919.6366	939.2029	986.5305	1016.7359	1049.8948	1056.8605	1077.6429	1129.3062	1170.58	1190.3685	1251.4878	1273.3168	1333.3016	1349.209	1384.0943	1443.0282	1456.792	1491.9091	1499.342	1605.0372	3130.7078	3141.9935	3218.6749	3237.4978	3243.8258	3279.3147	3676.5034	3786.8739
OC1(CC1)C1=CC=NN1	OC1(CC1)c1ccn[nH]1	
InChI=1S/C6H8N2O/c9-6(2-3-6)5-1-4-7-8-5/h1,4,9H,2-3H2,(H,7,8)	InChI=1S/C6H8N2O/c9-6(2-3-6)5-1-4-7-8-5/h1,4,9H,2-3H2,(H,7,8)
