18
gdb 122251	2.49331	1.09298	0.91725	3.9955	73.39	-0.271	-0.0001	0.2709	1351.0339	0.145198	-439.061521	-439.051845	-439.0509	-439.097139	33.803	
C	-0.0121703574	 1.3019003236	-0.2112226117	-0.384419
C	 0.0121188872	-0.0918052756	-0.8118736293	-0.048732
O	 1.2617137773	-0.6919604763	-0.4745164059	-0.230396
C	 1.3954470619	-2.0302142652	-0.859546365	-0.146809
C	 1.5501934158	-2.2234684368	-2.3628703896	 0.204886
C	 1.179574435	-3.5041758773	-2.9984425201	-0.204662
O	 0.3404319861	-2.3619003866	-3.1224007007	-0.240502
C	 2.5706084402	-1.4064493024	-2.9989126729	 0.278482
N	 3.394414988	-0.7633574135	-3.4912994354	-0.326395
H	 0.0985743788	 1.2552575496	 0.8757459962	 0.126744
H	 0.8046862106	 1.9063292195	-0.6148566547	 0.136658
H	-0.9590879128	 1.7972203781	-0.4451558205	 0.119032
H	-0.8099880169	-0.7078261824	-0.413710054	 0.091605
H	-0.1123376088	-0.0475636682	-1.9022046748	 0.116912
H	 2.2954376157	-2.4066167919	-0.3608768826	 0.128416
H	 0.5341965914	-2.6389341182	-0.5405699125	 0.103013
H	 1.6921524673	-3.8146567966	-3.9058760805	 0.144635
H	 0.7976091504	-4.3053839998	-2.3674384064	 0.131533
43.8978	71.1781	99.7561	151.7395	227.2554	244.9459	260.2014	271.7314	361.3766	377.2723	513.7968	580.1606	597.8424	719.407	821.1986	823.0906	861.6197	913.4141	967.7767	1030.2842	1041.1861	1129.5834	1138.7192	1157.0511	1174.0856	1185.7086	1243.5543	1296.4762	1308.9367	1360.9212	1397.6428	1411.9167	1437.626	1469.6024	1483.2358	1499.2915	1520.6688	1526.6957	2362.7473	2978.8762	2984.4754	3033.2715	3047.1328	3074.9943	3093.6848	3122.0444	3125.9525	3190.5985
CCOCC1(CO1)C#N	CCOC[C@]1(CO1)C#N	
InChI=1S/C6H9NO2/c1-2-8-4-6(3-7)5-9-6/h2,4-5H2,1H3	InChI=1S/C6H9NO2/c1-2-8-4-6(3-7)5-9-6/h2,4-5H2,1H3/t6-/m0/s1
