22
gdb 108833	3.27401	1.10786	0.94018	1.4694	88.88	-0.2237	0.0207	0.2444	1364.2382	0.194964	-367.20568	-367.196585	-367.195641	-367.239596	34.869	
C	-0.2682674626	 1.5693327734	-0.0497935987	-0.374063
C	 0.071647491	 0.0701517185	 0.0275845713	-0.296222
C	 0.7839421917	-0.4434565298	-1.1881408312	 0.371942
C	 2.02110883	-0.9468251006	-1.2602971533	-0.202072
C	 2.4246658131	-1.3811307824	-2.6591405559	-0.019704
C	 2.9205421567	-2.8320742281	-2.744651793	-0.390829
C	 1.1450711867	-1.1140300982	-3.4569486944	-0.04906
N	-0.0178787077	-1.9173019095	-3.01490988	-0.33497
C	 0.1443229916	-0.5081512588	-2.5444139137	-0.160039
H	 0.6401645463	 2.1707053603	-0.1545815681	 0.119886
H	-0.9151738274	 1.7919304402	-0.9048125782	 0.11571
H	-0.7914531736	 1.8965518316	 0.8540122218	 0.113088
H	 0.6886243799	-0.1171013161	 0.9134560871	 0.100866
H	-0.8586345095	-0.4975556662	 0.1684059645	 0.108864
H	 2.6790359719	-1.0872310865	-0.4077157585	 0.083103
H	 3.2204608304	-0.7209968925	-3.0361267565	 0.07407
H	 2.1226312828	-3.5172871563	-2.4480075134	 0.138471
H	 3.2286250253	-3.0814929531	-3.7657153736	 0.106028
H	 3.7819522162	-2.9933018935	-2.0882406303	 0.106981
H	 1.2126288637	-0.8377508186	-4.5040982885	 0.080665
H	-0.6970543129	-1.927354213	-3.774812604	 0.223949
H	-0.5812670936	 0.2308686792	-2.8682936133	 0.083338
59.6662	118.9506	180.8908	197.5173	225.9269	241.9929	278.9114	381.7189	425.9021	536.1448	577.9456	620.2434	716.8923	786.1829	807.1273	851.9629	856.4848	872.7888	877.1518	919.2724	942.2785	964.9336	1031.8409	1059.3174	1068.2145	1091.919	1106.8205	1121.8168	1134.923	1169.099	1199.3638	1252.0894	1263.0738	1301.2252	1318.8137	1337.6926	1353.2179	1386.2573	1402.209	1407.4639	1416.7326	1479.6729	1494.0563	1499.3682	1504.5034	1506.5812	1701.9978	2986.9085	3011.4368	3033.7824	3034.8274	3061.2401	3095.873	3103.4537	3109.3444	3125.8737	3156.2661	3166.7124	3174.9376	3469.295
CCC1=CC(C)C2NC12	CCC1=C[C@@H](C)[C@H]2N[C@@H]12	
InChI=1S/C8H13N/c1-3-6-4-5(2)7-8(6)9-7/h4-5,7-9H,3H2,1-2H3	InChI=1S/C8H13N/c1-3-6-4-5(2)7-8(6)9-7/h4-5,7-9H,3H2,1-2H3/t5-,7-,8+/m1/s1
