16
gdb 31006	3.1738	1.19238	0.8906	0.8655	67.81	-0.2144	0.0214	0.2358	1247.4437	0.124118	-475.062007	-475.053309	-475.052365	-475.095574	31.669	
C	 0.0207622146	 1.4468104288	-0.2065926281	-0.50417
C	-0.1108913332	-0.0278202507	-0.1208524085	 0.260383
C	-1.1319446153	-0.9181138599	-0.0651683057	 0.117101
C	-2.6142918857	-0.6876247486	-0.0951947054	-0.17286
O	-2.993001523	 0.4916182818	-0.7922927747	-0.405106
N	-0.6181961649	-2.2205782601	 0.0374470537	-0.433328
C	 0.6586219113	-2.0341408784	 0.0391235557	 0.459179
O	 1.6313020301	-2.9402486454	 0.1154792149	-0.400194
O	 1.071824155	-0.7659264876	-0.0563332828	-0.199286
H	 0.6152867866	 1.7495143354	-1.0765286196	 0.133556
H	-0.9755253671	 1.8826303514	-0.2914510073	 0.159383
H	 0.5112462311	 1.8590999774	 0.6831090116	 0.137161
H	-3.0930724067	-1.5848183034	-0.5132660992	 0.113617
H	-3.0089651529	-0.5637103016	 0.9201043522	 0.128681
H	-2.6812885846	 0.3993875065	-1.6990258726	 0.284014
H	 1.2012047845	-3.8024967557	 0.178261946	 0.32187
62.8688	167.0228	192.4023	198.2432	225.8899	288.1869	330.035	380.9497	396.2321	438.6302	524.8608	634.0509	648.0326	728.8174	749.1553	802.4642	972.6432	980.0881	1040.1672	1072.4058	1073.7018	1151.3842	1191.6397	1207.9482	1231.5921	1310.1777	1385.8379	1412.5202	1424.1863	1482.0361	1486.8012	1501.2845	1505.412	1658.2689	1694.626	3005.2875	3027.1304	3056.4451	3074.3325	3149.4802	3808.242	3810.0831
CC1=C(CO)N=C(O)O1	Cc1c(CO)nc(O)o1	
InChI=1S/C5H7NO3/c1-3-4(2-7)6-5(8)9-3/h7H,2H2,1H3,(H,6,8)	InChI=1S/C5H7NO3/c1-3-4(2-7)6-5(8)9-3/h7H,2H2,1H3,(H,6,8)
