19
gdb 13643	3.51589	1.17062	1.06351	1.6678	79.96	-0.2209	0.0478	0.2687	1217.2514	0.163453	-327.869882	-327.860346	-327.859402	-327.905401	33.23	
C	 0.4311548787	 0.5424673013	-1.0979744323	-0.498783
C	 0.1150340058	-0.5663440049	-0.2078675949	 0.037308
C	-0.1334958575	-1.482779988	 0.5349565105	 0.081236
C	-0.4763245735	-2.5690279494	 1.4592757856	-0.288979
N	-1.3729901577	-3.639203874	 0.9945042767	-0.092369
C	-2.114817965	-3.4992599494	-0.2533348648	-0.251325
C	-1.0189944193	-4.5043807197	-0.1338087282	 0.039517
C	 0.2723920857	-4.3795987712	-0.9119464108	-0.423418
H	 1.4282834792	 0.9453810345	-0.8886598333	 0.150171
H	 0.4172952569	 0.227535378	-2.147244051	 0.148481
H	-0.2874368462	 1.3621313604	-0.9882742691	 0.148823
H	 0.4410900979	-3.0446652065	 1.8278239078	 0.130952
H	-0.958570877	-2.124042118	 2.3393353693	 0.135724
H	-3.1600890932	-3.7973992439	-0.2176448954	 0.107045
H	-1.9081032459	-2.6241281822	-0.8661454262	 0.116693
H	-1.3134400602	-5.5383469615	 0.0482838727	 0.085919
H	 0.5170478016	-3.3414403396	-1.1427781795	 0.137826
H	 1.1102137517	-4.8119034587	-0.3523401987	 0.116983
H	 0.191882778	-4.9319558373	-1.8546402784	 0.118196
25.9877	64.7256	93.7173	189.403	205.1572	217.9995	280.0047	332.2617	378.5122	414.8168	465.5761	552.2095	737.6464	770.6043	778.1134	907.675	936.5579	992.6124	1040.9854	1052.2892	1055.1198	1074.3567	1121.6718	1137.0558	1161.253	1167.2897	1193.297	1281.966	1328.1133	1364.4029	1403.6355	1415.2803	1423.2046	1469.9237	1477.7156	1479.7721	1494.9732	1501.9553	1509.8735	2358.0939	3017.0581	3027.1078	3031.99	3047.2163	3085.5708	3087.71	3088.2316	3092.7772	3095.1966	3140.3072	3178.7813
CC#CCN1CC1C	CC#CCN1C[C@H]1C	
InChI=1S/C7H11N/c1-3-4-5-8-6-7(8)2/h7H,5-6H2,1-2H3	InChI=1S/C7H11N/c1-3-4-5-8-6-7(8)2/h7H,5-6H2,1-2H3/t7-,8?/m1/s1
