14
gdb 33844	4.79554	1.07907	1.00992	3.6885	68.14	-0.2789	-0.0135	0.2654	1138.5479	0.099729	-436.623437	-436.616053	-436.615109	-436.65549	27.77	
N	 0.0762842978	-1.1416749564	 0.1393531296	-0.331686
C	 0.0812361238	 0.009925919	 0.0355851422	 0.20877
C	 0.0583523837	 1.4276195971	-0.1376586031	 0.302402
C	-0.7180580559	 2.2492095829	-1.1872248833	-0.398386
C	 0.482517771	 3.2302212515	-1.1710301239	 0.451872
C	 1.0815093715	 3.9644485895	-2.284057	-0.264043
O	 0.415918512	 4.6319187447	-1.1984499315	-0.252698
C	 1.1741801281	 2.4121727394	-0.0959399429	-0.13882
O	 0.2578407986	 2.2765776164	 0.9943377979	-0.257559
H	-0.8512967956	 1.7420568942	-2.144428602	 0.139381
H	-1.6680637338	 2.6422385619	-0.8227267424	 0.144512
H	 2.1600021945	 4.1083227159	-2.3269871982	 0.129628
H	 0.5649403975	 3.997275245	-3.2417240184	 0.130146
H	 2.2277578669	 2.2710840789	 0.114210696	 0.136481
86.2517	150.9659	223.2085	285.8156	350.0187	407.7275	454.066	522.0538	554.5459	591.545	666.3008	798.2387	849.3152	852.7477	899.3704	933.4656	962.1114	1005.5384	1050.8222	1120.1244	1129.7371	1143.857	1162.414	1202.7731	1225.1707	1236.9999	1400.6282	1439.9742	1468.2412	1538.8896	2360.5905	3085.3431	3088.4369	3150.161	3178.4468	3199.9301
N#CC12CC3(CO3)C1O2	N#C[C@]12C[C@]3(CO3)[C@H]1O2	
InChI=1S/C6H5NO2/c7-2-5-1-6(3-8-6)4(5)9-5/h4H,1,3H2	InChI=1S/C6H5NO2/c7-2-5-1-6(3-8-6)4(5)9-5/h4H,1,3H2/t4-,5+,6-/m0/s1
