23
gdb 115605	2.73401	1.08681	0.98185	1.1643	82.88	-0.2371	0.0868	0.3239	1376.09	0.202886	-425.400661	-425.390063	-425.389119	-425.436241	38.545	
C	 0.2108859539	 1.5540910071	-0.3448909911	-0.236614
O	-0.3258180184	 0.2812296795	-0.6241328011	-0.24468
C	 0.6156619348	-0.6187473605	-1.1382239861	 0.121957
C	 1.6371074771	-1.2908534328	-0.1780418135	-0.277306
C	 1.3789428486	-2.6296764364	-0.9223704805	-0.281005
C	 0.0632958772	-2.0153656192	-1.5075180851	 0.372077
C	-1.1913148249	-2.3974279801	-0.7255205889	-0.439192
O	-0.1127480248	-2.1191846419	-2.9081281189	-0.289051
C	-0.3400099789	-3.4204771223	-3.4019786292	-0.250395
H	 0.9974625237	 1.5115873026	 0.4237287262	 0.106409
H	 0.6368668832	 2.020831398	-1.2469572394	 0.105819
H	-0.6062816928	 2.1788285798	 0.0238854384	 0.125826
H	 1.1227179426	-0.19605325	-2.0182632234	 0.073725
H	 2.6587935045	-0.9069673884	-0.1723107138	 0.098914
H	 1.2567658667	-1.3076018502	 0.8468504082	 0.109109
H	 2.1102832102	-2.8068097122	-1.7148188304	 0.10726
H	 1.2840422947	-3.530345918	-0.3121939438	 0.097928
H	-1.0612319492	-2.1923910608	 0.3399913022	 0.121963
H	-2.0461157199	-1.8148334739	-1.0776655789	 0.132394
H	-1.4144916362	-3.462804205	-0.8365317507	 0.108358
H	 0.4336893306	-4.1285173014	-3.0688408175	 0.103546
H	-1.321658338	-3.8198424372	-3.1109744297	 0.108171
H	-0.3047162547	-3.3556595968	-4.4925562332	 0.124787
70.0516	94.7498	115.1353	173.886	188.6981	196.4295	213.6733	256.1927	314.4285	337.7709	359.0866	399.0888	488.814	568.0202	614.3979	744.074	804.5567	884.8641	905.9977	918.6137	951.5708	985.5813	1041.8158	1088.5552	1117.0939	1156.5826	1160.6543	1177.3176	1182.5409	1183.9956	1191.3714	1222.8399	1233.0575	1252.5314	1264.2451	1289.0042	1306.463	1392.0188	1405.2719	1472.5272	1475.2114	1479.5444	1484.2399	1486.9283	1487.7757	1496.9833	1502.9108	1509.5966	1512.2988	2973.5869	2985.225	2998.02	3020.8282	3034.135	3047.5395	3062.5154	3067.041	3107.976	3112.6353	3113.3605	3116.4039	3127.0495	3131.2586
COC1CCC1(C)OC	CO[C@H]1CC[C@]1(C)OC	
InChI=1S/C7H14O2/c1-7(9-3)5-4-6(7)8-2/h6H,4-5H2,1-3H3	InChI=1S/C7H14O2/c1-7(9-3)5-4-6(7)8-2/h6H,4-5H2,1-3H3/t6-,7-/m0/s1
