18
gdb 39833	2.86728	1.7683	1.38689	3.0913	74.7	-0.2327	0.0597	0.2924	966.9951	0.149612	-401.886501	-401.879634	-401.878689	-401.917544	28.515	
C	-0.0811505392	 1.4311104829	 0.0197837951	-0.294108
C	 1.3038233153	 0.8387706308	 0.0263834618	-0.039391
C	 1.9554301553	 0.6181804551	 1.3843573693	-0.044914
N	 1.1095407189	 1.0097526538	 2.5307716483	-0.33504
C	 1.1888418597	-0.4136872456	 2.1283302609	-0.159259
C	 0.0465539154	-0.8659435991	 1.2473728575	 0.511153
C	-0.4582813986	-2.2446209708	 1.2960051148	-0.262118
O	-1.2135237159	-1.1707691001	 1.8558464244	-0.278828
C	 0.0893527297	-0.0697222582	-0.0382657573	-0.150184
H	-0.4389954495	 1.8784573894	 0.9378041808	 0.151011
H	-0.4119820092	 1.9093028428	-0.8957147155	 0.105503
H	 1.9557215017	 0.9736613911	-0.8281926435	 0.084102
H	 3.0327779809	 0.7057788851	 1.4698514978	 0.08711
H	 1.6912503477	 1.1507153495	 3.3532712132	 0.23245
H	 1.6469065272	-1.124820805	 2.8081400687	 0.088231
H	-0.8744331904	-2.6952110088	 0.3949123046	 0.111439
H	-0.0425230669	-2.9532615361	 2.0129201988	 0.108097
H	-0.1884033022	-0.580570467	-0.9533668997	 0.084745
124.5228	212.3675	310.0084	335.7225	407.0771	472.8693	537.6749	584.9146	674.0421	744.7472	793.4497	804.2511	846.8619	873.5377	875.9912	902.6953	922.5789	956.8794	959.1232	995.5887	1043.4218	1053.3524	1079.2962	1086.4109	1103.3082	1128.2762	1140.1458	1156.9166	1166.1121	1202.859	1241.3121	1257.6574	1317.1928	1343.0588	1368.744	1398.819	1454.6375	1474.3897	1531.9481	3069.1022	3142.7928	3151.7748	3159.2989	3167.6011	3171.5459	3186.7994	3242.4223	3498.0284
C1C2C3NC3C3(CO3)C12	C1[C@H]2[C@H]3N[C@H]3[C@]3(CO3)[C@@H]12	
InChI=1S/C7H9NO/c1-3-4(1)7(2-9-7)6-5(3)8-6/h3-6,8H,1-2H2	InChI=1S/C7H9NO/c1-3-4(1)7(2-9-7)6-5(3)8-6/h3-6,8H,1-2H2/t3-,4+,5-,6-,7+/m1/s1
