16
gdb 47623	2.93333	1.38635	0.97044	3.1044	80.98	-0.2231	-0.0627	0.1604	1167.6172	0.124593	-400.735559	-400.727387	-400.726443	-400.768458	30.806	
O	 0.0251169282	-0.0365081977	 0.1001785734	-0.303522
C	 0.0015166832	 1.1676693173	-0.0148934501	 0.30573
C	-1.3085518898	 1.953555417	-0.1016006797	-0.279206
N	-1.2326113045	 3.1836535735	-0.8866726692	-0.291591
C	-0.1485784688	 4.0484360298	-0.4310254456	-0.223246
C	 1.1533441424	 3.3423652063	-0.1719772644	-0.14114
C	 1.2489700299	 2.0031626434	-0.0263882911	 0.004149
C	 2.494425213	 1.3431896379	 0.1694515358	 0.256107
C	 3.5451963659	 0.7794666142	 0.3317849138	-0.391394
H	-2.0794501653	 1.2922132106	-0.5045586227	 0.133831
H	-1.6105431811	 2.2098616015	 0.92506026	 0.132606
H	-1.0662288276	 2.9401028767	-1.8587352003	 0.226715
H	 0.0037528442	 4.8457061201	-1.1675583113	 0.125477
H	-0.4648914009	 4.5605628984	 0.4934341584	 0.13329
H	 2.0498828398	 3.9534089946	-0.0942642499	 0.114776
H	 4.4672770315	 0.2735650963	 0.4782338626	 0.197417
71.1924	141.5258	156.1289	264.7902	300.6619	363.5089	430.5854	437.6933	505.3592	575.6592	606.7232	638.193	646.295	686.9666	752.1537	800.7276	858.599	919.1507	962.305	1008.1646	1060.9216	1114.9526	1167.2851	1197.1639	1236.3241	1318.0112	1327.6038	1353.0615	1381.9107	1452.5061	1463.1946	1496.2972	1657.9182	1793.4522	2230.2964	2973.6405	3006.2813	3057.872	3105.8941	3158.032	3502.9715	3507.9004
O=C1CNCC=C1C#C	O=C1CNCC=C1C#C	
InChI=1S/C7H7NO/c1-2-6-3-4-8-5-7(6)9/h1,3,8H,4-5H2	InChI=1S/C7H7NO/c1-2-6-3-4-8-5-7(6)9/h1,3,8H,4-5H2
