16
gdb 94483	3.65693	0.86566	0.76292	1.4562	74.38	-0.2551	0.0068	0.2619	1471.5017	0.121845	-437.827166	-437.81781	-437.816866	-437.863011	32.611	
O	-0.0516546759	 1.4171645077	 0.0388035911	-0.427126
C	-0.0835841489	 0.0148297108	 0.0227973853	-0.017755
C	-1.4759010001	-0.5968835301	-0.2359027828	-0.093202
O	-0.9668556393	-1.2607066213	-1.4417531921	-0.266567
C	 0.2624274015	-0.6516007795	-1.2965323488	 0.441766
N	 1.2691631706	-0.6155491355	-2.0384439878	-0.339237
C	 1.2151122511	-1.3206485993	-3.3245911467	-0.322368
C	 1.7077026253	-0.4788954276	-4.4123468912	 0.319679
C	 2.1023004521	 0.2028767933	-5.3189495177	-0.452268
H	 0.7737371071	 1.6890934665	-0.3794185514	 0.30403
H	 0.4386016812	-0.421624243	 0.8848067873	 0.102916
H	-1.8461288326	-1.3280113182	 0.4846208844	 0.126293
H	-2.2385694897	 0.1428205305	-0.4861033422	 0.137578
H	 1.8522971776	-2.2117263148	-3.2471089587	 0.143219
H	 0.2036648771	-1.6752471045	-3.5648348927	 0.145341
H	 2.454568743	 0.8062996551	-6.1183579159	 0.197699
21.8448	75.6029	110.472	175.2268	189.5564	222.291	313.498	326.8668	413.0293	477.1133	582.4166	609.2108	657.0332	681.4946	766.7377	861.4084	918.6956	946.3739	962.0695	1001.8801	1040.2964	1063.1193	1141.1647	1156.3827	1187.4113	1206.5203	1256.006	1324.4892	1357.2349	1369.843	1405.4691	1474.4635	1504.667	1839.1098	2244.7515	3008.3663	3017.4042	3040.0337	3077.9002	3146.8043	3507.4471	3802.0503
OC1COC1=NCC#C	O[C@H]1COC1=NCC#C	
InChI=1S/C6H7NO2/c1-2-3-7-6-5(8)4-9-6/h1,5,8H,3-4H2	InChI=1S/C6H7NO2/c1-2-3-7-6-5(8)4-9-6/h1,5,8H,3-4H2/t5-/m0/s1
