21
gdb 107618	2.45185	1.4784	1.11021	1.884	77.72	-0.2272	0.0685	0.2957	1163.1427	0.182543	-424.21064	-424.201602	-424.200658	-424.244126	34.582	
C	-0.0462565559	 1.5524468382	-0.0985227604	-0.40411
C	 0.0174036969	 0.0271112167	-0.0043266383	-0.056473
C	 0.8228972722	-0.6255722345	-1.1536844134	-0.107493
O	 1.3883135519	-1.8331081878	-0.6460934107	-0.260778
C	 1.5326022193	-1.6847415671	 0.7409842896	 0.053841
C	 2.2140012734	-0.4545886078	 1.2823039509	-0.371221
C	 0.6933887301	-0.5434633581	 1.2440240005	 0.337279
C	-0.0842554527	-0.6246377248	 2.5248494763	-0.187441
O	-0.2703103243	 0.6926825084	 3.0369819613	-0.416215
H	 0.958771698	 1.9876343151	-0.0743014984	 0.113842
H	-0.5271760299	 1.8700996449	-1.0304548532	 0.105846
H	-0.6076787696	 1.9646342858	 0.7423703407	 0.136799
H	-1.0062789861	-0.371548536	-0.0187256819	 0.071784
H	 0.2105355487	-0.8810117341	-2.0231342733	 0.108564
H	 1.6184506354	 0.0547278928	-1.4932125989	 0.093197
H	 1.6206080874	-2.6406777319	 1.2451592451	 0.098258
H	 2.682585765	-0.5339567923	 2.2577185494	 0.113263
H	 2.727607622	 0.2105671031	 0.596956039	 0.116492
H	-1.0562812143	-1.1090436414	 2.3344793183	 0.086389
H	 0.4593285008	-1.2523608325	 3.2493934195	 0.081762
H	-0.8358338585	 0.6342544931	 3.813096488	 0.286415
85.5873	132.4226	184.5459	213.7695	251.3562	263.9043	309.5868	335.1431	369.823	458.7795	490.8759	611.113	680.0967	714.1327	819.0437	896.9326	917.299	924.537	948.4523	972.83	1001.872	1026.9649	1044.0947	1057.1599	1072.3893	1101.2791	1126.9805	1149.8972	1172.5109	1223.1246	1233.8697	1247.7374	1271.1395	1311.1158	1329.4236	1357.5481	1381.0955	1409.6842	1416.8042	1463.8996	1484.5987	1493.2102	1503.491	1513.3304	1526.2947	2956.6174	2985.9889	2987.4212	3010.2671	3032.1874	3082.483	3093.6957	3131.0908	3132.9081	3174.7919	3217.5406	3822.5736
CC1COC2CC12CO	C[C@H]1CO[C@H]2C[C@@]12CO	
InChI=1S/C7H12O2/c1-5-3-9-6-2-7(5,6)4-8/h5-6,8H,2-4H2,1H3	InChI=1S/C7H12O2/c1-5-3-9-6-2-7(5,6)4-8/h5-6,8H,2-4H2,1H3/t5-,6-,7+/m0/s1
