19
gdb 86630	3.22777	1.06557	0.89585	3.0758	80.89	-0.2528	-0.0605	0.1923	1323.0115	0.158315	-423.055253	-423.046223	-423.045279	-423.089072	33.629	
C	-0.0963056074	 1.5944744186	 0.0374223734	-0.394137
C	 0.084909061	 0.0748896084	 0.0151735875	-0.049064
C	 0.9002681623	-0.4729765084	-1.1312002194	-0.160246
C	 1.6615670382	-1.5138151574	-0.7555600644	 0.217455
C	 1.4713469627	-1.82563528	 0.7133678404	-0.341603
C	 0.820741589	-0.5294877801	 1.2561413099	 0.10503
O	 1.7889060408	 0.3569392202	 1.7951796057	-0.4252
C	 2.5351867281	-2.2723442822	-1.6529654381	 0.063855
O	 3.1988951386	-3.2271597841	-1.3125939261	-0.269011
H	 0.8648203974	 2.1096591244	 0.1036988495	 0.120119
H	-0.6097822314	 1.9363761421	-0.8668332484	 0.112818
H	-0.6927595337	 1.9003665897	 0.9017376893	 0.125929
H	-0.9137554492	-0.388317622	-0.037826225	 0.0977
H	 0.8478335963	-0.078473306	-2.1419771777	 0.109754
H	 0.8093609301	-2.6922373733	 0.8370795509	 0.120627
H	 2.4017343532	-2.0617349885	 1.2368679776	 0.128768
H	 0.1272656655	-0.7192587928	 2.079017431	 0.088188
H	 2.4928479762	 0.4596672121	 1.1443869508	 0.281947
H	 2.5547409322	-1.9015419508	-2.702652787	 0.067072
89.0548	97.7797	174.6908	194.6429	232.6604	262.3396	346.992	354.6429	409.8236	433.9728	478.5095	563.6776	707.7657	725.6826	821.5907	862.3065	887.3435	894.8351	925.5592	990.892	1007.4088	1036.8347	1069.3493	1110.418	1122.2026	1172.4871	1194.2616	1255.5685	1263.836	1275.9482	1322.2097	1336.6828	1367.3948	1411.2088	1420.7998	1433.615	1476.3235	1492.7599	1496.879	1668.4001	1783.645	2875.5456	2974.4944	3033.3634	3043.5319	3087.3937	3097.1258	3110.4739	3124.6486	3178.7587	3794.0447
CC1C=C(CC1O)C=O	C[C@H]1C=C(C[C@H]1O)C=O	
InChI=1S/C7H10O2/c1-5-2-6(4-8)3-7(5)9/h2,4-5,7,9H,3H2,1H3	InChI=1S/C7H10O2/c1-5-2-6(4-8)3-7(5)9/h2,4-5,7,9H,3H2,1H3/t5-,7+/m0/s1
