15
gdb 13863	4.10139	1.64572	1.43036	4.5044	57.22	-0.2363	0.0184	0.2546	883.6231	0.119724	-436.961771	-436.954213	-436.953269	-436.994799	27.017	
N	-0.0680909823	 0.919640176	-0.7851729778	-0.518166
C	 0.0045306558	-0.1026614339	 0.109619498	 0.357254
O	 1.0070382048	-0.4420916494	 0.7012026255	-0.353832
C	-1.3131281034	-0.8916373755	 0.2927069295	 0.130269
O	-2.4290493442	-0.1497974586	-0.1796523651	-0.281038
C	-3.1649609242	-0.9904676773	-1.0712096999	-0.091004
C	-2.0876836722	-1.9408873012	-1.5818363235	-0.099104
O	-1.2691331969	-2.1079481207	-0.4303085097	-0.248293
H	 0.7338659642	 1.5224540414	-0.8772537643	 0.261784
H	-0.9774229798	 1.2610165382	-1.0488353268	 0.267155
H	-1.4129767022	-1.138045272	 1.3569097942	 0.110266
H	-3.9535866596	-1.5287464577	-0.529137289	 0.113989
H	-3.617779069	-0.3649119115	-1.8439872667	 0.117892
H	-2.4607578351	-2.9228165069	-1.880028843	 0.123789
H	-1.5217685059	-1.4964345408	-2.4127451414	 0.109037
34.2652	72.5879	200.7784	289.1057	305.9708	408.9717	442.3273	523.6916	630.8584	649.7842	712.7727	769.7596	896.3485	915.6036	952.1671	972.3566	992.3008	1057.6182	1098.3178	1136.246	1164.4251	1226.7463	1248.8768	1308.3926	1354.0405	1373.1756	1381.225	1385.1309	1511.4469	1517.573	1590.8805	1820.5863	3007.4499	3022.654	3040.732	3105.6096	3115.2496	3590.2959	3726.2685
NC(=O)C1OCCO1	NC(=O)C1OCCO1	
InChI=1S/C4H7NO3/c5-3(6)4-7-1-2-8-4/h4H,1-2H2,(H2,5,6)	InChI=1S/C4H7NO3/c5-3(6)4-7-1-2-8-4/h4H,1-2H2,(H2,5,6)
