19
gdb 62474	2.34322	1.53742	1.28515	4.0115	75.4	-0.2664	0.0144	0.2808	1091.0225	0.157138	-423.047498	-423.038406	-423.037462	-423.080898	34.199	
C	-0.1676946475	 1.4961516917	 0.0531171429	-0.443145
C	-0.0780502727	-0.0291689583	 0.0183862813	-0.037904
C	-1.3946430645	-0.6826686834	-0.4004461552	-0.443082
C	 1.1415817421	-0.5535961399	-0.7607925711	 0.462389
O	 1.5395832766	-0.5467367042	-1.8813995828	-0.339437
O	 1.7389625557	-1.1208287475	 0.3397733216	-0.283916
C	 0.6522344787	-0.686061486	 1.1982391639	 0.463486
C	 0.9188071433	-0.2342576157	 2.5884303989	-0.337818
C	 0.1804027064	-1.5433298957	 2.3164013988	-0.337833
H	 0.7787128433	 1.9483662053	 0.3624320134	 0.131642
H	-0.4223251556	 1.8821321464	-0.9384077368	 0.138061
H	-0.9459301048	 1.819371457	 0.7529529845	 0.119607
H	-1.6793429208	-0.3497365373	-1.402963733	 0.138077
H	-1.317035781	-1.7733983608	-0.4125260388	 0.131707
H	-2.198246575	-0.4047199803	 0.2901064545	 0.11965
H	 1.9398973612	-0.3027017274	 2.9470198244	 0.135666
H	 0.3549125751	 0.6081192776	 2.9755739149	 0.123592
H	-0.8846398162	-1.5894169069	 2.5189273852	 0.12359
H	 0.7191748359	-2.4668551345	 2.4972929935	 0.135668
93.648	174.2292	190.967	197.0451	201.3454	238.9309	275.843	320.7294	350.8337	521.2577	523.9199	581.7481	677.0008	741.2989	760.5488	792.9492	864.0079	890.8559	962.5719	963.6021	994.4009	995.9677	1037.0515	1049.3687	1071.6396	1077.6687	1182.9129	1193.8481	1212.2567	1229.1071	1305.2673	1386.0863	1401.3427	1424.2026	1450.5345	1481.7671	1483.9718	1497.8431	1503.1159	1510.6046	1935.1655	3034.2407	3037.5511	3103.6767	3106.8371	3117.1464	3119.3309	3131.8349	3133.5987	3215.5718	3228.5071
CC1(C)C(=O)OC11CC1	CC1(C)C(=O)OC21CC2	
InChI=1S/C7H10O2/c1-6(2)5(8)9-7(6)3-4-7/h3-4H2,1-2H3	InChI=1S/C7H10O2/c1-6(2)5(8)9-7(6)3-4-7/h3-4H2,1-2H3
