17
gdb 27233	2.19806	1.96159	1.0708	3.947	78.77	-0.1859	0.0272	0.2131	1107.5776	0.136964	-418.001818	-417.993853	-417.992909	-418.034367	29.961	
C	 0.0904424768	 1.4972008331	 0.1202275647	-0.495287
C	-0.0712945946	 0.0266525711	 0.0836046987	 0.193464
C	-1.0911408709	-0.83337664	 0.0211169789	 0.175225
C	-2.4659843325	-1.2872336515	-0.4358908155	-0.362124
C	-1.7672209136	-2.6750151436	-0.705090548	-0.164068
N	-0.5822977983	-2.1373584245	 0.0009536276	-0.086861
C	 0.7917668157	-2.0900984379	-0.1135014352	 0.427269
N	 1.5999522257	-3.0395068036	-0.3294998009	-0.595365
O	 1.10743218	-0.7483376117	 0.108692542	-0.264217
H	 0.7198813662	 1.8493171238	-0.7052354326	 0.139588
H	-0.887067955	 1.9795603059	 0.0424932162	 0.133019
H	 0.5606295784	 1.8297542819	 1.0534934043	 0.141874
H	-3.2268790579	-1.3251426024	 0.346812341	 0.133702
H	-2.8712223557	-0.7795324842	-1.3118988349	 0.133581
H	-2.2069387937	-3.5536114491	-0.2301787724	 0.131678
H	-1.5781241993	-2.8752317073	-1.7638021358	 0.134687
H	 2.5569827885	-2.69586881	-0.3525966982	 0.223836
107.8924	157.5907	171.4694	220.544	244.5862	301.6758	361.722	576.0871	616.1106	628.3764	688.2286	707.2058	721.1132	759.7936	790.2127	898.1513	933.402	954.2232	988.4225	1055.5779	1065.9824	1124.0095	1139.9036	1185.7681	1190.1616	1230.1598	1249.9509	1271.2101	1333.4997	1364.3815	1420.5728	1466.5021	1478.06	1493.0529	1513.8152	1761.0834	1799.0507	3025.0416	3060.6012	3073.8954	3078.0484	3120.466	3123.0238	3137.4318	3532.1642
CC1=C2CCN2C(=N)O1	C[C]1[C]2CCN2[C]([NH])O1	
InChI=1S/C6H8N2O/c1-4-5-2-3-8(5)6(7)9-4/h7H,2-3H2,1H3	InChI=1S/C6H8N2O/c1-4-5-2-3-8(5)6(7)9-4/h7H,2-3H2,1H3
