18
gdb 93171	2.75357	1.3275	0.95509	4.1798	73.64	-0.2245	-0.0748	0.1497	1219.3701	0.147457	-439.112768	-439.104098	-439.103154	-439.146544	32.206	
C	 0.0210650618	 1.5633534459	 0.0253488464	-0.403354
C	 0.0120321338	 0.0362287824	 0.0083878913	 0.030726
C	 0.6845729726	-0.5213483193	-1.272458446	-0.310374
C	 0.812322088	-2.0335590449	-1.254342686	 0.297681
O	 0.6356140196	-2.7388409817	-2.2159472312	-0.27757
C	 1.1689580422	-2.6656596837	 0.1198927452	 0.29919
O	 1.8517504533	-3.655768629	 0.1929506731	-0.276102
C	 0.5815818183	-1.9391493585	 1.3310860691	-0.286314
N	 0.6305679996	-0.4824006217	 1.228886274	-0.284304
H	 1.0489279815	 1.9460555432	 0.0276412112	 0.115293
H	-0.4814539661	 1.9675302412	-0.8579414215	 0.12531
H	-0.4832996898	 1.9365168135	 0.9198574837	 0.132974
H	-1.0323637641	-0.3066810975	 0.0225593713	 0.095264
H	 0.169096633	-0.2214764189	-2.1905408482	 0.12573
H	 1.7060632239	-0.1123481908	-1.3207145594	 0.123457
H	-0.4713938937	-2.2449051778	 1.4254717207	 0.135286
H	 1.0991601035	-2.2809514527	 2.2313965417	 0.135902
H	 1.5932944627	-0.1615457497	 1.2907305946	 0.221205
50.3792	96.6536	207.3972	240.8512	274.8455	307.552	334.4866	387.7784	414.0034	471.775	536.4008	643.9139	657.0123	735.7691	780.2483	843.971	891.0574	927.8779	959.0906	1056.543	1080.8311	1101.8423	1133.7256	1148.8626	1187.9049	1226.839	1283.2364	1293.2292	1331.1643	1359.5184	1376.4894	1413.2102	1451.0823	1452.858	1479.0562	1496.9571	1502.518	1810.0562	1821.9059	2994.1243	3002.5721	3011.7551	3033.896	3083.3537	3100.8198	3103.3857	3129.2532	3497.9233
CC1CC(=O)C(=O)CN1	C[C@H]1CC(=O)C(=O)CN1	
InChI=1S/C6H9NO2/c1-4-2-5(8)6(9)3-7-4/h4,7H,2-3H2,1H3	InChI=1S/C6H9NO2/c1-4-2-5(8)6(9)3-7-4/h4,7H,2-3H2,1H3/t4-/m0/s1
