13
gdb 131910	4.38235	1.16113	0.92319	3.8586	67.42	-0.2781	-0.0953	0.1828	1173.446	0.088716	-489.834886	-489.827244	-489.8263	-489.867896	26.562	
C	-0.0088558797	 1.4002926247	 0.1605537192	-0.49119
C	-0.0348219962	-0.0705990854	-0.0240554166	 0.404275
N	-0.2011372145	-0.7472764211	-1.126941836	-0.29116
C	-0.1412553817	-2.0700272032	-0.7456142143	-0.131956
C	 0.0623516389	-2.1139158774	 0.5956563387	 0.403382
O	 0.1332286141	-0.8470714579	 1.0758069923	-0.166547
N	 0.2026690091	-3.2003615061	 1.5098375733	 0.329993
O	 0.129467924	-4.3218869186	 1.0151228402	-0.366847
O	 0.3813273114	-2.9372158248	 2.6910944911	-0.354086
H	 0.9482734376	 1.7218221083	 0.5829082578	 0.16316
H	-0.1567507938	 1.8797601959	-0.8067747975	 0.168918
H	-0.7979348538	 1.7192784785	 0.8486332141	 0.163154
H	-0.2447092054	-2.8904371229	-1.4356295023	 0.168905
78.5532	98.3762	155.7726	182.9235	298.4628	349.4981	430.3212	549.1316	611.4675	695.5356	701.569	775.3694	833.8267	912.0315	976.0796	986.9071	1033.5038	1066.7239	1161.0776	1219.2447	1254.3563	1374.8668	1399.0676	1424.9411	1472.9724	1474.8532	1567.1201	1606.4349	1633.4594	3051.327	3109.3896	3165.9292	3290.8675
CC1=NC=C(O1)N(=O)=O	Cc1ncc(o1)N(=O)=O	
InChI=1S/C4H4N2O3/c1-3-5-2-4(9-3)6(7)8/h2H,1H3	InChI=1S/C4H4N2O3/c1-3-5-2-4(9-3)6(7)8/h2H,1H3
