19
gdb 108525	2.46296	1.54973	1.16324	2.442	70.36	-0.2502	0.0589	0.309	1094.9217	0.160101	-460.13319	-460.124861	-460.123916	-460.166466	31.035	
O	-0.0828997337	 1.4412368418	 0.1981213074	-0.425329
C	-0.000437683	 0.0329942958	 0.0223009292	-0.186147
C	-1.4158226534	-0.4983377791	-0.0215552003	 0.303282
C	-2.2284518271	-0.5319719888	 1.2887641341	-0.127288
O	-2.5630825565	-1.92500249	 1.0896453003	-0.296392
C	-1.6441195149	-2.0271968467	-0.0226725618	 0.039812
C	-2.2942652674	-2.3450747173	-1.3793097092	-0.099557
O	-2.1347942274	-1.1699456001	-2.166011592	-0.250754
C	-2.1975051583	-0.0610321432	-1.2778026896	-0.148446
H	 0.8080355261	 1.8030178193	 0.1837880485	 0.292069
H	 0.5140639638	-0.2273998273	-0.9167491749	 0.099115
H	 0.5528884845	-0.4399906944	 0.8490245237	 0.088825
H	-1.6252600458	-0.386599077	 2.1936826131	 0.101397
H	-3.1175732034	 0.1057852152	 1.3414652498	 0.108004
H	-0.7913771888	-2.6718624278	 0.2211023039	 0.07569
H	-1.8191867463	-3.1702646373	-1.9165086901	 0.107295
H	-3.3557250823	-2.5840053882	-1.2135126729	 0.103413
H	-3.2424806534	 0.1757961013	-1.0232492733	 0.09208
H	-1.7549958625	 0.8024442937	-1.7782044259	 0.122933
82.6072	103.5749	176.9945	185.4329	265.9564	321.3238	354.1929	379.6567	465.6446	632.4766	677.1324	696.7469	843.7292	892.3591	941.4779	948.5024	959.1771	989.3581	1012.6358	1042.3651	1055.0347	1075.5364	1101.2742	1109.6455	1152.543	1192.8508	1204.1145	1214.1807	1251.0749	1268.2903	1292.3723	1307.7498	1336.4881	1357.6746	1364.9102	1398.6137	1459.8523	1500.88	1515.0915	1515.8047	1529.5118	2966.0496	2981.2239	2996.2297	2998.6779	3018.2463	3034.9922	3070.0056	3093.9842	3111.9781	3830.0015
OCC12COC1COC2	OC[C@]12CO[C@H]1COC2	
InChI=1S/C6H10O3/c7-2-6-3-8-1-5(6)9-4-6/h5,7H,1-4H2	InChI=1S/C6H10O3/c7-2-6-3-8-1-5(6)9-4-6/h5,7H,1-4H2/t5-,6-/m0/s1
