16
gdb 74578	3.54333	1.32314	1.13296	3.2826	70.5	-0.2389	-0.0344	0.2046	1086.5087	0.12395	-437.915137	-437.907415	-437.906471	-437.947799	28.809	
C	 0.0500361105	 1.4722400675	-0.0883131049	-0.472996
C	 0.0012053878	-0.0151688123	-0.134591626	 0.399056
N	 0.1564252231	-0.7438049815	-1.1699898039	-0.29582
C	 0.0215066858	-2.1318791329	-0.7329510113	-0.141495
C	-0.3065637714	-2.0284045943	 0.7976195584	 0.066585
C	-1.7515165732	-2.5333220762	 0.5619986049	-0.377869
C	-1.4117193504	-2.7021231428	-0.9387438772	 0.407118
O	-2.0053061205	-3.1404625352	-1.8748034991	-0.276018
O	-0.2154923254	-0.6228203913	 1.0717084157	-0.254055
H	 0.8140910645	 1.8020484251	 0.6223441733	 0.149416
H	 0.2735801121	 1.8628574532	-1.0801260867	 0.15819
H	-0.9090815026	 1.871928513	 0.256131124	 0.148932
H	 0.841739189	-2.7567486601	-1.0957966805	 0.103189
H	 0.2916538552	-2.5689691865	 1.5296187044	 0.10178
H	-2.0085967109	-3.4748625759	 1.0561331906	 0.140359
H	-2.5313136637	-1.79795678	 0.7803702484	 0.143627
70.4201	134.6801	144.0636	254.3268	334.9644	390.0904	431.987	500.1771	610.4767	626.6766	670.4152	752.4447	792.1689	849.1508	917.3568	925.9918	960.202	1004.4639	1039.0342	1048.3182	1069.0406	1093.9305	1124.9606	1176.1829	1218.8652	1239.4287	1256.0935	1292.0495	1361.3136	1412.4654	1422.7539	1473.9049	1474.858	1712.6526	1903.9678	3051.5761	3061.7583	3079.8942	3109.2635	3116.1719	3129.7182	3169.4568
CC1=NC2C(CC2=O)O1	CC1=N[C@H]2[C@H](CC2=O)O1	
InChI=1S/C6H7NO2/c1-3-7-6-4(8)2-5(6)9-3/h5-6H,2H2,1H3	InChI=1S/C6H7NO2/c1-3-7-6-4(8)2-5(6)9-3/h5-6H,2H2,1H3/t5-,6+/m0/s1
