22
gdb 110127	2.37226	1.17783	0.99266	1.4986	84.89	-0.2284	-0.0339	0.1945	1351.7151	0.191888	-404.334216	-404.323823	-404.322879	-404.369917	37.337	
C	 2.0406202118	-4.4365714066	-0.6242406315	-0.384627
C	 1.0035130693	-3.3429733969	-0.3427843413	-0.217291
C	 1.0764626866	-2.2252799935	-1.3626809876	 0.009115
C	 0.2204977573	-2.1896798309	-2.6276400691	-0.126525
C	-0.7565603528	-3.2677048097	-2.9105227125	 0.147818
O	-1.4931381036	-3.8123390931	-2.1153747355	-0.279789
N	 0.0782456798	-1.2069653353	-1.5364734913	-0.109068
C	-1.1342723197	-1.1581368641	-0.7124758838	-0.129636
C	-2.17117081	-0.2526791801	-1.3707511274	-0.377066
H	 1.8469304977	-4.9252416033	-1.5847803248	 0.121348
H	 3.056544148	-4.0275092219	-0.657390127	 0.115384
H	 2.0165041172	-5.2062585314	 0.1523854248	 0.119017
H	 0.0027358074	-3.7778720948	-0.3229319557	 0.142263
H	 1.1875939941	-2.9082573811	 0.648625815	 0.104185
H	 2.0909452039	-1.8512528589	-1.5170586371	 0.097524
H	 0.6700006762	-1.7793820686	-3.5302674818	 0.094966
H	-0.7740354379	-3.5648277081	-3.9836379209	 0.080998
H	-1.5722058179	-2.1432475849	-0.5238183151	 0.13262
H	-0.8258598778	-0.7348541743	 0.2508916603	 0.102905
H	-1.7552124704	 0.7398946059	-1.5654163835	 0.122619
H	-2.5073939461	-0.6740521304	-2.323813857	 0.11881
H	-3.0485029531	-0.1460458878	-0.7256931572	 0.114432
62.7246	72.8913	125.6965	161.2998	181.4182	209.2308	242.1248	248.4582	274.1648	320.2147	398.8102	452.9343	583.6174	670.0188	755.094	788.9768	817.0303	823.1887	859.9728	932.247	981.817	999.3851	1023.5992	1065.9438	1068.9571	1098.2034	1125.8944	1160.8128	1173.3195	1188.1457	1290.935	1316.3296	1334.5183	1345.8226	1383.5453	1393.8085	1411.1292	1412.0252	1428.784	1438.7557	1484.3931	1488.8948	1494.4807	1499.1704	1504.7816	1507.1669	1785.3469	2873.7548	3025.0327	3033.1794	3034.2729	3039.7316	3076.2308	3080.004	3093.8409	3108.8918	3110.4225	3120.5685	3121.7282	3125.3963
CCC1C(C=O)N1CC	CC[C@H]1[C@@H](C=O)N1CC	
InChI=1S/C7H13NO/c1-3-6-7(5-9)8(6)4-2/h5-7H,3-4H2,1-2H3	InChI=1S/C7H13NO/c1-3-6-7(5-9)8(6)4-2/h5-7H,3-4H2,1-2H3/t6-,7+,8?/m0/s1
