19
gdb 71823	3.22769	1.73561	1.39179	1.2395	79.1	-0.2318	0.0206	0.2524	959.8704	0.16125	-385.874208	-385.867155	-385.86621	-385.905114	29.715	
O	-0.0015873346	 1.4100270975	 0.0141649121	-0.482236
C	 0.0263409128	 0.0092474257	 0.002038885	 0.424177
C	 0.470924772	-0.6800738064	-1.3185423378	-0.305096
C	-0.8003467673	-1.6138649398	-1.2530655301	-0.063301
C	-0.5330031456	-2.9889451711	-0.7013556526	-0.077302
C	-0.5540459211	-3.0009302959	 0.6335363107	-0.077291
C	-0.839024588	-1.6359023545	 1.2011521606	-0.063319
C	 0.4292754509	-0.7037895529	 1.3234161563	-0.305041
C	-1.3077207475	-0.7920298578	-0.0261709375	-0.094622
H	 0.9082727112	 1.7283649687	 0.0294338833	 0.274151
H	 0.4074851847	 0.0340551359	-2.1443032774	 0.101645
H	 1.4449810958	-1.1773960884	-1.3372253065	 0.088022
H	-1.404262648	-1.6018740565	-2.1625146224	 0.071083
H	-0.2856339328	-3.8359722733	-1.3324872668	 0.090152
H	-0.3264569935	-3.8592279461	 1.2568359053	 0.090155
H	-1.4713180147	-1.6400810444	 2.091176947	 0.071081
H	 1.4024081557	-1.2016264022	 1.3639264594	 0.087996
H	 0.3396166529	-0.0045157114	 2.1593885697	 0.10168
H	-2.2935102029	-0.3304890072	-0.0375677584	 0.068065
193.5382	227.1808	230.475	350.5398	383.8947	389.2027	522.6279	584.1165	634.363	714.6824	764.7297	767.0918	818.4755	824.2331	843.7853	899.0954	932.6751	945.3902	946.4322	971.6685	973.8073	986.0922	1050.2996	1076.2255	1100.0534	1136.6725	1154.9339	1160.5125	1202.0304	1210.5684	1236.762	1244.4489	1256.6856	1293.8658	1300.4719	1322.1698	1370.287	1373.8327	1467.6519	1478.6869	1665.3775	3045.9422	3048.4986	3080.5441	3081.4775	3108.8061	3111.014	3130.0132	3176.4431	3201.9794	3790.0308
OC12CC3C=CC(C1)C23	O[C@@]12C[C@H]3C=C[C@@H](C1)[C@@H]23	
InChI=1S/C8H10O/c9-8-3-5-1-2-6(4-8)7(5)8/h1-2,5-7,9H,3-4H2	InChI=1S/C8H10O/c9-8-3-5-1-2-6(4-8)7(5)8/h1-2,5-7,9H,3-4H2/t5-,6+,7+,8+
