16
gdb 32263	2.68718	1.65037	1.02969	1.875	77.35	-0.2058	-0.0209	0.1849	1111.3362	0.126377	-434.124049	-434.116044	-434.1151	-434.156518	30.158	
C	 0.0197324049	 1.3888746448	 0.0128061803	-0.23687
O	-0.0172820603	-0.0373896495	-0.0207720224	-0.277857
C	-1.2417619041	-0.6118612295	-0.0145116105	 0.404429
N	-2.3344124893	 0.10278723	 0.0208848529	-0.342984
C	-3.506204261	-0.5726981161	 0.0340489399	-0.055656
C	-3.5340737172	-1.9490154858	 0.023269058	-0.036323
N	-2.4089696748	-2.6904753967	-0.0069305317	-0.319698
C	-1.2591324247	-2.0399321512	-0.0372938709	 0.291444
N	-0.081696251	-2.7396597215	-0.1302197751	-0.563035
H	 1.0770632096	 1.656436627	 0.0013551172	 0.128231
H	-0.4902795631	 1.8128518689	-0.8568492021	 0.138962
H	-0.461476303	 1.7720473915	 0.9173654616	 0.136962
H	-4.4142677516	 0.0202686853	 0.0594353996	 0.105454
H	-4.4733027576	-2.49344727	 0.0434758038	 0.105527
H	-0.144115019	-3.7154876906	 0.1158040708	 0.257293
H	 0.7511327621	-2.2556009766	 0.1632609285	 0.264123
109.2462	148.8521	187.286	217.7585	333.7199	339.7292	432.4572	457.2528	527.1916	531.5572	575.368	605.8925	608.7475	790.0818	815.9166	854.9178	910.0834	948.5432	1037.3207	1067.1898	1117.4528	1179.4587	1203.6451	1250.1214	1263.4995	1331.5048	1382.4757	1456.8442	1477.8919	1482.9711	1499.4189	1518.0444	1586.8194	1620.3905	1642.8145	3042.3877	3113.3027	3148.7838	3168.1868	3190.1813	3586.8827	3710.8903
COC1=NC=CN=C1N	COc1nccnc1N	
InChI=1S/C5H7N3O/c1-9-5-4(6)7-2-3-8-5/h2-3H,1H3,(H2,6,7)	InChI=1S/C5H7N3O/c1-9-5-4(6)7-2-3-8-5/h2-3H,1H3,(H2,6,7)
