16
gdb 11615	5.89365	0.80623	0.74856	2.6974	71.84	-0.2568	0.0128	0.2696	1493.9424	0.128071	-383.679575	-383.670598	-383.669654	-383.714921	30.984	
C	 0.0047065562	 1.553269359	 0.0113849265	-0.384848
C	 0.0061159657	 0.0179468164	 0.0551560475	-0.018068
O	 0.716271559	-0.475376794	 1.1878529128	-0.411083
C	-1.3578828133	-0.5187996019	-0.0077487424	 0.114267
C	-2.4845183153	-0.9477302508	-0.0197838074	 0.044982
C	-3.8344333852	-1.4416128746	-0.0228141144	-0.116351
C	-4.3864476255	-2.1847275315	-1.1742060031	-0.158549
O	-4.0244571309	-2.8662827713	 0.0178988154	-0.211559
H	 1.0340653479	 1.9164345492	 0.0670197729	 0.128157
H	-0.455217032	 1.9179812011	-0.9116935988	 0.125561
H	-0.5588867161	 1.959957556	 0.8572270585	 0.117844
H	 0.572847073	-0.357283662	-0.805591441	 0.121233
H	 0.1683167981	-0.3171364952	 1.9647195442	 0.284116
H	-4.5370895621	-0.8910779911	 0.6019465733	 0.117238
H	-5.4543503607	-2.1220396731	-1.380126691	 0.120625
H	-3.7471448087	-2.3695735062	-2.0352012432	 0.126435
17.3177	88.5214	102.2434	192.8871	214.2835	256.0775	286.2308	381.7446	472.973	505.0537	540.1977	590.4712	710.4844	831.8653	859.1797	911.5681	979.0226	1026.7733	1072.583	1089.1396	1102.7976	1153.1744	1161.0848	1185.676	1278.5436	1286.0394	1336.4757	1398.6669	1405.2241	1417.6082	1488.0071	1491.6611	1518.9287	2355.9257	3038.0153	3041.6276	3085.7101	3113.9511	3115.2398	3128.6989	3179.9679	3805.2322
CC(O)C#CC1CO1	C[C@@H](O)C#C[C@H]1CO1	
InChI=1S/C6H8O2/c1-5(7)2-3-6-4-8-6/h5-7H,4H2,1H3	InChI=1S/C6H8O2/c1-5(7)2-3-6-4-8-6/h5-7H,4H2,1H3/t5-,6+/m1/s1
