19
gdb 87740	4.75761	0.90471	0.86792	1.7049	83.14	-0.2299	0.0232	0.2531	1397.2575	0.156728	-385.822384	-385.813231	-385.812287	-385.85665	34.449	
C	 0.2303373683	 1.4690914978	-0.3657447825	-0.40763
C	 0.0784641103	 0.0034928983	-0.0263509367	-0.074035
C	 1.2991076223	-0.9080455099	 0.0773630663	-0.360546
C	 0.5160821796	-0.5417899167	 1.2941737216	 0.459706
C	 0.9421616742	 0.1771478181	 2.5673680376	-0.379952
C	 0.0441905103	-0.8774488289	 3.2752556063	-0.046541
O	-0.2656164795	-1.5104171931	 2.0035523451	-0.310021
C	 0.6867783094	-1.7698240776	 4.2241387861	 0.336404
C	 1.2229802773	-2.4950163769	 5.0186930179	-0.45656
H	 1.1255155711	 1.8934904274	 0.1016604984	 0.114403
H	 0.324798479	 1.6169002591	-1.4471139929	 0.121682
H	-0.6317777832	 2.0522358517	-0.0229070215	 0.118668
H	-0.8102757717	-0.4770147386	-0.4287488977	 0.0976
H	 1.2042166276	-1.9264271192	-0.2840263892	 0.124234
H	 2.283916114	-0.4676160963	-0.0523449735	 0.110315
H	 2.0009416172	 0.1038636881	 2.8174690867	 0.12509
H	 0.6054583881	 1.2099206032	 2.672599504	 0.117334
H	-0.8650872034	-0.4533816519	 3.7188656302	 0.107536
H	 1.693307629	-3.1416646247	 5.7177117038	 0.202312
38.0983	110.2338	184.5746	199.4293	216.2087	233.4361	341.6488	407.6531	457.054	473.3047	531.0496	604.878	620.9883	669.1212	771.2254	786.1717	861.0295	884.8371	895.6309	921.8508	979.9408	998.7707	1026.5723	1052.4548	1069.3203	1110.4307	1123.2532	1160.2216	1178.0121	1200.9856	1242.5779	1271.4388	1338.5616	1363.226	1408.7121	1421.3617	1481.6082	1492.6806	1495.7064	1507.7997	2236.1959	3024.5	3025.4889	3080.7588	3088.758	3092.17	3120.1809	3139.4955	3140.5564	3212.637	3503.0572
CC1CC11CC(O1)C#C	C[C@H]1C[C@]21C[C@@H](O2)C#C	
InChI=1S/C8H10O/c1-3-7-5-8(9-7)4-6(8)2/h1,6-7H,4-5H2,2H3	InChI=1S/C8H10O/c1-3-7-5-8(9-7)4-6(8)2/h1,6-7H,4-5H2,2H3/t6-,7-,8+/m0/s1
