18
gdb 78825	3.72589	1.31542	1.14957	0.6601	82.35	-0.2086	0.0544	0.263	1101.5949	0.146983	-364.699976	-364.69213	-364.691185	-364.732024	31.211	
C	 0.0065572433	 1.5398077522	 0.0762834455	-0.334389
N	 0.111179952	 0.0902505195	-0.0143534874	-0.076631
C	 0.7726393619	-0.5227858973	-1.1600964045	-0.044067
C	 2.2945742479	-0.6468675025	-0.8721042089	-0.081519
C	 1.2950830702	-1.6588095244	-0.3477582908	-0.093502
C	 1.0740614487	-0.6460559167	 0.8389980229	-0.028541
C	 2.5125340539	-0.0609553005	 0.5305904312	-0.235584
C	 3.5535250925	-0.7285751618	 1.2871853769	 0.324956
C	 4.4050687509	-1.2794010423	 1.9342673693	-0.446598
H	 0.9380374946	 2.0871126609	-0.1365203686	 0.105262
H	-0.7515479465	 1.8826140481	-0.6357486852	 0.122166
H	-0.3327152597	 1.8114370165	 1.0813540216	 0.122812
H	 0.3676138157	-0.50532244	-2.1647373329	 0.098716
H	 3.0335343625	-0.7787368085	-1.6517305351	 0.094801
H	 1.204135493	-2.7301186701	-0.4376289101	 0.10203
H	 0.7838883538	-0.8591760194	 1.8661461378	 0.087426
H	 2.6247172016	 1.0254338705	 0.619921768	 0.091909
H	 5.1638684239	-1.7606963742	 2.4996116702	 0.190753
124.7668	145.1965	183.2703	248.8245	292.9088	401.9172	497.8313	506.5557	596.7064	605.4456	637.5046	670.8707	777.0263	793.2108	809.0497	839.1256	868.6353	908.1494	950.4604	962.0488	1010.6157	1027.9184	1057.6796	1065.7517	1075.0393	1129.4981	1158.882	1171.4535	1194.0753	1204.1515	1223.3308	1250.1589	1292.9229	1346.8073	1360.131	1447.4602	1485.1461	1509.0618	2231.655	2980.1385	3039.8863	3064.6091	3100.8594	3136.3611	3187.4316	3203.8724	3238.4491	3505.2716
CN1C2C3C2C1C3C#C	CN1[C@H]2[C@@H]3[C@H]2[C@H]1[C@H]3C#C	
InChI=1S/C8H9N/c1-3-4-5-6-7(4)9(2)8(5)6/h1,4-8H,2H3	InChI=1S/C8H9N/c1-3-4-5-6-7(4)9(2)8(5)6/h1,4-8H,2H3/t4-,5-,6-,7+,8-/m0/s1
