21
gdb 100186	2.04217	1.35316	1.08455	3.8018	74.48	-0.25	-0.0258	0.2242	1249.485	0.178036	-461.373464	-461.362479	-461.361535	-461.409138	39.977	
C	-0.1521948072	 1.6653166742	-0.0767323468	-0.39702
C	-0.0896152832	 0.1333471016	-0.0556175808	-0.242585
C	 0.6624836672	-0.478807017	-1.2464763348	 0.225814
O	 0.1154736309	-0.0713891957	-2.5079977717	-0.479855
C	 2.1129384105	 0.0221828611	-1.2725137063	 0.174172
O	 2.8404106989	-0.0298301173	-0.3165617629	-0.271185
C	 0.7388548416	-2.0301951506	-1.2109474414	 0.135281
C	-0.617276669	-2.7324010905	-1.1212653617	-0.428264
O	 1.4539921532	-2.4569060638	-2.3636646748	-0.448477
H	 0.8445561972	 2.1047149495	 0.0231578711	 0.137405
H	-0.5882924051	 2.0316211769	-1.0105485438	 0.11928
H	-0.7626842982	 2.0350817704	 0.7517105076	 0.118357
H	 0.4084103045	-0.2088605506	 0.8576287082	 0.128364
H	-1.1067073746	-0.2768257016	-0.0342237804	 0.095533
H	-0.8431466773	-0.1486374398	-2.4611234916	 0.289764
H	 2.4358008172	 0.442156004	-2.2481867	 0.095352
H	 1.3566490062	-2.310466509	-0.3512020957	 0.108121
H	-1.1134898889	-2.5572612024	-0.1624161495	 0.121683
H	-1.2899076676	-2.4087220381	-1.9251205583	 0.098851
H	-0.4631718005	-3.8080756851	-1.2369656032	 0.136143
H	 1.054818524	-1.9842399862	-3.1064497531	 0.283268
80.3934	95.0815	104.5769	165.2207	202.4819	234.8544	241.614	267.3879	294.9936	298.841	326.5201	373.0669	443.191	473.6929	511.8928	558.4931	665.5573	730.799	791.8398	874.8406	926.7257	958.2095	980.4611	1022.2454	1046.2008	1095.6232	1103.7185	1137.4975	1141.445	1183.8781	1279.1739	1291.5399	1343.4608	1362.4945	1372.3579	1395.4445	1412.1575	1413.6579	1430.1263	1476.6829	1489.4085	1497.1441	1498.3193	1509.1392	1836.2721	2915.6886	3025.9877	3033.1146	3045.9463	3062.4015	3082.1597	3100.9766	3116.778	3119.5754	3125.3001	3760.5065	3821.4579
CCC(O)(C=O)C(C)O	CC[C@@](O)(C=O)[C@@H](C)O	
InChI=1S/C6H12O3/c1-3-6(9,4-7)5(2)8/h4-5,8-9H,3H2,1-2H3	InChI=1S/C6H12O3/c1-3-6(9,4-7)5(2)8/h4-5,8-9H,3H2,1-2H3/t5-,6-/m1/s1
