19
gdb 72149	2.50392	1.98033	1.76484	2.664	72.84	-0.2328	0.0704	0.3032	892.5255	0.16217	-423.028323	-423.021623	-423.020678	-423.058821	28.831	
O	-0.0427003182	 1.3694808204	 0.0787023328	-0.50601
C	 0.056683404	-0.0203752694	 0.048302805	 0.426594
C	 0.9150759953	-0.7600540239	 1.077927282	-0.302471
C	 0.5224960922	-2.1722566967	 0.59076176	-0.03882
C	-1.0252488043	-2.0956430723	 0.6939648479	-0.227697
C	-1.3095505251	-0.7634801868	-0.0256317325	 0.064503
O	-1.1733474028	-0.9536271922	-1.4553136089	-0.301521
C	 0.2549415216	-0.7600392779	-1.322818815	 0.028459
C	 0.9140014979	-2.0888515132	-0.9104084748	-0.227516
H	 0.8392340363	 1.7404387965	-0.0325471267	 0.27844
H	 1.9856706432	-0.5482536669	 0.9750626543	 0.085763
H	 0.6084345514	-0.5477585197	 2.1066430906	 0.101685
H	 0.9725517536	-3.0078253657	 1.1288292618	 0.064476
H	-1.547724344	-2.9231350067	 0.2073215964	 0.106159
H	-1.3374924759	-2.0548524325	 1.7436725251	 0.095982
H	-2.2291934973	-0.2407455662	 0.24330615	 0.08252
H	 0.6880725642	-0.2407267626	-2.1812832588	 0.071542
H	 2.0040037619	-2.0435991537	-1.0191575821	 0.091179
H	 0.5394577159	-2.9186079605	-1.5155496572	 0.10673
235.688	270.1232	310.3967	372.3426	417.84	453.7756	458.7848	580.4792	612.0944	642.1003	780.3358	836.1118	853.6657	876.0432	895.7976	906.451	919.4119	950.5986	970.3771	987.8106	1005.1163	1059.6949	1083.1946	1089.2266	1122.0067	1148.2292	1159.6387	1180.076	1214.9656	1243.7648	1266.0324	1280.3147	1296.6868	1326.0394	1334.2713	1343.5088	1355.5925	1400.0251	1467.8628	1473.4576	1502.4936	3035.2071	3039.9296	3043.201	3081.8701	3093.3759	3097.6902	3100.0311	3101.6253	3104.7694	3804.4627
OC12CC3CC1OC2C3	O[C@@]12C[C@H]3C[C@@H]1O[C@@H]2C3	
InChI=1S/C7H10O2/c8-7-3-4-1-5(7)9-6(7)2-4/h4-6,8H,1-3H2	InChI=1S/C7H10O2/c8-7-3-4-1-5(7)9-6(7)2-4/h4-6,8H,1-3H2/t4-,5-,6+,7-
