16
gdb 123949	3.57563	1.69311	1.19565	4.7152	69.41	-0.2335	0.0245	0.258	984.2814	0.129319	-434.101448	-434.094859	-434.093915	-434.132598	25.441	
C	-0.0112285321	 1.4968142577	-0.0058371193	-0.243319
C	 1.4178396768	 2.0371125134	 0.0278961538	-0.085429
O	 2.1162559361	 1.6271748378	 1.2161544972	-0.261358
C	 1.9513618565	 0.3394051523	 1.5387160991	 0.485867
N	 2.6621999678	-0.3243245812	 2.4234156149	-0.372592
C	 2.0758812983	-1.556492469	 2.3794368349	 0.033772
N	 1.0675617031	-1.6930103706	 1.5375018448	-0.275119
N	 0.991772535	-0.440955789	 0.9923137599	-0.044089
C	 0.004130912	-0.0363530634	 0.0130293853	-0.14853
H	-0.5579160636	 1.8779354976	 0.8630543971	 0.134042
H	-0.5188348922	 1.8574024433	-0.9047184702	 0.123273
H	 1.983311927	 1.6944549096	-0.849483993	 0.121628
H	 1.436452886	 3.1277000258	 0.047930188	 0.133893
H	 2.4111384797	-2.3795281313	 2.9930621242	 0.125872
H	-0.9662962485	-0.4496770357	 0.298264361	 0.142373
H	 0.2661750683	-0.4435485875	-0.9710608378	 0.129717
112.3993	172.3837	299.3006	344.0341	412.8207	475.3918	544.8218	666.7311	705.1489	727.5991	743.4369	887.8317	898.4315	906.9043	942.6228	982.8547	1011.0686	1076.2011	1132.4167	1169.8254	1220.0953	1232.1214	1238.6856	1293.6509	1299.5525	1302.7734	1368.0218	1377.9318	1404.5006	1456.729	1480.2436	1494.3484	1518.1525	1557.1869	1603.7993	3019.4966	3033.9064	3057.0883	3100.9724	3110.7456	3124.2648	3257.7728
C1COC2=NC=NN2C1	C1COc2ncnn2C1	
InChI=1S/C5H7N3O/c1-2-8-5(9-3-1)6-4-7-8/h4H,1-3H2	InChI=1S/C5H7N3O/c1-2-8-5(9-3-1)6-4-7-8/h4H,1-3H2
