13
gdb 66991	2.64153	2.08186	1.59514	1.2596	55.71	-0.241	-0.0432	0.1978	825.7052	0.088996	-493.669405	-493.662717	-493.661773	-493.700475	25.84	
O	 0.0327999969	 1.3962812059	 0.1044919153	-0.468216
C	 0.0305506128	 0.0250632898	 0.0547486666	 0.208915
C	-0.2421871841	-0.9513863212	 1.200901579	-0.022973
O	 0.555631561	-2.1237574317	 1.0058816502	-0.246789
C	 0.5148459556	-2.1667896268	-0.4154395915	-0.011195
O	-0.8606438127	-2.0574615004	-0.7619110033	-0.24684
C	-1.1824655976	-0.9074030641	 0.027204741	-0.023014
C	 1.0203744774	-0.7426174447	-0.767182639	 0.432661
O	 1.9030211889	-0.3178710391	-1.4587117197	-0.340142
H	 0.7583204276	 1.6870895823	-0.4670642426	 0.305009
H	-0.4653353652	-0.6918029398	 2.2248986242	 0.142187
H	 0.9854377566	-3.0536401764	-0.8257419021	 0.128223
H	-2.2202648272	-0.6096267339	 0.0343871918	 0.142176
120.9706	217.3704	233.6941	315.4328	430.8185	505.3448	537.0362	610.5812	689.4186	694.0721	788.1955	803.7129	870.9092	882.9386	912.1629	926.4771	971.8178	985.8389	1053.6437	1060.771	1083.2929	1161.2837	1209.1626	1221.988	1302.869	1311.0619	1367.8739	1481.702	1890.5524	3204.369	3238.1828	3245.6726	3735.5093
OC12C3OC(OC13)C2=O	O[C@@]12[C@@H]3O[C@@H](O[C@H]13)C2=O	
InChI=1S/C5H4O4/c6-1-4-8-2-3(9-4)5(1,2)7/h2-4,7H	InChI=1S/C5H4O4/c6-1-4-8-2-3(9-4)5(1,2)7/h2-4,7H/t2-,3+,4+,5+
