17
gdb 50349	3.26094	1.42359	1.33666	3.6263	67.43	-0.248	-0.0282	0.2198	998.6059	0.13692	-458.966102	-458.958901	-458.957957	-458.998196	27.715	
O	-0.7883583845	 1.0431247799	 0.7123489469	-0.251544
C	 0.178355843	 0.7622587218	 0.0549121141	 0.156981
C	 1.4266864314	 1.6308324678	 0.0029656685	 0.022299
O	 2.5737977469	 0.8569066668	-0.391867546	-0.299332
C	 3.077516644	 1.4718369787	-1.5935761663	 0.076094
C	 2.057383787	 1.2104782656	-2.7071207764	-0.084923
O	 0.9423548565	 2.0451555622	-2.3173717126	-0.285721
C	 1.3499490214	 2.703364067	-1.1080895785	 0.063775
C	 2.8436237266	 2.9672916672	-1.3367363066	-0.245454
H	 0.236243431	-0.158372595	-0.5643407704	 0.088604
H	 1.5839232538	 2.0759118487	 0.9935897584	 0.105723
H	 4.0909611843	 1.1168823116	-1.7732156895	 0.093312
H	 2.4154579612	 1.5077862211	-3.7007953533	 0.106113
H	 1.7486359609	 0.1601397399	-2.7324708664	 0.114113
H	 0.6783173929	 3.5360890078	-0.9096357565	 0.104469
H	 3.3791236763	 3.3365040551	-0.4608861969	 0.11813
H	 3.0245179774	 3.6061185038	-2.2030944883	 0.117362
72.7961	123.1402	231.3418	297.7132	419.6753	433.7545	488.2966	525.3746	635.8618	803.0185	809.8942	840.3587	876.3993	897.963	926.3374	953.0095	968.7716	980.5552	1008.6322	1041.7911	1064.2012	1079.4836	1106.1171	1143.4543	1194.3926	1220.938	1259.3153	1276.7305	1290.3909	1305.1671	1314.9577	1339.0439	1376.6975	1401.4532	1480.3424	1515.5557	1835.8751	2905.7224	3022.7125	3033.7473	3075.4697	3084.0121	3141.2111	3147.0813	3152.317
O=CC1OC2COC1C2	O=C[C@H]1O[C@H]2CO[C@@H]1C2	
InChI=1S/C6H8O3/c7-2-6-5-1-4(9-6)3-8-5/h2,4-6H,1,3H2	InChI=1S/C6H8O3/c7-2-6-5-1-4(9-6)3-8-5/h2,4-6H,1,3H2/t4-,5-,6-/m1/s1
