19
gdb 117411	5.43864	0.60488	0.55171	1.3708	79.84	-0.2693	0.0122	0.2815	1993.6425	0.155485	-423.030661	-423.02002	-423.019076	-423.068802	36.4	
C	-0.1622340109	 1.5799163486	 0.0128295055	-0.386797
C	-0.0291484707	 0.0555381937	 0.0034145271	-0.157298
C	-1.3865021539	-0.6482972159	 0.0111690878	-0.309665
C	-1.2728349532	-2.1576700481	 0.0018185652	 0.458326
O	-0.2476158418	-2.7918181962	-0.0106927023	-0.351678
O	-2.4985497819	-2.7300749833	 0.0101271952	-0.24581
C	-2.4890492644	-4.171913995	 0.0024922442	-0.230498
C	-3.8610446275	-4.649156928	 0.0144019638	 0.287323
C	-4.9825290598	-5.0773877771	 0.0238833028	-0.413678
H	 0.8205305341	 2.0605056392	 0.0070714701	 0.11714
H	-0.7129429408	 1.9384121589	-0.8641623416	 0.114951
H	-0.6978960199	 1.9288164717	 0.902912902	 0.114953
H	 0.5366229228	-0.2693668746	-0.8762587536	 0.113923
H	 0.5515218564	-0.2788303502	 0.8697362053	 0.113908
H	-1.9788873313	-0.3629767112	 0.8896767781	 0.132881
H	-1.9937752761	-0.3533842805	-0.8539094351	 0.132863
H	-1.9528602028	-4.5254798397	-0.8849100467	 0.152096
H	-1.9343596724	-4.5346916095	 0.874657667	 0.152153
H	-5.9755674861	-5.4539181532	 0.0320234754	 0.204906
19.9631	36.8379	80.274	88.0413	168.9623	181.5584	248.0048	281.0588	328.0162	330.9817	387.1844	542.7768	583.6902	617.2903	683.7004	714.3768	748.3637	884.0768	897.1986	940.0194	983.2156	1013.7978	1032.0797	1053.1442	1123.1939	1127.7564	1195.4117	1247.7895	1249.2757	1321.5312	1326.3149	1386.925	1409.8089	1417.4835	1456.9175	1487.7393	1488.9775	1501.7025	1508.6667	1816.2249	2251.4046	3029.3911	3033.4062	3044.7517	3050.2875	3059.4147	3078.4492	3078.8696	3102.0599	3106.5392	3505.1013
CCCC(=O)OCC#C	CCCC(=O)OCC#C	
InChI=1S/C7H10O2/c1-3-5-7(8)9-6-4-2/h2H,3,5-6H2,1H3	InChI=1S/C7H10O2/c1-3-5-7(8)9-6-4-2/h2H,3,5-6H2,1H3
