18
gdb 118607	1.74876	1.27778	0.80369	3.0549	75.07	-0.2371	0.004	0.241	1422.7786	0.146953	-435.287047	-435.276946	-435.276002	-435.32301	34.648	
C	 0.1950191031	 1.2058662393	-0.0726249668	-0.31437
N	-0.0147930765	-0.228368219	 0.0570927574	-0.286604
C	-1.4099380303	-0.6119135359	 0.0429121746	-0.125683
C	-1.5464071311	-2.1522958693	 0.087555149	-0.165941
N	-0.8085857976	-2.7800047161	 1.1703314294	-0.260216
C	 0.4498935911	-3.2591957467	 0.9610281859	 0.174253
O	 1.0008332753	-3.2975152945	-0.1187941254	-0.328456
C	-2.9629157668	-2.535591748	 0.1453336764	 0.28451
N	-4.0834888067	-2.8084477851	 0.2097165043	-0.312214
H	 1.267848356	 1.4157199465	-0.0871608696	 0.128003
H	-0.2566913659	 1.6504654076	-0.9770692044	 0.100514
H	-0.2338670484	 1.7194836487	 0.7957610096	 0.123663
H	 0.5009218777	-0.7365246856	-0.65359893	 0.238289
H	-1.9049867904	-0.1762177792	 0.9213381677	 0.114094
H	-1.9743413819	-0.2584981411	-0.8406378442	 0.102855
H	-1.1111745265	-2.5640780201	-0.8302927451	 0.166837
H	-1.1430755718	-2.6719850755	 2.1151968963	 0.263538
H	 0.9108195408	-3.6348798762	 1.8926880948	 0.096927
59.4064	87.8207	114.782	117.7045	147.4077	217.4766	239.3408	261.4891	319.8268	357.2389	471.809	508.1861	545.6848	575.0018	751.8967	757.9136	905.8666	976.9869	1019.0455	1027.5046	1057.7916	1087.3208	1149.9852	1161.1283	1191.1288	1203.5901	1276.5707	1305.9142	1353.0209	1390.915	1423.3228	1460.9684	1488.027	1497.2654	1511.9962	1521.3955	1526.2397	1795.4556	2364.3855	2927.102	2950.2606	2971.9917	3028.9146	3054.8088	3065.339	3110.4734	3531.899	3635.2118
CNCC(NC=O)C#N	CNC[C@@H](NC=O)C#N	
InChI=1S/C5H9N3O/c1-7-3-5(2-6)8-4-9/h4-5,7H,3H2,1H3,(H,8,9)	InChI=1S/C5H9N3O/c1-7-3-5(2-6)8-4-9/h4-5,7H,3H2,1H3,(H,8,9)/t5-/m0/s1
