16
gdb 31860	5.13924	1.05683	0.88214	1.7319	78.38	-0.2022	-0.0352	0.167	1272.2837	0.125958	-434.118007	-434.109909	-434.108965	-434.15069	30.239	
C	-0.0404694724	 1.3957595214	 0.0305191042	-0.231799
O	 0.0052027015	-0.0268750299	-0.0140249017	-0.267725
C	 0.6294115015	-0.5818213932	-1.0754938368	 0.406475
N	 1.1624323482	 0.1759484732	-2.021872075	-0.326311
C	 1.7646104864	-0.4479799531	-3.0353282462	-0.080432
C	 1.8313114679	-1.8433990579	-3.111599596	 0.346714
N	 2.5057641755	-2.5031322866	-4.1308440906	-0.572575
N	 1.2794011854	-2.6024533118	-2.1528695963	-0.296466
C	 0.6887533786	-1.9808290244	-1.142748376	-0.09335
H	 0.9662964518	 1.8248164424	 0.0513760919	 0.131575
H	-0.570196091	 1.8034282523	-0.8363068098	 0.130618
H	-0.5745540491	 1.6437236886	 0.948912063	 0.127469
H	 2.206573235	 0.1775951418	-3.8075671585	 0.102004
H	 2.5283149875	-2.028630545	-5.0209587132	 0.24988
H	 2.2424971939	-3.475231673	-4.2085594628	 0.254028
H	 0.2403797693	-2.5871599448	-0.3609781262	 0.119896
87.1891	137.5271	190.2622	218.271	322.1579	379.3287	395.5793	436.7811	442.8704	550.4174	590.3512	623.5138	657.2631	783.2084	802.7207	892.6716	906.6789	944.0156	1026.2217	1067.8865	1089.0254	1178.5303	1202.4701	1257.3765	1316.8974	1323.0816	1358.2611	1421.4528	1472.0999	1479.2561	1500.4931	1529.3085	1587.838	1629.5293	1648.5768	3034.6036	3101.0435	3143.5587	3148.0199	3171.5784	3566.527	3674.7379
COC1=NC=C(N)N=C1	COc1ncc(N)nc1	
InChI=1S/C5H7N3O/c1-9-5-3-7-4(6)2-8-5/h2-3H,1H3,(H2,6,7)	InChI=1S/C5H7N3O/c1-9-5-3-7-4(6)2-8-5/h2-3H,1H3,(H2,6,7)
