22
gdb 121447	2.4565	0.82108	0.65068	1.4188	82.65	-0.2427	0.0246	0.2673	1790.2836	0.191788	-441.48352	-441.472238	-441.471294	-441.521708	38.94	
C	-0.2385182285	 1.6593712104	 0.7152225756	-0.379321
C	-0.0314639634	 0.1668771381	 0.4490569041	-0.153849
C	 0.7711163285	-0.5263200296	 1.5596392171	-0.150346
N	 0.8526867307	-1.9552485523	 1.325783061	-0.305518
C	 1.9212477759	-2.5230333463	 0.9648166611	 0.370619
C	 3.3046897875	-1.9559003495	 0.6706767126	-0.14137
O	 4.3487850768	-2.8343149621	 1.0250794932	-0.417799
O	 1.946189928	-3.8602013802	 0.7272381757	-0.261404
C	 0.7279322292	-4.5731080343	 0.9350078449	-0.227083
H	 0.7178292502	 2.1886703507	 0.7926276626	 0.114427
H	-0.8127155493	 2.1287054092	-0.089205857	 0.114807
H	-0.783037673	 1.8239287508	 1.6517454245	 0.116412
H	-0.9977722128	-0.3407225678	 0.3515217938	 0.107307
H	 0.489151571	 0.0241260681	-0.5063120698	 0.093656
H	 1.7501804621	-0.0330432321	 1.6587594431	 0.087614
H	 0.2483525555	-0.3775448278	 2.5134724633	 0.103862
H	 3.3365252078	-1.6985369661	-0.4024849263	 0.109444
H	 3.4576686904	-1.0294581693	 1.2279125871	 0.127296
H	 4.0508951589	-3.7197105229	 0.7873199756	 0.294243
H	 0.9490165681	-5.6139559662	 0.6944085092	 0.124874
H	 0.397009707	-4.4797716516	 1.9728703164	 0.136953
H	-0.0619378707	-4.1859847195	 0.2857692221	 0.135176
30.6247	46.6505	84.9818	104.7162	151.4645	184.4558	225.906	233.2066	260.3527	297.2929	359.1489	381.6026	459.6542	496.7448	588.9533	670.0328	756.3597	793.5127	896.1683	899.2117	996.9513	1040.6842	1064.6228	1088.4095	1097.3593	1127.1513	1174.4179	1181.2868	1214.3483	1238.0645	1266.7304	1294.3438	1321.0937	1326.1185	1347.895	1389.5914	1413.7411	1442.5881	1473.3727	1474.829	1489.8577	1495.8287	1500.1407	1500.2707	1503.3221	1519.0266	1761.4133	2954.0259	2982.392	3024.2233	3030.1901	3035.6409	3046.3375	3067.7853	3097.9118	3103.9255	3104.969	3119.2117	3148.6811	3805.553
CCCN=C(CO)OC	CCCN=C(CO)OC	
InChI=1S/C6H13NO2/c1-3-4-7-6(5-8)9-2/h8H,3-5H2,1-2H3	InChI=1S/C6H13NO2/c1-3-4-7-6(5-8)9-2/h8H,3-5H2,1-2H3
