19
gdb 40839	3.63041	1.15905	0.99138	1.6612	71.81	-0.2367	0.0859	0.3226	1217.3882	0.160302	-460.1285	-460.120524	-460.11958	-460.161449	30.238	
C	 0.4416976198	 1.4936253975	 0.1952854538	-0.169994
O	 1.2355622568	 0.3736388521	-0.2098172527	-0.237219
C	-0.1372758028	 0.1490852912	 0.1116874247	 0.05232
C	-0.4295532473	-0.6946642226	 1.3317144173	 0.081852
C	 0.0705197588	-2.1327686693	 1.1487046353	-0.092928
O	-0.1542419921	-2.9007568892	 2.3194032002	-0.25358
C	 0.4814175554	-2.3087142629	 3.4406084197	-0.080333
C	-0.0215416665	-0.8843359885	 3.6414454969	-0.079308
O	 0.1857527469	-0.1100118242	 2.469362643	-0.265986
H	 0.6825406187	 1.8982348335	 1.1738039112	 0.134031
H	 0.224852354	 2.2192516242	-0.5873693104	 0.110896
H	-0.7632134419	-0.095406065	-0.7486425314	 0.095598
H	-1.5242404608	-0.7219337554	 1.4787484856	 0.071598
H	-0.4666235267	-2.6314163629	 0.3363354961	 0.107173
H	 1.1427176881	-2.1006908957	 0.9024671824	 0.113714
H	 0.2451811938	-2.9328631003	 4.3077411637	 0.108486
H	 1.5742816817	-2.2971148307	 3.2984636178	 0.098644
H	-1.0938089163	-0.9058686751	 3.8960668411	 0.095103
H	 0.5211340504	-0.3836266667	 4.4488669559	 0.109932
70.6486	115.9854	199.7023	251.358	264.2854	373.0469	410.4919	462.6713	479.0483	585.8324	648.2577	803.7104	856.8815	886.0094	897.4372	922.5141	975.312	995.9747	1015.7005	1086.8612	1102.5816	1115.1014	1136.4565	1148.5874	1154.0508	1169.8701	1174.8627	1252.1101	1286.0546	1300.5343	1308.9281	1329.176	1376.6043	1385.6365	1416.184	1420.8627	1439.9563	1480.8097	1486.3324	1494.8695	1521.5433	2947.7474	2973.4623	2983.8946	2999.7279	3086.9054	3087.8495	3088.2072	3093.0879	3100.4758	3200.0381
C1OC1C1COCCO1	C1O[C@H]1[C@H]1COCCO1	
InChI=1S/C6H10O3/c1-2-8-5(3-7-1)6-4-9-6/h5-6H,1-4H2	InChI=1S/C6H10O3/c1-2-8-5(3-7-1)6-4-9-6/h5-6H,1-4H2/t5-,6-/m1/s1
