19
gdb 80535	2.47642	1.59668	1.27564	2.8084	75.64	-0.2262	-0.0167	0.2095	1068.2989	0.158973	-423.016362	-423.008063	-423.007119	-423.048836	32.152	
C	-0.1217529327	 1.5979660644	-0.0377543315	-0.441245
C	-0.0154038793	 0.079101887	 0.0005258937	 0.017212
C	 1.1165238148	-0.6124690102	-0.822613126	-0.040055
O	 2.3167038411	-0.0680116572	-0.2519346334	-0.2966
C	 2.1136316362	-0.2418850814	 1.1852610201	 0.154893
C	 2.4828593846	 1.0084220025	 1.9660805587	-0.425419
C	 0.6461927385	-0.7289907542	 1.1869312637	-0.232693
C	 0.8162215556	-1.818790064	 0.0974649036	 0.436841
O	 0.6471029439	-2.9950334152	 0.0033105934	-0.316342
H	 0.8605000096	 2.0629232702	-0.1303763616	 0.142739
H	-0.7191642707	 1.9032994686	-0.9029726347	 0.120915
H	-0.614219559	 1.9914589526	 0.857051408	 0.122087
H	-0.9836745969	-0.3787297781	-0.2287566159	 0.097773
H	 1.1762498545	-0.6329440785	-1.9080071908	 0.097966
H	 2.7700316648	-1.0575838663	 1.5230599968	 0.092255
H	 1.7963228823	 1.8381346475	 1.7963766029	 0.126107
H	 2.4919552439	 0.7827789608	 3.0375559432	 0.119592
H	 3.4900917404	 1.3282043478	 1.6807893616	 0.133649
H	 0.1566797284	-0.9110262263	 2.1409529383	 0.090326
139.2237	175.9941	182.7013	225.7858	259.6382	275.8963	300.6691	443.3205	512.5717	530.6252	655.9397	682.636	725.1275	751.8141	795.9456	837.8821	880.3631	959.6025	1000.2564	1026.0685	1051.516	1059.9938	1073.3704	1087.1747	1115.7811	1128.1364	1135.8192	1195.3162	1215.7936	1265.1085	1280.5636	1331.0056	1390.7529	1404.1311	1407.1673	1423.3543	1487.3475	1491.2793	1497.5535	1516.7237	1912.3354	2985.9685	3041.3236	3046.9373	3054.8895	3099.6577	3108.72	3141.3244	3152.9968	3155.1271	3161.815
CC1C2OC(C)C1C2=O	C[C@H]1[C@H]2O[C@@H](C)[C@@H]1C2=O	
InChI=1S/C7H10O2/c1-3-5-4(2)9-7(3)6(5)8/h3-5,7H,1-2H3	InChI=1S/C7H10O2/c1-3-5-4(2)9-7(3)6(5)8/h3-5,7H,1-2H3/t3-,4+,5-,7-/m1/s1
