18
gdb 12532	3.31177	1.8455	1.25121	1.0471	76.43	-0.2161	-0.0237	0.1925	968.7029	0.155429	-347.813226	-347.805734	-347.80479	-347.845038	29.109	
O	 0.0622673962	 1.4044625729	 0.1513807176	-0.440589
C	 0.0225258202	-0.0093576759	-0.0301088464	 0.089995
C	-1.4496860202	-0.4255416103	 0.1008554627	-0.20388
C	-1.6534671703	-1.9018346033	 0.4493572099	-0.264611
C	-1.0490251671	-2.9362683946	-0.4583180777	-0.058298
C	-0.1643892954	-2.7974243214	-1.4583811792	-0.07588
C	 0.5213950837	-1.6028284623	-1.9455702978	-0.069917
C	 0.6210753105	-0.4042810269	-1.3570540755	-0.116664
H	 0.9797704363	 1.6869643717	 0.0831267831	 0.280189
H	 0.5890671008	-0.504095597	 0.779642592	 0.076507
H	-1.8930488192	 0.1879764761	 0.8914918882	 0.108595
H	-1.9701657441	-0.177519475	-0.8295240512	 0.110551
H	-1.2962785746	-2.0939117013	 1.4728504276	 0.112936
H	-2.7348863319	-2.0917786102	 0.4991055763	 0.110853
H	-1.4045057895	-3.9470476574	-0.2632555791	 0.08824
H	 0.0951204497	-3.7057759101	-1.9987568399	 0.082544
H	 1.0312566696	-1.7317252202	-2.8977886557	 0.086497
H	 1.1686542054	 0.3849118951	-1.8685777549	 0.082931
59.2068	220.0283	282.163	282.5821	338.167	352.5538	415.4851	451.6552	553.7867	625.3543	698.4138	771.1438	822.4629	847.3437	891.8949	913.9965	951.4783	991.834	1017.3755	1054.0585	1068.5115	1082.4559	1091.2292	1177.709	1231.3699	1251.9394	1284.7206	1287.589	1341.5083	1356.4963	1389.8722	1407.8937	1428.3254	1455.946	1466.067	1494.1491	1681.7957	1712.7172	2927.6656	2992.4985	3020.8595	3052.2089	3095.2217	3124.4801	3134.6963	3148.076	3161.7608	3816.8306
OC1CCC=CC=C1	O[C@H]1CCC=CC=C1	
InChI=1S/C7H10O/c8-7-5-3-1-2-4-6-7/h1-3,5,7-8H,4,6H2	InChI=1S/C7H10O/c8-7-5-3-1-2-4-6-7/h1-3,5,7-8H,4,6H2/t7-/m1/s1
