21
gdb 58132	1.78403	1.49425	1.17588	2.167	84.62	-0.2493	-0.0314	0.2179	1219.7964	0.177807	-387.072511	-387.061573	-387.060629	-387.108184	40.064	
C	-0.210394833	 1.6070765791	-0.0226277322	-0.41252
C	-0.0428255323	 0.0799268156	-0.0270779338	 0.019405
C	 0.5592698705	-0.3925480976	-1.3574113427	-0.414018
C	 0.7597656229	-0.4543288463	 1.2289219101	-0.03628
C	 0.9307945724	-1.986537892	 1.1778037318	-0.429669
C	 2.142048577	 0.2266657049	 1.2522381334	 0.157347
O	 3.1456338326	-0.2751349034	 0.8197456323	-0.25738
C	 0.0582155405	-0.070488284	 2.4547115878	 0.312828
C	-0.4921350362	 0.244784427	 3.4767085161	-0.458479
H	 0.736535371	 2.1194533568	-0.2260706138	 0.119055
H	-0.9121900187	 1.9053378437	-0.8074915096	 0.118044
H	-0.5974816456	 1.9683680649	 0.9333746657	 0.131777
H	-1.0398541563	-0.3660249687	 0.0778637788	 0.090784
H	 1.5933153978	-0.0532554607	-1.4756450161	 0.133377
H	 0.5500149673	-1.4805024126	-1.4548003367	 0.121884
H	-0.0231456541	 0.0181120659	-2.1882489463	 0.114579
H	 1.634944617	-2.2631463309	 0.3928487449	 0.143538
H	 1.3234936798	-2.3550831484	 2.1282531316	 0.129611
H	-0.0321715173	-2.4701341348	 0.9936113796	 0.119889
H	 2.1477331911	 1.2449101954	 1.6943953748	 0.097021
H	-0.9858851863	 0.514810556	 4.3775825744	 0.199204
54.5584	83.2519	140.179	165.4715	212.0951	233.8572	241.8427	270.5491	283.7635	310.8376	370.3945	403.015	459.2126	511.7379	540.108	554.428	629.521	641.3581	729.5876	837.8951	908.1068	917.4304	936.4679	968.7773	1012.5576	1076.1944	1109.8313	1141.4007	1188.2094	1201.8086	1213.1312	1345.5067	1349.795	1397.9433	1407.4468	1420.6422	1428.2249	1484.6804	1489.1796	1494.8826	1502.1638	1506.498	1518.0954	1825.787	2226.9085	2911.3487	3023.2	3035.8761	3043.7529	3056.6129	3098.1959	3108.1754	3121.9516	3123.1669	3127.6993	3153.8655	3499.2217
CC(C)C(C)(C=O)C#C	CC(C)[C@@](C)(C=O)C#C	
InChI=1S/C8H12O/c1-5-8(4,6-9)7(2)3/h1,6-7H,2-4H3	InChI=1S/C8H12O/c1-5-8(4,6-9)7(2)3/h1,6-7H,2-4H3/t8-/m1/s1
