15
gdb 62365	2.41321	1.83491	1.20068	2.723	71.84	-0.2433	-0.0053	0.238	1001.2211	0.110515	-420.545329	-420.537393	-420.536449	-420.577471	30.931	
O	-0.0406695113	 1.392441459	-0.0738325893	-0.474322
C	 0.0170234441	-0.0134546017	-0.0272639335	 0.298553
C	 0.9839570026	-0.5360819084	-0.980944223	 0.248912
C	 1.8129534656	-0.9390113252	-1.7527259384	-0.425299
C	-0.013737547	-0.692185521	 1.4127383068	-0.248205
C	-1.4791050019	-0.1368934985	 1.5158420999	-0.26985
C	-1.4046527312	-0.6738419965	 0.0384134921	-0.222462
C	-0.6865721627	-1.8672843053	 0.6928069383	 0.453693
O	-0.7181522204	-3.0569555665	 0.7080444752	-0.321541
H	 0.8640542103	 1.7226087629	-0.0745082379	 0.291768
H	 2.5331523999	-1.3096809865	-2.4403524388	 0.203518
H	 0.7730170542	-0.6842239608	 2.1635723437	 0.098416
H	-2.1551082585	-0.6577344053	 2.1935590761	 0.119924
H	-1.5470251614	 0.944530265	 1.5975698127	 0.141615
H	-2.1684022924	-0.645520811	-0.7345140438	 0.105279
115.7017	145.265	204.9059	291.4837	294.724	372.9539	476.6898	493.0599	511.1669	526.7382	637.7356	641.4057	681.0847	720.2088	754.0052	766.7916	810.2228	882.5256	985.1918	1005.2595	1021.1026	1072.9203	1090.7331	1120.4778	1135.505	1170.3242	1200.3859	1213.1068	1221.1729	1363.1524	1503.8103	1927.8791	2233.4641	3101.7849	3152.2228	3160.8646	3189.1097	3499.1325	3816.2092
OC1(C#C)C2CC1C2=O	O[C@@]1(C#C)[C@H]2C[C@@H]1C2=O	
InChI=1S/C7H6O2/c1-2-7(9)4-3-5(7)6(4)8/h1,4-5,9H,3H2	InChI=1S/C7H6O2/c1-2-7(9)4-3-5(7)6(4)8/h1,4-5,9H,3H2/t4-,5+,7-
