17
gdb 90843	3.07082	1.92459	1.46656	3.0855	71.03	-0.2312	0.0638	0.295	898.0003	0.136642	-421.707673	-421.701025	-421.700081	-421.738412	27.642	
O	 0.002292647	 1.3786608308	-0.0909730282	-0.430612
C	-0.0630783058	-0.0301711908	 0.0078760042	-0.040847
C	 0.4140106001	-0.6020358676	 1.413792553	-0.255146
C	-0.9015784657	-1.1940606288	 2.0177111126	-0.109392
C	-1.5680252739	-1.8978706406	 0.8156715294	-0.103621
C	-2.9476238823	-1.1994994968	 0.8800078013	-0.001372
O	-2.7904096375	-0.5399836251	-0.4605613621	-0.398817
C	-1.4873968334	-0.4882823864	 0.1705302901	 0.515992
C	-2.0114575566	-0.2016662184	 1.6061002571	-0.090115
H	 0.9272019109	 1.6313555462	-0.170982222	 0.287285
H	 0.4577272429	-0.5113095973	-0.8302970987	 0.080054
H	 1.1887292276	-1.3672612008	 1.3025566325	 0.101979
H	 0.8192095814	 0.2189054921	 2.0130883756	 0.105213
H	-0.839213289	-1.6393670405	 3.010697798	 0.069145
H	-1.3163200067	-2.8340562109	 0.3176973399	 0.081784
H	-3.9452082194	-1.5694090601	 1.1108110149	 0.095528
H	-2.2569513996	 0.7849288449	 1.9939931324	 0.092942
145.3101	247.7036	258.2467	365.9912	474.1042	483.105	548.0058	659.9779	715.3632	744.3826	772.6599	804.8358	837.3814	861.0507	899.9963	916.6594	934.342	946.6061	976.3921	1008.0407	1041.4085	1073.7229	1086.8613	1118.9724	1135.8267	1167.4934	1176.57	1195.9871	1211.2386	1237.1439	1255.4788	1258.369	1316.35	1333.0055	1351.1312	1439.0903	1479.6649	3016.8453	3049.7984	3101.4841	3108.5018	3120.4582	3132.8819	3147.3839	3823.2381
OC1CC2C3C4OC13C24	O[C@H]1C[C@@H]2[C@H]3[C@@H]4O[C@]13[C@H]24	
InChI=1S/C7H8O2/c8-3-1-2-4-6-5(2)7(3,4)9-6/h2-6,8H,1H2	InChI=1S/C7H8O2/c8-3-1-2-4-6-5(2)7(3,4)9-6/h2-6,8H,1H2/t2-,3-,4+,5-,6+,7-/m0/s1
