22
gdb 13888	3.67025	1.37387	1.08621	1.4481	77.58	-0.2586	0.0741	0.3327	1155.8204	0.201179	-350.226462	-350.217633	-350.216689	-350.260529	33.399	
C	 0.1075475742	 1.4962920783	-0.0813668533	-0.40461
C	-0.0278942084	-0.0249610996	 0.0096350554	 0.123988
O	 0.7396202305	-0.5323955838	 1.1010312319	-0.432681
C	-1.4877875465	-0.4969600575	 0.0823521245	 0.037501
C	-2.3265481754	-0.1001627514	-1.1634210351	-0.218564
C	-3.2831050103	-1.280260444	-1.3954126878	-0.201605
C	-2.4125540161	-2.4984860297	-1.0527628768	-0.193296
C	-1.6243737244	-2.0482234848	 0.1942323574	-0.223604
H	 1.1634551065	 1.7791753654	-0.1022604591	 0.121513
H	-0.3767533339	 1.8948102741	-0.97780836	 0.119451
H	-0.3574439348	 1.9771207698	 0.7891756605	 0.102638
H	 0.4370532489	-0.4789823366	-0.8761238529	 0.083055
H	 0.381247611	-0.1491474094	 1.909572501	 0.272767
H	-1.9304415235	-0.0302362546	 0.9739641922	 0.051788
H	-2.8424977723	 0.8561005716	-1.0406987317	 0.092957
H	-1.6655193175	 0.0036710313	-2.0345116641	 0.095615
H	-4.1315227878	-1.2197179213	-0.7015933902	 0.093773
H	-3.6931076958	-1.3065803093	-2.4095293448	 0.090735
H	-2.9895720278	-3.4123473931	-0.884245759	 0.090694
H	-1.7255292042	-2.7010944736	-1.8839409151	 0.094965
H	-0.6469660655	-2.5285969538	 0.2801524599	 0.112211
H	-2.179536047	-2.3097292179	 1.1010201871	 0.090708
26.5601	94.5466	189.3381	244.7376	264.8449	285.7305	327.355	358.3442	443.3239	481.3087	554.407	632.701	771.6375	840.4294	872.1345	894.77	913.4243	925.4063	942.8829	969.5557	1020.4754	1035.8009	1053.3183	1071.4376	1106.5166	1130.9068	1184.4413	1195.1467	1239.5115	1250.2845	1270.1854	1306.291	1319.5298	1332.1923	1343.1623	1346.5382	1353.6853	1386.7957	1401.1877	1419.3701	1487.0957	1492.3808	1493.2556	1494.6221	1496.9254	1514.6338	2989.0844	3014.3857	3020.4129	3024.802	3027.2265	3031.4839	3049.5782	3082.5792	3084.0636	3090.1161	3095.2263	3105.3654	3120.1682	3793.9051
CC(O)C1CCCC1	C[C@@H](O)C1CCCC1	
InChI=1S/C7H14O/c1-6(8)7-4-2-3-5-7/h6-8H,2-5H2,1H3	InChI=1S/C7H14O/c1-6(8)7-4-2-3-5-7/h6-8H,2-5H2,1H3/t6-/m1/s1
