17
gdb 109490	2.1821	1.67692	0.98503	2.7054	70.03	-0.2262	-0.0412	0.185	1165.5437	0.136153	-455.187897	-455.179161	-455.178217	-455.221771	31.631	
C	 0.0150053801	 1.5623315563	-0.0053003217	-0.324664
N	 0.0557402788	 0.1052582179	 0.0778863338	-0.295678
C	 0.5501240242	-0.5409310712	-1.1111536138	-0.196834
C	 0.9818895843	-1.9787804534	-0.8520028875	 0.384055
O	 1.5054413836	-2.3905306191	 0.1476426297	-0.300689
C	 0.5791702984	-2.8242224418	-2.0669382905	-0.270152
N	-0.311110863	-1.9343418864	-2.7842626551	-0.325861
C	-0.4720834555	-0.6790927121	-2.2538429105	 0.43617
O	-1.2501886277	 0.1591984995	-2.6466556034	-0.368009
H	 0.9968817326	 2.0196857525	-0.2247133041	 0.091188
H	-0.6804124901	 1.8552337754	-0.7943691038	 0.160109
H	-0.3478321115	 1.9645909482	 0.9443707346	 0.119568
H	 0.6276306756	-0.2011251639	 0.8588279492	 0.234122
H	 1.4334094171	-0.0351459052	-1.5643191331	 0.107908
H	 1.4703173085	-3.1029523858	-2.6464272415	 0.141561
H	 0.0940608108	-3.7474716254	-1.7298363025	 0.148119
H	-0.8813407164	-2.2276998154	-3.5622037497	 0.259087
60.1218	122.3757	150.6478	183.8087	209.7878	285.7074	325.5759	415.1206	491.4743	515.2856	562.5258	610.202	681.1478	701.2323	771.5559	820.7115	915.3931	975.119	1029.1111	1071.5291	1128.7431	1145.2701	1162.589	1190.4287	1210.7218	1249.0554	1266.6388	1318.6982	1364.2332	1434.6881	1456.928	1480.6389	1499.214	1502.5902	1522.3933	1826.3562	1872.5098	2842.6808	2942.5784	3011.9397	3061.9083	3084.5892	3137.3322	3519.1241	3634.092
CNC1C(=O)CNC1=O	CN[C@H]1C(=O)CNC1=O	
InChI=1S/C5H8N2O2/c1-6-4-3(8)2-7-5(4)9/h4,6H,2H2,1H3,(H,7,9)	InChI=1S/C5H8N2O2/c1-6-4-3(8)2-7-5(4)9/h4,6H,2H2,1H3,(H,7,9)/t4-/m0/s1
