18
gdb 98209	2.18632	1.01718	0.72628	4.5924	78.35	-0.2444	0.0196	0.264	1570.5012	0.144929	-439.090951	-439.080078	-439.079134	-439.12907	36.513	
C	 0.1164491271	 1.4137579632	 0.046880092	-0.335435
N	 0.2822201766	-0.0257930371	-0.0303932138	-0.309181
C	 0.5425416779	-0.67402101	-1.1827773707	 0.405788
O	 0.6382750046	-0.1462929077	-2.2807307816	-0.397009
C	 0.6621042176	-2.2220520284	-1.0886777532	-0.131704
O	 1.2121827755	-2.6961603089	-2.2896902994	-0.42009
C	 1.4270480749	-2.6529713305	 0.0825850395	 0.078068
C	 2.0363474825	-3.0086533231	 1.0591570449	 0.045814
C	 2.7892749647	-3.4591232629	 2.2207788239	-0.499793
H	 0.9511846248	 1.8847865104	 0.5779469483	 0.133474
H	 0.0854284722	 1.7989636789	-0.9726068867	 0.172812
H	-0.81632026	 1.6707531214	 0.5587091234	 0.131705
H	 0.3523571365	-0.5629191985	 0.8204115441	 0.254872
H	-0.3745542359	-2.5903489309	-0.9752585518	 0.114536
H	 1.1856109901	-1.9209958311	-2.879167763	 0.295916
H	 3.4854963766	-4.2580128231	 1.9435777728	 0.160571
H	 3.3766407674	-2.6456197753	 2.6603205107	 0.149302
H	 2.126112377	-3.8530446463	 2.9985729108	 0.150352
26.6738	52.1585	74.7956	81.7014	131.57	160.1232	217.0581	294.4406	332.3841	366.2708	420.8868	451.5501	480.2004	526.0631	581.2496	606.0781	770.7249	849.3985	902.0607	1046.9027	1050.0879	1055.7986	1116.4946	1153.5086	1173.926	1180.566	1248.181	1267.6016	1346.7496	1413.8437	1443.9118	1448.2443	1476.3119	1477.9639	1496.5885	1499.6028	1577.4131	1778.3576	2365.0797	2927.1023	3029.623	3033.5808	3089.5898	3090.6714	3093.8488	3157.6387	3621.348	3630.513
CNC(=O)C(O)C#CC	CNC(=O)[C@@H](O)C#CC	
InChI=1S/C6H9NO2/c1-3-4-5(8)6(9)7-2/h5,8H,1-2H3,(H,7,9)	InChI=1S/C6H9NO2/c1-3-4-5(8)6(9)7-2/h5,8H,1-2H3,(H,7,9)/t5-/m0/s1
