18
gdb 110573	3.65611	1.14512	1.02149	0.5089	72.68	-0.2414	0.0711	0.3125	1194.9714	0.146997	-438.974787	-438.966567	-438.965623	-439.007626	31.501	
O	-0.0637962928	 1.4417620328	-0.325866606	-0.426713
C	 0.0198608479	 0.0841146563	 0.0942517234	-0.122425
C	-1.3856090789	-0.4797158488	 0.0646514909	 0.001122
C	-1.9962204515	-0.870993307	-1.2891466072	-0.077078
N	-1.1452454833	-2.1631951196	-1.3684333379	-0.161418
C	-2.3915718822	-2.9941699835	-1.6516310382	-0.245305
C	-2.9240149041	-1.9670993305	-0.6550237994	 0.343432
O	-4.1596341459	-1.8358241194	-0.0496997906	-0.467323
C	-1.5797995139	-2.003026681	 0.11429239	-0.066954
H	 0.8290083927	 1.7956010886	-0.3715901016	 0.286845
H	 0.668118044	-0.505086999	-0.568276211	 0.110007
H	 0.4240065968	 0.0094194575	 1.1174532027	 0.08186
H	-2.0560454597	 0.0890052103	 0.7149193448	 0.090131
H	-2.1672721198	-0.2699077448	-2.1834595476	 0.084305
H	-2.7247125288	-2.9350740136	-2.6933841351	 0.097257
H	-2.3052587819	-4.0359823021	-1.3265588802	 0.10448
H	-4.8160971287	-1.6348884792	-0.726106575	 0.284747
H	-1.2628690996	-2.734507257	 0.8601141281	 0.08303
83.3168	139.5199	199.7013	252.107	260.8759	318.5087	355.315	402.2267	494.5449	544.8485	649.588	734.3752	787.744	853.6455	875.1379	905.0152	915.4879	933.2507	1024.6187	1031.7437	1061.6232	1068.4002	1080.875	1091.9597	1108.3175	1126.7695	1181.7334	1191.6205	1197.9113	1230.4582	1254.1765	1267.6254	1280.8692	1297.0649	1372.6535	1393.0341	1462.4435	1518.0235	1522.8896	2964.6903	3029.3458	3036.7043	3080.5952	3099.2754	3099.5826	3109.1465	3802.7657	3831.8989
OCC1C2N3CC2(O)C13	OC[C@H]1[C@H]2N3C[C@@]2(O)[C@H]13	
InChI=1S/C6H9NO2/c8-1-3-4-6(9)2-7(4)5(3)6/h3-5,8-9H,1-2H2	InChI=1S/C6H9NO2/c8-1-3-4-6(9)2-7(4)5(3)6/h3-5,8-9H,1-2H2/t3-,4+,5-,6-
