19
gdb 124646	4.27306	0.93879	0.85051	1.266	78.23	-0.2053	0.0251	0.2304	1401.3348	0.159685	-419.222249	-419.213268	-419.212324	-419.256548	33.282	
C	-0.0839534831	 1.5728057472	 0.1315698696	-0.393448
C	 0.0181802144	 0.0589811922	-0.0027659553	 0.13923
C	 0.7221135116	-0.5908282843	 1.1884387003	-0.396105
O	-1.3304320982	-0.416517802	-0.1232065524	-0.292322
C	-1.5151532967	-1.6563747935	-0.6388169623	 0.276553
C	-2.7470020075	-2.2800650544	-0.7161659369	-0.150982
N	-2.5147932222	-3.476646864	-1.3184335467	-0.173719
N	-1.2302059783	-3.6795500093	-1.6321130991	-0.230016
C	-0.6060719711	-2.5728017388	-1.2226599178	-0.115747
H	 0.912195433	 2.0174988539	 0.2109071814	 0.115881
H	-0.591163494	 2.0025486181	-0.7359659849	 0.124907
H	-0.6531340308	 1.8361149963	 1.028606655	 0.125532
H	 0.5575319035	-0.1826534139	-0.9296935416	 0.083996
H	 0.7364185563	-1.6796719997	 1.0963300574	 0.131113
H	 1.7566178166	-0.2397074162	 1.2564280054	 0.115774
H	 0.2063099803	-0.3313447246	 2.1183380195	 0.123688
H	-3.7264412401	-1.9614287365	-0.4016234579	 0.132113
H	-3.188015325	-4.1906256427	-1.53632724	 0.27469
H	 0.4601235514	-2.483287868	-1.3582148836	 0.108862
45.1527	84.7698	154.5387	207.1964	247.4507	309.2928	320.3401	382.6864	451.0597	481.8001	488.4503	649.8691	694.2487	706.9131	751.1704	845.4293	848.9825	932.9765	938.872	947.1171	963.3243	1026.6962	1073.0799	1148.6582	1156.0477	1170.7784	1201.5243	1268.9117	1335.238	1370.5553	1374.8797	1393.4902	1399.558	1411.7859	1420.0513	1479.6539	1487.1689	1493.5391	1508.1	1510.9656	1626.0967	3004.0369	3040.3735	3045.1922	3110.9453	3119.4705	3124.0286	3125.4643	3258.506	3276.532	3680.7579
CC(C)OC1=CNN=C1	CC(C)Oc1c[nH]nc1	
InChI=1S/C6H10N2O/c1-5(2)9-6-3-7-8-4-6/h3-5H,1-2H3,(H,7,8)	InChI=1S/C6H10N2O/c1-5(2)9-6-3-7-8-4-6/h3-5H,1-2H3,(H,7,8)
