16
gdb 22876	3.59139	1.23247	0.92304	2.0426	81.54	-0.197	-0.058	0.1389	1212.7501	0.124633	-434.048541	-434.039846	-434.038902	-434.082661	31.284	
C	 0.0516457372	 1.4286004953	 0.0525073942	-0.339958
N	-0.0051053808	-0.0151901464	 0.0052289644	-0.077157
C	 0.0214457035	-0.8040072523	-1.1308723615	-0.01166
C	 0.0469467836	-2.1291096524	-0.8492637693	-0.291039
C	 0.0445705071	-2.23429796	 0.5954660632	 0.325947
N	 0.052121175	-3.2275285928	 1.4108244198	-0.242422
O	 0.0688142083	-4.4422820534	 0.7329565751	-0.375841
C	 0.0278323451	-0.8313662072	 1.1385264605	 0.320301
N	 0.0443004241	-0.373431547	 2.3260017994	-0.552595
H	 1.0811524673	 1.80284527	-0.0110613066	 0.132762
H	-0.5310499739	 1.8516272124	-0.7703898671	 0.129166
H	-0.3731514322	 1.754910573	 1.0030412002	 0.171135
H	 0.0122804167	-0.3224971018	-2.0995684876	 0.135666
H	 0.051608318	-2.9452298704	-1.5501811743	 0.125631
H	 0.0718106136	-5.0841622638	 1.4517848206	 0.312323
H	 0.0583118571	-1.1528306832	 2.984446509	 0.237741
39.9257	99.5608	157.8496	193.7522	229.7033	301.3703	349.7168	381.4757	454.8096	521.0891	633.7442	670.4139	710.6911	746.9352	787.7291	823.3273	867.4785	914.6051	936.1825	1018.6723	1050.6205	1119.7001	1154.4539	1199.4281	1250.0528	1304.5269	1365.5443	1397.7414	1431.5853	1468.6997	1490.8682	1515.8424	1614.4035	1682.125	1740.2942	3021.9574	3092.2948	3146.745	3229.3609	3292.6704	3488.62	3811.0327
CN1C=CC(=NO)C1=N	CN1C=CC(=NO)[C]1[NH]	
InChI=1S/C5H7N3O/c1-8-3-2-4(7-9)5(8)6/h2-3,6,9H,1H3	InChI=1S/C5H7N3O/c1-8-3-2-4(7-9)5(8)6/h2-3,6,9H,1H3
