15
gdb 23518	4.78034	1.33074	1.26242	1.8399	72.18	-0.2317	-0.004	0.2277	984.156	0.113753	-416.655838	-416.649395	-416.64845	-416.68667	26.067	
O	-0.0964679097	 1.3515951991	-0.051951924	-0.39138
N	 0.0472439277	-0.0488863685	-0.053419443	-0.290569
C	-1.0766884599	-0.6244935113	-0.069270136	 0.499822
C	-2.5468460266	-0.296945254	 0.0576983663	-0.119767
C	-3.2666862318	-1.0154866024	-1.0959303675	-0.090046
C	-2.4688233062	-2.3478401626	-1.1105730115	-0.093204
C	-3.6469834398	-2.1578752967	-0.2085746582	-0.02635
N	-2.7176808421	-1.6125783132	 0.8750790093	-0.186942
C	-1.4843393089	-2.0691413765	 0.0389663218	-0.116384
H	 0.8191789958	 1.6475690195	-0.0049029879	 0.308727
H	-2.9224679117	 0.6372545666	 0.4665731795	 0.102234
H	-3.7491972847	-0.6155345347	-1.977195143	 0.101697
H	-2.3529979648	-2.9478037758	-2.0028824729	 0.101767
H	-4.5625249775	-2.7084273829	-0.0387072415	 0.104313
H	-0.8365254699	-2.8509910264	 0.4285300686	 0.096081
118.9256	187.6641	310.1519	416.6483	443.8506	577.581	657.2712	699.9273	770.679	790.5432	800.8283	803.8151	811.4069	869.2599	904.2548	909.2759	943.1979	976.4188	990.8174	1023.821	1028.7133	1067.5308	1093.9702	1134.4567	1162.3561	1172.6655	1213.4848	1222.8351	1247.9453	1261.7059	1357.6715	1413.145	1805.8425	3149.5137	3159.1878	3197.5995	3204.272	3218.1798	3814.5884
ON=C1C2C3C4C3N2C14	ON=C1[C@H]2[C@H]3[C@@H]4[C@H]3N2[C@H]14	
InChI=1S/C6H6N2O/c9-7-3-5-1-2-4(1)8(5)6(2)3/h1-2,4-6,9H	InChI=1S/C6H6N2O/c9-7-3-5-1-2-4(1)8(5)6(2)3/h1-2,4-6,9H/t1-,2+,4-,5+,6-
