14
gdb 43329	2.59615	1.84408	1.22529	5.9819	69.27	-0.2389	-0.0941	0.1448	968.1379	0.102014	-436.689983	-436.682897	-436.681953	-436.721863	26.856	
O	-0.0221336346	 0.0640793203	-0.5054505846	-0.297682
C	-0.0440105628	 1.2039173414	-0.1004900738	 0.289334
C	-1.2932660699	 1.9601549651	 0.1185755002	-0.172587
C	-1.31640376	 3.1510276815	 0.7327191799	-0.016539
C	-0.1034900083	 3.7687881506	 1.319911374	-0.103838
N	 0.5952756599	 2.9362252419	 2.3216427706	-0.322198
C	 1.2353581643	 3.1754837484	 1.0094456012	-0.170498
C	 1.2874201429	 1.9794395544	 0.112310585	 0.353961
O	 2.2865263209	 1.651143716	-0.4756224715	-0.286866
H	-2.1995004249	 1.4819775394	-0.2393519679	 0.126149
H	-2.2560600767	 3.6804517261	 0.8657119191	 0.122066
H	-0.1377327428	 4.8404542571	 1.4926236419	 0.111023
H	 1.0467592031	 3.5257221246	 3.0180446177	 0.251374
H	 2.1066697788	 3.821760743	 0.9580875381	 0.116301
64.7384	173.4341	269.4453	333.716	362.6224	455.5523	474.1393	559.5843	563.8294	652.9353	740.2209	790.158	847.0235	851.4054	899.5461	936.3654	945.5577	1015.4197	1028.2232	1116.8749	1140.9226	1172.1726	1192.4286	1243.8609	1279.3889	1375.6239	1402.3092	1438.167	1678.2778	1780.9416	1820.913	3151.8682	3162.2834	3168.9754	3193.5383	3496.5229
O=C1C=CC2NC2C1=O	O=C1C=C[C@H]2N[C@H]2C1=O	
InChI=1S/C6H5NO2/c8-4-2-1-3-5(7-3)6(4)9/h1-3,5,7H	InChI=1S/C6H5NO2/c8-4-2-1-3-5(7-3)6(4)9/h1-3,5,7H/t3-,5-/m1/s1
