19
gdb 68918	2.44625	1.77238	1.24726	2.2507	75.92	-0.2298	0.0243	0.2541	1040.0895	0.15926	-423.024267	-423.016055	-423.015111	-423.056303	33.327	
O	-0.1933367882	 1.3255813563	-0.163131755	-0.480309
C	-0.0257551256	-0.0592170683	 0.044860402	 0.304408
C	-0.5463009697	-0.6287299719	 1.3507184075	-0.412702
C	-1.3306863509	-0.8100839781	 0.0605988214	 0.416409
O	-2.4988301505	-0.064989083	-0.1058579312	-0.490174
C	-1.4176638512	-2.1799086842	-0.5792699949	-0.31966
C	-0.0741973013	-2.8108336186	-0.8246582721	-0.060478
C	 1.0789888031	-2.142791548	-0.8426971357	-0.058946
C	 1.1983023108	-0.6586510446	-0.6182269139	-0.328784
H	 0.2834141741	 1.7994915994	 0.5262105655	 0.289238
H	-0.0283917818	-1.4790620743	 1.7826671076	 0.116359
H	-0.9663993207	 0.0758634616	 2.0612656938	 0.106553
H	-2.2132366306	 0.8544262608	-0.2035245259	 0.287976
H	-2.0426562113	-2.8398831945	 0.0369674954	 0.111522
H	-1.9548047557	-2.0674889792	-1.5312170037	 0.123683
H	-0.0723336179	-3.8807720601	-1.0169160395	 0.088261
H	 2.0037302566	-2.6754705994	-1.048903147	 0.087425
H	 1.3416295953	-0.1477781761	-1.5809109604	 0.122871
H	 2.0986948356	-0.4372856377	-0.0261535239	 0.096347
133.3725	180.0065	250.7174	284.4388	334.5218	358.5639	401.4596	445.8604	448.3565	465.426	526.1805	539.2528	684.3491	694.1766	719.0816	800.8361	887.3421	914.9013	930.0634	948.7437	985.1472	998.7882	1014.2575	1027.5155	1037.322	1135.4197	1173.1255	1199.8321	1204.1825	1232.3005	1259.1729	1295.3479	1341.4805	1377.3026	1389.0983	1409.2894	1429.8204	1470.6532	1480.2923	1499.0973	1725.2566	2994.956	3012.2918	3024.0091	3037.8716	3123.5264	3147.3752	3170.4273	3218.5077	3738.5592	3807.303
OC12CC1(O)CC=CC2	O[C@@]12C[C@]1(O)CC=CC2	
InChI=1S/C7H10O2/c8-6-3-1-2-4-7(6,9)5-6/h1-2,8-9H,3-5H2	InChI=1S/C7H10O2/c8-6-3-1-2-4-7(6,9)5-6/h1-2,8-9H,3-5H2/t6-,7+
