18
gdb 16702	3.59827	1.81707	1.58786	1.6008	66.38	-0.252	0.0834	0.3354	879.4793	0.155141	-384.917048	-384.910002	-384.909058	-384.947896	28.248	
C	-0.1704006373	 1.5193977567	 0.0194481344	-0.418509
C	 0.0698901108	 0.0109165306	 0.0415126253	 0.035424
C	 1.0000771324	-0.5540728239	-1.0901733197	-0.249474
C	 2.0209654611	-1.2627104463	-0.1867724725	 0.02919
O	 1.1636818895	-1.9103801687	 0.8206145138	-0.330688
C	 0.8872673595	-0.5247744161	 1.2339221001	 0.011925
C	 2.3695974916	-0.2087374774	 0.8957282393	 0.191759
O	 3.296002574	-0.6261529286	 1.8579178124	-0.455543
H	 0.7673803357	 2.0845381368	 0.0245189497	 0.119316
H	-0.7247662812	 1.8107575449	-0.8783905857	 0.121655
H	-0.7566426147	 1.8390789178	 0.8879322522	 0.118165
H	-0.8930636887	-0.5085705145	 0.0272917175	 0.084644
H	 0.4872744695	-1.2528991913	-1.7539335729	 0.110484
H	 1.4560215619	 0.2334550237	-1.6988589137	 0.101185
H	 2.7701794558	-1.9231573695	-0.6243086045	 0.08149
H	 0.4846301167	-0.4341866763	 2.2438015313	 0.079066
H	 2.6507020471	 0.7996340194	 0.5844001328	 0.08333
H	 3.0251274364	-1.5177469573	 2.1154478001	 0.28658
166.3579	211.0066	242.318	291.3736	358.6397	417.7981	501.6559	517.2061	582.4975	654.5498	811.778	837.6318	858.7354	901.2398	906.491	930.1381	953.6027	955.0584	1032.4699	1050.1555	1064.0358	1108.9949	1135.3952	1184.5038	1195.7816	1209.8566	1233.1783	1252.2911	1293.2142	1303.7672	1313.1093	1340.3917	1366.0024	1417.3981	1452.338	1489.8973	1498.799	1501.9266	3032.6064	3055.0065	3057.3107	3092.5669	3098.2281	3105.212	3114.0061	3115.7936	3123.3362	3763.5089
CC1CC2OC1C2O	C[C@H]1C[C@@H]2O[C@H]1[C@H]2O	
InChI=1S/C6H10O2/c1-3-2-4-5(7)6(3)8-4/h3-7H,2H2,1H3	InChI=1S/C6H10O2/c1-3-2-4-5(7)6(3)8-4/h3-7H,2H2,1H3/t3-,4-,5-,6+/m0/s1
