21
gdb 89725	2.66327	1.35084	1.00327	1.7603	86.02	-0.2314	0.0171	0.2486	1260.2466	0.18167	-387.097728	-387.08859	-387.087646	-387.131731	34.737	
C	 0.0666922514	 1.603225626	-0.0562822543	-0.394038
C	-0.0081915795	 0.0739209159	 0.0332194223	-0.02346
C	 0.6156346845	-0.6621127348	-1.184493543	-0.3298
C	 1.4230601538	-1.8151135193	-0.5882902719	 0.37252
C	 1.499566995	-3.1628846034	-1.1783163254	-0.252203
O	 2.5979620328	-2.2561122109	-1.2909512215	-0.282492
C	 1.5357396115	-1.5418443991	 0.8775612312	 0.256252
C	 2.4223871129	-2.35509305	 1.7657359363	-0.506175
C	 0.7555236818	-0.5079598529	 1.202952536	-0.181554
H	 1.1062090455	 1.93761782	-0.1428390822	 0.118273
H	-0.4822441959	 1.9739092312	-0.9284508614	 0.113819
H	-0.3647723097	 2.0730042285	 0.8341644989	 0.111572
H	-1.0689789292	-0.2029710655	 0.1247529401	 0.079672
H	-0.1305668278	-0.9957456588	-1.9100362648	 0.101583
H	 1.309955446	 0.0014294327	-1.7116482357	 0.118451
H	 1.6745962762	-4.0350724303	-0.5489330091	 0.10784
H	 0.9623640209	-3.3665057385	-2.1047650799	 0.109842
H	 3.4256854018	-2.4336685933	 1.3336484187	 0.144338
H	 2.5006499337	-1.9152709911	 2.7629752812	 0.12306
H	 2.0457211286	-3.3795364412	 1.8798910874	 0.125238
H	 0.6466612656	-0.1129777152	 2.208804867	 0.087261
46.1475	133.4386	170.7335	235.3946	241.8199	257.8266	288.8569	350.6249	429.0598	445.7996	511.622	594.4501	630.9041	701.7179	809.6328	848.3928	868.808	896.3868	915.1492	949.8004	977.156	1006.3558	1048.812	1066.0318	1105.2246	1118.7297	1130.4034	1140.858	1163.0922	1214.7764	1241.6073	1285.2343	1314.9762	1338.0658	1358.0094	1404.2087	1412.0098	1414.4338	1476.1113	1483.0255	1493.5869	1496.9771	1499.9194	1525.1233	1716.8685	2986.7068	3025.0868	3027.4522	3048.4716	3071.8003	3080.7603	3095.3685	3098.1852	3101.0044	3120.3958	3156.2893	3174.3849
CC1CC2(CO2)C(C)=C1	C[C@H]1C[C@]2(CO2)C(=C1)C	
InChI=1S/C8H12O/c1-6-3-7(2)8(4-6)5-9-8/h3,6H,4-5H2,1-2H3	InChI=1S/C8H12O/c1-6-3-7(2)8(4-6)5-9-8/h3,6H,4-5H2,1-2H3/t6-,8+/m1/s1
