23
gdb 104393	2.20977	1.41969	1.11001	2.6801	80.86	-0.2435	0.0744	0.3179	1229.7599	0.205454	-425.441083	-425.431324	-425.430379	-425.475547	37.396	
C	-0.5187736243	 1.429003508	-0.077438238	-0.417834
C	 0.1331509177	 0.046791367	-0.0493058777	-0.032404
C	 1.2830099376	-0.1415617735	-1.0545284408	-0.230549
C	 1.9946649495	-1.3659536952	-0.4868558067	-0.083225
O	 1.9174300133	-1.2211242478	 0.9277129934	-0.318905
C	 0.7824757332	-0.391655038	 1.295587308	 0.359584
C	 1.329663983	 0.7501495474	 2.1533496782	-0.419156
C	-0.1504133001	-1.2981182228	 2.1160967879	-0.082873
O	 0.5228527923	-1.8878844027	 3.2088242103	-0.426268
H	 0.2101523759	 2.2250881979	 0.1007158601	 0.122047
H	-0.9774939335	 1.6120020374	-1.0545116711	 0.115292
H	-1.3072869517	 1.5199579658	 0.6768521727	 0.119302
H	-0.6397469994	-0.6956210272	-0.2923513735	 0.073629
H	 0.9335822805	-0.2840455488	-2.080735951	 0.100943
H	 1.9489878447	 0.729080613	-1.0408022332	 0.105162
H	 1.4969409156	-2.2934203471	-0.8120747352	 0.08952
H	 3.0512356193	-1.4353524294	-0.7640141786	 0.106402
H	 2.0528878875	 1.3501418125	 1.5943124564	 0.109132
H	 0.5264960237	 1.4054791894	 2.5034508734	 0.1113
H	 1.8289154346	 0.3308039851	 3.0291445476	 0.131782
H	-0.9867971662	-0.7207009238	 2.5266332468	 0.102049
H	-0.5702868491	-2.0675941424	 1.4473636278	 0.07749
H	 1.3261805558	-2.2691124248	 2.831412223	 0.28758
46.8482	121.3071	198.9419	202.6473	247.9368	253.3777	282.8321	305.3532	340.404	413.4171	445.9092	503.4807	521.5734	580.5925	653.1189	730.1657	852.3364	860.0407	916.955	929.5125	948.3331	970.3194	989.067	1050.1591	1073.4933	1080.1762	1103.3818	1146.0731	1156.2588	1189.4232	1219.2136	1233.8475	1245.0454	1267.8039	1313.9566	1356.0979	1377.0548	1381.9173	1387.9537	1412.7154	1414.891	1435.7467	1480.0284	1488.7456	1491.9954	1497.9616	1505.687	1506.5577	1526.7396	2962.7512	2974.7433	3002.1058	3034.5316	3040.7129	3045.9438	3062.2919	3073.3085	3097.7778	3098.9036	3110.1363	3116.0088	3134.5929	3772.5036
CC1CCOC1(C)CO	C[C@H]1CCO[C@]1(C)CO	
InChI=1S/C7H14O2/c1-6-3-4-9-7(6,2)5-8/h6,8H,3-5H2,1-2H3	InChI=1S/C7H14O2/c1-6-3-4-9-7(6,2)5-8/h6,8H,3-5H2,1-2H3/t6-,7+/m0/s1
