17
gdb 14648	13.35494	0.58462	0.56603	3.6463	76.79	-0.253	0.0206	0.2736	1908.4385	0.13969	-363.836865	-363.826829	-363.825885	-363.875912	32.012	
C	 0.0186014027	 1.456346374	 0.0326784891	-0.496656
C	 0.0050572424	 0.0013372044	-0.0202880626	 0.081299
C	 0.0099882334	-1.2016364665	-0.0653019323	 0.031713
C	-0.0208466779	-2.6580745283	-0.1164509938	-0.348506
C	-1.4457046247	-3.2008384445	 0.0096238775	-0.06479
O	-1.3599821713	-4.6244380519	-0.0525265385	-0.180124
C	-2.523027172	-5.2959997777	 0.0417546849	 0.129241
N	-2.5304644932	-6.5571698454	-0.0047116658	-0.437543
H	 0.920159342	 1.8265172374	 0.5330639646	 0.150651
H	-0.0058478546	 1.8929479575	-0.9718040591	 0.148967
H	-0.8464699693	 1.8426733126	 0.5828594468	 0.148005
H	 0.4086324935	-3.0226168086	-1.0572987808	 0.143469
H	 0.5879559501	-3.0878139087	 0.6880489731	 0.143449
H	-1.8896262297	-2.8847146593	 0.9618950684	 0.118486
H	-2.0712847655	-2.8183673519	-0.8065675198	 0.118561
H	-3.3997344282	-4.642670089	 0.1562404903	 0.084689
H	-3.4846369978	-6.9011660041	 0.080375258	 0.229088
8.5	21.1591	56.9723	70.0243	130.3112	192.5733	225.6823	294.0931	382.9971	393.0387	484.2345	636.4431	783.0243	792.4741	823.407	1005.2644	1044.8897	1051.5189	1053.5784	1070.0822	1086.2872	1140.1807	1170.2664	1227.1578	1290.3563	1307.992	1321.2616	1406.7568	1415.6553	1431.2261	1478.1684	1479.1361	1479.2776	1517.661	1749.991	2377.3051	3008.1219	3022.6218	3027.3459	3033.7451	3053.0037	3077.1495	3087.9877	3088.6547	3519.1679
CC#CCCOC=N	CC#CCCO[CH][NH]	
InChI=1S/C6H9NO/c1-2-3-4-5-8-6-7/h6-7H,4-5H2,1H3	InChI=1S/C6H9NO/c1-2-3-4-5-8-6-7/h6-7H,4-5H2,1H3
