16
gdb 51266	4.3822	1.07795	0.92297	3.2301	74.27	-0.2232	-0.0188	0.2044	1216.1403	0.125204	-437.899985	-437.892416	-437.891471	-437.932563	28.645	
O	 1.9656635971	 4.1093681419	 0.1930877202	-0.299313
C	 1.0775012944	 3.3056536171	 0.0300681615	 0.146188
N	 1.2297097559	 1.9492118319	-0.1193030792	-0.386901
C	 2.4171253707	 1.2190507641	-0.1136196882	 0.416464
C	 2.4919222001	-0.123081468	-0.1379797053	-0.250513
C	 3.9119743005	-0.5415109149	-0.2714978711	 0.020433
O	 4.5467417661	-0.0749049331	-1.4903961105	-0.262658
C	 4.7221518139	 0.6872708047	-0.2951213437	 0.029457
C	 3.7856658669	 1.8797779122	-0.153392663	-0.322799
H	 0.0077328794	 3.5869345454	-0.0222767286	 0.087347
H	 0.3773668105	 1.4176483539	-0.2235568746	 0.256203
H	 1.6526972327	-0.8072889959	-0.1298231959	 0.090454
H	 4.2700331549	-1.4989639258	 0.0928721241	 0.096851
H	 5.7398707071	 0.7448342842	 0.0805897531	 0.098443
H	 3.8733557193	 2.5842173744	-0.9851710383	 0.144908
H	 3.9837257305	 2.4495334079	 0.7591735194	 0.135434
61.1939	148.7072	177.9726	287.6585	355.8224	366.8841	488.8131	508.541	603.6722	611.339	714.8745	796.6904	824.9372	848.0546	861.6724	865.4889	920.993	976.2635	1020.7606	1024.7307	1029.6862	1110.261	1116.377	1189.9273	1238.6596	1271.7193	1280.8592	1318.9136	1369.6969	1411.1088	1445.2797	1447.3427	1511.3632	1682.4439	1812.5925	2946.7602	3069.6082	3106.8548	3151.3813	3170.2835	3206.6978	3605.1605
O=CNC1=CC2OC2C1	O=CNC1=C[C@H]2O[C@H]2C1	
InChI=1S/C6H7NO2/c8-3-7-4-1-5-6(2-4)9-5/h1,3,5-6H,2H2,(H,7,8)	InChI=1S/C6H7NO2/c8-3-7-4-1-5-6(2-4)9-5/h1,3,5-6H,2H2,(H,7,8)/t5-,6+/m1/s1
