13
gdb 13744	3.16416	1.67533	1.41278	4.3797	59.05	-0.2581	-0.0106	0.2474	885.7633	0.096046	-394.795677	-394.788016	-394.787072	-394.828065	27.355	
N	 0.9480202349	 0.2033686219	 0.7076127881	-0.522413
C	-0.0265783004	 0.0043253294	-0.2107716047	 0.409446
O	-0.1611916787	 0.6342554905	-1.240829236	-0.360836
C	-0.9975765976	-1.1069934427	 0.1314485383	-0.111178
N	-0.7483797356	-1.9180706108	 1.3210604687	-0.329565
C	-1.9221765457	-1.0317529453	 1.3170761884	-0.174944
C	-1.9051035992	 0.0716398279	 2.2482998826	 0.332534
N	-1.9170684047	 0.9512436174	 2.9976747395	-0.324575
H	 1.5780737569	 0.9785057123	 0.5881812542	 0.270463
H	 0.9954626698	-0.3679719928	 1.535052419	 0.279785
H	-1.4245889365	-1.5675050259	-0.7547914307	 0.127175
H	-1.0282256843	-2.8859643027	 1.1893914376	 0.258093
H	-2.905993889	-1.4734829592	 1.1833374751	 0.146016
68.1454	107.5159	202.2826	273.4616	283.5569	319.7921	472.1619	513.9123	547.3352	600.3426	633.2693	752.3189	783.1758	856.3747	899.04	953.7535	977.3836	1067.277	1107.1053	1168.6449	1202.9328	1224.0782	1347.7201	1404.2517	1442.7363	1603.2548	1809.7219	2364.9638	3150.9551	3166.3637	3520.3558	3598.4121	3736.7733
NC(=O)C1NC1C#N	NC(=O)[C@H]1N[C@H]1C#N	
InChI=1S/C4H5N3O/c5-1-2-3(7-2)4(6)8/h2-3,7H,(H2,6,8)	InChI=1S/C4H5N3O/c5-1-2-3(7-2)4(6)8/h2-3,7H,(H2,6,8)/t2-,3-/m0/s1
