16
gdb 84310	2.2065	1.68847	1.02119	10.4689	77.39	-0.202	-0.0522	0.1497	1127.0723	0.124182	-437.863619	-437.855438	-437.854493	-437.896478	30.227	
C	-0.0300597419	 1.5621518962	-0.013331726	-0.339292
N	 0.026732611	 0.0625696568	 0.0534315919	-0.12531
H	-0.9385675148	-0.2787608949	 0.0928122608	 0.294973
C	 0.6756747479	-0.4979202535	-1.1560152322	-0.105142
C	 1.72569399	-1.2259285958	-0.8110286623	-0.159759
C	 1.8858772225	-1.2637804564	 0.6997502204	 0.312979
O	 2.7700261207	-1.8777869338	 1.2702438764	-0.363953
C	 0.8054564249	-0.4714211152	 1.2067591247	-0.072659
C	 0.2720969285	-0.2680831057	 2.507280615	 0.070391
O	 0.7393181305	-0.6379146728	 3.5696799888	-0.308989
H	 0.9968178527	 1.9221949945	-0.0584159461	 0.185083
H	-0.5925658047	 1.866795757	-0.9004680281	 0.14407
H	-0.5180406314	 1.9309255152	 0.8877703829	 0.176763
H	 0.2486466661	-0.2152401511	-2.1070221035	 0.152449
H	 2.393073719	-1.7440293871	-1.4857697329	 0.145001
H	-0.705346721	 0.2976029868	 2.4948088902	-0.006606
94.3957	149.7281	178.2577	248.0268	256.8647	273.9489	344.3698	464.3987	481.1058	514.075	661.3547	689.241	719.317	785.9826	792.199	909.6595	954.2527	988.8871	1010.6148	1028.1454	1105.4493	1112.1859	1142.4508	1167.2843	1247.1138	1321.7114	1390.1879	1417.8441	1445.6806	1466.5466	1485.5674	1498.6887	1674.9946	1731.9671	1791.9143	2684.2927	3057.8038	3155.6156	3188.7027	3232.494	3258.5113	3387.7409
C[NH+]1C=CC(=O)[C-]1C=O	C[NH]1C=CC(=O)[C]1C=O	
InChI=1S/C6H7NO2/c1-7-3-2-6(9)5(7)4-8/h2-4,7H,1H3	InChI=1S/C6H7NO2/c1-7-3-2-6(9)5(7)4-8/h2-4,7H,1H3
