19
gdb 92889	1.98747	1.74823	1.3418	1.3323	76.91	-0.2343	-0.0242	0.2102	1068.4263	0.159274	-423.055289	-423.046467	-423.045523	-423.088799	33.304	
C	-0.2034397444	 1.5207676033	-0.0088629923	-0.404591
C	 0.0451796475	-0.0070408395	-0.0221375374	-0.114694
C	 0.7719534705	-0.4437171069	-1.269164527	-0.049011
C	 1.9609641429	-1.0409760535	-1.2788284161	-0.0635
C	 2.7414818772	-1.3690602978	-0.0334039217	-0.277265
C	 2.2936035191	-0.5464555388	 1.1743277258	 0.022007
O	 2.826770829	 0.7719062082	 1.0124837721	-0.427626
C	 0.7660433625	-0.4374172867	 1.2541762651	 0.35451
O	 0.1743710044	-0.6308333916	 2.2918631564	-0.329317
H	 0.7458768697	 2.0602995665	-0.0310033221	 0.137321
H	-0.7897345028	 1.8140973701	-0.8852872	 0.117872
H	-0.7598394224	 1.8076673384	 0.8880699857	 0.128575
H	-0.9374114878	-0.4954966531	 0.0197408977	 0.105179
H	 0.2618553732	-0.237828982	-2.207934985	 0.089417
H	 2.4092398272	-1.3308487992	-2.2255167878	 0.09138
H	 2.6445660135	-2.4380554617	 0.2023096966	 0.120585
H	 3.8114935849	-1.18551453	-0.1861092211	 0.121913
H	 2.6489712284	-0.9994207534	 2.1083460847	 0.083239
H	 2.6348753574	 1.2644739277	 1.8180080263	 0.294006
66.7164	99.0949	195.2865	249.661	254.1309	274.8771	337.0935	372.382	448.6046	473.4278	523.9008	570.8902	667.8065	719.9394	790.5032	853.8983	878.868	918.278	935.285	1001.8746	1015.1464	1034.4357	1054.7548	1089.0973	1110.8491	1153.2408	1213.1425	1243.1281	1260.1246	1301.6693	1329.9001	1345.3547	1376.278	1387.8175	1405.3436	1423.8399	1462.1051	1493.0811	1508.8143	1730.9943	1810.7911	3012.2821	3020.2469	3032.2377	3041.0201	3059.0033	3111.4523	3135.9961	3141.3002	3168.3697	3808.8343
CC1C=CCC(O)C1=O	C[C@H]1C=CC[C@@H](O)C1=O	
InChI=1S/C7H10O2/c1-5-3-2-4-6(8)7(5)9/h2-3,5-6,8H,4H2,1H3	InChI=1S/C7H10O2/c1-5-3-2-4-6(8)7(5)9/h2-3,5-6,8H,4H2,1H3/t5-,6+/m0/s1
