18
gdb 110484	4.1522	1.30144	1.28565	2.9435	73.48	-0.2206	0.068	0.2886	1032.1364	0.149188	-401.843805	-401.83671	-401.835765	-401.875622	28.162	
O	-0.0366026387	 1.4471670006	-0.2823998818	-0.42168
C	 0.0798365246	 0.0649927542	 0.0321435418	-0.114818
C	-1.3095334417	-0.5290973167	 0.0008277885	 0.026315
C	-2.0697463124	-0.6858152406	-1.3308875338	-0.015152
C	-1.3088540084	-1.6686695412	-2.2333727588	-0.093815
C	-0.8943299832	-2.7092985495	-1.1690650275	-0.096807
C	-2.2303410008	-2.7832343732	-1.8418982064	-0.030728
N	-2.82588451	-1.9038234823	-0.7499721787	-0.190988
C	-1.5246998848	-2.05336201	 0.0698469818	-0.049186
H	 0.8447759573	 1.8316949884	-0.2790136553	 0.287028
H	 0.721633675	-0.4564354693	-0.6954705221	 0.08881
H	 0.5254441693	-0.0825088036	 1.0296867898	 0.085404
H	-1.9601124042	-0.0333205176	 0.7289114793	 0.095776
H	-2.6496707825	 0.1210663528	-1.7761267782	 0.080382
H	-0.7542549289	-1.5099694687	-3.1485140022	 0.09027
H	-0.0241707587	-3.3438377172	-1.2733032579	 0.089092
H	-2.7502425063	-3.5555650701	-2.3940649558	 0.096266
H	-1.5656749954	-2.6040640259	 1.0099601974	 0.07383
73.8091	158.4188	204.9805	272.0969	381.4091	529.6225	604.8013	744.5664	762.239	789.2808	794.4413	812.0465	818.2216	868.6791	908.4742	917.9866	940.9491	967.7184	997.5533	1018.1685	1029.2824	1055.3047	1056.9925	1068.9535	1087.5119	1125.5038	1153.27	1169.1367	1188.1638	1223.372	1225.7406	1256.199	1265.7238	1297.2189	1310.2555	1361.5657	1374.013	1464.3138	1519.8804	2963.1307	2993.2552	3068.9069	3110.4121	3129.0172	3187.5778	3196.4895	3210.4909	3828.7577
OCC1C2C3C4C3N2C14	OC[C@H]1[C@H]2[C@H]3[C@@H]4[C@H]3N2[C@H]14	
InChI=1S/C7H9NO/c9-1-2-5-3-4-6(2)8(5)7(3)4/h2-7,9H,1H2	InChI=1S/C7H9NO/c9-1-2-5-3-4-6(2)8(5)7(3)4/h2-7,9H,1H2/t2-,3+,4-,5-,6+,7-
