15
gdb 55574	4.12507	0.88738	0.73447	5.7208	69.59	-0.2684	-0.0106	0.2578	1432.4014	0.112897	-450.19025	-450.181008	-450.180064	-450.225323	32.594	
N	 0.1153873792	 1.2430432446	 0.0522102364	-0.560571
C	-0.3441149821	-0.0051765145	 0.4076897305	 0.480506
O	-0.5600081651	-0.3241844112	 1.5611922491	-0.382645
N	-0.4892170411	-0.8592159124	-0.6792314796	-0.382543
C	-0.9087875136	-2.1904650836	-0.7057579024	 0.389049
N	-0.8654624062	-2.7733356353	-1.832965571	-0.510087
C	-1.3819027672	-2.7828386607	 0.6202071443	-0.431413
C	-1.8318535913	-4.1614637877	 0.4625789092	 0.27147
N	-2.1851321211	-5.2531954874	 0.3292555483	-0.301588
H	 0.0721793402	 1.9205360739	 0.796727898	 0.273312
H	-0.0461749265	 1.601622827	-0.8751676604	 0.260435
H	-0.1761762564	-0.5519765141	-1.5896602642	 0.260466
H	-1.1968862333	-3.7343981416	-1.7717044334	 0.249815
H	-0.5797211034	-2.7285422132	 1.3609600312	 0.196642
H	-2.1874224521	-2.172262014	 1.0384366741	 0.187153
47.3222	64.3885	122.8693	135.1604	217.1694	334.04	357.4253	383.2969	430.0918	459.9461	488.8674	531.8076	614.7279	644.2208	716.7119	767.8268	831.249	859.4198	963.761	977.7263	1017.2569	1105.4123	1167.2713	1215.4183	1296.5199	1313.7603	1412.6527	1421.5004	1520.5865	1628.5828	1726.8861	1805.3692	2368.3026	3079.6671	3111.9598	3508.8152	3591.3396	3603.8876	3712.7425
NC(=O)NC(=N)CC#N	NC(=O)NC(=N)CC#N	
InChI=1S/C4H6N4O/c5-2-1-3(6)8-4(7)9/h1H2,(H4,6,7,8,9)	InChI=1S/C4H6N4O/c5-2-1-3(6)8-4(7)9/h1H2,(H4,6,7,8,9)
