18
gdb 52498	4.93692	0.57496	0.54022	1.8615	99.75	-0.2328	-0.0121	0.2207	2062.9947	0.145813	-364.735582	-364.725561	-364.724616	-364.774607	34.384	
C	-0.0523642276	 1.0258957328	-0.7228097896	-0.518239
C	-0.029423117	-0.37946253	-0.3596783759	 0.260945
C	-0.008856371	-1.5507139428	-0.0549872179	-0.206243
C	 0.0142966773	-2.8668295893	 0.2874416602	-0.246518
C	 0.0452438013	-4.0367843989	 0.6034193609	 0.298978
C	 0.0582934075	-5.4576073434	 0.9567087948	-0.313499
N	-0.7822134755	-6.3604913695	 0.1593030728	-0.074059
C	-2.0690139241	-5.8726506946	-0.3261253667	-0.219034
C	-0.9356861384	-6.0962384819	-1.2676195689	-0.219035
H	 0.8897303718	 1.3304765555	-1.1925462415	 0.157036
H	-0.8613957988	 1.2375592733	-1.4311345678	 0.157302
H	-0.2069259769	 1.6601788546	 0.157418847	 0.157411
H	 1.0873035317	-5.8341852145	 0.8939890856	 0.14117
H	-0.2493334051	-5.570425211	 2.0041977706	 0.141152
H	-2.8869419546	-6.5844190402	-0.2615255237	 0.11601
H	-2.336010401	-4.837745188	-0.1244400441	 0.125293
H	-0.463883583	-5.2070907364	-1.6796976064	 0.125321
H	-0.9078682965	-6.9748637057	-1.9056146294	 0.11601
2.8703	54.3523	68.5821	124.6022	143.3129	255.8432	289.7217	360.4446	366.6666	379.7036	468.1963	547.8709	549.9085	664.1659	751.5236	824.2172	872.3703	942.6227	981.0797	1028.4242	1047.6191	1048.4856	1062.3031	1118.1501	1125.4134	1174.522	1185.9845	1277.4786	1285.5584	1310.2461	1358.3014	1412.4969	1462.6696	1471.3168	1472.2693	1485.6939	1512.6496	2269.2751	2380.6188	3020.137	3024.0687	3051.3131	3086.2842	3086.4207	3104.8818	3107.1861	3186.631	3200.0316
CC#CC#CCN1CC1	CC#CC#CCN1CC1	
InChI=1S/C8H9N/c1-2-3-4-5-6-9-7-8-9/h6-8H2,1H3	InChI=1S/C8H9N/c1-2-3-4-5-6-9-7-8-9/h6-8H2,1H3
