15
gdb 7927	3.51302	1.78538	1.26183	2.6043	61.97	-0.2464	-0.0385	0.2079	926.3974	0.118592	-399.869238	-399.86162	-399.860676	-399.901717	27.747	
C	-0.098942904	 1.5916032637	 0.0175199113	-0.390849
C	 0.0201514423	 0.0660529835	-0.0137454985	-0.074779
N	 0.7834962899	-0.4593510014	-1.1310396781	-0.317698
C	 1.8466532015	-1.2736384084	-0.8346711061	 0.408703
O	 2.5807522518	-1.7971441438	-1.6408707352	-0.368492
C	 1.9119924652	-1.3863259212	 0.6879654839	-0.458645
C	 0.8040638869	-0.478724649	 1.1987519946	 0.400446
O	 0.5575578044	-0.195220387	 2.3400261898	-0.302614
H	 0.8891052777	 2.0593804359	-0.0235204924	 0.12927
H	-0.6891052755	 1.954996137	-0.8289876186	 0.121771
H	-0.5932613196	 1.8961620103	 0.9432676723	 0.149276
H	-0.9890713709	-0.3724179557	 0.0211147246	 0.115719
H	 0.553077558	-0.2725840337	-2.0949967044	 0.254882
H	 1.7433108232	-2.4216364585	 1.0028307721	 0.166886
H	 2.8912428592	-1.0918332415	 1.0750750048	 0.166123
58.957	90.2937	226.1435	238.5151	375.3697	405.8646	447.5041	516.9547	570.1123	576.3915	614.6216	676.4642	750.5238	863.8452	917.2849	958.9301	1026.736	1079.7381	1133.7639	1144.1701	1167.9933	1236.4333	1266.4469	1313.4687	1370.9076	1401.7484	1414.9146	1433.2821	1492.7411	1497.2582	1829.6135	1868.5531	2987.0134	3043.8053	3067.0931	3111.8254	3116.679	3133.7493	3630.0759
CC1NC(=O)CC1=O	C[C@H]1NC(=O)CC1=O	
InChI=1S/C5H7NO2/c1-3-4(7)2-5(8)6-3/h3H,2H2,1H3,(H,6,8)	InChI=1S/C5H7NO2/c1-3-4(7)2-5(8)6-3/h3H,2H2,1H3,(H,6,8)/t3-/m1/s1
