25
gdb 121732	6.32255	0.48516	0.45944	2.3845	91.	-0.2394	-0.0052	0.2342	2510.7408	0.225766	-389.531929	-389.520031	-389.519087	-389.571135	41.133	
C	-0.1076389378	 1.5383970999	-0.147786427	-0.379757
C	-0.015734523	 0.0144636355	-0.0314030245	-0.17048
C	 0.735038385	-0.4432488162	 1.2232032584	-0.151826
C	 0.8287869571	-1.9638636438	 1.3433304618	-0.300305
C	 1.5719081409	-2.4449162368	 2.5848174218	 0.359782
O	 2.0366562827	-1.6715555693	 3.3921741077	-0.298393
C	 1.6969982313	-3.955273166	 2.7522450429	-0.277248
C	 2.4458277939	-4.3824091149	 4.0146176735	-0.157801
C	 2.5547545808	-5.9028612831	 4.1517140168	-0.386708
H	 0.8888256506	 1.9920069391	-0.1877230737	 0.115673
H	-0.6476846524	 1.8392947282	-1.0509624792	 0.109902
H	-0.63057817	 1.9691652647	 0.7131841895	 0.115682
H	-1.0270547401	-0.4144164061	-0.0288991449	 0.091689
H	 0.4809273907	-0.3917574599	-0.9230418536	 0.091684
H	 1.7464289456	-0.0204071133	 1.2287085322	 0.10791
H	 0.2457268046	-0.0427036966	 2.118661108	 0.108009
H	-0.1723943953	-2.4189910939	 1.3514734096	 0.115602
H	 1.3256049719	-2.397017816	 0.4629378222	 0.11549
H	 0.6841518029	-4.3835625009	 2.7336534717	 0.114987
H	 2.1861836416	-4.3561204762	 1.8523682747	 0.115177
H	 3.4435727199	-3.9308933425	 4.006179287	 0.111395
H	 1.9397103245	-3.9591833371	 4.8888273458	 0.111187
H	 1.5654122306	-6.3724217293	 4.1965993218	 0.11165
H	 3.0892657761	-6.3438380777	 3.3025154561	 0.111665
H	 3.0943799279	-6.1796585179	 5.0625922212	 0.115035
32.0403	43.9327	75.3951	81.3385	99.6359	130.5082	181.9512	241.698	242.0939	274.0999	310.7309	356.5594	465.5643	472.0646	678.2411	698.0461	737.0995	780.3105	855.9869	857.7382	902.6904	915.2569	931.6879	1010.2382	1041.6097	1045.605	1054.644	1074.5483	1135.8552	1143.4207	1157.0366	1230.8116	1257.5103	1281.6545	1311.5423	1320.3723	1326.0076	1331.178	1370.3608	1394.2969	1400.1212	1413.2572	1413.8362	1446.0481	1459.0077	1484.0587	1487.1781	1495.384	1498.814	1499.8512	1508.2383	1511.9965	1803.2935	3002.1374	3009.1756	3012.5478	3026.6268	3027.1355	3029.9238	3035.3216	3038.3744	3041.0162	3049.8311	3074.3859	3079.325	3097.9279	3099.4657	3101.8365	3102.4286
CCCCC(=O)CCC	CCCCC(=O)CCC	
InChI=1S/C8H16O/c1-3-5-7-8(9)6-4-2/h3-7H2,1-2H3	InChI=1S/C8H16O/c1-3-5-7-8(9)6-4-2/h3-7H2,1-2H3
