15
gdb 30033	3.28954	1.5753	1.11886	1.3124	74.	-0.2181	-0.0209	0.1972	1021.2683	0.114961	-420.646872	-420.64005	-420.639106	-420.678043	27.058	
O	 0.1541499922	 1.4164391419	-0.1829011347	-0.416302
C	 0.0462862393	 0.0049050935	-0.0482477047	-0.077404
C	 0.6655286681	-0.5468019436	 1.2405115581	-0.12277
C	-0.1990163413	-1.2912387354	 1.9528497149	-0.217283
C	-1.4802931632	-1.3315569954	 1.2520561669	 0.225896
C	-2.7525267346	-1.7993774312	 1.2838350638	-0.155804
O	-3.4304850342	-1.344591515	 0.1826417725	-0.161729
C	-2.563083143	-0.5840208167	-0.555800393	-0.152495
C	-1.3582246007	-0.5463169402	 0.0537236999	 0.178609
H	-0.3283642424	 1.8086032984	 0.5538681477	 0.281223
H	 0.5738438508	-0.393146705	-0.9241008353	 0.112032
H	 1.6910400837	-0.3251942984	 1.5092007407	 0.108341
H	 0.0121495588	-1.7814178608	 2.8949639295	 0.11011
H	-3.3211593533	-2.4261198504	 1.9500097514	 0.141279
H	-2.9754360901	-0.1594035716	-1.4560443778	 0.146296
138.774	176.0474	304.1422	346.6839	357.96	500.3346	561.5658	596.2314	653.3482	696.2391	721.7149	739.4768	779.9003	785.9478	860.7186	926.871	958.1055	968.1962	1048.1831	1061.7849	1077.6308	1131.1067	1162.0686	1238.2267	1254.1682	1261.4035	1286.167	1342.2876	1394.7604	1418.6946	1606.7832	1615.2235	1671.2655	3036.7575	3203.8593	3226.4386	3275.2068	3280.6166	3797.0067
OC1C=CC2=COC=C12	O[C@H]1C=Cc2cocc12	
InChI=1S/C7H6O2/c8-7-2-1-5-3-9-4-6(5)7/h1-4,7-8H	InChI=1S/C7H6O2/c8-7-2-1-5-3-9-4-6(5)7/h1-4,7-8H/t7-/m0/s1
