12
gdb 132820	2.47741	1.87664	1.06779	1.359	60.24	-0.2509	-0.0213	0.2297	991.9301	0.078882	-513.97418	-513.967305	-513.966361	-514.005535	26.087	
O	 0.0253168348	 1.3462692652	 0.0593376477	-0.398811
C	 0.0506566619	 0.008320853	 0.0458625842	 0.332487
N	 0.0687243226	-0.6203316473	-1.1309765956	-0.353182
C	 0.0936023991	-1.9489706533	-1.0902648172	 0.061665
N	 0.1022870874	-2.7129409678	-0.0022326669	-0.353179
C	 0.0840679688	-2.0752462829	 1.1697363509	 0.332485
O	 0.0918279288	-2.7990857944	 2.2953142621	-0.398811
C	 0.0574296023	-0.6864028385	 1.2515227261	 0.07867
F	 0.0393824269	-0.0556235283	 2.4214546627	-0.046618
H	 0.025023286	 1.624707646	-0.8677874766	 0.308355
H	 0.108362751	-2.4645017922	-2.0464640048	 0.128584
H	 0.1107776305	-3.7265415195	 2.0186279075	 0.308355
133.9225	248.2198	271.5764	318.4905	328.6204	520.233	537.4312	545.4597	557.2161	567.8653	569.4983	700.8923	730.1897	799.8861	896.5185	985.2387	1065.7046	1135.6114	1248.3179	1324.8597	1350.8958	1361.7037	1366.5386	1491.854	1532.9406	1663.416	1667.6546	3177.2996	3763.0068	3764.1448
OC1=NC=NC(O)=C1F	Oc1ncnc(O)c1F	
InChI=1S/C4H3FN2O2/c5-2-3(8)6-1-7-4(2)9/h1H,(H2,6,7,8,9)	InChI=1S/C4H3FN2O2/c5-2-3(8)6-1-7-4(2)9/h1H,(H2,6,7,8,9)
