16
gdb 124304	4.90487	0.99285	0.84078	4.1265	70.22	-0.2543	-0.0381	0.2162	1322.0279	0.125162	-434.12058	-434.112283	-434.111339	-434.15472	29.309	
C	-0.3050514767	 1.5203781187	 0.2164335918	-0.475835
C	-0.058731581	 0.0348964347	 0.3669294619	 0.391687
O	 0.614504496	-0.4127756112	 1.2705501524	-0.304139
C	-0.68825858	-0.8499298412	-0.7042514212	-0.442092
C	-0.7795946788	-2.3105314584	-0.3961998372	 0.387708
N	-1.5715783214	-3.1706932373	-1.0187724192	-0.327977
C	-1.2746642752	-4.3491223385	-0.4053937381	 0.020543
N	-0.3607232987	-4.275538315	 0.5486393055	-0.217036
N	-0.0511174848	-2.9590427122	 0.533650102	-0.222471
H	 0.3350498955	 2.0754359027	 0.9025346997	 0.152095
H	-0.1294288003	 1.8459117478	-0.8141741636	 0.144754
H	-1.3551051111	 1.7391232839	 0.4443200632	 0.155878
H	-1.6851249768	-0.4788595109	-0.9631492978	 0.157427
H	-0.0883389437	-0.6980653133	-1.6151842716	 0.163645
H	-1.7460174753	-5.2844394282	-0.6675069026	 0.12339
H	 0.5920185723	-2.5409388515	 1.1891135947	 0.292424
42.5135	74.0954	135.5618	178.0698	262.1266	315.3898	348.581	463.2398	579.1648	644.8391	698.9505	749.8402	763.4859	827.2524	861.8031	909.0186	973.5632	986.5963	1051.8807	1056.5705	1125.2939	1173.9204	1209.1274	1215.2662	1284.2928	1311.4152	1335.5638	1387.9766	1417.2739	1443.2232	1462.77	1476.0893	1502.0946	1581.3568	1801.4469	3004.8413	3039.0359	3083.5872	3101.0063	3158.2258	3261.9057	3641.3007
CC(=O)CC1=NC=NN1	CC(=O)Cc1ncn[nH]1	
InChI=1S/C5H7N3O/c1-4(9)2-5-6-3-7-8-5/h3H,2H2,1H3,(H,6,7,8)	InChI=1S/C5H7N3O/c1-4(9)2-5-6-3-7-8-5/h3H,2H2,1H3,(H,6,7,8)
