25
gdb 118169	5.158	0.51265	0.49217	0.1907	99.38	-0.2397	0.0617	0.3014	2367.3203	0.226033	-352.350793	-352.338657	-352.337713	-352.390031	42.19	
C	 0.1244508311	 1.6575996157	-0.0066066265	-0.377869
C	-0.0112655094	 0.1318340583	-0.0048817164	-0.182366
C	 0.6389394583	-0.5211576795	-1.2305863131	-0.15772
C	 0.6236564592	-2.0599851408	-1.2370351013	 0.034756
C	-0.795113679	-2.6399594114	-1.2766651196	-0.389073
C	 1.4684852802	-2.5820397357	-2.4275247093	-0.365212
C	 1.6653210425	-4.0279869792	-2.431106083	 0.029986
C	 1.8279720275	-5.2214701158	-2.4106484842	 0.104492
C	 2.033859201	-6.6633073229	-2.3984381656	-0.498151
H	 1.177107102	 1.9618775344	-0.012947147	 0.112805
H	-0.3498510527	 2.0958842752	-0.8919080535	 0.11324
H	-0.3455763726	 2.1019349152	 0.8763667365	 0.110238
H	 0.4469136596	-0.2752905203	 0.9065162407	 0.094087
H	-1.0735170328	-0.1344984564	 0.0429863171	 0.099912
H	 0.1455104339	-0.1525078361	-2.1422209982	 0.088564
H	 1.6816773513	-0.1796757117	-1.2944442041	 0.08671
H	 1.1127498866	-2.4096945031	-0.3174084742	 0.078545
H	-0.7638507921	-3.7312763357	-1.3374743088	 0.125964
H	-1.3687420813	-2.368855073	-0.3861903301	 0.112781
H	-1.3423426355	-2.2697457887	-2.1527927171	 0.106794
H	 0.9872690458	-2.2725941189	-3.3665505086	 0.118703
H	 2.4473205804	-2.0845748184	-2.4140773586	 0.118353
H	 3.0266665534	-6.9273777883	-2.7799821315	 0.145215
H	 1.9529805469	-7.0700133605	-1.3840938221	 0.144721
H	 1.2938880457	-7.1795473725	-3.0203356714	 0.144523
26.5111	45.2645	70.2937	83.7129	113.1301	169.3004	212.7806	242.7985	253.4794	272.953	304.2028	347.9495	387.3139	403.6039	436.6451	549.2515	746.6946	769.9039	834.2527	866.3155	894.2071	903.8083	955.7117	1015.2821	1043.3909	1054.0744	1054.2947	1077.6092	1128.0968	1141.9158	1168.849	1183.18	1238.6592	1273.8213	1288.7049	1331.9154	1332.6944	1366.325	1380.3499	1396.637	1410.2957	1414.438	1416.4758	1469.5824	1479.4567	1480.2201	1483.0395	1493.959	1498.3491	1499.9222	1506.2554	1511.5089	2369.9321	2994.6458	3000.9333	3010.9753	3018.9504	3024.264	3027.798	3028.3822	3029.2194	3040.6123	3062.2605	3083.5207	3083.6981	3095.9545	3097.895	3101.0487	3117.5516
CCCC(C)CC#CC	CCC[C@@H](C)CC#CC	
InChI=1S/C9H16/c1-4-6-8-9(3)7-5-2/h9H,5,7-8H2,1-3H3	InChI=1S/C9H16/c1-4-6-8-9(3)7-5-2/h9H,5,7-8H2,1-3H3/t9-/m1/s1
