21
gdb 94574	3.01105	1.16709	0.91697	3.3699	78.02	-0.2349	0.0653	0.3002	1301.2062	0.182643	-424.185616	-424.176513	-424.175568	-424.220612	33.299	
O	 0.2394256171	 0.9198302856	-0.784911567	-0.427839
C	 0.043691203	-0.2243847387	 0.0158390478	 0.131814
C	-0.0590659132	-0.065488212	 1.5573413376	-0.257995
C	-1.280690852	-1.026072403	 1.5239590777	-0.241696
C	-1.4100127908	-0.7707866111	-0.010131633	-0.042871
C	-2.4511372071	 0.2713108412	-0.3824918834	 0.000537
C	-2.618980729	 0.5992160215	-1.8821870372	-0.081422
O	-3.9981932288	 0.1683384377	-1.870931268	-0.276441
C	-3.9184285009	-0.2095460047	-0.4831338246	-0.096927
H	 1.1571823751	 1.1980824194	-0.7064478641	 0.28552
H	 0.759178769	-1.0164366457	-0.2476897025	 0.067504
H	 0.8052194603	-0.3549411598	 2.1601445759	 0.093293
H	-0.3475188345	 0.956401348	 1.8180266318	 0.109758
H	-1.0055499002	-2.0588507305	 1.7509635689	 0.103155
H	-2.1417084043	-0.7550278923	 2.1395369403	 0.102722
H	-1.5569834596	-1.6620598686	-0.6292648623	 0.068242
H	-2.3372803904	 1.1672479266	 0.231880341	 0.077743
H	-2.5170888166	 1.6543185607	-2.1591958942	 0.10137
H	-2.0048016248	-0.005101369	-2.5615739064	 0.097136
H	-4.066257369	-1.2896228368	-0.3408963765	 0.091767
H	-4.6501913934	 0.3288007014	 0.1324111882	 0.09463
42.8013	73.8099	106.7089	150.3188	227.5013	240.3094	333.3146	359.1388	417.7497	562.2603	653.188	750.2035	768.5216	856.2418	888.5523	901.3474	935.9064	945.5749	960.8106	996.5093	1018.2001	1029.7252	1040.425	1096.1598	1107.2132	1145.2257	1151.7223	1161.1068	1172.075	1198.0007	1235.2416	1256.3513	1259.3729	1265.3285	1277.3339	1303.7185	1307.5347	1330.3336	1375.9426	1414.1664	1421.3837	1479.4194	1498.1537	1511.7413	1537.2398	2992.7108	2994.2692	3018.5233	3037.3309	3044.0572	3058.1553	3060.694	3065.9781	3087.397	3105.0784	3122.0001	3821.1199
OC1CCC1C1COC1	O[C@H]1CC[C@H]1C1COC1	
InChI=1S/C7H12O2/c8-7-2-1-6(7)5-3-9-4-5/h5-8H,1-4H2	InChI=1S/C7H12O2/c8-7-2-1-6(7)5-3-9-4-5/h5-8H,1-4H2/t6-,7-/m0/s1
