21
gdb 116603	3.66516	0.89248	0.84612	3.4274	83.63	-0.2154	0.0635	0.2788	1507.6883	0.183074	-420.434777	-420.425167	-420.424223	-420.470416	34.936	
C	-0.1974152672	 1.5798842365	-0.0335856754	-0.354762
C	 0.1221681714	 0.086430926	 0.0594653446	-0.135575
N	 0.8075975316	-0.3621311397	-1.1431456692	-0.384032
C	 1.8548223083	-1.0560446766	-1.0480159936	 0.4911
N	 2.5637397818	-1.5853491178	-2.120508572	-0.361459
C	 3.9122303409	-1.9424565864	-1.6966451294	 0.015017
C	 4.944436636	-0.8258274517	-1.8879046146	-0.398915
C	 3.6128738219	-2.2562629803	-0.2174765021	-0.08976
O	 2.4879294134	-1.4341959851	 0.1112018669	-0.253791
H	 0.7222872035	 2.1719732382	-0.0824931483	 0.107871
H	-0.7798474699	 1.7914325435	-0.9352253202	 0.118401
H	-0.7717181789	 1.9104646594	 0.8383560937	 0.100481
H	 0.6947660534	-0.1159679233	 0.9744740081	 0.099476
H	-0.8211865797	-0.4713108196	 0.1473680998	 0.095174
H	 2.4273444681	-1.10669952	-2.9979816957	 0.249637
H	 4.246550833	-2.846304237	-2.2172082196	 0.089954
H	 4.665317316	 0.065530868	-1.3167495772	 0.135896
H	 5.9356600084	-1.1532518431	-1.5564840433	 0.120213
H	 5.021974382	-0.5445596185	-2.9432362756	 0.11971
H	 3.3428999508	-3.3092700252	-0.0766500935	 0.116575
H	 4.4370709052	-2.001528837	 0.4530195064	 0.118789
25.6912	72.9411	157.5943	162.4327	181.4635	247.7788	271.5976	340.9638	384.1386	431.1002	506.8418	558.5918	715.1791	725.1597	747.6976	808.9131	836.6395	877.5346	936.8242	951.7578	975.6909	1034.7497	1064.6123	1098.6043	1121.028	1144.6825	1158.7108	1165.7436	1239.01	1246.0194	1305.286	1310.7576	1380.1292	1383.4715	1403.485	1404.0586	1418.3201	1421.865	1487.4007	1492.9203	1494.0442	1494.6476	1512.0919	1519.7261	1808.8976	2995.5449	3030.3009	3030.8242	3033.4085	3033.7556	3048.38	3100.7163	3102.6936	3106.5321	3111.2634	3112.3479	3627.7015
CCN=C1NC(C)CO1	CCN=C1N[C@@H](C)CO1	
InChI=1S/C6H12N2O/c1-3-7-6-8-5(2)4-9-6/h5H,3-4H2,1-2H3,(H,7,8)	InChI=1S/C6H12N2O/c1-3-7-6-8-5(2)4-9-6/h5H,3-4H2,1-2H3,(H,7,8)/t5-/m0/s1
