17
gdb 128180	3.7734	1.15098	0.89431	5.4497	84.39	-0.189	-0.0212	0.1678	1273.2304	0.138288	-414.188653	-414.180123	-414.179179	-414.222142	31.586	
C	-0.0135512912	 1.4326766133	 0.2157393071	-0.346241
N	-0.050215465	 0.0582275926	-0.2620523404	-0.366736
C	-1.1720515907	-0.7376943668	-0.1153155545	 0.486422
C	-1.1403474137	-2.0977547146	-0.0249153115	-0.28776
C	-2.364063133	-2.8576309708	 0.0520457166	 0.288442
N	-2.3787175265	-4.1475710602	 0.1376307471	-0.568517
C	-3.5631252829	-2.0038757675	 0.0316587946	-0.053193
N	-3.5813098952	-0.7157194103	-0.0426908518	-0.192539
N	-2.3835512384	-0.0890512163	-0.1011095694	-0.301902
H	 1.0117434299	 1.7972220233	 0.1319645863	 0.144466
H	-0.6293830081	 2.0874063907	-0.4121787928	 0.13538
H	-0.3375807023	 1.5441057013	 1.2605660763	 0.133443
H	 0.8018118797	-0.4571067805	-0.1036441225	 0.254
H	-0.1930587096	-2.6231490435	-0.0113586117	 0.093552
H	-3.3433457662	-4.4820968173	 0.1888113831	 0.195159
H	-4.5416508436	-2.4767021654	 0.0825229349	 0.116553
H	-2.4497190632	 0.905079222	-0.2278124215	 0.269471
56.6453	139.2188	149.7572	210.9167	234.3566	359.3228	362.7473	468.5659	476.8342	506.0664	532.279	635.6189	674.6981	722.7073	747.4411	811.1909	851.9273	937.1407	937.8376	1031.0204	1061.7726	1121.4149	1145.0513	1172.4892	1185.4592	1265.7549	1359.3294	1379.0669	1416.9399	1461.125	1474.472	1494.6526	1517.97	1533.81	1629.8743	1663.6176	1688.2064	2997.4435	3057.073	3130.239	3156.5031	3202.2165	3436.3321	3622.0457	3682.1768
CNC1=CC(=N)C=NN1	CN[C@@H]1C=C([NH])C=NN1	
InChI=1S/C5H8N4/c1-7-5-2-4(6)3-8-9-5/h2-3H,1H3,(H3,6,7,9)	InChI=1S/C5H9N4/c1-7-5-2-4(6)3-8-9-5/h2-3,5-7,9H,1H3/t5-/m0/s1
