16
gdb 19496	3.37843	1.97368	1.79253	1.915	70.1	-0.2409	0.0494	0.2904	810.927	0.13114	-346.558255	-346.551216	-346.550272	-346.589385	27.007	
C	-0.1672049874	-1.244045159	-0.1309014246	-0.475017
C	-0.0592892375	-0.0494927398	-0.0403109862	 0.364266
C	 0.0192132505	 1.3807202467	 0.0332850772	-0.21826
C	 0.4932179263	 2.1274914133	 1.2738744686	-0.07904
C	 1.2872801537	 1.3387922944	 2.2968567681	-0.094749
O	 2.3045562871	 0.6569778138	 1.5722877909	-0.248626
C	 2.5917942784	 1.3662549723	 0.3726497735	-0.094753
C	 1.3371121674	 2.1452369279	 0.0290860078	-0.079013
H	-0.2459675832	-2.3003971524	-0.2001886109	 0.194211
H	-0.7787157863	 1.8907880277	-0.5004279733	 0.114549
H	-0.0751114501	 2.9896461314	 1.602015609	 0.097178
H	 1.7165245755	 2.0305535735	 3.0398664149	 0.092772
H	 0.7029670495	 0.5791355683	 2.8265784827	 0.118267
H	 3.431674747	 2.0666850086	 0.509935173	 0.092771
H	 2.8775330895	 0.624915471	-0.3809241448	 0.118266
H	 1.4199794795	 3.0210803123	-0.603383066	 0.097179
125.0801	134.5856	198.3342	318.4287	334.0816	535.3518	553.5614	598.3892	645.405	714.0894	725.6989	761.6238	805.2576	911.0175	924.7412	972.8194	981.6987	1005.1563	1033.9377	1074.2052	1100.3264	1122.6908	1127.9725	1186.7669	1226.9919	1244.4398	1323.0696	1354.0012	1360.5404	1368.7092	1435.0785	1507.1459	1518.3012	2236.1219	2969.6552	2975.9825	3068.1924	3071.1098	3137.741	3179.6445	3189.7992	3506.1574
C#CC1C2COCC12	C#C[C@H]1[C@H]2COC[C@@H]12	
InChI=1S/C7H8O/c1-2-5-6-3-8-4-7(5)6/h1,5-7H,3-4H2	InChI=1S/C7H8O/c1-2-5-6-3-8-4-7(5)6/h1,5-7H,3-4H2/t5-,6+,7-
