14
gdb 133556	2.92438	1.3961	1.2621	2.8906	54.18	-0.2582	0.0538	0.3121	990.2457	0.097108	-568.145386	-568.137864	-568.13692	-568.17805	27.925	
F	-0.1937737594	 0.057744931	-0.0894188891	-0.066493
C	-0.0211134166	 1.374090205	 0.0749770194	 0.215007
F	 1.2993326111	 1.6141948256	 0.1410269804	-0.078025
F	-0.4972261493	 1.9809775567	-1.019464137	-0.066621
C	-0.6917058139	 1.8694823529	 1.3173127669	 0.307626
C	-0.272554758	 3.0528513881	 2.1269852044	-0.340885
C	-0.3633484922	 1.685185087	 2.7778916913	-0.184665
C	-1.8296968312	 1.2795998311	 2.9032849814	-0.090945
O	-2.0716917531	 1.5730276125	 1.4938856762	-0.325406
H	 0.7402510859	 3.402075269	 1.9603467359	 0.139264
H	-1.0093993793	 3.8218730709	 2.3394271833	 0.127454
H	 0.4806453431	 1.1971091773	 3.2441559623	 0.122475
H	-1.9759747472	 0.2124368839	 3.0966765049	 0.125332
H	-2.4682838698	 1.8757398891	 3.5635873096	 0.115882
59.5783	143.5022	180.8875	310.8643	342.6764	396.6714	417.5044	495.7881	572.9835	586.5224	737.3115	760.9146	848.0507	895.5015	953.1215	971.5172	993.6549	1012.5999	1025.4196	1077.2833	1121.0798	1150.7552	1164.2691	1190.8318	1203.9661	1219.4331	1301.2364	1347.2093	1430.7326	1489.2063	1515.9324	3040.1324	3094.8878	3127.4019	3217.5288	3228.722
FC(F)(F)C12CC1CO2	FC(F)(F)[C@]12C[C@H]1CO2	
InChI=1S/C5H5F3O/c6-5(7,8)4-1-3(4)2-9-4/h3H,1-2H2	InChI=1S/C5H5F3O/c6-5(7,8)4-1-3(4)2-9-4/h3H,1-2H2/t3-,4-/m0/s1
