19
gdb 75655	2.44085	1.76017	1.26506	3.4052	75.09	-0.2354	-0.0071	0.2283	1034.1112	0.159446	-423.039873	-423.031717	-423.030773	-423.072082	32.402	
C	-0.0999468224	 1.5462571618	 0.034052162	-0.422749
C	 0.0520265044	 0.0270861524	 0.0638570141	-0.119322
C	 0.976827783	-0.5465677505	-1.0365316786	 0.43949
O	 0.929049284	-0.3492294558	-2.2206117824	-0.343681
C	 1.9685897563	-1.3782097526	-0.2337825691	-0.135684
C	 2.3004571849	-0.3594733209	 0.9087034592	-0.306088
C	 0.7972305257	-0.5869354541	 1.2676313769	 0.410215
O	 0.2350889794	-0.2400163265	 2.4892385292	-0.486222
C	 1.0057381188	-2.0583397077	 0.7943548744	-0.304
H	 0.8585398923	 2.0568115108	 0.1692889453	 0.117706
H	-0.5094633786	 1.858171207	-0.9306663644	 0.13473
H	-0.7740351053	 1.8794925343	 0.827228791	 0.131163
H	-0.9390584131	-0.4347469949	-0.0315096867	 0.099732
H	 2.7350826977	-1.9223233401	-0.7793738267	 0.087034
H	 2.9748893776	-0.799664896	 1.6488181906	 0.099584
H	 2.6410034613	 0.6421079741	 0.6369783019	 0.11208
H	 0.7555738191	-0.6414760879	 3.1931707962	 0.279662
H	 0.1422536706	-2.6126329484	 0.4167844461	 0.107727
H	 1.5593526242	-2.659772515	 1.5210499509	 0.098623
119.1488	187.52	209.8565	252.954	297.7543	309.4028	379.4668	481.9977	496.8504	511.5179	547.3204	672.2425	694.4718	767.7417	794.7752	846.6525	888.7307	941.5997	952.8392	970.2989	1001.4146	1023.4415	1073.5445	1098.07	1116.7929	1130.6343	1150.9364	1158.5697	1210.9151	1226.7159	1232.395	1276.0766	1322.7302	1341.4028	1395.9698	1411.6158	1481.2061	1495.8751	1501.1329	1521.5889	1869.459	3029.6529	3045.2168	3051.2483	3059.5245	3112.3616	3114.7967	3121.1732	3125.3623	3158.4969	3807.4355
CC1C(=O)C2CC1(O)C2	C[C@H]1C(=O)[C@H]2C[C@]1(O)C2	
InChI=1S/C7H10O2/c1-4-6(8)5-2-7(4,9)3-5/h4-5,9H,2-3H2,1H3	InChI=1S/C7H10O2/c1-4-6(8)5-2-7(4,9)3-5/h4-5,9H,2-3H2,1H3/t4-,5-,7-/m0/s1
