18
gdb 76421	3.05016	1.01906	0.95578	5.5886	72.26	-0.2472	0.0265	0.2736	1280.804	0.145318	-439.074041	-439.064203	-439.063259	-439.108857	35.634	
C	-0.013664452	 1.6399622063	 0.224818745	-0.457686
C	-0.0183597302	 0.133938713	 0.0722614207	 0.230575
C	-1.3369173912	-0.4666112854	-0.4127941972	-0.412062
C	-1.7203279282	 0.002144138	-1.746563308	 0.278464
N	-2.0171914083	 0.3786413402	-2.7978182748	-0.310619
C	 1.2549288553	-0.5892147562	-0.3565196513	 0.073819
O	 2.4382460589	 0.1184745694	-0.5306851107	-0.430065
C	 0.7360301941	-0.7337054549	 1.0581416307	-0.022561
O	 1.4699189643	-0.0529914841	 2.0447719329	-0.429124
H	 0.9837214978	 2.0145323527	 0.4533265518	 0.130306
H	-0.3424139875	 2.1127062935	-0.7059511223	 0.144986
H	-0.6879535953	 1.9562714567	 1.0278782348	 0.120561
H	-1.2753621457	-1.5606573938	-0.4446122142	 0.145403
H	-2.1460760433	-0.2202357129	 0.2866881072	 0.153357
H	 1.1679767057	-1.4188606596	-1.053111925	 0.105382
H	 2.7125847949	 0.4091686239	 0.3503814133	 0.286634
H	 0.2781807776	-1.6642328316	 1.3903674884	 0.091772
H	 2.0799263532	-0.6822782154	 2.4456644988	 0.300858
60.9606	108.8406	120.6085	184.404	218.3474	267.2093	278.072	284.8744	331.4967	392.7152	428.7641	492.6945	507.4463	616.406	659.9868	716.6773	840.3982	857.125	932.1819	951.4238	990.1687	1023.953	1070.9601	1100.4935	1154.2834	1169.6299	1215.521	1222.0817	1271.0576	1321.2459	1330.0283	1357.2396	1410.8554	1421.8745	1460.6172	1470.8542	1489.866	1503.6395	2362.2804	3029.5962	3042.4366	3068.7689	3103.1081	3108.9041	3144.0291	3152.3383	3737.4335	3803.398
CC1(CC#N)C(O)C1O	C[C@@]1(CC#N)[C@@H](O)[C@H]1O	
InChI=1S/C6H9NO2/c1-6(2-3-7)4(8)5(6)9/h4-5,8-9H,2H2,1H3	InChI=1S/C6H9NO2/c1-6(2-3-7)4(8)5(6)9/h4-5,8-9H,2H2,1H3/t4-,5+,6+
