21
gdb 114554	2.64359	1.47844	1.16427	1.5361	78.39	-0.2391	0.0883	0.3274	1148.7917	0.182247	-424.204906	-424.196196	-424.195252	-424.238006	33.634	
C	 0.0122123515	 1.3277115535	-0.1847458718	-0.235525
O	-0.0124175385	-0.0261131617	 0.205811961	-0.254093
C	-1.2872051494	-0.6229457056	 0.1151120874	 0.113763
C	-1.7243498078	-1.0555240402	-1.3237406365	-0.256802
C	-1.7906038767	-2.5684979336	-1.0429820566	 0.073316
C	-0.4843789481	-2.8699799245	-0.2832427903	-0.269974
C	-1.2531247281	-2.0296716828	 0.7654220335	 0.392561
C	-1.0641405073	-2.1282285073	 2.2504222913	-0.510781
O	-2.5008335424	-2.5951612977	 0.2385198015	-0.337722
H	 1.0328514454	 1.6901698614	-0.0393849637	 0.126634
H	-0.262037045	 1.4590653759	-1.2422212116	 0.107439
H	-0.6725489729	 1.9371609658	 0.4253845968	 0.106281
H	-2.0397332285	 0.0114991249	 0.6047869949	 0.066873
H	-2.6981952191	-0.6579596555	-1.6167271357	 0.104551
H	-0.9802257927	-0.7820623467	-2.0772412748	 0.102175
H	-2.2119643066	-3.2303589414	-1.7992607863	 0.076571
H	-0.4175329051	-3.9161260526	 0.0181788576	 0.10407
H	 0.4636444787	-2.4917717647	-0.6699143909	 0.106388
H	-0.1255265886	-1.6422646729	 2.5326956251	 0.136181
H	-1.8832813402	-1.622492804	 2.7730517607	 0.125198
H	-1.0375479088	-3.1707850104	 2.5780615082	 0.122895
102.5767	139.1521	179.5792	199.5501	234.8848	285.1216	332.5762	391.5315	457.6502	494.8099	561.8495	619.5451	717.7412	815.6102	842.6333	854.4579	887.8792	907.6809	956.9068	982.1174	1005.7658	1024.9248	1034.8776	1082.6762	1128.9212	1139.2699	1175.7836	1176.6367	1186.0639	1221.1438	1232.8517	1242.6457	1281.2741	1294.5437	1314.8355	1354.4621	1381.6519	1414.6146	1471.6291	1481.4398	1482.9004	1487.879	1490.2427	1493.999	1510.3252	2976.1848	3002.2872	3024.305	3039.5869	3063.9489	3078.0586	3109.0303	3112.9715	3118.6708	3123.7603	3124.3996	3148.7422
COC1CC2CC1(C)O2	CO[C@H]1C[C@H]2C[C@]1(C)O2	
InChI=1S/C7H12O2/c1-7-4-5(9-7)3-6(7)8-2/h5-6H,3-4H2,1-2H3	InChI=1S/C7H12O2/c1-7-4-5(9-7)3-6(7)8-2/h5-6H,3-4H2,1-2H3/t5-,6-,7-/m0/s1
