19
gdb 101264	2.27647	1.11304	0.85546	1.3543	77.69	-0.2586	0.0178	0.2763	1384.5686	0.155906	-422.963238	-422.953138	-422.952194	-422.998894	36.525	
C	 1.2417181593	 1.6302625825	-0.6350777967	-0.419281
C	 0.3132286512	 0.5944504106	 0.0138086605	-0.03302
C	 0.0266927244	-0.5987223278	-0.915618839	-0.073558
O	-0.5845862391	-0.2219149319	-2.1374404762	-0.419718
C	 0.9134486156	 0.094913434	 1.3083712039	 0.073218
O	 0.8844026476	 0.9741238869	 2.4304252846	-0.252036
C	 0.1086886821	-0.2353642244	 2.5077069768	-0.160821
C	-1.3241018123	-0.1119205439	 2.5350823338	 0.338776
C	-2.5239107654	-0.0485956058	 2.5774713953	-0.427505
H	 2.2044614929	 1.1840613185	-0.9150824368	 0.110336
H	 0.7861017508	 2.0561206229	-1.5343991388	 0.114552
H	 1.4411458147	 2.4536871891	 0.0559029671	 0.140222
H	-0.6439865694	 1.0726005168	 0.2463574093	 0.103203
H	 0.9572557274	-1.1639151575	-1.0941437946	 0.082769
H	-0.6785882514	-1.2787448467	-0.4272262284	 0.120986
H	 0.0697919056	 0.2415675925	-2.6682328795	 0.285564
H	 1.8579558851	-0.4464232061	 1.2034098714	 0.093134
H	 0.5151053385	-0.9719332803	 3.2007262103	 0.117034
H	-3.5835219976	 0.0176531607	 2.6118165369	 0.206147
40.1283	83.099	124.586	157.4407	227.0889	237.0844	259.7658	297.3406	315.4133	404.7893	418.6702	496.9749	558.5287	619.6857	635.2878	673.816	796.0196	841.1546	868.7593	914.1427	954.6884	987.3669	1065.2422	1078.4974	1101.0131	1121.1763	1159.8681	1180.411	1231.4905	1275.3276	1290.0946	1350.3569	1386.4823	1391.5356	1405.0568	1423.2022	1460.8065	1498.6052	1499.1207	1512.3656	2239.2592	2961.3632	3024.3153	3059.325	3071.9823	3079.7221	3095.9829	3110.5306	3116.496	3502.031	3831.257
CC(CO)C1OC1C#C	C[C@@H](CO)[C@H]1O[C@H]1C#C	
InChI=1S/C7H10O2/c1-3-6-7(9-6)5(2)4-8/h1,5-8H,4H2,2H3	InChI=1S/C7H10O2/c1-3-6-7(9-6)5(2)4-8/h1,5-8H,4H2,2H3/t5-,6-,7+/m0/s1
