13
gdb 128599	2.77642	1.571	1.00979	5.869	65.68	-0.2745	-0.091	0.1835	1080.0593	0.087612	-489.848332	-489.840525	-489.839581	-489.880963	27.895	
C	 0.0501247888	 1.3631564307	-0.0656801579	-0.257583
O	-0.0476304047	-0.0605563321	-0.0749946911	-0.21388
C	-1.2516353655	-0.6041198768	 0.0200836231	 0.192574
C	-2.4406266964	 0.0413053613	 0.1285381567	-0.118015
N	-3.6280290646	-0.6587611461	 0.2202999719	-0.091575
N	-3.7209501191	-1.8814743678	 0.2131730664	 0.036331
O	-2.4656301941	-2.6596634312	 0.0975113264	-0.272539
C	-1.2354932807	-2.0878350899	 0.0004088563	 0.452031
O	-0.2459690924	-2.7594410561	-0.0911970688	-0.322999
H	 1.1123749739	 1.5880259818	-0.1526952694	 0.163394
H	-0.4927124844	 1.7951752492	-0.9136850018	 0.146202
H	-0.3417899103	 1.7731266162	 0.8717377604	 0.146204
H	-2.5478641004	 1.1162011508	 0.1508385378	 0.139856
98.7049	137.5285	198.4236	219.451	259.4677	314.9812	428.5874	469.3369	511.354	566.0236	629.0549	678.997	799.2912	823.3425	875.9217	914.4029	1011.1586	1143.0247	1156.5737	1174.3563	1220.7763	1338.4487	1400.9123	1478.6368	1492.6511	1498.6477	1592.4765	1663.1109	1839.7104	3027.0678	3098.1255	3163.6209	3232.9072
COC1=CN=NOC1=O	COc1cnnoc1=O	
InChI=1S/C4H4N2O3/c1-8-3-2-5-6-9-4(3)7/h2H,1H3	InChI=1S/C4H4N2O3/c1-8-3-2-5-6-9-4(3)7/h2H,1H3
