17
gdb 87021	2.1124	1.54874	1.05783	2.7718	74.92	-0.2774	-0.0461	0.2313	1169.7071	0.133772	-418.024297	-418.014779	-418.013835	-418.058761	33.844	
C	-0.2421950307	 1.5806167034	 0.3305557601	-0.407112
C	-0.1619725112	 0.0812973341	 0.2149582056	-0.012825
N	 1.0215869097	-0.4931387428	-0.3887109935	-0.338822
C	 0.8089739042	-0.7424894475	 1.0525344188	 0.04591
C	 1.7107730671	-0.0824310366	 1.9633437914	 0.250686
N	 2.4109032252	 0.4318199544	 2.7267873658	-0.347904
C	 0.3101113899	-2.1274769025	 1.4251073419	 0.345178
C	 0.4380885765	-2.564043656	 2.861355215	-0.502982
O	-0.173106688	-2.8197133392	 0.55639136	-0.313991
H	 0.7376938673	 2.0115480834	 0.5453178257	 0.154259
H	-0.6026376609	 2.0009140595	-0.6139612826	 0.137343
H	-0.9393455567	 1.8734942197	 1.1213847784	 0.13195
H	-1.1019960696	-0.4381622733	 0.0355096492	 0.119485
H	 0.7752330536	-1.3682111873	-0.8560867749	 0.258453
H	 1.4964762456	-2.6357353021	 3.135416686	 0.171287
H	-0.0054323598	-1.8206385565	 3.532186624	 0.157833
H	-0.045292322	-3.5317639805	 2.9940828092	 0.151256
71.5638	137.7081	145.4691	154.7933	172.1388	188.1781	256.409	350.614	368.0874	447.0134	522.3289	564.7114	576.9106	618.7976	646.1654	792.9961	866.5878	954.8187	971.2237	1030.6671	1035.9879	1052.0002	1092.3966	1139.4699	1199.4356	1255.1974	1274.8241	1351.1895	1391.0243	1408.8161	1445.0087	1456.075	1470.229	1483.3533	1492.96	1794.7614	2353.2333	3044.2033	3045.0531	3104.6664	3110.8307	3126.0694	3144.587	3162.7574	3447.8502
CC1NC1(C#N)C(C)=O	C[C@H]1N[C@]1(C#N)C(=O)C	
InChI=1S/C6H8N2O/c1-4-6(3-7,8-4)5(2)9/h4,8H,1-2H3	InChI=1S/C6H8N2O/c1-4-6(3-7,8-4)5(2)9/h4,8H,1-2H3/t4-,6+/m1/s1
