16
gdb 7125	7.66594	0.9003	0.81396	5.965	66.27	-0.2415	-0.0123	0.2292	1369.9905	0.12865	-417.061632	-417.052369	-417.051425	-417.097149	30.552	
C	-0.1978762963	 1.5006314291	 0.0130938632	-0.227008
O	 0.0175388573	 0.1083630824	 0.0029800057	-0.203033
C	-1.16642616	-0.62151632	 0.0105300062	-0.176165
C	-0.8339456714	-2.1221413458	-0.0014010275	 0.397812
O	 0.2819785274	-2.5606159247	-0.0156562986	-0.280022
N	-2.0008765539	-2.8919124393	 0.0064760866	-0.332727
C	-2.140752903	-4.2786869976	-0.0002588895	 0.086648
N	-1.1758032317	-5.0981423918	-0.0133071356	-0.39559
H	 0.7845072948	 1.9771438798	 0.0061069523	 0.138475
H	-0.7632357325	 1.8337462555	-0.8717989184	 0.105504
H	-0.7455786129	 1.8235167201	 0.912759985	 0.105503
H	-1.7788084595	-0.3983933103	 0.9047327347	 0.103439
H	-1.7963294692	-0.3882921509	-0.8688135394	 0.103458
H	-2.869855621	-2.3804228935	 0.0181628323	 0.251936
H	-3.2051532997	-4.5491563623	 0.0077930455	 0.09246
H	-1.5376853384	-6.0506207207	-0.0154708023	 0.229311
34.6202	55.5453	96.7135	131.8651	169.2662	238.4404	239.0081	335.5952	398.6064	526.0736	547.9624	602.2101	790.2536	821.454	937.4717	996.2831	1027.749	1063.3058	1069.112	1172.195	1179.5417	1183.0143	1245.6809	1261.5163	1264.6366	1404.3555	1433.038	1474.5618	1487.3394	1495.25	1522.3703	1542.0162	1740.3012	1860.8056	2923.6601	2944.7363	2970.4225	3014.6989	3022.9052	3125.0762	3497.0375	3624.229
COCC(=O)NC=N	COCC(=O)NC=N	
InChI=1S/C4H8N2O2/c1-8-2-4(7)6-3-5/h3H,2H2,1H3,(H2,5,6,7)	InChI=1S/C4H8N2O2/c1-8-2-4(7)6-3-5/h3H,2H2,1H3,(H2,5,6,7)
