19
gdb 44001	3.51289	1.38442	1.26913	2.517	78.44	-0.2361	-0.0181	0.218	1051.4545	0.160479	-385.88841	-385.881062	-385.880117	-385.920113	30.044	
O	-0.0013728473	-0.0007700482	-0.2544450419	-0.293442
C	-0.0129956894	 1.1619125895	 0.0403124148	 0.380565
C	-1.2977510351	 2.0140133592	 0.2808564371	-0.419215
C	-0.802121006	 3.2730753893	 0.9331522449	 0.274516
C	-0.0096897587	 3.1715235502	 2.2063266458	-0.371692
C	 0.7434293366	 3.2940592594	 0.9113250361	 0.274516
C	 0.7281248094	 4.7456797324	 0.4026088421	-0.289804
C	-0.8405928043	 4.7243806367	 0.4247608892	-0.289804
C	 1.2544367541	 2.0486641965	 0.2448125992	-0.419215
H	-1.7499371336	 2.2143874334	-0.6991393642	 0.128269
H	-2.0204283586	 1.4189009329	 0.8477330621	 0.130377
H	-0.0110935221	 4.0030995216	 2.906386114	 0.111835
H	 0.0103183192	 2.1971813614	 2.6862905703	 0.117918
H	 1.2278981717	 5.4840754318	 1.0381515019	 0.099458
H	 1.1248096127	 4.8432398055	-0.6110878431	 0.103806
H	-1.2682395068	 4.8107473112	-0.5772955119	 0.103806
H	-1.3420834982	 5.4491827284	 1.0744415055	 0.099458
H	 2.0087177324	 1.4736041003	 0.7908313523	 0.130377
H	 1.6731682342	 2.2608621085	-0.7474826041	 0.128269
74.3664	198.8455	304.8637	307.5847	401.5157	435.3579	461.1235	562.173	573.0744	634.4068	720.7271	725.9187	770.3213	788.0234	804.2164	838.8367	928.9902	935.0083	964.3123	988.7829	1000.3645	1038.4093	1084.5055	1094.9055	1103.4123	1177.0965	1202.3805	1209.8359	1235.2094	1247.1661	1250.7987	1266.9791	1319.6651	1356.6884	1376.1226	1452.356	1457.2813	1481.041	1484.558	1507.5951	1849.3012	3033.5861	3036.5481	3040.7218	3048.2218	3081.9772	3082.4932	3090.5823	3109.4689	3110.1124	3194.0892
O=C1CC23CC2(CC3)C1	O=C1C[C@@]23C[C@@]2(CC3)C1	
InChI=1S/C8H10O/c9-6-3-7-1-2-8(7,4-6)5-7/h1-5H2	InChI=1S/C8H10O/c9-6-3-7-1-2-8(7,4-6)5-7/h1-5H2/t7-,8+
