21
gdb 116618	2.32907	1.10709	0.81144	2.3695	83.34	-0.2276	0.0267	0.2543	1492.7182	0.182055	-420.388443	-420.378392	-420.377448	-420.424645	35.476	
C	 0.5526043539	 0.0413061214	 0.6521125009	-0.361265
C	-0.5233515183	 0.5738973376	-0.2946530281	-0.149314
N	-1.7474150104	-0.2143112902	-0.1626088112	-0.336543
C	-2.3102887666	-0.6560189534	-1.1874563217	 0.498221
O	-1.9923379936	-0.5078113403	-2.5290546168	-0.266133
C	-3.1013759083	-1.3688257695	-2.9254695705	-0.102231
C	-3.5307648684	-1.5263311559	-1.4510218608	-0.142573
N	-3.4430398542	-2.873669181	-0.9223734129	-0.291861
C	-3.6692461352	-2.934776046	 0.5221043746	-0.324198
H	 1.451884223	 0.6635519418	 0.6029011024	 0.10732
H	 0.1878037296	 0.0356815983	 1.6833155276	 0.122203
H	 0.8302704843	-0.9834814365	 0.3869115034	 0.119687
H	-0.7650348443	 1.6091603947	-0.0209831879	 0.106868
H	-0.1480347413	 0.5918419609	-1.3260877525	 0.11041
H	-3.790618311	-0.8397721622	-3.5877333893	 0.116516
H	-2.7378431881	-2.2895692346	-3.3880683332	 0.121977
H	-4.472657644	-1.00392899	-1.2086252491	 0.080855
H	-4.1290152337	-3.4536223661	-1.3964718358	 0.219279
H	-4.6538448097	-2.5449091097	 0.8356314039	 0.093283
H	-3.5865007682	-3.9729409298	 0.8554200962	 0.116343
H	-2.9007713554	-2.3437026096	 1.0257549108	 0.161155
34.2722	81.3324	108.6688	129.87	178.5757	210.9321	240.9111	268.5371	332.8306	376.3601	445.5093	539.9477	679.2695	746.262	796.4701	805.9895	838.5754	911.2028	947.2401	976.5832	1033.3814	1065.6178	1076.011	1103.0139	1126.3435	1145.4303	1163.7593	1166.8171	1179.4205	1213.3959	1276.4694	1302.4775	1330.2976	1379.5637	1382.6697	1406.9245	1456.5119	1477.8885	1488.6601	1492.6144	1496.1082	1505.0084	1510.0697	1521.3803	1840.6596	2945.3595	2951.4434	3011.0359	3038.3483	3046.5139	3062.4316	3080.358	3110.0793	3117.347	3125.4743	3131.9318	3502.7708
CCN=C1OCC1NC	CCN=C1OC[C@H]1NC	
InChI=1S/C6H12N2O/c1-3-8-6-5(7-2)4-9-6/h5,7H,3-4H2,1-2H3	InChI=1S/C6H12N2O/c1-3-8-6-5(7-2)4-9-6/h5,7H,3-4H2,1-2H3/t5-/m1/s1
