23
gdb 38338	3.50768	1.34599	1.14162	0.2069	89.2	-0.2763	0.0873	0.3636	1169.394	0.209303	-351.119142	-351.111605	-351.110661	-351.15124	31.541	
C	-0.1079921644	 1.5542775848	 0.065002717	-0.230512
C	 1.4228524153	 1.2670479261	 0.0988882937	-0.095853
C	 1.0989829536	 0.1559169728	 1.1392188198	-0.230512
C	 0.0350735035	 0.0055943556	 0.011108357	-0.095849
C	 1.1920541041	 0.2023732942	-1.0301822377	 0.431535
C	 0.8430670616	 0.6865487447	-2.4660475302	-0.294909
C	 1.9063602892	 0.0664765078	-3.3880278652	-0.208836
C	 2.2053976476	-1.2811292775	-2.7214474127	-0.208837
C	 2.2363403627	-0.9333697545	-1.2237076837	-0.294904
H	-0.5373679469	 1.9642030236	 0.9833935453	 0.084125
H	-0.5139589162	 2.0557728268	-0.8141702522	 0.092153
H	 2.2321293517	 2.0001274789	 0.1478193037	 0.059889
H	 1.8263647224	-0.6467670722	 1.2651840746	 0.092152
H	 0.7235293393	 0.5001749812	 2.1068781265	 0.084123
H	-0.7721258303	-0.7294315852	-0.0426949437	 0.05989
H	-0.1501330442	 0.3163005953	-2.7507220514	 0.096893
H	 0.810207372	 1.7756007068	-2.5516736864	 0.096885
H	 1.5723672785	-0.0218869061	-4.4259508861	 0.090138
H	 2.8117136366	 0.6867928918	-3.3892131851	 0.094258
H	 1.3886387761	-1.9845055532	-2.927909806	 0.094258
H	 3.1312012653	-1.7475795994	-3.0706688666	 0.090137
H	 3.2352392439	-0.5683540204	-0.9525283891	 0.09689
H	 2.0379154585	-1.8054755019	-0.5956128715	 0.096884
56.853	191.0425	275.8808	279.5345	356.6588	418.3037	522.7689	561.9077	587.9518	694.7206	749.9796	799.7198	843.5085	849.9658	876.5769	898.5825	900.3433	924.7746	944.0351	973.9531	1007.3488	1011.9459	1017.4278	1040.2684	1051.3795	1057.2604	1102.462	1113.552	1145.9923	1162.323	1175.4356	1193.7369	1200.2791	1207.863	1243.4852	1251.484	1256.0342	1272.5409	1282.4008	1317.8278	1342.6459	1344.2702	1363.1953	1484.024	1486.6846	1493.1379	1506.8818	1510.818	1543.4352	3021.5087	3022.1609	3025.2342	3031.1597	3057.0141	3057.7416	3073.8383	3082.4717	3082.9463	3084.9415	3089.3998	3093.4	3128.33	3130.1207
C1C2CC1C21CCCC1	C1[C@H]2C[C@@H]1C12CCCC1	
InChI=1S/C9H14/c1-2-4-9(3-1)7-5-8(9)6-7/h7-8H,1-6H2	InChI=1S/C9H14/c1-2-4-9(3-1)7-5-8(9)6-7/h7-8H,1-6H2/t7-,8+
