19
gdb 22302	2.54005	1.27252	0.87703	3.1138	87.4	-0.187	-0.0032	0.1838	1307.0555	0.160955	-419.2007	-419.192073	-419.191128	-419.233675	33.908	
N	 0.0432769587	 1.387035782	-0.1451273256	-0.562973
C	-0.0197491881	 0.013221275	-0.0116685184	 0.33972
C	-1.1902942931	-0.6634629088	 0.0674914912	-0.247327
C	-1.2444185011	-2.1093964518	 0.061164469	 0.368421
C	 0.0447706071	-2.8603817869	-0.1806174546	-0.277791
C	 1.2225141677	-2.1304944396	 0.4757523243	-0.219748
C	 1.3166372325	-0.6897330344	-0.0408682554	-0.2831
N	-2.295675408	-2.8353543488	 0.2272514268	-0.244242
O	-3.4536821131	-2.0461964841	 0.4176727322	-0.407303
H	 0.858474682	 1.8410930784	 0.2386412589	 0.247309
H	-0.8129212119	 1.8926497254	 0.0297009045	 0.252383
H	-2.1290589464	-0.1255132154	 0.1242830073	 0.089724
H	-0.0570178072	-3.8831473477	 0.1895321564	 0.113725
H	 0.2237735353	-2.9249134542	-1.2634880371	 0.10734
H	 1.0815318065	-2.1176176992	 1.5629620759	 0.108889
H	 2.1608176289	-2.6590372659	 0.2792994364	 0.096221
H	 1.6970716409	-0.6784866467	-1.0721123477	 0.123886
H	 2.043212613	-0.1168834967	 0.5514318873	 0.095859
H	-4.1335753637	-2.7204543506	 0.5080001086	 0.29901
88.6912	170.2211	207.6264	236.9905	318.2137	372.7299	381.3163	394.3425	427.6121	459.6776	511.837	541.3569	592.5336	615.8611	670.8794	777.7333	861.5406	882.0368	894.5619	911.6606	970.2237	984.4421	1063.1372	1079.0407	1115.8222	1163.7909	1211.1199	1259.4876	1275.4978	1303.1706	1345.4522	1361.6218	1374.8604	1407.8076	1425.7796	1466.2654	1478.8512	1494.4837	1640.9734	1684.0833	1693.1541	3005.719	3007.5106	3028.2578	3042.9218	3081.6884	3102.5128	3199.7167	3562.7867	3669.9769	3833.7173
NC1=CC(CCC1)=NO	NC1=CC(=NO)CCC1	
InChI=1S/C6H10N2O/c7-5-2-1-3-6(4-5)8-9/h4,9H,1-3,7H2	InChI=1S/C6H10N2O/c7-5-2-1-3-6(4-5)8-9/h4,9H,1-3,7H2
