19
gdb 115760	2.23406	1.34422	0.95459	4.6767	76.36	-0.2497	0.0146	0.2643	1252.0849	0.159472	-419.189804	-419.180713	-419.179769	-419.224308	33.057	
O	 0.1069894696	 1.3449148539	-0.2166647556	-0.417813
C	 0.06095799	-0.0325528739	 0.0924523069	-0.083902
C	-1.3725053539	-0.550284314	 0.1167692772	 0.027002
C	-2.4190332224	 0.2214645824	 0.9603224119	-0.248868
C	-3.3363036161	 0.1521371761	-0.2812531625	-0.170701
N	-2.152141026	-0.1898008092	-1.1035254685	-0.096382
C	-2.3441769191	-1.1773611244	-2.1482912657	-0.293539
C	-1.1135344773	-1.4222078234	-2.909369687	 0.279597
N	-0.1435138682	-1.6272606527	-3.5020701385	-0.304345
H	-0.4399047526	 1.4488374633	-1.0067680419	 0.28323
H	 0.6545474203	-0.6261736189	-0.6201946506	 0.111365
H	 0.5115671454	-0.1573333603	 1.0838935454	 0.109082
H	-1.38799632	-1.6331348921	 0.3200115401	 0.06535
H	-2.7787155563	-0.2621804555	 1.8678181652	 0.110265
H	-2.0798168634	 1.2340507221	 1.1804017383	 0.133601
H	-4.060831792	-0.6745406942	-0.2170411092	 0.093798
H	-3.8607548241	 1.0591605872	-0.5971031879	 0.113883
H	-2.7052230081	-2.1494733073	-1.7615013314	 0.129994
H	-3.1077077561	-0.809875909	-2.8445237364	 0.158386
57.3461	82.4927	137.0225	168.2823	234.5119	263.2073	336.8923	376.8849	388.7315	465.7518	499.1567	650.4909	680.8933	762.8225	820.1431	898.3118	939.1114	957.3247	981.9851	995.5221	1019.5105	1084.9181	1119.8775	1123.0742	1165.7457	1199.5924	1214.0319	1220.4689	1257.5589	1269.3042	1297.7834	1328.6067	1350.1104	1390.7317	1399.8193	1435.9443	1471.1106	1485.0489	1500.2432	1520.326	2365.6524	2926.4429	2972.6625	2983.6409	2993.7191	3056.1048	3065.7529	3071.6378	3097.0596	3157.623	3759.2481
OCC1CCN1CC#N	OC[C@H]1CCN1CC#N	
InChI=1S/C6H10N2O/c7-2-4-8-3-1-6(8)5-9/h6,9H,1,3-5H2	InChI=1S/C6H10N2O/c7-2-4-8-3-1-6(8)5-9/h6,9H,1,3-5H2/t6-/m1/s1
