18
gdb 67163	2.78799	1.55904	1.48773	2.5803	75.18	-0.2324	-0.0158	0.2166	988.1181	0.148517	-401.93736	-401.929924	-401.92898	-401.969022	29.585	
C	-0.0491107354	 1.5197676965	-0.0765177365	-0.514198
C	 0.0505015659	 0.0292755509	-0.0001725805	 0.329713
C	 0.542429722	-1.0243401083	-0.9447516954	-0.089409
C	 1.2725712489	-1.7564830027	 0.1847216207	-0.25881
C	 0.5015749045	-0.8471230135	 1.2115117911	-0.214212
C	-0.7497574239	-1.6158950123	 1.5975917051	 0.414018
O	-1.0702485833	-2.036065292	 2.677191289	-0.323839
C	-1.5308427175	-1.7648460059	 0.2754822352	-0.28443
N	-0.8998981302	-0.8544846894	-0.6835861562	-0.139376
H	 0.9114102135	 1.9934744535	 0.1518038984	 0.123468
H	-0.3562865591	 1.8215025037	-1.0814785193	 0.137948
H	-0.7899493724	 1.9039408866	 0.6341834511	 0.127831
H	 0.8647010982	-0.9473751945	-1.9774309266	 0.096325
H	 1.1511321336	-2.8412972942	 0.2744371429	 0.109126
H	 2.3382717142	-1.5179176056	 0.1864412406	 0.121151
H	 1.064451405	-0.4255542677	 2.0404081946	 0.092307
H	-1.5226904062	-2.8044327523	-0.0685345033	 0.134524
H	-2.5761045378	-1.4752346028	 0.4229926191	 0.137862
110.6784	192.7126	224.0972	285.9243	308.4053	428.6947	468.7489	532.7073	588.9855	637.8682	716.8363	737.8752	770.8863	800.7051	866.5923	912.2892	949.0087	958.6091	974.5401	1014.5696	1046.1406	1076.6257	1119.8491	1136.8612	1150.1748	1170.3877	1205.8179	1212.9319	1236.1555	1274.5515	1277.2976	1297.3431	1403.1433	1445.3757	1460.9793	1483.0178	1491.6801	1496.0582	1853.6064	3031.0452	3044.9306	3053.039	3092.1238	3094.0327	3110.9169	3119.3293	3154.534	3172.7313
CC12C3CC1C(=O)CN23	C[C@@]12[C@H]3C[C@@H]1C(=O)CN23	
InChI=1S/C7H9NO/c1-7-4-2-6(7)8(7)3-5(4)9/h4,6H,2-3H2,1H3	InChI=1S/C7H9NO/c1-7-4-2-6(7)8(7)3-5(4)9/h4,6H,2-3H2,1H3/t4-,6-,7+,8?/m1/s1
