23
gdb 122371	5.0561	0.64418	0.63545	1.3773	87.19	-0.2621	0.0808	0.3428	1843.8649	0.206543	-388.232658	-388.22342	-388.222476	-388.267734	34.758	
O	-0.1018724076	 1.4802713332	 0.1281136064	-0.422249
C	 0.029427115	 0.071509157	 0.250054416	-0.075193
C	-1.3500341079	-0.5484001517	 0.0738038182	-0.157042
C	-1.3389455523	-2.0778731081	 0.1907662815	-0.260543
C	-2.735122998	-2.6768179665	 0.0730400489	 0.078783
C	-3.4772793277	-2.8176770831	-1.3002335149	-0.045128
C	-2.5524520312	-4.026677074	-1.629586567	-0.221369
C	-2.9700842049	-4.2083590831	-0.1398652151	-0.066095
C	-4.4130218359	-3.8382596789	-0.5898040754	-0.216726
H	 0.7685229086	 1.8738121608	 0.2374061474	 0.284113
H	 0.7186029615	-0.3314408895	-0.5107461538	 0.082039
H	 0.4380557427	-0.2068457449	 1.2359065272	 0.08178
H	-2.0218144365	-0.1159803478	 0.825720924	 0.103581
H	-1.7439486169	-0.247015887	-0.9042570438	 0.106967
H	-0.659722868	-2.4946170014	-0.5609798752	 0.095363
H	-0.9216811774	-2.3638184416	 1.166798931	 0.093156
H	-3.3742167568	-2.2521112721	 0.8581734255	 0.057907
H	-3.7774599009	-2.0142465209	-1.9753413501	 0.067126
H	-2.954479491	-4.7602978896	-2.3341041681	 0.08712
H	-1.5024003036	-3.8241781093	-1.8447504186	 0.090397
H	-2.6785920146	-5.0173728026	 0.5330181315	 0.063464
H	-5.0825568188	-3.4416058474	 0.1788931999	 0.086309
H	-4.9225624278	-4.5604425313	-1.2333376752	 0.086242
53.1398	75.356	99.7902	133.3723	260.0421	264.8976	298.4249	345.0487	472.2107	562.3876	596.0365	740.0691	774.3343	792.8148	824.5819	882.7603	898.435	904.2699	905.6226	1007.1748	1009.9396	1022.3476	1029.388	1042.495	1057.2714	1076.0481	1099.2136	1113.0898	1138.7404	1150.478	1163.6744	1189.9214	1211.3311	1215.8153	1227.4995	1250.0911	1254.6783	1271.929	1302.717	1309.3952	1319.4041	1378.1942	1430.6922	1462.6684	1484.7041	1499.1184	1507.3509	1528.1803	1542.0933	2954.8499	2979.1675	3008.1405	3015.2369	3031.0512	3045.8892	3053.6962	3061.6159	3079.5738	3088.8565	3096.8125	3111.6009	3125.4011	3830.6885
OCCCC1C2CC1C2	OCCC[C@H]1[C@H]2C[C@@H]1C2	
InChI=1S/C8H14O/c9-3-1-2-8-6-4-7(8)5-6/h6-9H,1-5H2	InChI=1S/C8H14O/c9-3-1-2-8-6-4-7(8)5-6/h6-9H,1-5H2/t6-,7+,8-
