15
gdb 35494	3.35143	1.57308	1.49538	4.1636	67.12	-0.2572	0.0094	0.2666	905.5735	0.11479	-416.759403	-416.752856	-416.751911	-416.790445	25.713	
N	-0.1346348263	-1.1813618828	-0.3041684728	-0.329979
C	-0.0822659627	-0.0399074405	-0.1338364417	 0.302096
C	-0.0277908783	 1.4230261806	 0.0497799231	-0.06902
O	-0.6307961398	 1.8174898729	 1.2831627458	-0.254642
C	 0.4358693516	 2.231260073	 2.1365880023	 0.058125
C	 1.476239906	 1.1043605193	 2.3252767221	-0.188592
N	 2.3164624749	 1.645368061	 1.1949056578	-0.149
C	 1.4888177788	 2.908992941	 1.232206217	-0.064048
C	 1.392214949	 1.9963660457	 0.0830900129	-0.048967
H	-0.5914328618	 1.877004101	-0.7748434188	 0.140205
H	 0.0084476531	 2.7367126785	 3.0000185835	 0.102293
H	 2.0521746	 1.2054180932	 3.2476951236	 0.124151
H	 1.1318084911	 0.073124449	 2.2126584726	 0.1389
H	 1.9012686498	 3.9095442911	 1.2488830945	 0.111849
H	 1.8954207747	 2.1896289769	-0.8563101819	 0.126629
115.8198	154.1598	299.7803	387.4474	445.0802	512.716	587.0917	657.785	698.6699	778.0764	812.2781	843.4241	864.6858	910.9845	917.2751	966.8066	988.7939	1002.4005	1033.4177	1050.7082	1079.0408	1118.3688	1179.3888	1191.3803	1233.9668	1267.9874	1287.7343	1301.1028	1337.7688	1348.6238	1379.5889	1500.3694	2358.4146	3035.9258	3067.4898	3126.6614	3146.9094	3193.7382	3205.0101
N#CC1OC2CN3C2C13	N#C[C@H]1O[C@H]2CN3[C@H]2[C@H]13	
InChI=1S/C6H6N2O/c7-1-3-5-6-4(9-3)2-8(5)6/h3-6H,2H2	InChI=1S/C6H6N2O/c7-1-3-5-6-4(9-3)2-8(5)6/h3-6H,2H2/t3-,4+,5+,6-,8?/m1/s1
