16
gdb 7813	3.30929	1.76295	1.22001	2.8627	61.09	-0.2387	-0.0242	0.2144	948.6838	0.130537	-420.890216	-420.882716	-420.881772	-420.922094	28.007	
O	-0.0874542659	 1.4410597424	 0.0585173359	-0.423002
C	 0.066011136	 0.0312847349	 0.0129854773	 0.084092
C	 0.7289346644	-0.5094288526	 1.2849053912	-0.104113
O	 0.8271314529	-1.920872532	 1.2337432466	-0.239715
C	-0.4366219509	-2.5594968414	 1.2442983089	-0.173108
C	-1.3690769988	-2.0694200173	 0.1333068323	 0.366824
O	-2.1121217983	-2.8221613145	-0.448082652	-0.297672
C	-1.3329326979	-0.5710632637	-0.1323137395	-0.307639
H	 0.783283705	 1.8443549781	-0.0192030716	 0.288759
H	 0.6818473674	-0.2725255366	-0.8473385239	 0.08696
H	 1.7521686403	-0.1324387446	 1.3824859961	 0.104253
H	 0.1543708556	-0.1761505487	 2.1656880849	 0.096583
H	-0.2670851187	-3.6303427366	 1.1195089454	 0.138166
H	-0.9490372931	-2.398511874	 2.2111215128	 0.110192
H	-1.9711940643	-0.0953899915	 0.6273812688	 0.137322
H	-1.7759603438	-0.3624943619	-1.1083390733	 0.132098
91.2302	137.1461	283.3944	288.049	311.4527	399.7929	409.2539	447.6918	489.2376	520.8135	637.8128	810.1949	839.4133	920.5602	946.2162	968.8912	1083.9364	1094.5335	1114.126	1133.9477	1175.3143	1216.4337	1250.5694	1282.047	1298.7287	1307.6682	1341.213	1364.7609	1400.239	1433.4766	1460.71	1466.5949	1498.3443	1825.7443	2940.7213	2969.5327	2990.3845	3017.8325	3077.3486	3115.1747	3122.7058	3815.8767
OC1COCC(=O)C1	O[C@H]1COCC(=O)C1	
InChI=1S/C5H8O3/c6-4-1-5(7)3-8-2-4/h4,6H,1-3H2	InChI=1S/C5H8O3/c6-4-1-5(7)3-8-2-4/h4,6H,1-3H2/t4-/m1/s1
