17
gdb 33983	2.32468	1.75026	1.21697	4.5018	77.81	-0.2537	-0.0046	0.2491	1046.4021	0.136501	-380.82023	-380.812486	-380.811541	-380.852438	29.978	
N	 0.1205692923	-1.1550010667	 0.0426104157	-0.345083
C	 0.0617384053	 0.0003648029	 0.0148948398	 0.216313
C	-0.0779953571	 1.4247856617	 0.0058416142	 0.127746
C	 0.2127072998	 2.2761133731	-1.1773753243	-0.270674
N	 1.1070212486	 2.3968927666	-0.0215492665	-0.151967
C	 0.3726660638	 3.2450758753	 0.9932971689	-0.24586
C	-0.7764662904	 2.235906404	 1.0799940637	 0.302658
C	-2.2492592019	 2.4285956503	 1.2860600584	-0.328126
C	-1.418740376	 1.6943183704	 2.3163825134	-0.333468
H	 0.6846198438	 1.8006719693	-2.0311170792	 0.146511
H	-0.4758952228	 3.0851283665	-1.4127721443	 0.125723
H	 0.9669659983	 3.3220465419	 1.9059855557	 0.128259
H	 0.1379759446	 4.2478266118	 0.6213584978	 0.115218
H	-2.5977205726	 3.4278131417	 1.5261842464	 0.121866
H	-2.9328548002	 1.8494429697	 0.6739882791	 0.127027
H	-1.5376861622	 0.6183534824	 2.3934042179	 0.140895
H	-1.2046723234	 2.1911687691	 3.2571410534	 0.122961
107.4594	136.1493	181.1798	274.5083	295.6379	423.3289	453.2859	496.5897	555.0094	583.5549	622.0798	765.6826	776.186	843.6087	857.5626	880.3697	912.8703	954.4919	991.8669	1002.1705	1057.9339	1081.3648	1089.7378	1125.0747	1133.8195	1164.8382	1187.9946	1196.3541	1274.8542	1286.2452	1331.1071	1399.1282	1462.3975	1488.0338	1503.6982	1507.6379	2346.9678	3048.7154	3106.184	3113.9308	3127.7956	3130.6507	3207.9879	3208.9636	3221.9449
N#CC12CN1CC21CC1	N#C[C@]12CN1CC12CC1	
InChI=1S/C7H8N2/c8-3-7-5-9(7)4-6(7)1-2-6/h1-2,4-5H2	InChI=1S/C7H8N2/c8-3-7-5-9(7)4-6(7)1-2-6/h1-2,4-5H2/t7-,9?/m1/s1
