16
gdb 45815	2.62914	1.90981	1.26555	2.7647	72.82	-0.2417	-0.0225	0.2192	970.8712	0.12771	-434.061855	-434.054761	-434.053817	-434.093721	27.178	
N	-0.0831713439	 1.2964380399	 0.2174417398	-0.511748
C	 0.0049987139	 0.0396399611	 0.0377666257	 0.384347
N	 1.1783293645	-0.6997250265	-0.0700896372	-0.353413
C	 1.2201145215	-2.0056580954	-0.5455401298	 0.089193
N	 0.23820285	-2.7344337384	-0.8854641837	-0.245248
C	-1.0978091021	-2.2036793998	-0.7229359424	-0.054921
C	-1.7731912335	-2.6986754924	 0.5770839619	-0.07433
O	-1.6097019132	-1.4022544266	 1.1961873864	-0.288362
C	-1.2438713	-0.7995999185	-0.0667905895	 0.063936
H	 0.8370501551	 1.7399402783	 0.2844902718	 0.205183
H	 2.0547524021	-0.2136176343	 0.0462301038	 0.25018
H	 2.2329552766	-2.3989761427	-0.6279988755	 0.123598
H	-1.6622833981	-2.3656007056	-1.6438009244	 0.095826
H	-2.8317045708	-2.9688451686	 0.4717812432	 0.103386
H	-1.2366162415	-3.4883514229	 1.1109129295	 0.116734
H	-2.0511075506	-0.1740069375	-0.4609698895	 0.095638
86.3047	120.0468	238.5132	322.9493	415.6585	490.6137	506.4831	542.4949	586.0736	684.4803	780.0883	824.8337	856.9502	884.4915	914.0461	954.7175	984.5916	998.6228	1028.9649	1051.1787	1093.3665	1120.1058	1163.3237	1183.1553	1236.9183	1264.3574	1322.9571	1334.3543	1345.5507	1388.2599	1436.5779	1466.9095	1517.5818	1733.5131	1745.8966	3018.5328	3058.8358	3082.6874	3092.3556	3137.7019	3427.9116	3615.3971
N=C1NC=NC2COC12	[NH][C]1NC=N[C@H]2CO[C@@H]12	
InChI=1S/C5H7N3O/c6-5-4-3(1-9-4)7-2-8-5/h2-4H,1H2,(H2,6,7,8)	InChI=1S/C5H7N3O/c6-5-4-3(1-9-4)7-2-8-5/h2-4H,1H2,(H2,6,7,8)/t3-,4+/m0/s1
