20
gdb 107975	2.74167	1.37224	1.31748	1.038	79.18	-0.2309	0.0674	0.2983	1119.8288	0.169401	-403.050945	-403.042218	-403.041273	-403.084181	33.435	
C	-0.0490408474	 1.5499391166	 0.083027145	-0.380626
C	-0.0775922116	 0.0173953782	 0.0318347411	-0.335218
C	-1.4656856026	-0.5363438241	 0.0016520982	 0.476717
O	-2.3884423945	-0.2554567989	 1.106807726	-0.367353
C	-3.1817794902	-1.0753365718	 0.2033976445	 0.031124
C	-2.5751560413	-0.4717261176	-1.096667338	-0.128107
N	-2.1404289577	-1.7802392397	-1.6852536234	-0.381838
C	-1.985881482	-2.0053508512	-0.2052199538	 0.239976
C	-1.5039055894	-3.2776516878	 0.4181858188	-0.534852
H	 0.9789943381	 1.9180273254	 0.14513681	 0.112746
H	-0.5084110095	 1.9820248471	-0.8117356396	 0.118831
H	-0.599399886	 1.9174520802	 0.953342891	 0.138462
H	 0.4426133312	-0.3525174652	-0.8597792723	 0.123639
H	 0.4442795503	-0.3982080904	 0.9028504783	 0.110818
H	-4.2134061186	-1.3081789028	 0.4739583479	 0.087922
H	-2.9114576991	 0.3791429849	-1.6896089346	 0.086477
H	-2.9529490483	-2.2946201482	-2.0363645466	 0.206522
H	-0.524379859	-3.5593361001	 0.0192945902	 0.134033
H	-1.4176753258	-3.1471911704	 1.5016747231	 0.138102
H	-2.1983045467	-4.1033649443	 0.2281501242	 0.122623
83.6258	130.869	175.1752	214.0139	234.4949	251.5778	285.9434	410.763	518.7919	540.8314	640.2656	701.4782	735.6117	774.8344	784.0629	822.1368	837.245	869.7871	919.3431	951.1607	969.5719	992.5338	1050.2692	1080.1908	1102.3995	1123.2089	1139.8114	1143.8961	1202.9973	1220.2983	1264.195	1278.8668	1302.1998	1330.6086	1353.1217	1399.9694	1409.9929	1427.4137	1469.7165	1482.8461	1490.2783	1495.9504	1507.3282	3029.7897	3032.6374	3042.344	3069.6003	3099.1212	3100.4834	3110.6834	3111.9543	3121.0595	3122.6529	3398.5899
CCC12OC3C1NC23C	CC[C@@]12O[C@H]3[C@@H]1N[C@@]23C	
InChI=1S/C7H11NO/c1-3-7-4-5(9-7)6(7,2)8-4/h4-5,8H,3H2,1-2H3	InChI=1S/C7H11NO/c1-3-7-4-5(9-7)6(7,2)8-4/h4-5,8H,3H2,1-2H3/t4-,5-,6+,7+/m0/s1
