16
gdb 57135	2.88208	0.88665	0.73348	5.3525	82.53	-0.2791	-0.0418	0.2373	1506.6639	0.122907	-400.713346	-400.704195	-400.70325	-400.748217	32.064	
C	-0.1741624217	 1.5326057962	 0.1566325111	-0.389356
C	 0.0458381916	 0.0084408715	 0.0169838464	-0.229748
C	 0.759018468	-0.5217514235	 1.1715354207	 0.154034
C	 1.3689584848	-0.9401330689	 2.1272117944	 0.000263
C	 2.059253004	-1.415524794	 3.2050632209	 0.207334
N	 2.6488652847	-1.8215802362	 4.1200357789	-0.335995
C	-1.2898996181	-0.6928381488	-0.2276346837	 0.10225
C	-1.6507230046	-2.0064364712	 0.313357627	-0.18936
O	-2.1740446807	-0.7976112955	 0.8790091361	-0.226287
H	 0.7753469364	 2.0529270719	 0.2992155198	 0.136718
H	-0.6522107608	 1.9215716903	-0.747167237	 0.126858
H	-0.8219777558	 1.7402114158	 1.011319922	 0.154676
H	 0.6696808312	-0.1738794561	-0.8704035493	 0.128425
H	-1.7648882504	-0.3690635722	-1.1559426215	 0.103069
H	-2.3734934124	-2.6228033075	-0.2181974201	 0.123605
H	-0.9437782762	-2.5419828316	 0.9425805742	 0.133514
63.3877	75.8855	108.7244	196.0119	222.1393	237.326	249.3199	365.6813	418.3802	527.6419	557.9441	577.3133	598.6552	705.9585	792.676	868.332	935.0996	987.0367	1013.2923	1068.883	1084.575	1113.4701	1162.7517	1170.6016	1197.6267	1290.4745	1295.7231	1346.4407	1402.8478	1428.776	1491.2485	1501.1141	1525.4192	2264.2364	2400.2783	3006.9413	3050.3105	3090.9281	3098.8026	3126.6673	3141.1402	3189.8391
CC(C#CC#N)C1CO1	C[C@@H](C#CC#N)[C@H]1CO1	
InChI=1S/C7H7NO/c1-6(3-2-4-8)7-5-9-7/h6-7H,5H2,1H3	InChI=1S/C7H7NO/c1-6(3-2-4-8)7-5-9-7/h6-7H,5H2,1H3/t6-,7+/m0/s1
