17
gdb 57107	2.53798	1.41618	1.20522	2.3206	67.77	-0.2668	0.028	0.2947	1090.1624	0.137184	-455.146751	-455.138075	-455.137131	-455.180708	31.011	
N	 1.1697920101	 1.3294629179	-0.3594069051	-0.506708
C	 0.1080939199	 0.5053970287	 0.2062393078	-0.155884
C	-0.2624075069	-0.6604165896	-0.6258794438	 0.276777
N	-0.5146082526	-1.5531654001	-1.315944708	-0.338523
C	 0.5527388452	 0.0382067561	 1.6069750572	 0.232375
O	-0.481092283	-0.6997580323	 2.2062396829	-0.264973
C	 0.1057296495	-1.8490315325	 2.8124412145	-0.090578
C	 1.3236065659	-2.1066113006	 1.9285482118	-0.106793
O	 1.7005530325	-0.7848672938	 1.5298940184	-0.277678
H	 2.0071765536	 0.762382139	-0.4609160654	 0.252233
H	 0.9122462628	 1.6576705305	-1.2841690896	 0.247253
H	-0.7882754097	 1.121277723	 0.3407865058	 0.13883
H	 0.8142627697	 0.932719212	 2.191108885	 0.10112
H	 0.3966556829	-1.6336963446	 3.8499371848	 0.108481
H	-0.629935238	-2.6554941039	 2.8002983557	 0.13046
H	 2.1658793764	-2.5573279713	 2.4586519787	 0.11982
H	 1.0673671417	-2.7157384285	 1.0544285093	 0.133788
69.6848	81.4241	144.7376	176.5509	237.4019	267.1906	318.6879	385.9699	411.3086	596.0327	658.6377	697.3366	751.395	802.4034	880.6567	902.9615	955.517	969.5466	1008.4142	1040.7869	1060.8701	1121.8365	1150.9997	1180.1639	1191.1124	1230.4016	1248.4826	1320.2231	1324.9958	1373.7192	1386.6619	1393.9447	1406.39	1512.8875	1521.4777	1655.9381	2346.7323	3003.5343	3011.9053	3043.8974	3059.2228	3107.3173	3118.8643	3502.1178	3586.382
NC(C#N)C1OCCO1	N[C@@H](C#N)C1OCCO1	
InChI=1S/C5H8N2O2/c6-3-4(7)5-8-1-2-9-5/h4-5H,1-2,7H2	InChI=1S/C5H8N2O2/c6-3-4(7)5-8-1-2-9-5/h4-5H,1-2,7H2/t4-/m0/s1
