18
gdb 66606	4.17916	1.63916	1.51825	1.6998	78.84	-0.2125	0.0087	0.2212	924.1626	0.149812	-364.74917	-364.742575	-364.741631	-364.779677	27.711	
C	-0.0237766485	 1.5031675379	 0.0364599422	-0.522695
C	 0.0532924614	 0.0168952654	 0.0253606587	 0.370615
C	 0.971679137	-1.0048422504	-0.5659321978	-0.149081
C	 0.6087435791	-1.034804088	 0.9322348352	-0.149076
C	-0.7631073544	-1.7608104225	 0.9439953941	-0.043296
C	-0.7349945911	-3.1807633198	 0.458541062	-0.080537
C	-0.4202232395	-3.1547624131	-0.8409067228	-0.080534
C	-0.2361248582	-1.7172861747	-1.2313966859	-0.043294
N	-1.1303735028	-0.9289198058	-0.2802905691	-0.202503
H	 0.9523632085	 1.9350531327	 0.2807619769	 0.123091
H	-0.3316059483	 1.8899375792	-0.9412417978	 0.127909
H	-0.7471765916	 1.8555995683	 0.7799226841	 0.12789
H	 1.9957663251	-0.9038054188	-0.9044634332	 0.085494
H	 1.3635443271	-0.955991407	 1.7053000328	 0.085494
H	-1.3883981299	-1.5367650612	 1.8093639758	 0.073835
H	-0.8696195847	-4.0533487812	 1.0852656869	 0.101425
H	-0.2452290675	-4.0017735429	-1.4922605757	 0.101425
H	-0.3982945316	-1.4549785282	-2.2777919365	 0.073836
197.4856	203.5378	235.6506	404.6682	426.4384	558.7158	583.0283	710.537	735.7131	737.553	782.0784	833.1216	850.5769	876.5473	882.8429	895.3279	924.9225	941.6187	949.3838	980.1616	1010.4206	1032.3921	1036.6138	1042.5161	1118.0158	1130.8166	1156.5966	1174.3033	1201.0568	1223.1724	1245.8684	1295.1813	1307.1865	1362.363	1405.2473	1475.9608	1477.615	1497.7987	1644.2956	3026.7845	3089.8933	3098.6007	3100.4495	3101.3405	3180.5849	3190.4281	3199.95	3224.6194
CC12C3C1C1C=CC3N21	C[C@@]12[C@H]3[C@@H]1[C@@H]1C=C[C@H]3N21	
InChI=1S/C8H9N/c1-8-6-4-2-3-5(7(6)8)9(4)8/h2-7H,1H3	InChI=1S/C8H9N/c1-8-6-4-2-3-5(7(6)8)9(4)8/h2-7H,1H3/t4-,5+,6-,7+,8-
