16
gdb 41391	2.74143	2.04991	1.36602	3.6929	68.59	-0.2437	-0.0054	0.2383	920.2395	0.126256	-437.828876	-437.82219	-437.821246	-437.859978	26.233	
C	 0.023596208	 1.5810215707	 0.1645321312	-0.08018
O	 1.3587425167	 1.5712353016	-0.4005167166	-0.310683
C	 1.3013408808	 0.1588585092	-0.6110240846	 0.303246
C	 2.2051559586	-0.4015146972	-1.7412568489	-0.183822
O	 3.038281811	-1.1007341702	-0.7247318372	-0.273925
C	 2.0923234232	-0.7916249666	 0.2166623333	 0.39415
N	 1.6145544862	-1.3575162778	 1.2357778314	-0.307723
C	 0.2479036877	-0.7659145946	 1.3703764169	-0.172844
C	-0.0944321369	 0.0480714164	 0.0595541609	-0.208617
H	 0.0097874675	 1.9931180765	 1.1789942794	 0.114973
H	-0.6632073459	 2.149808209	-0.4720650348	 0.111173
H	 1.7705107814	-1.1267904154	-2.4314830559	 0.135722
H	 2.7808362035	 0.3673952389	-2.2588795519	 0.143853
H	-0.4478510503	-1.5974714314	 1.514286851	 0.121484
H	 0.1807786241	-0.1317142812	 2.2621449177	 0.117175
H	-0.9576967957	-0.3427075378	-0.4773057118	 0.096018
116.1386	235.0122	254.9069	277.7533	379.2955	489.0867	619.7323	653.7815	668.6017	775.3466	808.5167	845.98	869.7407	906.1929	927.0777	975.5044	995.0578	1008.9367	1035.6489	1101.5519	1120.3648	1160.9349	1164.9363	1168.9671	1209.2105	1218.4078	1238.394	1301.3812	1317.6874	1350.0969	1360.672	1480.9585	1495.707	1523.0627	1773.3383	3031.5418	3039.8263	3076.3636	3081.8865	3084.7515	3124.4426	3153.2511
C1OC23COC2=NCC13	C1O[C@@]23CO[C]2[N]C[C@@H]13	
InChI=1S/C6H7NO2/c1-4-2-9-6(4)3-8-5(6)7-1/h4H,1-3H2	InChI=1S/C6H7NO2/c1-4-2-9-6(4)3-8-5(6)7-1/h4H,1-3H2/t4-,6+/m0/s1
