16
gdb 127828	4.59034	1.07116	0.87452	3.3662	75.31	-0.2204	-0.0138	0.2067	1281.8615	0.126514	-430.275738	-430.267431	-430.266487	-430.308948	30.387	
C	-0.0801104009	 1.4112721043	-0.0003630374	-0.337227
N	-0.1080374011	-0.037567577	 0.0099182749	-0.272192
C	 0.5480688688	-0.6369873074	-0.9078235139	 0.271712
N	 1.3070701282	-0.0597992618	-1.9058697747	-0.567348
C	 0.575979353	-2.1178960805	-0.9496550016	 0.351163
N	 0.05019943	-2.9025234472	-0.0188730152	-0.257438
N	 0.319072762	-4.1331131878	-0.5031253966	-0.171659
C	 0.9807602833	-4.0538764572	-1.6746560746	 0.011581
N	 1.1630528466	-2.7895000273	-1.9911033413	-0.323453
H	 0.9445717483	 1.8137276345	 0.0499404958	 0.111803
H	-0.5508886503	 1.8363100761	-0.9040507266	 0.101127
H	-0.6341188587	 1.7931246848	 0.8608276747	 0.122515
H	 1.0988558258	 0.8913287777	-2.1594851027	 0.252708
H	 1.583353945	-0.6723664334	-2.6584718085	 0.266933
H	 0.0253637054	-4.9461685249	 0.0138242377	 0.287782
H	 1.2976243547	-4.916209243	-2.2413699401	 0.151994
70.1014	144.9937	149.1461	175.5394	301.5567	318.0824	400.9478	412.744	492.6038	543.6408	573.4107	679.5759	685.3534	751.1036	814.0556	849.0204	968.9824	1000.4716	1014.168	1100.5051	1106.8587	1113.5964	1172.1368	1200.8712	1257.2385	1320.2492	1353.4271	1431.2977	1470.4772	1483.2295	1502.9713	1506.4834	1557.5136	1626.5726	1730.6665	2948.2917	2996.455	3097.826	3260.9757	3582.9201	3660.3661	3706.8699
CN=C(N)C1=NNC=N1	CN=C(N)c1n[nH]cn1	
InChI=1S/C4H7N5/c1-6-3(5)4-7-2-8-9-4/h2H,1H3,(H2,5,6)(H,7,8,9)	InChI=1S/C4H7N5/c1-6-3(5)4-7-2-8-9-4/h2H,1H3,(H2,5,6)(H,7,8,9)
