18
gdb 52179	6.43767	0.61487	0.58509	1.8234	75.03	-0.2428	-0.034	0.2087	1802.4903	0.144705	-439.07725	-439.067976	-439.067032	-439.112923	32.329	
O	-0.6230508707	 0.7157850982	 0.7024666615	-0.230442
C	 0.0725231455	 0.9825994186	-0.2422671255	 0.156747
C	 1.3100022382	 1.849809925	-0.1910869876	-0.275208
C	 1.2269447401	 3.0249497248	-1.1754238319	-0.157781
N	 2.4857571939	 3.740825794	-1.2494840275	-0.085911
C	 2.8794912638	 4.5735335919	-0.0841247277	-0.292926
C	 3.2502700775	 5.6845996406	-1.0778685286	 0.395147
O	 3.8373661417	 6.7202235412	-1.0144335964	-0.274105
C	 2.5611367487	 4.8834530043	-2.1924021937	-0.289309
H	-0.1662502426	 0.586768369	-1.2582242747	 0.073583
H	 1.454153693	 2.1931871146	 0.8372344469	 0.1254
H	 2.1727056702	 1.2317470317	-0.4753113888	 0.132709
H	 0.9967669942	 2.6441476709	-2.178278051	 0.113254
H	 0.3894004311	 3.6905279506	-0.8853685694	 0.092817
H	 2.0391421486	 4.8805938818	 0.5611997173	 0.121849
H	 3.6796269328	 4.1669720813	 0.5420512263	 0.137883
H	 3.1273816064	 4.6989550437	-3.1110734148	 0.13645
H	 1.5852490674	 5.3253373077	-2.4544521543	 0.119844
45.8063	66.5692	86.7954	104.4923	183.2788	277.948	331.8125	358.1753	431.1209	484.4026	535.8829	664.0624	764.7974	771.5122	786.9268	864.6662	949.0385	1005.5015	1017.1675	1055.6866	1077.1369	1093.1217	1105.2987	1148.8101	1164.0747	1209.5923	1232.19	1249.3166	1289.9099	1301.6805	1326.3623	1404.2662	1429.3696	1457.1373	1466.1424	1479.6215	1504.8428	1838.9074	1924.6797	2849.1303	2904.6953	2969.7566	2979.241	3027.3944	3043.3276	3074.0595	3078.5562	3104.0097
O=CCCN1CC(=O)C1	O=CCCN1CC(=O)C1	
InChI=1S/C6H9NO2/c8-3-1-2-7-4-6(9)5-7/h3H,1-2,4-5H2	InChI=1S/C6H9NO2/c8-3-1-2-7-4-6(9)5-7/h3H,1-2,4-5H2
