23
gdb 60251	2.89127	0.96164	0.78459	2.4744	82.62	-0.2442	0.0619	0.306	1541.0167	0.203606	-425.410243	-425.399643	-425.398699	-425.446999	38.247	
C	-0.0830263411	 1.5380090445	 0.1104617455	-0.389832
C	-0.012786411	 0.0048315742	 0.0813477595	 0.030256
C	 0.8497050853	-0.5195319992	 1.2390369918	-0.380885
C	-1.4318491384	-0.5951844831	 0.0797964294	-0.174349
C	-1.4956965935	-2.0790734034	-0.2475429097	 0.107764
O	-1.0319366642	-2.9552963828	 0.8162853494	-0.28563
C	-2.3233426592	-3.5769652237	 0.9519668911	-0.097847
C	-2.8922546727	-2.7508003677	-0.2228272769	 0.041884
O	-3.9388962103	-1.8531154963	 0.0600877532	-0.420861
H	 0.9190598603	 1.9792400412	 0.0870912976	 0.106808
H	-0.6451504852	 1.9323293857	-0.7429579404	 0.105387
H	-0.5770890341	 1.8887332911	 1.0246010641	 0.11151
H	 0.4706776047	-0.2891013559	-0.8627352981	 0.065721
H	 0.9269637978	-1.6082218214	 1.2280130752	 0.138866
H	 1.8585927271	-0.0952051691	 1.1921549583	 0.098731
H	 0.4132936705	-0.2324131542	 2.2034876912	 0.106013
H	-1.9208082857	-0.4165927675	 1.044459616	 0.102869
H	-2.0419602224	-0.0782888564	-0.6724639735	 0.10013
H	-0.9322036547	-2.2814923703	-1.1695107445	 0.071722
H	-2.2746736074	-4.6642486265	 0.8130286544	 0.095812
H	-2.7981865034	-3.3501743546	 1.9154772264	 0.100817
H	-3.1091248866	-3.3440846195	-1.1197352314	 0.075756
H	-4.770298596	-2.336288035	 0.0379529414	 0.289358
34.6571	50.8443	101.3128	131.326	222.6675	223.9369	240.3589	257.4263	300.407	369.3879	411.3167	421.9358	472.0192	544.696	761.2037	817.0714	850.7746	882.6929	898.5369	931.9137	953.8445	967.924	983.1483	1027.2777	1063.0924	1093.1537	1126.8987	1136.6948	1159.6408	1188.243	1196.8614	1213.6399	1251.1197	1278.7863	1306.1204	1313.5226	1351.0734	1368.4427	1371.4435	1400.9312	1403.7827	1425.6726	1438.3649	1464.5659	1486.9773	1493.449	1503.9054	1510.0262	1514.4625	2985.4899	2997.3746	3006.9004	3020.9202	3023.6042	3025.7278	3030.6626	3057.7751	3073.0931	3084.3649	3091.0482	3095.8926	3134.6029	3827.5161
CC(C)CC1OCC1O	CC(C)C[C@H]1OC[C@H]1O	
InChI=1S/C7H14O2/c1-5(2)3-7-6(8)4-9-7/h5-8H,3-4H2,1-2H3	InChI=1S/C7H14O2/c1-5(2)3-7-6(8)4-9-7/h5-8H,3-4H2,1-2H3/t6-,7-/m1/s1
