25
gdb 103637	2.11694	1.21462	1.13201	1.2551	88.3	-0.2483	0.0733	0.3216	1331.0814	0.226733	-389.493877	-389.483054	-389.482109	-389.528944	41.285	
C	-0.0353871855	 1.4585072112	-0.5432345378	-0.413086
C	-0.1334633297	-0.0683402158	-0.4356532507	-0.221391
C	-1.4820457653	-0.5671900487	 0.0979914675	 0.405901
O	-1.7296642575	-0.052612698	 1.4000677415	-0.48991
C	-2.6696463564	-0.4456381627	-0.9113698795	-0.300695
C	-2.6302275833	-1.9859929139	-1.1419959554	 0.007779
C	-2.0763182519	-2.4246134329	-2.49544504	-0.401907
C	-1.6862382275	-2.1123563113	 0.101701408	-0.003364
C	-0.4942405383	-3.0600723357	 0.0840677222	-0.424564
H	 0.9222646281	 1.7567414719	-0.9797673289	 0.119016
H	-0.8289830914	 1.8739532023	-1.1741723913	 0.120352
H	-0.0972260912	 1.9381739788	 0.4400666302	 0.111819
H	 0.0508871397	-0.5083674778	-1.4219255208	 0.097997
H	 0.6591725193	-0.4363698181	 0.2263885382	 0.102568
H	-1.7365526255	 0.9089379031	 1.3488197871	 0.273095
H	-3.5788624392	-0.1116264715	-0.406127265	 0.096844
H	-2.5049939775	 0.176631079	-1.7967819665	 0.086345
H	-3.5968469964	-2.4756819488	-0.9908162583	 0.067003
H	-1.1227247895	-1.941985836	-2.7343191104	 0.115077
H	-1.9159405565	-3.507533789	-2.5314322956	 0.113635
H	-2.7795487977	-2.166718916	-3.29519771	 0.111964
H	-2.2988590843	-2.3302877484	 0.9819268972	 0.082741
H	 0.1625170748	-2.8958556222	-0.775338527	 0.111479
H	 0.1084962093	-2.9445673279	 0.9912009982	 0.120269
H	-0.8306990765	-4.1020860216	 0.0454564772	 0.111033
77.81	109.2671	167.4437	215.251	222.0994	228.8056	239.6066	248.1414	277.4607	313.9173	351.7604	366.6309	436.7239	504.7522	520.8129	656.1537	732.2494	779.5884	788.6074	838.358	889.7656	929.5124	941.5799	987.764	1005.2672	1014.7409	1041.6839	1062.7774	1087.3034	1115.5873	1161.1493	1188.323	1200.8132	1206.6889	1245.5207	1273.4859	1295.5669	1313.9846	1323.4187	1372.8547	1373.8655	1385.1639	1406.2362	1408.0316	1413.0424	1471.1718	1477.1404	1491.9311	1494.8289	1500.3914	1504.3666	1505.6208	1511.0409	3026.3028	3028.5584	3030.7857	3035.68	3043.4624	3047.2281	3061.3129	3069.1607	3091.0004	3091.841	3095.378	3096.6536	3104.5093	3106.3075	3110.6461	3809.2989
CCC1(O)CC(C)C1C	CC[C@@]1(O)C[C@@H](C)[C@H]1C	
InChI=1S/C8H16O/c1-4-8(9)5-6(2)7(8)3/h6-7,9H,4-5H2,1-3H3	InChI=1S/C8H16O/c1-4-8(9)5-6(2)7(8)3/h6-7,9H,4-5H2,1-3H3/t6-,7-,8-/m1/s1
