18
gdb 85529	2.52889	1.66761	1.13088	5.0729	72.06	-0.253	0.0494	0.3024	1085.5356	0.149291	-439.12279	-439.114904	-439.11396	-439.1552	30.607	
C	-0.7928406088	 1.3510862387	 0.0390979634	-0.396579
C	 0.0761110244	 0.0926592059	 0.0105745539	 0.029738
N	 1.0576911796	 0.1992809486	-1.0681199852	-0.381046
C	 2.1961557022	-0.5610501357	-1.2028159661	 0.451228
O	 2.7688356431	-0.7243894064	-2.249912944	-0.385146
O	 2.6942597984	-1.1091788725	-0.0618685398	-0.242363
C	 2.162078861	-0.7806908858	 1.2026727566	 0.115931
C	 2.0521149688	 0.6511815187	 1.6464829573	-0.329615
C	 0.8092006116	-0.155420723	 1.3124113773	-0.055015
H	-0.1834447838	 2.2367476879	 0.2393621728	 0.13175
H	-1.3076006964	 1.4929701839	-0.917572533	 0.117762
H	-1.5556826824	 1.2673448323	 0.8186479379	 0.124251
H	-0.5807674667	-0.775321488	-0.1645233195	 0.089032
H	 0.7084078874	 0.4982648933	-1.9666798781	 0.254077
H	 2.4739448636	-1.5345284783	 1.9149892089	 0.116864
H	 2.2577775601	 0.8805702098	 2.6858044294	 0.122195
H	 2.3590706823	 1.4149228265	 0.940671842	 0.13924
H	 0.1715129057	-0.4724881859	 2.1313076763	 0.097695
106.585	121.749	216.4432	244.1589	297.4444	379.4394	437.3654	499.2762	528.9105	588.7503	631.0692	718.5501	754.8544	769.5851	826.1911	835.3163	912.7914	958.9822	1009.5446	1031.0514	1046.2206	1064.1821	1083.511	1117.5377	1131.6785	1175.4137	1214.0056	1243.9831	1274.6925	1358.241	1368.777	1400.8874	1410.5945	1424.2926	1460.0406	1482.7231	1495.5557	1499.452	1847.0391	2958.7984	3036.3312	3105.1833	3123.7702	3140.4354	3160.5701	3189.1112	3230.5468	3619.6864
CC1NC(=O)OC2CC12	C[C@H]1NC(=O)O[C@H]2C[C@@H]12	
InChI=1S/C6H9NO2/c1-3-4-2-5(4)9-6(8)7-3/h3-5H,2H2,1H3,(H,7,8)	InChI=1S/C6H9NO2/c1-3-4-2-5(4)9-6(8)7-3/h3-5H,2H2,1H3,(H,7,8)/t3-,4+,5+/m1/s1
