21
gdb 100702	2.31156	0.93263	0.76674	2.4427	83.93	-0.245	0.0478	0.2928	1613.347	0.178374	-424.191514	-424.179843	-424.178898	-424.230677	39.746	
C	 0.149978149	 1.3265169715	-0.266934135	-0.234389
O	 0.0559399106	-0.0733545465	-0.1469676535	-0.262191
C	-1.2632625167	-0.5813055793	 0.0203034154	 0.129532
C	-1.988121627	-0.7196104286	-1.3180104817	-0.412335
C	-1.0732373326	-1.9515979051	 0.7121640418	-0.10007
O	-0.1922596177	-2.7640222824	-0.051566055	-0.419425
C	-0.6222043475	-1.7907833902	 2.0998599556	 0.081791
C	-0.2471813874	-1.6633260703	 3.2370398551	 0.085197
C	 0.2077166147	-1.5198863893	 4.6123297373	-0.499947
H	 1.2118379472	 1.5721448837	-0.3478806047	 0.128533
H	-0.3642344002	 1.7076436927	-1.1611467281	 0.108604
H	-0.2652714631	 1.8355965857	 0.6158656555	 0.110537
H	-1.8298993132	 0.0754011261	 0.6973668867	 0.073985
H	-2.0260711345	 0.2359304356	-1.8483452371	 0.112918
H	-1.4721514397	-1.4521439427	-1.9431924171	 0.139113
H	-3.0186696739	-1.0553617367	-1.1628828669	 0.115139
H	-2.0363563949	-2.4760163049	 0.705041247	 0.106345
H	 0.6108997751	-2.2381377455	-0.1595085317	 0.291779
H	 0.9051514899	-2.3204606109	 4.8826364667	 0.151058
H	 0.7224657566	-0.5652091115	 4.7673342428	 0.146237
H	-0.6316786447	-1.5625861413	 5.3152747768	 0.147587
14.2234	48.2769	68.8527	94.8527	147.6775	182.8627	218.5696	225.9348	260.4648	309.8749	327.4887	370.1249	409.2422	438.9791	484.1239	562.8967	694.8287	784.0063	836.7917	922.5022	995.6238	1045.9102	1053.0015	1054.7383	1105.804	1128.6852	1156.7454	1167.2651	1183.4663	1213.7279	1279.4228	1305.6215	1366.9774	1373.6493	1401.6263	1413.9111	1430.5458	1477.5958	1478.9219	1479.2786	1483.8847	1494.0951	1499.2502	1510.7435	2368.5854	2981.2616	2995.2175	3026.1664	3031.2532	3039.079	3045.3975	3086.405	3087.6185	3109.6068	3112.075	3133.6584	3777.5578
COC(C)C(O)C#CC	CO[C@@H](C)[C@@H](O)C#CC	
InChI=1S/C7H12O2/c1-4-5-7(8)6(2)9-3/h6-8H,1-3H3	InChI=1S/C7H12O2/c1-4-5-7(8)6(2)9-3/h6-8H,1-3H3/t6-,7-/m0/s1
