21
gdb 88177	2.26675	1.46439	1.11215	0.9329	78.1	-0.2518	0.0778	0.3296	1180.9529	0.183035	-424.21949	-424.210544	-424.2096	-424.253265	34.879	
O	-0.3133686556	 1.4317110356	-0.2990884001	-0.423409
C	-0.1516785329	 0.0478794799	-0.1729682218	 0.050378
C	-0.3465787482	-0.6247989791	 1.1607381666	-0.39127
C	-1.40072347	-0.7512722594	 0.0847241831	 0.310011
C	-2.7546261152	-0.0370222703	 0.1911595959	-0.282735
C	-3.7763589441	-1.0277988136	-0.4176159213	-0.214916
C	-2.9494646109	-1.8663727918	-1.4011088722	-0.2377
C	-1.6261790277	-2.0871182167	-0.6512445389	 0.06472
O	-0.5474228827	-2.5338764032	-1.4525972855	-0.435179
H	 0.4351871058	 1.859246569	 0.1291933674	 0.288805
H	 0.5950656355	-0.3897850001	-0.8343955393	 0.082142
H	 0.2708018001	-1.4903859023	 1.3834370745	 0.113992
H	-0.5794102249	 0.0099479317	 2.0106123942	 0.106211
H	-3.0081340997	 0.2312914615	 1.2206609004	 0.095471
H	-2.7270672891	 0.8960725181	-0.3796421785	 0.120911
H	-4.1857397744	-1.6784747936	 0.3643155133	 0.100458
H	-4.6232428269	-0.5228248893	-0.8894807044	 0.097592
H	-3.4254376167	-2.8029728308	-1.7026307104	 0.099691
H	-2.7470378361	-1.2867340768	-2.3135490017	 0.088433
H	-1.7589517908	-2.8845974149	 0.0909186085	 0.089219
H	-0.4607681852	-1.9186183641	-2.1893560097	 0.277175
40.69	162.4932	205.6454	216.3814	251.8189	282.3377	348.4708	391.2535	451.1839	491.6887	521.4177	549.0148	565.6092	700.6798	813.2559	843.1133	867.6452	890.9083	926.6693	935.7909	986.1122	1004.6188	1033.1965	1048.5595	1075.1864	1113.2019	1116.8988	1150.5711	1181.4647	1195.4971	1229.7678	1254.1306	1281.3252	1287.3473	1297.7317	1319.4365	1339.3735	1348.263	1354.5891	1416.0156	1433.3794	1482.9595	1487.8048	1494.7972	1511.6035	3006.9057	3028.8767	3037.1437	3053.5279	3084.9214	3096.1101	3100.6297	3107.7084	3113.5655	3204.4455	3798.9462	3810.5451
OC1CC11CCCC1O	O[C@H]1C[C@]21CCC[C@H]2O	
InChI=1S/C7H12O2/c8-5-2-1-3-7(5)4-6(7)9/h5-6,8-9H,1-4H2	InChI=1S/C7H12O2/c8-5-2-1-3-7(5)4-6(7)9/h5-6,8-9H,1-4H2/t5-,6+,7-/m1/s1
