16
gdb 18245	4.68652	1.48873	1.22307	1.8546	66.01	-0.2328	0.0122	0.245	972.9696	0.130444	-383.718769	-383.711439	-383.710495	-383.750512	27.332	
O	 0.0196262353	 1.412907414	 0.0255557834	-0.412797
C	-0.0031530421	-0.0015154537	-0.0175781119	-0.190974
C	-1.4164471272	-0.4810823991	 0.0177987969	 0.3271
C	-2.5334183976	 0.2513047016	-0.0359039721	-0.16702
C	-3.7857261286	-0.6002401022	 0.0258418326	-0.291626
C	-3.2354051478	-2.0217088622	 0.0548335895	 0.047546
O	-2.4815112684	-2.3905072814	-1.1025905955	-0.256317
C	-1.7656095432	-1.9365686583	 0.0701254401	-0.079673
H	 0.930938101	 1.7009268421	-0.0763863106	 0.290919
H	 0.485831667	-0.3848794328	-0.9306147577	 0.106978
H	 0.5507255284	-0.4395092937	 0.8328310234	 0.093533
H	-2.5541729315	 1.3277411168	-0.147122539	 0.114146
H	-4.3819381786	-0.3906986931	 0.9236928269	 0.110718
H	-4.4434264612	-0.4385263125	-0.836998459	 0.124131
H	-3.7916876825	-2.828840711	 0.5240044036	 0.094138
H	-1.1142202029	-2.6775395145	 0.5263993893	 0.0892
84.5718	176.3603	200.6283	239.3214	304.2955	392.9868	406.2022	586.271	649.9758	745.9919	814.544	825.5039	865.4498	894.0126	929.0333	953.1751	1011.788	1037.7524	1047.2747	1073.9077	1104.5786	1177.135	1183.1189	1216.745	1247.0335	1256.6278	1278.4057	1310.6683	1354.8422	1411.258	1461.9791	1468.7997	1507.8394	1708.2079	2936.0027	2953.6237	3024.0977	3059.5914	3142.773	3154.6724	3222.347	3838.7822
OCC1=CCC2OC12	OCC1=CC[C@H]2O[C@@H]12	
InChI=1S/C6H8O2/c7-3-4-1-2-5-6(4)8-5/h1,5-7H,2-3H2	InChI=1S/C6H8O2/c7-3-4-1-2-5-6(4)8-5/h1,5-7H,2-3H2/t5-,6+/m1/s1
