23
gdb 110724	2.29611	1.41066	1.12585	0.2309	90.62	-0.2208	0.0234	0.2442	1246.3937	0.205972	-351.16503	-351.155819	-351.154875	-351.198774	35.875	
C	 0.2097957154	 1.5010274689	 0.1450829021	-0.372174
C	-0.1908647222	 0.0437385396	-0.1142796397	-0.208376
C	 0.5877885526	-0.5759709603	-1.2545203197	-0.031909
C	 1.9662656754	-1.2247225401	-1.1076882822	-0.134708
C	 2.3594856736	-1.700851052	 0.2467807798	-0.072041
C	 1.5409793169	-2.6566085135	 0.6953538418	-0.077051
C	 0.4757833594	-3.0064489278	-0.3211742364	-0.331112
C	 0.7462098867	-2.0581226027	-1.5013518376	 0.305685
C	 0.5530953048	-2.6044958948	-2.8969973566	-0.484153
H	 1.2662962319	 1.5710946465	 0.4247550447	 0.117115
H	 0.0629510956	 2.119423766	-0.7476263642	 0.109951
H	-0.3827778254	 1.9388819768	 0.9546352754	 0.107101
H	-0.0492860136	-0.5381792796	 0.8013582872	 0.103579
H	-1.262753797	-0.0056662282	-0.3495141175	 0.091086
H	 0.4972452883	-0.0064619746	-2.1795584718	 0.073168
H	 2.7332389006	-0.9566332156	-1.8280064682	 0.076258
H	 3.1994125136	-1.2878861288	 0.794742056	 0.089752
H	 1.593808882	-3.1257424761	 1.6716361499	 0.089711
H	 0.5520813715	-4.0560640403	-0.6385582508	 0.101003
H	-0.5375139808	-2.887875733	 0.0862417018	 0.106582
H	-0.4995663131	-2.8461108465	-3.0896408315	 0.114567
H	 0.8674130624	-1.8798680229	-3.6551192418	 0.112139
H	 1.1350909214	-3.5212305207	-3.0497002307	 0.113825
61.4735	151.123	187.1274	198.9746	220.2208	257.1506	294.5865	336.8273	399.652	491.708	564.7171	586.2666	700.4431	745.4726	759.0918	796.8611	847.695	865.3526	927.2303	941.2851	957.6871	961.6437	978.3924	1002.4946	1039.8974	1059.4614	1094.7967	1102.6263	1120.8029	1126.1503	1153.949	1186.6834	1230.6918	1277.1992	1295.3121	1319.0258	1333.366	1367.8767	1382.3024	1407.4002	1419.5761	1452.8498	1477.109	1484.2831	1490.3284	1498.1359	1501.6177	1504.9682	1667.0611	3004.627	3016.666	3018.0348	3029.0958	3030.6547	3073.9292	3074.6955	3094.0053	3097.1905	3102.259	3107.6777	3150.9852	3179.7683	3204.9066
CCC1C2C=CCC12C	CC[C@H]1[C@H]2C=CC[C@@]12C	
InChI=1S/C9H14/c1-3-7-8-5-4-6-9(7,8)2/h4-5,7-8H,3,6H2,1-2H3	InChI=1S/C9H14/c1-3-7-8-5-4-6-9(7,8)2/h4-5,7-8H,3,6H2,1-2H3/t7-,8+,9-/m0/s1
