16
gdb 49762	3.82104	1.29075	1.05591	2.4067	72.99	-0.2265	-0.0188	0.2077	1096.2344	0.125857	-437.893563	-437.886287	-437.885343	-437.925802	27.24	
O	-0.0498981507	-0.0399867562	-0.1368289664	-0.322782
C	 0.0190755691	 1.1689778566	-0.1048054387	 0.141625
N	 1.1814321142	 1.8807980607	 0.0127862907	-0.047502
C	 2.4554886103	 1.311982871	 0.1742719146	 0.01164
C	 3.4032339724	 2.2275048991	 0.3998452014	-0.184861
C	 2.7952177221	 3.603831877	 0.3878795947	 0.07398
O	 2.9584477056	 4.344296065	-0.8514752739	-0.28433
C	 1.5990119654	 4.0707830034	-1.2522920323	-0.085218
C	 1.2966204051	 3.3343044282	 0.0708554433	-0.087858
H	-0.8629101267	 1.8347926835	-0.1702239794	 0.077695
H	 2.5262177354	 0.235679543	 0.1169538952	 0.16327
H	 4.4497832417	 2.019446152	 0.5655448013	 0.118592
H	 3.0643067069	 4.2295963163	 1.2450675422	 0.090993
H	 1.030710414	 4.9938347285	-1.4172831866	 0.111105
H	 1.5398969291	 3.4395022943	-2.1467588773	 0.114401
H	 0.5290049061	 3.7753798275	 0.7067936211	 0.109248
75.9255	131.7309	218.6828	254.1455	325.2935	401.9472	485.0495	586.4975	710.6484	756.1075	766.2346	826.6584	881.2911	908.4313	936.5665	961.4891	989.395	1017.5734	1020.8524	1031.2373	1070.8828	1116.8865	1163.7381	1206.6902	1252.8197	1264.0112	1307.9189	1321.9196	1337.1434	1354.5759	1437.31	1438.8522	1514.8158	1661.3062	1793.9071	2948.429	3020.9159	3054.4017	3069.6853	3114.1536	3242.8703	3266.047
O=CN1C=CC2OCC12	O=CN1C=C[C@H]2OC[C@@H]12	
InChI=1S/C6H7NO2/c8-4-7-2-1-6-5(7)3-9-6/h1-2,4-6H,3H2	InChI=1S/C6H7NO2/c8-4-7-2-1-6-5(7)3-9-6/h1-2,4-6H,3H2/t5-,6-/m1/s1
