18
gdb 30341	3.01638	1.69101	1.13125	3.081	78.23	-0.18	0.0523	0.2323	1067.0816	0.150078	-401.982964	-401.975413	-401.974468	-402.014983	29.504	
C	-0.0647876146	 1.5615474076	-0.0260850501	-0.409949
C	 0.0264294236	 0.0423928689	 0.0565054737	 0.00973
C	 0.8183830727	-0.6058998132	-1.1143452986	-0.107195
O	 1.5219274992	-1.7342720682	-0.5640074245	-0.281303
C	 1.6107146376	-1.4992742997	 0.7736433874	 0.421341
C	 2.2118774406	-2.0724140477	 1.8611711293	-0.346204
C	 1.7330083804	-1.3174146786	 2.9861776999	-0.12602
C	 0.8743686013	-0.340559045	 2.5400940032	-0.158041
N	 0.8313252057	-0.4508405322	 1.1614718909	-0.032502
H	 0.9334149055	 2.0073119648	-0.0673819019	 0.132931
H	-0.6206256377	 1.8608111703	-0.9204038647	 0.126324
H	-0.5896937374	 1.9693949397	 0.8425299803	 0.132173
H	-0.9861442544	-0.3827128217	 0.1138296451	 0.097684
H	 0.1794839812	-0.9615780091	-1.9243868012	 0.124706
H	 1.5482561589	 0.110375358	-1.5148323554	 0.112313
H	 2.8944070713	-2.9053892489	 1.8677242348	 0.099243
H	 2.0191644766	-1.473516523	 4.0155834098	 0.092296
H	 0.3386715896	 0.4334628181	 3.0634952621	 0.112471
99.9236	137.0667	230.506	258.8063	302.7888	430.6135	495.1883	597.4102	610.439	639.0448	676.0278	701.6774	737.338	741.9676	813.7901	902.7299	919.7427	950.6976	999.275	1033.6445	1041.0182	1100.527	1120.349	1145.5838	1161.5015	1240.1473	1254.5054	1304.7644	1328.0469	1360.3087	1394.7139	1406.9091	1412.9969	1483.5245	1491.2651	1499.0661	1511.6467	1519.0261	1626.4966	2993.1754	3018.5284	3040.581	3112.704	3117.4033	3121.9854	3241.7251	3271.5836	3277.8479
CC1COC2=CC=CN12	C[C@H]1COc2cccn12	
InChI=1S/C7H9NO/c1-6-5-9-7-3-2-4-8(6)7/h2-4,6H,5H2,1H3	InChI=1S/C7H9NO/c1-6-5-9-7-3-2-4-8(6)7/h2-4,6H,5H2,1H3/t6-/m0/s1
