13
gdb 19816	4.42003	2.13262	1.90597	3.3543	56.53	-0.261	-0.0167	0.2443	703.9213	0.096736	-398.551188	-398.545486	-398.544542	-398.580967	22.256	
O	-0.0451393917	 0.023311293	-0.0716141679	-0.310438
C	 0.0214522921	 1.2055372063	-0.0027016426	 0.436411
O	-1.0307855693	 2.1023010264	 0.1286498768	-0.258158
C	-0.1195031575	 3.2462851901	 0.1116441824	 0.094451
C	 0.4167493871	 3.6851874628	 1.4806650444	-0.038389
C	 0.6405845385	 2.5459393278	 2.3869857134	-0.255363
N	 1.6482006858	 2.7860579656	 1.3346500242	-0.145112
C	 1.0828619525	 2.3188497634	-0.0080277113	-0.168835
H	-0.4181265767	 4.0011909451	-0.610734065	 0.11385
H	 0.5138426997	 4.7197599478	 1.7903107545	 0.11209
H	 1.0300361225	 2.781063172	 3.3723484872	 0.138453
H	-0.0023044881	 1.6720569728	 2.3524165431	 0.155885
H	 1.8332123151	 2.3298392168	-0.7941705891	 0.125155
144.2605	240.745	377.2585	480.8986	546.0148	680.5259	691.7424	719.748	792.9713	814.4112	880.8964	900.1899	946.217	970.831	979.7077	1028.9407	1055.3688	1085.251	1110.5261	1136.8613	1194.8591	1229.9699	1232.1492	1265.7242	1313.5919	1357.1917	1507.9216	1936.5729	3128.8572	3153.7079	3161.8609	3180.1865	3216.0433
O=C1OC2C3CN3C12	O=C1O[C@H]2[C@H]3CN3[C@@H]12	
InChI=1S/C5H5NO2/c7-5-3-4(8-5)2-1-6(2)3/h2-4H,1H2	InChI=1S/C5H5NO2/c7-5-3-4(8-5)2-1-6(2)3/h2-4H,1H2/t2-,3-,4+,6?/m1/s1
