17
gdb 10836	4.64703	1.50193	1.19381	4.1299	64.67	-0.2276	0.0125	0.2401	994.7511	0.143511	-401.031409	-401.023749	-401.022805	-401.063509	28.376	
C	-0.177809466	 1.5191237823	 0.0026508672	-0.409403
C	 0.0314087936	 0.0075064167	 0.0030444595	 0.01932
C	 0.8159972863	-0.4443613683	-1.2259052549	-0.058707
O	 1.1427323516	-1.846115106	-1.2211935179	-0.228753
C	 1.2899617201	-2.5452734912	-0.0710808217	 0.39482
O	 1.669675068	-3.6835378232	-0.1165701386	-0.323214
C	 0.8876516716	-1.8690093627	 1.2408874515	-0.311895
N	 0.707471952	-0.4220577263	 1.2279694652	-0.290904
H	 0.7829371306	 2.0473912854	 0.0155409508	 0.117266
H	-0.7263372729	 1.8439389137	-0.8864328506	 0.124305
H	-0.7399837833	 1.8183042333	 0.8901766858	 0.137592
H	-0.9484603287	-0.4907187053	-0.008100506	 0.094923
H	 0.2565564045	-0.27968435	-2.1522390602	 0.121918
H	 1.7558490255	 0.1220276531	-1.2936328133	 0.105321
H	-0.0553336701	-2.3474647632	 1.5410952418	 0.145653
H	 1.6258574628	-2.1547619618	 1.9934327137	 0.143532
H	 1.6132120343	 0.0369839736	 1.2842717178	 0.218224
78.4969	148.5643	207.1689	224.2666	289.6291	404.2605	444.8869	464.2979	519.4385	561.9868	721.011	758.3102	816.5486	870.1242	918.4396	950.5389	995.2194	1076.2174	1103.8322	1145.9573	1148.3947	1183.9744	1219.719	1254.8507	1301.6531	1338.8081	1353.235	1383.0435	1409.8003	1429.9248	1455.3717	1477.6455	1495.2626	1499.7609	1510.6283	1844.2078	3002.9894	3015.6013	3019.9528	3035.2702	3078.462	3103.0315	3112.202	3130.0025	3491.0549
CC1COC(=O)CN1	C[C@H]1COC(=O)CN1	
InChI=1S/C5H9NO2/c1-4-3-8-5(7)2-6-4/h4,6H,2-3H2,1H3	InChI=1S/C5H9NO2/c1-4-3-8-5(7)2-6-4/h4,6H,2-3H2,1H3/t4-/m0/s1
