17
gdb 50161	3.84187	1.10894	1.00627	3.7266	68.81	-0.2524	-0.035	0.2174	1188.4121	0.134136	-458.922549	-458.914201	-458.913256	-458.957147	29.641	
O	-0.4425148804	 0.2318134784	-0.1416468758	-0.231018
C	-0.008578814	 1.3112685204	-0.4415611954	 0.144323
C	 1.3280308406	 1.8603659856	 0.0106381605	 0.029429
C	 1.2341252866	 2.7300562678	 1.2956975543	-0.382511
C	 2.0192865944	 1.5714483735	 1.9396045166	 0.377115
C	 3.2757193441	 1.7637654215	 2.8026604042	-0.130175
O	 2.645430495	 1.1221493843	 3.9288135732	-0.273333
C	 1.4928931081	 0.7608365312	 3.1371945353	-0.124233
O	 2.1548175365	 0.901832398	 0.6769467608	-0.288353
H	-0.5916151057	 2.0293496533	-1.0664001481	 0.075115
H	 1.8343011469	 2.3325690018	-0.8421099854	 0.100363
H	 1.7789653358	 3.6736050204	 1.2416797555	 0.126364
H	 0.2319922996	 2.9071505165	 1.6907689359	 0.127581
H	 4.1413649174	 1.2033281507	 2.4261622773	 0.115647
H	 3.5719104786	 2.7969597328	 3.0225529905	 0.103006
H	 0.5538335429	 1.0969722317	 3.5925031711	 0.105886
H	 1.4410082737	-0.3146959381	 2.9295660595	 0.124794
27.1019	80.8452	102.4842	197.6012	274.2452	308.2795	378.5742	416.9109	490.5504	724.6235	777.5739	826.2471	855.2845	902.6186	911.669	925.148	954.5048	977.5979	995.7705	1030.0722	1097.6723	1120.4609	1143.7697	1147.4956	1188.2853	1200.6587	1224.8243	1255.4135	1293.2925	1296.9884	1355.6636	1385.3954	1414.4413	1485.5436	1494.213	1520.6432	1842.0682	2851.4236	3008.2637	3020.3996	3024.2307	3060.7618	3073.6526	3078.8779	3136.8668
O=CC1CC2(COC2)O1	O=C[C@H]1CC2(COC2)O1	
InChI=1S/C6H8O3/c7-2-5-1-6(9-5)3-8-4-6/h2,5H,1,3-4H2	InChI=1S/C6H8O3/c7-2-5-1-6(9-5)3-8-4-6/h2,5H,1,3-4H2/t5-/m1/s1
