17
gdb 50987	2.98723	1.01198	0.83622	2.6067	74.47	-0.2556	-0.0325	0.2231	1358.6457	0.131797	-421.775911	-421.766372	-421.765427	-421.811464	33.811	
O	 0.0042547443	 0.1746592456	 0.1924216967	-0.239763
C	 0.9177937518	 0.6716273645	-0.4142741023	 0.156985
C	 1.5855901797	 1.9828971909	-0.0412747778	-0.343381
C	 1.6173862623	 2.9549389253	-1.2137817664	 0.372329
C	 0.236357413	 3.4474096036	-1.6552262252	-0.434193
C	 0.2475391906	 4.3946847401	-2.7605160146	 0.303469
C	 0.2466694171	 5.1834340522	-3.6666550572	-0.427885
C	 2.8293682675	 3.740857769	-1.478366435	-0.225552
O	 2.5127719996	 2.5832147754	-2.2626958314	-0.261653
H	 1.3481338971	 0.1846647081	-1.316801282	 0.100961
H	 1.0681129602	 2.4099361692	 0.8229527197	 0.123706
H	 2.6197818275	 1.755058356	 0.2444543021	 0.128854
H	-0.3716649148	 2.5741257811	-1.9282419131	 0.151346
H	-0.2616324379	 3.8966521556	-0.7857956867	 0.144801
H	 0.2416686931	 5.8727448851	-4.4744683269	 0.201609
H	 2.7470819643	 4.6869710985	-2.0072253507	 0.13522
H	 3.6879055745	 3.6366183497	-0.8164912892	 0.113147
48.968	58.2048	83.6478	141.5183	204.1946	322.637	335.3347	349.5462	350.9511	446.109	478.3295	582.9336	620.8512	653.9583	717.6448	810.9947	855.1986	888.6629	949.3968	973.3633	1005.2426	1030.4887	1078.7915	1131.3497	1167.0623	1174.6076	1246.4351	1254.9623	1297.3087	1354.4167	1413.3242	1420.4264	1451.1919	1462.2391	1523.6729	1831.1846	2243.9633	2898.2266	3016.8101	3038.1493	3047.7906	3092.7845	3104.093	3190.1487	3505.0642
O=CCC1(CC#C)CO1	O=CC[C@@]1(CC#C)CO1	
InChI=1S/C7H8O2/c1-2-3-7(4-5-8)6-9-7/h1,5H,3-4,6H2	InChI=1S/C7H8O2/c1-2-3-7(4-5-8)6-9-7/h1,5H,3-4,6H2/t7-/m0/s1
