18
gdb 77326	2.44272	1.45452	1.11732	3.3483	78.31	-0.2413	0.0262	0.2675	1138.6339	0.147543	-401.963997	-401.955054	-401.95411	-401.997833	32.857	
C	-0.0622610326	 1.3846125469	 0.1083322253	-0.350088
N	-0.0189011931	-0.0495058612	-0.0660697933	-0.048119
C	-1.2126865403	-0.8821118774	 0.0339204469	-0.187203
C	-0.6912839131	-2.2757488286	-0.4229809149	-0.235566
C	 0.7999936556	-2.244087815	-0.0687107538	-0.33213
C	 1.1600615049	-0.7586715133	-0.067813003	 0.412769
O	 2.2702074224	-0.2716936282	-0.0581167373	-0.389174
C	-1.7772488112	-0.8893199669	 1.3897389968	 0.359977
C	-2.2343426174	-0.8891326397	 2.5015496903	-0.479648
H	 0.9654385013	 1.7485202745	 0.0642231747	 0.165852
H	-0.6516202565	 1.8586260674	-0.6853335845	 0.121514
H	-0.5020743199	 1.6517638919	 1.0767750231	 0.133745
H	-1.9808929096	-0.5123456132	-0.657322297	 0.110585
H	-1.245438459	-3.085068082	 0.0526615925	 0.123306
H	-0.8244044853	-2.3580221665	-1.5050738371	 0.117256
H	 0.9936881523	-2.6369233877	 0.9355480414	 0.139146
H	 1.437930354	-2.7914262639	-0.7642217945	 0.13243
H	-2.6380951225	-0.8901668071	 3.4841425846	 0.205349
73.4	109.1274	155.9772	163.2842	206.2441	265.6088	305.0046	442.8691	473.655	530.068	584.5958	635.3931	657.3734	662.213	678.3265	778.1522	832.5838	896.8943	971.7726	993.174	1041.4894	1067.0693	1121.4101	1157.8956	1173.6475	1213.8535	1259.5062	1279.2921	1303.9083	1335.2718	1363.9736	1416.9308	1447.3372	1469.4031	1492.6299	1496.2131	1518.9531	1812.1296	2231.056	3016.6765	3021.1819	3058.6887	3071.2855	3073.0496	3123.172	3135.3722	3146.0511	3500.8501
CN1C(CCC1=O)C#C	CN1[C@@H](CCC1=O)C#C	
InChI=1S/C7H9NO/c1-3-6-4-5-7(9)8(6)2/h1,6H,4-5H2,2H3	InChI=1S/C7H9NO/c1-3-6-4-5-7(9)8(6)2/h1,6H,4-5H2,2H3/t6-/m1/s1
