16
gdb 77769	2.84711	1.54707	1.16367	4.7635	69.88	-0.2438	0.0094	0.2532	1041.8245	0.123818	-437.804917	-437.797274	-437.79633	-437.836836	29.852	
O	-0.0486792908	 1.4333491343	-0.0573364364	-0.436074
C	 0.0069753141	 0.0386913754	 0.0046953411	 0.168126
C	 0.0031510998	-0.6673430975	 1.4163318001	-0.351137
C	-1.4636652137	-0.1619202227	 1.485424214	 0.460318
O	-2.2319261165	 0.3090222436	 2.2578301153	-0.310885
C	-1.3848152765	-0.6584088962	 0.0181865438	-0.293208
C	-0.6247469693	-1.8511976434	 0.6477030762	 0.434502
C	-0.0463399352	-3.0883280086	 0.1027793438	-0.347075
N	-1.1645918144	-3.1103982778	 1.0905793178	-0.393169
H	 0.8269101173	 1.7866402723	 0.1298855013	 0.291353
H	 0.7202690314	-0.3995991346	-0.7018376444	 0.087447
H	 0.7867350096	-0.6850276457	 2.1715816554	 0.092339
H	-2.1371592311	-0.6697608375	-0.7652523542	 0.106785
H	-0.316205931	-3.4400553305	-0.8889678126	 0.131108
H	 0.9445891408	-3.3866393382	 0.4362273871	 0.120167
H	-0.8190844745	-3.3564319729	 2.0153828317	 0.239403
128.1643	172.5179	238.0658	252.8421	286.8469	410.8608	415.8068	475.3192	513.212	590.6279	697.9159	726.8991	786.2103	808.7211	891.5262	911.5977	928.0519	955.3757	978.1867	1022.5428	1053.8013	1076.4282	1103.545	1120.9929	1144.1946	1152.0067	1180.1367	1214.524	1243.754	1255.7284	1306.6388	1413.7659	1450.0025	1527.2892	1936.1983	3051.3586	3106.9742	3141.3362	3170.6541	3192.3537	3496.8274	3820.0826
OC1C2C(=O)C1C21CN1	O[C@H]1[C@H]2C(=O)[C@@H]1[C@]12CN1	
InChI=1S/C6H7NO2/c8-4-2-5(9)3(4)6(2)1-7-6/h2-4,7-8H,1H2	InChI=1S/C6H7NO2/c8-4-2-5(9)3(4)6(2)1-7-6/h2-4,7-8H,1H2/t2-,3+,4-,6+
