18
gdb 55296	2.56654	1.45295	1.04403	3.0118	72.33	-0.2324	-0.0162	0.2163	1161.0199	0.145673	-439.052266	-439.043304	-439.04236	-439.087051	32.476	
C	 0.6352692801	 0.4334589437	-0.9125512378	-0.472178
C	-0.4585139197	 0.7150569893	 0.0917935905	 0.371708
O	-0.4867011023	 1.714385216	 0.7755199644	-0.305362
C	-1.569388417	-0.322665233	 0.2308231169	-0.165979
N	-1.2626876222	-1.7029878328	-0.2313834574	-0.337244
C	-1.784315777	-2.299437001	 1.0320594968	-0.251053
C	-1.8414525089	-0.894647102	 1.6349152522	 0.422527
C	-1.4843311535	-0.3825807344	 2.9550914859	-0.259373
O	-2.8511825973	-0.4420441182	 2.4971265075	-0.26016
H	 1.3551344948	 1.2524809363	-0.9147691273	 0.136584
H	 1.1216362286	-0.5164816031	-0.6729555786	 0.157451
H	 0.2061372298	 0.3101905497	-1.9141932008	 0.134229
H	-2.4881033554	 0.1165803005	-0.1853575536	 0.110045
H	-1.7704052625	-1.9884278453	-1.0605054562	 0.226355
H	-2.7844389534	-2.7435929398	 0.9547870128	 0.113869
H	-1.1049006866	-3.0230031665	 1.4944189372	 0.11504
H	-1.2338992792	-1.0818783836	 3.7514703452	 0.115169
H	-1.0718995883	 0.6189546541	 3.0405738822	 0.148373
28.6592	91.9838	130.4645	161.9985	237.352	296.4193	328.61	400.659	462.3697	473.4249	575.3649	610.9231	701.9479	803.4438	857.5752	893.5298	912.1655	938.6643	983.9528	1015.2108	1019.0257	1038.8191	1107.2507	1119.9451	1135.1773	1164.7973	1184.6424	1212.6948	1235.8395	1288.6247	1336.8302	1377.627	1379.2974	1440.3875	1453.6944	1466.0091	1507.9411	1532.8139	1800.8412	3001.1416	3023.8089	3039.8381	3073.6132	3094.8174	3105.4601	3158.5483	3197.9037	3541.0664
CC(=O)C1NCC11CO1	CC(=O)[C@H]1NC[C@]21CO2	
InChI=1S/C6H9NO2/c1-4(8)5-6(2-7-5)3-9-6/h5,7H,2-3H2,1H3	InChI=1S/C6H9NO2/c1-4(8)5-6(2-7-5)3-9-6/h5,7H,2-3H2,1H3/t5-,6-/m1/s1
