17
gdb 126809	2.15124	1.58167	0.9808	2.5414	78.93	-0.2584	-0.0612	0.1972	1192.9155	0.136809	-418.044374	-418.035936	-418.034991	-418.078266	30.228	
C	-0.0196021333	 1.5487901775	-0.0559493787	-0.380673
C	-0.0282475808	 0.0211424798	 0.0169106189	-0.152086
N	-1.3749345014	-0.5392079602	-0.0357601609	-0.026375
N	-2.0257309826	-0.7486647263	 1.1120568027	-0.248043
C	-3.2411354655	-1.1885134879	 0.7596755234	-0.001097
C	-3.3788948835	-1.2576835041	-0.6286937715	-0.276516
C	-2.1544107551	-0.8258549214	-1.1276038453	 0.268392
C	-1.7218689686	-0.6918453409	-2.5150148789	 0.076538
O	-2.4302853282	-0.9412353798	-3.4654394402	-0.269749
H	 1.0060369393	 1.9198252929	 0.0287222943	 0.128376
H	-0.4349459848	 1.90462234	-1.003303957	 0.13062
H	-0.6103288763	 1.9710387547	 0.7610005737	 0.14721
H	 0.5610890119	-0.4155381778	-0.7935651032	 0.129123
H	 0.3970734892	-0.3225637787	 0.9615078092	 0.145526
H	-3.9573202606	-1.440800628	 1.5271664185	 0.123622
H	-4.222482391	-1.5768503611	-1.2178714456	 0.13502
H	-0.6780599186	-0.3388533888	-2.6614540892	 0.070112
47.4339	119.5259	157.9598	191.716	229.4198	243.8306	353.7559	403.5947	526.6543	641.0544	659.0506	686.9274	793.3726	808.1672	830.2898	908.3603	942.9666	976.4728	1023.1276	1061.296	1070.9953	1102.0484	1175.4661	1231.039	1271.6908	1339.3564	1357.126	1388.4258	1409.8875	1416.5471	1441.5452	1484.8992	1490.4778	1497.1287	1504.9278	1556.9811	1783.135	2890.4716	3046.3322	3074.577	3113.773	3125.4505	3138.9163	3252.5272	3283.6413
CCN1N=CC=C1C=O	CCn1nccc1C=O	
InChI=1S/C6H8N2O/c1-2-8-6(5-9)3-4-7-8/h3-5H,2H2,1H3	InChI=1S/C6H8N2O/c1-2-8-6(5-9)3-4-7-8/h3-5H,2H2,1H3
