14
gdb 27857	2.0839	1.89354	0.99261	5.0096	70.47	-0.2114	-0.0123	0.1991	1100.5742	0.102243	-470.096614	-470.088575	-470.087631	-470.128877	30.657	
N	 0.0393042877	 1.3551891181	-0.1079661778	-0.56476
C	-0.015208736	-0.0026997118	-0.0373166827	 0.413631
C	-1.2082541594	-0.6972379883	-0.0187657538	-0.366922
C	-1.2190880352	-2.1108453153	 0.0073823777	 0.415477
O	-2.1126960592	-2.9084454115	 0.019956791	-0.35076
O	 0.1274019564	-2.6896984076	 0.0219248335	-0.257565
C	 1.1980708095	-1.9064860955	 0.0149018898	 0.513058
N	 2.3557348665	-2.6031727553	 0.0767482952	-0.557206
N	 1.2127237684	-0.6052581119	-0.019173294	-0.424174
H	 0.9298864977	 1.7812910165	 0.0872099487	 0.263266
H	-0.7866141402	 1.8934767997	 0.0887225157	 0.263829
H	-2.1657123196	-0.1950086349	-0.0351205014	 0.098341
H	 2.3284491112	-3.59516615	-0.083828701	 0.277774
H	 3.209215872	-2.1001135122	-0.0934019609	 0.276012
152.3995	163.9706	196.3341	286.174	319.545	335.3941	358.4501	476.8288	485.0555	509.5312	554.8392	584.584	634.9587	708.5475	720.1754	780.643	798.0974	813.933	970.1399	1044.8913	1059.9524	1160.1824	1178.8418	1311.0243	1445.1477	1488.1569	1576.9278	1615.2656	1656.2769	1669.9759	1881.2536	3221.1087	3610.1374	3620.9651	3736.4006	3753.5648
NC1=CC(=O)OC(N)=N1	Nc1cc(=O)oc(N)n1	
InChI=1S/C4H5N3O2/c5-2-1-3(8)9-4(6)7-2/h1H,5H2,(H2,6,7)	InChI=1S/C4H5N3O2/c5-2-1-3(8)9-4(6)7-2/h1H,5H2,(H2,6,7)
