19
gdb 71373	2.58663	1.76692	1.25038	3.5859	79.88	-0.23	0.0148	0.2448	1048.4071	0.158217	-385.87527	-385.866753	-385.865809	-385.908014	32.65	
C	-0.0692681422	 1.4638263825	 0.0715138893	-0.504063
C	 0.0021721719	-0.0326889755	-0.0229599906	 0.283281
C	-0.644105989	-0.8966757656	-1.1177065714	-0.286332
C	-0.4059851012	-2.1051543513	-0.1736483668	-0.192298
C	-0.2630943909	-1.0770926959	 1.0195780467	-0.166104
C	 1.2001149065	-0.8314723951	 0.5383028154	 0.156349
C	 2.3713069596	-0.2425874749	 1.265113312	-0.514365
C	 1.1277024659	-2.1898164046	-0.0885434758	 0.39547
O	 1.9256196063	-3.0794331193	-0.2102732949	-0.349754
H	 0.5163005942	 1.9378306619	-0.72430329	 0.127993
H	-1.1059961316	 1.8032216958	-0.0290018937	 0.12531
H	 0.3088847873	 1.8327270051	 1.0292488507	 0.124957
H	-1.7077815724	-0.6586202135	-1.2174664351	 0.103342
H	-0.1763124452	-0.9322493045	-2.1086880603	 0.100009
H	-1.0185623121	-3.0016373975	-0.2001840071	 0.091142
H	-0.6257288431	-1.0690973879	 2.0366316813	 0.108768
H	 2.0649735123	 0.5102847806	 1.9970075375	 0.122595
H	 2.9160706471	-1.0296108999	 1.7956263366	 0.141767
H	 3.0716162067	 0.2341628195	 0.5706438764	 0.131931
119.1308	132.2138	175.0837	232.6472	246.7054	249.3476	324.4741	430.8751	479.9762	530.7743	645.3209	686.4004	706.3602	783.4666	824.8445	828.0165	858.3306	905.3749	929.7165	959.9819	989.8657	1017.4247	1069.8106	1084.3286	1118.7674	1129.688	1154.4829	1178.961	1215.6177	1223.4603	1276.5413	1367.6143	1408.0783	1416.6102	1425.9091	1479.7022	1489.3606	1491.9142	1496.7468	1506.495	1866.4794	3028.6649	3031.1531	3036.3661	3088.7241	3090.7974	3097.0604	3106.707	3113.3639	3166.6575	3232.7659
CC12CC3C1C2(C)C3=O	C[C@]12C[C@@H]3[C@H]1[C@@]2(C)C3=O	
InChI=1S/C8H10O/c1-7-3-4-5(7)8(7,2)6(4)9/h4-5H,3H2,1-2H3	InChI=1S/C8H10O/c1-7-3-4-5(7)8(7,2)6(4)9/h4-5H,3H2,1-2H3/t4-,5-,7+,8+/m1/s1
