17
gdb 69668	3.63182	1.4876	1.22146	1.9264	75.13	-0.2338	-0.0086	0.2252	1034.9962	0.13528	-421.754482	-421.746944	-421.746	-421.786328	29.143	
C	-0.0295242647	 1.5476024384	 0.2791974097	-0.508776
C	 0.1178383747	 0.0933012082	-0.0268036447	 0.367687
O	-0.8521895455	-0.8141893483	 0.4996960881	-0.271129
C	 0.5363517483	-1.0769660173	 0.7998546719	-0.163533
C	 1.0040249647	-1.8030904563	-0.443059114	 0.210545
C	 0.8472794222	-2.8743900292	-1.2072856074	-0.219141
C	 0.567963513	-2.3665555808	-2.6212180245	-0.108955
O	 0.2619316533	-0.9614570607	-2.4845989174	-0.27851
C	 0.8352643671	-0.5583641772	-1.2632017886	 0.039034
H	 0.8967894584	 2.0868159244	 0.0579631947	 0.127174
H	-0.8286924277	 1.9861288519	-0.3283950108	 0.141097
H	-0.2826524172	 1.6964265505	 1.3323840343	 0.134351
H	 0.8232035157	-1.1482517408	 1.8410807246	 0.11347
H	 0.7767653249	-3.9187951892	-0.932459336	 0.113749
H	 1.4169460988	-2.5019480195	-3.3109331337	 0.104992
H	-0.3019804493	-2.8698879037	-3.0606961628	 0.12204
H	 1.7743527733	 0.0010242095	-1.4210267534	 0.075905
129.4728	175.6781	201.1183	227.5502	276.6014	338.2993	486.1038	560.6372	617.4146	698.633	723.8214	776.9049	818.5977	830.6521	878.3477	904.034	930.062	972.5896	985.004	1016.2209	1025.3061	1085.5483	1091.095	1121.3093	1187.3811	1201.6488	1216.7672	1223.9926	1280.1566	1327.388	1370.0687	1402.1538	1443.865	1479.7098	1491.2864	1507.2739	1728.8676	2947.4156	2971.994	3037.1917	3046.3634	3101.8625	3120.5498	3205.4843	3218.6803
CC12OC1C1=CCOC21	C[C@]12O[C@H]1[C]1[CH]CO[C@@H]21	
InChI=1S/C7H8O2/c1-7-5-4(2-3-8-5)6(7)9-7/h2,5-6H,3H2,1H3	InChI=1S/C7H8O2/c1-7-5-4(2-3-8-5)6(7)9-7/h2,5-6H,3H2,1H3/t5-,6+,7-/m1/s1
