17
gdb 46886	2.94373	1.54315	1.17478	3.9033	76.72	-0.2339	-0.0553	0.1786	1046.4308	0.137496	-421.823003	-421.815674	-421.81473	-421.854948	28.892	
O	-0.1025785444	 0.7588596736	-1.5432564058	-0.324136
C	-0.0166377946	 1.3527124602	-0.4837254752	 0.33399
C	-1.2954263752	 1.5365517297	 0.3420877232	-0.208648
O	-1.3312075384	 2.6791984673	 1.1700141772	-0.232834
C	-0.6304964824	 2.6655186252	 2.3656657877	 0.127627
C	 0.0243463382	 1.4708796448	 2.9710128439	-0.343302
C	 0.893647185	 2.5995174106	 2.3922317306	-0.113083
C	 1.6586724215	 2.3903064393	 1.1564972106	-0.027242
C	 1.2840766533	 1.8829853625	-0.0333790164	-0.172921
H	-2.110702005	 1.6573636033	-0.3745516333	 0.144289
H	-1.4959288485	 0.6158991926	 0.907827611	 0.121464
H	-1.076404216	 3.3829331328	 3.0470611855	 0.114952
H	-0.008631397	 1.3626800804	 4.0494216876	 0.12808
H	 0.0507987368	 0.5332381628	 2.4297251892	 0.1353
H	 1.3881181857	 3.2314216736	 3.1219894021	 0.096753
H	 2.7011779022	 2.6940354842	 1.2320119521	 0.111606
H	 2.0425791589	 1.7756530769	-0.8039081799	 0.108102
66.2579	214.4024	249.9262	313.5665	370.3357	405.5228	469.1491	519.5945	591.1659	640.7339	709.554	744.8026	775.3219	812.8068	835.7071	866.1958	944.4061	1002.7948	1020.3815	1034.6214	1055.4266	1069.1865	1118.7064	1125.9035	1181.0341	1211.4431	1267.7453	1280.8466	1317.5585	1368.291	1394.3249	1409.3479	1434.6042	1470.5442	1486.1545	1673.6298	1748.8901	3012.8151	3112.8127	3139.3406	3145.4521	3160.4836	3168.4789	3175.9164	3237.4287
O=C1COC2CC2C=C1	O=C1CO[C@H]2C[C@H]2C=C1	
InChI=1S/C7H8O2/c8-6-2-1-5-3-7(5)9-4-6/h1-2,5,7H,3-4H2	InChI=1S/C7H8O2/c8-6-2-1-5-3-7(5)9-4-6/h1-2,5,7H,3-4H2/t5-,7+/m1/s1
