15
gdb 49365	2.02055	1.79949	1.46661	3.0313	69.29	-0.2485	-0.0454	0.2031	967.9826	0.110202	-453.918552	-453.909939	-453.908995	-453.952155	30.155	
N	-0.4089098445	 1.0181600184	-0.3544088472	-0.436731
C	-0.2383835585	-0.1836705731	 0.0167134243	 0.078635
N	-1.2885100956	-0.9043616038	 0.5900158055	-0.068201
C	-2.6648492767	-0.6851745576	 0.163131275	-0.09938
C	-2.9797413342	 0.1821319541	-1.0329196669	 0.156651
O	-2.9374379931	-0.2194856655	-2.1685692159	-0.242852
C	-1.9753766831	-2.010073744	-0.0417284264	-0.128924
C	-1.5852631749	-2.4969751141	-1.4147230212	 0.1653
O	-0.5129380889	-2.2888236258	-1.9196534254	-0.249998
H	 0.4673801105	 1.43294598	-0.665904353	 0.23508
H	 0.7002201301	-0.7405866827	 0.0146837241	 0.128359
H	-3.3699776844	-0.5765381103	 0.986879701	 0.118798
H	-3.3170834389	 1.2053221528	-0.7842867186	 0.114557
H	-2.2628380768	-2.8240542715	 0.6260019116	 0.126331
H	-2.3466071712	-3.1461876868	-1.8935492169	 0.102376
87.6494	117.314	139.7576	166.3394	186.1016	243.9102	334.432	365.2405	394.7476	616.5656	716.9011	737.9302	782.6547	816.449	836.1188	861.8026	982.3756	995.6024	1017.071	1039.7579	1079.434	1099.3181	1142.5347	1223.0317	1336.0787	1354.8862	1396.7421	1407.7176	1412.1748	1427.5702	1695.7581	1808.1699	1824.3987	2924.2364	2964.0144	3098.4799	3115.3254	3117.4976	3507.1083
N=CN1C(C=O)C1C=O	[NH][CH]N1[C@@H](C=O)[C@H]1C=O	
InChI=1S/C5H6N2O2/c6-3-7-4(1-8)5(7)2-9/h1-6H	InChI=1S/C5H6N2O2/c6-3-7-4(1-8)5(7)2-9/h1-6H/t4-,5+,7?
