18
gdb 97150	2.68969	1.53813	1.11085	1.9741	75.72	-0.2403	0.0205	0.2608	1121.1266	0.147419	-439.085502	-439.076939	-439.075995	-439.118692	32.077	
C	 0.0465372283	 1.3586190221	-0.1164277139	-0.332527
N	-0.0520839087	-0.0870225535	-0.2262955278	-0.367328
C	-1.1471291741	-0.667675462	 0.0025189513	 0.392531
O	-2.3370030672	-0.0867054456	 0.3274957295	-0.259597
C	-3.2113511775	-1.0638045444	 0.9454361181	-0.104998
C	-2.6227562047	-2.4251812587	 0.632699522	-0.144156
C	-2.3987199439	-2.7099707346	-0.8360615827	-0.343395
C	-1.2754678532	-2.1497447986	 0.0026882116	 0.351913
O	-0.1162601145	-2.8639489546	 0.2240309242	-0.470038
H	 0.9935566791	 1.6164976181	 0.3679230072	 0.123956
H	 0.0664061193	 1.804982242	-1.1179939034	 0.129316
H	-0.7798859613	 1.8115984049	 0.4434882193	 0.12429
H	-3.2394915988	-0.8703895815	 2.0238460622	 0.120808
H	-4.2115594312	-0.9064875057	 0.5301036528	 0.122161
H	-2.7735981251	-3.2424996681	 1.3260305555	 0.111957
H	-2.2758844012	-3.7527927108	-1.1062256463	 0.130253
H	-2.8868821764	-2.0900121632	-1.5828326196	 0.12065
H	 0.595799691	-2.2207024659	 0.0792332702	 0.294205
92.459	111.3259	179.2469	219.253	230.8782	313.6534	348.8622	374.5539	445.3847	510.2441	570.1249	697.2475	735.6053	749.286	838.1524	855.245	930.6994	939.5513	987.1622	1031.0144	1051.224	1058.2659	1081.2661	1122.983	1125.6908	1143.8719	1166.8597	1222.1273	1241.1446	1307.3882	1373.6774	1411.0717	1433.9712	1450.8075	1493.4501	1495.7959	1497.1177	1517.3151	1802.2171	3016.7899	3037.422	3076.0983	3085.6495	3094.3998	3120.7101	3200.8045	3221.6438	3699.8251
CN=C1OCC2CC12O	CN=C1OC[C@H]2C[C@@]12O	
InChI=1S/C6H9NO2/c1-7-5-6(8)2-4(6)3-9-5/h4,8H,2-3H2,1H3	InChI=1S/C6H9NO2/c1-7-5-6(8)2-4(6)3-9-5/h4,8H,2-3H2,1H3/t4-,6+/m1/s1
