17
gdb 41283	2.89673	2.11183	1.88393	1.8064	70.18	-0.2298	0.0616	0.2914	816.6317	0.137942	-421.722508	-421.71654	-421.715596	-421.752392	25.949	
C	-0.0313255049	 1.4795953129	 0.1298968344	-0.207609
O	 1.4089765863	 1.5080630096	-0.1551074607	-0.34625
C	 1.3813585446	 0.1126727839	-0.4761699113	 0.368567
C	 0.9671469769	-0.3964029107	-1.8893893878	-0.308853
C	-0.1125209823	-1.1470461683	-1.0830477437	-0.154986
C	 0.6091652644	-1.8235899745	 0.1818175041	 0.062218
C	 2.0092000379	-1.1080740504	 0.1934954418	-0.294857
O	-0.1406544931	-0.9575725752	 1.095078394	-0.316172
C	-0.0850696599	-0.050676869	 0.0004189559	 0.338614
H	-0.247290129	 1.8407064884	 1.1397140016	 0.132284
H	-0.6020550215	 2.0560895654	-0.6050725301	 0.118946
H	 0.5302899669	 0.3956869576	-2.5014496367	 0.1135
H	 1.6943374725	-0.9655339733	-2.473588689	 0.099645
H	-0.9912351933	-1.6461543236	-1.4927369186	 0.080629
H	 0.5264177289	-2.8848620292	 0.4127076525	 0.090201
H	 2.7914504174	-1.6010366344	-0.3881580353	 0.100865
H	 2.3326653981	-0.9578282992	 1.2236517388	 0.123257
241.0821	330.3554	386.8556	430.016	495.6192	572.3298	603.5006	673.2513	728.8164	779.6486	808.9231	848.1499	865.192	892.408	904.3061	941.3305	944.2762	954.3348	993.0226	1030.3489	1053.129	1067.7046	1118.4993	1143.3596	1162.6171	1179.7171	1187.5955	1213.1562	1233.915	1270.6048	1280.7012	1295.4638	1308.8688	1339.3847	1477.511	1488.6781	1501.6932	3043.6011	3064.0509	3076.1287	3101.8132	3110.407	3125.601	3136.3664	3145.0695
C1OC23CC4C(C2)OC134	C1O[C@@]23C[C@H]4[C@@H](C2)O[C@@]134	
InChI=1S/C7H8O2/c1-4-5-2-6(1)7(4,9-5)3-8-6/h4-5H,1-3H2	InChI=1S/C7H8O2/c1-4-5-2-6(1)7(4,9-5)3-8-6/h4-5H,1-3H2/t4-,5+,6-,7+/m0/s1
