15
gdb 29168	3.26463	1.36295	0.96221	7.1993	77.32	-0.1724	-0.0242	0.1482	1136.6009	0.113862	-453.988843	-453.980923	-453.979979	-454.020759	31.202	
O	-0.0812756026	 1.3742632033	-0.0224789041	-0.439868
C	 0.0083869171	 0.0115969792	-0.0021403184	 0.368006
C	 1.2267762863	-0.6318593816	 0.0009683454	-0.222048
N	 1.2124194474	-2.0164086656	 0.0212442781	-0.328852
C	 0.1030085678	-2.7503424922	 0.030781197	 0.326332
N	 0.1050768133	-4.1052371793	 0.0929334307	-0.556499
H	 0.8415381507	-4.6428584844	-0.3353045795	 0.252716
H	-0.8540563048	-4.4315618805	-0.0311709052	 0.280379
C	-1.2303382942	-2.1176769942	 0.0293283294	 0.335469
O	-2.2192502967	-2.8794294418	 0.0306105003	-0.480294
C	-1.1952378087	-0.7039169278	 0.009106666	-0.313549
H	 0.8030467781	 1.7541730079	-0.0309538935	 0.29434
H	 2.1957096126	-0.1576526646	-0.0111558824	 0.11021
H	 2.1056408506	-2.4890983312	 0.0463629955	 0.265075
H	-2.1293920671	-0.1558823073	-0.0109193593	 0.108585
139.0182	208.5542	289.677	294.9486	347.7428	359.0919	371.369	425.1914	457.689	523.0645	544.739	599.6822	654.8761	674.8983	695.8553	726.9959	771.6271	810.5642	865.8681	1002.0708	1070.3261	1183.5141	1203.7917	1252.0667	1272.5497	1316.5161	1377.0267	1493.3803	1544.3391	1563.1189	1601.9755	1661.7835	1701.8858	3209.9018	3243.7274	3444.5826	3591.3162	3660.0836	3824.4294
OC1=CNC(=[NH2+])C([O-])=C1	OC1=CN[C](N)C(=O)[CH]1	
InChI=1S/C5H6N2O2/c6-5-4(9)1-3(8)2-7-5/h1-2,8-9H,(H2,6,7)	InChI=1S/C5H6N2O2/c6-5-4(9)1-3(8)2-7-5/h1-2,7-8H,6H2
