19
gdb 79876	2.53399	1.74404	1.42819	2.7145	74.33	-0.2338	0.0528	0.2866	996.9992	0.159874	-422.960175	-422.9525	-422.951556	-422.99179	31.091	
C	-0.0283648185	 1.5513713611	 0.0167915646	-0.498389
C	-0.0080698858	 0.0491037035	-0.0017983791	 0.273742
C	-0.8778716152	-0.7861367682	 0.9016077164	 0.073204
O	-1.7911311244	-1.7810217102	 0.5516309252	-0.43946
C	 0.6001502921	-0.9731095175	 1.0442841997	-0.197041
C	 1.1906201237	-1.761804149	-0.1318301639	 0.11491
O	 0.3602362677	-2.8277875766	-0.7132976471	-0.329788
C	-0.0587846002	-1.9424481551	-1.80336282	-0.123459
C	 0.6622396855	-0.7484854405	-1.1514559706	-0.126516
H	 0.9572985668	 1.9743009413	-0.2111028392	 0.116168
H	-0.7356913881	 1.9412795742	-0.7259672243	 0.126624
H	-0.3367582605	 1.931097571	 0.9962233968	 0.122534
H	-1.2939167096	-0.1736161879	 1.7008094234	 0.101491
H	-1.2654004953	-2.5366442308	 0.2495070493	 0.299138
H	 1.1250218217	-0.7973026245	 1.9776762261	 0.08294
H	 2.2372236082	-2.0604344898	-0.0500109524	 0.088782
H	 0.3916790856	-2.2686629133	-2.7473724331	 0.1079
H	-1.1458808281	-1.8963700582	-1.8991507834	 0.127289
H	 1.3362329143	-0.1543232695	-1.7675288086	 0.079929
175.208	198.5737	238.5803	260.8936	283.1449	334.4262	380.2859	526.0555	590.3364	635.8903	648.9414	710.1966	751.6902	828.7133	864.4013	890.595	890.8233	924.4678	960.3048	969.5253	992.9199	1016.1057	1047.8013	1085.7164	1101.9486	1157.0729	1176.5158	1193.5714	1209.6132	1235.2432	1268.5103	1299.5681	1318.0702	1328.5138	1352.3169	1413.9041	1423.6474	1480.0736	1487.661	1496.3904	1510.5045	3016.7609	3037.8038	3073.4025	3092.2086	3096.0978	3108.4354	3116.5859	3119.4412	3160.3955	3696.6499
CC12C(O)C1C1OCC21	C[C@]12[C@@H](O)[C@H]1[C@H]1OC[C@@H]21	
InChI=1S/C7H10O2/c1-7-3-2-9-5(3)4(7)6(7)8/h3-6,8H,2H2,1H3	InChI=1S/C7H10O2/c1-7-3-2-9-5(3)4(7)6(7)8/h3-6,8H,2H2,1H3/t3-,4-,5+,6+,7-/m1/s1
