19
gdb 108190	3.22443	1.39933	1.30262	2.6735	74.92	-0.2347	0.0126	0.2472	1044.0448	0.160896	-423.014587	-423.006936	-423.005991	-423.046509	30.703	
O	-0.0952917247	 1.4185649209	 0.0016751462	-0.426513
C	-0.0161171168	-0.0020271856	 0.0231986651	-0.194908
C	-1.4265993912	-0.5414674963	 0.046100167	 0.267295
C	-2.3065613292	-0.1744720699	-1.1943987801	-0.08825
O	-3.3929857166	-1.1061640157	-1.144816654	-0.279979
C	-3.1542697936	-1.9281021908	 0.0348416156	 0.052306
C	-1.6269521415	-2.0822354502	 0.0027248143	-0.277177
C	-3.3362318725	-1.0316425001	 1.2512458347	-0.094159
C	-2.2964914539	-0.1906000993	 1.2461262901	-0.105371
H	 0.7988916301	 1.7721960813	 0.0033252807	 0.290518
H	 0.5111839983	-0.3845266763	-0.8660911971	 0.086126
H	 0.5317084606	-0.3558815804	 0.9109648463	 0.089835
H	-2.6780504435	 0.8533980807	-1.1508295223	 0.109996
H	-1.7471938117	-0.3124929799	-2.1297409527	 0.091688
H	-3.7767506409	-2.8174160988	-0.0463791289	 0.072262
H	-1.2676310769	-2.5514068805	-0.9182396348	 0.097245
H	-1.2167245277	-2.5874050368	 0.8789111417	 0.10113
H	-4.2105411467	-1.0073738797	 1.8887013835	 0.099895
H	-2.1260125615	 0.6743198474	 1.8739102449	 0.108061
98.0093	175.6641	246.3627	284.7961	328.3526	391.0083	421.3725	493.0266	521.0618	647.3769	678.1774	751.4809	808.2423	811.3574	874.8089	902.4303	925.4986	943.2998	954.9883	983.6909	993.8512	1034.9202	1056.8795	1092.2277	1101.5949	1120.4556	1176.3153	1208.5767	1218.2933	1241.7943	1269.63	1288.9664	1289.8561	1301.0454	1348.6753	1378.7999	1463.8002	1488.9829	1515.4549	1522.1337	1634.2579	2962.649	2993.3476	3009.0786	3059.2731	3079.6542	3127.6144	3139.1026	3205.2372	3230.4058	3831.192
OCC12COC(C1)C=C2	OC[C@@]12CO[C@@H](C1)C=C2	
InChI=1S/C7H10O2/c8-4-7-2-1-6(3-7)9-5-7/h1-2,6,8H,3-5H2	InChI=1S/C7H10O2/c8-4-7-2-1-6(3-7)9-5-7/h1-2,6,8H,3-5H2/t6-,7+/m1/s1
