21
gdb 71121	2.76309	1.82715	1.5705	1.3807	80.65	-0.2281	0.0815	0.3096	966.8198	0.185343	-387.108109	-387.10073	-387.099786	-387.139367	30.862	
C	-0.0611715076	 1.4978250693	 0.0155468803	-0.445953
C	 0.0480953139	-0.0156802268	-0.0334558574	 0.365591
C	 0.9233731335	-0.5722107514	-1.1820100835	-0.245839
C	 1.1186457623	-2.0213371609	-0.7633816316	-0.067405
C	 0.9542185345	-2.0821314108	 0.7478004368	-0.067411
C	 0.6610128802	-0.6691870524	 1.2284022428	-0.245855
C	-0.1111989653	-2.649498254	-0.1567077088	-0.056348
C	-1.4332939072	-1.915289337	-0.270942275	-0.093233
O	-1.2942709735	-0.4971584931	-0.1989868469	-0.309334
H	 0.9261454114	 1.9518155841	 0.141135971	 0.10915
H	-0.5066246277	 1.8778708796	-0.9083499923	 0.120639
H	-0.6977272984	 1.8071844336	 0.8495388321	 0.120632
H	 0.418394601	-0.4469955974	-2.1453027606	 0.099748
H	 1.8857372947	-0.0488466996	-1.2294963745	 0.092749
H	 1.8387508141	-2.6453836968	-1.2801591134	 0.07764
H	 1.551938887	-2.751400008	 1.355955948	 0.07764
H	 1.5861203399	-0.1595290909	 1.5229071261	 0.092755
H	-0.0401641856	-0.6165168606	 2.0675652199	 0.09975
H	-0.1953651849	-3.730870795	-0.2093824091	 0.082896
H	-1.9222024881	-2.1663428051	-1.2239726129	 0.0961
H	-2.1130219045	-2.2367902466	 0.532143979	 0.096089
136.6463	208.7698	277.4146	281.8296	402.8665	417.2065	456.911	479.8964	567.722	652.9429	696.0433	777.3413	795.201	812.0396	857.4877	863.239	916.2743	956.8502	975.7305	990.1831	1015.5005	1030.4833	1036.0648	1078.2327	1090.339	1115.433	1138.4436	1168.5195	1169.4154	1209.5915	1222.9446	1254.0549	1256.076	1294.8546	1334.2552	1341.122	1351.668	1401.4874	1408.9974	1447.7564	1477.9567	1482.4106	1494.3813	1499.5301	1529.4691	2982.7919	3003.3841	3029.0906	3033.7305	3043.1611	3079.7503	3081.3339	3115.8145	3117.4907	3151.4615	3167.566	3179.0704
CC12CC3C(C1)C3CO2	C[C@@]12C[C@H]3[C@@H](C1)[C@H]3CO2	
InChI=1S/C8H12O/c1-8-2-5-6(3-8)7(5)4-9-8/h5-7H,2-4H2,1H3	InChI=1S/C8H12O/c1-8-2-5-6(3-8)7(5)4-9-8/h5-7H,2-4H2,1H3/t5-,6+,7-,8+
