19
gdb 121581	4.49868	0.6333	0.56279	1.2478	73.38	-0.2401	-0.0819	0.1582	1918.2832	0.15473	-460.192361	-460.181348	-460.180404	-460.230521	36.882	
C	 0.0213029302	 1.4949656168	 0.0095569602	-0.473681
C	 0.0431478897	-0.0132065163	 0.0014682832	 0.309231
O	 1.0516472149	-0.6799673333	-0.0119516892	-0.275847
C	-1.3403400842	-0.7140698285	 0.0109651257	 0.263829
O	-2.3468294602	-0.0437391738	 0.0242649741	-0.279864
C	-1.3217197189	-2.2261157986	 0.0026430998	-0.303024
C	-2.7145855705	-2.8498145424	 0.0125979113	-0.170804
C	-2.6643993819	-4.3716665211	 0.0039279968	-0.077997
O	-4.000034617	-4.8484540123	 0.0141850401	-0.419639
H	 1.0417534535	 1.8781157454	 0.0015913242	 0.140938
H	-0.5347883255	 1.8658078418	-0.8573389812	 0.156825
H	-0.5176867804	 1.856654414	 0.8910017699	 0.156815
H	-0.7344551051	-2.543608086	-0.8700092796	 0.138284
H	-0.7179266095	-2.5529255469	 0.8604521524	 0.138283
H	-3.269835101	-2.5154003047	 0.8949206273	 0.120621
H	-3.2865650729	-2.5059762496	-0.855297619	 0.120616
H	-2.1211065825	-4.7221477291	-0.889741145	 0.084471
H	-2.1040907702	-4.731685026	 0.8831856057	 0.084469
H	-3.9776428687	-5.8097185394	 0.0085841032	 0.286476
41.6831	45.1122	79.3389	96.5391	99.8727	132.118	224.0548	264.4951	279.9489	330.1897	354.4153	456.7763	537.3963	588.7999	601.788	753.2574	784.1442	856.3745	913.9049	1001.5166	1025.9425	1046.6896	1071.6258	1092.6308	1104.6302	1202.7083	1220.4396	1258.3216	1285.6049	1310.13	1316.9287	1382.8276	1394.6583	1436.8164	1451.7905	1459.1983	1468.098	1493.7451	1528.1499	1801.3665	1808.238	2954.3292	2978.5313	3026.0114	3047.7913	3049.7434	3056.888	3099.2899	3110.9646	3162.3648	3830.331
CC(=O)C(=O)CCCO	CC(=O)C(=O)CCCO	
InChI=1S/C6H10O3/c1-5(8)6(9)3-2-4-7/h7H,2-4H2,1H3	InChI=1S/C6H10O3/c1-5(8)6(9)3-2-4-7/h7H,2-4H2,1H3
