17
gdb 70564	2.6607	1.56875	1.17468	2.7769	68.1	-0.2298	-0.0189	0.2109	1049.6965	0.135176	-458.958367	-458.950463	-458.949519	-458.990733	30.904	
O	 0.0708765342	 1.215464724	 0.4780718606	-0.46478
C	 0.0329598667	-0.0633837261	-0.0842895583	 0.34888
C	-0.7458492554	-0.2743260867	-1.3675450454	-0.374557
C	-1.300883437	-0.7467461753	-0.0486322644	 0.055828
O	-1.2531229604	-2.1227183663	 0.1976195752	-0.247599
C	-0.5924682717	-2.4034619552	 1.4225143475	-0.175728
C	 0.838992158	-1.8554734131	 1.4594437331	 0.366169
O	 1.5875165084	-2.1092571043	 2.3698087439	-0.301395
C	 1.2046123435	-0.9824157291	 0.2636441737	-0.371255
H	 0.69279599	 1.7492928516	-0.029249285	 0.286635
H	-1.214798944	 0.5998546607	-1.8048996475	 0.121171
H	-0.4052776826	-1.0296620753	-2.0672668433	 0.124168
H	-2.1468062472	-0.2171194964	 0.387925635	 0.103337
H	-1.1434725606	-2.0001942145	 2.2865271023	 0.127514
H	-0.5577312696	-3.4913151638	 1.5293884997	 0.142598
H	 1.441153012	-1.6472157368	-0.575505348	 0.133087
H	 2.1024271757	-0.4095559634	 0.5044961708	 0.125927
76.3112	157.6247	254.7572	316.3735	345.7785	377.9201	430.121	456.0492	466.5254	479.5503	541.483	611.3178	758.0635	772.6492	836.6777	893.5309	917.6577	936.494	1000.689	1025.0174	1052.7593	1067.6987	1095.9017	1135.1522	1173.4927	1206.403	1245.8999	1264.1992	1279.7277	1313.0153	1331.8176	1363.4903	1409.0843	1436.9507	1459.7495	1482.0623	1831.7521	2992.949	3043.9668	3098.9678	3116.5722	3119.7418	3136.6333	3233.2218	3789.6684
OC12CC1OCC(=O)C2	O[C@]12C[C@H]1OCC(=O)C2	
InChI=1S/C6H8O3/c7-4-1-6(8)2-5(6)9-3-4/h5,8H,1-3H2	InChI=1S/C6H8O3/c7-4-1-6(8)2-5(6)9-3-4/h5,8H,1-3H2/t5-,6-/m1/s1
