17
gdb 35685	2.47202	1.48726	1.09633	2.1928	73.75	-0.2515	0.0291	0.2806	1117.7865	0.134412	-421.745071	-421.736672	-421.735728	-421.778815	30.855	
C	-0.1704278379	-1.1521470207	-0.3215264689	-0.45466
C	-0.1357904189	 0.0305317061	-0.1064882991	 0.341459
C	-0.0729034259	 1.4494211067	 0.1627782882	-0.327967
C	 0.0544614287	 1.9118560725	 1.6393243343	-0.086681
O	 1.2460846142	 2.6631709682	 1.3378916151	-0.302153
C	 1.2900224687	 2.1875118976	-0.009285875	 0.370226
C	 2.5673896439	 1.4960816662	-0.5145412692	-0.136013
O	 2.6465058763	 2.3966095459	-1.641286531	-0.273104
C	 1.5568316303	 3.1942352192	-1.1391827679	-0.129152
H	-0.2105563483	-2.1958703837	-0.5142303286	 0.204706
H	-0.8737653742	 1.9751475851	-0.3658659407	 0.115807
H	-0.7532640268	 2.5496798336	 2.0123153567	 0.11419
H	 0.2456774476	 1.1015665231	 2.3505403588	 0.117442
H	 3.4114182681	 1.6133710034	 0.1769708625	 0.110171
H	 2.4737210275	 0.4490390685	-0.8216715771	 0.118813
H	 0.7607704079	 3.330196098	-1.8817910542	 0.104074
H	 1.8852527488	 4.1731276204	-0.7655674039	 0.112842
58.3003	81.9329	142.2612	187.7618	265.1708	346.1417	391.8712	467.7394	520.442	556.8308	630.337	642.8861	751.5788	821.6397	896.9156	902.4448	933.6018	990.2693	1019.138	1028.3129	1040.4481	1077.8387	1116.264	1146.8311	1149.535	1164.7777	1196.9555	1227.3167	1243.9321	1297.4333	1334.521	1360.0594	1378.0286	1492.2991	1519.1361	1525.0619	2235.9065	3006.7687	3022.8664	3036.1295	3057.9145	3061.0327	3080.7553	3090.4754	3502.1729
C#CC1COC11COC1	C#C[C@H]1COC21COC2	
InChI=1S/C7H8O2/c1-2-6-3-9-7(6)4-8-5-7/h1,6H,3-5H2	InChI=1S/C7H8O2/c1-2-6-3-9-7(6)4-8-5-7/h1,6H,3-5H2/t6-/m0/s1
