23
gdb 101681	4.40894	0.65547	0.59673	1.2308	79.13	-0.2579	0.0534	0.3113	1904.0777	0.203931	-462.563829	-462.552897	-462.551953	-462.600043	40.174	
C	 0.0334079584	 1.56934671	 0.0967671764	-0.385565
C	 0.0113553776	 0.041280361	 0.0126297205	-0.167081
C	 0.698674582	-0.4983211043	-1.2420148174	 0.142526
O	 2.050293629	-0.0601068413	-1.2038768906	-0.44999
C	 0.604004113	-2.0307536538	-1.3372142324	-0.237547
C	 1.1866072895	-2.6125686784	-2.6252488076	 0.075275
O	 2.5932530618	-2.314754283	-2.7767012714	-0.44348
C	 0.9987346544	-4.1247371282	-2.7554784774	-0.060428
O	 1.5788417229	-4.6117199939	-3.9448207548	-0.422612
H	 1.061000479	 1.9391249306	 0.0741201052	 0.138656
H	-0.5037509416	 2.0185248712	-0.7462837939	 0.108879
H	-0.44083858	 1.9194354582	 1.0186212239	 0.106783
H	 0.5146965034	-0.3873404426	 0.888722237	 0.098243
H	-1.0231291444	-0.3231172428	 0.0292355677	 0.088734
H	 0.1895493151	-0.0718999243	-2.1264693289	 0.05878
H	 2.4954213521	-0.4577974358	-1.9634041708	 0.284975
H	 1.1133640893	-2.4731372637	-0.4688074702	 0.095043
H	-0.4499685734	-2.3300489635	-1.2731764032	 0.104386
H	 0.7241309669	-2.1337912272	-3.4967260788	 0.103602
H	 3.0380609364	-2.6191703715	-1.9748852175	 0.288676
H	 1.4266762032	-4.617814804	-1.8626056947	 0.074918
H	-0.0680552001	-4.3718847035	-2.7833703959	 0.111319
H	 2.4245829755	-4.1529145192	-4.0284904653	 0.285909
72.0363	78.3858	115.4081	122.6628	169.2476	224.546	240.6046	289.7988	314.2874	333.6669	349.4835	462.7041	469.041	482.4974	538.1581	583.9877	656.4053	780.5336	846.8393	856.908	903.9092	973.3604	1013.8997	1024.9564	1058.0302	1073.816	1089.7861	1102.2553	1115.5872	1163.7542	1199.8624	1216.6011	1266.1832	1283.7846	1318.1649	1333.7477	1347.1216	1375.4427	1387.157	1394.0538	1407.2868	1421.2465	1442.3751	1457.5	1467.9871	1478.3243	1495.7791	1506.1126	1509.8484	2926.1999	2932.7833	3008.1339	3024.3151	3036.6899	3046.7993	3056.8999	3064.3715	3074.4679	3100.1244	3129.9317	3754.8385	3769.9161	3774.8783
CCC(O)CC(O)CO	CC[C@@H](O)C[C@@H](O)CO	
InChI=1S/C6H14O3/c1-2-5(8)3-6(9)4-7/h5-9H,2-4H2,1H3	InChI=1S/C6H14O3/c1-2-5(8)3-6(9)4-7/h5-9H,2-4H2,1H3/t5-,6-/m1/s1
