18
gdb 99726	1.55186	1.16094	0.77803	0.6101	72.42	-0.1835	0.0411	0.2245	1498.8976	0.144837	-472.447118	-472.435447	-472.434503	-472.487965	38.25	
C	-0.4850277093	 0.9882817019	 0.3951550776	-0.312059
N	 0.6504751112	 0.1002339361	 0.6404532994	-0.305675
C	 1.2191861505	-0.4801417203	-0.5355230844	-0.188315
C	 1.3462602558	-1.8205402662	-0.6358526768	 0.339523
N	 2.0537745697	-2.4667142823	-1.6551533317	-0.552544
N	 0.7899841457	-2.7026292183	 0.2908743416	-0.552987
H	 0.441184483	-2.1798976775	 1.0872280283	 0.248057
H	 1.4357538139	-3.4298277572	 0.574321974	 0.239389
C	-0.8902647899	-0.7625479024	-3.204131543	 0.587721
O	-1.8437944647	-0.405894439	-2.6438791278	-0.287683
O	 0.0475006985	-1.118961829	-3.7948158569	-0.307341
H	-0.2573701415	 1.8232891603	-0.2905511932	 0.090216
H	-1.3059266546	 0.4158660134	-0.0454675095	 0.136361
H	-0.8299605899	 1.4134106175	 1.343889133	 0.106897
H	 1.3558694047	 0.6061405032	 1.1689568717	 0.218135
H	 1.5711463939	 0.1615268427	-1.3464327224	 0.048288
H	 2.2985086069	-1.8435887558	-2.4135948888	 0.249434
H	 1.5503086362	-3.2685428572	-2.0175487411	 0.242582
15.095	23.4934	61.2544	64.2658	88.9512	95.4585	177.2653	203.6536	290.2047	355.0549	391.2784	438.6048	472.6767	566.3378	604.6549	668.4434	686.3308	725.3834	791.2544	814.2466	841.2928	929.6061	995.2581	1124.6453	1145.8782	1162.0626	1171.3852	1219.7397	1334.4445	1376.7941	1437.3353	1456.1044	1460.4226	1490.32	1515.7708	1621.5253	1637.5709	1740.9655	2430.345	2951.2649	3060.4722	3081.188	3112.8598	3474.0312	3510.5434	3524.6745	3609.4397	3626.1688
CNC(C(N)=[NH2+])C([O-])=O	CN[CH]C(=[NH2])N.C(=O)=O	
InChI=1S/C4H9N3O2/c1-7-2(3(5)6)4(8)9/h2,7H,1H3,(H3,5,6)(H,8,9)	InChI=1S/C3H9N3.CO2/c1-6-2-3(4)5;2-1-3/h2,6H,4-5H2,1H3;
