17
gdb 64973	3.86911	0.97053	0.83348	2.673	75.75	-0.2427	-0.019	0.2238	1365.949	0.131963	-421.790914	-421.7814	-421.780455	-421.825785	35.019	
O	 0.0108331831	 1.3968419353	-0.0373817746	-0.453482
C	-0.0020612999	-0.0020445511	 0.0312694412	 0.273342
C	-0.6298076436	-0.6749975918	 1.2385133712	-0.303786
C	-1.368644796	-0.6516258732	-0.0639361083	-0.267781
C	 1.1221562668	-0.72978296	-0.6523658418	 0.317557
O	 1.1996184528	-1.9352758124	-0.6268272072	-0.306045
C	 2.1354302269	 0.1615136727	-1.3871486541	-0.497331
C	 3.1639438696	-0.5740750054	-2.1003855444	 0.323975
C	 4.0184743216	-1.1733299124	-2.693652853	-0.419719
H	 0.5395032792	 1.7341754816	 0.6938031528	 0.289212
H	-0.1826866244	-1.6099947748	 1.5545302003	 0.14424
H	-0.9696958075	-0.0114482817	 2.0259849443	 0.119529
H	-2.1970932429	 0.0386945658	-0.1682179469	 0.131711
H	-1.4294309706	-1.5718199936	-0.632153474	 0.143087
H	 1.5739447028	 0.8236737685	-2.0582407463	 0.167583
H	 2.583837214	 0.8406851472	-0.648739061	 0.141444
H	 4.7703170083	-1.7091830247	-3.2177854183	 0.196467
43.2461	70.0952	120.3181	232.2095	254.0647	302.6673	319.9847	330.4291	396.6995	406.394	445.0897	568.5714	583.436	627.9751	644.1355	779.2449	787.9428	851.1636	855.6985	940.3047	966.5591	966.8818	1008.5782	1046.9343	1081.5472	1091.0543	1202.4743	1208.6346	1263.7672	1286.8432	1345.529	1352.8989	1424.4482	1437.8986	1472.1125	1802.2096	2250.1233	3020.6226	3054.1211	3139.1846	3148.2041	3235.1729	3251.1828	3508.1004	3800.3337
OC1(CC1)C(=O)CC#C	OC1(CC1)C(=O)CC#C	
InChI=1S/C7H8O2/c1-2-3-6(8)7(9)4-5-7/h1,9H,3-5H2	InChI=1S/C7H8O2/c1-2-3-6(8)7(9)4-5-7/h1,9H,3-5H2
