27
gdb 76332	1.72951	1.66101	1.14112	0.0758	94.96	-0.2667	0.0688	0.3356	1301.7024	0.250282	-353.564923	-353.553889	-353.552945	-353.599543	42.968	
C	-0.6409789434	 1.3429251495	-0.3315080757	-0.404791
C	-0.0991455109	-0.0822618529	-0.216748246	-0.023019
C	 1.2568206474	-0.3898502972	-0.9346093103	 0.00426
C	 1.7436775784	 0.500372247	-2.0714803222	-0.418294
C	 1.9934197377	-0.3909236918	 0.454147012	 0.311458
C	 2.900087487	-1.5979478922	 0.6978318328	-0.449388
C	 2.7672593682	 0.8952345429	 0.7635776931	-0.448321
C	 0.5796809862	-0.4805468463	 1.1357116774	 0.004257
C	 0.278945084	 0.3042127674	 2.4068156322	-0.418289
H	 0.091845609	 2.1078573179	-0.058279858	 0.115691
H	-0.963033174	 1.5526667529	-1.3572056219	 0.111838
H	-1.5113955626	 1.4791757412	 0.3193193139	 0.11184
H	-0.9038677183	-0.7653386974	-0.5098722079	 0.058568
H	 1.2261401914	-1.422827949	-1.3012282652	 0.061278
H	 1.7832291949	 1.5563091868	-1.7895330621	 0.113047
H	 2.7482184992	 0.2075364229	-2.3973387879	 0.110634
H	 1.0825864968	 0.4168779385	-2.9415609684	 0.110539
H	 3.7922711426	-1.5620007702	 0.0606148267	 0.107276
H	 3.2431345541	-1.6355965591	 1.7390962919	 0.107277
H	 2.3763741161	-2.536208429	 0.4853542356	 0.105563
H	 2.1759859809	 1.8014072724	 0.6099454564	 0.113307
H	 3.1083790446	 0.899672311	 1.8048689575	 0.109887
H	 3.6566362912	 0.9731551756	 0.1282772048	 0.109889
H	 0.3653463281	-1.5381216982	 1.330618119	 0.061277
H	 0.4497651007	 1.3777617597	 2.2869207404	 0.113046
H	-0.7656643126	 0.1692428327	 2.7095162192	 0.110538
H	 0.9051093028	-0.0391935753	 3.2380976627	 0.110633
97.6934	199.2491	206.171	219.6642	230.2125	232.3622	238.2515	244.6496	253.6611	263.875	297.3957	351.386	391.3204	476.3226	486.6461	524.626	640.7494	720.926	764.0364	779.5457	845.0432	948.8191	955.5841	977.8955	983.464	1013.0269	1026.7352	1030.077	1040.6148	1075.7179	1140.0926	1143.8913	1191.4887	1201.1354	1219.8816	1241.1191	1268.5935	1285.5122	1321.6678	1349.1319	1375.8961	1389.726	1400.8667	1408.9564	1410.0624	1414.3505	1430.3774	1480.4003	1484.7673	1489.71	1489.9415	1495.8949	1498.2498	1505.9316	1507.4248	1512.1031	1513.9302	3012.7989	3018.028	3022.0154	3027.6462	3030.0308	3031.3095	3033.9143	3043.7923	3075.2168	3084.0144	3085.6133	3088.2893	3090.1819	3093.1652	3104.1859	3106.3742	3109.1721	3118.3582
CC1C(C)C(C)(C)C1C	C[C@H]1[C@@H](C)C(C)(C)[C@H]1C	
InChI=1S/C9H18/c1-6-7(2)9(4,5)8(6)3/h6-8H,1-5H3	InChI=1S/C9H18/c1-6-7(2)9(4,5)8(6)3/h6-8H,1-5H3/t6-,7+,8-
