17
gdb 26534	2.28106	1.844	1.0281	6.7339	79.79	-0.2025	-0.0028	0.1997	1114.67	0.137711	-418.074966	-418.066455	-418.065511	-418.107767	32.423	
C	-0.0053918885	 1.526467349	 0.0116541414	-0.523869
C	-0.0123375508	 0.0212592248	 0.018525889	 0.08689
C	-1.1753683767	-0.6942362878	 0.031669638	 0.316861
N	-2.453800481	-0.1386170885	 0.1243416433	-0.587259
N	-1.1651189341	-2.0706391606	 0.0045596534	-0.380297
C	 0.0144532439	-2.7728630964	-0.0142620794	 0.011861
C	 1.2010077162	-2.1340620788	-0.0294244507	-0.238457
C	 1.2821148185	-0.6714706465	-0.0017216383	 0.328431
O	 2.3574612693	-0.0713858628	-0.0139088158	-0.411375
H	 1.0254338924	 1.8545929591	-0.1355837587	 0.164043
H	-0.621652751	 1.9452562041	-0.7951310976	 0.105993
H	-0.3613963671	 1.9547743058	 0.9575713272	 0.121239
H	-2.4441433429	 0.8680078973	 0.0421052497	 0.262346
H	-3.1243504612	-0.5352095116	-0.5234597049	 0.248324
H	-2.0291005996	-2.5558853461	 0.1824484455	 0.258751
H	-0.0906040157	-3.8511628491	-0.022174497	 0.128527
H	 2.1286312583	-2.6911689419	-0.0600574553	 0.107991
108.9141	129.2706	197.8513	240.4578	287.1218	307.5312	354.5948	422.3463	488.0266	505.0693	533.5183	550.9075	620.5419	679.8044	730.783	762.2998	839.5758	849.2596	925.0621	947.7275	1052.6913	1059.0351	1092.6762	1153.5749	1214.6693	1252.7025	1280.301	1362.5543	1395.7061	1426.8307	1485.6445	1504.7567	1551.6282	1631.4581	1653.8304	1695.6003	1710.7182	3006.0137	3051.4253	3131.3623	3199.7188	3223.4162	3536.6194	3645.6114	3648.774
CC1=C(N)NC=CC1=O	Cc1c(N)[nH]ccc1=O	
InChI=1S/C6H8N2O/c1-4-5(9)2-3-8-6(4)7/h2-3H,1H3,(H3,7,8,9)	InChI=1S/C6H8N2O/c1-4-5(9)2-3-8-6(4)7/h2-3H,1H3,(H3,7,8,9)
