17
gdb 15384	3.85144	1.09251	0.92412	3.7298	69.7	-0.2963	-0.0022	0.2941	1263.1198	0.140854	-363.858743	-363.850098	-363.849154	-363.892779	30.241	
C	-0.1481387739	 1.5199733717	 0.0099642201	-0.384246
C	-0.1288871116	-0.001367324	-0.154262028	-0.165554
C	 1.045359431	-0.487736357	-1.0167071625	-0.222575
C	 1.0535560754	-1.986635919	-1.165825423	 0.074683
O	 0.091440547	-2.5651323591	-2.0518803166	-0.231894
C	 1.4700419817	-2.6885521788	-2.4015171089	-0.108028
C	 1.9156347832	-1.9555951778	-3.5677726977	 0.303767
N	 2.2965487956	-1.387360855	-4.4994860519	-0.327643
H	 0.766816453	 1.8790826907	 0.494066787	 0.116569
H	-0.2272627393	 2.0209722329	-0.9608264967	 0.12356
H	-0.9968260976	 1.8408121772	 0.6212041526	 0.117945
H	-0.0778435519	-0.479440422	 0.83275663	 0.098009
H	-1.0648722429	-0.3403841872	-0.6132190103	 0.11937
H	 1.0003244373	-0.0248736151	-2.0083210675	 0.128737
H	 1.9967730031	-0.1795957245	-0.5630274802	 0.110672
H	 1.183934079	-2.554065489	-0.2418727467	 0.107762
H	 1.878932391	-3.694990624	-2.3296549097	 0.138867
64.9743	81.6026	104.7186	186.5439	235.8709	246.4565	327.5869	380.1455	471.8328	579.4556	614.1574	743.7861	809.5616	813.8085	891.4403	906.8079	968.3064	1013.206	1051.8454	1078.1692	1112.9296	1156.2053	1176.4879	1265.0262	1278.8902	1303.7429	1328.5322	1374.3865	1393.7839	1413.8863	1458.7323	1474.2131	1492.4689	1500.0834	1509.2082	2359.9631	3021.1309	3027.4177	3032.8155	3059.7677	3079.9969	3096.3572	3102.4053	3108.1035	3131.0478
CCCC1OC1C#N	CCC[C@H]1O[C@H]1C#N	
InChI=1S/C6H9NO/c1-2-3-5-6(4-7)8-5/h5-6H,2-3H2,1H3	InChI=1S/C6H9NO/c1-2-3-5-6(4-7)8-5/h5-6H,2-3H2,1H3/t5-,6+/m1/s1
