13
gdb 131311	5.49118	1.36824	1.09532	3.212	64.91	-0.2081	0.0317	0.2397	998.4894	0.092789	-448.953964	-448.947407	-448.946462	-448.98471	25.605	
O	-0.0573537956	 1.2686809876	 0.0105377647	-0.409862
C	 0.0377519157	-0.0612419014	 0.0023915841	 0.489067
N	 1.1493916553	-0.7471929936	-0.0081315952	-0.369962
N	 0.6828374544	-2.0511815939	-0.0125967666	 0.031718
C	 1.1639235411	-3.3452703398	-0.0229107225	-0.145258
C	 0.01970418	-4.1148470154	-0.0203230115	-0.092703
N	-1.1437529466	-3.3557419335	-0.0089203004	-0.402865
C	-0.6721508126	-2.1359336205	-0.0048620018	 0.49583
N	-1.1037177779	-0.8171754727	 0.0048401014	-0.461111
H	 0.8425199022	 1.6212674319	 0.0067816933	 0.326846
H	 2.2132052456	-3.5789100155	-0.0305980334	 0.135365
H	-0.0333900242	-5.1927145403	-0.0260843911	 0.108802
H	-2.0486193675	-0.4773656229	 0.013894659	 0.294134
141.9878	278.6231	337.7401	343.3217	381.8049	407.1379	551.8901	608.9007	618.4831	683.4675	700.2962	742.6039	796.0737	829.1579	843.6031	961.0054	1037.2223	1074.7032	1152.5827	1182.4693	1206.0514	1272.4956	1304.9881	1404.7143	1447.0142	1498.2893	1571.3726	1644.0205	1650.9095	3253.9186	3304.4849	3702.6075	3795.8391
OC1=NN2C=CN=C2N1	Oc1nn2ccnc2[nH]1	
InChI=1S/C4H4N4O/c9-4-6-3-5-1-2-8(3)7-4/h1-2H,(H2,5,6,7,9)	InChI=1S/C4H4N4O/c9-4-6-3-5-1-2-8(3)7-4/h1-2H,(H2,5,6,7,9)
