21
gdb 35853	2.06485	1.6981	1.16612	0.6776	87.41	-0.2545	0.0527	0.3073	1152.4741	0.183024	-349.924384	-349.915704	-349.91476	-349.958327	34.169	
C	 0.02419927	-1.2706384137	 0.2982246285	-0.510631
C	 0.0257190429	-0.0762480584	 0.1542386116	 0.371176
C	 0.0246280234	 1.3750684832	-0.0192541155	-0.263662
C	-0.6702919593	 2.0896924619	 1.1715320557	-0.211888
C	 0.4533091241	 2.2263071636	 2.2086611028	-0.205036
C	 1.6740646877	 2.6406147728	 1.3646068415	-0.281327
C	 1.4528683166	 1.9832182205	-0.0090539	 0.393228
C	 2.5754915964	 1.3180863194	-0.7567049511	-0.313978
C	 2.0076710713	 2.6215683339	-1.2589561608	-0.319548
H	 0.021283271	-2.3250473966	 0.4225303393	 0.1929
H	-0.4853799209	 1.6058565152	-0.9612896133	 0.096203
H	-1.0010461197	 3.0816957983	 0.8420450266	 0.09758
H	-1.5439142964	 1.5438529071	 1.5338223599	 0.106118
H	 0.2204042432	 2.9416142499	 3.0019652582	 0.094058
H	 0.6314307007	 1.2539328941	 2.6808848061	 0.113552
H	 1.7027893589	 3.731904586	 1.2596474666	 0.098269
H	 2.6201404317	 2.3375530727	 1.8229091322	 0.098938
H	 3.5613802189	 1.3292191699	-0.3027789097	 0.10803
H	 2.3494127102	 0.4106322755	-1.306528812	 0.120355
H	 1.4038311744	 2.6024829794	-2.161067227	 0.108762
H	 2.6046395848	 3.5213300654	-1.1434287696	 0.106899
24.7239	142.333	151.3558	260.5937	304.4983	311.1431	382.5285	445.7885	511.5182	530.5638	611.827	619.6756	627.2254	773.6083	790.8198	820.7989	849.7526	878.2044	910.4602	938.7454	943.1258	968.4108	980.9382	1004.8969	1044.7864	1058.6044	1079.7992	1108.3007	1165.2928	1170.9215	1189.8729	1220.3203	1265.3575	1275.5709	1306.7895	1323.3688	1338.6525	1354.5636	1368.1135	1468.6852	1486.7615	1490.5396	1502.6451	1507.1109	2227.8918	3028.548	3032.9359	3044.7417	3048.1431	3077.7122	3098.9274	3111.5168	3116.813	3126.4727	3196.4437	3214.925	3503.4042
C#CC1CCCC11CC1	C#C[C@H]1CCCC21CC2	
InChI=1S/C9H12/c1-2-8-4-3-5-9(8)6-7-9/h1,8H,3-7H2	InChI=1S/C9H12/c1-2-8-4-3-5-9(8)6-7-9/h1,8H,3-7H2/t8-/m0/s1
