19
gdb 102996	2.00519	1.40059	1.11969	4.8428	76.7	-0.248	0.0294	0.2773	1197.3473	0.158831	-419.202277	-419.192503	-419.191559	-419.236803	35.974	
C	 0.0542275375	 1.4794910258	 0.3915610008	-0.388481
C	-0.0271450077	 0.0607482863	-0.1821821374	-0.259372
C	-1.4300666416	-0.5292157895	-0.0718986407	 0.090464
C	-2.4422732885	 0.1565905645	-0.8310502338	 0.254717
N	-3.2622383316	 0.7064006966	-1.4364196714	-0.355483
C	-1.6683039672	-2.0433169504	 0.0784946929	-0.148794
N	-0.5039448332	-2.8864522787	 0.1954588276	-0.529798
C	-1.8968823505	-1.1438296942	 1.2635469744	 0.118519
O	-1.0011477894	-1.2112279041	 2.3127654734	-0.424727
H	 1.0646911454	 1.8827455253	 0.2774218508	 0.114301
H	-0.6381449249	 2.1552272637	-0.1198083987	 0.137766
H	-0.1952271594	 1.4736148551	 1.4562020288	 0.138805
H	 0.2768308373	 0.0607072088	-1.2357472848	 0.108098
H	 0.6686806852	-0.5922429655	 0.3478151508	 0.113026
H	-2.5400838901	-2.4299918534	-0.4461527193	 0.107836
H	-0.7814850343	-3.8310411474	 0.4424309665	 0.251001
H	 0.0114759397	-2.9400044369	-0.6768493516	 0.251927
H	-2.9104779596	-0.9281674709	 1.5836461125	 0.125604
H	-0.3411463671	-1.8739077453	 2.0480059692	 0.294592
68.0469	126.6137	146.9429	171.3784	204.352	244.148	251.9198	299.1389	324.4442	452.4122	462.1788	554.6011	579.4355	606.0357	658.6411	685.1733	779.1049	813.9444	875.0825	908.8008	965.8224	1011.4629	1035.7599	1078.6694	1102.1272	1145.5999	1172.5241	1217.0818	1255.7269	1284.5049	1308.1919	1341.7817	1363.8235	1398.3112	1410.7276	1459.3197	1491.423	1497.8189	1508.657	1651.9147	2338.8423	3039.5543	3043.2778	3104.2254	3114.8965	3117.3964	3127.0555	3174.7092	3505.2882	3581.0928	3658.915
CCC1(C#N)C(N)C1O	CC[C@@]1(C#N)[C@@H](N)[C@H]1O	
InChI=1S/C6H10N2O/c1-2-6(3-7)4(8)5(6)9/h4-5,9H,2,8H2,1H3	InChI=1S/C6H10N2O/c1-2-6(3-7)4(8)5(6)9/h4-5,9H,2,8H2,1H3/t4-,5+,6+/m0/s1
