19
gdb 7285	2.92739	1.38077	1.16441	4.113	69.16	-0.2448	0.0375	0.2823	1107.4179	0.163644	-402.233279	-402.223609	-402.222665	-402.268075	34.424	
C	-0.1169455228	 1.5221602908	 0.1820800395	-0.411941
C	 0.0701457304	 0.0177218829	 0.0029568862	 0.125751
O	 0.8822403121	-0.2769519039	-1.1377201368	-0.448421
C	 0.7692323041	-0.6552610246	 1.1962713411	 0.051574
C	 0.7205152933	-2.185600356	 1.1011493417	-0.399879
N	 2.1415195002	-0.1703078903	 1.2791584206	-0.270064
C	 2.7462404168	 0.1740637437	 2.4430212547	 0.153858
O	 2.2289758966	 0.1395791163	 3.5413357259	-0.33369
H	 0.845239612	 2.0154061605	 0.3438082772	 0.128998
H	-0.5877134449	 1.9614504454	-0.7051202911	 0.105478
H	-0.7637012449	 1.7336828762	 1.0392811349	 0.128323
H	-0.9172421084	-0.4567570048	-0.1111076399	 0.071441
H	 0.5292419994	 0.2026193351	-1.8929417025	 0.28717
H	 0.2780637954	-0.336492589	 2.1194475078	 0.115603
H	 1.2326243119	-2.6317806988	 1.9571542983	 0.130925
H	-0.3163123756	-2.5380375996	 1.0992865467	 0.112456
H	 1.2004226107	-2.5302820663	 0.1812241856	 0.128993
H	 2.6563945929	-0.1221849936	 0.4133085967	 0.253441
H	 3.7920384508	 0.504534546	 2.2798317934	 0.069985
34.4192	94.0447	186.8273	199.5106	228.9641	236.8006	263.2302	278.8137	292.5821	348.7003	452.1553	522.9944	594.0391	626.3895	735.6491	836.7354	898.2551	941.5429	1009.1513	1018.6327	1032.37	1062.2118	1136.9255	1144.622	1170.9621	1195.4755	1253.7709	1335.5868	1362.3141	1381.3931	1401.6962	1408.1172	1418.7259	1430.7239	1489.7236	1491.6775	1495.2369	1500.6413	1523.2253	1798.9536	2928.1805	2977.9646	3032.9943	3041.8538	3087.4977	3099.4063	3113.8998	3125.0693	3131.7467	3630.4713	3828.7124
CC(O)C(C)NC=O	C[C@@H](O)[C@@H](C)NC=O	
InChI=1S/C5H11NO2/c1-4(5(2)8)6-3-7/h3-5,8H,1-2H3,(H,6,7)	InChI=1S/C5H11NO2/c1-4(5(2)8)6-3-7/h3-5,8H,1-2H3,(H,6,7)/t4-,5-/m1/s1
