15
gdb 123339	7.17874	0.73144	0.69031	3.5364	74.31	-0.2708	-0.0417	0.2291	1540.7781	0.111212	-416.756019	-416.747653	-416.746709	-416.790245	29.752	
C	 0.0126021402	-1.2379584521	-0.1005804744	-0.429454
C	-0.0295245449	-0.0371247952	-0.1053399982	 0.292102
C	-0.0424522734	 1.4189297807	-0.1021142023	-0.353154
C	 1.369954062	 2.0107507253	 0.1428658794	-0.312015
C	 1.3669806531	 3.4998004377	 0.1565421593	 0.417574
C	 1.6885934313	 4.4296323053	 1.0981338692	-0.215543
N	 1.4774017941	 5.6654896254	 0.5356470217	-0.104069
N	 1.060966335	 5.5561080342	-0.6421845118	-0.008358
O	 0.9710489175	 4.1468362259	-0.940388115	-0.220185
H	 0.0324716657	-2.29968488	-0.1019033155	 0.202003
H	-0.4262112088	 1.795141623	-1.0569561248	 0.157273
H	-0.7269213417	 1.7850450928	 0.6725664989	 0.14379
H	 1.7626036288	 1.6488681972	 1.0963321216	 0.138747
H	 2.0447039462	 1.6530156576	-0.6421278019	 0.149442
H	 2.0476450449	 4.3109562621	 2.1058266237	 0.141847
56.5337	60.7782	96.6573	184.181	297.4778	351.4946	364.4302	473.1712	620.6138	627.7061	655.7061	678.3981	703.253	760.6268	775.4073	824.2022	970.3778	987.9397	1012.6631	1025.8986	1052.4312	1120.2815	1182.0666	1246.1493	1285.0821	1302.9169	1366.9066	1384.1032	1461.3112	1475.0512	1486.0295	1607.8432	2242.6599	3035.3004	3057.3275	3072.0175	3112.7837	3292.4146	3506.1361
C#CCCC1=CN=NO1	C#CCCc1cnno1	
InChI=1S/C6H6N2O/c1-2-3-4-6-5-7-8-9-6/h1,5H,3-4H2	InChI=1S/C6H6N2O/c1-2-3-4-6-5-7-8-9-6/h1,5H,3-4H2
