13
gdb 49871	3.75184	1.2758	0.9578	3.992	62.31	-0.2817	-0.0422	0.2395	1116.974	0.089502	-489.955548	-489.947906	-489.946962	-489.988447	26.825	
N	-0.108065526	 1.2478047506	 0.0082963527	-0.511602
C	-0.0415251953	-0.0031887887	 0.0009606413	 0.406527
C	-1.2183820698	-0.9519673963	 0.0021249539	-0.272932
N	-0.5557159916	-2.2501483353	-0.0089867972	-0.195576
C	-1.2520939944	-3.460790833	-0.012587126	 0.168885
O	-0.7614477957	-4.5528784836	-0.021651965	-0.250942
C	 0.8373924822	-2.1151657121	-0.015432461	 0.51783
O	 1.6816848187	-2.9466773687	-0.0257329969	-0.319439
O	 1.1151941144	-0.7525353224	-0.0097967789	-0.228846
H	 0.8184329735	 1.6754408658	 0.0054814972	 0.248389
H	-1.8337767508	-0.804937288	 0.8948728251	 0.168775
H	-1.8436285032	-0.7947657199	-0.8820036128	 0.168796
H	-2.343708472	-3.2733957085	-0.0057346625	 0.100135
63.9436	139.9813	197.0484	204.5442	210.6864	364.5535	457.861	536.5833	558.3038	641.0474	765.9289	766.2816	817.4163	904.047	907.9994	1019.3731	1036.6368	1053.6411	1097.9586	1203.4234	1229.8313	1260.9364	1326.6285	1382.1626	1452.2053	1502.5605	1809.021	1832.4044	1950.8418	2945.2875	3054.7791	3096.4174	3496.5403
N=C1CN(C=O)C(=O)O1	[NH][C]1CN(C=O)C(=O)O1	
InChI=1S/C4H4N2O3/c5-3-1-6(2-7)4(8)9-3/h2,5H,1H2	InChI=1S/C4H4N2O3/c5-3-1-6(2-7)4(8)9-3/h2,5H,1H2
