22
gdb 105380	2.43647	1.22465	0.99927	3.0432	83.05	-0.2407	0.0749	0.3157	1301.6816	0.194273	-404.298734	-404.289483	-404.288538	-404.33297	35.307	
O	 0.3532565368	 1.1973223989	-0.387417497	-0.430152
C	 0.1005977362	-0.1073536114	 0.0929997668	-0.119743
C	-1.3754348996	-0.4766739126	 0.0900154297	 0.339237
C	-2.2184686991	 0.2936479913	 1.0889736038	-0.232976
N	-2.1383549435	 1.7406396366	 0.8527620373	-0.068657
C	-3.192158804	 2.3417606473	 0.0399104286	-0.21253
C	-3.1403076455	 2.572006991	 1.5097395114	-0.225617
C	-1.9951438941	-0.8791196934	-1.2254265308	-0.287104
C	-1.7382274723	-1.9195422984	-0.162941455	-0.323455
H	-0.2822909743	 1.7697434721	 0.0720480968	 0.282658
H	 0.6527543305	-0.7962980768	-0.5569720747	 0.091776
H	 0.4977437638	-0.2431556959	 1.1155102512	 0.073403
H	-3.2637401288	-0.0618658977	 1.0637358317	 0.077746
H	-1.8397015239	 0.1134394488	 2.1036873306	 0.108073
H	-2.8747168928	 3.1142131784	-0.6535456587	 0.127241
H	-3.975234135	 1.6855125936	-0.3339507774	 0.115983
H	-3.8889355569	 2.0683869113	 2.1189572322	 0.113194
H	-2.7848014205	 3.5162325696	 1.911065523	 0.124371
H	-3.0253846487	-0.6005693488	-1.4216994164	 0.104172
H	-1.3595078686	-0.8678593055	-2.1039162021	 0.121692
H	-0.9297543198	-2.6262919334	-0.317629527	 0.114041
H	-2.5918094101	-2.335147355	 0.363182246	 0.106648
79.139	89.4725	129.6046	159.5534	257.3218	302.3363	315.6127	340.9308	405.6349	456.6729	516.2977	612.4685	765.3465	770.1222	783.5687	834.9599	898.1308	914.7837	931.8907	947.7346	971.4619	994.5368	1024.6114	1039.0368	1054.6733	1075.2328	1084.5413	1093.1148	1115.8342	1123.0972	1171.5536	1180.6064	1187.0543	1225.0615	1266.1792	1315.8546	1333.5648	1358.5508	1376.0176	1412.7189	1469.2778	1481.8096	1484.306	1493.6729	1501.0759	1513.4036	1524.0957	2935.5816	2942.3681	3035.2609	3050.2204	3099.9502	3107.3849	3126.3097	3132.708	3186.0386	3200.9816	3203.9603	3218.9313	3653.8753
OCC1(CN2CC2)CC1	OCC1(CN2CC2)CC1	
InChI=1S/C7H13NO/c9-6-7(1-2-7)5-8-3-4-8/h9H,1-6H2	InChI=1S/C7H13NO/c9-6-7(1-2-7)5-8-3-4-8/h9H,1-6H2
