21
gdb 115809	3.98253	1.10594	0.98339	1.3403	79.51	-0.2546	0.0928	0.3473	1290.5019	0.182107	-424.219741	-424.210653	-424.209709	-424.253456	34.102	
C	 0.1040906626	 1.3241531529	 0.1657027619	-0.239207
O	 0.0399714508	-0.086689226	 0.0553940398	-0.236222
C	 0.5996425969	-0.5847103453	-1.1140453432	 0.22826
O	 2.0135358267	-0.3701148621	-1.098329288	-0.283347
C	 2.6582555706	-1.4330301898	-1.7869126282	-0.135754
C	 1.7483718271	-2.6485114502	-1.6580990199	 0.323403
C	 1.9025492886	-3.7713387064	-2.6526871749	-0.48813
C	 1.2401106543	-2.8957424327	-0.2608521774	-0.321628
C	 0.415824895	-2.0811816528	-1.2282609339	-0.131999
H	 1.1395447403	 1.6753590073	 0.2406249531	 0.129295
H	-0.3733266066	 1.8140107935	-0.6969057721	 0.102692
H	-0.4386353988	 1.5974651009	 1.0732516733	 0.124747
H	 0.1636250157	-0.0581817047	-1.985253077	 0.051873
H	 2.79962312	-1.1862116157	-2.8523997609	 0.087512
H	 3.64827698	-1.568491658	-1.3359783008	 0.10667
H	 2.8774072625	-4.2625163919	-2.549645954	 0.121277
H	 1.1336609737	-4.536035395	-2.5067352688	 0.120173
H	 1.8217860535	-3.4061689802	-3.6832768722	 0.117026
H	 0.8844861449	-3.8950657923	-0.034556501	 0.106476
H	 1.7020251919	-2.3738928698	 0.5702648314	 0.128489
H	-0.5255595697	-2.4601723317	-1.606957017	 0.088395
84.4693	120.6104	170.7566	194.38	208.4632	230.1892	318.3344	348.469	378.7194	473.7657	532.6129	593.2268	698.3923	741.5248	870.1261	906.4065	927.9492	935.1579	958.3129	989.1153	1032.8839	1051.7507	1066.2164	1070.6811	1085.3878	1116.1396	1144.2761	1162.791	1180.5838	1229.0688	1241.1355	1271.1721	1301.3249	1352.8942	1364.2123	1407.5792	1415.53	1428.5036	1480.8501	1484.8353	1488.3336	1490.1873	1502.8604	1512.4448	1519.965	2910.7097	2964.9392	2988.9212	3022.9847	3052.5514	3066.0361	3080.552	3101.6467	3123.6305	3132.7225	3186.5579	3221.6909
COC1OCC2(C)CC12	CO[C@H]1OC[C@@]2(C)C[C@@H]12	
InChI=1S/C7H12O2/c1-7-3-5(7)6(8-2)9-4-7/h5-6H,3-4H2,1-2H3	InChI=1S/C7H12O2/c1-7-3-5(7)6(8-2)9-4-7/h5-6H,3-4H2,1-2H3/t5-,6-,7+/m0/s1
