19
gdb 111423	2.0819	1.67059	1.07881	3.0329	72.54	-0.2395	0.0712	0.3107	1170.7437	0.156687	-460.086143	-460.07687	-460.075926	-460.120712	32.953	
C	 0.455200597	 1.1083771112	 0.4283039288	-0.237369
O	-0.3351000256	 0.33452712	-0.4483860921	-0.221784
C	 0.4093262382	-0.3776990785	-1.3872537186	 0.055502
C	 1.2705977624	-1.5590586958	-0.8972084936	-0.021872
O	 0.3931943918	-2.4690330998	-0.2366009566	-0.22359
C	 0.4542662035	-2.5275840229	-1.6604965839	-0.020928
C	-0.4419033832	-1.4276481671	-2.2225878892	 0.092806
O	-1.793414081	-1.587714428	-1.9498018293	-0.233146
C	-2.6016592693	-0.5455537628	-2.4641742769	-0.237788
H	 1.1243083282	 0.4805805924	 1.0339744181	 0.116684
H	 1.0667889671	 1.8444937524	-0.1173485579	 0.101491
H	-0.2278153922	 1.6392519788	 1.0949312755	 0.132346
H	 0.983507919	 0.2952743262	-2.0444916027	 0.063638
H	 2.3240558411	-1.5980970769	-0.6452539896	 0.105336
H	 0.7310094535	-3.4733358854	-2.1109948648	 0.108282
H	-0.2603296189	-1.2719870243	-3.2984947395	 0.067158
H	-3.6366733247	-0.797808512	-2.2229198707	 0.127727
H	-2.3489512654	 0.418988258	-2.0090320528	 0.128611
H	-2.5025849617	-0.4638414856	-3.5585497142	 0.096896
69.2635	110.0327	122.8699	152.6567	191.6312	211.5471	253.4681	300.7366	352.8014	515.1134	576.2839	679.3985	764.6925	816.2008	867.3763	892.9306	909.7555	957.1332	1023.988	1033.0953	1046.6022	1059.4483	1153.1933	1171.6202	1179.2433	1182.5678	1202.5927	1223.2896	1240.3397	1249.6382	1261.7371	1298.7157	1361.2576	1385.0908	1392.1138	1479.6337	1481.5809	1486.2942	1489.3182	1506.3234	1511.8305	2962.5021	2974.5567	2977.1899	2983.7524	3031.0233	3063.195	3121.3842	3123.1694	3180.8378	3196.6299
COC1C2OC2C1OC	CO[C@H]1[C@H]2O[C@H]2[C@H]1OC	
InChI=1S/C6H10O3/c1-7-3-4(8-2)6-5(3)9-6/h3-6H,1-2H3	InChI=1S/C6H10O3/c1-7-3-4(8-2)6-5(3)9-6/h3-6H,1-2H3/t3-,4+,5-,6+
