21
gdb 107993	2.70967	1.50936	1.29043	1.3957	82.3	-0.2626	0.0736	0.3362	1085.1534	0.184528	-387.054133	-387.046211	-387.045267	-387.086608	31.522	
O	-0.0783808861	 1.4416081395	 0.0131777568	-0.421299
C	-0.0169746213	 0.0214356043	-0.0432357486	-0.22971
C	-1.4235585812	-0.5041158753	-0.0184139566	 0.369533
C	-2.549130207	-0.236693224	-1.0472555393	-0.279393
C	-3.1844720827	-1.1586488673	 0.0188117907	-0.068418
C	-1.8702589898	-2.0037378868	 0.0551548901	-0.051723
C	-1.6521534812	-2.5278438942	 1.4759629465	-0.244832
C	-2.0957178805	-1.2754388736	 2.2881414449	-0.245809
C	-2.4690536995	-0.3384440216	 1.1388174165	-0.022645
H	 0.8210866562	 1.7811455776	-0.0099728189	 0.287186
H	 0.4880204172	-0.3209140349	-0.961862062	 0.084823
H	 0.5487145501	-0.3873029371	 0.8109762435	 0.083647
H	-2.9235315432	 0.788475102	-1.1042719512	 0.095934
H	-2.4102514978	-0.6619784876	-2.0464312067	 0.080401
H	-4.2047774853	-1.5466799889	 0.0484255622	 0.061198
H	-1.6432989114	-2.6600784765	-0.7887067627	 0.055088
H	-2.2681394325	-3.4080580752	 1.6866524067	 0.095413
H	-0.6105666108	-2.8085938066	 1.6634867727	 0.092947
H	-2.9449443301	-1.4793469793	 2.948173035	 0.095056
H	-1.2915489971	-0.8679028252	 2.9095771531	 0.096284
H	-2.829626536	 0.664847001	 1.3711589973	 0.066321
74.6493	155.3263	208.107	245.1509	265.9067	364.1473	421.4338	472.6525	640.31	677.131	729.7813	763.919	818.9797	833.7461	882.0668	913.7651	930.762	934.819	976.9634	992.5902	1000.3955	1030.3924	1055.608	1062.9584	1071.5645	1109.0569	1120.2995	1145.4181	1171.3785	1209.0218	1211.2848	1228.2749	1246.5651	1249.3971	1257.1557	1281.0883	1287.171	1313.7011	1320.9392	1384.7436	1463.5204	1487.9019	1507.3208	1514.4636	1522.4647	2953.577	2980.0416	3038.7319	3043.2671	3048.7432	3070.6554	3082.7158	3090.4189	3091.2997	3107.1266	3110.4788	3826.9558
OCC12CC3C1CCC23	OC[C@@]12C[C@H]3[C@@H]1CC[C@@H]23	
InChI=1S/C8H12O/c9-4-8-3-5-6(8)1-2-7(5)8/h5-7,9H,1-4H2	InChI=1S/C8H12O/c9-4-8-3-5-6(8)1-2-7(5)8/h5-7,9H,1-4H2/t5-,6-,7+,8-
