20
gdb 96319	2.20265	1.59242	0.97797	0.9709	77.81	-0.2396	0.0146	0.2542	1238.8466	0.170816	-440.300812	-440.29178	-440.290836	-440.334638	33.67	
C	 0.1194015608	 1.5467573903	 0.0375897521	-0.390844
C	-0.0155742627	 0.0206307157	 0.0043871143	 0.038916
C	 0.5217107394	-0.5288921798	-1.3198523531	-0.090402
O	 0.1830381944	-1.8914907993	-1.5290600013	-0.219375
C	 0.8979565773	-2.7682946422	-0.7320179961	 0.010084
O	 0.4891355457	-2.8248765344	 0.6286184431	-0.260881
C	 0.7533209735	-1.7521981168	 1.4522989728	 0.370702
C	 1.2158830496	-2.2369337487	 2.7976981664	-0.44446
N	 0.6016267916	-0.5212449515	 1.2117932953	-0.291798
H	 1.1710050071	 1.8430732337	-0.0407898606	 0.117726
H	-0.4351639981	 2.0134502496	-0.7827407921	 0.107149
H	-0.2635048016	 1.9326841817	 0.9847227443	 0.127131
H	-1.0838714742	-0.2423939441	 0.0351605525	 0.098286
H	 0.0751550885	 0.0198123666	-2.1539393778	 0.111387
H	 1.61532954	-0.3984545931	-1.36406198	 0.093248
H	 0.7186865118	-3.77317717	-1.1178946198	 0.122352
H	 1.9736664811	-2.5263799908	-0.7597369158	 0.087817
H	 0.4829331416	-2.9406852537	 3.2062584865	 0.141099
H	 2.1610980292	-2.7823058908	 2.70433598	 0.131532
H	 1.3383503749	-1.3958972326	 3.4785701496	 0.140332
64.9198	146.8353	177.1317	186.9415	222.3319	257.8227	322.4269	371.1223	403.7952	446.8797	487.2789	575.0045	623.6129	693.2851	800.3644	853.3939	916.8183	938.0049	989.6097	1015.1551	1045.3402	1066.135	1108.8585	1127.2248	1153.1154	1167.1223	1191.1155	1237.0706	1285.9463	1311.4699	1344.6484	1369.5907	1399.4143	1401.3522	1413.7969	1456.1459	1472.4578	1477.8262	1481.2858	1487.9074	1498.2	1502.6838	1760.4908	2962.4626	2977.8329	2998.0331	3037.3727	3043.21	3089.2948	3098.6773	3105.8772	3120.5999	3128.3299	3166.0552
CC1COCOC(C)=N1	C[C@H]1COCOC(=N1)C	
InChI=1S/C6H11NO2/c1-5-3-8-4-9-6(2)7-5/h5H,3-4H2,1-2H3	InChI=1S/C6H11NO2/c1-5-3-8-4-9-6(2)7-5/h5H,3-4H2,1-2H3/t5-/m0/s1
