17
gdb 113519	2.77052	1.22694	1.1133	1.0637	71.72	-0.2353	-0.0318	0.2035	1163.8268	0.133106	-458.921734	-458.91292	-458.911976	-458.95568	31.707	
C	-0.0580568271	 0.9993541817	 0.5052417736	-0.236743
O	-0.2121617344	 0.0021259681	-0.4947814053	-0.227038
C	-1.3900882928	-0.7072306716	-0.3784825493	 0.038292
C	-1.3619971511	-2.1183720305	-0.8717398458	-0.391462
C	-1.432915456	-1.8676732896	 0.6113894137	 0.30192
O	-0.3666431363	-2.1554003488	 1.520266112	-0.310741
C	-1.2910726699	-2.4979035262	 2.5860088972	-0.191532
C	-2.4663849256	-2.2125817905	 1.6316550695	 0.269642
O	-3.6604402106	-2.2429373767	 1.6837996658	-0.295436
H	 0.8770651712	 1.5194182475	 0.2882864862	 0.13399
H	-0.8849388469	 1.7238028389	 0.478094444	 0.110065
H	-0.0023062193	 0.5511851011	 1.5038888978	 0.126868
H	-2.3101212623	-0.1279335114	-0.4822166075	 0.106914
H	-2.2368803125	-2.5320823166	-1.3614205841	 0.139522
H	-0.399737501	-2.4700526938	-1.2287709488	 0.150834
H	-1.1900589699	-3.5405669877	 2.9063456449	 0.13913
H	-1.2081054256	-1.8294604639	 3.4498536962	 0.135777
91.4315	96.8872	130.1106	158.2922	201.3431	256.2265	304.0613	417.3498	467.485	529.8181	590.1433	637.381	747.7711	773.9031	833.5543	865.851	985.3988	1004.0198	1011.6935	1037.8218	1055.4454	1074.4926	1126.2161	1136.7739	1170.8758	1186.6719	1205.2528	1253.3204	1280.2026	1309.7742	1391.2757	1447.8369	1479.9359	1486.9456	1489.0226	1505.3916	1907.568	2998.0527	3037.8215	3070.7636	3082.0083	3092.5172	3131.0604	3134.3031	3232.8721
COC1CC11OCC1=O	CO[C@H]1C[C@]21OCC2=O	
InChI=1S/C6H8O3/c1-8-5-2-6(5)4(7)3-9-6/h5H,2-3H2,1H3	InChI=1S/C6H8O3/c1-8-5-2-6(5)4(7)3-9-6/h5H,2-3H2,1H3/t5-,6-/m0/s1
