19
gdb 89786	2.08761	1.54464	1.02312	1.418	76.55	-0.2352	-0.0331	0.2022	1205.6631	0.156848	-423.002142	-422.993069	-422.992125	-423.036785	33.38	
C	 0.2483641181	 1.5170143997	-0.0462878188	-0.414827
C	 0.0681902731	 0.0245018642	 0.1417630565	 0.141379
O	 0.8031086144	-0.7579478384	-0.8328772662	-0.315733
C	 1.3377984852	-1.5861431799	 0.1961010538	 0.453883
C	 1.37322479	-3.073837282	 0.0727352076	-0.336422
C	 2.662303313	-2.2616219286	 0.0560623699	-0.339956
C	 0.7644889871	-0.7282850536	 1.3262243335	-0.27016
C	 1.7877233288	 0.0536636725	 2.1085406879	 0.167914
O	 1.7529529849	 0.2079109332	 3.3032378113	-0.258444
H	 1.303053728	 1.8021196767	-0.0485168605	 0.127649
H	-0.1847567503	 1.8195915678	-1.0046114271	 0.134323
H	-0.2655875959	 2.0673334855	 0.748909628	 0.129522
H	-0.9988016881	-0.2316872596	 0.1034724563	 0.091203
H	 1.1512990653	-3.677314873	 0.9468470775	 0.121028
H	 1.0352983776	-3.4901894917	-0.870045138	 0.12907
H	 3.1689994401	-2.1476123341	-0.8961908257	 0.130401
H	 3.320433264	-2.3153241655	 0.917330231	 0.12362
H	 0.0858083097	-1.225126977	 2.0206951108	 0.099113
H	 2.6138616549	 0.4831989437	 1.4997646521	 0.08644
49.1894	54.2813	163.4454	210.558	235.8505	263.4902	328.4047	388.6458	418.5317	463.2372	513.027	576.8258	758.3207	763.592	862.5718	877.7606	901.4224	927.6457	959.3349	986.6276	1004.867	1052.9493	1057.3705	1072.6978	1090.4351	1137.0765	1154.8861	1187.8547	1213.4973	1223.169	1279.3054	1322.3253	1360.162	1400.6886	1414.4858	1431.5705	1448.316	1481.3872	1497.676	1501.5326	1824.0224	2885.3376	3012.7195	3042.323	3108.6606	3111.4779	3128.0087	3129.1556	3131.2764	3213.1989	3226.9938
CC1OC2(CC2)C1C=O	C[C@H]1OC2(CC2)[C@H]1C=O	
InChI=1S/C7H10O2/c1-5-6(4-8)7(9-5)2-3-7/h4-6H,2-3H2,1H3	InChI=1S/C7H10O2/c1-5-6(4-8)7(9-5)2-3-7/h4-6H,2-3H2,1H3/t5-,6+/m1/s1
