18
gdb 20864	6.49811	1.03678	0.96154	2.744	74.2	-0.2303	0.0269	0.2572	1244.4552	0.155913	-344.017194	-344.009184	-344.008239	-344.05066	28.954	
C	-0.1177568616	 1.5756731066	-0.0335126094	-0.381078
C	-0.0651468924	 0.0465673305	-0.0339959449	-0.153979
C	 0.7905689532	-0.5185592393	-1.1861055977	-0.31084
C	 0.865964532	-2.0130374157	-1.2023180666	 0.376014
C	 1.8179666359	-2.8982679292	-0.7305788136	-0.299956
C	 1.2954092425	-4.1802840684	-1.0031732054	-0.002703
N	 0.1092720317	-4.1167387187	-1.6001746555	-0.231406
N	-0.1278405832	-2.7931296621	-1.7058636395	-0.244409
H	 0.8843462059	 2.0065159026	 0.0697955794	 0.117561
H	-0.5469590357	 1.9595474015	-0.9658817192	 0.114574
H	-0.7282395652	 1.9509931889	 0.7932520874	 0.117091
H	 0.3403436202	-0.3171386425	 0.9172097098	 0.109607
H	-1.0812033551	-0.3610757028	-0.1055070204	 0.097137
H	 0.3927052457	-0.1538996544	-2.1429692603	 0.103947
H	 1.8082067322	-0.1207079613	-1.1088924337	 0.117412
H	 2.755434484	-2.6450843022	-0.2616820698	 0.097021
H	 1.7363416032	-5.1441835415	-0.7942325032	 0.107104
H	-0.9805264936	-2.4873563821	-2.1440297173	 0.266903
38.6377	86.431	116.7952	246.7967	308.0739	325.0529	363.941	522.3216	667.173	691.106	741.8768	752.9049	804.2634	868.8671	892.3992	897.5163	938.1698	1031.8175	1047.0926	1063.1067	1077.3712	1109.9257	1138.9128	1237.1326	1246.6539	1300.1511	1308.4962	1328.7342	1372.9514	1381.3113	1414.2496	1441.2634	1482.4364	1492.8108	1494.8625	1501.0428	1510.3898	1605.6455	3015.5242	3028.9573	3031.6005	3057.4459	3077.1974	3099.0521	3106.1823	3241.4062	3265.0741	3666.6514
CCCC1=CC=NN1	CCCc1ccn[nH]1	
InChI=1S/C6H10N2/c1-2-3-6-4-5-7-8-6/h4-5H,2-3H2,1H3,(H,7,8)	InChI=1S/C6H10N2/c1-2-3-6-4-5-7-8-6/h4-5H,2-3H2,1H3,(H,7,8)
