20
gdb 17275	4.91788	1.09961	1.03234	0.8509	76.18	-0.2283	0.0799	0.3082	1219.34	0.177372	-345.125399	-345.11689	-345.115946	-345.158862	31.426	
C	-0.0875978324	 1.4490367895	-0.197607487	-0.393605
C	 0.1323081668	-0.0274435865	 0.0365697015	-0.002136
N	 1.5245405541	-0.5028493614	 0.1176044598	-0.338918
C	 0.6485044879	-0.6233940324	 1.2989855066	 0.000073
C	 1.0375982934	 0.1684270379	 2.5245987553	-0.157079
N	 1.9491546403	-0.6141192537	 3.3560408179	-0.070397
C	 3.3648201897	-0.5188194329	 3.0061004535	-0.212496
C	 2.8368423447	 0.147518313	 4.2281264224	-0.224506
H	 0.6583502609	 2.0524048032	 0.3235661152	 0.12618
H	-0.0134042634	 1.6800035415	-1.2658393571	 0.118876
H	-1.0829852478	 1.7548192313	 0.1430138012	 0.115095
H	-0.5644843968	-0.6630454869	-0.510146759	 0.079797
H	 1.6281078057	-1.4017027023	-0.344473624	 0.229087
H	 0.2819438177	-1.6198019286	 1.5413510107	 0.088053
H	 1.478531009	 1.1319348109	 2.2210250302	 0.08549
H	 0.1434972688	 0.3855550386	 3.1231648768	 0.100487
H	 3.9323597452	-1.4417593161	 3.0858692157	 0.110706
H	 3.6337976902	 0.1118311535	 2.1621750648	 0.126272
H	 2.7621050357	 1.2340152888	 4.2101340984	 0.105934
H	 3.0126705205	-0.2782984576	 5.2120488171	 0.113088
63.1122	92.138	132.2386	183.6083	249.9062	320.3349	368.6395	405.787	487.6848	504.1093	764.7854	771.163	827.4447	846.9276	884.3687	909.2131	963.4122	984.184	1017.4827	1025.3112	1048.1379	1069.5203	1099.9358	1113.6126	1116.9326	1157.4271	1172.9166	1173.635	1223.8848	1257.9575	1278.555	1297.0981	1319.4114	1355.3867	1406.1014	1428.5281	1471.0027	1482.3947	1491.5539	1494.0791	1505.2405	1522.7898	2968.7296	3035.5058	3041.316	3092.7384	3093.613	3097.1482	3107.1451	3120.8495	3132.7915	3176.5692	3194.8465	3508.0769
CC1NC1CN1CC1	C[C@H]1N[C@H]1CN1CC1	
InChI=1S/C6H12N2/c1-5-6(7-5)4-8-2-3-8/h5-7H,2-4H2,1H3	InChI=1S/C6H12N2/c1-5-6(7-5)4-8-2-3-8/h5-7H,2-4H2,1H3/t5-,6+/m1/s1
