19
gdb 86252	3.09285	1.15245	0.89978	3.6803	81.16	-0.2542	-0.0657	0.1886	1305.9024	0.158839	-423.058503	-423.049652	-423.048708	-423.092134	33.174	
C	-0.0112466278	 1.5816037211	-0.0098474636	-0.400331
C	 0.0492002253	 0.0494518938	 0.0070007594	-0.023376
C	 0.80461459	-0.5804866743	-1.1953521014	-0.245046
C	 1.515966549	-1.8336031897	-0.6472519759	 0.034468
O	 2.7788376751	-1.9943697257	-1.2618449884	-0.44275
C	 1.587762071	-1.5440070728	 0.8442861909	 0.204325
C	 2.4313008284	-2.3232851666	 1.7439690183	 0.071978
O	 3.166474525	-3.2162755488	 1.3641917281	-0.291959
C	 0.7811957992	-0.5323707798	 1.1917456076	-0.157489
H	 0.9955879686	 2.0120266218	-0.0098003158	 0.125013
H	-0.5287573457	 1.9372408657	-0.9062159599	 0.124385
H	-0.5472341242	 1.9702740361	 0.8623835652	 0.116083
H	-0.985639338	-0.3268761654	 0.0328149987	 0.095854
H	 0.1525019325	-0.7923540411	-2.0453369464	 0.10482
H	 1.5885453588	 0.104971072	-1.5349415767	 0.120756
H	 0.9000239077	-2.7358947698	-0.8057405789	 0.075105
H	 3.2337416502	-2.6839832521	-0.7590700605	 0.294946
H	 2.3766233171	-2.0521480906	 2.8201018188	 0.08318
H	 0.6414835878	-0.167544284	 2.2062678004	 0.110039
81.5581	103.4892	184.1079	213.5835	239.4188	289.8888	308.1833	411.0761	435.1746	468.0383	513.5517	578.2893	623.0569	741.2447	814.8812	852.3379	884.6219	941.6154	943.133	992.4322	1037.076	1047.0145	1084.9309	1116.6662	1143.6296	1191.1157	1227.2484	1276.6536	1292.58	1296.2315	1329.6593	1344.0922	1373.0151	1408.6365	1416.7928	1430.1726	1487.9639	1497.5374	1499.8056	1684.464	1757.6883	2901.9109	2944.6839	2979.3641	3032.6388	3055.66	3102.3921	3107.4207	3114.0615	3168.7806	3752.5673
CC1CC(O)C(C=O)=C1	C[C@H]1C[C@@H](O)C(=C1)C=O	
InChI=1S/C7H10O2/c1-5-2-6(4-8)7(9)3-5/h2,4-5,7,9H,3H2,1H3	InChI=1S/C7H10O2/c1-5-2-6(4-8)7(9)3-5/h2,4-5,7,9H,3H2,1H3/t5-,7-/m1/s1
