15
gdb 12718	3.00127	2.29636	1.7598	4.163	61.71	-0.2374	0.0128	0.2502	789.9902	0.11884	-399.796403	-399.789274	-399.78833	-399.82754	26.692	
C	-0.0918029999	 1.5557897874	 0.0287512043	-0.486219
C	 0.0622873098	 0.0659405233	 0.0769334156	 0.288567
O	-1.1860105037	-0.6608975758	 0.2328638604	-0.316769
C	-0.6513970228	-1.470297882	 1.3037136719	-0.095299
C	 0.743711129	-0.8331255773	 1.1587700442	-0.082618
N	 1.5748672725	-1.3858743331	 0.0932783361	-0.334225
C	 0.9754859072	-0.684225327	-0.9432760578	 0.394925
O	 1.1092156208	-0.7172938369	-2.1341136921	-0.352692
H	 0.8864335766	 2.0453487189	 0.0036773616	 0.132933
H	-0.6325735981	 1.8334618995	-0.8817514871	 0.153096
H	-0.655514251	 1.9208608111	 0.8916212062	 0.128138
H	-1.1504531156	-1.242856145	 2.2534165462	 0.111306
H	-0.7181883306	-2.5443315957	 1.0981770732	 0.108522
H	 1.2741230993	-0.4756893577	 2.0403638147	 0.100864
H	 2.0709788266	-2.2664427698	 0.0568588828	 0.249472
141.6134	188.9833	197.833	255.2255	291.8312	400.7741	497.4554	513.1277	677.6777	694.2816	750.7344	824.3879	851.6752	876.5621	921.1137	1003.1586	1026.0685	1084.2371	1091.2027	1128.06	1151.437	1168.9437	1212.4541	1308.6781	1334.4907	1338.792	1369.0375	1410.3883	1477.2828	1485.2943	1510.3881	1896.4192	3023.4576	3041.4482	3076.2988	3114.5079	3121.6121	3123.1436	3584.4768
CC12OCC1NC2=O	C[C@]12OC[C@H]1NC2=O	
InChI=1S/C5H7NO2/c1-5-3(2-8-5)6-4(5)7/h3H,2H2,1H3,(H,6,7)	InChI=1S/C5H7NO2/c1-5-3(2-8-5)6-4(5)7/h3H,2H2,1H3,(H,6,7)/t3-,5+/m1/s1
