13
gdb 131707	3.02616	1.38922	0.95774	2.4807	64.22	-0.2759	-0.11	0.1659	1117.8524	0.089652	-486.05879	-486.051224	-486.05028	-486.091452	27.089	
O	 0.1494986222	 1.370843763	-0.0427642517	-0.418206
C	 0.0255171555	-0.0168291986	-0.0832428326	-0.101489
C	-1.4018817037	-0.4860158006	-0.0378284828	 0.370203
N	-2.3386965128	 0.4071365848	 0.0322990247	-0.369999
C	-3.6518605894	-0.0346611217	 0.0739525106	 0.482691
O	-4.6390848984	 0.6478579171	 0.1386234483	-0.348433
N	-3.7511266302	-1.4477916718	 0.0318267878	-0.250288
N	-2.7524252075	-2.3190066503	-0.0405370058	-0.010648
N	-1.5604049292	-1.8670387981	-0.0771407166	-0.234227
H	-0.7491146133	 1.7299812539	 0.008544526	 0.304848
H	 0.479682818	-0.4361662897	-0.9961573514	 0.138297
H	 0.5542103755	-0.4941039013	 0.7583784371	 0.138234
H	-4.6750215666	-1.8621538768	 0.0578964465	 0.299017
81.6824	140.1538	174.4967	199.87	326.2315	424.7009	426.5736	493.8563	578.6384	619.3758	641.3166	760.7898	764.5461	809.3067	982.1998	1007.2208	1018.8219	1096.5965	1138.8627	1200.7145	1241.4108	1266.2164	1344.1321	1382.5726	1460.7411	1482.099	1531.0565	1628.096	1856.9936	2980.1432	2994.0818	3587.7938	3711.198
OCC1=NC(=O)NN=N1	OCc1nc(=O)[nH]nn1	
InChI=1S/C3H4N4O2/c8-1-2-4-3(9)6-7-5-2/h8H,1H2,(H,4,5,6,9)	InChI=1S/C3H4N4O2/c8-1-2-4-3(9)6-7-5-2/h8H,1H2,(H,4,5,6,9)
