14
gdb 24394	3.81775	1.69348	1.1816	3.9425	67.47	-0.2102	0.0076	0.2178	951.1778	0.105445	-432.90889	-432.902537	-432.901592	-432.939776	24.583	
C	-0.0106412469	 1.5245188332	-0.0572447177	-0.277804
N	 1.3639058784	 2.0053530631	 0.1233656646	-0.259867
C	 2.3336378271	 1.2111177089	 0.273370135	 0.121937
O	 2.3567752263	-0.1596991244	 0.3038918126	-0.231609
C	 1.1137797429	-0.7080615443	 0.1428824098	 0.345227
C	-0.0151447746	 0.0338758802	-0.0281053446	 0.189907
N	-1.0131945378	-0.9135843305	-0.1472357918	-0.34727
C	-0.4178137256	-2.1388474279	-0.0404371232	-0.001354
N	 0.8857773674	-2.0452050227	 0.1380375201	-0.327666
H	-0.634375004	 1.9698036833	 0.7323579982	 0.122325
H	-0.394188239	 1.935149458	-1.0033265823	 0.122326
H	 3.344049833	 1.5882857168	 0.4056444613	 0.134902
H	-1.9945434713	-0.739876594	-0.2864357261	 0.270502
H	-0.978613616	-3.0586810496	-0.0996594759	 0.138444
104.5958	216.2451	325.266	416.7975	496.9858	497.5585	525.3619	638.076	660.4547	729.7274	744.061	786.1483	876.8736	951.5702	952.5721	962.0393	1039.7582	1099.3157	1127.4145	1172.4098	1237.7296	1245.1893	1322.1172	1359.6749	1403.3386	1407.4223	1470.1568	1505.2489	1524.1637	1659.5428	1741.0383	2983.014	2992.0877	3183.2931	3262.8456	3664.7799
C1N=COC2=C1NC=N2	C1N=COc2c1[nH]cn2	
InChI=1S/C5H5N3O/c1-4-5(8-2-7-4)9-3-6-1/h2-3H,1H2,(H,7,8)	InChI=1S/C5H5N3O/c1-4-5(8-2-7-4)9-3-6-1/h2-3H,1H2,(H,7,8)
