18
gdb 94638	3.66449	0.84814	0.7444	3.6324	73.41	-0.2601	0.0028	0.2629	1500.4517	0.145775	-439.061456	-439.052012	-439.051068	-439.097285	32.597	
C	-0.2348930749	 1.5496744779	 0.0486837276	-0.392308
C	 0.1067832483	 0.0766436152	-0.035159067	 0.116526
O	 1.3887536366	-0.1713391056	-0.6690255653	-0.287237
C	 1.8976848136	-0.8636023171	 0.4844325475	-0.098628
C	 0.5743425105	-0.6447158668	 1.2511585843	 0.066881
O	 0.6235595519	 0.2105561435	 2.3712136679	-0.241369
C	 1.1049184251	-0.4295323301	 3.5286381397	-0.194438
C	 1.0736375604	 0.5160672792	 4.6479782042	 0.265493
N	 1.0608269458	 1.2376556261	 5.5488080189	-0.288244
H	 0.5204922333	 2.0975958295	 0.6147831425	 0.135759
H	-0.2906952632	 1.9639626632	-0.9623558579	 0.128216
H	-1.205002507	 1.692203221	 0.5349604087	 0.124086
H	-0.686482816	-0.4725054078	-0.5597374857	 0.08209
H	 2.158590534	-1.9057011191	 0.2623881071	 0.104629
H	 2.765483851	-0.3557471605	 0.9251524742	 0.108159
H	 0.0218525155	-1.5607664341	 1.4996965181	 0.081072
H	 0.4886680304	-1.3055559433	 3.7893611159	 0.143465
H	 2.1395297247	-0.7851713212	 3.4014412693	 0.145848
40.564	72.0174	93.0001	104.0832	202.3723	226.5281	287.6249	379.2903	392.9893	431.167	474.6139	595.6498	756.554	847.2893	876.5192	906.8214	965.7697	999.4716	1028.6561	1035.6051	1055.3854	1092.7654	1105.2153	1156.6251	1167.3884	1198.3842	1252.3843	1268.1824	1294.0912	1348.7949	1377.1225	1381.7152	1405.4051	1433.6433	1483.1542	1488.5152	1496.7577	1512.1505	2375.4713	2975.8115	3002.3946	3006.234	3008.4857	3022.2428	3047.3967	3057.9066	3116.2572	3141.258
CC1OCC1OCC#N	C[C@H]1OC[C@H]1OCC#N	
InChI=1S/C6H9NO2/c1-5-6(4-9-5)8-3-2-7/h5-6H,3-4H2,1H3	InChI=1S/C6H9NO2/c1-5-6(4-9-5)8-3-2-7/h5-6H,3-4H2,1H3/t5-,6-/m1/s1
