21
gdb 67812	2.84312	1.79526	1.5516	0.3934	86.01	-0.2188	0.0273	0.2461	978.0962	0.186048	-349.982046	-349.97496	-349.974016	-350.012812	30.589	
C	-0.0085629561	 1.4824134647	 0.0230281261	-0.495355
C	-0.0311128284	-0.0314265144	 0.0035226693	 0.32642
C	-1.2605941176	-0.6873550035	-0.5086559081	-0.105126
C	-1.2992500275	-2.0229535149	-0.5336032192	-0.102556
C	-0.0601967452	-2.7158133183	-0.0265532461	-0.093958
C	 0.2320891028	-2.1766830066	 1.4057606942	-0.225442
C	 0.7168607156	-0.7662636396	 1.1236755193	-0.089346
C	 1.2927662021	-0.7568806139	-0.2708002945	-0.089349
C	 1.1549902678	-2.1616418148	-0.8289431535	-0.225441
H	 0.9399850004	 1.8602605679	 0.4171958777	 0.112121
H	-0.1370137299	 1.8943762857	-0.9847109411	 0.116503
H	-0.8124683478	 1.883358303	 0.6513039793	 0.116504
H	-2.0849404323	-0.0651670847	-0.8449192608	 0.080421
H	-2.1546267418	-2.5856841775	-0.8906603259	 0.081914
H	-0.1384986142	-3.8032554759	-0.0662093362	 0.060873
H	-0.6525488712	-2.2197722021	 2.048808979	 0.095954
H	 1.0309330568	-2.7591907497	 1.8799801437	 0.093654
H	 1.1356963223	-0.1665572981	 1.9242664462	 0.076301
H	 2.151601952	-0.150007403	-0.5356065671	 0.0763
H	 2.0584228245	-2.7424448163	-0.6079732429	 0.093653
H	 0.9820755876	-2.1931305882	-1.9092492593	 0.095954
196.5464	241.3677	310.0358	349.645	371.9821	392.7195	479.6319	561.8071	609.0266	690.0951	704.1336	742.3414	822.3541	826.4691	852.8103	873.3476	894.6734	931.3745	949.3011	975.4647	983.4147	989.7382	1034.0732	1051.3696	1055.9399	1095.5913	1112.3618	1148.2421	1171.2822	1179.8152	1199.3163	1207.4074	1283.4626	1293.3748	1294.3663	1333.0566	1355.4935	1391.5986	1415.9954	1421.5316	1480.0479	1490.8435	1494.4337	1502.7329	1682.0813	3022.1183	3031.6373	3034.5727	3080.6868	3081.2124	3082.3535	3097.8835	3098.3151	3161.7329	3164.9276	3175.0661	3192.4527
CC12C=CC3CC1C2C3	C[C@]12C=C[C@@H]3C[C@H]1[C@H]2C3	
InChI=1S/C9H12/c1-9-3-2-6-4-7(9)8(9)5-6/h2-3,6-8H,4-5H2,1H3	InChI=1S/C9H12/c1-9-3-2-6-4-7(9)8(9)5-6/h2-3,6-8H,4-5H2,1H3/t6-,7+,8-,9+
