18
gdb 120124	3.28892	0.99495	0.91196	3.0999	73.17	-0.2472	0.0064	0.2535	1337.4189	0.147282	-439.059861	-439.0512	-439.050256	-439.094207	31.423	
C	-0.1363332739	 1.3230304293	-0.2059789667	-0.227499
O	-0.2002252104	-0.0767451943	-0.3523209547	-0.233953
C	 0.8889143528	-0.5993479199	-1.083982641	-0.096869
C	 0.774061907	-2.1020404101	-1.0833194416	-0.041325
C	-0.1340879055	-2.8886439114	-1.9776442565	-0.002394
N	-0.2587513366	-2.3134344262	-3.3184853972	-0.341223
C	 1.1353297836	-2.3347680898	-3.5237222337	 0.411874
O	 1.8130147573	-1.9489994904	-4.432659688	-0.342214
C	 1.3709998626	-3.0028058061	-2.1719581403	-0.256918
H	 0.7702988731	 1.6364140485	 0.3353045046	 0.107301
H	-0.1468623297	 1.8377857395	-1.1798587901	 0.106649
H	-1.014272101	 1.6319507356	 0.366166545	 0.129463
H	 0.8961608563	-0.1982472275	-2.1094974211	 0.100932
H	 1.8454385067	-0.3029576005	-0.6217780023	 0.096513
H	 0.8758186362	-2.5387018942	-0.0912747072	 0.108747
H	-0.8266375195	-3.6473935352	-1.6390901288	 0.115971
H	-0.8386592945	-1.5109378354	-3.5371915775	 0.24637
H	 2.0450670454	-3.8177027119	-1.9507136028	 0.118575
52.7626	87.6221	104.0786	194.9395	229.5741	280.1149	396.6223	419.5821	459.5841	550.8215	657.9955	734.672	750.4724	802.7552	841.5913	899.006	934.5774	985.0333	995.2378	1019.9207	1052.4709	1076.66	1101.1959	1138.1652	1154.1582	1178.5759	1198.8296	1228.2937	1261.4809	1280.0348	1318.1419	1332.4227	1394.7128	1452.8986	1482.7368	1485.5305	1503.4667	1525.1973	1896.9386	2963.1582	2974.61	3000.2525	3015.8856	3116.9936	3135.1739	3208.4106	3227.8195	3548.0817
COCC1C2NC(=O)C12	COC[C@H]1[C@H]2NC(=O)[C@@H]12	
InChI=1S/C6H9NO2/c1-9-2-3-4-5(3)7-6(4)8/h3-5H,2H2,1H3,(H,7,8)	InChI=1S/C6H9NO2/c1-9-2-3-4-5(3)7-6(4)8/h3-5H,2H2,1H3,(H,7,8)/t3-,4+,5-/m1/s1
