19
gdb 90600	2.54125	1.43496	1.13776	3.7009	75.87	-0.2311	-0.0331	0.198	1150.015	0.157929	-423.012036	-423.003283	-423.002339	-423.045682	32.593	
C	-0.7561072368	 1.3152390804	 0.2354749966	-0.414166
C	 0.0062060985	 0.0291491249	 0.0035329784	 0.153461
O	 1.0948002805	 0.1733728062	-0.9565645423	-0.312641
C	 1.9977414825	-0.5858401863	-0.1197342589	-0.012082
C	 0.9683937546	-0.5590999004	 1.0570338291	-0.12135
C	 1.858616653	 0.4549694275	 1.8399168591	-0.124662
C	 2.4130909159	-0.0426560976	 3.1771736467	-0.409905
C	 2.8957374452	 0.3736831656	 0.691141076	 0.413142
O	 3.9934273021	 0.8223346508	 0.5415539247	-0.297199
H	-0.1019252805	 2.123362157	 0.5715899033	 0.129091
H	-1.2325232858	 1.6357832558	-0.6963707153	 0.134883
H	-1.5421896195	 1.1620248386	 0.982759654	 0.121289
H	-0.684519329	-0.7467901892	-0.3575980539	 0.079977
H	 2.4203519136	-1.4632257095	-0.6169363842	 0.091136
H	 0.6515923264	-1.4449530922	 1.6049309047	 0.083037
H	 1.4246114088	 1.4507669556	 1.9685965649	 0.101841
H	 2.8462112674	-1.0443555009	 3.0828418814	 0.121966
H	 3.1991898247	 0.6280680143	 3.534861256	 0.139631
H	 1.6234130483	-0.0865806504	 3.9336002998	 0.122551
53.8162	155.8009	177.4665	219.4904	224.9828	242.206	288.0719	375.446	408.0306	526.9397	602.3922	734.8412	739.1019	787.4438	825.3165	866.0765	911.4384	922.8044	970.9867	1027.8435	1039.73	1078.7037	1089.7199	1099.558	1122.3464	1148.6544	1173.1147	1202.8667	1240.7672	1263.8436	1274.7884	1317.7265	1339.7461	1391.6653	1408.1604	1412.3671	1479.9927	1495.9442	1496.7076	1499.7617	1891.4055	2992.4597	3035.0483	3040.5368	3067.3315	3076.3046	3103.495	3108.2752	3118.0193	3125.2215	3127.9105
CC1OC2C1C(C)C2=O	C[C@H]1O[C@@H]2[C@H]1[C@@H](C)C2=O	
InChI=1S/C7H10O2/c1-3-5-4(2)9-7(5)6(3)8/h3-5,7H,1-2H3	InChI=1S/C7H10O2/c1-3-5-4(2)9-7(5)6(3)8/h3-5,7H,1-2H3/t3-,4-,5+,7-/m1/s1
