23
gdb 85909	2.47475	1.46918	1.27582	1.3271	85.04	-0.2436	0.0849	0.3286	1161.2712	0.205104	-388.30501	-388.295792	-388.294847	-388.338006	36.784	
C	 0.1215761358	 1.5679686267	-0.0730541309	-0.399035
C	 0.049250858	 0.0539569513	 0.0612890613	 0.11807
O	 0.692127807	-0.5333631897	-1.0728328398	-0.309894
C	 1.1451779047	-1.8617969198	-0.7454430831	 0.366765
C	 0.0230860473	-2.8812732994	-0.9939740388	-0.421565
C	 2.3493219425	-2.1498265483	-1.6399004461	-0.420089
C	 1.4676467247	-1.7792036971	 0.7476728449	-0.058462
C	 2.2622818255	-0.5828729917	 1.2035032306	-0.316161
C	 0.7560009549	-0.5557086601	 1.2650092877	-0.055297
H	 1.1602982931	 1.909471321	-0.0579704923	 0.119751
H	-0.3343359354	 1.8885429855	-1.0141080663	 0.122737
H	-0.4157560352	 2.0487421242	 0.7505661369	 0.11063
H	-1.0115379739	-0.2487187835	 0.0916504039	 0.062932
H	-0.2879742432	-2.8497777186	-2.042166862	 0.118447
H	 0.3609261262	-3.8975477929	-0.7650131881	 0.10944
H	-0.8488580065	-2.6687497428	-0.3685227531	 0.114739
H	 3.1495166345	-1.428575387	-1.4577771033	 0.117413
H	 2.7379836853	-3.1552128949	-1.4501256199	 0.109514
H	 2.0629475302	-2.0863917712	-2.6940039603	 0.119495
H	 1.5103054214	-2.7010272928	 1.3165871969	 0.080436
H	 2.7974547828	-0.6700554976	 2.1424549441	 0.107354
H	 2.760597017	 0.0242550863	 0.4547444117	 0.120345
H	 0.2536101729	-0.5428456776	 2.225405156	 0.082436
131.487	188.3135	198.7023	227.7435	232.9853	250.354	297.9298	334.9445	371.7815	417.4933	496.9176	525.4072	605.706	667.4659	753.3908	788.5878	836.6671	863.513	898.6793	930.5148	947.323	974.9933	983.2346	1008.0389	1021.5156	1055.1512	1080.6738	1094.6174	1107.0104	1128.3069	1158.2124	1193.7667	1204.4053	1213.2753	1260.9908	1340.5133	1344.448	1381.3325	1394.352	1400.1008	1412.8018	1415.4461	1474.0447	1479.0961	1482.7174	1487.6724	1497.6662	1498.3908	1505.335	2950.4506	3035.5126	3042.5195	3043.12	3104.7737	3111.7588	3113.7035	3116.9544	3122.8446	3123.9293	3131.9579	3170.9601	3179.9619	3217.9692
CC1OC(C)(C)C2CC12	C[C@H]1OC(C)(C)[C@H]2C[C@@H]12	
InChI=1S/C8H14O/c1-5-6-4-7(6)8(2,3)9-5/h5-7H,4H2,1-3H3	InChI=1S/C8H14O/c1-5-6-4-7(6)8(2,3)9-5/h5-7H,4H2,1-3H3/t5-,6+,7+/m1/s1
