18
gdb 48284	3.15192	0.94758	0.80475	5.9121	74.79	-0.2505	-0.0353	0.2152	1429.624	0.146188	-439.106806	-439.097514	-439.09657	-439.142328	32.517	
O	-0.0230073608	-0.1134633801	 0.1346560751	-0.261803
C	-0.0158990263	 1.0845817012	 0.0979159195	 0.163682
N	 1.1076737237	 1.9142094134	-0.0156529324	-0.080146
C	 0.900923452	 3.3690502951	 0.0207913143	-0.240385
C	 0.9517180022	 3.951179151	 1.4159654882	 0.031394
C	 2.2667400447	 4.3557806482	 2.0339529178	-0.257421
C	 1.277921141	 5.4103229219	 1.6044342227	-0.269423
C	 2.4179563391	 1.4283536444	-0.1285997646	 0.171285
O	 2.7604311004	 0.2801948635	-0.1032180439	-0.261656
H	-0.9401244243	 1.696475786	 0.14276361	 0.083332
H	 1.6615809116	 3.8388526212	-0.6112822772	 0.123724
H	-0.0657589909	 3.58057396	-0.4477874169	 0.130916
H	 0.2138023543	 3.5305756841	 2.0942236154	 0.098324
H	 2.4094315637	 4.1793362478	 3.0936877561	 0.126903
H	 3.1689110982	 4.2400405253	 1.4420142261	 0.117545
H	 1.5150261438	 5.995916807	 0.7218847603	 0.117243
H	 0.7402298302	 5.9610086863	 2.3675521451	 0.124028
H	 3.1284375075	 2.2686911538	-0.2620543056	 0.082457
34.3348	74.0964	103.8441	151.5968	229.8681	238.7229	292.3813	305.0073	403.779	436.7435	529.6382	715.3599	773.4866	804.4428	846.2074	900.0441	954.9252	964.9078	1008.5658	1018.4371	1039.2298	1060.285	1086.4579	1132.2168	1146.0814	1190.9548	1198.795	1228.1464	1249.4351	1358.3656	1380.0839	1421.0462	1448.2569	1458.5577	1469.9536	1497.8258	1509.3939	1798.0225	1877.6358	2916.0224	2929.3019	3046.5387	3085.5799	3133.2229	3137.3965	3143.4552	3212.929	3227.3273
O=CN(CC1CC1)C=O	O=CN(CC1CC1)C=O	
InChI=1S/C6H9NO2/c8-4-7(5-9)3-6-1-2-6/h4-6H,1-3H2	InChI=1S/C6H9NO2/c8-4-7(5-9)3-6-1-2-6/h4-6H,1-3H2
