18
gdb 43194	2.57906	1.74338	1.24963	2.1397	77.16	-0.2283	-0.0269	0.2014	1034.9701	0.147938	-401.906284	-401.898545	-401.897601	-401.938725	29.825	
O	-0.0348225553	 0.0385481728	-0.5841644014	-0.313686
C	-0.0554781952	 1.1822992725	-0.2292473021	 0.33636
C	-1.1486875099	 2.2074213913	 0.1311830144	-0.108789
C	-1.5853054344	 2.2383088542	 1.6155757151	-0.251179
C	-0.3943838925	 3.2013521147	 1.8588213479	-0.16937
N	-0.0559864155	 3.2453022673	 0.3897998172	-0.186946
C	 0.9719930617	 2.2517325318	 0.0169225267	 0.225028
C	 2.3766445752	 2.1387788377	 0.5450750904	-0.321342
C	 2.1539726774	 2.5427005196	-0.8821672223	-0.313863
H	-1.8939133106	 2.4166712219	-0.6396595442	 0.105542
H	-2.5654414421	 2.6937908552	 1.7656880332	 0.119995
H	-1.562296188	 1.2795096396	 2.1372639112	 0.121742
H	-0.6685780608	 4.1891735974	 2.2371230691	 0.110687
H	 0.4138384134	 2.8013224161	 2.4790219453	 0.108866
H	 2.6919256414	 2.9061078271	 1.2446239785	 0.129779
H	 2.746728704	 1.1414999254	 0.7576905769	 0.136767
H	 2.3609769642	 1.8229413674	-1.666810516	 0.135052
H	 2.296498837	 3.5844163482	-1.1454892196	 0.135358
74.7045	165.1645	198.1075	206.4939	234.3796	397.1042	468.5761	591.0009	661.1607	702.962	751.1863	773.9383	796.2344	820.56	878.498	899.8478	933.2271	940.0249	977.1918	992.0953	1028.2956	1040.6926	1061.3551	1075.2659	1093.0819	1160.7915	1179.0978	1197.1038	1219.2667	1244.5623	1252.5872	1286.4161	1308.1947	1351.8196	1450.1521	1481.3887	1486.4394	1507.8591	1885.7918	3049.4002	3075.5184	3088.0006	3097.1352	3131.0357	3131.637	3137.4128	3217.7109	3236.5904
O=C1C2CCN2C11CC1	O=C1[C@H]2CCN2C21CC2	
InChI=1S/C7H9NO/c9-6-5-1-4-8(5)7(6)2-3-7/h5H,1-4H2	InChI=1S/C7H9NO/c9-6-5-1-4-8(5)7(6)2-3-7/h5H,1-4H2/t5-/m1/s1
