22
gdb 18049	3.26041	1.97482	1.47693	0.131	80.82	-0.2718	0.0825	0.3543	947.5242	0.204466	-313.083358	-313.076308	-313.075364	-313.114203	29.271	
C	-0.0026564348	 1.5684896757	-0.1252196414	-0.234431
C	 1.5434348348	 1.5085119123	 0.0196561797	-0.227466
C	 1.3880438754	 0.1088757844	 0.6815000165	 0.001182
C	 1.3292541069	 0.1669695665	 2.2184913527	-0.197584
C	 0.3259496404	-0.8332737416	 2.8090746594	-0.187213
C	-1.0843193101	-0.5518020538	 2.2723483554	-0.185131
C	-1.1393163096	-0.7226730887	 0.7463441998	-0.228374
C	-0.0220306621	 0.0187952828	 0.0118563901	 0.055174
H	-0.4722349804	 2.0676944262	 0.7276450078	 0.099043
H	-0.4154694247	 1.9972693894	-1.0419876603	 0.089761
H	 2.0354859193	 1.4484464033	-0.9554619986	 0.094667
H	 2.0338200504	 2.2881486191	 0.6095525691	 0.089577
H	 2.1017185175	-0.6599172398	 0.3683627456	 0.055186
H	 2.3321502108	 0.0056779443	 2.6304319394	 0.088509
H	 1.0302578347	 1.17384678	 2.5399198778	 0.090388
H	 0.6200705551	-1.8603536731	 2.5496980297	 0.088259
H	 0.3368565296	-0.7723962031	 3.903252549	 0.087041
H	-1.8171716884	-1.2168898601	 2.7427722054	 0.086915
H	-1.3730391868	 0.4709901913	 2.550806784	 0.09151
H	-1.0509036866	-1.7945020209	 0.5201481376	 0.090335
H	-2.1171308828	-0.4100065798	 0.3578632103	 0.088654
H	 0.0919900014	-0.4087468042	-0.990876529	 0.063998
160.1704	163.0923	296.8849	339.8223	356.1683	429.2173	464.6196	605.35	629.1803	750.4961	774.5693	801.4993	855.017	878.4247	906.5753	931.8618	936.8103	952.0078	968.0862	1027.2169	1052.6856	1066.0827	1076.7909	1128.1466	1142.1502	1154.3083	1193.8067	1228.561	1247.3659	1259.1261	1264.3094	1274.597	1297.2115	1316.8296	1342.2449	1354.7596	1370.3047	1378.5572	1388.3389	1395.2963	1477.6403	1481.5521	1487.4824	1490.596	1499.126	1507.3045	3002.7963	3006.0581	3013.0219	3015.3379	3029.7227	3040.2244	3044.2033	3049.7009	3056.0703	3060.5561	3061.2502	3065.9742	3093.1833	3109.9081
C1CC2CCCCC12	C1C[C@H]2CCCC[C@@H]12	
InChI=1S/C8H14/c1-2-4-8-6-5-7(8)3-1/h7-8H,1-6H2	InChI=1S/C8H14/c1-2-4-8-6-5-7(8)3-1/h7-8H,1-6H2/t7-,8+
