22
gdb 93950	3.36175	1.13202	1.03032	2.2986	81.24	-0.2362	0.0698	0.3061	1276.2245	0.195734	-404.334882	-404.325912	-404.324968	-404.36992	33.723	
C	 0.6529955317	 1.4841000224	-0.1486857429	-0.393218
C	-0.0596519353	 0.1567296272	 0.1125022179	 0.134067
C	 0.1148420434	-0.8792894063	-1.0074934439	-0.226718
C	 1.4294310404	-1.5772063184	-0.617406112	-0.255714
C	 1.4706995597	-1.4435689896	 0.927769521	 0.090969
O	 0.4644224826	-0.4882828088	 1.2805167633	-0.28799
C	 1.2067769645	-2.7463049626	 1.6633567967	 0.005756
C	 0.6085121076	-2.7527707307	 3.0162099075	-0.244245
N	-0.1676426981	-3.2313667618	 1.8510927739	-0.323651
H	 1.7041931162	 1.329568077	-0.4139204435	 0.115922
H	 0.1706613438	 2.0237097315	-0.9705975266	 0.113669
H	 0.6170431323	 2.1129997025	 0.7450035223	 0.125859
H	-1.1169427496	 0.354045958	 0.3221018632	 0.080403
H	-0.7162315105	-1.5908094837	-0.9905051617	 0.111348
H	 0.1485469845	-0.4265910243	-2.001557962	 0.102901
H	 1.4600132856	-2.6211864112	-0.9366060196	 0.114887
H	 2.288126871	-1.070994352	-1.0669235912	 0.10534
H	 2.4518973358	-1.0646460891	 1.2484990003	 0.07825
H	 1.920248133	-3.5294419312	 1.4103864757	 0.086589
H	 0.8864626655	-3.5221443805	 3.730902441	 0.111331
H	 0.3345927243	-1.7938400784	 3.444726035	 0.124054
H	-0.7963009784	-2.4756655199	 1.5829255156	 0.230193
19.1906	85.724	142.902	204.4179	228.9313	240.1359	355.6903	417.5089	424.4575	568.354	676.3238	718.5803	751.1275	803.0838	849.5971	863.7791	906.4604	914.5171	949.7798	976.5579	984.2093	992.0391	1036.0493	1062.8343	1080.2913	1116.0819	1122.5793	1140.3186	1155.2746	1192.7101	1209.6823	1213.6766	1278.0501	1303.9341	1311.288	1316.7136	1328.5306	1357.4186	1374.7202	1392.1898	1408.4055	1417.8869	1482.0787	1490.9277	1496.681	1501.0749	1505.7098	2990.0726	3035.2946	3039.6629	3058.7609	3063.0964	3101.5124	3106.1553	3112.9644	3115.3586	3118.975	3119.3769	3207.5423	3479.98
CC1CCC(O1)C1CN1	C[C@H]1CC[C@@H](O1)[C@H]1CN1	
InChI=1S/C7H13NO/c1-5-2-3-7(9-5)6-4-8-6/h5-8H,2-4H2,1H3	InChI=1S/C7H13NO/c1-5-2-3-7(9-5)6-4-8-6/h5-8H,2-4H2,1H3/t5-,6+,7+/m0/s1
