18
gdb 81127	2.66028	1.35261	1.08193	2.4332	75.61	-0.251	0.0252	0.2762	1149.08	0.146695	-401.899414	-401.890907	-401.889962	-401.93309	31.821	
C	 0.5549900074	 1.6687019374	 0.6574088927	-0.444495
C	 0.1890310089	 0.2327008069	 0.3235271249	 0.014351
C	 0.8548890439	-0.5825822788	-0.822334578	 0.025666
C	 2.1540922594	-0.7369052703	 0.0014823321	-0.267658
C	 0.9293419271	-1.0101044809	 0.9107200479	 0.397798
C	 0.8649061215	-1.6152372887	 2.2968141043	-0.477919
C	 1.4404252078	-0.7307426078	 3.3065254927	 0.267195
N	 1.8988250144	-0.0155468023	 4.0894991342	-0.307442
O	 0.3452066934	-1.8218584402	-0.177434754	-0.344521
H	 1.6309507379	 1.8567677786	 0.6424788284	 0.127531
H	 0.0859289083	 2.3521849904	-0.0583246064	 0.124692
H	 0.1886989609	 1.9338530124	 1.6541471408	 0.139429
H	-0.8932000586	 0.0740471507	 0.3335266727	 0.086015
H	 0.7268729924	-0.49562754	-1.9006260091	 0.101715
H	 2.7428508329	-1.622317525	-0.241096772	 0.111824
H	 2.7713296951	 0.141117152	 0.1934243696	 0.112224
H	-0.1803340695	-1.825458741	 2.5504585964	 0.166849
H	 1.3999961169	-2.5715547134	 2.303446393	 0.166746
49.328	95.2786	173.3636	212.2844	296.8709	326.5776	368.2012	390.074	464.7302	555.2567	591.7953	671.379	753.949	783.155	809.0276	901.3692	903.4394	955.4471	982.9471	989.8034	1011.2327	1068.1124	1097.293	1106.8822	1140.2632	1158.0237	1209.3347	1215.0503	1233.6965	1283.6289	1287.9788	1332.6863	1389.7604	1419.1907	1459.6166	1491.7815	1492.8233	1506.5088	2366.2147	3041.8716	3045.4062	3074.1427	3083.4437	3087.0186	3103.2428	3124.5383	3129.4551	3158.1356
CC1C2CC1(CC#N)O2	C[C@H]1[C@H]2C[C@]1(CC#N)O2	
InChI=1S/C7H9NO/c1-5-6-4-7(5,9-6)2-3-8/h5-6H,2,4H2,1H3	InChI=1S/C7H9NO/c1-5-6-4-7(5,9-6)2-3-8/h5-6H,2,4H2,1H3/t5-,6+,7-/m0/s1
