15
gdb 23543	2.30009	1.70176	1.17065	1.2506	70.21	-0.2422	-0.0503	0.1919	1036.8844	0.110886	-453.846928	-453.838661	-453.837716	-453.88051	29.778	
O	-0.4154571529	 1.4101120205	-0.1078171002	-0.39277
N	-0.0875556455	 0.0447539069	-0.0926180666	-0.253841
C	-1.1262633978	-0.6571633199	 0.0758615827	 0.455882
C	-1.3377168141	-2.1213765293	 0.0564501877	-0.134989
C	-2.2596810513	-2.5151486125	 1.1512925729	-0.24817
N	-2.8614141064	-1.9165986622	-0.0519123064	-0.148309
C	-2.6228397514	-0.4030841958	 0.0521837325	-0.152325
C	-3.3224087433	 0.2776689389	 1.2113755152	 0.160637
O	-2.9224757958	 0.2511383001	 2.3482593098	-0.239762
H	 0.4429850642	 1.8280752971	-0.2362301677	 0.31338
H	-0.8037301782	-2.8375599499	-0.5564625311	 0.123824
H	-2.4828813872	-3.574722553	 1.2309947979	 0.135748
H	-2.2611723714	-1.9645620414	 2.086132877	 0.161022
H	-2.9316932722	 0.0561986471	-0.8917307641	 0.121366
H	-4.2726482266	 0.7907465133	 0.9501771304	 0.098308
52.1698	105.076	140.9856	202.1624	264.5564	324.4287	397.0431	444.0822	492.2555	571.4463	690.4083	718.7105	744.3464	782.1424	870.5628	900.4643	971.3274	989.4362	1033.1752	1047.6268	1066.2243	1126.5138	1148.0076	1180.7002	1212.1695	1249.0119	1320.2437	1335.8154	1422.964	1423.8999	1494.8124	1794.3113	1817.0484	2904.0703	3072.828	3128.2543	3193.1782	3222.6989	3818.1949
ON=C1C2CN2C1C=O	ON=C1[C@H]2CN2[C@H]1C=O	
InChI=1S/C5H6N2O2/c8-2-4-5(6-9)3-1-7(3)4/h2-4,9H,1H2	InChI=1S/C5H6N2O2/c8-2-4-5(6-9)3-1-7(3)4/h2-4,9H,1H2/t3-,4+,7?/m1/s1
