24
gdb 60175	3.45785	0.88623	0.85544	3.3209	86.73	-0.2377	0.0654	0.3032	1528.8427	0.216363	-405.541216	-405.530832	-405.529888	-405.576168	39.707	
C	-0.1745822166	 1.5539690415	-0.1136185378	-0.379488
C	-0.1437378492	 0.0532225468	-0.3775880401	 0.147968
O	-0.9768099635	-0.1973637758	-1.4975154908	-0.442869
C	 1.2896151457	-0.454962876	-0.6296058803	-0.233019
C	 1.3992997405	-1.9668435092	-0.814882496	-0.06797
N	 0.2395526378	-2.699619538	-1.3954507763	-0.380214
C	 1.5176310029	-2.6572458493	-2.1347993551	 0.341113
C	 1.4666069449	-1.8607978469	-3.4229161643	-0.454053
C	 2.3308929296	-3.9338949336	-2.2047618063	-0.463274
H	 0.4069201989	 1.8121550377	 0.7769105914	 0.102956
H	 0.2363803423	 2.0987502425	-0.9700528691	 0.116056
H	-1.2059786285	 1.8854023139	 0.0338780201	 0.120675
H	-0.5404005461	-0.467474898	 0.5123898853	 0.053304
H	-0.9290272164	-1.1590796015	-1.6408835534	 0.293006
H	 1.6829397816	 0.0708032364	-1.5068967383	 0.105719
H	 1.9250166278	-0.1687181319	 0.2165953186	 0.09216
H	 1.8903552788	-2.4808262246	 0.0092595591	 0.081984
H	 0.1140893203	-3.5933150582	-0.9283138314	 0.229389
H	 0.7842399507	-1.0138332607	-3.3316953663	 0.146716
H	 2.4615605367	-1.4866227826	-3.6897387959	 0.113427
H	 1.1152198812	-2.4929558424	-4.2459075039	 0.115957
H	 1.9165401568	-4.6199950467	-2.9528100839	 0.12289
H	 3.3670059689	-3.7221437504	-2.4908332981	 0.126533
H	 2.3487458448	-4.4520350231	-1.2400823972	 0.111036
66.5529	98.1004	158.8119	210.2655	223.9797	232.5814	263.7011	298.2171	314.3232	370.8469	412.4361	428.3854	459.9206	503.417	580.6849	706.0533	736.3283	791.344	838.6699	893.3894	922.3956	942.2765	963.3167	976.0511	995.9796	1030.9413	1070.2564	1091.234	1103.3794	1139.7138	1156.2292	1166.6228	1197.9246	1272.1331	1310.3546	1320.0166	1339.3935	1359.7298	1386.8512	1401.1884	1413.4255	1425.158	1445.6298	1471.7538	1481.8649	1485.6512	1487.0319	1493.2596	1500.7233	1510.9429	1516.3538	2936.2305	3022.9818	3031.9536	3033.6824	3038.9922	3072.5108	3087.4316	3092.5393	3097.2239	3108.83	3118.8351	3119.1743	3137.3439	3503.3367	3605.4996
CC(O)CC1NC1(C)C	C[C@@H](O)C[C@H]1NC1(C)C	
InChI=1S/C7H15NO/c1-5(9)4-6-7(2,3)8-6/h5-6,8-9H,4H2,1-3H3	InChI=1S/C7H15NO/c1-5(9)4-6-7(2,3)8-6/h5-6,8-9H,4H2,1-3H3/t5-,6-/m1/s1
