17
gdb 64537	4.07832	1.2509	1.1108	3.6614	72.36	-0.2452	-0.027	0.2183	1086.8514	0.133914	-421.746874	-421.738978	-421.738034	-421.779192	30.443	
C	-0.0809173947	 1.6272581272	 0.0657812538	-0.473897
C	 0.0637651689	 0.1113324129	 0.0867602439	 0.224413
C	-1.1296296594	-0.6262956339	-0.4637227686	 0.139876
O	-2.128853332	-0.1098035526	-0.8923591099	-0.270134
C	 1.3111462976	-0.7225480423	-0.2127376842	-0.154664
C	 2.6224571746	-0.1536299747	 0.4168985439	 0.00601
O	 2.3445263516	 1.0576662079	 1.1257831413	-0.234851
C	 2.0315188826	-0.1916843043	 1.7487816327	 0.006015
C	 0.6968193895	-0.7620766706	 1.1718673085	-0.154657
H	 0.6940147027	 2.0981168715	-0.5392482429	 0.128504
H	-1.0578702113	 1.8675809635	-0.3614193857	 0.135753
H	-0.0201017364	 2.0521606553	 1.0678191823	 0.128481
H	-1.0244453278	-1.7357687182	-0.4486134078	 0.07344
H	 1.3168369809	-1.5004146452	-0.9665784313	 0.102891
H	 3.6320523819	-0.3177834821	 0.0621505676	 0.119965
H	 2.449861881	-0.393927526	 2.7266171733	 0.119963
H	 0.1585161404	-1.5749278287	 1.6439760433	 0.102891
103.0096	137.5932	208.9559	221.3007	328.5138	349.1669	360.1858	504.215	509.5576	672.4651	727.6964	747.6874	770.2879	805.0561	869.4966	870.5171	902.012	925.5229	955.8298	999.0123	1032.8285	1040.933	1041.1903	1045.7295	1100.3381	1152.5989	1227.3715	1230.0179	1249.6422	1287.0458	1331.3772	1405.362	1417.8502	1445.3847	1486.9999	1504.3415	1826.8364	2862.6092	3064.6611	3138.6044	3149.0881	3180.0831	3188.6656	3194.6404	3209.211
CC1(C=O)C2C3OC3C12	C[C@@]1(C=O)[C@H]2[C@H]3O[C@H]3[C@@H]12	
InChI=1S/C7H8O2/c1-7(2-8)3-4(7)6-5(3)9-6/h2-6H,1H3	InChI=1S/C7H8O2/c1-7(2-8)3-4(7)6-5(3)9-6/h2-6H,1H3/t3-,4+,5-,6+,7-
