14
gdb 125400	2.46925	1.78898	1.04403	2.6239	68.11	-0.251	-0.0609	0.19	1063.7233	0.100462	-473.827347	-473.819544	-473.818599	-473.859762	28.923	
C	-0.0195322597	 1.4918156564	 0.0326534377	-0.478939
C	-0.0051395934	-0.0070350474	-0.0025890552	 0.082094
C	-0.0345417164	-0.7199936003	-1.1496557866	 0.04635
O	-0.0236098368	-2.0556848496	-1.2457812986	-0.228267
N	 0.0214159752	-2.8362645082	-0.1006915808	-0.190607
C	 0.051284528	-2.217039629	 1.0344781095	 0.338837
O	 0.0947875315	-2.9618780801	 2.1423547102	-0.370376
C	 0.0426533292	-0.7412657365	 1.2480513167	 0.260701
O	 0.0730468676	-0.2454443115	 2.3607888397	-0.343288
H	 0.872293292	 1.8708857299	 0.5419809544	 0.151185
H	-0.0601781063	 1.9187564586	-0.9724233744	 0.121025
H	-0.8801005288	 1.8522863819	 0.6052331288	 0.151303
H	-0.0710888801	-0.2790485538	-2.1407120517	 0.147633
H	 0.0959198578	-3.8924621805	 1.8717523801	 0.31235
93.1179	137.0905	249.1165	263.0421	308.6637	320.0602	462.6028	465.9917	499.2684	540.3996	574.7996	586.0179	678.4037	810.4808	860.8658	919.8406	943.273	986.8986	1066.1018	1078.8559	1191.7472	1247.4366	1315.2399	1398.2299	1418.4548	1469.1343	1472.3867	1489.1369	1622.8548	1665.0718	1754.3722	3041.9272	3100.3235	3125.7923	3194.0167	3746.7901
CC1=CON=C(O)C1=O	Cc1conc(O)c1=O	
InChI=1S/C5H5NO3/c1-3-2-9-6-5(8)4(3)7/h2H,1H3,(H,6,8)	InChI=1S/C5H5NO3/c1-3-2-9-6-5(8)4(3)7/h2H,1H3,(H,6,8)
