17
gdb 40008	3.4073	1.66016	1.5661	1.6407	71.54	-0.2362	-0.0012	0.235	911.8988	0.137185	-421.792981	-421.786384	-421.78544	-421.823684	27.608	
C	-0.005947926	 1.5091975241	 0.0272057082	-0.342189
C	 1.298725096	 0.7186019579	 0.030959785	-0.344276
C	-0.0193301598	 0.0188810805	-0.0402915773	 0.503836
O	-0.4559161135	-0.732882881	 1.0822759634	-0.319945
C	-1.064438144	-1.9024508807	 0.4744361074	 0.13031
O	-0.2634878229	-2.1379623473	-0.66111946	-0.228598
C	-0.4954908274	-0.8336026124	-1.2340925903	-0.127549
C	-2.0197248356	-0.7473453823	-1.2173220473	-0.081864
C	-2.3860055471	-1.4348928089	-0.1350093975	-0.088162
H	-0.3181053422	 1.9618572371	 0.9615591016	 0.126591
H	-0.263972633	 2.079615488	-0.8596344498	 0.111518
H	 1.9247266517	 0.7458921131	-0.85522552	 0.113513
H	 1.8385217114	 0.6502706017	 0.9685571057	 0.127545
H	-1.0435575135	-2.7291152459	 1.1805510025	 0.096782
H	 0.0376210471	-0.7036211432	-2.1731860463	 0.094768
H	-2.6204962563	-0.1364688219	-1.8758582976	 0.113665
H	-3.3609721647	-1.5368640788	 0.3194348424	 0.114055
134.0553	250.9381	277.7252	412.3404	442.5305	531.9466	559.3118	658.7011	723.297	759.2267	775.2126	834.9692	848.3957	858.8481	880.8723	885.8459	912.9787	930.0838	947.849	972.378	985.1129	1010.2775	1052.3558	1068.5854	1071.9786	1145.2049	1184.8651	1196.506	1221.9375	1254.5412	1308.9806	1328.1187	1332.3673	1378.5887	1453.0635	1502.0332	1633.8581	3128.2737	3131.1487	3152.0622	3161.3018	3213.369	3226.1827	3227.2821	3251.7957
C1CC11OC2OC1C=C2	C1CC21O[C@@H]1O[C@H]2C=C1	
InChI=1S/C7H8O2/c1-2-6-8-5(1)7(9-6)3-4-7/h1-2,5-6H,3-4H2	InChI=1S/C7H8O2/c1-2-6-8-5(1)7(9-6)3-4-7/h1-2,5-6H,3-4H2/t5-,6-/m0/s1
