13
gdb 53772	4.60279	0.7547	0.64868	1.6646	87.79	-0.2527	-0.0929	0.1598	1602.8225	0.087069	-415.569541	-415.560363	-415.559419	-415.604092	32.669	
N	-0.0737904048	 1.3456075053	 0.2191263933	-0.553733
C	 0.1021539678	 0.0025128446	 0.0744638639	 0.308641
N	 1.170599982	-0.6846292151	-0.0776952347	-0.510707
C	-1.2125812944	-0.7522191904	 0.1344573647	 0.098056
O	-2.2710195871	-0.1559622822	 0.2132033077	-0.313341
C	-1.1401017374	-2.187749218	 0.0831213913	 0.487844
C	-1.191592682	-3.3993563975	 0.0544387523	-0.209614
C	-1.2263244811	-4.7544937731	 0.0192925784	 0.280735
C	-1.2618615202	-5.9615931314	-0.0113454894	-0.533569
H	 0.671161622	 1.9806949462	-0.0093561903	 0.25617
H	-1.0237688755	 1.6826263333	 0.1753435415	 0.273645
H	 2.003637881	-0.0930407875	-0.1153928549	 0.210972
H	-1.2868063903	-7.0231975142	-0.0389749238	 0.204903
60.5308	68.6066	127.488	209.3138	276.6588	305.6782	314.9122	383.1999	451.2018	463.2655	514.5936	535.0503	580.8868	597.3638	622.925	640.8326	678.7954	827.0266	887.0499	959.7452	1086.6071	1135.1015	1244.0582	1433.8619	1600.686	1719.7214	1733.0779	2173.9367	2331.5523	3449.3386	3500.784	3584.6798	3720.2454
NC(=N)C(=O)C#CC#C	NC(=N)C(=O)C#CC#C	
InChI=1S/C6H4N2O/c1-2-3-4-5(9)6(7)8/h1H,(H3,7,8)	InChI=1S/C6H4N2O/c1-2-3-4-5(9)6(7)8/h1H,(H3,7,8)
