19
gdb 100470	4.27816	0.59702	0.54962	0.6733	83.1	-0.2481	0.0253	0.2733	1994.4789	0.156642	-422.967393	-422.957009	-422.956065	-423.004994	35.863	
C	-0.0342278184	 1.6070933541	 0.2070197839	-0.383756
C	-0.011721726	 0.0740117149	 0.0518379118	-0.145986
C	 0.7557454881	-0.6003292424	 1.2028435897	-0.068309
O	 2.093837569	-0.1334413326	 1.1519079357	-0.419677
C	-1.3600847157	-0.4804998046	-0.0394401852	 0.094859
C	-2.4717663797	-0.9432164638	-0.0925473841	 0.08059
C	-3.8097530172	-1.4664976781	-0.144173078	-0.118214
C	-4.2214586217	-2.4614676026	-1.1547546078	-0.160298
O	-3.9969698058	-2.8531265882	 0.1927581017	-0.216331
H	 0.9879247348	 1.9813796541	 0.2896052297	 0.137328
H	-0.5188730427	 2.0773946714	-0.6522154901	 0.120409
H	-0.5865132212	 1.8931948291	 1.1077353463	 0.119586
H	 0.5339575338	-0.1705110848	-0.8698754678	 0.114864
H	 0.2712219775	-0.3449306399	 2.1578352662	 0.096448
H	 0.7042309001	-1.6918905239	 1.08230687	 0.101478
H	 2.5747240303	-0.5130855834	 1.8925970684	 0.290866
H	-4.5838248998	-0.8143234285	 0.2594915274	 0.115149
H	-5.258575104	-2.4813536118	-1.4880074751	 0.117845
H	-3.4857389013	-2.8121404891	-1.8759795724	 0.123148
14.7323	69.0368	81.8414	137.4847	193.6208	201.9941	226.2105	234.471	307.8568	384.2719	460.7308	510.4052	520.9799	574.2853	734.3032	829.8619	848.2572	908.6446	932.1989	982.1023	1032.5385	1079.7023	1085.5252	1105.4016	1139.879	1155.266	1163.8191	1195.3259	1237.6849	1262.0118	1282.5605	1327.8166	1346.4878	1397.9543	1407.8197	1452.4891	1493.4689	1500.4923	1518.7102	1521.4463	2362.1209	2981.4431	3010.2976	3026.9885	3046.9836	3083.9041	3112.0678	3117.7137	3141.1623	3177.5236	3838.1126
CC(CO)C#CC1CO1	C[C@@H](CO)C#C[C@H]1CO1	
InChI=1S/C7H10O2/c1-6(4-8)2-3-7-5-9-7/h6-8H,4-5H2,1H3	InChI=1S/C7H10O2/c1-6(4-8)2-3-7-5-9-7/h6-8H,4-5H2,1H3/t6-,7+/m1/s1
