18
gdb 53298	2.99989	0.78928	0.66816	4.1883	86.87	-0.2444	0.0282	0.2726	1676.7766	0.146187	-364.796626	-364.786722	-364.785778	-364.83336	34.256	
C	 0.0435387021	 1.5054617242	 0.1214948075	-0.498786
C	 0.0257870551	 0.0497801196	 0.0932277538	 0.061862
C	 0.0228014672	-1.1558231413	 0.0752780673	 0.08061
C	 0.0234470561	-2.5907398861	 0.0443334257	-0.209807
C	-0.6124501259	-3.3874833588	 1.1757773622	-0.2798
C	-1.2679639226	-3.3725809916	-0.1726688402	 0.002028
C	-2.5712939696	-2.6230950174	-0.3897889766	-0.368361
C	-3.737898783	-3.4022268895	 0.026986153	 0.264834
N	-4.6524863194	-4.0274953911	 0.355438602	-0.308139
H	 1.0708140868	 1.8857200063	 0.1417912912	 0.152846
H	-0.4495000045	 1.9316133869	-0.7593148646	 0.149011
H	-0.4686049052	 1.8929707588	 1.0091218559	 0.150595
H	 0.9058092338	-3.0363332539	-0.4062171029	 0.116841
H	-0.1131645883	-4.2926202589	 1.501191614	 0.126925
H	-1.078754403	-2.8163674319	 1.9706931367	 0.13277
H	-1.1691603061	-4.273122759	-0.7702977023	 0.111097
H	-2.5560712136	-1.6786798086	 0.1640798932	 0.160791
H	-2.68875248	-2.3590663077	-1.447413286	 0.154682
33.3593	50.8816	71.6045	125.8298	154.2279	234.5901	290.9037	354.4254	374.0044	391.9176	489.0362	532.3805	582.1717	700.9141	804.8295	856.5324	882.2003	919.9427	962.9154	989.836	1050.0202	1053.4753	1063.878	1071.7859	1122.2767	1149.6813	1180.636	1238.6435	1251.4216	1320.2642	1382.5645	1413.0223	1418.5039	1461.3876	1476.9357	1479.0511	1488.7659	2361.8186	2365.1514	3026.9901	3045.0067	3086.9259	3087.3265	3089.3841	3141.9249	3143.383	3163.3717	3232.704
CC#CC1CC1CC#N	CC#C[C@H]1C[C@H]1CC#N	
InChI=1S/C8H9N/c1-2-3-7-6-8(7)4-5-9/h7-8H,4,6H2,1H3	InChI=1S/C8H9N/c1-2-3-7-6-8(7)4-5-9/h7-8H,4,6H2,1H3/t7-,8+/m0/s1
