18
gdb 69144	2.64379	1.66585	1.29204	3.7909	75.78	-0.2243	-0.0219	0.2024	1027.6565	0.148677	-401.937108	-401.929535	-401.928591	-401.96882	30.383	
C	-0.1041213234	 1.5016815952	 0.0074143607	-0.502964
C	 0.0419886864	 0.0037551302	 0.000173538	 0.334153
N	-0.4857700291	-0.8078790422	 1.110328862	-0.36988
C	 0.9872731307	-0.7431206277	 0.8746264987	-0.21891
C	 1.5473764757	-1.9066325617	 0.0774785873	 0.443731
O	 2.5039733185	-2.5681632581	 0.3997821757	-0.331082
C	 0.855677987	-1.9517647787	-1.2610109627	-0.160712
C	-0.659385299	-2.0936905045	-1.3439809622	-0.293968
C	-0.0443033596	-0.7298740439	-1.3469077191	-0.089349
H	 0.6060517742	 1.9686927965	-0.6832107025	 0.132632
H	-1.1133256692	 1.7985333686	-0.3003030034	 0.132508
H	 0.0802588891	 1.9103018936	 1.0062744554	 0.119142
H	-0.7001737861	-0.2024086462	 1.9010401378	 0.233455
H	 1.6240281993	-0.2838050028	 1.6229674514	 0.102658
H	 1.4480986292	-2.3163909684	-2.0913297574	 0.107233
H	-1.0289667195	-2.4780776998	-2.2884245698	 0.116144
H	-1.2065749667	-2.4048170565	-0.4648025787	 0.154042
H	-0.0751340176	-0.1201053035	-2.2422676211	 0.091166
124.5515	193.2333	222.4557	286.718	323.7536	387.2509	445.4414	512.555	565.3335	577.4389	690.679	749.4097	770.186	805.531	849.6755	862.533	930.6781	945.4592	963.2602	1001.9804	1029.5293	1035.0675	1077.8917	1093.5721	1103.537	1115.7691	1137.1834	1193.3352	1202.4175	1275.7727	1310.5099	1332.5566	1367.6266	1415.235	1435.8812	1472.8009	1483.8765	1500.6569	1827.7291	3027.3837	3092.0848	3102.8287	3146.8486	3176.3988	3177.979	3190.3701	3249.4599	3479.1922
CC12NC1C(=O)C1CC21	C[C@]12N[C@H]1C(=O)[C@H]1C[C@@H]21	
InChI=1S/C7H9NO/c1-7-4-2-3(4)5(9)6(7)8-7/h3-4,6,8H,2H2,1H3	InChI=1S/C7H9NO/c1-7-4-2-3(4)5(9)6(7)8-7/h3-4,6,8H,2H2,1H3/t3-,4+,6-,7+/m0/s1
