21
gdb 120329	3.3665	0.96777	0.92999	1.9915	79.1	-0.2361	0.0838	0.3199	1391.2986	0.182907	-424.195224	-424.186243	-424.185298	-424.229871	32.806	
C	 0.0902003876	 1.3631600503	 0.131012939	-0.223865
O	 0.1554155164	-0.0394437382	 0.067375729	-0.232579
C	 0.5314746327	-0.5099138224	-1.2124605328	-0.07721
C	 0.5795368148	-2.0126271452	-1.1544559884	-0.058137
C	 1.1785462496	-2.8775455792	-2.2533326117	-0.11004
C	 2.1334055119	-2.2467353285	-3.2701821508	-0.258962
C	 3.439169078	-2.0970646972	-2.4590350432	-0.060336
O	 3.0540215545	-2.0321297299	-1.0820436296	-0.257347
C	 1.8659201491	-2.7642740047	-0.9191479117	 0.0827
H	 1.0644074609	 1.8300144514	-0.0861849322	 0.103311
H	-0.6489091821	 1.77311369	-0.5770407791	 0.098312
H	-0.210032255	 1.6320895327	 1.1468925379	 0.124708
H	-0.2009581073	-0.1741708403	-1.9681915326	 0.079318
H	 1.5121310814	-0.0998834135	-1.4956254541	 0.094648
H	-0.2981606906	-2.440531237	-0.6764648151	 0.093195
H	 0.6415658478	-3.7744411363	-2.538136169	 0.091132
H	 2.2709738359	-2.8985735821	-4.1369848261	 0.105696
H	 1.7769399377	-1.2815164328	-3.6432380435	 0.109268
H	 4.0979113069	-2.9634053392	-2.622733203	 0.095292
H	 4.002202009	-1.1880633997	-2.689567936	 0.107418
H	 1.9266345606	-3.5710791882	-0.195257357	 0.093479
56.802	86.0363	108.2233	151.7083	225.0112	253.299	264.5808	403.599	480.2864	585.3607	648.5167	723.4326	777.8965	809.6604	855.6543	911.6351	953.4452	963.5559	983.4486	999.7149	1032.4909	1070.6081	1076.3305	1113.9463	1139.1078	1143.0087	1161.4258	1184.2496	1205.1992	1220.7498	1236.1926	1244.3662	1277.4836	1299.3601	1316.6385	1341.9827	1388.4092	1406.0557	1453.4182	1479.9796	1485.3572	1497.1344	1499.8363	1518.6094	1525.1961	2942.4461	2964.3194	2988.1948	3004.5754	3007.9427	3052.3195	3083.6554	3099.3331	3110.7896	3141.9141	3153.7816	3178.4636
COCC1C2CCOC12	COC[C@H]1[C@H]2CCO[C@@H]12	
InChI=1S/C7H12O2/c1-8-4-6-5-2-3-9-7(5)6/h5-7H,2-4H2,1H3	InChI=1S/C7H12O2/c1-8-4-6-5-2-3-9-7(5)6/h5-7H,2-4H2,1H3/t5-,6+,7-/m1/s1
