19
gdb 110572	3.58249	1.13434	1.01354	1.3691	76.07	-0.2535	0.0746	0.328	1217.9115	0.158731	-422.940196	-422.931917	-422.930973	-422.97302	32.239	
O	-0.0648386712	 1.4601517717	-0.3127786059	-0.423076
C	 0.0281452944	 0.1044149158	 0.1100899604	-0.120215
C	-1.3614740638	-0.4929632458	 0.0425209925	 0.006353
C	-1.967360603	-0.8494761818	-1.3335272214	-0.109834
C	-1.1782459201	-2.1993629843	-1.4389483569	-0.056803
C	-2.4468345762	-3.0329237948	-1.7210205095	-0.331455
C	-2.8769534703	-1.9693235443	-0.6923816767	 0.401991
O	-4.0895880213	-1.8055239501	-0.051708597	-0.476157
C	-1.5260211099	-2.0299468718	 0.0833266901	-0.104066
H	 0.8080289024	 1.8571821309	-0.2416329333	 0.28494
H	 0.722235157	-0.46320981	-0.5297834951	 0.079625
H	 0.4075067547	 0.0363277391	 1.1432355093	 0.082275
H	-2.0392393358	 0.0570052653	 0.7036088295	 0.080847
H	-2.2305705643	-0.1931909312	-2.1644325597	 0.070203
H	-0.185656377	-2.3306204595	-1.8613837459	 0.080906
H	-2.8711860009	-2.9535393757	-2.7280598133	 0.08615
H	-2.4402629995	-4.073447295	-1.3806169771	 0.094617
H	-4.7524196865	-1.5660932485	-0.7084950017	 0.283997
H	-1.2829618687	-2.7367614699	 0.8789526517	 0.069703
83.4247	141.3667	203.8745	257.7841	265.8743	325.7459	349.3703	401.3419	486.6473	539.9888	660.29	720.9074	771.964	845.4632	867.4455	881.1776	914.369	933.6345	993.3158	1005.5455	1026.7674	1043.2903	1066.961	1072.671	1088.5282	1118.7076	1133.9647	1152.3675	1173.834	1198.0224	1208.9618	1230.4429	1256.2197	1269.406	1288.527	1303.6145	1380.7897	1390.2047	1465.3172	1511.6872	1518.8717	2960.8388	2989.419	3032.8619	3061.8763	3093.2034	3096.6829	3104.382	3152.2158	3806.5584	3828.1237
OCC1C2C3CC2(O)C13	OC[C@H]1[C@H]2[C@@H]3C[C@@]2(O)[C@H]13	
InChI=1S/C7H10O2/c8-2-4-5-3-1-7(5,9)6(3)4/h3-6,8-9H,1-2H2	InChI=1S/C7H10O2/c8-2-4-5-3-1-7(5,9)6(3)4/h3-6,8-9H,1-2H2/t3-,4-,5+,6-,7-
