19
gdb 32703	2.9572	1.21216	0.92932	2.9767	81.57	-0.1823	0.0299	0.2122	1307.7417	0.158631	-419.226712	-419.217096	-419.216151	-419.263153	33.589	
C	 0.2125895905	 1.3589618077	 0.1889812733	-0.36121
C	-0.1023996617	-0.1031797628	-0.1497264019	-0.131531
N	 0.6349324426	-0.5668152604	-1.3157155042	-0.400628
C	 1.7742919747	-1.0908026455	-1.1509459813	 0.516275
O	 2.4317219509	-1.3129545333	 0.0473737795	-0.229597
C	 3.6339478802	-1.9377723047	-0.2350206517	-0.058168
C	 3.753955989	-2.0996528146	-1.556194551	-0.115357
N	 2.6120254151	-1.5647866361	-2.1468342577	-0.127007
C	 2.2621471284	-1.5667934084	-3.548284501	-0.343704
H	 1.2625872724	 1.4723401579	 0.4769456334	 0.115008
H	 0.026671496	 2.0018627247	-0.6767627287	 0.117087
H	-0.4092978473	 1.7088320985	 1.0201697735	 0.102635
H	 0.0900120464	-0.7296134321	 0.7334170536	 0.094783
H	-1.1708602121	-0.193839476	-0.3777442305	 0.092486
H	 4.263804256	-2.1808996742	 0.6014297854	 0.14719
H	 4.5462813906	-2.5370876282	-2.139356631	 0.145023
H	 2.000176996	-2.5718070233	-3.9009802041	 0.131136
H	 1.3947836682	-0.9158761021	-3.6653344029	 0.175644
H	 3.090727424	-1.1836646672	-4.1521977626	 0.129935
28.2895	34.3056	90.9955	159.0136	182.2627	214.5693	263.5917	311.5412	434.259	556.0021	569.3724	632.6397	665.8045	730.1967	752.8121	777.0438	819.6308	880.4357	927.6984	1030.6967	1040.1699	1072.4964	1118.2047	1131.0313	1153.8849	1157.636	1186.0544	1284.4208	1308.4228	1356.5242	1376.5537	1400.1525	1423.7794	1467.7093	1490.0638	1494.6993	1496.8785	1512.0652	1514.3911	1661.8015	1785.6717	2995.8477	3022.5311	3032.0094	3044.2851	3082.8936	3102.5213	3111.8215	3150.8199	3281.331	3313.2934
CCN=C1OC=CN1C	CCN=c1occn1C	
InChI=1S/C6H10N2O/c1-3-7-6-8(2)4-5-9-6/h4-5H,3H2,1-2H3	InChI=1S/C6H10N2O/c1-3-7-6-8(2)4-5-9-6/h4-5H,3H2,1-2H3
