23
gdb 118150	3.48247	0.75543	0.66027	2.5146	82.1	-0.2437	0.063	0.3068	1765.891	0.204326	-425.406289	-425.395782	-425.394837	-425.44305	37.405	
C	-0.027134454	 1.550422065	 0.1019855342	-0.382892
C	 0.0008517121	 0.0218686911	 0.0296444571	-0.164956
C	 0.7255679852	-0.507778532	-1.212126787	-0.191387
C	 0.6985391787	-2.0353343227	-1.3339389906	 0.106689
O	-0.6353321084	-2.5414910281	-1.3908915016	-0.433328
C	 1.5113890239	-2.5426634049	-2.5216174831	-0.047796
C	 3.051046642	-2.5177577934	-2.3843614477	-0.085519
O	 3.1242878222	-3.9555972316	-2.4058564904	-0.273272
C	 1.6973625251	-4.0725133619	-2.6003201897	-0.087803
H	 0.9859964157	 1.9678729924	 0.1215020393	 0.112683
H	-0.5424389441	 1.9798108584	-0.7648081041	 0.111441
H	-0.5462981961	 1.8967113467	 1.0010086325	 0.114017
H	 0.4892421185	-0.3803131057	 0.9269808902	 0.09645
H	-1.0197516639	-0.3755121209	 0.0370773904	 0.10958
H	 0.2723047269	-0.0765052832	-2.1187035595	 0.081221
H	 1.7700267773	-0.1675765637	-1.2071763221	 0.098695
H	 1.1130672651	-2.4755304296	-0.4166279417	 0.090426
H	-1.0584404934	-2.1605030284	-2.1690525406	 0.276331
H	 1.1379584203	-2.0867318269	-3.4452890125	 0.065406
H	 3.5960685063	-2.0643051084	-3.221989886	 0.098253
H	 3.4385370516	-2.0988836363	-1.4454812021	 0.097522
H	 1.2115630266	-4.6424009078	-1.7996734621	 0.112572
H	 1.4544692322	-4.534652778	-3.5651823927	 0.095668
50.9869	61.7305	93.7305	108.3941	126.5794	218.7923	251.2158	294.8707	306.2338	340.9946	388.7559	467.6175	540.1274	748.0331	816.1618	845.8352	873.7956	887.3134	900.5522	951.0142	986.1145	1020.9582	1043.3664	1050.3565	1071.1272	1094.4891	1107.7284	1131.9765	1151.3152	1161.1978	1176.0243	1241.5102	1255.0587	1273.8144	1295.6866	1307.4287	1326.1751	1353.8735	1372.8347	1395.543	1405.2894	1414.0725	1420.5459	1478.2747	1493.8469	1500.5229	1511.3274	1512.3317	1538.1626	2987.8368	2999.0758	3015.0519	3020.7046	3024.3875	3028.1801	3035.0134	3037.9311	3050.9329	3065.7324	3070.5424	3096.0996	3102.0092	3791.5594
CCCC(O)C1COC1	CCC[C@@H](O)C1COC1	
InChI=1S/C7H14O2/c1-2-3-7(8)6-4-9-5-6/h6-8H,2-5H2,1H3	InChI=1S/C7H14O2/c1-2-3-7(8)6-4-9-5-6/h6-8H,2-5H2,1H3/t7-/m1/s1
