16
gdb 79275	2.72619	1.64595	1.34294	3.4579	68.82	-0.237	-0.0429	0.1941	969.0045	0.124638	-437.817343	-437.810064	-437.809119	-437.849215	28.436	
O	 0.0058418281	 1.4383186414	 0.0200289112	-0.438275
C	-0.0362018076	 0.0512699806	 0.0079909135	 0.157089
C	-1.3671901484	-0.6985224878	-0.0881148823	-0.139756
C	-1.6836425887	-0.7769707828	-1.5829045427	-0.01698
N	-0.6442060661	 0.0326094761	-2.2630614357	-0.375971
C	 0.3228510321	-0.6527645308	-1.3486784729	 0.170258
C	 1.711843903	-0.875384068	-1.8228919137	 0.033629
O	 2.0871741702	-0.6148848307	-2.9399095492	-0.250686
C	-0.7425239469	-1.7710979873	-0.9708700501	-0.165691
H	-0.3557372153	 1.70722862	-0.8392808246	 0.291099
H	 0.5753502175	-0.327810203	 0.8309542686	 0.09569
H	-2.1296068751	-0.8190050764	 0.6704334013	 0.100725
H	-2.6878392862	-0.8999937946	-1.9660003849	 0.109253
H	-0.4842604283	-0.3238555868	-3.2038289323	 0.235518
H	 2.3945509823	-1.3220948487	-1.0667069484	 0.084708
H	-0.7061920106	-2.8485873313	-0.8936768278	 0.109389
82.5814	189.3043	214.4648	254.5839	342.9061	451.2173	555.2977	587.1709	632.4911	701.7195	759.4565	771.884	794.4739	809.6399	841.578	938.6713	952.8334	961.5232	993.8843	1012.0797	1040.5454	1058.4345	1072.4756	1139.9384	1149.0243	1168.1718	1193.4361	1248.3867	1279.2676	1320.1353	1336.4393	1374.9178	1425.0528	1447.8135	1808.8872	2890.629	3089.5374	3202.5868	3206.1099	3221.6292	3486.2008	3702.4101
OC1C2C3NC1(C=O)C23	O[C@H]1[C@H]2[C@H]3N[C@]1(C=O)[C@@H]23	
InChI=1S/C6H7NO2/c8-1-6-3-2(5(6)9)4(3)7-6/h1-5,7,9H	InChI=1S/C6H7NO2/c8-1-6-3-2(5(6)9)4(3)7-6/h1-5,7,9H/t2-,3+,4-,5+,6-/m1/s1
