18
gdb 37601	2.86229	2.34861	2.02972	1.7885	72.22	-0.2228	0.0841	0.307	788.5993	0.153072	-401.932099	-401.926712	-401.925768	-401.961461	24.438	
C	-0.0166692411	 1.5913435325	 0.023874734	-0.215757
C	 1.5230202615	 1.6631471021	 0.0193146556	 0.061792
O	 1.8297131166	 0.96716386	 1.2270493855	-0.270301
C	 1.1272447251	-0.2808944582	 1.051560647	 0.057937
C	 2.1118741457	-1.1898710964	 0.3250750757	-0.149173
N	 2.1292526599	-0.6760753584	-1.0540653354	-0.124492
C	 1.8935426321	 0.7836351717	-1.2093108773	-0.04616
C	 0.7760189462	-0.2024942145	-1.3341290736	-0.055641
C	 0.0109272986	 0.0451423609	-0.0122883378	-0.085993
H	-0.449832885	 2.0289583438	 0.9275499402	 0.102083
H	-0.4878305669	 2.0185439892	-0.8652768721	 0.100523
H	 1.9992147221	 2.6428597859	 0.0415004323	 0.076996
H	 0.7715070669	-0.6312865497	 2.0222608568	 0.080512
H	 3.1022956484	-1.1431210117	 0.784066025	 0.115441
H	 1.7831199269	-2.2349806032	 0.2827733154	 0.097936
H	 2.4084438876	 1.2298966277	-2.0532081764	 0.094553
H	 0.2815160655	-0.5039709538	-2.2511351508	 0.087902
H	-0.9290134399	-0.489165998	 0.1169200658	 0.07184
330.7166	419.6683	459.3048	540.9805	599.1471	636.9502	732.7575	739.5646	799.3758	804.831	860.6568	865.5372	881.9098	915.1734	946.1781	948.983	960.4168	972.82	993.6269	1009.7719	1040.5348	1055.1696	1083.4192	1088.9115	1140.7995	1186.5245	1209.5679	1230.8498	1241.2251	1265.8066	1271.1484	1283.6962	1301.0081	1319.6405	1332.377	1357.7411	1376.194	1488.6333	1489.4792	3038.428	3058.6079	3095.2205	3108.1541	3116.0867	3126.8718	3132.1932	3162.1766	3171.983
C1C2OC3CN4C2C4C13	C1[C@H]2O[C@@H]3CN4[C@H]2[C@@H]4[C@H]13	
InChI=1S/C7H9NO/c1-3-5-2-8-6(3)7(8)4(1)9-5/h3-7H,1-2H2	InChI=1S/C7H9NO/c1-3-5-2-8-6(3)7(8)4(1)9-5/h3-7H,1-2H2/t3-,4-,5-,6+,7-,8?/m1/s1
