17
gdb 76163	2.15005	1.49443	1.21058	5.3799	70.27	-0.2436	0.0211	0.2647	1099.6373	0.133631	-455.129461	-455.119715	-455.118771	-455.163334	36.17	
C	-0.0077566973	 1.559505356	 0.1156658901	-0.452985
C	 0.0077778028	 0.0559378438	-0.0164020447	 0.30798
O	-1.1619960448	-0.5972554593	 0.379872401	-0.448168
C	 0.6542134532	-0.6520043724	-1.1774683657	-0.148455
N	 1.4155090675	 0.0915800973	-2.1437255312	-0.528607
C	 1.3273556502	-0.7011543474	 0.2129429001	 0.193513
O	 2.5007764753	 0.0262400335	 0.3377733511	-0.457857
C	 1.2852800765	-1.9195839484	 0.9799119075	 0.27198
N	 1.2240004283	-2.8818076105	 1.6194670321	-0.352346
H	 0.9515695379	 1.9981661243	-0.1603793823	 0.136612
H	-0.7973219442	 1.9864542858	-0.511037843	 0.126802
H	-0.2154068951	 1.837896063	 1.1543388101	 0.128395
H	-1.1866465	-0.626244449	 1.3440847886	 0.296734
H	 0.134612311	-1.5529177279	-1.4919519353	 0.121754
H	 1.7919711972	-0.5203249049	-2.8584912952	 0.255234
H	 0.8594726341	 0.805269565	-2.6016256565	 0.254716
H	 2.7149048975	 0.3016343812	-0.5737192967	 0.294698
112.7076	145.8975	154.9204	200.3529	232.2449	252.6824	263.1532	304.0247	339.0602	382.8352	440.8466	462.065	548.4722	575.5413	601.9607	626.3458	701.9503	741.1015	811.9786	909.0741	975.9569	1011.9043	1071.6271	1089.5299	1147.682	1192.6131	1236.7735	1275.2553	1299.7085	1346.5279	1409.1488	1422.4743	1451.0433	1486.6803	1499.865	1653.5042	2347.5093	3041.2737	3100.9573	3147.7544	3150.3311	3518.1651	3589.1161	3598.2237	3786.2436
CC1(O)C(N)C1(O)C#N	C[C@@]1(O)[C@@H](N)[C@]1(O)C#N	
InChI=1S/C5H8N2O2/c1-4(8)3(7)5(4,9)2-6/h3,8-9H,7H2,1H3	InChI=1S/C5H8N2O2/c1-4(8)3(7)5(4,9)2-6/h3,8-9H,7H2,1H3/t3-,4-,5-/m1/s1
