19
gdb 31705	3.13215	1.07141	0.84217	1.9525	79.09	-0.1949	0.0548	0.2497	1404.1049	0.159769	-419.25221	-419.242847	-419.241903	-419.28688	33.705	
C	 0.0726979367	 1.497556692	 0.1503310012	-0.364628
C	-0.0527249193	-0.0247029079	-0.0207824346	-0.285566
C	 0.6913122026	-0.5424005586	-1.210859415	 0.285913
C	 1.7508301082	-1.4017783536	-1.2519213238	-0.202497
N	 2.0676207527	-1.5457233172	-2.6003390214	-0.337632
C	 1.1862505791	-0.7693822276	-3.2820318071	 0.48426
O	 1.2653002579	-0.723547781	-4.6179041116	-0.271434
C	 0.2954455571	 0.1178903548	-5.2433454673	-0.233772
N	 0.3433570595	-0.1484642269	-2.5012590307	-0.417504
H	 1.1151957192	 1.7875619319	 0.3169798409	 0.110584
H	-0.2777978783	 2.0108622593	-0.7491449039	 0.133151
H	-0.5198582704	 1.8476708563	 1.001611008	 0.102891
H	 0.3126529503	-0.535122303	 0.8776977235	 0.093724
H	-1.1144268943	-0.285167656	-0.1193208465	 0.107204
H	 2.2997744899	-1.9173956727	-0.4820862289	 0.123243
H	 2.7953938735	-2.1075070872	-3.0065135269	 0.265209
H	 0.4900958935	 0.0496449402	-6.3142117904	 0.128134
H	-0.7184250312	-0.2241986435	-5.0159648677	 0.139465
H	 0.4003389934	 1.151244281	-4.9001534079	 0.139256
60.1407	107.101	128.3323	155.1107	183.8795	238.5223	290.2874	351.5822	394.7727	467.2627	515.3581	602.786	670.0045	704.2496	736.8704	756.2349	795.0463	955.5628	998.6568	1031.869	1064.7408	1079.6673	1089.2998	1108.1152	1184.1914	1219.3297	1239.0574	1274.2606	1313.633	1361.8769	1372.0993	1404.1083	1462.8348	1476.9586	1477.3255	1494.4525	1498.9251	1508.4106	1512.869	1616.2549	1622.7847	3021.7238	3036.2417	3042.0199	3063.0851	3103.8968	3112.717	3120.8503	3150.4348	3275.5673	3679.2834
CCC1=CNC(OC)=N1	CCc1c[nH]c(OC)n1	
InChI=1S/C6H10N2O/c1-3-5-4-7-6(8-5)9-2/h4H,3H2,1-2H3,(H,7,8)	InChI=1S/C6H10N2O/c1-3-5-4-7-6(8-5)9-2/h4H,3H2,1-2H3,(H,7,8)
