20
gdb 105901	2.15299	1.81868	1.22625	1.1679	79.2	-0.2289	0.0649	0.2937	1094.788	0.170474	-403.050997	-403.042513	-403.041569	-403.083964	32.784	
C	 0.0293538606	 1.5051568332	 0.0164312496	-0.381641
C	 0.0158701862	-0.0268777101	 0.0869814234	-0.332589
C	 0.6792355055	-0.5576189869	 1.3260084899	 0.3731
C	 0.339180342	-0.2807244999	 2.79228106	 0.066484
O	-0.8685568411	-0.8615246228	 3.2167669361	-0.445355
C	 1.6223078457	-1.1173618882	 2.8296194455	-0.059328
C	 1.2057284063	-2.0058614988	 1.6220445504	-0.115155
C	 2.5222754739	-1.6481292809	 0.944125037	-0.195322
N	 2.200065317	-0.3209546424	 1.6291198381	-0.203307
H	 1.0542793718	 1.8839911748	 0.0628474537	 0.136681
H	-0.4280809177	 1.857324927	-0.9126900209	 0.110881
H	-0.5278227621	 1.9444942487	 0.8500579116	 0.120077
H	-1.0160490837	-0.3995744638	 0.0690116516	 0.11548
H	 0.5118036465	-0.4471656478	-0.7970233282	 0.101608
H	 0.450265172	 0.7632394158	 3.1157418361	 0.077196
H	-0.9358330107	-0.7621112816	 4.1713726551	 0.287615
H	 2.2702843477	-1.3897472993	 3.66535049	 0.074765
H	 0.6356236809	-2.9385038314	 1.6334688956	 0.071538
H	 3.4390606138	-2.1140806656	 1.3208475781	 0.097651
H	 2.5534780353	-1.5843440899	-0.1483305726	 0.09962
79.611	174.2461	180.4951	205.526	249.9257	269.6871	314.9888	419.6438	512.0681	560.5858	637.3729	706.3324	768.7791	812.275	852.4608	868.7563	891.4257	921.5204	944.4896	970.1852	991.0252	1030.3559	1074.6258	1085.6079	1102.8283	1130.559	1140.8462	1161.5121	1169.9774	1197.4813	1234.3919	1263.8099	1270.8082	1284.8904	1302.4291	1324.4953	1376.4537	1409.1472	1449.8985	1474.4741	1497.3212	1508.4221	1522.1632	3016.6563	3024.4833	3036.588	3041.1314	3058.2496	3070.1734	3092.3554	3095.6066	3108.4835	3119.7417	3821.9867
CCC12C(O)C3C1CN23	CC[C@@]12[C@@H](O)[C@H]3[C@@H]1CN23	
InChI=1S/C7H11NO/c1-2-7-4-3-8(7)5(4)6(7)9/h4-6,9H,2-3H2,1H3	InChI=1S/C7H11NO/c1-2-7-4-3-8(7)5(4)6(7)9/h4-6,9H,2-3H2,1H3/t4-,5+,6-,7-/m0/s1
