19
gdb 59556	2.61502	1.3407	1.04945	0.988	71.25	-0.2356	0.0599	0.2955	1190.4078	0.156626	-460.109195	-460.09989	-460.098946	-460.14311	35.166	
C	-0.3008062328	 1.4769290396	 0.0289779753	-0.414414
C	-0.0244039264	-0.0177073777	-0.0908956661	 0.102438
O	 0.7676295252	-0.3442959828	-1.2346838254	-0.434032
C	 0.6659969233	-0.5852066085	 1.1416683524	 0.059208
O	-0.1131330453	-0.5243419449	 2.3716767098	-0.311131
C	 0.1283520162	-1.9190768965	 2.6111580044	 0.04723
C	-0.5185304877	-2.7529015802	 1.5384893829	-0.363341
C	 0.8279415474	-2.0978955161	 1.292873676	 0.308862
O	 1.9782578902	-2.7918353653	 0.9902373158	-0.456451
H	 0.6346256468	 2.0363567295	 0.1591692826	 0.106287
H	-0.8029077602	 1.8489158068	-0.868251236	 0.123113
H	-0.9322307481	 1.6766538907	 0.8995486647	 0.142444
H	-0.9693462466	-0.5498182106	-0.2430642139	 0.091936
H	 1.552877286	 0.2145679541	-1.2155871297	 0.281446
H	 1.63416203	-0.0841010664	 1.2955949151	 0.074852
H	 0.3434151933	-2.2348655447	 3.624331611	 0.113269
H	-0.436101783	-3.8242440122	 1.697155757	 0.120078
H	-1.4354640324	-2.41893544	 1.0612795258	 0.115027
H	 1.9281776242	-3.0468926549	 0.0614292383	 0.293179
71.0635	112.8952	160.2055	240.291	258.0902	269.3828	319.7665	361.049	376.4894	415.6206	447.5198	486.2835	525.7038	675.8856	738.7815	857.6354	883.6419	906.1722	940.0107	964.2772	997.3288	1014.7217	1027.1723	1064.1539	1071.071	1093.4536	1119.8623	1183.0356	1211.7979	1228.3758	1260.3627	1287.5144	1318.7243	1333.8741	1397.9424	1401.547	1412.0631	1428.6222	1490.7021	1494.6542	1499.6127	2990.6156	3024.2389	3061.5188	3099.6141	3115.1012	3125.4721	3194.7608	3209.9771	3785.9991	3796.0826
CC(O)C1OC2CC12O	C[C@@H](O)[C@H]1O[C@H]2C[C@@]12O	
InChI=1S/C6H10O3/c1-3(7)5-6(8)2-4(6)9-5/h3-5,7-8H,2H2,1H3	InChI=1S/C6H10O3/c1-3(7)5-6(8)2-4(6)9-5/h3-5,7-8H,2H2,1H3/t3-,4+,5-,6+/m1/s1
