20
gdb 59294	2.44517	1.53219	1.0317	2.5545	81.95	-0.2102	-0.0193	0.1909	1196.2402	0.17013	-403.156007	-403.146954	-403.14601	-403.190089	33.86	
C	 0.1323907457	 1.3330295896	-0.254116732	-0.315726
N	 0.0030498884	-0.0736189666	 0.0958833585	-0.072735
C	 0.6265397808	-0.3519051857	 1.3853455654	-0.332239
C	-1.3840662322	-0.5705489992	 0.0524133904	-0.097554
C	-2.1757754721	-0.1166864663	-1.1488219029	-0.093589
C	-2.4079070609	-1.0982124586	-2.0221122696	-0.077569
C	-1.8308305522	-2.4152792502	-1.5854557131	-0.362349
C	-1.3366521511	-2.1078851978	-0.1653174894	 0.411414
O	-0.9867986309	-2.9237024402	 0.6464212217	-0.310298
H	 1.190083939	 1.610501984	-0.2119190611	 0.119865
H	-0.2199715689	 1.5101578136	-1.2731634267	 0.121385
H	-0.4191166722	 2.0090284784	 0.4281303134	 0.08836
H	 0.1713460461	 0.2325735096	 2.2085892202	 0.087232
H	 0.529406399	-1.4108506754	 1.6275399827	 0.154025
H	 1.6899636597	-0.0981180264	 1.3362006396	 0.113357
H	-1.9162382486	-0.3378856309	 0.9958100495	 0.073528
H	-2.5309271415	 0.9006869885	-1.2579648764	 0.108442
H	-2.9716515526	-0.9847886372	-2.9412599356	 0.105349
H	-2.55387457	-3.2389472585	-1.5636718097	 0.135138
H	-0.9942758956	-2.7540973106	-2.2108627149	 0.143964
56.5564	76.1861	190.5777	216.5255	246.476	266.895	340.482	367.7947	420.8759	443.4971	516.9873	585.795	637.5345	720.9131	775.2483	784.8394	871.1795	973.5735	976.3942	990.933	998.0002	1056.5752	1073.0987	1124.694	1135.1793	1143.2242	1153.3809	1178.5125	1226.7815	1282.8074	1290.7662	1299.0322	1334.0939	1387.4292	1442.3442	1444.4165	1473.6012	1487.3854	1496.4199	1502.5898	1515.2318	1681.8218	1849.3888	2902.4816	2915.6133	2925.2737	3029.0219	3065.7147	3069.3044	3073.3015	3115.5707	3143.7353	3189.013	3213.5297
CN(C)C1C=CCC1=O	CN(C)[C@H]1C=CCC1=O	
InChI=1S/C7H11NO/c1-8(2)6-4-3-5-7(6)9/h3-4,6H,5H2,1-2H3	InChI=1S/C7H11NO/c1-8(2)6-4-3-5-7(6)9/h3-4,6H,5H2,1-2H3/t6-/m0/s1
