20
gdb 13887	3.91371	1.50468	1.15672	1.0835	71.52	-0.2507	0.0907	0.3415	1082.4779	0.17671	-386.151852	-386.143089	-386.142144	-386.185919	31.466	
C	 0.0438481277	 1.5682534783	 0.065395364	-0.395968
C	-0.0536214341	 0.038707155	 0.0177695243	 0.006624
C	 0.5036547804	-0.5292545981	-1.2932256685	-0.396348
C	 0.6645173907	-0.5773996607	 1.2124325262	 0.240829
O	 0.1211705532	-0.1004114946	 2.437493613	-0.274453
C	 0.0918647901	-1.1819057086	 3.362990269	-0.088137
C	 0.6993735048	-2.3584701272	 2.5765059969	-0.110981
O	 0.4983518818	-1.9769501664	 1.2268251254	-0.252342
H	 1.086802248	 1.8984731589	-0.0119860786	 0.11004
H	-0.5057755489	 2.0127564969	-0.7700486765	 0.109999
H	-0.366889995	 1.9597919548	 0.9987462027	 0.133513
H	-1.106131819	-0.2548860162	 0.117310101	 0.081879
H	 1.5645031184	-0.276975085	-1.4104029912	 0.110272
H	 0.4097634445	-1.6172556334	-1.3247184726	 0.131811
H	-0.0316738499	-0.1101326534	-2.1508280797	 0.110554
H	 1.7456283637	-0.3322070445	 1.1839562934	 0.054513
H	 0.6713937412	-0.9346118925	 4.2601909295	 0.1038
H	-0.9464608928	-1.3757466699	 3.6581236083	 0.107822
H	 1.7720196492	-2.4717689203	 2.7963799986	 0.098578
H	 0.1988697058	-3.3134860831	 2.7492121246	 0.117992
36.7881	83.5736	171.7542	192.1675	217.5129	240.8023	314.9643	386.4513	426.6312	482.391	687.271	734.172	855.0129	883.1465	918.6035	931.893	949.0999	962.963	998.8247	1031.2846	1070.295	1133.3085	1137.5566	1160.4847	1187.4886	1205.7118	1225.4169	1249.0245	1322.3904	1333.7191	1345.4885	1378.5066	1388.845	1401.0852	1413.9763	1440.2785	1489.7536	1492.6069	1502.5952	1513.8144	1517.2555	1531.4578	2896.6546	2988.4205	3022.1254	3029.7128	3030.7078	3037.8301	3060.2536	3093.0171	3099.4157	3109.5757	3125.2148	3127.4802
CC(C)C1OCCO1	CC(C)C1OCCO1	
InChI=1S/C6H12O2/c1-5(2)6-7-3-4-8-6/h5-6H,3-4H2,1-2H3	InChI=1S/C6H12O2/c1-5(2)6-7-3-4-8-6/h5-6H,3-4H2,1-2H3
