21
gdb 94440	2.30534	1.37482	1.28122	2.9963	78.2	-0.2357	0.0662	0.3019	1148.1409	0.181619	-424.195883	-424.186706	-424.185762	-424.229828	34.712	
C	-0.3715908649	 1.3956660155	 0.0055597812	-0.409311
C	 0.1356328308	-0.0308405831	-0.0522959399	 0.111511
O	 1.3765369763	-0.1345756046	-0.7989239403	-0.299527
C	 2.040159601	-0.7855540046	 0.2987653009	-0.145825
C	 0.804776591	-0.6688368765	 1.1993066284	 0.248854
C	 0.7861658431	 0.0440559125	 2.5749504232	-0.300035
C	-0.3000835651	-0.9593496995	 3.0485252023	-0.265007
C	 0.1245072309	-1.8807442336	 1.873333974	 0.079361
O	-0.8596780452	-2.5114107047	 1.0901267859	-0.428838
H	 0.3723634731	 2.0673865918	 0.4437784934	 0.117173
H	-0.5900951501	 1.7477080371	-1.0076649971	 0.126634
H	-1.2951911378	 1.4591396404	 0.5917368347	 0.114129
H	-0.625753169	-0.6893084709	-0.4861040216	 0.096303
H	 2.3359518908	-1.8154879944	 0.0535312727	 0.095687
H	 2.9286799785	-0.2317738875	 0.6319317984	 0.093454
H	 1.7343188848	-0.0874371696	 3.1054856732	 0.1021
H	 0.5293330052	 1.1047022432	 2.5880818806	 0.108476
H	-0.2348268804	-1.3544157469	 4.0651855056	 0.093208
H	-1.3085294876	-0.5726372114	 2.8758221288	 0.109899
H	 0.8899595008	-2.6009593493	 2.2028817388	 0.065468
H	-1.2039999361	-3.2658005736	 1.5780669966	 0.286286
66.6475	101.1591	174.8791	220.6615	228.5733	253.2605	270.973	379.2299	404.0147	465.1968	497.4188	554.9088	680.5252	772.516	778.2414	874.3382	879.9433	893.6551	936.0541	955.1871	1024.967	1032.3789	1081.873	1099.1478	1109.4107	1129.309	1155.0941	1158.2926	1180.1153	1213.4227	1219.5272	1245.4607	1268.6406	1275.1766	1296.8042	1330.8802	1369.5147	1386.0214	1403.1631	1424.4517	1475.9124	1482.4641	1495.9638	1499.7771	1520.3031	2972.7068	2990.9129	3030.8072	3032.8772	3042.9165	3056.3803	3059.1068	3103.3872	3108.209	3114.2335	3121.9735	3822.769
CC1OCC11CCC1O	C[C@H]1OC[C@]21CC[C@H]2O	
InChI=1S/C7H12O2/c1-5-7(4-9-5)3-2-6(7)8/h5-6,8H,2-4H2,1H3	InChI=1S/C7H12O2/c1-5-7(4-9-5)3-2-6(7)8/h5-6,8H,2-4H2,1H3/t5-,6-,7+/m1/s1
