14
gdb 9866	6.05871	0.92865	0.86186	1.2366	82.21	-0.2329	-0.0225	0.2104	1295.546	0.104655	-345.329703	-345.321545	-345.320601	-345.362262	30.354	
O	-0.0526397199	 1.3729919887	-0.0778424148	-0.437619
C	-0.0035061478	-0.0278913893	-0.0179272782	 0.170476
C	-0.4754596258	-0.6938712734	 1.2694813413	-0.310765
C	-1.3603707503	-0.6847929107	 0.0519884374	-0.286819
C	 1.0528503412	-0.6451403545	-0.7692493294	 0.529359
C	 1.9766310227	-1.1249425845	-1.3900748573	-0.404885
C	 3.0026294576	-1.6809941245	-2.0870952932	 0.304015
C	 3.916850023	-2.1720361864	-2.7054958523	-0.572228
H	 0.7746042825	 1.7116122898	 0.2836122362	 0.288643
H	-0.0043066349	-1.6233083949	 1.5664303549	 0.130111
H	-0.7238929559	-0.0134857674	 2.0760077283	 0.127001
H	-2.1984886061	 0.0022712001	 0.041986957	 0.136593
H	-1.5052410776	-1.6069751361	-0.4969001707	 0.133889
H	 4.7168479011	-2.6075275469	-3.2508997492	 0.192228
85.037	100.9808	238.2702	242.2632	311.4705	346.2193	381.1229	501.0428	502.2557	549.6391	559.8324	586.8133	606.2304	628.6977	774.8984	852.926	877.953	928.2266	988.7635	1054.9807	1075.4722	1084.0853	1194.8766	1239.3078	1317.5894	1377.8891	1449.5502	1484.0347	2178.796	2348.836	3141.414	3148.839	3232.6982	3247.7916	3504.5501	3795.0013
OC1(CC1)C#CC#C	OC1(CC1)C#CC#C	
InChI=1S/C7H6O/c1-2-3-4-7(8)5-6-7/h1,8H,5-6H2	InChI=1S/C7H6O/c1-2-3-4-7(8)5-6-7/h1,8H,5-6H2
