21
gdb 68114	4.32292	1.00698	0.99631	1.4323	83.07	-0.2487	0.0814	0.3301	1287.1796	0.182839	-387.03125	-387.022892	-387.021948	-387.064246	33.483	
O	-0.081055502	 1.3242971296	 0.0519067725	-0.469815
C	 0.0262361512	-0.0529188126	-0.0039263723	 0.392959
C	 0.5072228104	-1.035924078	 1.1057089826	-0.328567
C	 0.0460440429	-1.9216119486	-0.0970559173	 0.368995
C	-1.1933027744	-0.9745704538	-0.2198593449	-0.299313
C	 0.8032632402	-0.9260843378	-1.0347907818	-0.328548
C	 0.0704310921	-3.408487146	-0.1700027497	-0.128702
C	-1.0647314534	-4.2298348684	 0.3921427535	-0.269319
C	-0.8573025077	-4.1531846268	-1.099489763	-0.269315
H	 0.7983460222	 1.6915181222	 0.1919188837	 0.280989
H	 1.5782502163	-1.0443072348	 1.3320774263	 0.079822
H	-0.1003389341	-1.0887323392	 2.0131966897	 0.091016
H	-1.9238345419	-1.0115201727	 0.5929363657	 0.092025
H	-1.675962829	-0.9195477426	-1.1994965619	 0.092017
H	 0.4648630768	-0.8790599715	-2.0734092014	 0.091011
H	 1.8955885039	-0.9265638134	-0.9624096257	 0.079824
H	 1.0640175261	-3.8348994527	-0.0537426563	 0.079635
H	-0.8234998424	-5.1565716675	 0.9008681298	 0.109857
H	-1.9133540883	-3.6998590813	 0.8109333438	 0.11279
H	-1.567250391	-3.5719677477	-1.6779215858	 0.11278
H	-0.4737870377	-5.0273417363	-1.6138824875	 0.109856
61.3854	149.8769	152.7229	255.6085	318.2217	351.876	418.5986	459.1386	544.8893	560.3374	585.412	647.6078	770.4142	771.861	797.0603	833.514	899.5472	926.0468	937.1302	958.4718	982.1088	1014.2992	1055.0536	1057.5763	1060.9329	1077.7123	1108.1435	1115.496	1125.5442	1134.958	1140.4076	1148.2808	1175.9105	1188.5834	1199.9924	1221.5967	1297.4468	1311.3523	1375.6784	1429.2609	1468.8899	1492.6964	1494.9358	1504.9641	1564.8441	3037.1468	3041.7932	3052.4258	3106.7124	3112.2382	3116.0133	3129.6032	3132.1955	3137.7017	3210.4578	3225.6067	3808.8477
OC12CC(C1)(C2)C1CC1	O[C@@]12C[C@@](C1)(C2)C1CC1	
InChI=1S/C8H12O/c9-8-3-7(4-8,5-8)6-1-2-6/h6,9H,1-5H2	InChI=1S/C8H12O/c9-8-3-7(4-8,5-8)6-1-2-6/h6,9H,1-5H2/t7-,8+
