22
gdb 121964	2.16852	0.85531	0.64658	4.3169	83.82	-0.2651	0.0378	0.3029	1788.9664	0.191546	-404.369937	-404.358825	-404.357881	-404.407637	38.56	
C	-0.0497418126	 1.5066968667	 0.0670100901	-0.384342
C	-0.0544638764	-0.0164459041	-0.0827036759	-0.183045
C	 0.8127220656	-0.4871169906	-1.2422196831	-0.045968
O	 0.7410698737	-1.9012192004	-1.3078934406	-0.255733
C	 1.3917426951	-2.4930411513	-2.4144190108	 0.140253
C	 2.8959575195	-2.6560782477	-2.1840125482	-0.407711
C	 0.7131231249	-3.8602585846	-2.6191484787	-0.348304
C	-0.6985228048	-3.7330788299	-2.9735937499	 0.268963
N	-1.8094090022	-3.6304547344	-3.2735821099	-0.31013
H	 0.9606919473	 1.8887520191	 0.2506928899	 0.11504
H	-0.4312181083	 1.9980143381	-0.8348290031	 0.119123
H	-0.6789631796	 1.8191286453	 0.9050627849	 0.120448
H	 0.306885646	-0.4904960976	 0.8370986774	 0.106388
H	-1.0744004338	-0.3822128615	-0.2442293218	 0.117996
H	 0.4574728178	-0.0490734198	-2.1897285925	 0.093642
H	 1.8524339153	-0.1513539835	-1.0974608299	 0.086612
H	 1.2230990056	-1.8813938734	-3.3148730374	 0.085794
H	 3.3785914955	-3.1129432625	-3.0538453815	 0.119663
H	 3.3689855841	-1.6856164642	-2.0130892123	 0.127969
H	 3.0818459778	-3.2856775363	-1.3081223242	 0.128028
H	 1.2271394356	-4.423025043	-3.4052492556	 0.147246
H	 0.7969838138	-4.4361316645	-1.6908731467	 0.158068
44.016	47.8399	86.614	121.4221	143.6847	168.7642	224.4229	231.8375	291.5266	315.2327	390.5316	407.1525	428.8663	498.28	577.2373	766.1252	845.7962	883.5102	902.222	913.1525	914.0415	970.4236	1046.6057	1074.8933	1114.2734	1115.7069	1150.2767	1164.3864	1191.1565	1254.8358	1268.3432	1308.6761	1316.9603	1333.3966	1375.2738	1379.6456	1405.9364	1415.0143	1440.8393	1452.8919	1489.1144	1492.4147	1495.9552	1501.1777	1507.5627	1527.4223	2366.3629	2960.1864	2981.9579	2990.8887	3032.5436	3040.0738	3042.1018	3051.8238	3075.5017	3095.6375	3101.5424	3110.4844	3113.1119	3121.2797
CCCOC(C)CC#N	CCCO[C@@H](C)CC#N	
InChI=1S/C7H13NO/c1-3-6-9-7(2)4-5-8/h7H,3-4,6H2,1-2H3	InChI=1S/C7H13NO/c1-3-6-9-7(2)4-5-8/h7H,3-4,6H2,1-2H3/t7-/m0/s1
