20
gdb 34304	3.13624	1.40219	1.25194	4.4066	81.92	-0.3004	0.0378	0.3382	1075.2973	0.175165	-366.061042	-366.053599	-366.052654	-366.092752	30.17	
N	 0.0400964957	-1.1097949322	 0.0159343798	-0.350004
C	 0.0135162427	 0.0462977421	 0.0124831204	 0.175258
C	-0.0173133446	 1.4991503894	 0.0126689336	 0.202172
C	-0.8117926708	 2.1143056729	 1.2016993761	-0.243384
C	-1.1119935245	 3.5635333062	 0.7058774375	-0.219247
C	-0.4541878963	 3.6072020866	-0.6917439488	-0.018011
C	 1.0809088105	 3.610221266	-0.5144187198	-0.21925
C	 1.3911423484	 2.1611793646	-0.0242613007	-0.24338
C	-0.7082510065	 2.1753839438	-1.2030526376	-0.244891
H	-1.7309448442	 1.5500998823	 1.3769979932	 0.118473
H	-0.2276928278	 2.0842812182	 2.1246333931	 0.112482
H	-2.1901054007	 3.733285579	 0.6351982149	 0.104483
H	-0.7048162102	 4.3275034345	 1.3738676542	 0.101862
H	-0.8262143741	 4.410635672	-1.3295411626	 0.066893
H	 1.5830824667	 3.8137000737	-1.464445422	 0.104485
H	 1.4090957243	 4.3724638386	 0.1975757859	 0.101863
H	 1.8686892869	 2.1288241921	 0.9579715431	 0.112482
H	 2.0423108852	 1.6304221735	-0.7229596595	 0.118473
H	-0.2104170964	 1.9478159957	-2.1494791488	 0.10962
H	-1.7670041541	 1.9146932011	-1.2832484019	 0.10962
130.7241	156.4861	180.4954	329.3533	388.6147	438.1241	496.6789	543.0092	552.86	566.3812	757.3902	778.38	801.5131	825.3804	861.6582	923.8538	930.9605	955.5248	963.8661	969.0947	999.1318	1021.2961	1045.5275	1104.8009	1136.7628	1153.3359	1183.2955	1215.0751	1236.1436	1262.2136	1271.5777	1274.6958	1297.2923	1307.5508	1333.8598	1341.8276	1359.4184	1483.8087	1493.9161	1497.3084	1499.2826	1526.4614	2353.2008	3053.3574	3053.6398	3061.5657	3067.8998	3070.1758	3089.7539	3092.7271	3103.403	3111.9767	3117.2564	3118.7093
N#CC12CCC(CC1)C2	N#C[C@@]12CC[C@@H](CC1)C2	
InChI=1S/C8H11N/c9-6-8-3-1-7(5-8)2-4-8/h7H,1-5H2	InChI=1S/C8H11N/c9-6-8-3-1-7(5-8)2-4-8/h7H,1-5H2/t7-,8-
