21
gdb 94464	2.7963	1.35613	1.16366	2.6498	78.08	-0.2398	0.0734	0.3132	1161.5344	0.182905	-424.220993	-424.212331	-424.211387	-424.254863	32.765	
C	-0.4551937157	 1.405827373	 0.0096626698	-0.419524
C	 0.1698383401	 0.0278995416	-0.0263493093	 0.122238
O	 1.4368514429	 0.0108473065	-0.7266534121	-0.296632
C	 2.0463914776	-0.8003360834	 0.2950071003	-0.12623
C	 0.8287475212	-0.6249033382	 1.2285263523	 0.340096
C	 1.02100696	 0.1994130817	 2.5085519487	-0.292121
C	-0.0724827425	-0.3477955871	 3.436050099	-0.231554
C	-0.0906601855	-1.8212639958	 3.0257548056	-0.071406
O	 0.1945594857	-1.8326319617	 1.6275330205	-0.303003
H	 0.2322660837	 2.1463963351	 0.4279349129	 0.12113
H	-0.7117026015	 1.7242796442	-1.0057860413	 0.130186
H	-1.3762186877	 1.3983160159	 0.6029964273	 0.116712
H	-0.5278935078	-0.6962224842	-0.4714871794	 0.077803
H	 2.1894813133	-1.8411861402	-0.0222925716	 0.103695
H	 3.001750964	-0.3829122246	 0.6363935436	 0.094168
H	 2.0119290929	-0.0098705757	 2.9284072881	 0.106258
H	 0.957737794	 1.2755332417	 2.3403407457	 0.112778
H	 0.1427796045	-0.2012396172	 4.4971627918	 0.104511
H	-1.0374836351	 0.1212484401	 3.2160419894	 0.110144
H	 0.6761476939	-2.3914578021	 3.5726170587	 0.093034
H	-1.0554781683	-2.3131007794	 3.1829540299	 0.107719
51.3662	78.4535	183.4567	212.6819	262.2269	292.4844	330.2522	441.2505	449.3959	513.8228	608.6435	733.8935	758.115	862.2635	874.6739	889.5091	907.3266	933.2677	959.3724	1002.9331	1019.1019	1029.0729	1055.0476	1095.5985	1124.6557	1147.784	1161.9439	1170.6028	1194.3054	1215.6644	1252.3379	1266.7457	1282.1296	1332.4529	1337.6815	1359.1566	1384.3368	1392.5462	1407.1926	1477.3696	1481.4928	1495.1431	1505.7476	1515.5726	1529.8114	2984.4064	2998.236	3010.7951	3036.	3039.9978	3050.8691	3059.5606	3076.9502	3104.2935	3108.5949	3115.9026	3121.7145
CC1OCC11CCCO1	C[C@H]1OC[C@]21CCCO2	
InChI=1S/C7H12O2/c1-6-7(5-8-6)3-2-4-9-7/h6H,2-5H2,1H3	InChI=1S/C7H12O2/c1-6-7(5-8-6)3-2-4-9-7/h6H,2-5H2,1H3/t6-,7+/m1/s1
