20
gdb 86987	5.99496	0.62532	0.61424	3.7574	81.94	-0.2243	0.0209	0.2452	1824.0068	0.170909	-399.298869	-399.28934	-399.288396	-399.334219	34.087	
C	 0.0832789826	 1.5024767235	 0.1246027495	-0.316319
N	-0.0177522112	 0.061494806	 0.1567358806	-0.061321
C	-1.2986467943	-0.5509459534	 0.5511910069	-0.201687
C	-0.5052485826	-1.6743329931	 1.251441802	 0.052137
C	 0.7001529873	-0.6785489851	 1.2080147879	-0.192459
N	-1.0483766971	-2.1745784909	 2.4919072392	-0.299866
C	-0.1963027067	-3.1639039507	 3.1426881927	-0.269188
C	-0.8064302404	-3.6502581264	 4.3835823411	 0.257322
N	-1.27342853	-4.0169062249	 5.3741551542	-0.296313
H	 1.1119129653	 1.797846643	-0.1074128681	 0.123158
H	-0.5656937393	 1.9029980674	-0.6613816493	 0.124034
H	-0.2029450718	 1.9801207042	 1.0817805275	 0.088178
H	-1.8621788374	 0.0503846143	 1.2879069037	 0.081289
H	-1.9694385099	-0.8169043569	-0.2715844359	 0.111397
H	-0.3348712287	-2.521604083	 0.5804160117	 0.098489
H	 1.6932201235	-1.0432425593	 0.92369783	 0.102305
H	 0.7816773489	-0.1200426224	 2.1594014001	 0.073566
H	-1.2375674324	-1.4094027864	 3.1317313324	 0.228999
H	-0.0686485623	-4.0164089044	 2.4639382377	 0.158876
H	 0.8193111263	-2.8037868316	 3.386142966	 0.137402
45.9434	87.0407	87.5648	153.509	223.4158	249.1255	311.8958	333.8923	389.0893	402.7514	444.2079	544.4275	650.0931	762.8378	808.6447	886.8505	940.5268	964.8094	995.0891	1001.9356	1029.7781	1059.7042	1114.9126	1121.849	1153.8133	1178.391	1206.5193	1220.7427	1234.9474	1263.2914	1273.9147	1299.1561	1329.9988	1356.2328	1408.3596	1453.3687	1485.9309	1489.8984	1497.5929	1499.1673	1506.7139	1526.3764	2369.0591	2918.759	2926.7908	2944.8774	2946.6994	3049.6434	3052.3513	3057.5914	3064.1427	3076.3322	3099.997	3519.9088
CN1CC(C1)NCC#N	CN1CC(C1)NCC#N	
InChI=1S/C6H11N3/c1-9-4-6(5-9)8-3-2-7/h6,8H,3-5H2,1H3	InChI=1S/C6H11N3/c1-9-4-6(5-9)8-3-2-7/h6,8H,3-5H2,1H3
