15
gdb 56946	3.90595	1.03585	0.89863	5.7325	72.52	-0.2782	0.0036	0.2818	1246.7192	0.111314	-416.743379	-416.734561	-416.733617	-416.777277	32.109	
O	-0.3491779879	 1.2867073663	-0.0573850147	-0.399627
C	-0.0668243914	-0.0915914998	-0.1058833362	-0.066816
C	 0.8202526708	-0.4501585359	-1.224070146	 0.304859
C	 1.5625224837	-0.7425566162	-2.1227258501	-0.444602
C	 0.5617559488	-0.5816559165	 1.2026339194	-0.029653
N	 1.3604578128	 0.4166536947	 1.9036299942	-0.330448
C	 0.1333049944	-0.0930731014	 2.5498663193	-0.194573
C	-0.9489544041	 0.8345295946	 2.784346433	 0.338106
N	-1.8310386548	 1.5296712857	 3.0565349171	-0.330482
H	 0.4348204242	 1.7142127263	 0.3168985914	 0.300437
H	-1.0313696101	-0.5961037462	-0.2421466271	 0.134868
H	 2.2048699538	-0.9923814229	-2.9313344647	 0.204871
H	 0.9216846989	-1.6073505498	 1.1709450067	 0.118014
H	 2.1892735855	 0.0217214691	 2.3373333233	 0.255912
H	 0.2539701055	-0.8038366881	 3.3640368243	 0.139133
55.0826	103.6738	154.2406	201.7547	247.101	268.0758	328.8209	424.586	467.539	547.2453	564.4234	609.6788	642.0716	675.0159	692.8211	804.8441	844.2981	889.0092	948.6384	980.8084	1013.1409	1060.5417	1113.6776	1182.0347	1211.0021	1245.7697	1289.4633	1319.6631	1393.7579	1435.4157	1448.8992	2233.6295	2364.8194	3041.8555	3137.9324	3147.3096	3499.8821	3529.4168	3743.4538
OC(C#C)C1NC1C#N	O[C@@H](C#C)[C@H]1N[C@H]1C#N	
InChI=1S/C6H6N2O/c1-2-5(9)6-4(3-7)8-6/h1,4-6,8-9H	InChI=1S/C6H6N2O/c1-2-5(9)6-4(3-7)8-6/h1,4-6,8-9H/t4-,5-,6-/m0/s1
