17
gdb 9015	4.66783	0.86581	0.85388	4.0444	75.04	-0.2454	0.0258	0.2712	1409.0387	0.140057	-363.861817	-363.852087	-363.851143	-363.898325	32.133	
C	 0.0016638588	 1.4718580796	-0.1936344783	-0.496995
C	-0.0017946209	 0.0196508814	-0.0939561178	 0.042568
C	-0.0007972033	-1.1806095428	-0.0015923308	 0.106117
C	-0.0095857979	-2.6419265314	 0.099104655	-0.344643
N	-1.342358098	-3.2255509612	 0.0591924679	-0.017301
C	-2.1162396633	-3.096061036	-1.1625136987	-0.34415
C	-1.8826253344	-3.8244660729	 1.1594851497	 0.158606
O	-2.9895223572	-4.3145551933	 1.2244781752	-0.339846
H	 0.8194394155	 1.9050568765	 0.3924207532	 0.15341
H	 0.1240417618	 1.8016301424	-1.2309208368	 0.151096
H	-0.9357538343	 1.8951305255	 0.1829365451	 0.155006
H	 0.5966969171	-3.0693480237	-0.7126047205	 0.135273
H	 0.4640463697	-2.9552897942	 1.0370393216	 0.142877
H	-1.6091598058	-3.5968843125	-1.9963161232	 0.122072
H	-3.0851676298	-3.5644019614	-0.9910377234	 0.168159
H	-2.2544400099	-2.041022855	-1.4219409406	 0.136165
H	-1.1749791884	-3.822500051	 2.0123812125	 0.071585
23.2999	42.7893	81.5505	147.0128	185.9872	216.025	301.921	328.5043	341.0196	379.4367	380.9084	478.046	709.7636	772.1572	875.1551	976.1372	1026.8357	1052.0784	1054.5593	1085.3033	1159.285	1161.0536	1238.7289	1268.3167	1379.1971	1414.9271	1430.3928	1438.0303	1443.1765	1472.4022	1476.7775	1478.162	1495.7168	1520.7845	1798.6128	2373.0615	2932.5651	3000.1992	3024.5466	3030.5315	3054.6139	3081.3252	3092.6546	3093.5211	3160.8097
CC#CCN(C)C=O	CC#CCN(C)C=O	
InChI=1S/C6H9NO/c1-3-4-5-7(2)6-8/h6H,5H2,1-2H3	InChI=1S/C6H9NO/c1-3-4-5-7(2)6-8/h6H,5H2,1-2H3
