18
gdb 19746	4.61972	1.99766	1.97114	1.654	70.08	-0.2281	0.0922	0.3203	769.489	0.157933	-347.794753	-347.789034	-347.78809	-347.824214	24.226	
C	-0.0207136463	 1.5032894056	-0.0151472646	-0.236815
C	 1.5124141811	 1.8055770877	-0.0287930092	-0.236815
C	 2.053039682	 0.3763573817	 0.0177920893	-0.028253
C	 1.1519840434	-0.4480385221	-0.9677787354	-0.071142
C	 1.440023748	-1.8907127508	-0.5645396768	-0.09728
O	 1.428661457	-1.7681907883	 0.8738581875	-0.284845
C	 1.1564904619	-0.3802036507	 1.0427155564	 0.125119
C	 0.0224681777	-0.0240120581	 0.0358504522	-0.028253
H	-0.5269993523	 1.9330022286	 0.8548209397	 0.098811
H	-0.5314372283	 1.8752946308	-0.908418384	 0.098805
H	 1.8283351935	 2.3405489824	-0.9294376604	 0.098805
H	 1.8325408895	 2.3982552948	 0.8338028717	 0.098811
H	 3.1343079951	 0.2287062299	 0.0321621705	 0.062955
H	 1.0956631774	-0.2103501775	-2.0314202081	 0.065337
H	 0.668076623	-2.5999984696	-0.8880739419	 0.098148
H	 2.4177556373	-2.2550132342	-0.9036389019	 0.098148
H	 1.1169649088	-0.1318976646	 2.1038644883	 0.07551
H	-0.921429029	-0.5709654257	 0.0682315666	 0.062955
247.0727	317.8384	320.3353	378.8632	590.4973	676.6649	695.2277	762.4061	826.6954	904.7337	910.6694	916.5521	949.2398	956.7975	958.7446	960.5009	1010.2726	1017.5627	1025.9116	1030.9249	1088.9037	1104.6065	1121.4508	1171.9866	1201.8842	1217.517	1239.7676	1256.5546	1261.9101	1268.1774	1272.5423	1296.1887	1321.9707	1348.3719	1393.0469	1493.6227	1514.9635	1527.1752	3015.5611	3043.9368	3052.1396	3053.0891	3076.4795	3095.9518	3099.2169	3101.7341	3106.7418	3121.3968
C1CC2C3COC2C13	C1C[C@@H]2[C@H]3CO[C@@H]2[C@@H]13	
InChI=1S/C7H10O/c1-2-5-6-3-8-7(5)4(1)6/h4-7H,1-3H2	InChI=1S/C7H10O/c1-2-5-6-3-8-7(5)4(1)6/h4-7H,1-3H2/t4-,5+,6-,7+
