23
gdb 64126	3.22428	1.00103	0.94833	0.9188	91.59	-0.2525	0.0527	0.3052	1387.4337	0.204896	-351.148243	-351.138397	-351.137453	-351.182892	38.174	
C	 0.3989638444	 1.4100371075	 0.3743667431	-0.418129
C	-0.1652357792	 0.049433223	-0.0758418187	 0.298186
C	-1.6852461638	 0.1574335921	-0.2406535042	-0.440568
C	 0.532985816	-0.4291387858	-1.3728691697	-0.223503
C	 1.8711829764	-1.0686357709	-0.9362213867	-0.231665
C	 1.7161101914	-1.3899557383	 0.5928210797	-0.168315
C	 0.2312972578	-1.0677341402	 0.9146081398	-0.23215
C	 2.110220129	-2.7433480776	 0.956042573	 0.300188
C	 2.4236489951	-3.8679410441	 1.2458743567	-0.448891
H	 1.4888346717	 1.3951110473	 0.4753432506	 0.113311
H	 0.1487752155	 2.1913409444	-0.3516518683	 0.110475
H	-0.0196600758	 1.7078318706	 1.3419678738	 0.111411
H	-1.9481211347	 0.9031486386	-0.9994775866	 0.110015
H	-2.1189688446	-0.8004404742	-0.5475779126	 0.109777
H	-2.1667275389	 0.4584534551	 0.6966471363	 0.110152
H	-0.0975288822	-1.1819977768	-1.8594307646	 0.095419
H	 0.6707518764	 0.3831848437	-2.0937085246	 0.091706
H	 2.0885991739	-1.9754508591	-1.5036959402	 0.114057
H	 2.7142588523	-0.3897575458	-1.0893991729	 0.104608
H	 2.3492795564	-0.6965220751	 1.1581967189	 0.103884
H	 0.0878818561	-0.7888428168	 1.9629322568	 0.098169
H	-0.3789024534	-1.9581797041	 0.7267845867	 0.103271
H	 2.7063493003	-4.8578088433	 1.5049331938	 0.188592
36.8473	122.6834	163.5977	222.5181	241.1017	248.1548	296.8195	335.0747	377.34	406.7967	488.7969	527.1121	545.6368	597.9815	618.7249	623.2792	738.2548	800.9158	841.8577	910.9454	921.0518	949.5913	973.5716	977.4103	985.0501	1043.8612	1044.446	1073.8821	1100.2279	1182.8766	1202.7272	1227.4022	1261.926	1277.2965	1296.7857	1315.2868	1332.3858	1340.8636	1366.1293	1402.3249	1423.1119	1482.0759	1483.9283	1486.8147	1498.851	1506.3871	1507.6784	1513.0569	2232.5706	3021.5285	3026.1663	3029.2706	3035.5157	3043.4775	3064.4168	3078.5736	3087.4309	3088.9851	3094.4004	3095.6407	3099.0172	3114.8721	3505.7822
CC1(C)CCC(C1)C#C	CC1(C)CC[C@@H](C1)C#C	
InChI=1S/C9H14/c1-4-8-5-6-9(2,3)7-8/h1,8H,5-7H2,2-3H3	InChI=1S/C9H14/c1-4-8-5-6-9(2,3)7-8/h1,8H,5-7H2,2-3H3/t8-/m0/s1
