15
gdb 32351	5.00948	1.0411	0.8679	7.0658	72.96	-0.2197	-0.0723	0.1474	1267.5717	0.113162	-453.981006	-453.973037	-453.972093	-454.013984	29.215	
C	 0.0328788928	 1.4605583532	 0.0007345805	-0.333588
N	 0.0199121035	 0.0166490941	 0.1428325253	-0.374665
C	-1.199566013	-0.6526077322	 0.0520228874	 0.187841
C	-2.4270942308	-0.0733669155	 0.0541155767	 0.025197
O	-3.5560945942	-0.8060068181	 0.0418279569	-0.206794
C	-3.5328911978	-2.2119580055	-0.0129358717	 0.442844
O	-4.5849987147	-2.7791012014	-0.0413837878	-0.336372
N	-2.2858088186	-2.8230372325	-0.0268266743	-0.313746
C	-1.2218208582	-2.0895558386	 0.0119723036	 0.005723
H	 1.065679579	 1.8123569944	 0.0304161996	 0.137042
H	-0.4337404589	 1.8136198422	-0.9334727761	 0.119479
H	-0.5012549539	 1.9208068741	 0.8396873747	 0.141393
H	 0.7589323417	-0.4443532331	-0.3693239836	 0.243833
H	-2.6276988017	 0.9896884671	 0.0822653405	 0.137934
H	-0.2636286551	-2.6161298482	 0.0123312182	 0.123878
63.7938	109.4593	192.0947	234.5643	352.7885	368.1337	387.8327	487.4576	510.0155	524.3766	588.3274	648.4405	764.7104	799.3323	807.5003	865.3956	938.2391	1002.4633	1039.6797	1087.8769	1150.5877	1171.0583	1246.6899	1313.5815	1374.4817	1432.3607	1465.8918	1483.2305	1508.1535	1528.96	1579.6009	1716.321	1862.6668	2972.5289	3062.2126	3096.2283	3130.2436	3222.2125	3582.7577
CNC1=COC(=O)N=C1	CNc1coc(=O)nc1	
InChI=1S/C5H6N2O2/c1-6-4-2-7-5(8)9-3-4/h2-3,6H,1H3	InChI=1S/C5H6N2O2/c1-6-4-2-7-5(8)9-3-4/h2-3,6H,1H3
