21
gdb 62676	2.41485	1.68526	1.27588	1.1106	82.03	-0.2036	0.0754	0.279	1088.6641	0.180752	-387.007079	-386.998056	-386.997111	-387.039916	36.032	
C	-0.2151281602	 1.5987498245	-0.0001815228	-0.492593
C	 0.0293011216	 0.0841933929	 0.0212111554	 0.242938
C	-1.1889890058	-0.6786175457	-0.502271514	-0.446567
C	 1.314229567	-0.6689037815	-0.3488263121	-0.169628
C	 2.6715703361	-0.1292491161	 0.1776339408	-0.058958
C	 2.6241664932	 1.1406920319	 0.9790415845	-0.317601
C	 2.1285590946	-0.1399644539	 1.5999220895	-0.122648
C	 0.7781411621	-0.7159935574	 1.0646003008	 0.330887
O	 0.2366989336	-1.8188061452	 1.7118057065	-0.452418
H	 0.4111529424	 2.1090041391	-0.7376697992	 0.129547
H	-1.2564550514	 1.7992842917	-0.2719611367	 0.108153
H	-0.0470483113	 2.0656506173	 0.9734877104	 0.12654
H	-1.4224791945	-0.3574690837	-1.5233903719	 0.112818
H	-1.0314756267	-1.7583786413	-0.5024785207	 0.130141
H	-2.0684009833	-0.4713980386	 0.1189608539	 0.10616
H	 1.2762742815	-1.4417540036	-1.1070175295	 0.088976
H	 3.6081992224	-0.5449662532	-0.1719880009	 0.089097
H	 3.5981505568	 1.4408686236	 1.3592293966	 0.109486
H	 1.991359309	 1.9791958282	 0.7325070672	 0.112102
H	 2.587258757	-0.5753979767	 2.4787170873	 0.090701
H	-0.3378929444	-1.4993832523	 2.4176830249	 0.282865
96.5881	202.1797	217.0196	249.7756	257.8349	281.3356	314.6868	345.0717	376.77	419.895	498.9956	584.6698	614.8518	678.2668	693.2698	762.8689	851.6132	882.2577	915.3288	922.5938	930.4599	987.6993	990.1949	1013.4586	1029.2023	1046.7125	1063.7543	1092.1457	1118.7199	1142.2666	1171.2247	1203.0979	1206.398	1256.2333	1286.6428	1313.1844	1334.1395	1402.7447	1416.8177	1449.4447	1490.2537	1494.2872	1504.1569	1506.3507	1519.0462	3026.3651	3037.56	3083.0568	3095.9118	3113.1178	3130.5878	3134.6794	3178.3438	3186.8708	3195.5696	3252.2996	3771.9046
CC1(C)C2C3CC3C12O	CC1(C)[C@H]2[C@H]3C[C@H]3[C@@]12O	
InChI=1S/C8H12O/c1-7(2)6-4-3-5(4)8(6,7)9/h4-6,9H,3H2,1-2H3	InChI=1S/C8H12O/c1-7(2)6-4-3-5(4)8(6,7)9/h4-6,9H,3H2,1-2H3/t4-,5+,6+,8-/m0/s1
