21
gdb 115486	3.90046	0.85393	0.73906	2.3814	82.61	-0.2246	0.0251	0.2497	1583.5902	0.181133	-424.229268	-424.219309	-424.218364	-424.264841	35.595	
C	-0.1778031346	 1.5381700829	 0.0862282986	-0.380127
C	-0.0286456404	 0.0163237376	 0.0226655422	-0.171836
C	 0.874794232	-0.5379260514	 1.1311534644	 0.099468
O	 0.3347677202	-0.2075741095	 2.4207935741	-0.281688
C	 0.1758499227	-1.3795881984	 3.2079987719	-0.158485
C	 0.591878962	-2.5216747079	 2.3160654849	 0.280946
C	 0.5366537082	-3.9438021616	 2.7623069438	-0.1803
O	 1.0086600962	-4.7844493178	 1.7260062463	-0.411704
C	 0.9969770521	-2.0362332081	 1.1476494458	-0.207537
H	 0.7915020003	 2.0352624832	-0.0343977324	 0.109745
H	-0.8416967256	 1.9045886812	-0.7026570181	 0.106473
H	-0.5906773215	 1.8406808321	 1.0521248491	 0.134098
H	-1.0098016842	-0.4665322606	 0.1042985571	 0.095727
H	 0.3944720747	-0.2830305021	-0.9451266297	 0.090539
H	 1.866610498	-0.0597640861	 1.0383189804	 0.074507
H	 0.800489818	-1.3150363825	 4.1154081162	 0.097652
H	-0.8694713032	-1.4656317622	 3.5470019017	 0.099473
H	 1.1388184482	-4.0594709913	 3.6814891148	 0.098071
H	-0.5015770818	-4.1954764852	 3.0444243364	 0.098556
H	 0.9603232782	-5.6940162698	 2.033203886	 0.290979
H	 1.3634865105	-2.6162134825	 0.3120768467	 0.115443
65.138	79.078	99.5066	132.6143	189.4105	222.2993	233.4675	266.0701	375.4887	419.0224	426.3259	493.0697	668.8792	729.5645	795.639	836.8821	879.6902	928.1482	938.6515	995.9623	1000.4112	1043.898	1062.5103	1079.7581	1093.1898	1121.0258	1139.769	1195.6426	1200.9879	1218.3178	1254.5105	1283.7608	1287.5375	1317.2757	1350.185	1389.9708	1393.6098	1405.978	1470.0964	1475.2696	1497.0811	1508.4154	1509.4069	1525.874	1738.7563	2934.9721	2937.6001	2949.4394	2956.3987	2974.5823	3022.4276	3034.6921	3063.2467	3099.8748	3121.9933	3236.7135	3838.2231
CCC1OCC(CO)=C1	CC[C@H]1OCC(=C1)CO	
InChI=1S/C7H12O2/c1-2-7-3-6(4-8)5-9-7/h3,7-8H,2,4-5H2,1H3	InChI=1S/C7H12O2/c1-2-7-3-6(4-8)5-9-7/h3,7-8H,2,4-5H2,1H3/t7-/m1/s1
