20
gdb 53499	3.26479	0.75808	0.69694	3.611	86.18	-0.2362	0.031	0.2672	1721.9784	0.167746	-403.15618	-403.144848	-403.143904	-403.19516	37.954	
C	-0.3710523616	 1.5749622561	-0.6001144166	-0.496749
C	-0.2336954597	 0.1518023696	-0.3250672673	 0.04027
C	-0.1139392197	-1.0212799657	-0.0809937561	 0.085253
C	 0.0372994995	-2.4475501827	 0.2046734107	-0.320212
N	-1.2124058781	-3.1984663747	 0.0710371517	-0.076945
C	-1.7958150294	-3.2362120325	-1.2560758611	-0.340293
C	-1.6873368597	-3.8699130492	 1.1729179994	 0.411795
C	-2.9721986696	-4.6698903986	 1.0039275339	-0.501188
O	-1.1133842511	-3.8325893897	 2.2494097897	-0.375257
H	 0.2584397215	 2.1691548	 0.0713374975	 0.152292
H	-0.0807022659	 1.8164543734	-1.6285173325	 0.146547
H	-1.4057991873	 1.9064923536	-0.4601907615	 0.150036
H	 0.7930548172	-2.8797948303	-0.4679186935	 0.123299
H	 0.3772798698	-2.6052565949	 1.2309152312	 0.175788
H	-2.7956547662	-3.6644700337	-1.2326365666	 0.137075
H	-1.867773509	-2.2190721276	-1.6557462041	 0.141813
H	-1.180760987	-3.8302157163	-1.9474410181	 0.12124
H	-2.8760800338	-5.444135253	 0.2366438489	 0.136173
H	-3.1837109548	-5.1420643023	 1.962456384	 0.14889
H	-3.8161176451	-4.0290578614	 0.7296155403	 0.140174
21.609	32.5452	71.4085	91.0948	119.3711	182.7733	201.5756	227.8429	304.0489	313.6766	373.5975	384.5869	419.5086	552.5822	588.9147	597.6008	753.959	784.5284	945.2619	991.6361	1030.151	1049.7697	1051.9443	1055.2407	1155.0561	1159.8427	1165.8838	1234.4731	1288.7916	1371.589	1387.1892	1414.9213	1431.6361	1462.0076	1472.7706	1477.5347	1479.1545	1479.3152	1490.4542	1499.3725	1528.6623	1755.202	2371.3074	2992.541	3002.5258	3027.4371	3045.2805	3072.3698	3087.9586	3089.4775	3104.5044	3108.9835	3161.3994	3168.9098
CC#CCN(C)C(C)=O	CC#CCN(C)C(=O)C	
InChI=1S/C7H11NO/c1-4-5-6-8(3)7(2)9/h6H2,1-3H3	InChI=1S/C7H11NO/c1-4-5-6-8(3)7(2)9/h6H2,1-3H3
