19
gdb 11111	6.643	0.96953	0.91146	4.4027	76.56	-0.3021	0.0305	0.3326	1289.2959	0.165902	-327.941636	-327.933173	-327.932229	-327.974933	30.878	
C	-0.6203298793	 1.3173117164	-0.1276155802	-0.38397
C	-0.1214012931	-0.1229445126	 0.0182701923	-0.182187
C	 1.0077717698	-0.2707648511	 1.0394605021	 0.026864
C	 0.5617724062	-0.1786797395	 2.5306428932	-0.240303
C	 0.6249167008	-1.7372287995	 2.6197222958	-0.124818
C	 1.4547722903	-1.7395553432	 1.2958512373	-0.251842
C	 1.2234630957	-2.329350853	 3.8030289679	 0.260376
N	 1.7187931497	-2.7873924849	 4.7425910122	-0.328451
H	 0.1857658283	 1.980922719	-0.4592596622	 0.118553
H	-1.4300042636	 1.3838002037	-0.860425574	 0.117835
H	-1.000512481	 1.7090580764	 0.821866043	 0.119255
H	-0.9591668617	-0.7774766774	 0.2966808263	 0.094583
H	 0.2361757795	-0.4876853316	-0.9534118667	 0.100823
H	 1.8239746982	 0.4076214644	 0.7738417025	 0.076493
H	 1.3128150165	 0.2906693652	 3.1687573392	 0.124371
H	-0.4105476353	 0.2725439855	 2.7410310165	 0.113296
H	-0.3619853377	-2.1816474297	 2.4669836395	 0.123462
H	 1.1682715435	-2.4868033749	 0.5521381657	 0.112089
H	 2.5247242433	-1.8282598533	 1.4933962495	 0.123571
60.0123	107.6345	148.7683	209.9017	232.4942	250.0041	356.774	415.8541	541.4994	550.3948	628.512	762.7875	812.2127	827.0616	881.7084	933.9276	955.127	976.185	992.4837	1048.6417	1054.249	1091.9019	1133.8474	1144.5761	1230.7423	1234.1747	1246.5013	1267.6805	1278.8462	1303.328	1342.7303	1352.745	1393.9627	1413.7056	1473.2283	1486.7917	1495.1406	1499.8934	1506.776	2351.106	3010.2805	3033.3396	3040.1781	3060.2836	3068.9326	3074.377	3076.4146	3099.5028	3106.8534	3127.5639	3130.8941
CCC1CC(C1)C#N	CC[C@H]1C[C@@H](C1)C#N	
InChI=1S/C7H11N/c1-2-6-3-7(4-6)5-8/h6-7H,2-4H2,1H3	InChI=1S/C7H11N/c1-2-6-3-7(4-6)5-8/h6-7H,2-4H2,1H3/t6-,7-
