19
gdb 32406	3.15534	1.14957	0.85408	1.5321	80.52	-0.172	0.0585	0.2305	1344.1546	0.159019	-419.233631	-419.223471	-419.222526	-419.269237	36.294	
C	 0.0055464317	 1.4953645005	 0.0584284194	-0.510216
C	 0.053066349	 0.0075148625	-0.0416289043	 0.266415
C	-0.0525460062	-0.833612768	-1.1326043951	 0.042598
N	-0.2932214494	-0.4814017611	-2.4845120132	-0.615
C	 0.0395949044	-2.1803707375	-0.6626378281	 0.25684
C	-0.0450174479	-3.4119281342	-1.5035648739	-0.197755
O	-0.088929195	-4.5483255405	-0.650452791	-0.421031
C	 0.1975810517	-2.1218153158	 0.701153996	-0.176065
N	 0.1944027054	-0.8021939808	 1.0697755439	-0.320079
H	 0.7524796372	 1.8773528743	 0.7652459121	 0.120086
H	 0.2268779096	 1.9511198289	-0.912352051	 0.120249
H	-0.9725594131	 1.8795372686	 0.3793832839	 0.127002
H	-0.3451890143	 0.5228637075	-2.6075184846	 0.229739
H	 0.4331854718	-0.82932614	-3.1025161817	 0.234508
H	-0.9393477349	-3.35707593	-2.1472891362	 0.100873
H	 0.8222951454	-3.4765529447	-2.1864981763	 0.07927
H	-0.1219112599	-5.332277774	-1.2052983311	 0.285371
H	 0.29836078	-2.9154873753	 1.4213185059	 0.126228
H	 0.2768766345	-0.4667353603	 2.0126118454	 0.250967
32.9964	103.2919	141.9676	161.7225	181.5883	236.6706	266.4809	278.4125	296.596	338.1508	390.7591	504.961	611.865	628.0236	677.3692	731.6229	736.8383	759.2309	828.3494	963.1444	996.8242	1050.3377	1056.5402	1074.8014	1116.5038	1193.8754	1218.2165	1239.6796	1241.1843	1272.9269	1342.5499	1413.7592	1438.4819	1470.8158	1480.2009	1490.9426	1509.4051	1520.536	1574.9268	1638.1049	1668.3249	2920.6113	2960.3573	3003.004	3050.982	3088.8847	3284.2968	3495.808	3590.4434	3688.5417	3839.1966
CC1=C(N)C(CO)=CN1	Cc1c(N)c(CO)c[nH]1	
InChI=1S/C6H10N2O/c1-4-6(7)5(3-9)2-8-4/h2,8-9H,3,7H2,1H3	InChI=1S/C6H10N2O/c1-4-6(7)5(3-9)2-8-4/h2,8-9H,3,7H2,1H3
