17
gdb 131774	3.55463	1.25639	0.98878	1.442	75.14	-0.2407	0.0225	0.2632	1168.691	0.138365	-417.982765	-417.97497	-417.974026	-418.015842	28.781	
O	 0.063668659	 1.435563208	 0.1678486089	-0.413778
C	 0.0412388578	 0.0663075903	-0.1843687126	-0.071551
C	-1.3556029178	-0.5338968468	-0.0375471132	-0.180519
C	-1.4360375744	-2.1188974902	-0.0763760268	-0.201571
N	-1.8792596432	-2.0119211187	 1.319660075	 0.089169
N	-2.3311767277	-2.6565910477	 2.4006940247	-0.304076
C	-2.6100738101	-1.6280640777	 3.221084434	 0.016492
C	-2.3535850376	-0.347913259	 2.6526232717	-0.410566
C	-1.8745600798	-0.6736586468	 1.395908854	 0.375201
H	-0.1224412808	 1.4943124062	 1.1114436794	 0.290429
H	 0.3623876848	 0.0149102829	-1.2303188528	 0.115579
H	 0.756964601	-0.5195482426	 0.4135953978	 0.095836
H	-2.0507463641	-0.0426577559	-0.7233474892	 0.108323
H	-2.1896673664	-2.5335921307	-0.7500166875	 0.137964
H	-0.484307034	-2.6420102743	-0.2058587278	 0.132652
H	-2.9913842341	-1.8367454007	 4.2104525954	 0.11323
H	-2.5155998226	 0.6152509538	 3.106721569	 0.107187
70.958	92.3006	137.267	214.9097	347.8826	389.3266	418.921	517.5017	650.4154	675.3462	721.5302	778.3872	802.9089	862.3041	874.3407	941.5571	962.2406	994.886	1048.4491	1075.1908	1095.6592	1127.8325	1149.7085	1184.8718	1192.8808	1232.1103	1265.5398	1302.5105	1321.546	1360.5269	1392.858	1413.4845	1418.7734	1481.5142	1502.5438	1519.1919	1557.9518	2982.8817	3059.0964	3069.0355	3086.5768	3118.3397	3242.3323	3275.9836	3804.8314
OCC1CN2N=CC=C12	OC[C@H]1Cn2nccc12	
InChI=1S/C6H8N2O/c9-4-5-3-8-6(5)1-2-7-8/h1-2,5,9H,3-4H2	InChI=1S/C6H8N2O/c9-4-5-3-8-6(5)1-2-7-8/h1-2,5,9H,3-4H2/t5-/m1/s1
