15
gdb 11926	3.19855	1.89291	1.53241	4.8195	67.1	-0.2557	-0.0068	0.2489	865.7429	0.11823	-362.634806	-362.627388	-362.626444	-362.666375	27.493	
C	-0.0360405811	 1.5651418868	 0.0172636328	-0.489537
C	 0.0110865724	 0.0674182334	 0.002690789	 0.191517
C	-0.8859445961	-0.8233613597	 0.8289437098	-0.372611
C	 0.6084369027	-0.9380765915	 0.9897452354	 0.319648
O	 1.158934362	-1.7502277368	-0.046101807	-0.315925
C	 0.7071962541	-0.7966246413	-1.0500741863	-0.126137
C	 1.3251570454	-0.7652792131	 2.2109897202	 0.22214
N	 1.893678621	-0.6027290793	 3.2059440711	-0.347851
H	 0.9306715208	 1.9962748863	-0.2616472647	 0.135084
H	-0.789100867	 1.9373109131	-0.686974372	 0.134188
H	-0.2986807417	 1.9400814528	 1.0108091135	 0.139418
H	-1.4071331343	-0.3190273183	 1.6362754852	 0.139729
H	-1.407082124	-1.6693989713	 0.3894680101	 0.131417
H	 0.0813510229	-1.2670983385	-1.8159336962	 0.11667
H	 1.566173793	-0.3019976025	-1.5165137009	 0.12225
115.9826	154.9191	183.9603	264.3093	317.6205	378.0564	433.4607	547.5653	555.6608	584.9101	684.218	778.5419	842.5959	923.8162	958.8218	969.6942	994.423	1033.7541	1068.7859	1110.4148	1135.8361	1157.2099	1235.0339	1281.8964	1337.9011	1396.6849	1426.729	1480.5759	1485.0567	1495.8305	1518.0537	2345.9362	3030.5076	3034.8988	3087.8118	3094.7143	3112.2432	3120.2964	3218.3766
CC12CC1(OC2)C#N	C[C@]12C[C@]1(OC2)C#N	
InChI=1S/C6H7NO/c1-5-2-6(5,3-7)8-4-5/h2,4H2,1H3	InChI=1S/C6H7NO/c1-5-2-6(5,3-7)8-4-5/h2,4H2,1H3/t5-,6+/m1/s1
