17
gdb 77424	1.87657	1.69172	1.62505	1.732	67.8	-0.2199	0.0536	0.2736	1000.3874	0.132449	-458.85953	-458.850658	-458.849714	-458.892583	33.635	
C	-0.0293653641	 1.6974196136	-0.0998316225	-0.43901
C	 0.1618688695	 0.1925803216	-0.0165015315	-0.093501
C	 1.3882627837	-0.6857169294	-0.2022842368	 0.213546
O	 1.4830040733	-1.6884094177	-1.1491505168	-0.450409
C	 2.6530410634	-0.2273560236	 0.6064488138	-0.052061
O	 2.3933662704	 0.997660885	 1.3070518537	-0.231852
C	 1.904116865	-0.2361366192	 1.8575335915	-0.063044
C	 0.6015931368	-0.700696896	 1.1162324701	 0.270701
O	-0.2710782351	-1.6197277169	 1.6625078609	-0.445077
H	-0.082484166	 2.0093713223	-1.1495805041	 0.106993
H	-0.9814217602	 1.9733183602	 0.3675073719	 0.118433
H	 0.770983975	 2.2466408234	 0.3867619521	 0.153717
H	-0.6567204861	-0.3486158345	-0.4982565002	 0.103683
H	 1.5083433101	-1.2846770193	-2.0240137657	 0.291847
H	 3.6807522627	-0.4896208919	 0.3815128505	 0.112667
H	 2.1908534096	-0.4938853393	 2.8713110173	 0.110319
H	 0.1879986122	-2.4621155285	 1.7600394758	 0.293047
105.2574	137.4936	188.1223	258.0352	270.2601	277.9762	302.2959	339.4097	366.893	411.3367	571.0492	583.1353	636.8384	723.6395	769.5571	774.6044	830.0211	850.7069	921.6938	965.2844	988.1936	1041.1404	1108.4587	1114.4136	1119.4629	1162.297	1186.7437	1239.9186	1274.231	1297.7935	1349.3109	1362.4049	1369.0711	1403.6835	1486.3851	1509.0796	1517.1102	3032.6218	3082.9154	3086.3511	3172.4104	3187.9159	3195.5221	3783.1247	3784.0188
CC1C2(O)C3OC3C12O	C[C@H]1[C@@]2(O)[C@H]3O[C@H]3[C@@]12O	
InChI=1S/C6H8O3/c1-2-5(7)3-4(9-3)6(2,5)8/h2-4,7-8H,1H3	InChI=1S/C6H8O3/c1-2-5(7)3-4(9-3)6(2,5)8/h2-4,7-8H,1H3/t2-,3-,4+,5+,6-
