25
gdb 122636	3.46203	0.74387	0.66185	0.8609	90.57	-0.248	0.0833	0.3313	1834.9064	0.227855	-389.480408	-389.469768	-389.468824	-389.516788	38.752	
C	-0.106611016	 1.4778939753	-0.1677498445	-0.384058
C	-0.0517577296	-0.0380791143	-0.2577169339	-0.025989
O	-1.3398462506	-0.5522888586	 0.0041529677	-0.244399
C	-1.4057793629	-1.9621202054	-0.0572627845	-0.063312
C	-2.8385649999	-2.3791772946	 0.2310549152	-0.019232
C	-3.8222666256	-2.0401516908	-0.9251165638	-0.213676
C	-3.7429511928	-3.517752553	-1.395019779	-0.226974
C	-3.1585158042	-3.8943847258	-0.003825713	 0.040224
C	-2.0684497827	-4.9539104735	 0.0895916782	-0.414182
H	 0.8792934035	 1.9090669963	-0.3659445184	 0.112368
H	-0.8151633154	 1.8795219912	-0.897783372	 0.125391
H	-0.4292935012	 1.7910996889	 0.8292669177	 0.125686
H	 0.289094333	-0.3536824066	-1.2591307485	 0.081779
H	 0.6752899577	-0.4422685883	 0.4678400868	 0.082139
H	-1.0831115757	-2.3113475237	-1.0540489339	 0.078623
H	-0.7143937223	-2.4097210958	 0.6775203474	 0.08153
H	-3.1110631411	-1.9887468202	 1.2160404381	 0.06791
H	-4.8167118929	-1.7781968749	-0.5544557018	 0.096384
H	-3.4976415792	-1.264539388	-1.622084716	 0.102016
H	-4.6718341913	-4.0068853697	-1.6995080815	 0.091351
H	-3.0075153484	-3.6575781803	-2.1940295131	 0.095603
H	-3.9815489011	-4.1733603097	 0.6640407768	 0.071924
H	-1.2234538583	-4.7320441804	-0.5708696893	 0.113085
H	-1.6803060301	-5.0448926272	 1.1103924837	 0.113355
H	-2.4607952731	-5.934851351	-0.201546678	 0.112454
56.9299	75.167	103.0998	126.2168	160.5121	201.6664	232.7413	247.1696	300.7262	337.7293	421.8005	448.1716	523.7216	640.158	755.6027	822.0311	845.6303	890.5623	892.4348	903.0824	935.1958	955.7292	970.6311	1016.309	1045.062	1097.2818	1129.0264	1140.2045	1159.0459	1164.2168	1184.3305	1194.6715	1219.3608	1249.7475	1262.7078	1267.0862	1278.0987	1295.8544	1311.0804	1354.1713	1376.0138	1392.6584	1409.1022	1411.2885	1452.5729	1483.4456	1484.789	1495.9383	1497.7483	1499.608	1501.2186	1515.7836	1537.115	2939.0213	2952.9416	2968.9701	2971.3371	3025.0803	3031.9294	3044.3228	3047.8987	3057.8952	3068.0349	3087.9865	3093.2894	3098.3261	3118.3269	3118.5138	3120.8273
CCOCC1CCC1C	CCOC[C@H]1CC[C@H]1C	
InChI=1S/C8H16O/c1-3-9-6-8-5-4-7(8)2/h7-8H,3-6H2,1-2H3	InChI=1S/C8H16O/c1-3-9-6-8-5-4-7(8)2/h7-8H,3-6H2,1-2H3/t7-,8-/m1/s1
