19
gdb 41297	3.61302	1.73595	1.62723	1.3617	78.64	-0.231	0.0807	0.3117	905.9904	0.161884	-385.804565	-385.798401	-385.797457	-385.834573	27.368	
C	-0.0083157291	 1.485729625	 0.2433518923	-0.267557
C	 1.5225994573	 1.5553341359	-0.1497116032	-0.344267
C	 1.2622862127	 0.2308492772	-0.8476771754	 0.467039
O	 1.9738487351	-0.9796980839	-1.0027486617	-0.326442
C	 0.8992616879	-1.6548635368	-1.7090267694	 0.059023
C	 0.8797804464	-0.8950865266	-3.0467020677	-0.242968
C	 0.3387741551	 0.2317779265	-2.1684217793	-0.114414
C	-0.4280028229	-0.7859569345	-1.264845264	-0.105811
C	 0.0136030742	-0.0732960138	-0.003292079	-0.051078
H	-0.2390696291	 1.7690709059	 1.2706056288	 0.108143
H	-0.6535454561	 2.0538862248	-0.4282046242	 0.112456
H	 1.8748295164	 2.3994940055	-0.7481927062	 0.101367
H	 2.1575557623	 1.4438925632	 0.733954992	 0.116804
H	 0.990193557	-2.7348962914	-1.6085181322	 0.080854
H	 1.8383653799	-0.7848257045	-3.5599621152	 0.10067
H	 0.1090397735	-1.26222645	-3.730671634	 0.098367
H	-0.0646253821	 1.1703998507	-2.540895671	 0.071055
H	-1.398179587	-1.2261031874	-1.5029143905	 0.065535
H	 0.1397624986	-0.6421937858	 0.9203444398	 0.071224
263.4696	271.9177	345.1744	448.0926	519.4283	557.4421	654.7752	667.9155	680.019	740.9825	800.4994	837.826	852.8494	855.6423	869.3628	909.9815	933.0158	946.0964	995.4668	1017.9356	1036.8419	1060.0733	1076.3253	1082.9268	1104.0999	1108.5318	1161.1108	1180.4739	1187.6581	1199.164	1218.7736	1234.7336	1243.4357	1261.9448	1277.1893	1305.8997	1338.164	1346.83	1474.8965	1480.3705	1491.565	3054.9651	3055.5519	3082.0359	3084.5901	3094.8506	3109.9582	3116.2085	3137.2105	3140.1679	3144.3672
C1CC23OC4CC2C4C13	C1C[C@]23O[C@@H]4C[C@H]2[C@@H]4[C@H]13	
InChI=1S/C8H10O/c1-2-8-4(1)7-5(8)3-6(7)9-8/h4-7H,1-3H2	InChI=1S/C8H10O/c1-2-8-4(1)7-5(8)3-6(7)9-8/h4-7H,1-3H2/t4-,5-,6+,7-,8+/m0/s1
