14
gdb 5412	5.20543	1.53956	1.20698	3.7612	64.97	-0.2465	-0.0364	0.2101	936.2157	0.109437	-378.762541	-378.755592	-378.754648	-378.794613	24.741	
O	 0.1328778234	 1.1310190153	 0.8019687272	-0.411468
C	-0.0266419843	 0.1234252053	-0.1803685694	-0.178984
C	-1.4222651276	-0.4372412365	-0.0867760839	 0.211107
C	-2.1871572123	-0.3552435299	 1.0759699309	-0.029474
N	-3.4120845927	-0.8793713477	 1.1704733045	-0.250929
C	-3.8715680901	-1.4936403701	 0.0805662357	 0.074885
N	-3.244852562	-1.6277823635	-1.0899831193	-0.250102
C	-2.0260669791	-1.0914460252	-1.1580653226	-0.041947
H	 1.0608610921	 1.3800495412	 0.8315766102	 0.296159
H	 0.1402745113	 0.5167040389	-1.196083236	 0.105777
H	 0.7017077239	-0.6911127983	-0.032217769	 0.112516
H	-1.7981015324	 0.1577229708	 1.9497581173	 0.134599
H	-4.8657986495	-1.9285229517	 0.1501464034	 0.118985
H	-1.5087631906	-1.1852868385	-2.1127054589	 0.108878
34.9847	177.6497	227.1564	253.1896	402.7046	416.4388	451.4861	618.9685	644.1172	755.7489	825.1596	919.2272	1006.9484	1011.5855	1050.6164	1057.2595	1085.8473	1140.138	1210.1634	1215.4269	1237.4711	1256.3237	1276.1543	1374.9113	1443.9592	1458.2907	1475.1887	1512.075	1599.7787	1629.9356	2960.2207	2984.4268	3129.9981	3165.0575	3188.7453	3839.9433
OCC1=CN=CN=C1	OCc1cncnc1	
InChI=1S/C5H6N2O/c8-3-5-1-6-4-7-2-5/h1-2,4,8H,3H2	InChI=1S/C5H6N2O/c8-3-5-1-6-4-7-2-5/h1-2,4,8H,3H2
