18
gdb 35082	3.29525	1.41435	1.24245	4.202	80.04	-0.2577	-0.0065	0.2511	1045.2369	0.150886	-364.823434	-364.81633	-364.815386	-364.854909	28.642	
N	-0.0781282516	-1.1731663958	-0.1526445737	-0.328325
C	-0.0479012921	-0.0204838131	-0.0701916591	 0.269006
C	-0.0017565763	 1.4434268982	 0.038100877	-0.189529
C	-0.7175089243	 1.9205060204	 1.2973466684	-0.07388
C	-0.0486453244	 2.6798532792	 2.162968216	-0.059038
C	 1.3922994257	 3.0302322502	 1.8633982868	-0.057606
C	 1.476455545	 3.4764577764	 0.3695291287	-0.237123
C	 1.4621094498	 1.9595516937	 0.0268670199	-0.021205
C	 2.1258578184	 1.7274308912	 1.4137571054	-0.222649
H	-0.5219655318	 1.8386582568	-0.8467034486	 0.129955
H	-1.7495103576	 1.6206776262	 1.4414059358	 0.111651
H	-0.5188950494	 3.0535821571	 3.0670437705	 0.100894
H	 1.8493918071	 3.6575406474	 2.6287358882	 0.068014
H	 0.6724475285	 4.108002771	-0.016567494	 0.099957
H	 2.4457016128	 3.91965685	 0.1274180559	 0.104638
H	 1.9840473652	 1.6172348837	-0.868280787	 0.083833
H	 3.207590057	 1.86932778	 1.3549475518	 0.104838
H	 1.8995925781	 0.8035597175	 1.950035188	 0.11657
106.2614	149.4354	300.8969	349.3317	422.7334	430.5181	471.2336	564.5126	598.1893	679.7744	736.1285	818.0392	827.6412	863.6523	906.5812	918.2879	946.2906	965.2325	981.1341	996.0954	1026.1111	1078.5438	1088.1406	1114.5384	1126.4854	1145.7849	1190.0332	1248.7833	1252.6448	1266.9737	1284.7115	1313.7161	1327.1368	1353.7393	1395.7907	1480.4158	1508.5522	1701.9557	2353.1396	3003.0559	3057.3723	3065.6073	3094.0046	3105.6403	3116.979	3126.0513	3173.7056	3199.6798
N#CC1C=CC2CC1C2	N#C[C@H]1C=C[C@@H]2C[C@H]1C2	
InChI=1S/C8H9N/c9-5-7-2-1-6-3-8(7)4-6/h1-2,6-8H,3-4H2	InChI=1S/C8H9N/c9-5-7-2-1-6-3-8(7)4-6/h1-2,6-8H,3-4H2/t6-,7-,8+/m1/s1
