21
gdb 79142	2.46859	1.70324	1.23036	1.7827	80.68	-0.2422	0.0859	0.3282	1085.97	0.18427	-387.072004	-387.064101	-387.063157	-387.103953	32.34	
C	-0.1638973088	 1.5873979545	-0.0598689998	-0.412616
C	 0.0337213314	 0.0722411102	-0.0173498068	 0.045896
C	 0.8699351076	-0.5156179332	-1.1912950323	-0.258891
C	 1.6168710056	-1.6912914444	-0.5621312713	-0.039578
C	 2.5959649785	-1.4216689004	 0.5704382373	-0.111993
C	 1.1825387073	-1.920972383	 0.8582358821	-0.113024
C	 0.768116973	-0.4651412614	 1.2242414132	-0.089392
C	 2.2911344222	-0.0884706314	 1.2515943149	 0.149435
O	 2.8355473916	 0.0157345726	 2.5519718819	-0.443567
H	 0.792542841	 2.1208155055	-0.0374530468	 0.119466
H	-0.688468571	 1.8900346468	-0.9724253944	 0.112854
H	-0.7569938024	 1.9339365775	 0.7931883528	 0.113153
H	-0.9554340235	-0.4054832245	-0.0371407235	 0.0701
H	 0.2299870878	-0.8476658717	-2.0147883451	 0.096323
H	 1.5573507927	 0.23185744	-1.6051510083	 0.098305
H	 1.8609749229	-2.5540670535	-1.1729975622	 0.083452
H	 3.5418721622	-1.9489119686	 0.6385141052	 0.082293
H	 0.827588644	-2.8558361554	 1.2717431449	 0.082001
H	 0.2619923379	-0.284313593	 2.1742434612	 0.06283
H	 2.5913112652	 0.8327101693	 0.7424491272	 0.078406
H	 2.655128645	-0.8157154856	 3.0062766598	 0.274546
142.2998	158.441	222.8779	290.3885	309.7227	360.3604	381.3401	475.2557	482.318	585.446	694.8081	753.282	780.324	837.1943	850.9429	882.6839	915.3761	942.1228	945.9422	957.0868	985.6668	991.8523	1038.4655	1045.2243	1061.3896	1095.5464	1113.0324	1125.8424	1140.6864	1182.9812	1216.9633	1227.7765	1250.3919	1274.0095	1283.7469	1304.8232	1316.3061	1349.4422	1363.4739	1397.7224	1411.1418	1435.1927	1496.2562	1498.0951	1503.3569	3004.0622	3028.1863	3032.844	3060.0575	3075.5288	3095.025	3096.7865	3099.7633	3161.3697	3170.3022	3196.9483	3786.8455
CC1CC2C3C2C1C3O	C[C@H]1C[C@H]2[C@@H]3[C@H]2[C@H]1[C@H]3O	
InChI=1S/C8H12O/c1-3-2-4-6-5(3)8(9)7(4)6/h3-9H,2H2,1H3	InChI=1S/C8H12O/c1-3-2-4-6-5(3)8(9)7(4)6/h3-9H,2H2,1H3/t3-,4+,5-,6+,7+,8+/m0/s1
