17
gdb 125836	3.07614	1.00518	0.80817	2.8168	70.24	-0.2776	-0.0378	0.2398	1384.1783	0.134898	-455.111314	-455.102225	-455.101281	-455.146398	31.807	
C	-0.0327416937	 1.5149911392	-0.1011192749	-0.505122
C	-0.0118528828	 0.0273420645	 0.0189268429	 0.2652
N	-0.0498340568	-0.7583880552	-1.0234584982	-0.135629
O	-0.0266980423	-2.0357713299	-0.5366357851	-0.156068
N	 0.0232811781	-2.0426751631	 0.8279708067	-0.144368
C	 0.033661828	-0.7893683139	 1.1970952834	 0.255143
C	 0.1175282054	-0.3795063369	 2.6322339442	-0.327415
C	 1.5660884243	-0.1002127224	 3.0806822667	-0.063309
O	 1.629225476	 0.3750306503	 4.4101256085	-0.409187
H	 0.8783023944	 1.959328146	 0.3125370514	 0.147373
H	-0.1142457316	 1.8042950048	-1.1500263178	 0.159706
H	-0.8810638959	 1.9399496958	 0.445452686	 0.146058
H	-0.4778300968	 0.5234164942	 2.80314511	 0.12325
H	-0.3050792258	-1.1768725538	 3.252289647	 0.125579
H	 2.1731194209	-1.0055618271	 2.9350574621	 0.112316
H	 2.0056746951	 0.6875364561	 2.4595295004	 0.118658
H	 1.3889637035	-0.3479741686	 4.9984784868	 0.287815
40.5315	89.3975	113.9826	135.0378	236.818	265.6821	306.7108	357.9112	393.1935	418.5607	645.4621	663.3669	721.5846	772.1833	802.9883	922.5619	939.5531	995.3604	1014.8402	1051.1641	1070.1593	1075.5077	1087.7173	1156.3387	1236.0226	1297.4513	1316.2931	1396.1107	1410.3293	1416.9587	1430.2031	1480.0864	1483.2794	1485.4482	1509.8008	1522.5032	1625.1525	3002.5983	3044.395	3048.0892	3070.0258	3099.425	3100.915	3145.0106	3816.7215
CC1=NON=C1CCO	Cc1nonc1CCO	
InChI=1S/C5H8N2O2/c1-4-5(2-3-8)7-9-6-4/h8H,2-3H2,1H3	InChI=1S/C5H8N2O2/c1-4-5(2-3-8)7-9-6-4/h8H,2-3H2,1H3
