17
gdb 23512	3.8937	1.32277	1.18447	1.907	75.76	-0.2255	0.0007	0.2263	1052.4391	0.137806	-417.927626	-417.920637	-417.919693	-417.958939	28.306	
O	-0.090362563	 1.3423129523	 0.1070179964	-0.391819
N	 0.0360430249	-0.0573108268	 0.0762195153	-0.256098
C	-1.1044807997	-0.6156605629	-0.0270880419	 0.430883
C	-2.4823133923	 0.0112860809	-0.1077587203	-0.307984
C	-3.347278753	-1.1865004827	-0.5261904741	-0.080435
C	-2.805736242	-1.7644185195	-1.8575913897	-0.154318
N	-1.9732287863	-2.7883430218	-1.1378045671	-0.151081
C	-2.6882946051	-2.4335735313	 0.1291938099	-0.050664
C	-1.2519282357	-2.0931753528	-0.0096503251	-0.110602
H	 0.8264960302	 1.6271224323	 0.1839522699	 0.307871
H	-2.7699864195	 0.402825476	 0.8763121822	 0.125952
H	-2.5167776088	 0.844407243	-0.8155430267	 0.128701
H	-4.4223600568	-1.0404569265	-0.4337306538	 0.078491
H	-3.5593613115	-2.297792123	-2.4412628856	 0.114729
H	-2.2454338549	-1.0882466269	-2.5134683944	 0.108117
H	-3.1147611445	-3.1684866273	 0.801877052	 0.098594
H	-0.4649973619	-2.7063221734	 0.410453153	 0.109663
106.639	221.3056	261.9905	376.718	384.6546	450.1831	488.8749	543.3885	634.7392	705.3766	746.7962	781.4461	832.6984	855.9417	882.6826	891.9306	940.529	973.5838	984.8549	1010.4672	1029.1251	1054.6753	1084.685	1146.6565	1164.2198	1190.0503	1233.0231	1240.4774	1266.1237	1280.8935	1306.3583	1332.1991	1351.0925	1414.8036	1466.0456	1502.6405	1748.9672	3034.2117	3039.3325	3093.9654	3106.1016	3125.8702	3179.9508	3205.519	3818.1689
ON=C1CC2CN3C2C13	ON=C1C[C@H]2CN3[C@H]2[C@H]13	
InChI=1S/C6H8N2O/c9-7-4-1-3-2-8-5(3)6(4)8/h3,5-6,9H,1-2H2	InChI=1S/C6H8N2O/c9-7-4-1-3-2-8-5(3)6(4)8/h3,5-6,9H,1-2H2/t3-,5+,6-,8?/m0/s1
