25
gdb 91418	2.39393	1.58681	1.23154	0.1412	91.15	-0.2702	0.0758	0.346	1171.5592	0.232058	-352.363331	-352.354829	-352.353884	-352.395687	35.386	
C	 0.3241998646	 1.3231133652	-0.535479682	-0.419233
C	 0.2413605982	-0.1632556048	-0.1764620557	 0.042199
C	 0.8599502467	-1.0578568435	-1.2806958636	-0.208714
C	 1.1509116694	-2.4767649513	-0.7624378614	-0.006396
C	 0.1772031145	-2.8581318445	 0.3932712598	-0.24508
C	 1.1175453733	-2.0262180452	 1.3152678911	-0.004629
C	 2.2567630889	-2.3924374275	 0.3203451869	-0.214491
C	 0.7756694078	-0.5206389435	 1.2500035194	 0.018796
C	 1.9478842562	 0.3384735844	 1.7483031307	-0.399516
H	 1.3610213946	 1.6683135042	-0.6044656155	 0.115193
H	-0.1487035555	 1.5086408226	-1.5062549749	 0.107134
H	-0.1874670375	 1.9472036919	 0.2054894313	 0.108102
H	-0.8256019793	-0.4143107594	-0.1553748318	 0.077135
H	 0.1693932575	-1.0880228026	-2.1326216936	 0.087572
H	 1.7933463925	-0.6191459267	-1.6593344188	 0.088466
H	 1.2860703341	-3.1879312222	-1.581554735	 0.053229
H	-0.8771547238	-2.5775436982	 0.3184227007	 0.087242
H	 0.2426103132	-3.9248820377	 0.6247095568	 0.09065
H	 1.2335053904	-2.3492236384	 2.3540392472	 0.052584
H	 2.6806421779	-3.374337878	 0.5498068725	 0.088552
H	 3.0728484283	-1.6823966661	 0.1608081856	 0.084488
H	-0.0568281624	-0.3476728359	 1.9468302585	 0.062904
H	 2.8041311322	 0.3161850984	 1.0671300385	 0.115342
H	 1.6547242458	 1.3846995648	 1.8722712476	 0.111692
H	 2.2957323723	-0.023783366	 2.7222122157	 0.10678
104.04	209.4335	253.4841	266.7505	290.1649	320.1094	357.5594	397.9597	433.0064	481.1824	518.4177	595.8043	702.8049	797.2421	826.4171	850.5397	876.2443	891.5264	910.9435	937.2617	964.5299	981.5974	1000.1552	1014.4449	1060.5134	1060.9614	1084.3992	1099.5327	1123.6335	1130.786	1135.0379	1165.7501	1222.557	1229.9218	1251.584	1265.5478	1290.4012	1318.1542	1330.4511	1341.7823	1352.1143	1367.7693	1373.809	1393.0281	1410.0596	1417.6033	1481.6611	1491.2178	1493.4603	1497.4077	1505.3186	1511.5878	1520.0879	2989.4311	3008.6856	3020.3104	3026.7466	3034.5601	3045.7127	3048.3129	3050.8501	3060.0315	3071.2242	3089.2148	3094.8853	3098.7124	3102.3608	3102.5037	3110.5924
CC1CC2CC(C2)C1C	C[C@H]1C[C@@H]2C[C@@H](C2)[C@H]1C	
InChI=1S/C9H16/c1-6-3-8-4-9(5-8)7(6)2/h6-9H,3-5H2,1-2H3	InChI=1S/C9H16/c1-6-3-8-4-9(5-8)7(6)2/h6-9H,3-5H2,1-2H3/t6-,7-,8-,9+/m0/s1
