23
gdb 86203	2.29044	1.46876	1.17844	1.7508	81.54	-0.2367	0.0624	0.2991	1199.9552	0.204748	-425.444404	-425.434415	-425.433471	-425.478635	38.178	
C	 0.8308073347	 1.4887263751	-0.3105927053	-0.396718
C	 0.1855067292	 0.1484773201	 0.0338605365	 0.135944
O	 0.3524920329	-0.7441335964	-1.0794788338	-0.295083
C	 1.0888979551	-1.9045658983	-0.7009749926	 0.147511
C	 1.9763696416	-2.3290890035	-1.8611294704	-0.430359
C	 1.8132342781	-1.5295700297	 0.605743407	 0.068415
O	 3.01370806	-0.7957310387	 0.4021972263	-0.42564
C	 0.776417133	-0.6033634607	 1.2563597344	-0.014466
C	 1.2872197514	 0.2539773747	 2.4119314082	-0.419016
H	 1.911615771	 1.377762012	-0.4214359673	 0.134575
H	 0.4171704736	 1.8547935528	-1.2547103807	 0.115857
H	 0.6265254866	 2.2370900814	 0.4620053846	 0.104517
H	-0.8927585571	 0.3018960416	 0.1813013266	 0.066574
H	 0.388884404	-2.7260248138	-0.4664180741	 0.059871
H	 2.6981316896	-1.5426931208	-2.0990033686	 0.123948
H	 2.5118259058	-3.256278582	-1.6265195949	 0.105567
H	 1.3684066947	-2.5071627054	-2.7518058549	 0.132101
H	 2.0082517559	-2.4209849992	 1.2197948457	 0.059208
H	 3.6473137083	-1.3695351443	-0.0386419693	 0.287223
H	-0.0143212664	-1.2626423525	 1.6363062542	 0.077162
H	 2.1342865308	 0.8708846592	 2.1079986724	 0.14088
H	 0.4965625688	 0.9106522437	 2.7896704861	 0.111419
H	 1.6160550187	-0.3784212653	 3.2430374899	 0.110511
72.4489	120.4857	217.9114	225.6964	236.1713	258.6247	269.1436	270.9632	312.1057	343.3611	396.2139	436.3895	477.771	548.7775	700.0584	726.7145	775.0951	834.0526	871.4227	918.7898	951.1352	988.5581	999.9166	1039.9013	1055.3261	1093.2958	1107.8841	1150.9088	1152.7692	1172.2175	1194.7213	1219.6465	1300.961	1328.0227	1335.6279	1353.6245	1379.4842	1388.731	1391.482	1402.1813	1405.7742	1413.176	1428.1668	1483.553	1486.4282	1496.5599	1502.1703	1507.097	1511.7818	2938.6064	2993.4072	2994.591	3027.9507	3035.8303	3040.2467	3043.561	3097.21	3108.4451	3109.86	3123.5859	3136.8876	3141.337	3829.2001
CC1OC(C)C(O)C1C	C[C@H]1O[C@@H](C)[C@@H](O)[C@H]1C	
InChI=1S/C7H14O2/c1-4-5(2)9-6(3)7(4)8/h4-8H,1-3H3	InChI=1S/C7H14O2/c1-4-5(2)9-6(3)7(4)8/h4-8H,1-3H3/t4-,5+,6-,7-/m0/s1
