20
gdb 75420	2.94702	1.28225	0.96579	3.0164	83.23	-0.2468	0.0036	0.2504	1255.644	0.171873	-403.164751	-403.155987	-403.155042	-403.198365	33.21	
C	-0.046062234	 1.5354933921	 0.0587641464	-0.487887
C	-0.0098981068	 0.0345752138	-0.020055637	 0.328609
C	-0.0521320179	-0.6445795335	-1.1677372203	-0.15156
C	 0.0363181263	-2.1477377367	-1.2411045392	-0.279751
C	 1.3457660335	-2.7071776815	-0.6431631423	-0.239423
C	 1.499524809	-2.6435950604	 0.8612967655	 0.354539
N	 1.9378457622	-3.6509260582	 1.4928801334	-0.476781
O	 1.2922829916	-1.4507301693	 1.507822179	-0.25259
C	 0.070453287	-0.7193765988	 1.2901170365	-0.185773
H	 0.8581332191	 1.9252918799	 0.5438046043	 0.133123
H	-0.1242928752	 1.9891797388	-0.9326651415	 0.123789
H	-0.896341179	 1.8843606607	 0.6592516023	 0.125623
H	-0.1070231574	-0.099447226	-2.1074751622	 0.086845
H	-0.8213560321	-2.6128523709	-0.7344203739	 0.115459
H	-0.0208823783	-2.4695990563	-2.2847306971	 0.107865
H	 1.4681055225	-3.7581204556	-0.9121116532	 0.128531
H	 2.186625264	-2.1549778855	-1.082141312	 0.122974
H	 2.0232727318	-3.4180783754	 2.4855110667	 0.215898
H	 0.0274080818	-0.0256718867	 2.1330156266	 0.115919
H	-0.7776020282	-1.4110915707	 1.390887558	 0.114591
55.3295	140.5993	169.0311	202.717	265.3752	302.9709	345.9445	360.7493	468.2983	481.6672	525.7746	622.5256	693.7946	747.8013	825.4663	858.0223	898.8351	924.934	943.2072	982.7109	1009.4326	1038.9947	1051.8604	1073.9547	1116.6592	1122.9569	1174.2776	1214.0981	1264.3375	1297.0763	1319.5953	1341.0918	1365.4025	1378.0677	1412.6781	1420.1786	1467.5265	1478.8791	1484.6152	1489.6493	1501.8934	1734.279	1739.0722	3004.5463	3006.9934	3014.6164	3033.9651	3061.0157	3081.8461	3098.6446	3113.1378	3115.7542	3149.4178	3451.308
CC1=CCCC(=N)OC1	CC1=CCC[C]([NH])OC1	
InChI=1S/C7H11NO/c1-6-3-2-4-7(8)9-5-6/h3,8H,2,4-5H2,1H3	InChI=1S/C7H11NO/c1-6-3-2-4-7(8)9-5-6/h3,8H,2,4-5H2,1H3
