15
gdb 31219	2.33241	1.4883	0.92334	4.5689	77.42	-0.2107	0.0042	0.215	1193.8651	0.112906	-416.808845	-416.800384	-416.79944	-416.842395	30.913	
O	-0.0927397494	 1.3901793332	-0.4209680253	-0.428929
C	 0.0056025297	 0.0800564044	 0.1318709954	-0.218626
C	-1.347806255	-0.5383190707	 0.0637922502	 0.245466
C	-1.7843586064	-1.846604496	-0.0115677254	 0.065269
N	-3.171343263	-1.8871246662	-0.0016983767	-0.31867
C	-3.5517066947	-0.6368324658	 0.0714932475	-0.007039
N	-2.4876433804	 0.2179333044	 0.1262459079	-0.276093
C	-0.9717303349	-3.0026204707	-0.0869189382	 0.250653
C	-0.2548932704	-3.9684854345	-0.1518173004	-0.444304
H	 0.7367864325	 1.8479757053	-0.2563148042	 0.296776
H	 0.7166716139	-0.5528014296	-0.4172066143	 0.126519
H	 0.3533771401	 0.1286065525	 1.1769979602	 0.113473
H	-4.5730204565	-0.286854778	 0.0836884433	 0.132564
H	-2.4916137874	 1.2251399597	 0.1156990716	 0.277749
H	 0.3639722719	-4.8288909782	-0.2106799317	 0.18519
58.9912	121.4623	170.0387	195.4136	248.5744	288.2337	400.9377	473.5782	538.6813	562.5085	588.3258	605.9456	664.0744	671.4058	729.4079	756.5425	812.7751	962.2104	1028.4399	1044.3751	1094.9714	1130.9086	1214.41	1233.469	1276.8751	1287.5744	1380.9793	1452.1973	1454.6023	1515.5569	1524.1724	1603.4337	2232.2854	2963.1426	3021.4159	3253.6202	3504.8559	3659.6044	3833.829
OCC1=C(N=CN1)C#C	OCc1c(nc[nH]1)C#C	
InChI=1S/C6H6N2O/c1-2-5-6(3-9)8-4-7-5/h1,4,9H,3H2,(H,7,8)	InChI=1S/C6H6N2O/c1-2-5-6(3-9)8-4-7-5/h1,4,9H,3H2,(H,7,8)
