15
gdb 124182	5.26227	0.77383	0.68028	4.5421	75.05	-0.2651	-0.0365	0.2286	1580.0091	0.110864	-416.765239	-416.756359	-416.755414	-416.801669	30.034	
C	 0.1018787252	 1.4440975019	-0.4126492975	-0.498036
C	 0.0332193867	 0.02107363	-0.1132472525	 0.088836
C	-0.015925392	-1.1544841025	 0.1371899451	 0.060977
C	-0.0720096464	-2.5794989266	 0.4421610317	-0.485569
C	-1.3709949921	-3.2151549204	 0.0518059303	 0.421666
C	-2.510603746	-2.7476211613	-0.5254816207	-0.187022
N	-3.3681516606	-3.8161080383	-0.6343611446	-0.110128
N	-2.8476159973	-4.8616399997	-0.1799891441	-0.012137
O	-1.5214965762	-4.5155094381	 0.2877525895	-0.221038
H	 1.0857785674	 1.8522060823	-0.1576908482	 0.155523
H	-0.0711695152	 1.6349090384	-1.4771558513	 0.154088
H	-0.6481360492	 2.0061977962	 0.1539545848	 0.154093
H	 0.7430851055	-3.1134033386	-0.0650466658	 0.165255
H	 0.0900879332	-2.7494686918	 1.5152623079	 0.16526
H	-2.7680813631	-1.7583455115	-0.8584003245	 0.148232
13.7164	43.9071	74.0951	201.6026	233.1285	243.0977	330.3209	379.5159	447.7932	601.3077	653.38	701.8812	721.9842	788.4655	827.9726	952.9907	987.1905	1046.1958	1053.0524	1053.9397	1118.4511	1170.1495	1220.4718	1226.1864	1313.1282	1398.4924	1415.0957	1454.5801	1465.5027	1476.9079	1477.9804	1606.3821	2383.0467	3015.2727	3031.1693	3039.551	3093.9795	3094.228	3307.5722
CC#CCC1=CN=NO1	CC#CCc1cnno1	
InChI=1S/C6H6N2O/c1-2-3-4-6-5-7-8-9-6/h5H,4H2,1H3	InChI=1S/C6H6N2O/c1-2-3-4-6-5-7-8-9-6/h5H,4H2,1H3
