13
gdb 25053	5.69972	1.03237	0.87406	3.7731	78.99	-0.2347	-0.0687	0.166	1215.7358	0.089041	-419.453193	-419.445818	-419.444874	-419.485159	27.906	
O	-0.0571719479	-0.0664232714	 0.0039797053	-0.330385
C	 0.0328283558	 1.1279227256	 0.0089851321	 0.432959
O	-1.1783783268	 1.8700452236	 0.0287497962	-0.213264
C	-1.2092559266	 3.2013988017	 0.0359060152	 0.033138
C	-0.0939024132	 3.9816576796	 0.0250996097	 0.004977
C	 1.172798926	 3.2946769761	 0.0048112738	-0.11191
C	 1.2294708955	 1.9435843635	-0.0027998934	-0.253373
C	-0.1827709752	 5.3985481804	 0.0334648215	 0.227305
C	-0.2348324498	 6.6013019454	 0.0402351307	-0.412509
H	-2.2188242622	 3.5953694665	 0.0512722594	 0.153828
H	 2.0817349335	 3.8866056729	-0.004254684	 0.132183
H	 2.1668673043	 1.4025360762	-0.0180107485	 0.135202
H	-0.2882373134	 7.6618691598	 0.0462709318	 0.201847
87.7764	144.5089	207.5238	364.4657	413.7441	451.687	459.5795	526.617	533.1642	579.2598	635.0255	672.283	721.373	749.8196	755.0299	854.6141	920.6012	948.591	1012.0956	1095.1143	1171.5087	1231.9677	1282.8084	1354.4575	1445.951	1565.7372	1675.9156	1858.3048	2232.5601	3194.3061	3211.1669	3224.0378	3502.7306
O=C1OC=C(C=C1)C#C	O=c1occ(cc1)C#C	
InChI=1S/C7H4O2/c1-2-6-3-4-7(8)9-5-6/h1,3-5H	InChI=1S/C7H4O2/c1-2-6-3-4-7(8)9-5-6/h1,3-5H
