22
gdb 101644	2.80201	0.82092	0.75471	5.1558	83.79	-0.2663	0.0412	0.3075	1626.6499	0.191582	-404.366194	-404.355067	-404.354123	-404.403471	39.018	
C	 0.0760346612	 1.3883594339	 0.0930820129	-0.236982
O	-0.1340515557	 0.0191171827	-0.1686467902	-0.245273
C	 0.6908183697	-0.5361363014	-1.1855464292	 0.123118
C	 2.1389708919	-0.7214061089	-0.7231684429	-0.406635
C	 0.0598097389	-1.8773895354	-1.5689641278	-0.196975
C	-1.4223641095	-1.7667404701	-1.9987917445	-0.138938
C	-1.6324374173	-0.9830252252	-3.3091680673	-0.396799
C	-2.0008199659	-3.1088121198	-2.1182219117	 0.262471
N	-2.4479307695	-4.169937462	-2.2213836759	-0.329188
H	 1.0563335276	 1.5865801092	 0.5484035155	 0.11234
H	-0.007667026	 1.9943929986	-0.8227451588	 0.10414
H	-0.7003301885	 1.7028003878	 0.7948133647	 0.131719
H	 0.6843810296	 0.1397525469	-2.0574407702	 0.068071
H	 2.1756806066	-1.3629370264	 0.1627949075	 0.128843
H	 2.7360418415	-1.1863244463	-1.5139115782	 0.120934
H	 2.6077611975	 0.2348530578	-0.4758267725	 0.119692
H	 0.6442676686	-2.3328533353	-2.3758556681	 0.112361
H	 0.1265929516	-2.5477599702	-0.7054041916	 0.124618
H	-1.9552752586	-1.2523795292	-1.1918293346	 0.144329
H	-1.2929091248	 0.048795775	-3.1929747725	 0.127864
H	-1.0770243193	-1.4418756438	-4.1326308338	 0.132362
H	-2.6900622795	-0.962417418	-3.5830104708	 0.137928
28.9328	79.093	94.5042	125.7193	182.9223	196.8208	222.015	243.7759	269.3083	301.5174	332.0353	385.9981	466.6155	506.5137	555.6466	590.323	795.5136	826.4593	882.8191	912.7415	954.9922	1005.3759	1042.9463	1102.5707	1116.2778	1127.4763	1151.835	1177.7071	1184.142	1216.0357	1263.2008	1297.313	1342.5445	1350.4773	1384.4897	1399.1724	1405.2769	1412.686	1472.1157	1478.2145	1483.1253	1492.3303	1496.464	1501.5258	1505.8011	1513.2874	2354.7303	2957.6514	2979.7427	3033.0623	3041.077	3046.4264	3049.2927	3062.8264	3091.7764	3113.3625	3114.581	3118.7207	3123.6726	3131.152
COC(C)CC(C)C#N	CO[C@@H](C)C[C@@H](C)C#N	
InChI=1S/C7H13NO/c1-6(5-8)4-7(2)9-3/h6-7H,4H2,1-3H3	InChI=1S/C7H13NO/c1-6(5-8)4-7(2)9-3/h6-7H,4H2,1-3H3/t6-,7+/m1/s1
