17
gdb 46403	3.89438	0.8163	0.71712	4.6139	74.16	-0.279	0.0081	0.2871	1511.5814	0.136581	-418.023792	-418.015117	-418.014172	-418.058193	30.86	
N	-0.1680888636	 1.1793146353	-0.318120103	-0.543547
C	-0.0614491184	-0.0378785795	-0.0352329285	 0.44915
O	 1.0138219873	-0.7731196102	 0.4097563305	-0.247864
C	 0.1941602672	-1.9797936036	 0.5264357328	-0.114193
C	-1.0319752268	-1.2061825081	-0.0104213618	-0.142585
C	-2.2534382557	-1.0572964818	 0.8934892335	-0.214482
C	-3.2428756423	-0.016430702	 0.3278501346	-0.342471
C	-4.4042576483	 0.1659203599	 1.1939153785	 0.256595
N	-5.3162536441	 0.2936968046	 1.8920009849	-0.304808
H	 0.7114926495	 1.6810724887	-0.1869775603	 0.235047
H	 0.5846470949	-2.7813280185	-0.1038240151	 0.128666
H	 0.1321560076	-2.3063681729	 1.5678086304	 0.128115
H	-1.3299643567	-1.5181953057	-1.0160813083	 0.114101
H	-2.755541945	-2.0246400491	 1.0017524772	 0.126294
H	-1.9381649681	-0.7462820373	 1.8952638549	 0.130422
H	-2.7308117198	 0.9429157769	 0.1959994853	 0.191813
H	-3.5930880876	-0.3259162267	-0.6640457954	 0.149746
62.5443	90.3284	114.5277	159.0051	202.3624	304.1811	347.8553	403.8013	460.2716	542.7488	666.6332	748.0182	772.0647	835.5179	866.0926	913.004	938.651	965.7219	1003.8532	1027.2728	1055.1937	1090.3491	1132.8069	1159.2495	1190.8131	1234.1634	1247.9899	1292.3731	1320.6277	1344.7034	1384.4429	1392.08	1474.3749	1497.1337	1516.4371	1819.8941	2363.228	3040.2057	3049.3301	3064.6884	3066.7361	3081.8144	3100.0112	3127.2114	3481.8536
N=C1OCC1CCC#N	[NH][C]1OC[C@H]1CCC#N	
InChI=1S/C6H8N2O/c7-3-1-2-5-4-9-6(5)8/h5,8H,1-2,4H2	InChI=1S/C6H8N2O/c7-3-1-2-5-4-9-6(5)8/h5,8H,1-2,4H2/t5-/m1/s1
