22
gdb 101208	3.97055	0.84279	0.8259	2.8825	84.09	-0.2582	0.0303	0.2885	1524.1301	0.193291	-404.361866	-404.351965	-404.35102	-404.397309	36.445	
C	-0.3541167986	 1.503722989	 0.1942634712	-0.395256
C	 0.0431996494	 0.0307939817	 0.0590366827	-0.168082
C	 0.7224891476	-0.3369460085	-1.2769689995	 0.011632
C	 2.0478759811	 0.4100750615	-1.4824535939	-0.410478
C	 0.8752179248	-1.8532874006	-1.3664071896	 0.133537
C	 1.6089951454	-2.5122198238	-2.5563721979	-0.401194
C	 2.5737858838	-2.9956343686	-1.495480901	 0.446878
N	 3.6078338377	-3.7044925532	-1.4954841187	-0.543056
O	 1.9086351806	-2.3809966669	-0.4542542959	-0.268649
H	 0.516056858	 2.1664802804	 0.2058519446	 0.121814
H	-1.0011676419	 1.8174815217	-0.6330715277	 0.11283
H	-0.9034456164	 1.6713702457	 1.1257442256	 0.116301
H	 0.711974674	-0.2526065811	 0.8813649125	 0.114253
H	-0.8560836513	-0.5885389054	 0.1720468888	 0.092704
H	 0.0347527698	-0.0623667843	-2.0922261587	 0.077714
H	 2.518213496	 0.1587897099	-2.4375163205	 0.117029
H	 1.8899466381	 1.4910685926	-1.4789278682	 0.12054
H	 2.7561295662	 0.1672074057	-0.6849227405	 0.134383
H	-0.077785428	-2.3383706952	-1.1298676652	 0.088611
H	 1.0622460859	-3.3042710576	-3.0703799992	 0.135527
H	 2.042571488	-1.8361459229	-3.2941634135	 0.136981
H	 3.9797714399	-3.81339937	-0.5502287155	 0.225983
56.6404	63.8347	92.9842	188.8706	195.0378	238.0623	280.9108	314.8345	349.5157	422.7679	476.2857	500.1386	602.4585	712.7179	770.5201	797.4351	854.6175	867.5685	911.6253	947.3392	962.0033	973.4198	1021.159	1024.3601	1034.739	1080.9457	1097.5909	1117.1145	1171.4434	1197.632	1227.6104	1242.2548	1278.2108	1303.8955	1343.4459	1357.9488	1385.4167	1389.8985	1413.4827	1421.5432	1466.3517	1485.3864	1496.4126	1503.7359	1507.0641	1513.2031	1824.2318	2988.6184	3018.671	3032.9123	3049.907	3051.4535	3058.0899	3092.4164	3099.205	3108.3127	3115.7671	3125.5646	3145.4957	3474.0767
CCC(C)C1CC(=N)O1	CC[C@@H](C)[C@H]1C[C]([NH])O1	
InChI=1S/C7H13NO/c1-3-5(2)6-4-7(8)9-6/h5-6,8H,3-4H2,1-2H3	InChI=1S/C7H13NO/c1-3-5(2)6-4-7(8)9-6/h5-6,8H,3-4H2,1-2H3/t5-,6-/m1/s1
