13
gdb 16092	4.6565	1.81466	1.54393	3.4698	62.88	-0.2719	-0.0269	0.245	796.2708	0.097488	-357.632018	-357.625773	-357.624828	-357.662361	23.524	
N	-0.0101887213	-1.1264200042	-0.0262590897	-0.32802
C	 0.0161690568	 0.0292380381	-0.0179024492	 0.232898
C	-0.0163825807	 1.4677193062	-0.0015644156	 0.15523
C	 0.4161553952	 2.2436199298	-1.1984247348	-0.266439
N	 1.2883287835	 2.1972525523	-0.0030610087	-0.141593
C	 1.0012744702	 3.2949462866	 0.8765176268	 0.043309
N	-0.1246405897	 3.3504211226	 1.4581634324	-0.189381
C	-0.9073807631	 2.182732896	 1.0310676246	-0.236307
H	 0.8046373283	 1.7147244687	-2.0618736206	 0.153102
H	-0.1083911284	 3.1730838361	-1.4044991817	 0.143684
H	 1.7861962691	 4.0313488958	 1.0179602123	 0.145816
H	-1.8723545731	 2.5020226132	 0.6260312413	 0.139088
H	-1.1068269768	 1.5339607689	 1.8897412229	 0.148612
148.1299	171.2011	310.785	345.4684	497.5474	541.1395	552.3241	581.5742	739.6354	803.5523	844.5721	925.1501	934.6005	947.239	974.5444	1022.31	1046.1767	1131.8926	1148.4771	1202.1928	1224.9373	1294.191	1318.7356	1363.9991	1482.7957	1499.624	1688.2584	2360.9928	3057.2198	3095.8672	3117.8907	3198.9039	3220.2166
N#CC12CN1C=NC2	N#C[C@]12CN1C=NC2	
InChI=1S/C5H5N3/c6-1-5-2-7-4-8(5)3-5/h4H,2-3H2	InChI=1S/C5H5N3/c6-1-5-2-7-4-8(5)3-5/h4H,2-3H2/t5-,8?/m0/s1
