19
gdb 13677	5.113	0.92254	0.84383	3.842	74.11	-0.245	0.0353	0.2803	1376.9535	0.165269	-365.078913	-365.069912	-365.068967	-365.113746	31.895	
C	 0.0892997083	 1.49112239	-0.3975412477	-0.405878
C	-0.0733840249	 0.0776066686	 0.1208095267	 0.003675
C	 1.0537435369	-0.9231358975	 0.0362759138	-0.304488
C	 0.5791275346	-0.4269863268	 1.3876999181	-0.003431
C	 1.4701773675	 0.4360564087	 2.2528601555	-0.179767
N	 2.4072501081	-0.373817917	 3.0215435096	-0.270839
C	 2.56949199	-0.2597360206	 4.3655171943	 0.154019
O	 1.9975629972	 0.5376315857	 5.0791481705	-0.324278
H	 1.1120122331	 1.8601993496	-0.2802200012	 0.117342
H	-0.1501466066	 1.5359733532	-1.4655658492	 0.119677
H	-0.5777281546	 2.18818141	 0.1215337386	 0.122716
H	-1.0650345555	-0.331830058	-0.0547349722	 0.088925
H	 0.8365469252	-1.9447667492	-0.2555309889	 0.112512
H	 2.0106666735	-0.5533078652	-0.3226718097	 0.106716
H	-0.0126451262	-1.1321788137	 1.9657814688	 0.092248
H	 2.0202084342	 1.1616273549	 1.6415243475	 0.105743
H	 0.8902693088	 1.0021558546	 2.9861809734	 0.148975
H	 2.9226839922	-1.0915743134	 2.5366052084	 0.245945
H	 3.3032678781	-0.9961142742	 4.7512290436	 0.070186
32.9145	63.6857	131.907	189.5518	206.5748	263.0694	298.3786	367.4501	423.872	510.0682	545.0984	741.1026	770.7336	846.648	877.035	886.1356	939.0182	965.2177	1030.7062	1033.8566	1063.0761	1084.4008	1112.2554	1154.2213	1174.4923	1196.6841	1213.7075	1245.5936	1283.7465	1351.9496	1400.0935	1419.4788	1430.6453	1435.9497	1486.9576	1493.8099	1502.9064	1505.8866	1530.1024	1805.6036	2928.063	3028.4007	3035.2409	3090.7544	3103.6378	3108.3871	3119.7327	3133.8026	3144.4504	3206.7453	3630.8372
CC1CC1CNC=O	C[C@H]1C[C@H]1CNC=O	
InChI=1S/C6H11NO/c1-5-2-6(5)3-7-4-8/h4-6H,2-3H2,1H3,(H,7,8)	InChI=1S/C6H11NO/c1-5-2-6(5)3-7-4-8/h4-6H,2-3H2,1H3,(H,7,8)/t5-,6-/m0/s1
