13
gdb 19544	4.72152	1.75113	1.64589	3.5734	63.25	-0.261	0.0017	0.2628	786.1302	0.096856	-361.404702	-361.398794	-361.39785	-361.434777	22.84	
N	-0.1222270603	-1.1857028065	 0.0006736424	-0.36006
C	-0.0703090237	-0.0282829726	 0.0089556086	 0.118537
C	 0.0058181806	 1.3804641699	 0.0233467807	 0.23805
C	-0.7580056445	 2.4748580135	 0.7958191607	-0.161552
C	 0.5540272362	 3.1183225259	 1.2481260978	-0.232496
C	 1.1677134184	 2.4604456865	-0.0119977656	 0.014363
O	 0.5141732153	 3.1489076301	-1.1131936896	-0.279012
C	-0.6824901969	 2.4896197235	-0.7294719332	 0.043953
H	-1.6869987993	 2.3519780925	 1.3360920509	 0.122397
H	 0.6141349954	 4.2088941195	 1.2963891335	 0.117567
H	 0.9253194078	 2.6629724097	 2.1684077386	 0.125109
H	 2.2305060176	 2.2948464677	-0.1644577492	 0.1155
H	-1.5242148165	 2.4687459302	-1.4076508756	 0.137643
145.4125	170.8244	419.8752	488.3813	512.7105	555.8041	577.7363	750.3198	764.4214	830.7469	892.0698	900.6716	924.9695	961.2582	982.1546	1019.4074	1034.7861	1071.4567	1105.0426	1136.3807	1164.1118	1223.0142	1231.7889	1268.7213	1321.4598	1418.5195	1487.2133	2340.4939	3065.3769	3132.0193	3171.5057	3216.9682	3229.3898
N#CC12C3CC1OC23	N#C[C@@]12[C@H]3C[C@@H]1O[C@@H]23	
InChI=1S/C6H5NO/c7-2-6-3-1-4(6)8-5(3)6/h3-5H,1H2	InChI=1S/C6H5NO/c7-2-6-3-1-4(6)8-5(3)6/h3-5H,1H2/t3-,4-,5+,6+/m0/s1
