14
gdb 19036	4.21815	2.20984	1.87484	3.3852	60.24	-0.2388	-0.0143	0.2245	715.6	0.10842	-382.522236	-382.516568	-382.515624	-382.551925	22.868	
O	-0.0026121522	 0.00291977	-0.1135065994	-0.326101
C	-0.0203793887	 1.1994845713	 0.0183492822	 0.427409
C	-1.2785004416	 2.0851579939	 0.1263287538	-0.329569
C	-0.7019251734	 3.4412285491	 0.4999917192	 0.076598
O	-0.0682415413	 3.2999516304	 1.8184619179	-0.300895
C	 1.1878004346	 3.1827155629	 1.1684853975	 0.109438
C	 0.695826344	 3.5500331035	-0.175835396	-0.16922
C	 1.1651588058	 2.1158978534	 0.0540267274	-0.204594
H	-1.7818599951	 2.1164587612	-0.8480032312	 0.129761
H	-1.9772725038	 1.6904038621	 0.8671361352	 0.140806
H	-1.3727974374	 4.29882704	 0.4653319547	 0.097215
H	 2.0862156277	 3.4146025651	 1.7266873695	 0.124085
H	 1.0424381589	 4.2281446696	-0.9421308982	 0.113363
H	 2.1230064727	 1.7729007675	-0.3157149026	 0.111704
132.4495	344.2309	405.5869	446.0606	597.2839	634.8403	680.0259	740.0401	791.7126	806.4294	839.9928	867.8632	897.4703	953.1225	980.8424	989.015	1019.3664	1050.4738	1064.8821	1094.8791	1138.1496	1175.0443	1221.0764	1232.9943	1281.6264	1295.6522	1331.6596	1383.8954	1436.827	1842.5554	3045.6189	3119.5368	3125.0789	3195.8526	3207.2718	3221.5381
O=C1CC2OC3C2C13	O=C1C[C@H]2O[C@@H]3[C@H]2[C@H]13	
InChI=1S/C6H6O2/c7-2-1-3-5-4(2)6(5)8-3/h3-6H,1H2	InChI=1S/C6H6O2/c7-2-1-3-5-4(2)6(5)8-3/h3-6H,1H2/t3-,4+,5-,6+/m1/s1
