21
gdb 115301	4.10031	0.98874	0.83413	1.6223	82.34	-0.2366	0.0255	0.2621	1431.8773	0.181874	-424.236013	-424.226644	-424.2257	-424.270115	34.691	
C	 0.0285467691	 1.3951791678	 0.0080531408	-0.24124
O	 0.073544906	-0.021276311	-0.0175086587	-0.238533
C	 0.6992586411	-0.5888377491	 1.0798924587	 0.223993
C	 0.5382330215	-2.1021382289	 1.0167218093	-0.280189
C	 1.4714724812	-2.7611351071	 1.9978413198	-0.163009
C	 2.4934742393	-2.117754443	 2.5637765465	 0.292402
C	 3.4113161504	-2.7312374785	 3.5824767551	-0.478703
C	 2.7758653382	-0.6798071466	 2.1942435133	-0.15161
O	 2.0764036948	-0.243301157	 1.046133917	-0.262821
H	 1.0331240127	 1.8299159394	-0.0206087401	 0.129832
H	-0.5304627712	 1.7093185154	-0.875800525	 0.125932
H	-0.4906358367	 1.7597680672	 0.9075643583	 0.102499
H	 0.2645914533	-0.1948984438	 2.0224849174	 0.046286
H	-0.5033923774	-2.3673550868	 1.2322956179	 0.107701
H	 0.7397051763	-2.4268445847	-0.0122240751	 0.124688
H	 1.2796106671	-3.8011616165	 2.2514615515	 0.081188
H	 3.1167330915	-3.756927779	 3.8188262793	 0.124887
H	 4.4497762429	-2.7471259146	 3.2269749046	 0.125038
H	 3.4115604705	-2.1557775831	 4.517571521	 0.123785
H	 2.5541249107	-0.0258664649	 3.0596110369	 0.093068
H	 3.8409858188	-0.5469066352	 1.9683336117	 0.114808
81.8372	117.6044	168.9008	176.3947	195.8428	251.9508	286.759	321.7595	379.0367	432.4134	490.2749	522.5935	574.1084	679.2758	800.0612	842.8863	909.872	951.1293	1004.3162	1025.9363	1043.6551	1066.493	1085.0141	1098.1982	1117.9885	1175.0321	1181.3075	1185.7537	1204.1822	1249.7566	1276.037	1325.7925	1347.7013	1393.2884	1407.119	1414.3528	1419.8828	1471.9159	1479.1982	1481.9072	1484.414	1487.6175	1493.313	1513.0053	1745.1265	2881.4457	2921.5161	2991.8916	3014.0339	3027.7986	3045.7676	3058.9979	3064.9822	3075.0232	3112.7014	3128.177	3150.318
COC1CC=C(C)CO1	CO[C@H]1CC=C(C)CO1	
InChI=1S/C7H12O2/c1-6-3-4-7(8-2)9-5-6/h3,7H,4-5H2,1-2H3	InChI=1S/C7H12O2/c1-6-3-4-7(8-2)9-5-6/h3,7H,4-5H2,1-2H3/t7-/m1/s1
