26
gdb 7192	4.6801	0.71991	0.65613	0.0897	89.88	-0.2935	0.0861	0.3796	1854.9659	0.245049	-315.492764	-315.48167	-315.480726	-315.529351	39.753	
C	-0.0791253016	 1.626599823	-0.1074684543	-0.377865
C	 0.0123137703	 0.1023535213	 0.0142117781	-0.176603
C	-1.3644352711	-0.5697805049	 0.0841235656	-0.159071
C	-1.3523616128	-2.1107877781	 0.1047831559	 0.026953
C	-0.6564410588	-2.6621914505	 1.3584069762	-0.389571
C	-2.7891022328	-2.6494644552	-0.039822047	-0.159064
C	-2.9108446138	-4.1647945515	-0.2424625925	-0.176587
C	-4.3553233078	-4.6155337633	-0.4808060685	-0.377865
H	 0.9137508725	 2.084862783	-0.1569215093	 0.108932
H	-0.6271454003	 1.9205123412	-1.009726774	 0.112087
H	-0.6033278749	 2.0611262563	 0.7511956581	 0.112631
H	 0.5677446989	-0.3002120542	-0.8437816897	 0.091755
H	 0.6015758164	-0.150276385	 0.9034546472	 0.097768
H	-1.9018274842	-0.2032876472	 0.9714020821	 0.086753
H	-1.9554786462	-0.2384431967	-0.7808989979	 0.085507
H	-0.782454414	-2.4487532535	-0.7747612769	 0.064703
H	-0.6202523135	-3.7551179278	 1.353561516	 0.113017
H	 0.37442322	-2.306232678	 1.4386303876	 0.113042
H	-1.1880599908	-2.3505390838	 2.2663069109	 0.108048
H	-3.3737152497	-2.3540096004	 0.8440883832	 0.086746
H	-3.264374928	-2.147061863	-0.8936878691	 0.085505
H	-2.2882827322	-4.4662847223	-1.0958239086	 0.091765
H	-2.5101271019	-4.6958763236	 0.6288506881	 0.097762
H	-4.4184812546	-5.6989136256	-0.624170857	 0.108934
H	-4.9962837639	-4.3548118972	 0.368956241	 0.112632
H	-4.7788561553	-4.136367603	-1.370639325	 0.112087
63.8235	74.276	85.6551	121.0713	125.6969	225.8725	239.0146	248.1949	255.2432	308.2504	326.2239	378.5138	454.9462	522.4727	741.795	750.319	831.8493	858.0072	877.6237	882.552	929.946	961.0178	991.6384	1034.9407	1044.1751	1056.7526	1086.6999	1088.6319	1165.2265	1179.0532	1202.6607	1253.6331	1279.5992	1292.7054	1324.0388	1331.6624	1335.2967	1363.53	1380.6254	1395.1205	1401.5068	1409.9002	1412.4842	1417.1671	1475.3741	1485.7967	1492.9255	1495.1749	1498.7284	1499.5923	1499.7629	1506.8808	1510.2912	1513.8578	2980.7344	2994.198	3000.6599	3016.6914	3018.4145	3026.9456	3027.9232	3028.0177	3028.7896	3034.271	3058.8199	3062.092	3095.1938	3095.3241	3097.188	3099.3507	3099.9708	3111.6349
CCCC(C)CCC	CCCC(C)CCC	
InChI=1S/C8H18/c1-4-6-8(3)7-5-2/h8H,4-7H2,1-3H3	InChI=1S/C8H18/c1-4-6-8(3)7-5-2/h8H,4-7H2,1-3H3
