19
gdb 7365	3.93091	1.04534	0.86564	5.1331	67.81	-0.249	0.0192	0.2682	1335.3459	0.16516	-402.242373	-402.233101	-402.232157	-402.27697	33.101	
C	 0.1269330762	 1.5608329141	 0.2336940614	-0.380471
C	 0.0325491836	 0.0387015503	 0.098418754	-0.177796
C	 0.7081153284	-0.4874073333	-1.1712954138	-0.164168
C	 0.6088709329	-2.008542539	-1.3410395302	-0.147172
N	-0.7475044132	-2.5425605707	-1.5676752245	-0.537977
H	-1.306528954	-1.8804278159	-2.0988111794	 0.243865
H	 0.1331113588	-3.6555303014	-2.8066746695	 0.305217
H	-1.233528332	-2.7089443046	-0.6945640132	 0.249766
C	 1.5419699852	-2.5042891546	-2.4709413101	 0.43856
O	 2.63316256	-2.0417300746	-2.6741710262	-0.342653
O	 1.0331215914	-3.5194035921	-3.1788328068	-0.370612
H	 1.1711088911	 1.890136701	 0.2584426197	 0.123214
H	-0.357085195	 2.0637463687	-0.6107612452	 0.116336
H	-0.3563051539	 1.9102472633	 1.1511449373	 0.114352
H	 0.4934678019	-0.4374318513	 0.974521926	 0.098718
H	-1.0236961266	-0.2622724028	 0.109252372	 0.081667
H	 0.2673091611	-0.0047186327	-2.0560814895	 0.093865
H	 1.769358697	-0.221489682	-1.1794391455	 0.136063
H	 0.991695107	-2.4895234525	-0.4306781966	 0.119225
60.4222	89.1942	97.5504	147.2249	243.6189	287.8881	293.8598	328.9904	361.9324	432.5551	532.9444	615.1935	729.815	750.0518	840.4046	855.833	870.0077	903.7695	912.3262	1006.6931	1047.4512	1078.2905	1104.1905	1147.3504	1211.3279	1223.45	1255.1665	1286.5235	1327.598	1339.5632	1392.0698	1395.2606	1414.5126	1430.9569	1482.8488	1493.9208	1499.2767	1510.9357	1655.9365	1865.3513	3003.9772	3010.2371	3029.1856	3032.626	3040.0389	3092.9303	3100.9194	3106.1714	3464.4916	3502.1975	3591.846
CCCC([NH3+])C([O-])=O	CCC[C@@H](N)C(=O)O	
InChI=1S/C5H11NO2/c1-2-3-4(6)5(7)8/h4H,2-3,6H2,1H3,(H,7,8)	InChI=1S/C5H11NO2/c1-2-3-4(6)5(7)8/h4H,2-3,6H2,1H3,(H,7,8)/t4-/m1/s1
