16
gdb 13001	2.74095	2.65785	1.58299	2.2454	65.58	-0.2288	0.0201	0.2488	824.5563	0.131353	-379.923505	-379.916209	-379.915264	-379.954504	28.319	
C	-0.0780280214	 1.5519381073	 0.0298757964	-0.499724
C	 0.125898175	 0.0650416853	 0.0040752303	 0.318666
O	-0.722768663	-0.7362698135	 0.8559998319	-0.290935
C	 0.6961686866	-0.7864377998	 1.0606586933	-0.031189
C	 1.3575469688	-1.964092991	 0.3608230626	-0.188307
N	 1.0713876405	-1.8168448851	-1.0732562118	-0.303065
C	 0.4513623264	-0.7105056768	-1.2540373012	 0.338257
N	 0.1465225555	-0.1963898882	-2.492317298	-0.575614
H	 0.7729184601	 2.0698475706	-0.4227986228	 0.137403
H	-0.9793901034	 1.8372126598	-0.5252079351	 0.12284
H	-0.2002417933	 1.8992023341	 1.0583936349	 0.137564
H	 1.0474508599	-0.3973634331	 2.0129898794	 0.096156
H	 2.4420346355	-1.9628195556	 0.532879799	 0.106432
H	 0.9725342885	-2.9237230635	 0.7253866226	 0.119249
H	 0.2665777631	-0.8553568202	-3.249409029	 0.258325
H	-0.7021779589	 0.3452497696	-2.5576184626	 0.253943
160.194	198.3008	251.4404	282.1954	305.2948	405.2265	439.7167	455.6722	565.3381	623.1575	674.7428	726.7093	782.7055	811.9715	871.5476	922.1648	962.5171	1000.1753	1034.2148	1078.6299	1108.4377	1172.7676	1204.7628	1212.7137	1290.9639	1325.5523	1407.2887	1418.7812	1443.7894	1475.6667	1483.9602	1494.9626	1626.7887	1715.722	3022.0173	3034.4873	3060.9561	3097.34	3129.5894	3147.3427	3560.471	3670.8818
CC12OC1CN=C2N	C[C@]12O[C@H]1CN=C2N	
InChI=1S/C5H8N2O/c1-5-3(8-5)2-7-4(5)6/h3H,2H2,1H3,(H2,6,7)	InChI=1S/C5H8N2O/c1-5-3(8-5)2-7-4(5)6/h3H,2H2,1H3,(H2,6,7)/t3-,5-/m0/s1
