14
gdb 27204	3.48724	1.64128	1.12244	1.7358	70.14	-0.1949	0.0009	0.1958	994.6766	0.104502	-432.894071	-432.886935	-432.885991	-432.926535	26.87	
N	 0.1996388955	 1.4112598723	-0.000804916	-0.613338
C	-0.0059291946	 0.0155304852	-0.0027089715	 0.111941
C	-1.10252941	-0.8294845281	-0.0302336135	 0.209354
N	-2.4990280446	-0.8580844028	-0.0856532388	-0.361317
C	-2.7659621946	-2.1188098395	-0.0785960118	 0.036788
O	-1.7023360269	-2.9967299405	-0.0250081527	-0.225654
C	-0.6232114064	-2.153986148	 0.0082713327	 0.295716
C	 0.7462007761	-2.1684535943	 0.0542425207	-0.248044
N	 1.087992224	-0.8243836565	 0.0505365067	-0.246271
H	-0.003039648	 1.8220652547	-0.9079378175	 0.248462
H	-0.4117253701	 1.8658020899	 0.669426066	 0.252054
H	-3.739719998	-2.5841657435	-0.109241485	 0.143576
H	 1.4881389934	-2.9461420487	 0.0846976124	 0.131847
H	 2.0261914041	-0.4655034001	 0.1102442085	 0.264886
29.4473	198.4025	251.96	280.4986	376.2052	517.5216	558.7043	611.9474	620.1519	630.7097	655.6612	707.7651	770.3303	823.7673	831.922	849.4661	923.5686	1059.7302	1075.7211	1096.7189	1187.4611	1222.9771	1289.1401	1313.8634	1320.6902	1440.9476	1467.6439	1560.2365	1586.7275	1652.8029	1677.8764	3267.9199	3288.2614	3491.2813	3560.4731	3672.7781
NC1=C2N=COC2=CN1	Nc1c2ncoc2c[nH]1	
InChI=1S/C5H5N3O/c6-5-4-3(1-7-5)9-2-8-4/h1-2,7H,6H2	InChI=1S/C5H5N3O/c6-5-4-3(1-7-5)9-2-8-4/h1-2,7H,6H2
