23
gdb 121985	2.44491	0.71957	0.58394	3.2844	84.42	-0.24	-0.0169	0.2232	1959.3306	0.201712	-425.439164	-425.427669	-425.426725	-425.47761	39.495	
C	-0.0022767964	 1.4895097522	 0.1391489137	-0.383421
C	-0.1043299929	-0.01549642	-0.119960023	-0.181848
C	 0.8518080985	-0.4833981475	-1.2092749409	-0.044379
O	 0.6963272939	-1.8812551829	-1.3731336715	-0.262354
C	 1.421044719	-2.4569832292	-2.4518475098	 0.125094
C	 2.9082335201	-2.6233543838	-2.1295806672	-0.401397
C	 0.7512798093	-3.8085178524	-2.7381700767	-0.281543
C	-0.6722403783	-3.6657151392	-3.2316009445	 0.151695
O	-1.1338830085	-4.277645444	-4.1617201755	-0.245297
H	 1.0066903659	 1.7727591069	 0.458766451	 0.117018
H	-0.2389467721	 2.0674936669	-0.7610040802	 0.117666
H	-0.6975484231	 1.8001056254	 0.9240720039	 0.119781
H	 0.1138586816	-0.574961638	 0.7969122498	 0.108099
H	-1.1258615432	-0.2832916158	-0.4133099283	 0.106804
H	 0.6357273153	 0.0352934441	-2.1590389851	 0.086447
H	 1.8874619892	-0.2303282971	-0.9321627222	 0.089354
H	 1.3190795598	-1.8087854963	-3.3395232706	 0.073758
H	 3.4351881584	-3.0782873065	-2.9739809417	 0.121115
H	 3.3818800912	-1.6598660057	-1.9225045401	 0.121258
H	 3.0359716615	-3.2657737609	-1.2524783187	 0.125151
H	 1.319277331	-4.3908881424	-3.4682653365	 0.11779
H	 0.7257885667	-4.3700982057	-1.7935467083	 0.130212
H	-1.2836337671	-2.9360995282	-2.6587523076	 0.088997
48.6378	50.1953	68.3913	91.9604	130.5312	152.9798	194.6122	230.039	239.556	308.1887	334.9734	394.7141	461.238	494.8329	538.5194	765.9404	790.5903	854.3285	902.5745	912.4448	940.2066	959.5638	1012.48	1050.2854	1104.7415	1114.553	1133.8014	1155.6361	1168.3105	1191.2936	1247.2534	1269.3309	1292.3777	1317.0753	1332.7782	1369.852	1380.2201	1405.4752	1413.9343	1417.6496	1441.1229	1445.2374	1488.962	1492.1971	1496.607	1500.9477	1507.5002	1528.6646	1829.824	2908.0622	2950.9262	2959.2858	2991.2298	3023.7666	3032.7695	3039.3057	3040.4652	3072.2832	3100.6971	3107.198	3109.9925	3115.3163	3117.0941
CCCOC(C)CC=O	CCCO[C@@H](C)CC=O	
InChI=1S/C7H14O2/c1-3-6-9-7(2)4-5-8/h5,7H,3-4,6H2,1-2H3	InChI=1S/C7H14O2/c1-3-6-9-7(2)4-5-8/h5,7H,3-4,6H2,1-2H3/t7-/m0/s1
