20
gdb 62989	2.16322	1.64356	1.30306	1.6505	79.1	-0.2346	-0.0261	0.2086	1084.7201	0.168725	-403.115796	-403.106661	-403.105716	-403.149815	34.417	
C	-0.2030217664	 1.5780535934	-0.0875655189	-0.431605
C	 0.0066594779	 0.0701898571	-0.049006145	 0.314781
C	-1.3237160786	-0.6615739981	-0.1947163239	-0.425541
C	 1.1250842324	-0.5914495122	-0.9354527667	-0.158374
C	 2.0195056123	 0.2031559839	-1.851849196	 0.135991
O	 1.7141657031	 1.2217939694	-2.4198072544	-0.253435
C	 1.7555723868	-1.0810031161	 0.3679256853	-0.052444
C	 2.0510276224	 0.0536059114	 1.2656573806	-0.251607
N	 0.6716630224	-0.4554771787	 1.218239453	-0.143345
H	 0.7248596435	 2.1461675598	-0.0088710501	 0.122051
H	-0.6767808944	 1.8724989746	-1.0271780308	 0.134115
H	-0.8576663802	 1.8682753372	 0.7414425377	 0.117958
H	-1.7716503957	-0.4552709255	-1.1723589242	 0.117016
H	-1.1874037838	-1.7422645904	-0.0925584367	 0.117048
H	-2.0208693899	-0.3370020284	 0.5838342647	 0.123836
H	 0.714412768	-1.4168164257	-1.5296569593	 0.107456
H	 3.035647434	-0.2410477851	-1.9799037094	 0.07843
H	 2.1148814863	-2.0874545129	 0.5552134843	 0.099514
H	 2.5438356419	-0.16890217	 2.2070046501	 0.126497
H	 2.2903104581	 1.0314537564	 0.8563581997	 0.12166
40.0179	140.9696	179.6503	195.5829	246.0784	269.2432	285.1537	363.8346	394.9487	458.2566	506.2515	610.2937	675.9494	707.1782	759.2962	782.9007	889.5778	936.9096	949.3626	980.5279	989.7761	1021.8089	1027.7746	1064.4645	1100.1168	1111.395	1133.7869	1166.7637	1183.2953	1228.7607	1247.6216	1275.7591	1325.183	1359.7374	1405.3577	1418.1202	1424.9953	1474.1204	1479.8183	1493.1363	1505.0384	1506.771	1819.5043	2845.6438	3034.2106	3041.0392	3046.1315	3109.5895	3111.4618	3115.5398	3120.7851	3137.0742	3162.8325	3202.4936
CC1(C)C(C=O)C2CN12	CC1(C)[C@@H](C=O)[C@H]2CN12	
InChI=1S/C7H11NO/c1-7(2)5(4-9)6-3-8(6)7/h4-6H,3H2,1-2H3	InChI=1S/C7H11NO/c1-7(2)5(4-9)6-3-8(6)7/h4-6H,3H2,1-2H3/t5-,6+,8?/m0/s1
