19
gdb 96977	4.16896	1.12637	0.9994	3.2192	79.41	-0.2133	0.0564	0.2697	1254.0376	0.159016	-419.209948	-419.20108	-419.200135	-419.243471	33.256	
C	-0.2102064132	 1.4349455558	 0.1133056468	-0.32504
N	-0.096951722	-0.0110726513	 0.0594668142	-0.364403
C	 0.6399059546	-0.6022994755	 0.8911123542	 0.475453
N	 0.8286150433	-1.9813100285	 0.9570417297	-0.406917
C	 1.9383556843	-2.306405767	 1.8134793006	 0.314469
C	 1.872100227	-3.6178166644	 2.5508181626	-0.465345
C	 3.262365966	-1.615316581	 1.4888437235	-0.368008
C	 2.2653118664	-0.9787186711	 2.4266332362	 0.048454
O	 1.3913033202	-0.0105843266	 1.8865726645	-0.251788
H	-0.2479994795	 1.8298814405	-0.9076533787	 0.114405
H	-1.1495046215	 1.7260123382	 0.6016919229	 0.117894
H	 0.6123247154	 1.9259060741	 0.64841431	 0.115594
H	 0.6884911217	-2.4771015715	 0.0894753785	 0.252804
H	 1.9758283813	-4.4636693138	 1.8615879998	 0.123832
H	 2.6808267537	-3.6914664446	 3.2835285307	 0.122153
H	 0.9156334838	-3.7187239018	 3.0724018672	 0.133766
H	 4.1620259466	-2.0212193825	 1.9397574388	 0.119668
H	 3.3946592338	-1.1739320265	 0.50668997	 0.127379
H	 2.4746728483	-0.8178179826	 3.4767023186	 0.115629
82.9011	99.1068	191.658	197.222	229.7443	257.6885	307.7839	399.0081	456.3537	501.9589	538.9545	631.8528	695.7965	724.4948	777.1119	833.6612	884.4774	897.3136	956.7688	987.6858	1026.152	1039.5048	1072.659	1101.3004	1122.9985	1134.1261	1139.6721	1164.6023	1241.6723	1284.2358	1331.7827	1378.0896	1409.7517	1426.1511	1445.9347	1472.9156	1486.6181	1495.7033	1501.7919	1502.6002	1815.0494	3004.5724	3033.1753	3057.4376	3078.756	3096.3949	3117.8028	3128.4004	3194.5464	3222.9775	3620.9433
CN=C1NC2(C)CC2O1	CN=C1N[C@@]2(C)C[C@H]2O1	
InChI=1S/C6H10N2O/c1-6-3-4(6)9-5(7-2)8-6/h4H,3H2,1-2H3,(H,7,8)	InChI=1S/C6H10N2O/c1-6-3-4(6)9-5(7-2)8-6/h4H,3H2,1-2H3,(H,7,8)/t4-,6+/m1/s1
