18
gdb 90864	3.72341	1.48095	1.25312	1.3588	77.77	-0.2236	-0.016	0.2075	1011.4926	0.148777	-401.851854	-401.844723	-401.843779	-401.882934	29.482	
O	 0.0607807483	 1.4587411675	 0.0202572633	-0.433616
C	 0.0621043398	 0.0475525219	-0.011810309	 0.088456
C	-1.435685863	-0.427066198	-0.0764669616	-0.151452
N	-1.5172396677	-1.8949226675	-0.0400896467	-0.089097
C	-1.4098399339	-2.8652429032	-1.1668846955	-0.029741
C	-0.5192069514	-2.5139705686	-2.4075764887	-0.298046
C	 0.4095269697	-1.8781789116	-1.3788618748	 0.121655
C	 0.6261956545	-0.5633205333	-1.267044128	-0.180361
C	-0.2736029449	-2.6205954495	-0.2301555438	-0.13303
H	 0.9713887437	 1.7570437877	 0.1077999759	 0.286428
H	 0.5009962495	-0.3775921612	 0.9030477921	 0.084659
H	-1.9770148515	-0.0365728877	 0.7918776858	 0.116169
H	-1.8953052692	-0.0034702409	-0.9761350912	 0.111209
H	-2.1409641196	-3.6670834858	-1.1564510287	 0.100808
H	-0.1711836535	-3.4568012888	-2.8442981169	 0.113249
H	-0.9194778426	-1.8666361067	-3.1931625945	 0.102441
H	 0.675153059	 0.0825511246	-2.1421033997	 0.097671
H	 0.1564332627	-3.229571689	 0.5568590723	 0.092598
160.8008	230.8922	257.8867	337.6358	390.46	431.7727	453.3318	515.0462	530.6534	653.5734	736.1464	792.8325	831.4681	844.0701	885.5962	909.4585	910.3331	924.1624	956.8148	1015.4954	1025.1696	1044.9748	1074.9628	1111.6932	1117.4646	1132.9613	1189.9425	1201.1992	1221.5508	1249.5949	1275.1873	1284.6489	1303.3393	1336.9444	1353.9667	1406.6732	1488.9385	1504.8206	1670.5127	2987.3341	3035.4843	3039.0038	3083.152	3093.155	3144.1837	3161.7205	3175.6468	3822.7523
OC1CN2C3CC(=C1)C23	O[C@H]1CN2[C@H]3C[C]([CH]1)[C@@H]23	
InChI=1S/C7H9NO/c9-5-1-4-2-6-7(4)8(6)3-5/h1,5-7,9H,2-3H2	InChI=1S/C7H9NO/c9-5-1-4-2-6-7(4)8(6)3-5/h1,5-7,9H,2-3H2/t5-,6+,7-,8?/m1/s1
