19
gdb 104278	3.17955	1.10725	0.99407	4.4146	71.96	-0.2427	-0.0288	0.214	1237.6096	0.156292	-460.139684	-460.129926	-460.128982	-460.174679	34.696	
C	-0.3145540461	 1.6286899076	 0.0608449536	-0.477705
C	-0.1109243725	 0.1180706054	 0.0476887825	 0.255005
C	-1.3841747053	-0.6249404053	-0.3469198207	-0.126557
O	-1.7386277736	-0.2114911854	-1.6566060825	-0.423849
C	 1.131713752	-0.4180909691	-0.7055394645	-0.099904
O	 1.5564337033	-1.1833169326	 0.4445354993	-0.270709
C	 0.5742604943	-0.5731031136	 1.2791850865	-0.014588
C	 1.1401747234	 0.3693779835	 2.3200227002	 0.142019
O	 2.2888255617	 0.7167794345	 2.3857494391	-0.239469
H	 0.6035162152	 2.1561889954	 0.3340413927	 0.133901
H	-0.6246263927	 1.9638378578	-0.9320604618	 0.144998
H	-1.0998267506	 1.9192867329	 0.7679670068	 0.115325
H	-1.1973694495	-1.709276498	-0.3082030195	 0.100094
H	-2.1831312122	-0.3957504008	 0.3780267717	 0.087817
H	-2.5168301355	-0.7036522839	-1.9332012648	 0.293666
H	 0.9293199182	-1.0497730387	-1.5760039891	 0.114241
H	 1.8684476988	 0.3491573082	-0.9711873655	 0.110435
H	-0.0569048789	-1.3119717452	 1.7994443104	 0.085505
H	 0.37252054	 0.7398219874	 3.0415888954	 0.069776
60.524	82.8676	124.7261	191.8903	229.3077	235.5797	252.377	272.0302	328.1293	353.2122	370.1107	512.3036	656.4919	762.7198	799.4552	872.6146	920.8633	938.4002	962.1364	991.5028	1016.0699	1036.1489	1082.689	1106.7995	1151.9399	1155.9651	1199.95	1213.0369	1249.3863	1286.658	1312.4348	1343.7369	1368.3347	1410.6441	1416.9863	1455.8025	1493.8888	1504.0941	1518.0671	1528.6477	1839.5704	2840.4278	2958.8344	2977.1332	3000.4232	3028.7807	3037.2884	3085.1131	3104.8511	3127.2798	3836.0158
CC1(CO)COC1C=O	C[C@@]1(CO)CO[C@H]1C=O	
InChI=1S/C6H10O3/c1-6(3-8)4-9-5(6)2-7/h2,5,8H,3-4H2,1H3	InChI=1S/C6H10O3/c1-6(3-8)4-9-5(6)2-7/h2,5,8H,3-4H2,1H3/t5-,6+/m0/s1
