14
gdb 49370	2.6162	1.45411	1.02848	5.0316	69.62	-0.2694	-0.0436	0.2257	1101.1268	0.099994	-432.866083	-432.8576	-432.856655	-432.900501	29.571	
N	-0.0039631986	 1.2262976285	-0.7116564165	-0.535749
C	 0.0207925945	 0.1087306034	-0.132564668	 0.391884
N	 0.9224220078	-0.6491133717	 0.6092839679	-0.316713
C	 0.0847843224	-1.8584443888	 0.6268058108	-0.133121
C	-0.0585056354	-2.4947549218	 1.9369088095	 0.319767
N	-0.0615956287	-3.0644512878	 2.9415755601	-0.320629
C	-1.0557346643	-0.9835505264	 0.0027932155	-0.216718
C	-2.2445248472	-0.5654437659	 0.8411584145	 0.145986
O	-2.5200175163	-1.0070847995	 1.9226605799	-0.213072
H	 0.8834944471	 1.7257206627	-0.6428353047	 0.225163
H	 1.9317092794	-0.6226559521	 0.5714044338	 0.258497
H	 0.4122928378	-2.6291902605	-0.0814171414	 0.138175
H	-1.4099527188	-1.3420127821	-0.9677305944	 0.139971
H	-2.8533139097	 0.2244363521	 0.352687343	 0.116558
28.8953	93.9732	141.7307	184.2613	226.578	282.9823	403.2225	436.5954	470.5382	544.3811	620.2752	691.1161	750.6849	833.6981	848.6172	871.2465	984.3167	1014.2526	1047.0415	1061.7755	1111.6111	1152.0212	1202.4396	1285.4782	1320.1452	1356.7439	1380.1049	1416.4698	1804.491	1843.7661	2364.4486	2916.76	3034.2863	3088.2001	3477.5939	3601.5303
N=C1NC(C#N)C1C=O	[NH][C]1N[C@@H](C#N)[C@H]1C=O	
InChI=1S/C5H5N3O/c6-1-4-3(2-9)5(7)8-4/h2-4H,(H2,7,8)	InChI=1S/C5H5N3O/c6-1-4-3(2-9)5(7)8-4/h2-4H,(H2,7,8)/t3-,4+/m1/s1
