16
gdb 126295	3.37165	1.13719	0.90828	5.8904	74.9	-0.2657	-0.0815	0.1842	1266.5471	0.123907	-437.900406	-437.89225	-437.891306	-437.933794	29.783	
C	 0.0404890869	 1.5530114492	 0.1669758009	-0.378172
C	 0.0024091727	 0.0315271354	-0.0672576789	-0.29778
C	-1.398320302	-0.5186829486	-0.0659223715	 0.309448
C	-2.0453945567	-0.9449892093	-1.1706144187	-0.349467
C	-3.4094554686	-1.4423845062	-1.1007429856	 0.457529
O	-4.0787810029	-1.8391856366	-2.0151477627	-0.330036
O	-3.9867580171	-1.4518957262	 0.1740893299	-0.259489
N	-3.336084004	-1.0303341901	 1.3144971305	-0.053005
C	-2.1311331577	-0.5958080268	 1.1775323685	-0.01359
H	 1.0739836603	 1.9096403325	 0.17707168	 0.131006
H	-0.4978293656	 2.0825180694	-0.6243464628	 0.134994
H	-0.4177640759	 1.8246439735	 1.122985772	 0.130113
H	 0.4816901559	-0.2090447094	-1.0209609153	 0.121888
H	 0.5829687574	-0.4701778036	 0.7170967994	 0.124397
H	-1.5934229921	-0.9411508601	-2.1561296191	 0.134475
H	-1.6713156508	-0.2818473631	 2.1104764632	 0.137691
58.9253	126.3788	148.7843	204.1353	269.8612	321.6594	421.5281	470.3787	514.3831	573.9076	677.7335	717.4759	742.5975	793.5567	857.201	913.5913	930.38	933.8583	979.75	1016.0083	1072.0977	1095.0685	1172.6741	1211.1326	1270.9091	1339.2324	1349.1817	1389.7543	1413.9941	1484.3129	1497.5051	1506.7726	1603.2702	1689.8697	1844.5923	3032.5402	3043.5665	3083.1189	3116.6627	3122.6053	3176.2869	3201.713
CCC1=CC(=O)ON=C1	CCc1cc(=O)onc1	
InChI=1S/C6H7NO2/c1-2-5-3-6(8)9-7-4-5/h3-4H,2H2,1H3	InChI=1S/C6H7NO2/c1-2-5-3-6(8)9-7-4-5/h3-4H,2H2,1H3
