23
gdb 40285	2.47087	1.48748	1.13545	1.2398	85.08	-0.2419	0.0742	0.3161	1185.7838	0.208274	-388.282752	-388.274217	-388.273272	-388.315864	33.867	
C	-0.0964425882	 1.5601023293	-0.0420551621	-0.326072
C	 1.2724650924	 0.9262264575	-0.0316086694	-0.29389
C	 0.0415930702	 0.0546104292	 0.0192700474	 0.377858
C	-0.3165429935	-0.6489743028	 1.3206343305	-0.296549
C	 0.6280057271	-1.7914121172	 1.7563645518	-0.190348
C	 1.186409792	-2.6949099605	 0.6355509782	-0.194298
C	 0.2915948699	-2.9071343594	-0.5921452871	-0.068579
O	 0.3970765095	-1.8544930188	-1.5361476499	-0.242114
C	-0.3535884319	-0.6919457791	-1.2459466781	-0.150659
H	-0.4310656722	 2.076119083	 0.8517323456	 0.108601
H	-0.4455925348	 2.0084541765	-0.9667120271	 0.109386
H	 1.8532773804	 0.9386451221	-0.9478720669	 0.116228
H	 1.8685223776	 1.0192109458	 0.8704298243	 0.108874
H	-0.360324743	 0.0837812728	 2.134685393	 0.091376
H	-1.3384602693	-1.0384843532	 1.220765748	 0.095502
H	 1.4786252482	-1.3661350578	 2.3014302729	 0.097658
H	 0.0878603668	-2.4055678907	 2.4869688382	 0.094247
H	 2.1260836323	-2.2810308163	 0.2537487343	 0.11202
H	 1.4330646933	-3.6739966387	 1.063895307	 0.089806
H	 0.6212902718	-3.8041111208	-1.1270952265	 0.102086
H	-0.7614209773	-3.0663279312	-0.304471911	 0.081708
H	-1.4271275399	-0.9455886998	-1.1848524488	 0.081509
H	-0.2163981413	-0.04306542	-2.1172092443	 0.095648
67.932	133.9977	172.3758	268.649	298.6153	330.9302	360.8174	407.4537	426.8308	540.2953	554.5129	711.4767	776.427	784.1582	803.424	867.3861	921.91	927.8951	950.9757	960.8146	976.8773	992.6825	1021.183	1044.3515	1062.0121	1081.9471	1106.4963	1114.9783	1142.003	1187.9838	1212.6563	1224.9745	1270.6977	1297.2796	1319.5172	1336.2449	1369.1762	1369.9475	1382.8463	1394.06	1411.4918	1426.3124	1472.7484	1475.3924	1481.1812	1485.7246	1495.8137	1502.9962	1513.3111	2944.5399	2965.9375	3013.7003	3022.4485	3034.5988	3046.7194	3061.0564	3066.0552	3070.4883	3080.776	3125.4906	3130.7228	3202.4996	3216.9418
C1CC11CCCCOC1	C1CC21CCCCOC2	
InChI=1S/C8H14O/c1-2-6-9-7-8(3-1)4-5-8/h1-7H2	InChI=1S/C8H14O/c1-2-6-9-7-8(3-1)4-5-8/h1-7H2
