15
gdb 16979	4.10917	2.3593	2.20287	1.5719	65.27	-0.2236	-0.0097	0.2139	684.5857	0.120032	-362.49713	-362.491491	-362.490546	-362.526378	23.918	
C	 0.0211474458	 1.5583833581	-0.1179288363	-0.187816
O	 1.4918928311	 1.504663992	 0.10422296	-0.309301
C	 1.226890345	 0.3218867125	 0.9322084931	 0.151344
C	 1.3073942899	-1.2756688225	 0.9123951977	-0.135065
N	-0.2319780342	-1.1030903411	 1.1258829187	-0.384073
C	 0.0146647357	 0.0231698858	 0.1175117035	 0.189292
C	 0.5897327422	-0.7150285131	-1.1092469208	-0.105081
C	 1.4371654689	-1.5915210451	-0.5704898466	-0.069709
H	-0.4658265916	 2.1642799053	 0.6527636566	 0.120953
H	-0.2118050594	 1.9233315787	-1.1220539107	 0.117124
H	 1.0462636154	 0.65781282	 1.9566858507	 0.104643
H	 1.8350966099	-1.8663951569	 1.661615629	 0.080158
H	-0.7250597857	-1.8863692566	 0.6909435846	 0.209437
H	 0.3402095305	-0.5078902203	-2.1401056838	 0.104993
H	 2.0929083565	-2.3208935869	-1.0223320657	 0.113102
283.4398	302.7483	385.1385	501.9754	547.9503	598.135	680.1387	714.4034	742.7158	805.4897	827.266	832.344	871.4688	902.4778	911.6197	931.4959	974.6064	1003.5389	1044.6697	1090.02	1097.1822	1132.0008	1153.8126	1209.2772	1240.0368	1249.9563	1276.6477	1300.7016	1317.8841	1383.5102	1497.0152	1623.3134	3042.4093	3074.2975	3112.5962	3120.3023	3226.2843	3255.2123	3423.9205
C1OC2C3NC12C=C3	C1O[C@@H]2[C@H]3N[C@@]12C=C3	
InChI=1S/C6H7NO/c1-2-6-3-8-5(6)4(1)7-6/h1-2,4-5,7H,3H2	InChI=1S/C6H7NO/c1-2-6-3-8-5(6)4(1)7-6/h1-2,4-5,7H,3H2/t4-,5+,6-/m0/s1
