20
gdb 109021	3.34239	1.17608	1.05758	1.4543	79.96	-0.2343	0.0245	0.2588	1252.1673	0.170605	-403.167409	-403.158543	-403.157599	-403.201106	33.504	
C	 0.5268540263	 0.6689761813	 0.6664710657	-0.380683
C	-0.3336610236	 0.4379931196	-0.5870675673	-0.27616
C	 0.4380133471	-0.1686003022	-1.7116125879	 0.385239
N	 0.7353055343	 0.3814096771	-2.8248228457	-0.307176
C	 1.5358122997	-0.5767580961	-3.5470418777	-0.065743
C	 2.849121534	-0.9752297659	-2.8939492913	-0.350228
C	 1.6209911302	-1.8110710104	-2.6630999389	 0.398466
C	 1.4896285602	-3.2574098852	-3.0338903205	-0.474305
O	 0.871077676	-1.4504178469	-1.503132144	-0.280224
H	 0.9532863703	-0.2713969635	 1.0254578896	 0.133873
H	 1.3499878448	 1.357484244	 0.4523937845	 0.127505
H	-0.0769229452	 1.1008081914	 1.4694416989	 0.118884
H	-1.1670709752	-0.2301017082	-0.339102828	 0.120072
H	-0.7519799313	 1.3792974981	-0.9497437105	 0.131464
H	 1.4369736637	-0.5891858816	-4.6263018943	 0.097822
H	 3.6049732051	-1.405449039	-3.5423436451	 0.116357
H	 3.2272045843	-0.3546501924	-2.0880145403	 0.119361
H	 2.0178134113	-3.4530648898	-3.9711019852	 0.125044
H	 1.9208971282	-3.9043048908	-2.262437861	 0.130969
H	 0.4386870697	-3.5331844894	-3.1652537711	 0.129462
58.6352	116.864	189.706	199.4326	224.4408	260.9053	346.1343	391.2377	423.4091	479.8966	596.2969	662.8064	728.2057	762.339	792.7276	821.1223	872.9785	931.7048	954.8564	957.9762	990.6471	1032.0958	1042.9526	1063.3408	1086.4722	1106.828	1118.8994	1147.0463	1216.4412	1265.867	1280.1609	1321.5501	1362.207	1388.2775	1408.8714	1425.466	1470.7088	1474.1462	1478.4656	1496.9949	1500.815	1509.0571	1703.6027	3036.4689	3042.3358	3045.346	3101.3443	3108.0131	3117.1571	3119.1435	3126.9795	3130.5752	3176.4139	3220.4057
CCC1=NC2CC2(C)O1	CCC1=N[C@H]2C[C@@]2(C)O1	
InChI=1S/C7H11NO/c1-3-6-8-5-4-7(5,2)9-6/h5H,3-4H2,1-2H3	InChI=1S/C7H11NO/c1-3-6-8-5-4-7(5,2)9-6/h5H,3-4H2,1-2H3/t5-,7+/m0/s1
