19
gdb 72512	2.76171	1.77482	1.74699	1.1708	79.06	-0.2262	-0.0034	0.2227	925.1715	0.160598	-385.894397	-385.887178	-385.886234	-385.925222	30.633	
C	-0.0011436589	 1.5069954445	-0.0254300728	-0.4897
C	-0.0319638592	-0.0049433715	 0.0694492229	 0.334095
O	 0.6529244442	-0.5099801635	-1.1386664871	-0.299238
C	 0.7031717644	-1.9212974305	-1.1910381094	-0.051754
C	-0.0018390736	-2.5248390422	 0.0822311316	-0.158103
C	 0.760283892	-1.918182252	 1.2448032755	-0.088622
C	 0.7341385011	-0.5872854679	 1.2465528818	-0.085192
C	-1.404557194	-1.9502199914	 0.0309540391	-0.088623
C	-1.4223827485	-0.6191996721	 0.0373427175	-0.085189
H	 1.0302651898	 1.8675278186	-0.0616724987	 0.125692
H	-0.5160637825	 1.844633936	-0.9287345799	 0.125692
H	-0.4959958035	 1.9485346796	 0.8454367037	 0.11805
H	 0.1931082212	-2.2718410696	-2.0976389792	 0.095093
H	 1.7503563029	-2.2488004004	-1.2244635196	 0.095093
H	 0.0263570852	-3.614534881	 0.0607092535	 0.067311
H	 1.3180206231	-2.534916971	 1.9394842193	 0.097048
H	 1.2497389348	 0.0553119972	 1.9509513535	 0.095649
H	-2.2740448351	-2.5880752998	-0.0746171542	 0.097048
H	-2.3065420233	 0.0026828971	-0.0431368276	 0.095649
217.5658	247.3189	287.4	289.734	404.9085	408.0078	476.8535	497.6667	557.7877	651.8894	696.3517	698.8477	713.4868	728.8203	831.9228	835.9918	916.2964	921.4333	937.5238	951.2265	965.904	971.8561	1023.3475	1073.5006	1106.6505	1120.2812	1144.7335	1210.9204	1223.3085	1245.4676	1250.8988	1310.3985	1345.9699	1362.063	1393.0243	1409.483	1483.1239	1496.2161	1518.8252	1645.4844	1696.4668	3003.8138	3042.9033	3043.6332	3109.2624	3116.9116	3124.788	3182.9366	3184.2711	3206.9133	3209.9081
CC12OCC(C=C1)C=C2	C[C@@]12OC[C@@H](C=C1)C=C2	
InChI=1S/C8H10O/c1-8-4-2-7(3-5-8)6-9-8/h2-5,7H,6H2,1H3	InChI=1S/C8H10O/c1-8-4-2-7(3-5-8)6-9-8/h2-5,7H,6H2,1H3/t7-,8+
