21
gdb 103279	3.83907	0.98758	0.94229	2.122	79.07	-0.2325	0.0672	0.2997	1350.0303	0.180498	-424.182688	-424.173046	-424.172102	-424.216851	36.199	
C	 0.1259166722	 1.4604445	-0.0896049989	-0.398497
C	 0.0497865685	-0.0435525152	 0.0791883642	 0.115173
O	 1.0096185278	-0.7208159079	-0.7922046321	-0.306371
C	 1.7424885645	-1.1768844152	 0.3460508731	 0.063529
C	 0.7399015342	-0.6019758559	 1.3235720536	-0.191904
C	 0.937539168	-2.1095590384	 1.206013684	 0.275791
C	-0.1068187847	-3.0347432855	 0.6175452143	-0.489299
C	 1.7180653379	-2.6746087707	 2.384344998	-0.134641
O	 2.5016030162	-3.8129976325	 2.0580659203	-0.418889
H	 1.1374156278	 1.8237370352	 0.1144147565	 0.123904
H	-0.143761165	 1.7394937533	-1.1124970414	 0.127657
H	-0.5696080714	 1.9557590556	 0.5973039376	 0.114244
H	-0.9694719626	-0.4026814707	-0.1119717718	 0.078283
H	 2.8255489982	-1.1618053491	 0.292154837	 0.107186
H	 0.8835010168	-0.0580009737	 2.2495454352	 0.090636
H	-0.4951952165	-2.6457361929	-0.325317414	 0.144481
H	 0.3304751297	-4.0150843208	 0.3945861188	 0.106161
H	-0.9452631983	-3.1862754925	 1.307306842	 0.11199
H	 2.42863589	-1.9255480368	 2.7513324363	 0.104977
H	 1.0249206454	-2.8946223868	 3.2122384911	 0.08998
H	 1.9048619012	-4.5477640396	 1.8886937861	 0.285609
75.9082	135.0131	166.1721	200.9104	211.8469	242.7604	274.9483	318.3343	323.4874	346.0123	415.3692	535.9246	600.287	706.198	778.3631	823.8898	856.5823	900.4359	922.5307	962.153	963.8777	1011.9705	1033.2332	1040.5272	1068.2723	1083.7779	1106.3704	1122.6919	1126.9125	1174.3132	1216.4892	1236.8842	1298.2499	1318.0269	1379.04	1380.6749	1404.6723	1407.3844	1413.4201	1430.2689	1484.7149	1486.4274	1491.7904	1497.4331	1512.6867	2974.4401	3021.7063	3026.6806	3034.6425	3063.6428	3080.0795	3105.856	3119.3266	3131.5498	3169.755	3183.1397	3831.6084
CC1OC2C1C2(C)CO	C[C@H]1O[C@H]2[C@@H]1[C@]2(C)CO	
InChI=1S/C7H12O2/c1-4-5-6(9-4)7(5,2)3-8/h4-6,8H,3H2,1-2H3	InChI=1S/C7H12O2/c1-4-5-6(9-4)7(5,2)3-8/h4-6,8H,3H2,1-2H3/t4-,5-,6+,7+/m1/s1
