16
gdb 13349	6.11509	1.08799	0.97454	2.4204	61.57	-0.2518	-0.0252	0.2266	1143.5164	0.129827	-420.878894	-420.870913	-420.869968	-420.913276	26.97	
O	-0.5771589367	 0.706822646	 0.7907109593	-0.238128
C	 0.0892852516	 0.9586616505	-0.1802677015	 0.156314
C	 1.3480563079	 1.8031636739	-0.1545917095	-0.297388
C	 1.2890002249	 2.9652225504	-1.1494454965	 0.106758
C	 2.5722863847	 3.8121834489	-1.2214205011	-0.125715
O	 2.6201121236	 4.2017117099	-2.583619366	-0.230869
C	 2.1436925788	 3.0868689487	-3.288910461	 0.027377
O	 1.145983305	 2.4740266939	-2.4865319834	-0.277184
H	-0.184432635	 0.576587073	-1.1866773588	 0.098844
H	 1.4990698732	 2.1721231207	 0.8647639921	 0.123107
H	 2.1951316379	 1.1589068486	-0.4275228911	 0.12217
H	 0.4259094052	 3.6055408741	-0.9210253778	 0.097264
H	 2.5440870205	 4.7104840671	-0.6024607476	 0.127962
H	 3.4540313016	 3.2101645111	-0.9484783672	 0.097411
H	 1.7082013675	 3.4266509714	-4.2338572488	 0.122716
H	 2.9547771793	 2.3628730717	-3.483625331	 0.08936
31.1111	63.6051	77.2152	185.2929	254.4791	350.573	413.3798	503.7817	651.6386	741.7942	830.3187	852.0482	956.0754	974.5855	990.8378	1024.8634	1098.072	1100.3139	1120.4132	1136.1825	1175.682	1205.2297	1232.6534	1268.1597	1283.7475	1344.195	1366.969	1395.0595	1421.5662	1436.1602	1449.4015	1507.6337	1547.5086	1832.2948	2913.1671	2944.7252	2978.3375	3008.2712	3025.7315	3076.5976	3098.153	3119.6265
O=CCC1COCO1	O=CC[C@H]1COCO1	
InChI=1S/C5H8O3/c6-2-1-5-3-7-4-8-5/h2,5H,1,3-4H2	InChI=1S/C5H8O3/c6-2-1-5-3-7-4-8-5/h2,5H,1,3-4H2/t5-/m0/s1
