20
gdb 99114	3.7402	0.9365	0.89835	2.2047	77.02	-0.2482	0.0649	0.3131	1419.3764	0.168819	-440.319313	-440.309089	-440.308145	-440.355158	36.466	
C	-3.2067253889	-2.5313996286	-0.3119403386	-0.329158
N	-1.7850609953	-2.2740030524	-0.3743709354	-0.353013
C	-0.9915696933	-2.797085184	-1.3471000038	 0.501272
O	-1.3532606588	-3.5332604475	-2.2375769626	-0.413265
O	 0.2885306972	-2.3596665007	-1.157940699	-0.323245
C	 1.2618245915	-2.8072875333	-2.0952482808	 0.47224
C	 1.1637805216	-2.1372543595	-3.4435089526	-0.462302
C	 2.5917731034	-3.0840923831	-1.4579260282	-0.32226
C	 1.7252646412	-4.2257260193	-1.952689264	-0.294915
H	-3.7899480512	-1.6106610666	-0.4307244627	 0.124383
H	-3.4518317829	-3.211189987	-1.1288148466	 0.169908
H	-3.4876953202	-3.002042947	 0.6371193835	 0.124529
H	-1.3489463504	-1.6637380393	 0.2958054696	 0.251887
H	 1.2169973632	-1.0484815825	-3.336270037	 0.116978
H	 1.9900148676	-2.4560342922	-4.0854189625	 0.114729
H	 0.2231821065	-2.4004624886	-3.9325983353	 0.14961
H	 3.4859694027	-2.8236811077	-2.0134391476	 0.112718
H	 2.6631957492	-2.9394685352	-0.3861295178	 0.118824
H	 1.2296010366	-4.8385630913	-1.2096629196	 0.12299
H	 2.0173109903	-4.7565571543	-2.851874649	 0.11809
56.9636	74.2709	86.9105	134.6161	152.5248	226.5594	276.8519	308.3339	334.4775	400.6173	444.4792	464.2584	475.5035	715.5634	742.9262	765.1525	780.0916	871.516	903.3397	939.9588	961.7635	989.7235	1039.9104	1068.7073	1075.7648	1139.6728	1159.2901	1161.1424	1175.5279	1185.3651	1237.5357	1286.0626	1354.4632	1413.6199	1446.1013	1456.9908	1480.7869	1496.0463	1498.4847	1499.4982	1513.9057	1564.5881	1817.4686	3023.2956	3039.4551	3072.4724	3107.4147	3130.968	3137.6056	3143.8966	3152.3582	3221.6979	3236.0819	3660.2798
CNC(=O)OC1(C)CC1	CNC(=O)OC1(C)CC1	
InChI=1S/C6H11NO2/c1-6(3-4-6)9-5(8)7-2/h3-4H2,1-2H3,(H,7,8)	InChI=1S/C6H11NO2/c1-6(3-4-6)9-5(8)7-2/h3-4H2,1-2H3,(H,7,8)
