20
gdb 68853	2.4046	1.84651	1.41551	1.6706	78.06	-0.2161	0.0753	0.2914	1005.5873	0.171215	-403.117921	-403.109746	-403.108802	-403.149864	33.191	
C	-0.0155894766	 1.5185128497	-0.0566098832	-0.470736
C	-0.0074715266	 0.016678012	 0.0342774674	 0.299398
C	 1.2695388721	-0.7653961593	-0.1824899463	-0.403018
C	 0.6056418522	-0.7562537052	 1.1810811733	 0.353548
O	 1.2067999932	-0.0743880653	 2.2400949796	-0.473233
C	-0.2935940863	-1.9537118619	 1.489306714	-0.321063
C	-1.4162179009	-1.8305596262	 0.4577678186	-0.004812
C	-2.2916737648	-0.6353088337	 0.5484357844	-0.254948
N	-1.202879586	-0.6722818939	-0.4439335076	-0.128714
H	 0.8729738766	 1.9306052346	 0.4273123698	 0.128056
H	-0.0335674163	 1.8449299731	-1.1012753359	 0.123819
H	-0.8949022816	 1.9379266777	 0.4436977091	 0.11715
H	 1.2331231004	-1.6696463573	-0.7825303426	 0.111537
H	 2.1781434786	-0.1803229118	-0.2811894027	 0.1103
H	 2.0207315586	-0.5343340253	 2.4727336031	 0.282945
H	 0.2328902175	-2.9102714381	 1.3893973424	 0.096557
H	-0.6625908233	-1.8844403142	 2.5179307233	 0.111135
H	-1.7891230519	-2.733182206	-0.0160981109	 0.089862
H	-3.2938329896	-0.6537739101	 0.1310687029	 0.114171
H	-2.1676060854	 0.006601361	 1.4184993813	 0.118046
157.9006	196.9696	214.7123	233.6945	297.9487	359.373	392.7363	435.3163	457.3704	493.6228	559.5329	652.015	702.1715	756.0608	782.2209	838.4133	903.7292	912.6584	939.1577	946.9515	966.5333	1011.2029	1035.9292	1063.3602	1083.7126	1110.7405	1121.1642	1154.9352	1164.8888	1177.2469	1232.9893	1260.6285	1283.448	1306.785	1337.7883	1377.6511	1400.7904	1420.0368	1477.4711	1484.6343	1496.9254	1502.9204	1508.2108	3029.4006	3038.1024	3073.3969	3098.5894	3101.9818	3120.3485	3127.1851	3154.689	3192.5143	3213.8703	3792.1063
CC12CC1(O)CC1CN21	C[C@@]12C[C@]1(O)C[C@H]1CN21	
InChI=1S/C7H11NO/c1-6-4-7(6,9)2-5-3-8(5)6/h5,9H,2-4H2,1H3	InChI=1S/C7H11NO/c1-6-4-7(6,9)2-5-3-8(5)6/h5,9H,2-4H2,1H3/t5-,6+,7+,8?/m0/s1
