19
gdb 57439	2.67133	1.2008	1.04241	1.2665	78.04	-0.2587	0.0181	0.2768	1231.2936	0.154659	-422.966664	-422.956555	-422.95561	-423.001606	37.749	
C	 0.3559168716	 1.5893615875	-0.0985464768	-0.424945
C	-0.129388659	 0.1369723388	 0.0307318652	 0.293554
C	 0.38328666	-0.4852702036	 1.3262825649	-0.413337
O	-1.5585068263	 0.0936856511	 0.099632814	-0.451584
C	 0.2963356438	-0.6059512877	-1.237412693	 0.059458
O	 1.6453528245	-1.0373083865	-1.3773794218	-0.249049
C	 0.6091276832	-2.0406741494	-1.42019633	-0.158838
C	 0.5909220666	-3.0669424723	-0.4144634153	 0.326291
C	 0.5720395526	-4.0044449077	 0.3378460219	-0.409018
H	 1.4486478527	 1.6344025154	-0.1311192388	 0.136938
H	-0.0239373506	 2.0518875804	-1.0181788647	 0.101864
H	 0.0030909522	 2.1767492627	 0.7534955564	 0.124565
H	 0.1878743165	 0.1965082867	 2.1583400202	 0.111016
H	-0.1257272606	-1.4281592053	 1.5244702191	 0.141252
H	 1.4573555871	-0.6717027479	 1.2625305039	 0.131985
H	-1.9108975368	 0.6583087813	-0.597128911	 0.277217
H	-0.0964432666	-0.118934284	-2.137437338	 0.080864
H	 0.4404292726	-2.4308321514	-2.4254924309	 0.118709
H	 0.5522861266	-4.811537228	 1.0280891346	 0.203058
34.0728	130.3848	175.0592	226.1492	232.8472	248.7524	270.0558	284.6873	324.9808	361.1239	422.3037	453.5914	501.9407	554.5212	621.0863	645.1013	673.8273	726.2493	829.6459	852.3383	933.2546	943.3128	995.3158	1006.3128	1016.5333	1094.3248	1137.5429	1160.5633	1211.6767	1234.0973	1296.0974	1371.3892	1392.9131	1402.4333	1417.8113	1458.5347	1481.3159	1487.8337	1499.7468	1511.1317	2238.5653	3023.3789	3037.8451	3059.7958	3091.6845	3095.4765	3122.4144	3133.0187	3161.6832	3501.6399	3800.9894
CC(C)(O)C1OC1C#C	CC(C)(O)[C@H]1O[C@H]1C#C	
InChI=1S/C7H10O2/c1-4-5-6(9-5)7(2,3)8/h1,5-6,8H,2-3H3	InChI=1S/C7H10O2/c1-4-5-6(9-5)7(2,3)8/h1,5-6,8H,2-3H3/t5-,6-/m0/s1
