20
gdb 81510	3.12636	1.41499	1.10788	0.8091	87.19	-0.2063	0.0401	0.2463	1144.6526	0.168515	-365.885794	-365.876606	-365.875662	-365.91974	35.418	
C	 0.2664068393	 1.527248459	 0.0914981327	-0.335363
N	 0.1772884111	 0.0684784358	-0.0116801476	-0.102664
C	-0.961721718	-0.7628507786	 0.5349285202	-0.075463
C	-0.0191498009	-1.9735683491	 0.2989048742	-0.220172
C	 0.8002310366	-0.8566307756	 1.0017911375	-0.076603
C	-0.4110687882	-0.6813843582	 2.0217693967	 0.166802
C	-0.6170892267	 0.5887983355	 2.8617603155	-0.483877
C	-0.6698607702	-1.8205636551	 2.8985543401	 0.266507
C	-0.88703339	-2.712304072	 3.6776392929	-0.45048
H	 0.8240531769	 1.8896897891	 0.962442202	 0.116505
H	 0.7814402065	 1.9023922474	-0.8010698173	 0.115286
H	-0.728120567	 1.9869144627	 0.1062879676	 0.121547
H	-1.9926443598	-0.623991402	 0.2017051003	 0.081888
H	-0.2180361841	-2.884822765	 0.857408184	 0.120086
H	 0.2502359321	-2.1374764016	-0.7425179562	 0.103341
H	 1.8676063101	-0.8359263501	 1.232741486	 0.083207
H	-0.6779002109	 1.5003523001	 2.2759226039	 0.123419
H	-1.5489908526	 0.4929176452	 3.4266108494	 0.129341
H	 0.1918913338	 0.6967497853	 3.5918526137	 0.126516
H	-1.0764392281	-3.513380123	 4.3485356943	 0.190175
39.8429	123.4779	171.1194	195.0904	249.1951	291.9171	348.089	358.81	490.6694	506.6402	538.6479	594.655	624.7449	628.8433	678.3734	735.8343	750.0119	790.9909	882.2026	892.096	920.9927	1021.2467	1026.6195	1063.8704	1076.7087	1121.2581	1126.646	1159.2421	1166.3238	1176.882	1181.9794	1203.1144	1241.954	1253.0439	1278.697	1412.5066	1441.5515	1483.7244	1487.5074	1491.0424	1503.4888	1532.4053	2216.1337	3008.4266	3050.4197	3056.9251	3086.1775	3088.7758	3091.5852	3104.3563	3113.8197	3192.1229	3197.689	3500.8493
CN1C2CC1C2(C)C#C	CN1[C@H]2C[C@@H]1[C@]2(C)C#C	
InChI=1S/C8H11N/c1-4-8(2)6-5-7(8)9(6)3/h1,6-7H,5H2,2-3H3	InChI=1S/C8H11N/c1-4-8(2)6-5-7(8)9(6)3/h1,6-7H,5H2,2-3H3/t6-,7+,8+
