14
gdb 17042	4.02592	1.7278	1.41123	2.3569	58.02	-0.256	-0.0455	0.2105	855.0534	0.105946	-419.600921	-419.594082	-419.593138	-419.632339	25.505	
O	-0.0455260791	 1.3265478812	-0.3517933962	-0.439118
C	 0.0007217897	-0.0438607578	-0.174975815	 0.184561
C	 0.1010856561	-0.5819433175	 1.2846726319	-0.026425
O	-1.2746737544	-0.076855599	 1.5113389168	-0.338034
C	-1.3242208132	-0.7824124473	 0.1909405904	-0.011766
C	-0.5297119807	-1.9411606707	 0.8311920052	-0.077888
C	 0.2493720896	-2.9432345126	 0.0242480181	 0.122456
O	 0.3877040649	-2.9197687546	-1.1739744026	-0.245182
H	-0.6276302801	 1.6577108534	 0.3478255562	 0.289623
H	 0.6317263005	-0.4876744292	-0.9422156841	 0.123914
H	 0.8377370133	-0.4004736367	 2.0677332374	 0.108208
H	-2.2835104173	-0.8119331611	-0.3244318676	 0.110964
H	-1.0531045457	-2.4166252272	 1.6643338785	 0.110033
H	 0.7117963163	-3.7518646911	 0.6344519309	 0.088655
71.6557	173.0025	230.5861	304.7959	369.4328	452.3634	589.64	640.175	708.9639	746.9307	786.9642	838.5899	861.226	896.9152	934.9585	1005.9986	1014.4325	1086.2965	1113.7828	1130.8004	1159.9263	1178.031	1196.1528	1240.6035	1257.1478	1322.5541	1365.1874	1427.4177	1463.1787	1817.5556	2876.2016	3093.7324	3121.1349	3133.9032	3157.5021	3737.3265
OC1C2OC1C2C=O	O[C@H]1[C@H]2O[C@@H]1[C@H]2C=O	
InChI=1S/C5H6O3/c6-1-2-4-3(7)5(2)8-4/h1-5,7H	InChI=1S/C5H6O3/c6-1-2-4-3(7)5(2)8-4/h1-5,7H/t2-,3-,4-,5+
