16
gdb 66896	2.36952	2.05699	1.52672	4.2672	72.85	-0.2362	-0.0274	0.2088	917.4525	0.124703	-400.734662	-400.727512	-400.726568	-400.76598	28.347	
C	-0.1668082883	 1.488791327	-0.0411762431	-0.510589
C	 0.1302006457	 0.0280259855	 0.042804982	 0.332765
C	 0.850175608	-0.8505730178	-0.8869438134	-0.10152
C	 1.7335071099	-1.7694849682	-0.1083464815	-0.084848
C	 1.3513457759	-1.7574708147	 1.1724967274	-0.092756
C	 0.1203910586	-0.8882524767	 1.3060736211	-0.281906
C	-0.9798841603	-1.6224943419	 0.4986205469	 0.437418
O	-1.9139845998	-2.3011599403	 0.7951410938	-0.316735
N	-0.6782719099	-1.0202063168	-0.774560933	-0.24973
H	 0.6532765456	 2.0751138179	 0.3870253631	 0.135988
H	-0.3013561439	 1.7886658242	-1.0838636961	 0.144101
H	-1.0829435142	 1.7349454154	 0.5051661811	 0.140402
H	 1.1027188681	-0.5269233195	-1.8901240547	 0.111552
H	 2.5197528581	-2.3619173307	-0.5556328547	 0.114951
H	 1.7321238739	-2.3722987253	 1.9770119326	 0.122308
H	-0.1434457473	-0.5035190082	 2.2888309386	 0.0986
124.8909	192.6484	232.8148	286.7107	373.1204	468.1865	507.9432	579.6619	612.9857	664.1558	690.665	737.9664	809.432	830.4696	837.7688	924.8259	944.4172	949.069	963.265	994.0752	1022.4068	1097.4406	1102.3964	1135.5601	1140.2113	1218.7086	1242.6515	1294.3859	1348.5418	1405.7894	1440.5757	1481.2508	1489.3778	1641.573	1898.3406	3036.9944	3102.3365	3121.7783	3146.9358	3185.553	3218.0495	3242.1442
CC12C3C=CC1C(=O)N23	C[C@@]12[C@H]3C=C[C@@H]1C(=O)N23	
InChI=1S/C7H7NO/c1-7-4-2-3-5(7)8(7)6(4)9/h2-5H,1H3	InChI=1S/C7H7NO/c1-7-4-2-3-5(7)8(7)6(4)9/h2-5H,1H3/t4-,5-,7+,8?/m1/s1
