19
gdb 98977	2.97397	0.8462	0.79434	2.2454	73.82	-0.2495	-0.0404	0.2091	1538.9073	0.154929	-460.193384	-460.18264	-460.181696	-460.230887	36.625	
C	-0.4302654714	 1.3681937545	-0.1960135311	-0.379707
C	-0.4023188292	-0.0445989302	 0.3789441047	-0.283297
C	-1.0263859625	-1.0870638527	-0.5264686106	 0.380039
O	-1.4323266533	-0.8493906155	-1.6404519257	-0.301934
C	-1.1852445503	-2.4895098427	 0.081039816	-0.395701
C	-2.5746638262	-2.5480375784	 0.7293575555	 0.37647
O	-2.7741008352	-2.1471224929	 1.847250166	-0.281617
C	-3.662558489	-3.0879921417	-0.1832374187	-0.177172
O	-4.9132205007	-2.9707883223	 0.4366579541	-0.395904
H	 0.0507589608	 2.0724833805	 0.4879992924	 0.114468
H	 0.087514634	 1.4084241699	-1.1576034598	 0.132131
H	-1.4579830526	 1.700072453	-0.3651938185	 0.13305
H	 0.6263919728	-0.3715606872	 0.5893922808	 0.125406
H	-0.9205551232	-0.1100290578	 1.3458469764	 0.150575
H	-1.093782999	-3.2224278842	-0.7238545195	 0.127945
H	-0.4392823858	-2.672606065	 0.8567426836	 0.132258
H	-3.5851537061	-2.5278274522	-1.1314338483	 0.136475
H	-3.3951450418	-4.1342462026	-0.4199826951	 0.110721
H	-5.5848626413	-3.2549716824	-0.1899526923	 0.295795
36.8006	44.8864	81.51	111.8342	156.1392	199.6685	219.4467	227.3148	255.1099	348.9303	430.4654	487.2483	507.4475	616.4319	647.4288	765.1802	789.1063	823.0448	927.2046	989.6732	1005.7737	1006.7089	1094.8232	1104.1316	1123.2773	1147.8691	1225.2979	1232.9332	1249.1491	1265.283	1287.6535	1375.0723	1414.4317	1442.3136	1450.355	1466.4345	1492.7522	1493.4959	1498.3595	1796.7053	1831.9053	2943.5527	2979.1948	3014.6392	3045.6421	3052.4188	3071.3702	3124.1056	3127.5072	3139.5945	3838.2803
CCC(=O)CC(=O)CO	CCC(=O)CC(=O)CO	
InChI=1S/C6H10O3/c1-2-5(8)3-6(9)4-7/h7H,2-4H2,1H3	InChI=1S/C6H10O3/c1-2-5(8)3-6(9)4-7/h7H,2-4H2,1H3
