18
gdb 54218	2.18185	1.49716	1.31911	2.5156	73.01	-0.2445	-0.023	0.2215	1083.8364	0.145641	-439.133113	-439.123559	-439.122615	-439.167681	34.251	
C	-0.0523921003	 1.4754235921	 0.1702448658	-0.494562
C	 0.0644798947	-0.0238375981	-0.0143220595	 0.349264
O	 1.132376047	-0.5864721832	-0.100329643	-0.307063
C	-1.2545771443	-0.7976270602	-0.0395636759	 0.047439
C	-2.2252561609	-0.3094600592	-1.1179491527	-0.465489
C	-1.0973766556	-2.3385724356	 0.1115277986	-0.212922
N	-1.7361931676	-2.2099213442	 1.4297936611	-0.324621
C	-1.898813036	-0.8563709151	 1.3910625127	 0.403276
O	-2.3534314454	-0.0432336598	 2.1520304812	-0.366722
H	 0.9271242886	 1.8884170374	 0.4135994504	 0.141752
H	-0.4145723435	 1.9428130558	-0.7523866761	 0.14296
H	-0.7787054585	 1.702137626	 0.9579749656	 0.169883
H	-1.7777531201	-0.3787937071	-2.1148197229	 0.130784
H	-3.1366131173	-0.9148362581	-1.1108148075	 0.131902
H	-2.5163765252	 0.7287454265	-0.9403384634	 0.143564
H	-1.6754235173	-2.931221428	-0.6035746077	 0.110467
H	-0.0597469348	-2.674058314	 0.143583027	 0.143685
H	-1.9343688634	-2.8809521652	 2.1569088663	 0.256401
58.5121	102.9595	140.3008	172.9268	209.3122	214.9574	258.0515	318.2681	382.8737	423.5475	472.7005	568.1792	616.6343	638.1284	732.0771	767.2825	872.996	891.0187	968.4718	983.931	989.7577	1043.3192	1135.5796	1142.9766	1161.1331	1170.2481	1219.8635	1280.5283	1295.4175	1385.5836	1386.0969	1411.3476	1467.2816	1476.9723	1496.9982	1498.1733	1524.5413	1800.4878	1883.7507	3037.6877	3039.5799	3056.7383	3103.6029	3106.8853	3124.1346	3128.5773	3154.4045	3614.2575
CC(=O)C1(C)CNC1=O	CC(=O)[C@@]1(C)CNC1=O	
InChI=1S/C6H9NO2/c1-4(8)6(2)3-7-5(6)9/h3H2,1-2H3,(H,7,9)	InChI=1S/C6H9NO2/c1-4(8)6(2)3-7-5(6)9/h3H2,1-2H3,(H,7,9)/t6-/m1/s1
