18
gdb 49234	3.37168	1.36229	1.13877	5.6913	82.11	-0.2045	-0.0251	0.1794	1090.045	0.150264	-401.961574	-401.954153	-401.953209	-401.993349	29.39	
O	-0.1662959834	-0.032893792	 0.0247456131	-0.319908
C	-0.0438360038	 1.1794310171	 0.0278082247	 0.054872
C	 1.208253017	 1.8954048571	-0.003992604	 0.173293
C	 1.2469634142	 3.2562372213	 0.0148942873	-0.062906
N	 2.4509400708	 3.8827072546	-0.0682395207	-0.273175
C	 3.6397729985	 3.0247512687	-0.0774482608	 0.001476
C	 3.426272267	 1.9050312964	-1.1365761379	-0.221062
C	 2.5533241925	 1.20188105	-0.046293641	-0.127854
C	 3.4911725376	 1.9015636256	 0.9922525748	-0.227742
H	-0.9423576988	 1.8414089668	 0.0614893137	 0.040504
H	 0.3598812	 3.8793524588	 0.072373326	 0.12348
H	 2.5393157687	 4.8503068797	 0.1896704025	 0.253946
H	 4.5347925768	 3.6466034475	-0.1081563632	 0.0744
H	 2.9533068868	 2.1822067826	-2.0806666227	 0.105498
H	 4.3588467047	 1.368073697	-1.3204020401	 0.106111
H	 2.4535795489	 0.1181126873	-0.0440897786	 0.09288
H	 4.4315856435	 1.3606864008	 1.1145286204	 0.106612
H	 3.0772342189	 2.1719464907	 1.9661125167	 0.099574
107.7607	193.4553	230.013	251.1517	395.6133	416.9236	451.6563	456.5076	594.5471	629.3647	712.7478	767.1748	806.7261	863.5017	869.5704	904.3187	928.6511	952.6244	1007.2633	1027.117	1029.5682	1075.1659	1113.3527	1121.0917	1149.1572	1198.3339	1232.7773	1253.4471	1256.8116	1270.8348	1297.6071	1357.1729	1391.5761	1434.0243	1471.7338	1485.0094	1511.2689	1656.0601	1758.238	2834.2784	3065.5873	3071.6032	3109.2859	3129.5575	3133.0232	3138.2478	3184.4787	3662.2271
O=CC1=CNC2CC1C2	O=CC1=CN[C@@H]2C[C@H]1C2	
InChI=1S/C7H9NO/c9-4-6-3-8-7-1-5(6)2-7/h3-5,7-8H,1-2H2	InChI=1S/C7H9NO/c9-4-6-3-8-7-1-5(6)2-7/h3-5,7-8H,1-2H2/t5-,7+
