19
gdb 58408	2.34275	1.14236	0.80908	5.4772	74.29	-0.2699	-0.0471	0.2228	1413.989	0.155114	-460.194914	-460.184575	-460.18363	-460.231138	35.802	
C	-0.0986098392	 1.597380001	-0.0620126712	-0.395508
C	-0.0110001216	 0.0666901552	 0.0133530304	 0.003409
C	-1.4123345248	-0.549595068	 0.1467029819	-0.409362
C	 0.752406736	-0.4847389126	-1.2114220124	 0.009368
O	 2.0232280131	 0.1527766052	-1.252096461	-0.18344
C	 2.7514720868	 0.0438146291	-2.3875804282	 0.184834
O	 3.8496987182	 0.4972222229	-2.4827388273	-0.272395
C	 0.9277107263	-2.0019924203	-1.201925901	 0.143552
O	 1.9865301099	-2.5486240744	-1.3601421074	-0.228727
H	 0.8908503147	 2.0497629296	-0.1428422458	 0.148234
H	-0.6918616621	 1.9117328375	-0.9293054277	 0.113322
H	-0.5870516599	 1.99020304	 0.8347455679	 0.119525
H	 0.5791914897	-0.2014499463	 0.898980535	 0.104449
H	-2.0050741844	-0.390898652	-0.7619579663	 0.12076
H	-1.3912372239	-1.6225890103	 0.3540632945	 0.123826
H	-1.9467390992	-0.0709322611	 0.9722629381	 0.129604
H	 0.1710831094	-0.2420084584	-2.1189308801	 0.106519
H	 2.2098079614	-0.4687793201	-3.2034335478	 0.081648
H	-0.0094557103	-2.580546147	-1.0690712516	 0.100382
43.9622	83.7277	89.9677	151.9455	187.4092	219.5557	235.2164	253.9771	331.7995	344.3641	379.9747	413.1797	459.9504	621.3297	715.5544	849.3944	882.6547	934.6543	959.8354	973.7479	1003.4983	1035.705	1085.4608	1151.6258	1155.7988	1186.126	1200.3672	1273.4562	1332.4832	1352.8226	1370.2614	1399.904	1415.8107	1427.2925	1439.373	1487.0491	1493.8362	1506.2921	1515.2834	1833.9406	1874.808	2922.8833	2955.706	2973.5062	3028.1449	3032.2886	3039.2207	3098.1325	3104.8567	3117.2849	3141.7457
CC(C)C(OC=O)C=O	CC(C)[C@@H](OC=O)C=O	
InChI=1S/C6H10O3/c1-5(2)6(3-7)9-4-8/h3-6H,1-2H3	InChI=1S/C6H10O3/c1-5(2)6(3-7)9-4-8/h3-6H,1-2H3/t6-/m0/s1
