17
gdb 52079	2.81445	0.97845	0.79916	4.3935	71.14	-0.2526	-0.0327	0.2199	1412.2177	0.13165	-458.950481	-458.941029	-458.940084	-458.986155	32.847	
O	-0.199168262	 0.0466689674	 0.2240329267	-0.237766
C	-0.0091061002	 1.1508028158	-0.2110124659	 0.141838
C	 1.3426498434	 1.8385674488	-0.1863424915	-0.176664
O	 1.2242423326	 3.0392504573	-0.9351930652	-0.293463
C	 2.3998428866	 3.7533842759	-1.1022484083	 0.345606
C	 3.3754034476	 3.3092197935	-2.195269424	-0.323811
C	 2.5129842522	 4.5122422507	-2.4076504029	-0.311416
C	 2.9912602774	 4.3890810006	 0.1033190239	 0.119638
O	 2.5607174553	 4.2723260343	 1.2234447752	-0.272996
H	-0.8176548782	 1.7662428605	-0.6635982578	 0.096892
H	 1.6198305875	 2.0452324545	 0.8548695878	 0.161404
H	 2.0980222596	 1.1636948175	-0.6151360068	 0.121564
H	 4.4382124926	 3.4439692132	-2.0268714874	 0.132417
H	 3.1023691681	 2.3939484634	-2.7070607533	 0.140777
H	 1.6521046527	 4.412545056	-3.0575682693	 0.146861
H	 2.9671419776	 5.4966957016	-2.3886546569	 0.13215
H	 3.8997475373	 4.9977030491	-0.1142468043	 0.07697
44.9504	57.4028	135.8682	142.6596	148.7545	224.2622	316.8467	335.0107	363.2855	457.52	544.5379	577.8492	742.3734	775.1368	818.4163	853.6251	898.1168	960.0454	995.7256	1037.9282	1055.5116	1065.418	1088.8182	1108.2619	1119.1424	1196.9391	1236.0592	1272.0958	1335.6005	1366.5043	1409.868	1434.3905	1452.6458	1477.1586	1486.745	1818.7473	1845.4113	2862.3527	2898.4758	3005.0294	3062.5517	3142.2046	3144.6749	3229.428	3243.3249
O=CCOC1(CC1)C=O	O=CCOC1(CC1)C=O	
InChI=1S/C6H8O3/c7-3-4-9-6(5-8)1-2-6/h3,5H,1-2,4H2	InChI=1S/C6H8O3/c7-3-4-9-6(5-8)1-2-6/h3,5H,1-2,4H2
