22
gdb 121987	3.33982	0.71139	0.65851	4.2515	81.67	-0.2446	0.0373	0.2819	1797.8051	0.192071	-441.513864	-441.502819	-441.501874	-441.551787	38.173	
C	-0.0486488268	 1.4465897743	-0.2520116639	-0.386826
C	-0.0416372813	-0.0662707592	-0.118489544	-0.027753
O	-1.3780949485	-0.5181694015	-0.003377111	-0.257472
C	-1.4952909642	-1.9228582701	 0.1157588854	-0.075125
C	-2.9811336436	-2.2686106251	 0.1928545387	 0.028529
C	-3.638949133	-1.7496201129	 1.4783237694	-0.388084
N	-3.6388138344	-1.7459786882	-0.999521578	-0.272801
C	-4.6112693051	-2.41388715	-1.6672077753	 0.156316
O	-5.035502678	-3.5131300757	-1.3722199659	-0.334068
H	 0.974102726	 1.8250285332	-0.3379381334	 0.120145
H	-0.6062116979	 1.7529211678	-1.1419203671	 0.124129
H	-0.517125837	 1.9075496382	 0.6221007287	 0.129432
H	 0.4399182607	-0.532328606	-0.9942539891	 0.090752
H	 0.5357824628	-0.3750209396	 0.7684794412	 0.091762
H	-1.0378267679	-2.4186104337	-0.7553866221	 0.095303
H	-0.9769777748	-2.2812218276	 1.019666539	 0.09278
H	-3.0883024408	-3.3561662901	 0.1489162406	 0.117474
H	-4.7004842531	-2.0082536498	 1.4859287814	 0.134658
H	-3.1693170976	-2.2000245037	 2.3591586499	 0.112822
H	-3.5370560482	-0.6636770947	 1.5534796662	 0.125896
H	-3.3637591238	-0.824291595	-1.302069935	 0.251687
H	-4.9832626736	-1.8375264307	-2.5382842359	 0.070444
26.3949	53.6596	79.8268	118.966	153.2515	203.5824	224.7738	242.0743	248.61	288.0708	362.3059	430.9565	470.9851	580.1561	607.0777	764.6915	821.7512	865.8649	899.083	937.7176	956.1297	1008.8594	1032.4435	1082.7572	1137.5792	1144.3928	1160.2252	1166.6781	1191.8123	1218.6776	1275.6318	1298.2017	1336.9086	1375.0242	1381.3325	1400.4598	1408.8795	1427.1468	1448.6345	1483.9149	1490.5891	1494.7191	1499.3681	1509.654	1521.7942	1535.7563	1798.6764	2928.6947	2959.5166	2971.9477	2988.8876	3003.9671	3041.8915	3045.4623	3082.9526	3113.6777	3119.5494	3122.249	3132.2386	3632.5526
CCOCC(C)NC=O	CCOC[C@@H](C)NC=O	
InChI=1S/C6H13NO2/c1-3-9-4-6(2)7-5-8/h5-6H,3-4H2,1-2H3,(H,7,8)	InChI=1S/C6H13NO2/c1-3-9-4-6(2)7-5-8/h5-6H,3-4H2,1-2H3,(H,7,8)/t6-/m1/s1
