18
gdb 32569	1.96883	1.87785	1.04535	4.9953	73.79	-0.2063	0.0311	0.2374	1157.0423	0.14731	-439.15255	-439.143529	-439.142585	-439.187113	32.59	
C	 0.0186697832	 1.5801315955	-0.0117585054	-0.381727
C	-0.0001391722	 0.0510765408	 0.0505262158	-0.156785
N	 0.6606395555	-0.4808689591	 1.2323176623	-0.174276
C	 2.0247678112	-0.6821665808	 1.2711239826	 0.483806
O	 2.8379934383	-0.508955532	 0.3998856742	-0.42223
O	 2.3112402748	-1.1392150453	 2.5384185527	-0.216552
C	 1.1285694455	-1.1968325919	 3.2477075511	-0.128487
C	 0.1038750794	-0.7982766622	 2.4807938734	 0.269346
C	-1.3493914391	-0.7009347282	 2.7829599368	-0.502055
H	 1.0495868927	 1.9432720927	-0.0185146421	 0.151588
H	-0.4741700388	 1.9257245379	-0.9257274364	 0.122352
H	-0.500052082	 2.0223109995	 0.8445536506	 0.119951
H	-1.0254214231	-0.3294185719	 0.031873689	 0.11433
H	 0.525475955	-0.3633028171	-0.8140926023	 0.14611
H	 1.1854048354	-1.5397452063	 4.2655679263	 0.149003
H	-1.5294489743	-0.9896377289	 3.820969702	 0.143206
H	-1.7298264705	 0.3176272503	 2.644945798	 0.140573
H	-1.944090771	-1.3631730531	 2.1427994513	 0.141846
33.5712	94.0217	164.1088	197.9262	210.5094	276.2462	319.6232	331.4258	404.3537	563.8308	588.2961	602.8492	689.6424	702.6079	770.8179	780.6955	793.5466	955.9383	1000.0302	1020.2586	1059.4274	1068.0689	1104.1691	1139.4123	1189.7411	1268.5679	1292.2467	1377.6188	1389.2257	1409.2943	1421.5151	1437.2758	1475.1648	1476.8693	1489.9524	1499.549	1504.9658	1708.7893	1867.3832	3027.9341	3041.4856	3061.2999	3077.505	3101.5611	3116.1475	3126.5155	3131.8285	3297.9053
CCN1C(=O)OC=C1C	CCn1c(=O)occ1C	
InChI=1S/C6H9NO2/c1-3-7-5(2)4-9-6(7)8/h4H,3H2,1-2H3	InChI=1S/C6H9NO2/c1-3-7-5(2)4-9-6(7)8/h4H,3H2,1-2H3
