18
gdb 66552	3.11713	1.9562	1.64968	1.9457	78.09	-0.211	0.006	0.217	886.2637	0.149799	-364.746028	-364.739463	-364.738519	-364.776504	27.696	
C	 0.0057076945	 1.497935865	 0.0739960932	-0.518569
C	-0.0207769657	 0.0027517762	-0.0217479449	 0.34107
C	-0.9817154997	-0.8912877763	 0.7873976162	-0.148233
C	 0.5012149951	-1.0557759864	 0.8974237153	-0.100242
N	 0.4433620458	-2.0647278292	-0.259085656	-0.165742
C	-1.0652687352	-2.1914694609	-0.0549930603	-0.047016
C	-1.6608507307	-2.0226158001	-1.4231209104	-0.077136
C	-0.8280115237	-1.2522112064	-2.1310108373	-0.081373
C	 0.3281927593	-0.9028884127	-1.239938085	-0.099167
H	 0.971285482	 1.8995382893	-0.2542938081	 0.120795
H	-0.7743066108	 1.9489973699	-0.5505080099	 0.123613
H	-0.1592307365	 1.8355060457	 1.1026677411	 0.122274
H	-1.688787162	-0.4726690938	 1.4930616518	 0.086217
H	 1.207834282	-1.0809596212	 1.7148278001	 0.095275
H	-1.3406980515	-3.0841785533	 0.5083113961	 0.074427
H	-2.6248563689	-2.40749657	-1.731270399	 0.101881
H	-0.9715179967	-0.8795364347	-3.1374156668	 0.101905
H	 1.2786581626	-0.6597625611	-1.7191581363	 0.070021
196.3106	201.671	266.1038	397.1271	429.9666	565.4865	587.6724	673.056	736.78	751.3629	775.4257	826.7613	859.9132	877.4575	890.7014	900.4879	925.2147	936.1882	945.106	970.9816	1009.3355	1029.1853	1038.7416	1073.0817	1102.0899	1132.727	1148.0585	1179.1591	1203.3915	1221.735	1251.5585	1294.2604	1311.4246	1361.603	1409.0072	1433.115	1487.4464	1497.8915	1643.3315	3021.948	3081.5855	3090.4648	3092.9626	3100.2504	3185.8889	3199.4426	3216.4909	3224.0964
CC12C3C1N1C3C=CC21	C[C@]12[C@@H]3[C@H]1N1[C@@H]3C=C[C@@H]21	
InChI=1S/C8H9N/c1-8-5-3-2-4-6(8)7(8)9(4)5/h2-7H,1H3	InChI=1S/C8H9N/c1-8-5-3-2-4-6(8)7(8)9(4)5/h2-7H,1H3/t4-,5+,6+,7-,8+/m1/s1
