17
gdb 98380	2.32063	1.28231	0.87416	1.7045	74.37	-0.2426	-0.0338	0.2089	1307.8321	0.136117	-451.350921	-451.341412	-451.340468	-451.385891	33.422	
C	 0.1074300056	 1.3875328791	-0.1427904438	-0.309089
N	 0.2598440618	-0.0559626072	-0.0236468309	-0.322042
C	 0.3877761251	-0.791752031	-1.1882884602	 0.414832
N	 0.2985399593	-0.2576080131	-2.3326293858	-0.511534
N	 0.576750823	-2.1982810021	-0.9116767142	-0.172063
C	 1.3532428971	-3.0346671006	-1.7308693588	 0.090773
N	 1.9136570454	-2.631279302	-2.7941352108	-0.454703
C	-0.1214909856	-2.8065763403	 0.1427314556	 0.148293
O	-0.0222339588	-3.971241778	 0.4407542025	-0.30662
H	 0.9640671476	 1.861352998	-0.6373284153	 0.135557
H	-0.7799362271	 1.6072643394	-0.7388102769	 0.155633
H	-0.01852819	 1.8066169515	 0.8579872337	 0.119981
H	 0.8586258734	-0.3600143628	 0.7302612062	 0.246667
H	 0.3762306175	-0.94817682	-3.0729428273	 0.247241
H	 1.3845974779	-4.0428902981	-1.3161933529	 0.15084
H	 2.4328938329	-3.3969503669	-3.2207814732	 0.239663
H	-0.7775896852	-2.0925985258	 0.6605775323	 0.126571
44.5002	121.1434	148.2514	167.0319	175.7937	251.7501	275.7768	294.2246	324.5752	417.5057	470.519	550.3263	604.0541	727.8296	766.8343	832.1326	846.6864	861.311	996.7254	1050.4049	1092.9787	1129.0298	1151.144	1163.8505	1181.8706	1247.7808	1302.1282	1360.0283	1412.699	1438.5264	1453.002	1475.3334	1499.0277	1527.4149	1705.836	1756.0841	1812.5747	3030.0582	3041.7245	3105.7567	3131.8664	3144.2029	3500.0603	3557.0885	3601.0981
CNC(=N)N(C=N)C=O	CNC(=N)N(C=N)C=O	
InChI=1S/C4H8N4O/c1-7-4(6)8(2-5)3-9/h2-3,5H,1H3,(H2,6,7)	InChI=1S/C4H8N4O/c1-7-4(6)8(2-5)3-9/h2-3,5H,1H3,(H2,6,7)
