19
gdb 12091	3.22123	1.60114	1.53916	2.7042	71.58	-0.2449	0.072	0.3169	963.7855	0.164408	-365.020831	-365.012349	-365.011404	-365.053588	31.767	
C	-0.8754816413	 1.305793928	 0.5058784255	-0.408857
C	-0.258416397	-0.0551183276	 0.2891183578	 0.009343
N	 1.037147479	-0.1091789711	-0.413065556	-0.338643
C	 0.9671099271	-0.554668024	 0.9814757725	-0.105435
C	 1.7572364238	 0.2026210951	 2.0186480628	 0.420895
C	 1.4718436231	-0.2016638915	 3.4490732284	-0.463531
C	 3.0666087514	 0.7671733351	 1.6504284693	-0.219832
O	 1.9199855008	 1.6075257032	 1.8092886252	-0.265771
H	-0.1054623006	 2.0464012542	 0.7187258781	 0.162158
H	-1.4257690877	 1.6161444617	-0.3892484261	 0.112892
H	-1.5845506111	 1.2801778186	 1.3410031821	 0.108473
H	-0.9756561255	-0.8344774463	 0.0289947463	 0.078882
H	 1.0798090853	-0.9072943961	-1.0401060585	 0.229547
H	 0.9928665027	-1.6297847021	 1.1648116735	 0.075867
H	 1.7009846032	-1.2605685194	 3.6116067244	 0.118765
H	 2.0712892563	 0.3948824519	 4.1405240329	 0.128299
H	 0.4143566675	-0.0471717808	 3.6890666573	 0.128163
H	 3.8381494212	 0.8851174337	 2.4105374695	 0.105004
H	 3.413557752	 0.6620405175	 0.624869485	 0.12378
66.6681	163.8466	191.156	206.2699	230.3057	320.3288	341.4873	373.2488	405.9866	527.2546	565.9987	710.3552	790.7287	824.3048	856.9703	909.1181	925.2517	956.4015	1009.4171	1018.4653	1041.9833	1080.3841	1104.2674	1135.5162	1149.2167	1170.3229	1202.1727	1235.8572	1257.5793	1275.2274	1389.4528	1400.6574	1413.9871	1432.4286	1468.4678	1484.0652	1494.3419	1501.7424	1504.8967	1519.628	3034.5573	3035.3345	3085.1674	3087.3272	3090.273	3096.4499	3100.3416	3126.6334	3164.7681	3181.5714	3508.5812
CC1NC1C1(C)CO1	C[C@H]1N[C@H]1[C@@]1(C)CO1	
InChI=1S/C6H11NO/c1-4-5(7-4)6(2)3-8-6/h4-5,7H,3H2,1-2H3	InChI=1S/C6H11NO/c1-4-5(7-4)6(2)3-8-6/h4-5,7H,3H2,1-2H3/t4-,5-,6-/m1/s1
