17
gdb 74040	3.03686	1.57631	1.05912	5.5145	80.09	-0.1996	0.0039	0.2036	1098.6868	0.139204	-418.034923	-418.027369	-418.026425	-418.066864	29.216	
N	 0.1106228881	 1.389095087	 0.1267529101	-0.589138
C	-0.0458488225	 0.0219555507	 0.0263308836	 0.083298
C	-1.1292905716	-0.7677255782	 0.0174734372	 0.20768
C	-2.6263678891	-0.8320886288	 0.0317429078	-0.406155
C	-2.85029012	-2.4024837038	-0.0117205974	-0.151302
N	-1.5363995389	-3.0804987649	-0.0351415576	-0.348199
C	-0.6788859446	-2.14279108	-0.0155992107	 0.418452
O	 0.6755033012	-2.2298344034	-0.0279602739	-0.259262
C	 1.1768629017	-0.886637046	 0.0124339017	-0.160034
H	 0.9473825356	 1.7693061022	-0.2923815573	 0.254137
H	-0.7067733105	 1.936668596	-0.0995910853	 0.259175
H	-3.0647614989	-0.3870465699	 0.9316679228	 0.115997
H	-3.0885084562	-0.3340560163	-0.828081615	 0.110762
H	-3.4214951993	-2.743401008	 0.8592280848	 0.106917
H	-3.4260226405	-2.6940976255	-0.8976044881	 0.106047
H	 1.8156109717	-0.718307873	-0.8662996258	 0.119226
H	 1.7958421638	-0.7588043281	 0.9103485931	 0.132399
112.8176	187.3862	219.1986	265.8049	291.5174	326.8946	515.8602	534.42	580.5859	620.6763	656.5286	712.8499	718.6351	790.7188	816.1339	898.549	968.8498	1003.9869	1026.7554	1053.2066	1061.2194	1104.7316	1183.3007	1194.0675	1210.2517	1235.1368	1265.1616	1299.2835	1323.5407	1396.1848	1413.3923	1481.7075	1506.8754	1509.3645	1652.8921	1740.3109	1770.8147	3004.2596	3028.0402	3038.4025	3038.8125	3051.6691	3073.8598	3559.1319	3659.5781
NC1=C2CCN=C2OC1	NC1=C2CCN=C2OC1	
InChI=1S/C6H8N2O/c7-5-3-9-6-4(5)1-2-8-6/h1-3,7H2	InChI=1S/C6H8N2O/c7-5-3-9-6-4(5)1-2-8-6/h1-3,7H2
