18
gdb 37225	3.61368	1.48632	1.2088	2.2316	78.63	-0.2265	0.0123	0.2388	1034.304	0.150167	-401.883471	-401.876537	-401.875592	-401.914616	28.213	
C	 0.1288175707	 1.4529617094	 0.2849386715	-0.094227
O	 0.9859090259	 2.2594577123	-0.5107764908	-0.264251
C	 2.1702404006	 1.6311956553	-1.0130442319	-0.124793
C	 1.7005277816	 0.5220022222	-1.9426403825	-0.054285
C	 2.4724834823	-0.7463319082	-2.3754452707	-0.091843
N	 2.8344134445	-1.5150443149	-1.166418284	-0.32947
C	 1.4393475829	-1.6152629666	-1.720485802	-0.186651
C	 0.7661705856	-0.3903211012	-1.165837062	 0.362947
C	 0.0370000103	 0.0031638538	-0.1347472925	-0.252929
H	 0.4573900678	 1.4713550431	 1.3404601952	 0.101341
H	-0.8483634125	 1.9514035617	 0.2532663077	 0.116098
H	 2.7298482719	 2.4284458174	-1.5101747288	 0.100867
H	 2.7840897195	 1.2131568648	-0.2034248636	 0.10976
H	 1.2001562539	 0.9507965369	-2.8186379217	 0.090983
H	 3.0056993669	-0.8914460727	-3.3068161416	 0.093867
H	 3.3316822501	-2.3470432618	-1.4884882705	 0.229037
H	 1.0345650255	-2.5755013597	-2.0132315226	 0.100413
H	-0.5315272874	-0.6701445318	 0.5008856208	 0.093135
152.1497	180.5176	283.9697	293.9821	391.8139	441.3237	547.3685	603.4039	641.0121	744.0089	774.1074	818.3037	841.0379	845.4959	876.4706	897.7402	963.4592	989.0387	1010.6844	1022.6375	1052.8987	1069.1484	1107.756	1112.698	1134.2258	1143.9402	1190.3825	1231.8112	1263.0231	1295.2488	1300.4788	1309.1011	1335.025	1369.8503	1379.3227	1404.3738	1487.7474	1503.294	1779.4633	2937.4413	3014.5738	3035.879	3043.5214	3090.1642	3165.7407	3187.1893	3201.353	3451.6694
C1OCC2C3NC3C2=C1	C1OC[C@H]2[C@H]3N[C@H]3[C]2[CH]1	
InChI=1S/C7H9NO/c1-2-9-3-5-4(1)6-7(5)8-6/h1,5-8H,2-3H2	InChI=1S/C7H9NO/c1-2-9-3-5-4(1)6-7(5)8-6/h1,5-8H,2-3H2/t5-,6+,7-/m1/s1
