16
gdb 18934	3.69664	2.50196	2.01037	2.2977	62.66	-0.2181	0.0629	0.281	707.195	0.134799	-379.849473	-379.843962	-379.843017	-379.878763	23.651	
O	 0.0740533375	 1.3613789363	-0.0048079981	-0.450999
C	-0.0077562505	-0.0346084956	 0.0068314232	 0.198615
C	 0.396334252	-0.679294708	 1.3570880848	-0.100331
N	-0.5524929444	 0.0934134271	 2.239363051	-0.356381
C	-1.5830810047	-0.7895889856	 1.621808662	-0.004738
C	-0.594568956	-1.9371052064	 1.3305428809	-0.017756
N	-1.1892148436	-2.1235492463	-0.001370909	-0.310798
C	-1.4363963234	-0.6530585447	 0.0481503026	-0.075086
H	-0.1950812499	 1.6259892397	 0.8905065925	 0.287159
H	 0.5591040683	-0.4133147672	-0.8491910257	 0.073898
H	 1.4459087651	-0.7121925958	 1.6440167508	 0.074727
H	-0.4250653215	-0.1958044868	 3.2074864973	 0.224114
H	-2.5694214137	-0.8812883757	 2.0703085628	 0.088182
H	-0.3972180347	-2.7998942233	 1.9679380286	 0.078035
H	-0.5391898773	-2.405141717	-0.7361752582	 0.211946
H	-2.2045927733	-0.2329496707	-0.5990877857	 0.079412
246.7269	337.3009	463.2417	497.3045	569.1375	612.2191	706.5826	754.3988	791.9187	822.8685	846.7688	853.1927	899.4602	942.5045	951.7803	977.7016	997.2819	1023.941	1033.9185	1071.6787	1106.4682	1143.6963	1152.8856	1162.1704	1187.8824	1210.6582	1251.46	1265.9212	1293.3355	1309.6272	1330.0524	1348.4323	1359.0086	1457.6195	3067.3981	3107.6924	3133.4284	3137.9477	3152.7577	3439.0609	3482.0526	3670.2991
OC1C2NC3C2NC13	O[C@H]1[C@H]2N[C@@H]3[C@H]2N[C@H]13	
InChI=1S/C5H8N2O/c8-5-3-1-2(7-3)4(5)6-1/h1-8H	InChI=1S/C5H8N2O/c8-5-3-1-2(7-3)4(5)6-1/h1-8H/t1-,2-,3+,4+/m1/s1
