16
gdb 44894	4.02984	1.18334	1.10022	2.0046	76.07	-0.2323	-0.0237	0.2086	1108.1097	0.125006	-400.698988	-400.691594	-400.69065	-400.730837	29.09	
O	 0.0300192277	 0.0466528399	 0.0255815376	-0.321346
C	 0.0115147981	 1.2461811762	 0.0211084454	 0.420047
C	-1.201877158	 2.2112395187	 0.0585388811	-0.35893
C	-0.387262094	 3.5184900306	-0.0128181824	-0.004423
N	 0.6565673147	 3.2444151116	-1.0548422059	-0.305891
C	 1.1722610732	 2.2438964083	-0.0633421378	-0.112193
C	 0.7413611123	 3.2727412321	 1.0460406105	-0.208772
C	 1.6626710417	 4.3642753974	 1.2694540094	 0.31737
C	 2.4240180306	 5.2633987587	 1.506750187	-0.410535
H	-1.858489754	 2.0764823947	-0.8063016199	 0.129015
H	-1.798096879	 2.0720617859	 0.9657453972	 0.130653
H	-0.9146672313	 4.4694788681	-0.0673889158	 0.094949
H	 0.2847367128	 2.8179896393	-1.9052031873	 0.220955
H	 2.1869001947	 1.8658324279	-0.1629675671	 0.101429
H	 0.4125432411	 2.8376589025	 1.9945032506	 0.111777
H	 3.0991965094	 6.0596461781	 1.6998342075	 0.195893
112.3953	142.176	181.0705	353.5301	415.3705	428.0972	505.9654	531.8259	618.1424	627.0657	633.461	635.6442	772.1296	823.3394	862.7647	898.9472	931.9948	958.5627	963.3516	990.1025	1034.3604	1094.5207	1121.3526	1134.6435	1155.3245	1182.625	1219.8495	1227.4465	1272.5855	1295.8159	1341.5506	1369.6596	1463.5501	1871.8342	2240.6805	3056.4943	3066.9449	3103.2181	3131.835	3158.8028	3436.1199	3506.1075
O=C1CC2NC1C2C#C	O=C1C[C@@H]2N[C@H]1[C@H]2C#C	
InChI=1S/C7H7NO/c1-2-4-5-3-6(9)7(4)8-5/h1,4-5,7-8H,3H2	InChI=1S/C7H7NO/c1-2-4-5-3-6(9)7(4)8-5/h1,4-5,7-8H,3H2/t4-,5-,7-/m0/s1
