17
gdb 12492	3.18088	1.95411	1.38747	2.3842	63.79	-0.2192	-0.0218	0.1973	900.332	0.143574	-400.994495	-400.986977	-400.986033	-401.027218	27.813	
O	-0.211760472	 0.8234839582	 1.4267472839	-0.299472
C	-0.1768339601	 1.3024933842	 0.317695556	 0.323118
C	-1.4345110668	 1.266925519	-0.5733175322	-0.26206
N	-1.5404913872	 2.1415958874	-1.7327776412	-0.275032
C	-0.9604584515	 3.4651003582	-1.5406802841	-0.190901
C	 0.5556592019	 3.5090484011	-1.8450552918	-0.087735
O	 1.21216147	 2.2969705716	-1.5220545333	-0.227863
C	 1.1398742055	 1.934542539	-0.165744121	-0.177289
H	-1.552801381	 0.227175541	-0.901564389	 0.136583
H	-2.2680975673	 1.4518155159	 0.117426879	 0.139126
H	-1.1137138718	 1.6995307103	-2.5383238003	 0.225339
H	-1.4636139603	 4.2012393205	-2.1805370832	 0.10992
H	-1.1604189857	 3.774011697	-0.5077254136	 0.113254
H	 0.7179281247	 3.6357358924	-2.9204037485	 0.112708
H	 1.0279111221	 4.3622251948	-1.3317192424	 0.095972
H	 1.3529305137	 2.7879903335	 0.4996265885	 0.120002
H	 1.9252867859	 1.1928368658	 0.0120671033	 0.144331
31.0308	109.1261	256.8167	290.3669	359.2268	369.3872	462.7226	474.9752	586.3314	611.2026	728.2453	755.3354	819.5734	855.0602	890.5471	1001.2073	1009.4445	1053.8298	1124.5908	1163.0197	1185.8569	1192.5889	1257.2896	1266.3113	1304.0601	1334.1835	1346.033	1368.3409	1376.6535	1405.6357	1444.4362	1449.8763	1493.0077	1502.6555	1512.9315	1803.7223	2974.1589	2979.226	3020.5663	3024.5906	3054.9954	3066.8667	3080.1778	3083.3674	3541.9464
O=C1CNCCOC1	O=C1CNCCOC1	
InChI=1S/C5H9NO2/c7-5-3-6-1-2-8-4-5/h6H,1-4H2	InChI=1S/C5H9NO2/c7-5-3-6-1-2-8-4-5/h6H,1-4H2
