14
gdb 130368	5.47866	1.01443	0.86048	2.7709	80.12	-0.2178	-0.054	0.1638	1263.3309	0.102598	-429.067516	-429.059698	-429.058754	-429.100356	27.857	
N	-0.0278928307	 1.3307050393	 0.0463266417	-0.487742
C	-0.0761395808	-0.0066079635	-0.0889421812	 0.152635
N	-1.1561847686	-0.6659023596	 0.1503716999	-0.326963
C	-1.1011914169	-2.0427061832	 0.0930468822	 0.447055
N	-2.2807593824	-2.674550142	-0.0746221459	-0.277972
C	-2.2097064502	-3.9935961035	-0.1015914035	-0.004839
C	-0.9907148716	-4.6596115503	 0.0257006682	-0.001617
N	 0.1430448339	-3.982599098	 0.1933475296	-0.167824
N	 0.0913608553	-2.6626769715	 0.2432978007	-0.263749
H	 0.7925642455	 1.8514384457	-0.2031874892	 0.273556
H	-0.8552462531	 1.8264750729	 0.3371797445	 0.274242
H	 0.8576291751	-0.4750246161	-0.4099957158	 0.140185
H	-3.1418031739	-4.5415437624	-0.2288938428	 0.121886
H	-0.9102754915	-5.7407929879	-0.0016683084	 0.121146
83.8908	123.7189	161.8065	186.7303	240.5199	398.0883	416.8587	494.7221	576.154	642.1188	644.0802	696.6093	842.919	872.2876	888.4306	1003.9025	1021.9776	1045.5903	1077.7213	1105.7997	1135.5155	1188.2696	1314.9304	1329.1977	1371.5496	1409.3679	1476.6393	1559.7344	1581.1337	1623.741	1713.5491	3106.9801	3143.1463	3195.0129	3609.6665	3752.8257
NC=NC1=NC=CN=N1	NC=Nc1nccnn1	
InChI=1S/C4H5N5/c5-3-7-4-6-1-2-8-9-4/h1-3H,(H2,5,6,7,9)	InChI=1S/C4H5N5/c5-3-7-4-6-1-2-8-9-4/h1-3H,(H2,5,6,7,9)
