21
gdb 123230	7.28289	0.42258	0.41141	4.8052	79.	-0.2632	0.0081	0.2713	2602.2123	0.179454	-461.378595	-461.367568	-461.366624	-461.417241	36.558	
C	-0.3150192226	 1.4734553378	 0.2390562358	-0.384921
C	-0.1214153667	-0.0225266464	 0.0605694244	-0.031969
O	-1.3937341238	-0.6359870165	-0.0115949036	-0.24093
C	-1.332205656	-2.0316987721	-0.1780584718	-0.052948
C	-2.7583273006	-2.5663179684	-0.2462093744	-0.204826
C	-2.7976107724	-4.0796802755	-0.4189364358	-0.089616
O	-4.1482085772	-4.5314490298	-0.5820765312	-0.173282
C	-4.7323080935	-5.1671929552	 0.449774207	 0.171513
O	-5.8626917991	-5.5493864756	 0.4198439092	-0.272944
H	 0.6536512242	 1.9783864106	 0.298395265	 0.116463
H	-0.8739017703	 1.8909641421	-0.6031214571	 0.128908
H	-0.8724051536	 1.681357414	 1.156698638	 0.12834
H	 0.4532781932	-0.2327553606	-0.8575339434	 0.086839
H	 0.4547110059	-0.4425942186	 0.9027014536	 0.086086
H	-0.7806802977	-2.2887471453	-1.1000616686	 0.087545
H	-0.7832829945	-2.4975449401	 0.6602408966	 0.084663
H	-3.2912941581	-2.2845463655	 0.6686664456	 0.117953
H	-3.2826254269	-2.0930174171	-1.082394481	 0.130103
H	-2.2615169075	-4.3903875445	-1.321132037	 0.127382
H	-2.3355099311	-4.5891629054	 0.4375466314	 0.111225
H	-4.0493056916	-5.2995680978	 1.3130480673	 0.074417
30.5122	52.6585	63.3877	98.0846	120.6536	140.3644	161.5873	247.5808	260.6326	292.5142	376.6044	467.6209	492.8789	679.0195	769.8135	821.5795	881.3002	895.228	1021.4489	1043.5498	1050.7177	1061.7115	1079.9721	1134.5506	1153.2839	1170.5827	1181.6723	1209.9166	1263.2703	1293.4485	1296.8427	1307.0838	1333.0446	1391.0193	1407.9222	1413.2468	1435.5907	1456.9137	1483.6444	1494.5276	1499.536	1508.7171	1519.9745	1539.8948	1868.4779	2934.3259	2934.9609	2955.4196	2959.9968	2977.642	3016.5474	3045.7404	3049.8288	3077.363	3103.7842	3120.5187	3122.6702
CCOCCCOC=O	CCOCCCOC=O	
InChI=1S/C6H12O3/c1-2-8-4-3-5-9-6-7/h6H,2-5H2,1H3	InChI=1S/C6H12O3/c1-2-8-4-3-5-9-6-7/h6H,2-5H2,1H3
