21
gdb 72890	2.89807	1.40977	1.16791	1.2375	82.49	-0.2415	0.0743	0.3158	1139.8009	0.182106	-387.049625	-387.041093	-387.040149	-387.082919	33.883	
O	 0.198849477	 1.3863574791	-0.455975977	-0.482259
C	 0.0433965346	 0.0647066787	-0.0224549774	 0.425326
C	 0.4487055022	-1.0690783809	-1.00909805	-0.287069
C	-0.9966694843	-1.6523027781	-0.9297182248	-0.218649
C	-1.3959733867	-0.5489236966	 0.0855500951	-0.163142
C	-1.0936092734	-0.8848573203	 1.5532933733	 0.400753
C	-2.0504385396	-0.7909052203	 2.7043950071	-0.329166
C	-1.4828868903	-2.1310807968	 2.2943333865	-0.321839
C	 0.3025271788	-0.2383565095	 1.4817034244	-0.386213
H	 1.1400594955	 1.5954452891	-0.4513512541	 0.274784
H	 0.6992351005	-0.6725307591	-1.9959712297	 0.101948
H	 1.2569740982	-1.726352997	-0.675602745	 0.08999
H	-1.5362051545	-1.586558747	-1.8772747302	 0.100661
H	-1.0790945759	-2.6760343008	-0.5562655169	 0.097859
H	-2.2962434085	 0.0333664492	-0.1160253308	 0.06924
H	-1.6965455604	-0.3435387661	 3.628385626	 0.108903
H	-3.0947217787	-0.5912948958	 2.4848272571	 0.111177
H	-2.1454027332	-2.8361930427	 1.8012556267	 0.110534
H	-0.7440819848	-2.5940751303	 2.9411671793	 0.108789
H	 1.159390917	-0.8811461923	 1.7102353443	 0.08785
H	 0.3774582364	 0.6839394271	 2.066139896	 0.100523
38.1197	190.5971	207.8359	230.4544	260.8829	338.8725	360.6611	389.2139	467.9983	517.6232	641.1752	691.8369	753.1486	775.9485	838.9741	870.9776	881.5422	901.7554	924.7942	932.3213	958.6522	965.39	1008.8101	1038.0599	1049.0186	1074.5089	1078.3643	1123.5692	1151.4713	1175.6363	1187.1461	1222.1144	1227.8873	1233.5271	1245.247	1270.4319	1278.44	1306.3232	1360.03	1382.3849	1463.9511	1465.933	1474.5504	1489.6728	1502.8179	3033.212	3051.0984	3062.2559	3089.5745	3096.6482	3103.3653	3117.1749	3120.5275	3121.2354	3194.3496	3209.5254	3787.5492
OC12CCC1C1(CC1)C2	O[C@]12CC[C@H]1C1(CC1)C2	
InChI=1S/C8H12O/c9-8-2-1-6(8)7(5-8)3-4-7/h6,9H,1-5H2	InChI=1S/C8H12O/c9-8-2-1-6(8)7(5-8)3-4-7/h6,9H,1-5H2/t6-,8-/m0/s1
