20
gdb 126192	2.99192	1.21586	0.93534	4.5373	83.	-0.2335	0.0102	0.2437	1319.5406	0.170575	-399.350636	-399.340783	-399.339839	-399.386313	34.558	
C	 0.0642142745	 1.5933973941	-0.2715593004	-0.36624
C	 0.0006438415	 0.0931142714	 0.0601164587	-0.286853
C	-1.4007539204	-0.4249297261	 0.1546707725	 0.231042
C	-2.1438991204	-0.7959331301	 1.258912636	 0.222984
C	-1.8386089792	-0.8408461768	 2.7176612817	-0.508418
N	-3.3463935119	-1.1603365794	 0.7354805407	 0.012695
C	-4.5272721492	-1.6474555769	 1.4137186324	-0.333105
N	-3.3504658778	-1.0239747613	-0.6078044966	-0.162161
N	-2.1788460271	-0.5808287942	-0.9562058012	-0.261096
H	 1.1013512349	 1.9289440576	-0.3704836582	 0.108338
H	-0.4554260602	 1.7963759433	-1.2118670019	 0.140571
H	-0.4141908143	 2.1906729579	 0.5115154055	 0.110604
H	 0.5294256713	-0.4696664667	-0.7175350457	 0.121103
H	 0.5295206606	-0.1030765073	 0.999747716	 0.095
H	-2.4907919102	-0.1740119499	 3.2941047622	 0.138171
H	-1.9556746945	-1.8496677505	 3.1307970513	 0.137356
H	-0.8076494093	-0.527971609	 2.8948330833	 0.145567
H	-4.9020649471	-0.9076806837	 2.1277481733	 0.14207
H	-5.2834679561	-1.829758426	 0.6503302394	 0.170091
H	-4.3167791854	-2.5799842763	 1.9464864609	 0.142281
30.7009	109.1003	115.9295	125.4677	202.3241	217.7188	254.0181	261.2099	294.9967	407.6784	486.4506	590.587	676.4198	698.078	755.9549	765.9254	794.2643	971.6092	984.8961	1027.9301	1061.8298	1064.4134	1086.7163	1149.3043	1151.2962	1216.0633	1263.1389	1313.0252	1316.3004	1348.8089	1390.9181	1407.9556	1419.7372	1444.444	1473.5306	1478.1271	1481.695	1489.5394	1495.6888	1499.5649	1507.4552	1519.3978	1618.8529	3026.4142	3035.5223	3036.8225	3041.8487	3070.0262	3074.5158	3102.4889	3105.4706	3121.9249	3128.0271	3161.832
CCC1=C(C)N(C)N=N1	CCc1c(C)n(C)nn1	
InChI=1S/C6H11N3/c1-4-6-5(2)9(3)8-7-6/h4H2,1-3H3	InChI=1S/C6H11N3/c1-4-6-5(2)9(3)8-7-6/h4H2,1-3H3
