21
gdb 40742	3.26478	1.30305	1.21771	1.5974	81.27	-0.2375	0.0779	0.3153	1135.5063	0.183762	-387.041942	-387.033957	-387.033013	-387.074802	31.421	
C	-0.4070828002	 1.3331865933	-0.1371405674	-0.258124
C	 1.01787155	 1.0694832929	 0.2803027677	-0.275791
C	 0.0851134155	-0.0848152962	 0.0088827893	-0.014788
C	-0.3514228785	-0.9673649684	 1.1486781969	 0.123216
O	-0.7229424065	-0.2357231925	 2.3489953305	-0.317402
C	-1.9331921487	-1.011615824	 2.5045786078	 0.13154
C	-3.1868109962	-0.2974076907	 1.956862784	-0.231765
C	-2.9230871671	-0.9395964431	 0.5564728489	-0.233214
C	-1.705356912	-1.7132900026	 1.1371243078	-0.110346
H	-1.0756890399	 1.7090519195	 0.6276603499	 0.126067
H	-0.5952629183	 1.7113375678	-1.1359851364	 0.104954
H	 1.8150037618	 1.2655334881	-0.42806358	 0.107121
H	 1.2707419621	 1.267566309	 1.3160901997	 0.128068
H	 0.2618855115	-0.6391159997	-0.9101423376	 0.082911
H	 0.4660619357	-1.6657464671	 1.388437144	 0.072316
H	-1.9801339043	-1.5056378044	 3.4789977393	 0.072443
H	-4.1153591469	-0.6421989302	 2.4210460764	 0.098904
H	-3.1452274212	 0.7920665059	 2.0207519618	 0.109308
H	-3.7285326812	-1.5984013564	 0.2246984737	 0.100655
H	-2.6900045769	-0.2471345118	-0.2537626991	 0.114639
H	-1.6742529688	-2.7923998895	 0.9914576131	 0.069289
81.7111	90.0265	164.2567	221.2167	301.1088	373.1611	442.0581	571.9191	658.8756	731.6471	758.8415	792.0824	812.4699	826.8962	841.7074	885.244	920.7214	929.6695	943.8555	970.1652	1001.6798	1024.797	1058.2878	1069.092	1079.5843	1087.4503	1127.6474	1131.8688	1148.8651	1175.1536	1202.0923	1204.9503	1226.6663	1236.3128	1260.3191	1273.5023	1305.0167	1309.0212	1335.1068	1383.5919	1408.1777	1455.1968	1463.9988	1488.6496	1499.0549	2968.8203	3054.9386	3068.7287	3074.7447	3111.0463	3115.1011	3132.1172	3132.4852	3135.3906	3142.1359	3218.5698	3234.3273
C1CC1C1OC2CCC12	C1CC1[C@H]1O[C@H]2CC[C@@H]12	
InChI=1S/C8H12O/c1-2-5(1)8-6-3-4-7(6)9-8/h5-8H,1-4H2	InChI=1S/C8H12O/c1-2-5(1)8-6-3-4-7(6)9-8/h5-8H,1-4H2/t6-,7+,8-/m1/s1
