19
gdb 79165	2.55138	1.84391	1.42324	2.9919	77.61	-0.2307	-0.0091	0.2216	981.7086	0.160919	-385.892974	-385.885545	-385.884601	-385.924678	29.825	
C	-0.3463475075	 1.5358338699	 0.0715564872	-0.40218
C	 0.0211395618	 0.0518122113	-0.031248218	-0.11081
C	 0.7548079229	-0.4141170803	-1.2784139345	-0.052509
C	 2.2302370723	-0.1058389922	-1.4960333902	-0.065415
C	 2.9443782933	 0.2264764439	-0.1870336494	-0.246115
C	 2.2013165513	-0.9920445838	 0.4835484833	-0.154755
C	 1.7921755026	-1.4535512964	-0.942545052	-0.09606
C	 0.9431116701	-0.4186243317	 1.1165532759	 0.412377
O	 0.7098548515	-0.3003061787	 2.2922535166	-0.337335
H	 0.5253624273	 2.1754675878	-0.0970521281	 0.121373
H	-1.1053453044	 1.8041869355	-0.6697413204	 0.113992
H	-0.7440124058	 1.7531858634	 1.067032385	 0.137064
H	-0.9011154873	-0.5391041379	 0.0653101203	 0.101763
H	 0.1871789758	-0.5516810191	-2.1924671519	 0.088609
H	 2.5968385892	 0.1289056984	-2.4883906861	 0.087044
H	 4.0136378664	 0.0134976753	-0.2549307605	 0.115977
H	 2.8093922222	 1.2172270334	 0.2603528814	 0.106737
H	 2.789108296	-1.6305867928	 1.1382574172	 0.087766
H	 1.8567742422	-2.4503732763	-1.3565582959	 0.092476
102.61	198.1624	214.5257	234.239	334.4048	456.2586	480.365	569.7787	633.8122	702.4549	732.6741	774.8176	791.8796	809.1472	877.6422	906.0156	943.4145	964.4181	974.7876	987.3756	1001.2966	1059.8416	1071.3375	1083.0091	1110.8075	1118.1014	1140.3597	1175.3689	1200.6318	1233.6189	1253.4979	1278.1359	1296.0318	1310.7937	1346.893	1397.4741	1411.2079	1492.3465	1497.9842	1504.0552	1841.1122	3007.6055	3037.7245	3041.1533	3103.0987	3107.6507	3118.3757	3149.2546	3169.1312	3179.9264	3208.453
CC1C2C3CC(C23)C1=O	C[C@H]1[C@H]2[C@H]3C[C@H]([C@@H]23)C1=O	
InChI=1S/C8H10O/c1-3-6-4-2-5(7(4)6)8(3)9/h3-7H,2H2,1H3	InChI=1S/C8H10O/c1-3-6-4-2-5(7(4)6)8(3)9/h3-7H,2H2,1H3/t3-,4+,5+,6-,7-/m0/s1
