23
gdb 58914	2.71792	1.51679	1.19261	0.2549	89.57	-0.2768	0.0881	0.3649	1156.0898	0.205885	-351.088836	-351.080249	-351.079305	-351.121832	34.474	
C	-0.0522935169	 1.5649355615	 0.054564739	-0.38943
C	-0.0443177315	 0.0279676491	 0.0159428923	-0.108834
C	 0.8381969823	-0.5379764567	 1.1380763791	-0.395203
C	-1.4607918964	-0.5140018551	 0.0101084502	 0.399171
C	-2.540717161	-0.2028396389	-1.0560179758	-0.313902
C	-3.242527659	-1.1564367462	-0.081465651	-0.040765
C	-1.9510798683	-2.0111538727	 0.1489195733	-0.09648
C	-2.1024335938	-1.9259825224	 1.6816680228	-0.268309
C	-2.5370523759	-0.5364390878	 1.1724945655	-0.08057
H	 0.9663165395	 1.9617015403	-0.0082061545	 0.108088
H	-0.6281279825	 1.9859279058	-0.7750139135	 0.115751
H	-0.4953155006	 1.9289867602	 0.9887953679	 0.11373
H	 0.4039461675	-0.2768427376	-0.9420790259	 0.072109
H	 1.860209124	-0.1552058045	 1.0472615854	 0.106946
H	 0.4638255533	-0.2438880905	 2.1246048161	 0.117655
H	 0.8868950881	-1.6303565181	 1.1051670445	 0.117024
H	-2.9168509275	 0.8251790331	-1.0961669182	 0.087093
H	-2.3510825404	-0.5796858899	-2.0677178022	 0.084301
H	-4.2620086625	-1.5449709267	-0.1039090726	 0.065747
H	-1.6237365397	-2.8505740609	-0.4685382323	 0.06292
H	-2.8973153479	-2.5430890064	 2.114884219	 0.085401
H	-1.1990970563	-1.990204046	 2.2915709163	 0.09346
H	-2.8910829043	 0.3274660006	 1.7387948846	 0.064096
57.0795	181.718	198.0056	228.7706	282.034	319.054	343.5286	401.9002	463.1867	472.3232	605.8977	723.111	766.3333	860.3096	862.9354	875.9687	884.1669	908.0754	920.64	930.0133	961.7886	984.5329	993.5363	1027.0953	1034.594	1061.6352	1073.3882	1121.3254	1134.235	1147.0907	1159.755	1162.0917	1177.0308	1189.7375	1222.6478	1240.2183	1255.6817	1279.7803	1329.3872	1345.4924	1368.8646	1397.1587	1419.4432	1486.3645	1491.2837	1502.6661	1505.6853	1511.3415	1518.3273	2986.3717	3025.9073	3028.2575	3032.3852	3041.4569	3081.3816	3085.2351	3087.6343	3092.57	3097.5353	3103.1418	3105.4434	3107.2423	3111.4562
CC(C)C12CC3C1CC23	CC(C)[C@@]12C[C@H]3[C@@H]1C[C@@H]23	
InChI=1S/C9H14/c1-5(2)9-4-6-7(9)3-8(6)9/h5-8H,3-4H2,1-2H3	InChI=1S/C9H14/c1-5(2)9-4-6-7(9)3-8(6)9/h5-8H,3-4H2,1-2H3/t6-,7-,8+,9-
