19
gdb 84152	2.4823	1.54834	1.07539	2.4971	77.23	-0.2435	0.0161	0.2596	1152.8686	0.159606	-423.026897	-423.01857	-423.017626	-423.059663	32.276	
C	-0.2947023085	 1.5281063396	 0.0259323292	-0.474326
C	-0.0295095067	 0.0476960385	-0.0199416627	 0.317034
C	-0.2595280837	-0.683265497	-1.1125686825	-0.188879
C	-0.0152903005	-2.1608263802	-1.259011913	 0.065872
O	 0.6822531658	-2.4462388355	-2.4722142033	-0.436264
C	 0.7262131099	-2.7643390692	-0.0860035082	 0.00207
O	 2.0271767037	-2.1978172942	 0.1392186171	-0.268362
C	 1.0069255809	-1.972713051	 1.1182192792	 0.058504
C	 0.5011972437	-0.5579152779	 1.2575395078	-0.342478
H	 0.6262854852	 2.0863272268	 0.2379583869	 0.1268
H	-0.7059935195	 1.8935912153	-0.9182418784	 0.125148
H	-1.0019316188	 1.780440892	 0.8268020388	 0.122605
H	-0.6437559775	-0.2061756312	-2.0114048363	 0.088658
H	-0.975410434	-2.6840666437	-1.3661278787	 0.092245
H	 1.5657250677	-2.0732386206	-2.3606305895	 0.288395
H	 0.699641755	-3.8515581706	-0.0222388527	 0.097141
H	 1.1771216375	-2.5034008133	 2.0554791979	 0.090714
H	 1.3088736242	 0.0715172783	 1.6577674051	 0.118469
H	-0.2850119844	-0.5427139062	 2.0271217231	 0.116652
91.5016	148.9699	195.8542	221.0667	309.8037	348.2563	395.8262	433.0289	455.4093	483.467	498.0348	656.4596	738.1085	779.2568	842.	861.6308	906.0858	925.8594	945.1601	1000.6988	1028.8495	1045.6444	1068.2179	1093.8831	1127.8384	1150.8281	1170.4655	1243.6324	1262.8287	1287.1603	1322.135	1359.6624	1373.737	1396.5623	1412.8937	1428.9795	1461.4854	1476.8849	1478.8266	1490.6664	1743.0266	3000.0534	3015.6652	3017.2791	3026.1181	3061.2782	3103.1501	3116.0094	3122.1893	3154.3123	3782.0626
CC1=CC(O)C2OC2C1	CC1=C[C@@H](O)[C@H]2O[C@H]2C1	
InChI=1S/C7H10O2/c1-4-2-5(8)7-6(3-4)9-7/h2,5-8H,3H2,1H3	InChI=1S/C7H10O2/c1-4-2-5(8)7-6(3-4)9-7/h2,5-8H,3H2,1H3/t5-,6+,7-/m1/s1
