17
gdb 30775	3.02661	1.36627	0.96993	2.4586	71.45	-0.1926	0.0438	0.2364	1184.3021	0.136952	-455.176029	-455.167168	-455.166224	-455.210126	31.955	
C	 0.0801145999	 1.4089940422	 0.0984995183	-0.335601
N	 0.0567201583	-0.0354936411	-0.00180718	-0.057157
C	-0.0267578419	-0.8080984869	-1.1391728311	-0.02673
N	-0.0083081524	-2.0898875647	-0.8719718112	-0.328239
C	 0.0809147612	-2.1817474211	 0.5024503443	 0.105152
C	 0.1182708017	-3.452008353	 1.2883113245	-0.196235
O	 0.8343415148	-3.2576515829	 2.5262574243	-0.423752
C	 0.1228600966	-0.9198298047	 1.042838329	 0.305827
O	 0.225979746	-0.473262299	 2.3127166586	-0.447539
H	 0.0833219895	 1.8296120763	-0.9084992405	 0.141824
H	-0.7979474016	 1.779951708	 0.635586609	 0.14897
H	 0.9765294792	 1.7449885345	 0.6272623717	 0.149068
H	-0.0928686887	-0.3580349166	-2.1185341144	 0.122258
H	-0.8795059524	-3.7829166493	 1.600236203	 0.124738
H	 0.5580643236	-4.262196527	 0.6932320106	 0.12111
H	 1.7610891037	-3.1295968564	 2.2933187896	 0.290245
H	 0.3833649427	-1.2734320684	 2.8436579942	 0.306062
56.681	90.6007	140.4693	195.0847	261.2229	264.2161	310.5504	380.6376	434.2873	509.6619	624.9914	644.8724	680.3759	697.7717	749.3184	758.6126	801.113	971.0814	1013.6726	1047.9855	1074.7347	1154.5267	1169.474	1225.9434	1271.938	1300.1806	1343.7974	1366.226	1394.1565	1420.7104	1456.5217	1479.5914	1498.557	1507.3923	1518.6273	1575.2618	1644.6063	3022.6892	3045.5837	3058.72	3107.6669	3141.876	3247.0758	3656.5495	3799.147
CN1C=NC(CO)=C1O	Cn1cnc(CO)c1O	
InChI=1S/C5H8N2O2/c1-7-3-6-4(2-8)5(7)9/h3,8-9H,2H2,1H3	InChI=1S/C5H8N2O2/c1-7-3-6-4(2-8)5(7)9/h3,8-9H,2H2,1H3
