19
gdb 33649	2.79565	1.48159	1.48139	0.7081	86.76	-0.2389	0.0411	0.28	1021.8005	0.160481	-348.687552	-348.680153	-348.679209	-348.719017	30.56	
C	 0.0004594854	-1.2196714376	-0.0364956619	-0.353878
C	-0.0069807911	-0.0148733384	-0.0155308027	-0.012759
C	-0.015951383	 1.4067628937	 0.0096421453	 0.35319
C	-0.6512420827	 2.3332370924	 1.1319009603	-0.098364
C	 0.7278903294	 3.0067492099	 1.3267092513	-0.228056
C	 1.2496356578	 2.3657026691	 0.0188338994	-0.098412
C	 0.7121249021	 3.0519395122	-1.2594196493	-0.227952
C	-0.6650721737	 2.3726517588	-1.0708101732	-0.098481
C	-1.519640222	 3.0147776558	 0.0480674523	-0.228018
H	 0.006330449	-2.280924048	-0.0549547164	 0.173921
H	-1.1546717669	 1.9395298712	 2.0144752596	 0.076559
H	 0.750919517	 4.099347938	 1.3978721259	 0.090849
H	 1.2441932538	 2.5886995076	 2.1958617672	 0.105509
H	 2.2753149299	 1.9979777281	 0.0061238109	 0.076586
H	 0.7352554346	 4.1463447716	-1.2930690094	 0.090817
H	 1.2169207871	 2.6639514526	-2.149043818	 0.105534
H	-1.1800862757	 2.0105247864	-1.9601916613	 0.076596
H	-2.5328862281	 2.6023133521	 0.0470021085	 0.105508
H	-1.5866484031	 4.1077096045	 0.0683257916	 0.090852
135.9592	136.695	305.1012	307.534	381.978	484.8299	485.094	538.1995	607.1255	607.1314	616.3443	616.6433	810.9796	828.0446	829.0634	915.5194	916.5088	939.2272	945.992	989.6401	990.92	1034.2215	1034.781	1068.3641	1117.8923	1118.3436	1123.5876	1165.2366	1206.2162	1206.8306	1239.6807	1284.5358	1287.7797	1288.6249	1305.0457	1334.5985	1334.8672	1477.5913	1478.4275	1495.0946	2221.7756	3038.8167	3038.948	3042.8101	3091.3063	3091.4032	3091.6484	3109.0737	3109.2198	3114.4675	3503.2317
C#CC12C3CC1CC2C3	C#C[C@@]12[C@H]3C[C@@H]1C[C@@H]2C3	
InChI=1S/C9H10/c1-2-9-6-3-7(9)5-8(9)4-6/h1,6-8H,3-5H2	InChI=1S/C9H10/c1-2-9-6-3-7(9)5-8(9)4-6/h1,6-8H,3-5H2/t6-,7+,8-,9+
