15
gdb 20283	5.43539	2.12005	2.01974	3.0347	62.82	-0.2301	0.0772	0.3072	693.571	0.121456	-362.556557	-362.55139	-362.550446	-362.58549	22.21	
N	-0.0236791805	 1.4751238035	-0.0459760218	-0.33594
C	 1.296186238	 0.793865644	 0.0301881136	-0.07433
C	 0.0475388597	-0.0080212335	 0.0386895967	-0.07433
C	 0.0891328151	-0.671757636	-1.3229689383	-0.037625
C	 0.6881293951	 0.3424099975	-2.3408580398	 0.059741
O	 1.3764655498	-0.737172135	-3.0709048086	-0.321041
C	 1.5810469411	-1.0407423811	-1.6573867208	 0.048071
C	 1.8693152034	 0.4714810565	-1.3350890982	-0.037626
H	-0.2522467534	 1.8408211226	 0.8772863649	 0.229505
H	 1.9231591293	 0.9252098141	 0.904239477	 0.093655
H	-0.3242639552	-0.5180943088	 0.9195414655	 0.093655
H	-0.7022894672	-1.3396258256	-1.6577600161	 0.081706
H	 0.1879570334	 1.1151101932	-2.9199043713	 0.102495
H	 2.1561033632	-1.9335213361	-1.4062222634	 0.090358
H	 2.8026008183	 0.9112242147	-1.6816232095	 0.081706
286.3973	365.7717	502.3789	551.7953	686.6418	708.3273	761.387	781.5322	844.003	854.93	871.9295	891.3365	907.1707	908.7767	975.0755	980.1248	994.9045	999.8247	1071.9353	1121.4229	1121.7183	1127.7555	1156.8566	1163.981	1187.702	1225.3635	1226.9677	1259.5832	1275.0509	1355.2509	1359.1258	1404.1123	3103.9928	3139.9105	3142.3914	3153.3036	3176.727	3186.7459	3481.0317
N1C2C1C1C3OC1C23	N1[C@H]2[C@@H]1[C@H]1[C@@H]3O[C@H]1[C@H]23	
InChI=1S/C6H7NO/c7-3-1-5-2(4(3)7)6(1)8-5/h1-7H	InChI=1S/C6H7NO/c7-3-1-5-2(4(3)7)6(1)8-5/h1-7H/t1-,2+,3-,4+,5-,6+
