20
gdb 22909	3.1256	1.11444	0.91577	1.7108	78.23	-0.2393	0.0095	0.2488	1298.7944	0.170144	-440.261402	-440.25196	-440.251016	-440.295487	35.67	
C	 0.1533756053	 1.6539189851	 0.0081177791	-0.389169
C	 0.0247614927	 0.1198985917	 0.0280931763	-0.088274
C	 0.705564684	-0.5662302861	-1.1791057971	 0.128453
O	 0.5069364959	 0.1916168293	-2.3567981264	-0.43681
C	 2.178682325	-0.7269714763	-0.7506845583	-0.265993
C	 2.0950230675	-1.0886964201	 0.7439332219	-0.301722
C	 0.7739382341	-0.4953213896	 1.1946145919	 0.403141
N	 0.2841589888	-0.4923371684	 2.3683431885	-0.234226
O	 1.1616247318	-1.1053843432	 3.2852247442	-0.397327
H	 1.1992490166	 1.9764092091	-0.0054414605	 0.112816
H	-0.3356488258	 2.06470821	-0.877600012	 0.132284
H	-0.313874044	 2.0700601063	 0.904330015	 0.123778
H	-1.0373005979	-0.1352791743	 0.0763383082	 0.091584
H	 0.2627680844	-1.569758861	-1.2931010901	 0.068773
H	 0.9305970664	-0.271466189	-3.0858587704	 0.284008
H	 2.7112255687	-1.4757709107	-1.344778889	 0.091466
H	 2.6894710881	 0.2311028903	-0.8936158393	 0.113521
H	 2.0745284243	-2.1729011259	 0.9086397964	 0.12796
H	 2.9300783938	-0.7104671538	 1.3401170028	 0.131152
H	 0.6701587904	-1.0367012634	 4.1103853591	 0.304584
58.5819	160.2653	171.5299	209.8784	236.3143	260.4837	263.0165	349.9839	361.2835	421.6618	450.7466	536.6855	571.0003	603.4922	676.2261	785.0613	817.2298	839.0553	940.771	978.0648	995.7764	1004.872	1034.7878	1061.9638	1111.4739	1125.6414	1181.1004	1196.5535	1228.7104	1260.2732	1273.4456	1294.0482	1316.281	1349.9083	1374.8834	1392.3815	1404.9042	1433.9214	1465.8546	1490.8233	1497.2267	1504.5654	1751.5528	2957.3967	3040.809	3044.7937	3049.9163	3070.1337	3085.02	3097.086	3115.983	3135.5673	3820.6137	3824.9784
CC1C(O)CCC1=NO	C[C@H]1[C@@H](O)CCC1=NO	
InChI=1S/C6H11NO2/c1-4-5(7-9)2-3-6(4)8/h4,6,8-9H,2-3H2,1H3	InChI=1S/C6H11NO2/c1-4-5(7-9)2-3-6(4)8/h4,6,8-9H,2-3H2,1H3/t4-,6+/m1/s1
