17
gdb 22352	2.44062	1.36979	0.92136	2.7203	73.85	-0.2588	-0.0139	0.245	1233.813	0.135008	-455.130912	-455.122113	-455.121169	-455.165197	32.295	
C	-0.2098664606	 1.6065983928	 0.1240594238	-0.390272
C	 0.0955136213	 0.1194402711	 0.0128055093	 0.047841
O	 0.9701208948	-0.1260810007	-1.1062119776	-0.252505
C	 2.0849099839	-0.8433233705	-0.7654347173	 0.406188
N	 2.9836590813	-1.1938225239	-1.5773634964	-0.535111
C	 2.0789274819	-1.1463730674	 0.7164286035	-0.416503
C	 0.8345176758	-0.4668167203	 1.2009845251	 0.371309
N	 0.3881404118	-0.3389682691	 2.3824174193	-0.225533
O	 1.2315128826	-0.9626026623	 3.311212412	-0.384472
H	 0.7097055666	 2.1773198688	 0.2802563617	 0.127434
H	-0.6962123037	 1.9638534383	-0.7872780527	 0.129588
H	-0.8747634013	 1.7772108022	 0.9745712057	 0.141438
H	-0.8322796628	-0.4380120119	-0.1708520963	 0.114193
H	 2.759540387	-0.8727158681	-2.5208019215	 0.223581
H	 2.0572325189	-2.2257068158	 0.9007045774	 0.164567
H	 2.9789267138	-0.7681119818	 1.2097129139	 0.166665
H	 0.7880509988	-0.7848115416	 4.1479725902	 0.311592
41.4887	85.7121	173.7093	202.8665	234.9152	308.3464	376.3806	429.4206	467.332	497.9073	528.5908	555.1816	635.7887	699.2837	815.9056	856.3073	893.6697	939.6901	948.8301	993.7474	1026.4387	1082.3052	1117.6473	1122.905	1150.1787	1234.5085	1254.1236	1292.3906	1354.2394	1376.0985	1401.638	1411.8308	1441.4916	1485.8964	1492.9241	1765.3609	1786.9424	3020.25	3049.3131	3061.9655	3096.692	3128.3433	3134.3951	3474.255	3814.2391
CC1OC(=N)CC1=NO	C[C@H]1O[C]([NH])CC1=NO	
InChI=1S/C5H8N2O2/c1-3-4(7-8)2-5(6)9-3/h3,6,8H,2H2,1H3	InChI=1S/C5H8N2O2/c1-3-4(7-8)2-5(6)9-3/h3,6,8H,2H2,1H3/t3-/m1/s1
