18
gdb 41887	3.08077	1.56231	1.13601	0.7996	71.27	-0.244	0.0139	0.2579	1053.4364	0.150639	-439.064231	-439.056893	-439.055949	-439.09628	28.195	
C	 0.1609354803	 1.5955894057	 0.156556755	-0.092575
O	 1.4750881908	 1.4735069136	-0.4386685609	-0.293812
C	 1.3077831097	 0.0529894283	-0.6262395326	 0.123859
C	 2.4127355808	-0.7480730224	 0.0401378858	-0.108123
O	 2.1290695368	-2.1546058144	-0.0063183813	-0.22789
C	 1.0620725481	-2.6493239916	 0.6799509729	 0.140629
N	 0.1094396522	-2.1163686346	 1.3122644486	-0.264073
C	-0.0971406928	-0.6749694995	 1.4334672089	-0.192063
C	-0.058757696	 0.0675041117	 0.099948515	-0.066086
H	 0.2049379007	 2.0410470047	 1.1582666049	 0.105682
H	-0.511508477	 2.1937229387	-0.4696497416	 0.106248
H	 1.2526053942	-0.2102988655	-1.6908115016	 0.086148
H	 3.3575490968	-0.6251972831	-0.4949526264	 0.125243
H	 2.5663632795	-0.4225923395	 1.0730996971	 0.119608
H	 1.1119784919	-3.7367490292	 0.6181163969	 0.124107
H	-1.0792646431	-0.5250856759	 1.8958230184	 0.110257
H	 0.6275773782	-0.2404566746	 2.134109055	 0.111238
H	-0.8938154212	-0.2521607324	-0.5265171143	 0.091604
78.8661	179.7235	221.713	272.073	353.0827	383.1703	415.8752	516.291	593.4467	746.9915	789.5653	835.2733	876.777	933.9725	952.8563	977.4364	993.5511	995.5794	1023.5109	1044.8575	1070.0245	1144.6572	1152.0634	1166.9634	1180.847	1239.7644	1258.008	1267.0928	1278.7003	1344.3203	1349.2263	1383.1702	1390.461	1409.8887	1431.9446	1496.316	1525.1305	1530.1503	1749.221	3012.6414	3014.6739	3021.733	3050.0636	3058.4075	3065.3904	3093.5014	3114.3445	3139.4224
C1OC2COC=NCC12	C1O[C@H]2COC=NC[C@@H]12	
InChI=1S/C6H9NO2/c1-5-2-9-6(5)3-8-4-7-1/h4-6H,1-3H2	InChI=1S/C6H9NO2/c1-5-2-9-6(5)3-8-4-7-1/h4-6H,1-3H2/t5-,6-/m0/s1
