19
gdb 57370	2.13494	1.575	1.22236	1.3603	77.11	-0.2606	0.0176	0.2782	1114.8532	0.154879	-422.97612	-422.966246	-422.965302	-423.010063	37.75	
C	-0.2871284092	 1.4779664123	-0.0511007151	-0.430469
C	 0.0504955333	-0.0138146685	 0.0891797761	 0.243364
C	 0.9346229786	-0.2831739868	 1.3058938785	-0.405474
O	-1.1412846746	-0.7642145675	 0.277815532	-0.462936
C	 0.742042545	-0.5152172273	-1.2015547236	 0.206636
C	 0.5314236578	-1.9067182856	-1.6442444996	-0.22521
O	-0.1949737839	-0.8328584392	-2.2547151358	-0.300359
C	 1.9364967287	 0.1778455316	-1.6198527647	 0.262457
C	 2.9389936685	 0.7606042823	-1.9373888086	-0.379346
H	 0.6147944164	 2.0853969188	-0.1609692817	 0.127828
H	-0.9177100289	 1.645273545	-0.9307568197	 0.121142
H	-0.8345745671	 1.8099268502	 0.8347350294	 0.122047
H	 0.431014547	 0.0665721817	 2.2111514709	 0.125871
H	 1.1225172911	-1.355235108	 1.410667466	 0.12123
H	 1.8921446254	 0.2353102851	 1.2141487159	 0.127726
H	-1.6254360062	-0.7146646504	-0.5574585828	 0.286951
H	 1.2783947087	-2.3760575632	-2.2801200593	 0.126143
H	-0.0608751048	-2.5638416307	-1.0137014944	 0.134266
H	 3.8222263342	 1.2740332801	-2.2284886834	 0.198134
76.6419	143.1964	182.0871	203.6856	244.0665	261.1584	292.3862	314.3355	364.8222	394.9403	464.5849	484.148	501.8335	543.7962	596.4431	623.1246	626.515	668.5116	821.9853	871.276	895.9569	934.9703	954.5003	987.3256	1019.4028	1128.3213	1135.2398	1164.3888	1179.8121	1221.9975	1264.5226	1351.2923	1384.4395	1401.7517	1419.3298	1478.3156	1483.3921	1497.7266	1500.2944	1505.6242	2236.1422	3040.4628	3049.0152	3105.3828	3112.8384	3121.9592	3128.3674	3133.5998	3206.3679	3499.2286	3762.5389
CC(C)(O)C1(CO1)C#C	CC(C)(O)[C@]1(CO1)C#C	
InChI=1S/C7H10O2/c1-4-7(5-9-7)6(2,3)8/h1,8H,5H2,2-3H3	InChI=1S/C7H10O2/c1-4-7(5-9-7)6(2,3)8/h1,8H,5H2,2-3H3/t7-/m1/s1
