18
gdb 128125	3.18513	1.22436	0.90137	4.533	77.48	-0.1982	0.0258	0.224	1295.4821	0.147038	-435.25746	-435.247604	-435.24666	-435.292406	34.836	
C	 0.1060031034	 1.4414045733	 0.0335206954	-0.329653
N	-0.0934103596	-0.0004352475	 0.0927370986	-0.392194
C	 0.5279090216	-0.749125145	 1.0534365917	 0.505344
C	 0.7348287958	-2.1053053161	 1.155729734	-0.137131
N	 0.3879760632	-3.1527099329	 0.263364295	-0.622715
C	 1.3693065175	-2.2402814842	 2.4237580171	 0.409253
C	 1.8283511128	-3.5041220541	 3.0742668308	-0.48222
N	 1.5386914092	-1.0886923995	 3.0290058533	-0.25219
O	 0.9894777887	-0.1200052339	 2.1352390982	-0.235057
H	 1.1396551356	 1.7273651423	-0.2061851701	 0.127215
H	-0.5613037626	 1.8549449706	-0.7255446115	 0.128139
H	-0.1523550416	 1.8824321777	 0.9980946526	 0.16089
H	-0.146794598	-0.4715433124	-0.7981793792	 0.239746
H	-0.5933750117	-3.14405844	 0.0082156336	 0.236424
H	 0.9383936914	-3.1551576173	-0.5889777304	 0.233674
H	 2.6099790881	-3.9862696424	 2.4783606804	 0.132687
H	 2.2220116371	-3.2951272545	 4.0706967971	 0.140598
H	 1.0019570091	-4.2167316841	 3.1545403733	 0.13719
72.4544	97.3233	124.4581	173.1737	177.7963	190.598	236.9951	300.8265	327.0112	373.7841	495.2232	550.8842	625.9525	657.6542	725.5803	739.132	741.5301	780.9326	896.1057	1005.1937	1022.59	1066.1158	1113.1007	1153.283	1164.6964	1209.1758	1259.3599	1365.8994	1412.0925	1444.0502	1465.3056	1474.5249	1478.0081	1487.0494	1508.5709	1519.4258	1573.8476	1654.8561	1673.7808	3007.5572	3046.0794	3099.583	3102.9533	3140.5477	3141.2402	3494.2366	3566.5656	3605.316
CNC1=C(N)C(C)=NO1	CNc1c(N)c(C)no1	
InChI=1S/C5H9N3O/c1-3-4(6)5(7-2)9-8-3/h7H,6H2,1-2H3	InChI=1S/C5H9N3O/c1-3-4(6)5(7-2)9-8-3/h7H,6H2,1-2H3
