20
gdb 22727	2.99745	1.1219	0.90584	0.7614	83.91	-0.2402	0.0074	0.2475	1328.9171	0.169074	-403.085966	-403.076666	-403.075722	-403.120269	35.217	
C	-0.3767098468	 1.2890355832	-0.0816758921	-0.399158
C	-0.0218726841	-0.1935747936	-0.0260583754	-0.152457
C	 1.1740289405	-0.655994939	-0.845639281	 0.418045
C	 1.8820020271	-1.292162306	 0.3353299523	-0.408442
C	 0.7402282834	-0.740005453	 1.2129452724	 0.361476
C	 0.8983769212	-0.0560273284	 2.5383481111	-0.318605
C	 0.1519245951	-1.3682494141	 2.4381043025	-0.3247
N	 1.4299471346	-0.4713086924	-2.0709458711	-0.241916
O	 2.6725422554	-1.0388605379	-2.4180396101	-0.393882
H	 0.4949729591	 1.9106418897	 0.1438689469	 0.119194
H	-0.7351087756	 1.5579193823	-1.0794842625	 0.130841
H	-1.1655195879	 1.5317307537	 0.6386632108	 0.111924
H	-0.9124423782	-0.7965106056	-0.2466650095	 0.091273
H	 1.9436884283	-2.3845919906	 0.2780905553	 0.123726
H	 2.8861332286	-0.9026976368	 0.5316079333	 0.125757
H	 1.881435416	-0.0590084087	 2.998777205	 0.113049
H	 0.3229647408	 0.8447496347	 2.726494179	 0.114481
H	-0.9275428694	-1.3494594113	 2.554478047	 0.11185
H	 0.6260207337	-2.2607812351	 2.8345111095	 0.112523
H	 2.7394353984	-0.8206377909	-3.3536959435	 0.305023
39.6937	146.6108	176.1213	202.2225	218.3371	264.6253	318.5417	353.1322	376.2238	469.4629	472.5701	511.2874	625.1514	725.4629	775.365	810.9364	843.8268	884.0132	916.3351	962.3861	972.9767	985.4456	1045.8502	1048.5952	1064.5908	1078.477	1127.1387	1134.0405	1172.9538	1188.0163	1213.2089	1245.6339	1256.5105	1337.5969	1372.3763	1399.0419	1408.7544	1460.6438	1464.3514	1491.9703	1493.8222	1505.1492	1785.1602	3018.5018	3034.223	3040.462	3084.5257	3102.6836	3116.0743	3119.8452	3125.0674	3197.5074	3212.8484	3818.6767
CC1C(CC11CC1)=NO	C[C@H]1C(=NO)CC21CC2	
InChI=1S/C7H11NO/c1-5-6(8-9)4-7(5)2-3-7/h5,9H,2-4H2,1H3	InChI=1S/C7H11NO/c1-5-6(8-9)4-7(5)2-3-7/h5,9H,2-4H2,1H3/t5-/m0/s1
