18
gdb 81789	2.1323	1.92752	1.22645	2.8813	71.74	-0.2345	0.0651	0.2996	1047.2022	0.146584	-439.014952	-439.006527	-439.005583	-439.047686	32.379	
C	-0.0962298808	 1.5138584297	 0.0082252791	-0.517047
C	 0.1152738817	 0.0345503266	-0.0019100642	 0.240304
N	-0.7319752982	-0.9286564248	 0.7637209318	-0.399816
C	 0.7391987402	-0.9017873529	 0.9816171394	-0.157083
C	 1.2937454195	-1.8023119804	-0.139636691	 0.052828
O	 0.8872627204	-3.1397434369	-0.1509766306	-0.436576
C	 0.6481649346	-0.8081937664	-1.1485717118	 0.404122
C	 0.1771392203	-0.9980042023	-2.5143648428	-0.26906
O	 1.3789528359	-0.2529248375	-2.2243402486	-0.286854
H	 0.7518173626	 2.0188239976	-0.4635895248	 0.147121
H	-0.9998332285	 1.7893476256	-0.5475437035	 0.131733
H	-0.1997204813	 1.8935566987	 1.0301032744	 0.120449
H	-1.1651701926	-0.4119674481	 1.5287121531	 0.23213
H	 1.1567983975	-0.7092966605	 1.9623293391	 0.098595
H	 2.383453892	-1.776265075	-0.2213070554	 0.105243
H	-0.0596267284	-3.1209412886	 0.0453992753	 0.291396
H	 0.3362784941	-1.9577264414	-3.0026061565	 0.127342
H	-0.6555110491	-0.4073350334	-2.8928750829	 0.115172
101.7822	176.6059	189.5763	224.0203	229.5064	258.6906	376.5696	452.3456	492.5384	505.6599	583.4526	641.3765	679.6582	751.9208	837.738	867.3061	900.3535	923.154	970.4857	987.7274	1005.6644	1046.6848	1090.6397	1105.1225	1112.0485	1122.2749	1155.1942	1164.9288	1216.9993	1276.8005	1296.8131	1336.3181	1398.9523	1427.789	1437.0738	1470.6467	1481.2568	1499.5971	1539.2756	3030.1037	3087.8977	3091.8448	3092.406	3112.1084	3178.2964	3191.4236	3471.7253	3752.6821
CC12NC1C(O)C21CO1	C[C@]12N[C@H]1[C@@H](O)[C@]12CO1	
InChI=1S/C6H9NO2/c1-5-3(7-5)4(8)6(5)2-9-6/h3-4,7-8H,2H2,1H3	InChI=1S/C6H9NO2/c1-5-3(7-5)4(8)6(5)2-9-6/h3-4,7-8H,2H2,1H3/t3-,4+,5-,6-/m0/s1
