23
gdb 104414	2.39511	1.38191	1.198	1.933	80.83	-0.2431	0.0773	0.3204	1198.9697	0.204308	-425.428216	-425.418051	-425.417107	-425.463326	37.654	
C	-0.3152972485	 1.5197030953	-0.1499445528	-0.249421
O	-0.3096185873	 0.1096543105	-0.174617692	-0.290225
C	 0.604244196	-0.5060208301	-1.0705379433	 0.412351
C	 0.3267627944	-0.1244596287	-2.5304952323	-0.451357
C	 2.0926023482	-0.2797362999	-0.6901555858	-0.302349
C	 2.7610947925	-1.635756553	-1.0039696555	-0.079078
O	 1.7219868517	-2.5365608806	-1.3928856381	-0.269422
C	 0.4779076469	-2.0435698122	-0.9033563769	 0.075615
C	 0.1912672061	-2.5087849818	 0.523438537	-0.402618
H	 0.6792942038	 1.9360958426	 0.0660280899	 0.105672
H	-0.6769326617	 1.9573365336	-1.0906191619	 0.10975
H	-0.996421595	 1.8158439219	 0.6519163928	 0.12695
H	 0.5973316379	 0.9135445443	-2.7454844928	 0.11057
H	 0.9120386398	-0.7676778764	-3.1935249209	 0.135814
H	-0.7339745202	-0.2622304429	-2.7624654091	 0.12021
H	 2.5499198316	 0.5425844309	-1.2453590467	 0.101448
H	 2.1562453184	-0.0422355153	 0.3750230514	 0.112048
H	 3.4702602774	-1.5764047071	-1.8359511319	 0.104691
H	 3.3035942246	-2.0264655125	-0.1322275398	 0.097026
H	-0.2910987952	-2.4426101043	-1.5739424597	 0.078217
H	 0.9279640808	-2.121706615	 1.2341016665	 0.110622
H	-0.7949747257	-2.1687150531	 0.846373879	 0.128371
H	 0.2232096534	-3.6014026264	 0.557964513	 0.115117
47.8798	104.6069	132.494	186.5682	198.3947	214.4786	269.0858	304.8906	322.159	356.0605	417.4428	462.5364	492.3991	618.355	702.2907	751.7777	823.8422	873.8198	900.6438	931.6306	975.0265	992.1689	1025.728	1035.8176	1091.4973	1116.1487	1135.4514	1180.1714	1182.3428	1187.1342	1207.93	1233.6992	1243.2442	1270.6046	1298.3647	1339.4237	1382.5889	1392.6394	1399.9923	1405.8128	1477.9782	1481.9237	1487.9314	1488.5882	1494.4734	1498.6284	1506.7128	1512.4058	1532.4594	2991.2459	3004.5077	3036.7483	3043.3696	3045.7763	3047.6742	3061.2264	3063.1021	3107.1903	3109.1577	3112.4281	3115.6901	3120.1451	3134.5589
COC1(C)CCOC1C	CO[C@@]1(C)CCO[C@H]1C	
InChI=1S/C7H14O2/c1-6-7(2,8-3)4-5-9-6/h6H,4-5H2,1-3H3	InChI=1S/C7H14O2/c1-6-7(2,8-3)4-5-9-6/h6H,4-5H2,1-3H3/t6-,7-/m0/s1
