17
gdb 74350	3.2531	1.07017	0.86407	1.6283	77.93	-0.2491	-0.06	0.1891	1312.5657	0.134258	-421.880854	-421.871913	-421.870969	-421.915764	31.522	
C	-0.0216036578	 1.5061833289	 0.047202255	-0.492809
C	-0.0513018487	 0.0144134803	 0.0080197274	 0.210169
C	-1.0991046848	-0.8203362542	 0.048038323	-0.183052
C	-0.7217668518	-2.2890301272	-0.0005830175	-0.115991
C	 0.8126265596	-2.2616685251	-0.1639772623	-0.373975
C	 1.2042146554	-0.7783626131	-0.1098369338	 0.33564
O	 2.3260372406	-0.3324226979	-0.1582183764	-0.318385
C	-1.147685811	-2.9685005501	 1.2965559056	 0.155958
O	-2.0521168984	-3.752704017	 1.396070126	-0.241427
H	 0.5934473875	 1.852224037	 0.8849250619	 0.149015
H	 0.4469102819	 1.9033203852	-0.8597318157	 0.148144
H	-1.0224509872	 1.9330581767	 0.1434223635	 0.126041
H	-2.1384234374	-0.5173614094	 0.1247531486	 0.124298
H	-1.2400152904	-2.8051863422	-0.8147736754	 0.109371
H	 1.344415407	-2.8105629708	 0.6204548361	 0.137992
H	 1.1291313379	-2.6931175438	-1.1175769921	 0.146798
H	-0.5430517424	-2.6576608374	 2.180886756	 0.082214
47.3534	67.1921	96.4955	146.3579	250.9276	314.4908	325.2202	384.0966	419.0672	505.8753	602.4484	616.3901	728.9662	774.3382	869.6043	889.0091	936.8129	983.8159	1004.7163	1047.7631	1071.633	1076.4526	1087.8737	1186.1249	1210.7184	1250.6611	1285.9911	1294.9105	1344.8107	1413.0175	1417.2073	1447.8337	1472.0604	1481.2837	1691.2694	1815.5124	1836.5406	2858.6418	3039.6141	3058.3002	3065.1981	3094.1004	3104.527	3127.8562	3189.2125
CC1=CC(CC1=O)C=O	CC1=C[C@@H](CC1=O)C=O	
InChI=1S/C7H8O2/c1-5-2-6(4-8)3-7(5)9/h2,4,6H,3H2,1H3	InChI=1S/C7H8O2/c1-5-2-6(4-8)3-7(5)9/h2,4,6H,3H2,1H3/t6-/m0/s1
