23
gdb 92829	2.2095	1.60257	1.4522	0.3699	91.25	-0.22	0.025	0.2451	1106.1442	0.206597	-351.149107	-351.140408	-351.139464	-351.181687	35.239	
C	-0.1308067457	 1.5141739391	-0.072797602	-0.4
C	 0.015651656	-0.0090859441	-0.0353762827	-0.06023
C	 0.9890266581	-0.5083761061	-1.1649177231	-0.255354
C	 2.3374316701	-0.6286156087	-0.4608113983	-0.247391
C	 2.1350306677	-0.7175063578	 0.84842363	 0.299922
C	 2.6717465659	-0.333797822	 2.2071616616	-0.331917
C	 1.2518702501	 0.3031750683	 2.4535295071	-0.28762
C	 0.6912921847	-0.5640110597	 1.2569504515	 0.311558
C	 0.0064693662	-1.8378619225	 1.7643758169	-0.458506
H	 0.8444503462	 2.0100510248	-0.0138715915	 0.116841
H	-0.6044290447	 1.8309417971	-1.0080768388	 0.109069
H	-0.7467196531	 1.8812896213	 0.7548875797	 0.110321
H	-0.978660749	-0.4514572723	-0.1652714142	 0.058787
H	 0.6557321533	-1.4629121219	-1.5955000631	 0.099072
H	 1.0283095346	 0.2034547431	-1.9983676475	 0.094816
H	 3.2867728233	-0.5542483992	-0.979323456	 0.086722
H	 2.8536692781	-1.1848876207	 2.8715112364	 0.110721
H	 3.5427612881	 0.3250329805	 2.239284233	 0.107995
H	 0.8000412062	 0.1270792407	 3.4337732562	 0.09269
H	 1.2539948542	 1.3738837792	 2.2442365041	 0.106465
H	-0.9794145235	-1.6044432298	 2.183779956	 0.111017
H	-0.1359779664	-2.5597007912	 0.9529758287	 0.115625
H	 0.5923880197	-2.3300274882	 2.5480220361	 0.109394
95.6786	218.5746	234.2312	247.5864	257.1908	285.4795	312.571	352.661	431.4437	473.5961	577.723	646.8226	690.8498	749.7046	782.8647	810.9896	848.1583	885.1094	892.7553	912.8995	926.1695	965.7152	972.2202	1032.1505	1044.9566	1061.5233	1091.0222	1105.1008	1155.0821	1177.6954	1209.9181	1217.0377	1222.1677	1230.4944	1251.2981	1268.8296	1310.5689	1337.3238	1367.7902	1405.3216	1407.7004	1471.4396	1483.7994	1489.9212	1494.8699	1495.7959	1498.5811	1505.3713	1737.8529	3004.8407	3020.4528	3027.2923	3035.8717	3048.062	3049.2359	3060.0028	3085.9254	3094.0988	3095.7248	3097.452	3100.9789	3130.0899	3191.0496
CC1CC=C2CCC12C	C[C@H]1C[CH][C]2CC[C@@]12C	
InChI=1S/C9H14/c1-7-3-4-8-5-6-9(7,8)2/h4,7H,3,5-6H2,1-2H3	InChI=1S/C9H14/c1-7-3-4-8-5-6-9(7,8)2/h4,7H,3,5-6H2,1-2H3/t7-,9-/m0/s1
