19
gdb 107639	2.58086	1.50078	1.13582	2.2908	70.42	-0.2373	0.0483	0.2856	1103.2344	0.159483	-460.135434	-460.126842	-460.125898	-460.168519	32.981	
O	-0.2934283454	 1.3511397596	 0.869934879	-0.428643
C	-0.0771992095	 0.0827650752	 0.2693301361	-0.15085
C	-1.3747697636	-0.6138332051	-0.0434126072	 0.289955
C	-2.1672524223	-1.3101956302	 1.055753745	-0.360572
C	-1.6222224751	-2.0948524811	-0.1043783214	 0.046198
O	-2.4914593074	-2.4097955156	-1.1673815255	-0.25824
C	-3.1464300448	-1.2101745735	-1.5616453516	-0.126829
C	-2.206049877	-0.0416827034	-1.1740597538	 0.008501
O	-2.8903427164	 1.1335324892	-0.7408053166	-0.4309
H	-1.0834749631	 1.7257008728	 0.4603659739	 0.291409
H	 0.5183386119	 0.1824327404	-0.6551779809	 0.08037
H	 0.5191735671	-0.5062219248	 0.9757814972	 0.097828
H	-1.6595274436	-1.4152892405	 2.0086259854	 0.122222
H	-3.2355179171	-1.1445858607	 1.1342839176	 0.126443
H	-0.8536967494	-2.8474585577	 0.0270363444	 0.107919
H	-3.3495820253	-1.2768469727	-2.6343490207	 0.10815
H	-4.1022014394	-1.0764355464	-1.0350031146	 0.10733
H	-1.5340300325	 0.2074276507	-2.0088588582	 0.07844
H	-3.2449910072	 1.587133504	-1.5123877383	 0.291269
96.5281	115.9148	173.4132	254.9986	289.263	310.9841	364.5505	377.1277	423.3008	467.853	530.077	617.7358	694.5367	727.353	826.6016	907.534	927.0315	976.5551	993.4613	1013.038	1032.3282	1048.1593	1057.6929	1073.9279	1095.9634	1100.8211	1160.8926	1206.5419	1225.5004	1228.1452	1276.2163	1307.3083	1344.7727	1358.12	1364.7192	1397.4516	1437.8284	1458.4786	1487.9723	1513.889	1523.387	2948.0435	2989.0726	3004.8421	3050.7728	3084.8614	3139.062	3185.7959	3225.5203	3772.3369	3816.4951
OCC12CC1OCC2O	OC[C@]12C[C@H]1OC[C@H]2O	
InChI=1S/C6H10O3/c7-3-6-1-5(6)9-2-4(6)8/h4-5,7-8H,1-3H2	InChI=1S/C6H10O3/c7-3-6-1-5(6)9-2-4(6)8/h4-5,7-8H,1-3H2/t4-,5-,6+/m1/s1
