21
gdb 55167	3.04746	1.20648	1.15695	2.6203	82.05	-0.2358	-0.01	0.2258	1198.8732	0.182115	-387.087533	-387.078588	-387.077644	-387.122335	33.309	
C	-0.7012107019	 1.0612120279	 0.2673882437	-0.480969
C	 0.3449027424	-0.0132452126	 0.0259107074	 0.382304
O	 1.1496773317	-0.3225678304	 0.8783871098	-0.311212
C	 0.2935924564	-0.7065598574	-1.3178039111	-0.080715
C	 1.4662256933	-1.6397019437	-1.7213771676	-0.264253
C	 0.4633438451	-2.7823130448	-2.0574794926	-0.007556
C	 0.2858366659	-3.844758329	-0.9483233835	-0.218711
C	-0.7284055468	-2.9068055255	-0.2233630528	-0.236605
C	-0.6915396253	-1.9237043384	-1.4333451733	-0.040787
H	-0.4939157746	 1.9276060471	-0.3720874432	 0.139862
H	-1.69953668	 0.7000661349	-0.0035540738	 0.136973
H	-0.6864150552	 1.3726630918	 1.3125841082	 0.139938
H	 0.0558063999	 0.0237494904	-2.0981374518	 0.074319
H	 2.0659501537	-1.2790579837	-2.5595578217	 0.099494
H	 2.1308374829	-1.8610524701	-0.8829957873	 0.121589
H	 0.4525107335	-3.1159275258	-3.0959977161	 0.062235
H	-0.1816155238	-4.7633521361	-1.313558906	 0.097154
H	 1.1883038327	-4.115592601	-0.3929842413	 0.101617
H	-1.7098631023	-3.3512734841	-0.0438723696	 0.099922
H	-0.367294507	-2.4864896655	 0.7179108953	 0.121992
H	-1.6441906104	-1.7352099439	-1.9303944325	 0.063409
39.4643	58.9626	112.6423	151.5859	221.0301	336.8825	361.7496	381.0362	556.7921	589.6029	637.5792	719.2934	732.4823	753.9396	845.3808	886.9735	890.8233	906.5267	933.529	958.9653	981.8143	1010.0557	1032.3834	1055.3288	1079.0767	1111.2132	1141.2063	1174.6046	1192.8702	1208.3583	1218.3336	1255.3335	1257.5038	1270.3043	1289.2947	1304.7283	1319.4425	1362.6461	1382.4608	1461.9526	1473.4026	1474.886	1478.2678	1494.9606	1795.8284	3032.5214	3049.8426	3050.87	3066.6657	3067.4088	3085.2147	3093.2447	3096.4867	3099.2541	3121.0648	3125.5827	3149.6144
CC(=O)C1CC2CCC12	CC(=O)[C@H]1C[C@H]2CC[C@@H]12	
InChI=1S/C8H12O/c1-5(9)8-4-6-2-3-7(6)8/h6-8H,2-4H2,1H3	InChI=1S/C8H12O/c1-5(9)8-4-6-2-3-7(6)8/h6-8H,2-4H2,1H3/t6-,7-,8-/m1/s1
