18
gdb 88144	2.55161	1.52868	1.13982	2.4646	73.57	-0.2503	0.0278	0.2781	1097.3521	0.148575	-439.090583	-439.082324	-439.08138	-439.12345	31.433	
O	-0.1920380787	 1.4212949131	-0.164315694	-0.420288
C	-0.0923489959	 0.0322101321	-0.0689985241	 0.059814
C	-0.4341285509	-0.6576611543	 1.2189444694	-0.382359
C	-1.4038407591	-0.7175094085	 0.0629581846	 0.236135
C	-2.7460333711	-0.0134289455	 0.0125354	-0.327566
C	-3.3618580805	-0.630825398	-1.2525181304	-0.090578
O	-2.7486259027	-1.9277838194	-1.4021851628	-0.246892
C	-1.5721833458	-1.9789845181	-0.7125817205	 0.36646
N	-0.7555304443	-2.9442801666	-0.7344406575	-0.56483
H	 0.5134343323	 1.8088342211	 0.3638704785	 0.293715
H	 0.6590250096	-0.4311141062	-0.7061658873	 0.112058
H	 0.086036892	-1.5779529652	 1.4608612592	 0.145098
H	-0.7161968862	-0.0272169133	 2.0564086175	 0.113442
H	-3.3491955901	-0.2563279466	 0.8937288735	 0.113233
H	-2.6474674945	 1.0708790535	-0.0542114576	 0.133162
H	-4.4416951541	-0.7811651611	-1.1918829314	 0.119439
H	-3.1374391762	-0.0356579933	-2.1455261866	 0.118899
H	-1.0778347536	-3.679099474	-1.3648151906	 0.221058
87.4417	160.2512	174.1109	223.4596	239.8884	274.3052	395.1169	459.6986	513.8495	552.3338	685.2868	692.4717	723.2769	826.2954	849.3739	875.4382	911.1374	925.8007	961.8132	1005.5711	1036.8063	1049.2119	1071.7854	1109.9953	1120.1437	1170.4441	1203.5421	1220.3566	1248.6293	1282.7981	1299.7684	1324.5736	1353.3835	1403.4634	1423.9638	1472.9357	1495.2108	1523.8393	1768.7477	3036.8961	3050.6347	3108.2674	3123.2089	3127.8486	3129.0047	3227.8731	3485.7795	3810.8162
OC1CC11CCOC1=N	O[C@H]1C[C@]21CCO[C]2[NH]	
InChI=1S/C6H9NO2/c7-5-6(1-2-9-5)3-4(6)8/h4,7-8H,1-3H2	InChI=1S/C6H9NO2/c7-5-6(1-2-9-5)3-4(6)8/h4,7-8H,1-3H2/t4-,6-/m0/s1
