16
gdb 19242	3.09897	2.05395	1.59161	1.5252	69.46	-0.2549	0.0369	0.2919	843.5877	0.129796	-346.535874	-346.528308	-346.527364	-346.567489	29.039	
O	 0.1015187192	 1.3894702132	 0.2438992604	-0.429357
C	-0.032313603	 0.0146194101	 0.0365586089	 0.130669
C	-1.4158078838	-0.6416415818	 0.0406692799	-0.071829
C	-2.227189553	-0.2415147184	-1.1601693832	-0.297894
C	-1.1487722595	-1.2665136665	-1.3320129758	-0.041491
C	 0.2287493511	-0.5770595029	-1.4212864195	-0.260527
C	 0.4219792297	 0.4060287468	-2.469158639	 0.312466
C	 0.5511656873	 1.2870628877	-3.2800252829	-0.441954
H	-0.1783168655	 1.8436999775	-0.5601542515	 0.284627
H	 0.6322732383	-0.4734406884	 0.7539076729	 0.096801
H	-1.8776868104	-1.0908858049	 0.9115119272	 0.089242
H	-3.2415122553	-0.6263234042	-1.1716643712	 0.117248
H	-2.1260284976	 0.7416735256	-1.6121997021	 0.112017
H	-1.3438052039	-2.2752593759	-1.6718450366	 0.094816
H	 1.0578175932	-1.2889337279	-1.4073008382	 0.105243
H	 0.6841680334	 2.0330457701	-4.0242858994	 0.199921
116.8516	122.8408	198.6902	246.7694	346.7317	378.1813	510.9637	550.6224	606.8389	630.6457	644.8984	713.3251	777.5452	806.1885	814.0492	916.5735	978.3312	986.6678	1022.5393	1052.1896	1059.2998	1066.8718	1087.31	1131.199	1149.6669	1200.0745	1256.2336	1288.8737	1316.7953	1329.7427	1367.5428	1437.7518	1499.3713	2220.2199	3070.4201	3084.7507	3118.8175	3182.1354	3195.2995	3207.7958	3501.044	3781.3141
OC1C2CC2C1C#C	O[C@H]1[C@H]2C[C@H]2[C@H]1C#C	
InChI=1S/C7H8O/c1-2-4-5-3-6(5)7(4)8/h1,4-8H,3H2	InChI=1S/C7H8O/c1-2-4-5-3-6(5)7(4)8/h1,4-8H,3H2/t4-,5+,6+,7-/m1/s1
