17
gdb 112992	3.78471	1.03857	0.85846	4.1697	74.7	-0.2383	-0.0281	0.2102	1333.7447	0.135026	-455.144673	-455.135455	-455.13451	-455.179484	31.748	
C	-0.2470741828	 1.3265829299	-0.0749841649	-0.24944
O	 0.2887349287	 0.0267138474	 0.1307792361	-0.24202
C	 0.7581025395	-0.5605931691	-1.0435055487	-0.017733
C	 1.235903332	-2.0207353182	-0.8470868075	-0.213276
N	 0.2246438654	-2.4373883731	-1.8347907288	-0.107373
C	-0.0553011255	-3.7000605419	-2.3296235374	 0.071441
N	-0.9698697257	-3.9145982887	-3.1819301336	-0.409104
C	-0.3134626867	-1.1516171736	-2.008719168	 0.418895
O	-1.2413253786	-0.7283715665	-2.6322243637	-0.329148
H	 0.5181973133	 2.011472961	-0.4706231793	 0.109637
H	-1.0959590799	 1.3064576285	-0.7678036171	 0.147815
H	-0.5787478806	 1.6872264926	 0.9005841131	 0.132537
H	 1.4822837689	 0.0834492835	-1.565157299	 0.095711
H	 2.2659964443	-2.2326202022	-1.1452381171	 0.123588
H	 1.0433507159	-2.3903173415	 0.1633946568	 0.136449
H	 0.6098723181	-4.4555955644	-1.8913456307	 0.099659
H	-1.0079613064	-4.9065999539	-3.4103408903	 0.232362
55.3868	100.2585	138.6277	153.1828	184.2086	188.9139	244.4813	325.9321	379.3726	478.9268	551.4005	665.7041	778.4195	817.1363	822.0433	883.4508	995.3369	1046.3546	1063.8613	1079.2291	1105.7911	1158.2335	1169.5601	1183.2267	1216.1098	1243.0475	1259.8553	1281.6902	1379.3857	1397.2762	1426.6812	1480.7533	1486.3821	1510.9234	1513.8494	1716.5364	1891.0064	2990.2811	2995.9154	3032.1056	3057.9318	3071.0807	3115.4	3131.9837	3502.4916
COC1CN(C=N)C1=O	CO[C@H]1CN([CH][NH])C1=O	
InChI=1S/C5H8N2O2/c1-9-4-2-7(3-6)5(4)8/h3-4,6H,2H2,1H3	InChI=1S/C5H8N2O2/c1-9-4-2-7(3-6)5(4)8/h3-4,6H,2H2,1H3/t4-/m0/s1
