15
gdb 44117	2.57209	1.63294	1.33722	5.4128	70.01	-0.2681	0.0021	0.2703	977.967	0.114128	-416.823141	-416.815829	-416.814885	-416.855355	27.63	
N	-0.0078551951	 0.9450171263	 0.7098455029	-0.520012
C	-0.0301343363	-0.132983773	 0.0666904087	 0.415338
C	-1.2730227025	-0.9378407354	-0.2878268132	-0.330897
C	-0.737963234	-2.1499104392	-1.0254288618	-0.101162
C	 0.7412988653	-1.9501277272	-1.0951049024	 0.081088
O	 1.0954332342	-0.7712452671	-0.4299371682	-0.226578
C	 0.1930321526	-3.0974296996	-0.255114165	-0.237818
C	 0.259851958	-3.0692395052	 1.1767301596	 0.313351
N	 0.3004481984	-3.0448527809	 2.3325111202	-0.336037
H	 0.9466111373	 1.2849927837	 0.8320241354	 0.234676
H	-1.8306378469	-1.1778357075	 0.6208588487	 0.165297
H	-1.9278762038	-0.3448634485	-0.9316284467	 0.147877
H	-1.3009028597	-2.5757264437	-1.8456763374	 0.120726
H	 1.3667446592	-2.1629001971	-1.9527603382	 0.130723
H	 0.3094545932	-4.0851529855	-0.6896848427	 0.143427
76.7519	130.6116	153.6966	332.4687	382.27	442.1726	518.0597	578.5998	631.1193	670.7742	742.8263	767.6988	790.9832	830.6868	890.4967	933.8531	949.4951	1005.7071	1017.6405	1035.9348	1058.4764	1103.6693	1139.6507	1187.3899	1201.0258	1250.0615	1292.42	1343.4744	1362.6388	1408.6647	1467.44	1796.4578	2355.7336	3074.4698	3115.7782	3167.0739	3195.7695	3204.775	3489.7345
N=C1CC2C(O1)C2C#N	[NH][C]1C[C@H]2[C@@H](O1)[C@H]2C#N	
InChI=1S/C6H6N2O/c7-2-4-3-1-5(8)9-6(3)4/h3-4,6,8H,1H2	InChI=1S/C6H6N2O/c7-2-4-3-1-5(8)9-6(3)4/h3-4,6,8H,1H2/t3-,4+,6-/m1/s1
