19
gdb 65191	2.66223	1.20312	1.05418	4.3147	76.71	-0.2409	-0.0152	0.2257	1218.2838	0.157041	-423.007605	-422.998507	-422.997563	-423.041725	33.684	
C	 0.2079257626	 1.1019713663	-1.1234799875	-0.462446
C	 0.0282044989	-0.0107883016	-0.1147017266	 0.385544
C	 1.1612540191	-0.8892436308	 0.2230708364	-0.222236
O	 0.7517542451	 0.1555028836	 1.112751308	-0.267738
C	-1.3716495126	-0.5487136622	 0.0245527174	-0.076246
C	-1.8562021749	-1.143914506	 1.299129099	-0.318619
C	-2.4467381364	 0.1838897273	 0.8349308519	-0.11449
C	-2.1298268671	 1.4132525993	 1.6017886922	 0.143883
O	-2.8875439781	 2.349034358	 1.7050523192	-0.277142
H	 1.2516481362	 1.4223278532	-1.1622065787	 0.130061
H	-0.093694608	 0.7693453137	-2.1224726312	 0.124124
H	-0.4093407152	 1.9663627604	-0.8585987181	 0.141197
H	 0.9710559597	-1.9007295514	 0.5780805056	 0.116926
H	 2.1254465277	-0.7349740141	-0.2588556755	 0.117677
H	-1.7520221001	-0.9805932297	-0.8977300688	 0.103793
H	-2.5028403949	-2.0129001222	 1.2713152521	 0.125252
H	-1.1779488939	-1.0946375399	 2.1444560524	 0.142389
H	-3.4510815465	 0.1764968248	 0.4249802422	 0.106113
H	-1.1351058114	 1.4165084015	 2.0943994199	 0.101957
62.8222	92.2321	172.7869	197.4105	208.7918	290.6537	329.6971	343.6127	386.1263	439.0905	528.8193	563.8625	691.9724	808.0877	842.2825	865.803	869.5275	921.6492	932.2047	984.0122	1031.8994	1059.1994	1071.7878	1088.5479	1123.8292	1136.5279	1139.1408	1172.0893	1187.8092	1197.1779	1253.3809	1342.6655	1380.7482	1412.5272	1419.1472	1447.3615	1479.1603	1484.547	1496.4628	1525.6473	1808.0964	2923.163	3039.0267	3085.9862	3104.0255	3127.817	3139.2768	3142.0375	3175.3147	3175.3866	3231.6267
CC1(CO1)C1CC1C=O	C[C@]1(CO1)[C@H]1C[C@H]1C=O	
InChI=1S/C7H10O2/c1-7(4-9-7)6-2-5(6)3-8/h3,5-6H,2,4H2,1H3	InChI=1S/C7H10O2/c1-7(4-9-7)6-2-5(6)3-8/h3,5-6H,2,4H2,1H3/t5-,6-,7-/m0/s1
