18
gdb 99696	2.17021	1.02318	0.80353	2.7514	78.41	-0.2319	0.0157	0.2475	1505.6216	0.144186	-439.079872	-439.068809	-439.067865	-439.118496	37.156	
C	 0.2261921038	 0.9259951682	-0.7481196323	-0.242775
O	 0.1402077889	-0.4142123886	-0.2945003272	-0.245857
C	 0.5123956646	-0.563880004	 1.0716145275	-0.1639
C	-0.0296756148	-1.8191467965	 1.577458395	 0.045596
C	-0.4495193691	-2.8600519478	 2.0111711142	 0.124507
C	-0.9651396534	-4.115473231	 2.5349167001	-0.501107
C	 2.0565989399	-0.5546214683	 1.2704367821	 0.364612
N	 2.7347321303	-0.9988621197	 0.1823747971	-0.507854
O	 2.5652178887	-0.1927171399	 2.3093500708	-0.357016
H	 1.252554258	 1.315165132	-0.6940228982	 0.120217
H	-0.1006315805	 0.9281341185	-1.7902051963	 0.132024
H	-0.4315640297	 1.586479057	-0.1654311693	 0.119652
H	 0.1309172159	 0.2764380394	 1.6696627088	 0.117897
H	-0.1561315611	-4.7498465956	 2.9129315979	 0.153313
H	-1.6680912786	-3.9442644305	 3.357291008	 0.152843
H	-1.4934597377	-4.6773007295	 1.756960327	 0.152824
H	 2.2299359938	-1.3087873653	-0.6308021817	 0.271464
H	 3.7342229512	-1.1010372385	 0.2340371964	 0.26356
12.7509	51.5482	77.963	112.9791	124.5344	180.1325	243.2979	278.1416	284.2307	310.2749	369.7456	409.4366	468.9966	514.0898	575.0638	610.6145	720.2671	871.9591	881.7324	983.1078	1052.0245	1053.3073	1090.7196	1115.0686	1176.7252	1181.6698	1216.6292	1283.6955	1346.5738	1346.7028	1413.5201	1475.2379	1476.967	1477.8675	1488.7478	1506.3394	1594.8732	1817.8761	2375.3707	2991.5581	3004.7035	3029.3909	3046.9699	3091.9868	3092.2706	3123.2883	3599.4365	3739.8806	12.7394	51.5485	77.9632	112.9795	124.535	180.1333	243.2979	278.1415	284.2306	310.2751	369.7454	409.4362	468.9966	514.0898	575.0638	610.6144	720.267	871.9591	881.7325	983.1083	1052.0245	1053.3073	1090.7195	1115.069	1176.7252	1181.6696	1216.629	1283.6957	1346.5739	1346.7027	1413.5203	1475.2382	1476.9668	1477.8677	1488.7474	1506.3391	1594.873	1817.8759	2375.3706	2991.5582	3004.7036	3029.391	3046.9699	3091.9868	3092.2706	3123.2884	3599.4366	3739.8807
COC(C#CC)C(N)=O	CO[C@@H](C#CC)C(=O)N	
InChI=1S/C6H9NO2/c1-3-4-5(9-2)6(7)8/h5H,1-2H3,(H2,7,8)	InChI=1S/C6H9NO2/c1-3-4-5(9-2)6(7)8/h5H,1-2H3,(H2,7,8)/t5-/m0/s1
