17
gdb 11549	4.16505	1.26441	1.07553	2.1318	65.15	-0.2472	0.0086	0.2559	1119.3943	0.141791	-401.001286	-400.992658	-400.991714	-401.035674	29.636	
C	-0.241517003	 0.8701362655	 0.8961306394	-0.239802
O	-0.507263221	-0.4672200273	 0.4507635726	-0.229595
C	-1.3785780248	-0.5710375456	-0.5782788709	 0.442548
O	-1.884535157	 0.3754009037	-1.1233746403	-0.356852
C	-1.6459921624	-2.0297670685	-0.8980206027	-0.338031
C	-2.7152302588	-2.5932060249	 0.0248320361	 0.027589
C	-2.5968130012	-3.9770723685	 0.5459270037	-0.244596
N	-2.4160774317	-2.8242189229	 1.4443477953	-0.308794
H	 0.4798731276	 0.7755685582	 1.7076507167	 0.133199
H	 0.1725171838	 1.4703409364	 0.0823698649	 0.142501
H	-1.1587553705	 1.3452942423	 1.2525582421	 0.144951
H	-1.9759696608	-2.0902838157	-1.9381930344	 0.133083
H	-0.7193317255	-2.600473381	-0.7835240861	 0.116541
H	-3.7088158108	-2.184258652	-0.1460707961	 0.108443
H	-3.4877782496	-4.5694868954	 0.7336203257	 0.122093
H	-1.7244959101	-4.5549342286	 0.2496422093	 0.111318
H	-1.4271701742	-2.6558298356	 1.6144133647	 0.235401
46.6296	75.5205	110.0932	122.0494	221.2013	279.3052	348.7761	377.2175	446.5984	636.5142	753.9067	820.0105	831.3923	863.5711	926.9831	942.8322	979.6302	1046.6336	1057.9942	1124.5759	1135.9236	1163.1493	1179.19	1209.5043	1233.8716	1259.5468	1283.407	1318.3925	1322.9652	1414.8679	1465.0961	1473.1885	1481.3758	1496.6267	1513.514	1829.876	3053.9596	3056.0499	3105.9314	3113.138	3130.1333	3135.159	3160.7452	3191.304	3500.7786
COC(=O)CC1CN1	COC(=O)C[C@H]1CN1	
InChI=1S/C5H9NO2/c1-8-5(7)2-4-3-6-4/h4,6H,2-3H2,1H3	InChI=1S/C5H9NO2/c1-8-5(7)2-4-3-6-4/h4,6H,2-3H2,1H3/t4-/m0/s1
