18
gdb 110283	2.40262	1.4703	1.26165	2.9526	72.37	-0.2347	-0.0166	0.2181	1097.8225	0.146073	-439.051259	-439.042301	-439.041357	-439.085057	32.408	
C	 0.135763488	 1.3921489827	-0.0896731322	-0.251849
O	-0.2849367772	 0.0616921215	 0.1781715752	-0.242795
C	 0.5168924308	-0.5828387695	 1.12223782	 0.012736
C	 0.131979705	-1.9988686297	 1.5236594944	-0.097691
C	 0.399232769	-3.0148080594	 0.4914387693	 0.010765
C	 0.2691894533	-2.8359168696	-1.0031847753	-0.420812
N	 1.5779977897	-2.503759293	 1.2735094149	-0.198445
C	 1.8822056925	-1.1994303436	 0.7175935082	 0.357028
O	 2.8856740926	-0.8054578516	 0.2085107417	-0.304596
H	 1.1541895431	 1.4196820282	-0.4949987193	 0.141977
H	-0.5599766035	 1.801757363	-0.8244525022	 0.133391
H	 0.1006010534	 2.0083040294	 0.821381721	 0.111881
H	 0.6651406045	 0.0452334963	 2.0166538364	 0.10541
H	-0.3588780648	-2.242671855	 2.4583514744	 0.112439
H	 0.1833777004	-4.0283479701	 0.8238061157	 0.114395
H	 0.365873297	-1.7943839141	-1.3106025176	 0.151245
H	 1.0263497459	-3.4331559373	-1.520845421	 0.136412
H	-0.7167277196	-3.1889232281	-1.3225279637	 0.128509
92.1257	110.8511	151.1458	167.831	187.4959	244.4951	309.7262	352.0157	396.5683	513.7111	580.6487	644.96	693.7685	754.2719	819.6389	892.9416	902.9369	976.8921	1022.4266	1031.7332	1065.9541	1081.4325	1105.5218	1159.6828	1174.9834	1184.0667	1232.7095	1240.4057	1268.5976	1353.8514	1386.1429	1420.2986	1436.9718	1479.1373	1485.1212	1488.547	1504.0919	1512.2782	1907.0034	2972.4216	2992.5947	3045.618	3065.0337	3107.2092	3128.6253	3131.0351	3153.2702	3189.7018
COC1C2C(C)N2C1=O	CO[C@H]1[C@H]2[C@@H](C)N2C1=O	
InChI=1S/C6H9NO2/c1-3-4-5(9-2)6(8)7(3)4/h3-5H,1-2H3	InChI=1S/C6H9NO2/c1-3-4-5(9-2)6(8)7(3)4/h3-5H,1-2H3/t3-,4-,5+,7?/m1/s1
