19
gdb 88847	3.40645	1.20316	1.04219	2.3338	76.26	-0.2449	0.0242	0.269	1197.5221	0.160999	-419.191081	-419.182657	-419.181713	-419.225119	30.913	
C	 0.1652769931	 1.5462293198	-0.3228131282	-0.398704
C	 0.0631755589	 0.0894388246	 0.0595196116	 0.002493
N	 1.2949296617	-0.725125808	 0.0552311337	-0.336006
C	 0.5638254615	-0.5380097312	 1.3148867212	-0.028678
C	 1.2950828829	 0.1194864514	 2.4759348427	-0.006157
C	 2.3392962666	-0.8492923032	 3.1134058099	-0.115296
O	 3.5894446407	-0.1241600031	 3.0414330127	-0.218627
C	 3.2834778362	 1.0523394035	 2.4513489433	 0.12937
N	 2.0903654157	 1.3069248321	 2.1150251689	-0.256235
H	 1.0685521717	 1.9956272529	 0.0860137823	 0.159892
H	 0.1723195979	 1.6443892689	-1.414234855	 0.107553
H	-0.7009065809	 2.1000921033	 0.0565511169	 0.107984
H	-0.8249591082	-0.4017726937	-0.3418067032	 0.07745
H	 1.1209373613	-1.6472712138	-0.3338439364	 0.227596
H	-0.0321350475	-1.382286013	 1.6683054207	 0.07794
H	 0.5409285503	 0.421262277	 3.2134945076	 0.090542
H	 2.1425305908	-1.0842536965	 4.1624308134	 0.116859
H	 2.4537182526	-1.7772659648	 2.5464637742	 0.119302
H	 4.1289550447	 1.7183417239	 2.3187574236	 0.14272
52.0096	60.2878	166.693	206.9517	231.5551	272.4503	388.6164	466.7396	489.1125	667.3107	726.7785	776.3993	784.1285	866.3195	884.6184	931.4345	962.4633	971.2632	981.6738	996.401	1025.395	1057.7784	1081.9889	1099.8785	1139.8337	1160.5148	1202.0964	1226.217	1264.1758	1284.3231	1299.115	1323.1938	1353.8054	1382.92	1400.2181	1429.2692	1468.6351	1495.9065	1503.2328	1512.9273	1711.998	3022.5606	3033.5101	3056.85	3073.4865	3088.0437	3088.6916	3107.7711	3170.9208	3215.8926	3506.1414
CC1NC1C1COC=N1	C[C@H]1N[C@H]1[C@H]1COC=N1	
InChI=1S/C6H10N2O/c1-4-6(8-4)5-2-9-3-7-5/h3-6,8H,2H2,1H3	InChI=1S/C6H10N2O/c1-4-6(8-4)5-2-9-3-7-5/h3-6,8H,2H2,1H3/t4-,5-,6-/m1/s1
