16
gdb 12901	3.49217	1.79522	1.53547	1.8479	71.52	-0.2291	0.0489	0.278	885.9674	0.128715	-346.530213	-346.522505	-346.521561	-346.561862	29.279	
C	-0.066535295	 1.5094806751	 0.0364059753	-0.487962
C	 0.0341706995	 0.0212317757	 0.0972481504	 0.456524
O	-1.1711697213	-0.7317964505	-0.0337579708	-0.313422
C	-0.6879833875	-1.7040823895	 0.9355284475	-0.102086
C	 0.645618306	-0.9798223134	 1.0475412604	-0.196595
C	 1.2290959349	-0.8023211096	-0.3591079267	-0.296604
C	 1.1584363886	-1.8124268404	-1.372935424	 0.340578
C	 1.100406834	-2.664339363	-2.2203629672	-0.442467
H	 0.9092955513	 1.9703380897	 0.2128252161	 0.12622
H	-0.4190259021	 1.8250494351	-0.9516686264	 0.141002
H	-0.7725148476	 1.8815711021	 0.7852412022	 0.131702
H	-1.2876161756	-1.6604467933	 1.8506517925	 0.111362
H	-0.6790316114	-2.7214896791	 0.5315169523	 0.12086
H	 1.2463761961	-0.8562997976	 1.9387914599	 0.10354
H	 2.1549719952	-0.2313066253	-0.3408614447	 0.113799
H	 1.044296595	-3.4080824659	-2.9758155268	 0.193549
130.2453	138.6191	196.3818	241.7215	319.999	359.7829	372.1319	555.2474	578.5082	587.0541	654.8612	678.6361	771.0931	791.6859	879.4298	924.9893	960.4719	970.2399	991.2745	1013.6215	1085.6311	1104.7187	1116.2485	1162.7738	1197.8969	1246.7854	1316.8111	1342.0691	1405.9096	1459.9427	1473.867	1497.1	1510.2202	2234.2953	3036.4267	3038.7019	3092.3586	3102.5439	3119.2339	3135.5011	3199.7289	3504.5211
CC12OCC1C2C#C	C[C@]12OC[C@H]1[C@H]2C#C	
InChI=1S/C7H8O/c1-3-5-6-4-8-7(5,6)2/h1,5-6H,4H2,2H3	InChI=1S/C7H8O/c1-3-5-6-4-8-7(5,6)2/h1,5-6H,4H2,2H3/t5-,6+,7-/m1/s1
