20
gdb 89635	4.75607	1.00648	0.95041	1.613	79.8	-0.223	0.077	0.3001	1305.7315	0.171058	-403.083546	-403.075064	-403.074119	-403.116712	32.475	
C	-0.079292793	 1.5815838017	 0.2271054658	-0.403685
C	 0.0052889586	 0.0645298951	 0.1444637274	 0.039073
C	 0.8092248711	-0.5830415151	-1.0475054352	-0.315706
C	 1.7072823607	-1.2811244412	-0.0162832281	 0.378059
N	 2.3357478148	-0.2079713083	 0.7834758335	-0.38445
C	 0.9573889992	-0.659530679	 1.1118099018	-0.122349
C	 2.3373290253	-2.6184287492	-0.1291276818	-0.081404
C	 3.7854177629	-2.7854777894	-0.3319668459	-0.180056
O	 3.1915968019	-3.000432769	 0.954158638	-0.238076
H	 0.9229410023	 2.0180434554	 0.2250188412	 0.138378
H	-0.6372405112	 1.9917711747	-0.6217726943	 0.108851
H	-0.5888296334	 1.8983726827	 1.1441112558	 0.109286
H	-0.992942902	-0.3811032849	 0.1981857477	 0.072544
H	 0.201951934	-1.273795896	-1.6378437276	 0.100085
H	 1.3304339465	 0.1086135523	-1.7146774035	 0.10392
H	 2.9493453588	-0.6874851008	 1.4454643567	 0.238153
H	 0.7367176666	-1.0542172374	 2.0967825401	 0.094832
H	 1.6817353804	-3.4152595889	-0.4840891396	 0.096301
H	 4.1627723238	-3.6810390476	-0.8222852289	 0.120272
H	 4.4154122429	-1.9016899451	-0.4098500231	 0.12597
82.1591	117.7821	163.7171	225.6319	239.488	295.4588	351.1759	409.0434	504.0606	575.3562	663.1972	679.4424	800.9369	847.1703	859.6275	876.5426	902.1232	920.6463	949.6208	988.596	1015.0329	1038.1078	1078.9451	1101.9431	1106.5914	1119.4315	1151.549	1159.7106	1172.2879	1196.9725	1233.0416	1243.9243	1278.8803	1306.9777	1313.2977	1369.0697	1394.5298	1407.4509	1463.2717	1486.1242	1490.7178	1503.9719	1523.9247	3030.2885	3052.8781	3059.9711	3090.6017	3091.392	3097.8716	3114.7809	3121.6222	3182.84	3184.8937	3451.3258
CC1CC2(NC12)C1CO1	C[C@H]1C[C@]2(N[C@@H]12)[C@H]1CO1	
InChI=1S/C7H11NO/c1-4-2-7(5-3-9-5)6(4)8-7/h4-6,8H,2-3H2,1H3	InChI=1S/C7H11NO/c1-4-2-7(5-3-9-5)6(4)8-7/h4-6,8H,2-3H2,1H3/t4-,5+,6-,7-/m0/s1
