18
gdb 35187	3.51991	1.15775	1.07456	2.0049	83.28	-0.2301	0.038	0.2681	1181.577	0.147201	-364.716243	-364.708226	-364.707282	-364.748758	31.732	
C	-0.0973379116	-1.180077205	-0.0644325691	-0.448204
C	-0.0373844544	 0.0202011486	-0.0159870309	 0.388712
C	 0.0392067522	 1.45316658	-0.003055983	-0.345581
N	 0.6256456799	 2.0996511183	 1.2108052333	-0.380595
C	 1.3451495348	 2.1793201328	-0.0463839857	 0.385289
C	 2.7799381077	 1.6428592724	-0.2003461697	-0.3113
C	 3.1252520018	 2.9268256084	-0.9765574777	-0.041433
C	 2.2282168257	 3.0743799671	-2.1702521473	-0.277229
C	 1.6888490294	 3.4413005616	-0.8101613099	-0.145258
H	-0.1513669282	-2.2400123754	-0.0930580046	 0.195846
H	-0.8005718691	 1.9615313504	-0.4732317687	 0.107626
H	 0.128137469	 2.9700048997	 1.391796937	 0.232757
H	 3.2718766944	 1.5744990432	 0.7722066242	 0.120633
H	 2.9035482669	 0.6976704786	-0.737414281	 0.109556
H	 4.0487243307	 3.483299071	-0.8805185703	 0.092275
H	 2.446193992	 3.9162352152	-2.8199933884	 0.113484
H	 1.8505421054	 2.1960064335	-2.6883592352	 0.115486
H	 1.3329777633	 4.4375634596	-0.5723570429	 0.087935
90.8163	117.372	179.2137	282.0466	343.2884	380.5687	461.2892	476.0924	546.5908	587.0188	621.0165	658.1187	751.3574	781.5483	817.0381	843.5728	891.9977	924.9575	933.8983	961.5095	970.5806	1009.5207	1043.2654	1054.8257	1058.5142	1086.1342	1105.3773	1148.7683	1188.1609	1194.2559	1241.0395	1251.8853	1301.1998	1321.1478	1367.1959	1454.1963	1478.3273	1495.2526	2237.1412	3057.007	3109.3095	3118.8436	3121.938	3171.7784	3191.234	3203.4026	3479.3784	3504.8383
C#CC1NC11CC2CC12	C#C[C@H]1N[C@]21C[C@H]1C[C@@H]21	
InChI=1S/C8H9N/c1-2-7-8(9-7)4-5-3-6(5)8/h1,5-7,9H,3-4H2	InChI=1S/C8H9N/c1-2-7-8(9-7)4-5-3-6(5)8/h1,5-7,9H,3-4H2/t5-,6-,7-,8-/m1/s1
