17
gdb 35117	3.22345	1.40972	1.10753	3.5668	77.47	-0.2434	-0.0057	0.2377	1084.1331	0.13811	-380.861818	-380.854275	-380.85333	-380.894138	28.954	
N	-0.6536145171	-0.7719413134	-1.2778007927	-0.323674
C	-0.3613314272	 0.158887437	-0.6583037521	 0.272876
C	 0.0118271164	 1.3416987599	 0.1296646434	-0.21496
C	-0.475036229	 1.2278334776	 1.5598486797	-0.069303
C	 0.234089345	 1.6930434316	 2.5828948315	-0.069381
C	 1.5825557421	 2.3409569396	 2.4303041076	-0.208769
N	 2.2808186025	 2.0947366387	 1.1665386383	-0.108284
C	 2.4652501059	 0.7024659776	 0.7589964302	-0.241473
C	 1.5223212238	 1.5886867667	 0.0264000423	-0.015247
H	-0.4994024298	 2.1958389121	-0.3394345737	 0.142221
H	-1.4482844847	 0.7717531335	 1.7066071289	 0.118473
H	-0.1676692646	 1.6281572818	 3.590895799	 0.10565
H	 1.4749742896	 3.4296592012	 2.5405710287	 0.127743
H	 2.2464153175	 2.0239672188	 3.2439719882	 0.123279
H	 3.4355900247	 0.4637423008	 0.3337871516	 0.124408
H	 2.026901748	-0.0788992427	 1.3764416047	 0.125774
H	 1.8277617868	 2.0022050092	-0.9317029355	 0.110665
65.8348	143.0138	201.5763	309.1513	354.5113	402.5035	460.2433	510.3842	558.1017	621.1374	699.3452	718.8631	814.1591	863.7674	910.1556	924.1013	965.4012	986.4958	1023.8604	1027.3398	1065.309	1083.9721	1122.6092	1160.0357	1169.9453	1198.3968	1270.6142	1288.3745	1304.5874	1330.4972	1361.4936	1394.8867	1418.7045	1476.603	1505.5762	1727.499	2356.5431	2994.3985	3005.7339	3048.273	3104.5331	3132.22	3158.7228	3190.7314	3193.0352
N#CC1C=CCN2CC12	N#C[C@H]1C=CCN2C[C@@H]12	
InChI=1S/C7H8N2/c8-4-6-2-1-3-9-5-7(6)9/h1-2,6-7H,3,5H2	InChI=1S/C7H8N2/c8-4-6-2-1-3-9-5-7(6)9/h1-2,6-7H,3,5H2/t6-,7+,9?/m1/s1
