20
gdb 9271	5.73599	0.81152	0.75623	4.2404	77.38	-0.2281	0.0371	0.2652	1515.1176	0.175905	-345.189635	-345.179838	-345.178894	-345.225131	34.058	
C	-0.0054769268	 1.5312832595	 0.1535418946	-0.393861
C	-0.0453441745	 0.0110524405	-0.0019297454	-0.113206
N	-1.4043022095	-0.5276324212	-0.1098579945	-0.060917
C	-2.0644331634	-0.1172087697	-1.343048204	-0.331075
C	-1.4330782148	-1.9730811827	 0.0665698704	-0.136066
C	-2.8163851419	-2.4543014627	 0.5579057244	-0.343272
C	-2.8375138401	-3.893825748	 0.8011369652	 0.257462
N	-2.8318582239	-5.03403966	 0.9892709996	-0.306235
H	 1.017349043	 1.8533549906	 0.3711145746	 0.118987
H	-0.3236129571	 2.0538663069	-0.7527762447	 0.121622
H	-0.6517779957	 1.8482263077	 0.9773737535	 0.125681
H	 0.5789146882	-0.2887316646	-0.8666674618	 0.080311
H	 0.4125118889	-0.4412399686	 0.8842883564	 0.103915
H	-1.5344510476	-0.4709941915	-2.2481146896	 0.097751
H	-3.0853475655	-0.506500671	-1.3789203306	 0.118368
H	-2.1357306348	 0.9711313126	-1.3929049874	 0.128312
H	-1.1624871955	-2.5224901217	-0.8536276646	 0.100724
H	-0.6938763464	-2.2463537476	 0.8246150555	 0.120589
H	-3.072153407	-1.9251647198	 1.4814776431	 0.158909
H	-3.5973882756	-2.2182686888	-0.1718933145	 0.152002
48.0346	59.8784	101.947	126.6686	203.2246	231.9979	272.4794	329.3137	376.0753	396.5328	408.5707	472.762	566.4682	777.322	807.8432	819.7521	957.1561	965.5274	1032.3039	1057.2024	1067.7799	1083.969	1122.6163	1162.2762	1187.1128	1252.1138	1267.686	1305.7461	1325.9935	1349.1165	1388.0655	1402.3087	1429.3433	1462.4841	1468.5972	1485.7122	1487.5225	1498.4665	1501.893	1509.2323	1518.6551	2362.3217	2911.8943	2928.2613	2940.7944	3043.8852	3056.2603	3056.4407	3080.4202	3083.9797	3102.5352	3113.0102	3118.7962	3126.8602
CCN(C)CCC#N	CCN(C)CCC#N	
InChI=1S/C6H12N2/c1-3-8(2)6-4-5-7/h3-4,6H2,1-2H3	InChI=1S/C6H12N2/c1-3-8(2)6-4-5-7/h3-4,6H2,1-2H3
