19
gdb 38798	3.15222	2.16834	1.80833	0.2873	77.21	-0.197	0.0785	0.2754	835.8839	0.16408	-381.977316	-381.971508	-381.970564	-382.007059	25.763	
C	-0.0312618002	 1.5708848744	 0.0810319688	-0.247704
C	 1.5065390309	 1.440536829	-0.0220524867	-0.01059
C	 2.037574538	 1.2804714083	 1.4219852275	-0.1799
N	 1.8597831414	-0.1108873961	 1.8601560789	-0.127031
C	 2.8410680395	-0.9266726179	 1.0577851126	-0.184954
C	 1.7691128685	-1.1480873036	 0.0189237872	 0.017867
C	 0.7066445647	-0.791178619	 1.0922602683	-0.043705
C	-0.0067284273	 0.0459615279	 0.0071328221	 0.027942
N	 1.3135707752	 0.0917189514	-0.7438403986	-0.167792
H	-0.4372376636	 2.0690570669	 0.9642627996	 0.099402
H	-0.4877542754	 1.9814753942	-0.8224421458	 0.110415
H	 2.0565031774	 2.1730506106	-0.6162512503	 0.07718
H	 3.0996243251	 1.5281384089	 1.5106248336	 0.10304
H	 1.4977889293	 1.964254561	 2.0885413086	 0.09937
H	 3.7590306006	-0.4019240268	 0.7734981918	 0.101307
H	 3.1033799544	-1.8477560086	 1.5904399208	 0.106455
H	 1.7517653751	-2.0231275343	-0.6351221914	 0.074017
H	 0.1561911097	-1.487665987	 1.7282838618	 0.071955
H	-0.8334612033	-0.4975655092	-0.4641397687	 0.072728
217.3372	371.5276	390.1293	493.0745	565.4618	605.5503	668.7128	687.2141	761.6797	802.1538	823.2212	855.959	867.2778	903.2216	915.4584	958.3663	981.6515	985.6747	997.3697	1005.317	1059.3032	1070.3928	1098.0694	1108.7686	1138.1582	1183.7919	1194.0085	1210.6499	1226.4951	1234.0566	1252.0588	1280.2088	1289.3078	1302.8174	1309.5848	1324.0883	1354.2694	1365.1953	1481.9968	1499.061	1518.55	3021.0172	3029.1007	3038.6162	3062.0745	3068.683	3072.3211	3080.4602	3084.5107	3089.1171	3119.5663
C1C2CN3CC4C3C1N24	C1[C@H]2CN3C[C@H]4[C@@H]3[C@@H]1N24	
InChI=1S/C7H10N2/c1-4-2-8-3-6-7(8)5(1)9(4)6/h4-7H,1-3H2	InChI=1S/C7H10N2/c1-4-2-8-3-6-7(8)5(1)9(4)6/h4-7H,1-3H2/t4-,5+,6-,7-/m0/s1
