17
gdb 22354	3.55481	1.08578	0.84486	3.0555	73.81	-0.2437	-0.0082	0.2355	1311.0465	0.135446	-455.151627	-455.142711	-455.141767	-455.18575	32.082	
C	-0.0601793103	 1.387337632	 0.0086910378	-0.34385
N	-0.0277339045	-0.0557124299	 0.0011923331	-0.089811
C	-1.2402481162	-0.8507407245	 0.0040198474	-0.239684
C	-0.7113838667	-2.2720574317	-0.0070937292	 0.384415
C	 0.7893202755	-2.2550665934	-0.017171166	-0.452466
C	 1.1455851719	-0.7687072588	-0.0111484216	 0.420672
O	 2.2599095417	-0.2905675946	-0.0160412987	-0.390337
N	-1.5059952448	-3.2624568115	-0.0067820342	-0.210653
O	-0.8004693403	-4.473394023	-0.017991635	-0.388137
H	 0.9723030225	 1.7397963068	 0.0032012996	 0.168978
H	-0.5819450416	 1.7763064077	-0.8747826034	 0.125274
H	-0.5694142596	 1.7674259353	 0.9032600198	 0.125307
H	-1.8541289208	-0.6499990506	 0.8935192505	 0.13005
H	-1.864639157	-0.6400772632	-0.8758558342	 0.13
H	 1.2200452616	-2.7604760946	 0.8534762898	 0.159896
H	 1.2082303332	-2.75040411	-0.8993008377	 0.159879
H	-1.5090961245	-5.1263057459	-0.0163965278	 0.310468
51.4592	140.6409	150.209	182.7487	192.1891	291.0037	301.9754	393.7922	423.1951	498.4859	515.217	583.3218	648.9068	676.1473	794.2085	858.9461	928.1243	985.52	1026.2377	1027.4551	1125.5161	1143.3258	1152.2918	1210.7359	1242.2244	1256.8942	1281.3005	1317.5807	1408.5207	1430.814	1439.8063	1450.4637	1493.0268	1505.8249	1536.9472	1767.4598	1816.2962	2996.6468	3014.1242	3020.0587	3059.4003	3061.6798	3091.3389	3147.2596	3814.6574
CN1CC(CC1=O)=NO	CN1CC(=NO)CC1=O	
InChI=1S/C5H8N2O2/c1-7-3-4(6-9)2-5(7)8/h9H,2-3H2,1H3	InChI=1S/C5H8N2O2/c1-7-3-4(6-9)2-5(7)8/h9H,2-3H2,1H3
