19
gdb 39512	2.3716	1.78713	1.21564	2.425	70.85	-0.2417	0.0753	0.317	1044.8165	0.160982	-460.120226	-460.112574	-460.11163	-460.152223	30.018	
C	 0.1622287132	 1.3595485614	-0.2720828636	-0.084764
C	 1.3765667846	 2.1500555879	 0.2172006701	-0.088447
O	 2.644611037	 1.6045998493	-0.1167663147	-0.23345
C	 2.8905591903	 1.4310518235	-1.4937370058	-0.127143
C	 2.4152111018	 0.117998902	-2.0965480729	 0.06454
O	 2.9989233212	-1.0969072815	-1.6331503313	-0.251093
C	 1.5939469295	-0.9081657344	-1.4240300757	 0.012649
C	 1.1508283316	-0.8189795236	 0.0248175288	-0.09226
O	 0.0414806679	 0.0477385553	 0.2405857978	-0.259559
H	-0.735268477	 1.8890356399	 0.067230858	 0.112916
H	 0.1339488682	 1.3594440551	-1.3720923699	 0.094113
H	 1.2901002666	 3.177626105	-0.1772748652	 0.092198
H	 1.3682956589	 2.2024456868	 1.310237299	 0.121112
H	 2.4488307082	 2.2543163411	-2.0790597703	 0.092503
H	 3.97819361	 1.4881468822	-1.6222900292	 0.127261
H	 2.3346412124	 0.171076671	-3.186454714	 0.090526
H	 0.9621775226	-1.5227769519	-2.0678844542	 0.094909
H	 0.8033403022	-1.8027723254	 0.3560422186	 0.107228
H	 2.0144039608	-0.5326767537	 0.6303744645	 0.126761
105.2472	216.2871	259.8232	272.4594	278.3458	335.5909	416.7445	434.4989	514.36	564.9558	713.1566	769.7613	808.0678	823.1484	869.4295	942.417	966.8591	982.1556	1010.5528	1060.7439	1082.994	1130.0678	1141.8958	1150.5516	1169.7608	1191.6284	1277.4837	1286.8992	1299.2053	1318.4508	1339.1181	1374.6283	1394.5064	1412.4999	1415.1907	1426.7039	1474.9281	1483.4061	1486.4322	1499.2495	1505.5859	2959.2184	2973.4945	2997.0497	3053.112	3057.7422	3063.3259	3066.6258	3088.3802	3089.2845	3109.1049
C1COCC2OC2CO1	C1COC[C@H]2O[C@H]2CO1	
InChI=1S/C6H10O3/c1-2-8-4-6-5(9-6)3-7-1/h5-6H,1-4H2	InChI=1S/C6H10O3/c1-2-8-4-6-5(9-6)3-7-1/h5-6H,1-4H2/t5-,6+
