16
gdb 123578	3.95656	1.60067	1.24982	1.0842	73.66	-0.2378	-0.0019	0.2359	966.9071	0.129057	-396.925831	-396.919537	-396.918593	-396.956323	25.676	
C	-0.0252949908	 1.4622702002	 0.0873236468	-0.280531
C	 1.2972263867	 0.7467582105	 0.0345614885	-0.031696
C	 2.0428533024	 0.4567892271	 1.3580857367	-0.366936
C	 1.0703758797	-0.4466262482	 2.0603933952	 0.295778
N	 0.9727663664	-1.0695199244	 3.2272513861	-0.31065
N	-0.1861840018	-1.726458077	 3.0928626792	-0.103259
N	-0.8483495489	-1.5762557422	 1.9365506264	-0.327792
C	-0.0474593158	-0.7528717174	 1.2719290162	 0.330757
C	-0.017520973	-0.0512064443	-0.0269976211	-0.178386
H	-0.3547186077	 1.8978766065	 1.025476942	 0.120807
H	-0.3192288003	 2.0224415204	-0.794132126	 0.117157
H	 1.8943061721	 0.8660546869	-0.8615054096	 0.093024
H	 2.9996723578	-0.0425892537	 1.1676635586	 0.124109
H	 2.2644075344	 1.3732898994	 1.915335584	 0.126374
H	-0.5311402554	-2.3331527388	 3.8181558635	 0.288649
H	-0.3668516158	-0.5233656652	-0.9364895966	 0.102595
163.2966	242.0592	341.7161	424.7218	444.0612	457.6087	599.8126	697.4651	702.4616	751.0433	778.0904	791.4946	818.0199	878.2275	966.4516	984.0436	995.2807	1037.9556	1071.9329	1086.8852	1098.585	1155.3418	1158.4811	1178.4406	1198.0113	1203.3883	1282.3646	1309.6889	1358.3174	1429.9183	1446.8985	1479.2461	1488.0413	1525.3023	1598.7313	3040.2479	3074.4787	3125.6636	3181.2815	3192.8391	3214.2632	3677.2731
C1C2CC3=NNN=C3C12	C1[C@H]2Cc3n[nH]nc3[C@@H]12	
InChI=1S/C6H7N3/c1-3-2-5-6(4(1)3)8-9-7-5/h3-4H,1-2H2,(H,7,8,9)	InChI=1S/C6H7N3/c1-3-2-5-6(4(1)3)8-9-7-5/h3-4H,1-2H2,(H,7,8,9)/t3-,4-/m0/s1
