21
gdb 107188	3.38665	1.20811	1.12438	1.2919	82.15	-0.2005	0.0779	0.2784	1206.842	0.181286	-386.995641	-386.986652	-386.985708	-387.029266	34.518	
C	-0.0095847927	 1.4428743444	-0.0688597622	-0.251485
O	-0.0099944952	 0.0260992138	-0.0199423751	-0.274697
C	 0.6273644788	-0.5157378739	 1.075060546	 0.43644
C	 0.0261167617	-1.6880697341	 1.7660550072	-0.355953
C	 0.3193156411	-0.4264693906	 2.5668896609	-0.160808
C	 1.823573145	-0.15635305	 2.8525399373	-0.079424
C	 2.8237294221	-1.1763904804	 2.3624230364	-0.00423
C	 2.8256404756	-2.6997822585	 2.4958984922	-0.435756
C	 2.1401505459	-0.2660602096	 1.3642692052	-0.172402
H	 1.0018624794	 1.853710874	-0.1885681452	 0.112487
H	-0.6083958958	 1.7279776095	-0.9368180556	 0.127171
H	-0.4566455093	 1.8732975121	 0.8377084658	 0.109866
H	-1.0330497738	-1.7811202055	 1.5404195964	 0.116113
H	 0.5240421757	-2.6353005152	 1.9133287151	 0.110485
H	-0.4718716918	 0.0937355994	 3.0905518244	 0.090225
H	 2.1169484694	 0.6383298289	 3.528602327	 0.083501
H	 3.8232187563	-0.7739221328	 2.5314650288	 0.090032
H	 2.5964828284	-3.1997877589	 1.5505971733	 0.131075
H	 3.819407521	-3.0375179452	 2.8057412874	 0.109982
H	 2.1189834187	-3.0528250039	 3.250933036	 0.131746
H	 2.7152284694	 0.4220318163	 0.7565035286	 0.085633
81.8876	99.0437	159.4247	180.0816	234.1102	258.9967	356.0711	405.5769	443.1804	524.3015	565.4704	654.3482	685.0739	702.022	808.4812	824.1333	888.5417	901.0896	930.7812	953.5033	960.2499	1012.2208	1023.4382	1067.6341	1077.3247	1082.0481	1090.9133	1107.0425	1126.2867	1177.5896	1183.0064	1212.7597	1228.003	1261.1026	1295.9694	1329.2525	1380.8533	1417.1651	1439.2437	1473.6421	1487.7195	1499.9855	1505.2968	1506.574	1517.8429	2997.7717	3040.7051	3052.3353	3087.9931	3107.601	3117.1115	3120.4446	3139.8889	3168.765	3181.2818	3198.9494	3243.3022
COC12CC1C1C(C)C21	CO[C@]12C[C@H]1[C@H]1[C@@H](C)[C@@H]21	
InChI=1S/C8H12O/c1-4-6-5-3-8(5,9-2)7(4)6/h4-7H,3H2,1-2H3	InChI=1S/C8H12O/c1-4-6-5-3-8(5,9-2)7(4)6/h4-7H,3H2,1-2H3/t4-,5+,6-,7-,8-/m1/s1
