19
gdb 37392	2.83528	2.20195	1.77423	1.3481	77.27	-0.2151	0.0715	0.2866	851.9571	0.163795	-381.978761	-381.972775	-381.971831	-382.008622	26.594	
C	-0.0218050518	 1.4211192194	-0.1847659378	-0.255256
C	 1.2956568611	 0.7350219951	 0.0248194907	-0.040684
C	 2.003433169	 0.7672826043	 1.3798833259	-0.004986
C	 1.1484639934	 1.4752632613	 2.454993135	-0.25847
C	 0.4943656657	 0.1002537369	 2.6085034599	 0.007602
C	-0.1730161627	-0.6166436355	 1.3567156	-0.039886
C	 1.0235659697	-1.5927377226	 1.4703354793	-0.154997
N	 1.8106070195	-0.540896933	 2.189890517	-0.151595
N	 0.0280182208	-0.0171828858	 0.0358800667	-0.078716
H	-0.4182528567	 2.0773784511	 0.5799549614	 0.118841
H	-0.3120887482	 1.6940752848	-1.1963080353	 0.115014
H	 1.9300184297	 0.5594726738	-0.8412221511	 0.091726
H	 3.0529869552	 1.0483644114	 1.2789747207	 0.073589
H	 1.7451350714	 1.6744562189	 3.3491694565	 0.115084
H	 0.5800956678	 2.3671434329	 2.2000157017	 0.101353
H	 0.0682621427	-0.2103500704	 3.5677487799	 0.071574
H	-1.2009148404	-0.9730809434	 1.4565255161	 0.072836
H	 0.8641081765	-2.4221550521	 2.1655069087	 0.106392
H	 1.4303686974	-1.9699437271	 0.5288646247	 0.110579
230.6339	348.3602	409.2475	465.7825	486.5185	568.8429	605.4129	687.4058	729.5754	749.2047	804.1552	808.3113	850.5775	873.5288	927.0078	967.5432	972.9633	984.1747	995.6962	1040.4068	1050.4453	1064.4521	1102.6146	1114.8208	1123.1695	1129.7451	1159.2994	1176.9709	1204.4867	1228.058	1236.7955	1256.9657	1286.9771	1298.782	1315.839	1329.8689	1350.1688	1389.9327	1484.6696	1497.4972	1520.5946	3051.1771	3055.467	3073.3413	3080.0109	3091.3719	3114.0274	3117.5658	3126.8165	3145.504	3214.719
C1C2C3CC4C(CN34)N12	C1[C@H]2[C@H]3C[C@H]4[C@H](CN34)N12	
InChI=1S/C7H10N2/c1-4-6-2-8(4)5(1)7-3-9(6)7/h4-7H,1-3H2	InChI=1S/C7H10N2/c1-4-6-2-8(4)5(1)7-3-9(6)7/h4-7H,1-3H2/t4-,5+,6-,7-,9?/m0/s1
