20
gdb 90384	2.0999	1.52397	1.3071	4.3582	83.61	-0.2742	0.0321	0.3064	1122.5956	0.170698	-366.011997	-366.002975	-366.002031	-366.045227	34.299	
C	-0.2871938336	 1.531393667	-0.0052030205	-0.433226
C	 0.04955962	 0.0453347195	-0.0118954018	-0.021235
C	 1.2007563881	-0.5187380421	-0.9161811119	-0.271896
C	 1.7656769198	-1.2522495313	 0.3050606602	-0.107562
C	 2.175002178	-0.2540159338	 1.3705838071	-0.225745
C	 2.7678077189	 1.0203505487	 1.0610909477	 0.305803
N	 3.2648011004	 2.0357940019	 0.8120158488	-0.362557
C	 0.7063068123	-0.6291811034	 1.2113561366	 0.311257
C	-0.0589462279	-1.2069369288	 2.3687204328	-0.498308
H	 0.5891478895	 2.1534548163	 0.187716246	 0.154004
H	-0.7035113889	 1.8303909861	-0.9734441661	 0.116688
H	-1.0396081756	 1.7567026862	 0.7589020571	 0.113902
H	-0.8609978938	-0.5233023131	-0.2332436318	 0.079885
H	 0.8408369757	-1.1873946347	-1.6999010349	 0.108266
H	 1.8699674786	 0.2213390208	-1.3646082644	 0.124124
H	 2.1810319743	-2.2533738854	 0.3183977993	 0.098294
H	 2.6226148831	-0.7145332888	 2.2473359543	 0.128294
H	-0.479594902	-0.4161198338	 3.0005068809	 0.132919
H	-0.88989661	-1.8261734521	 2.0128571367	 0.124635
H	 0.578435233	-1.8326669891	 3.001904704	 0.122459
127.9825	141.9031	176.9044	190.1555	214.4259	238.633	300.6677	360.7083	394.3249	460.4529	570.6115	573.1557	629.4077	719.865	781.6335	827.6017	858.2594	888.7511	942.0998	961.4487	989.6614	1010.0897	1064.9178	1097.4622	1103.477	1125.7082	1139.2764	1186.6782	1231.2248	1240.4027	1258.6032	1297.04	1330.8319	1373.8571	1414.3325	1417.0415	1446.4383	1484.1776	1495.5635	1496.6042	1497.6071	1505.2751	2343.1531	3024.763	3031.7729	3037.7866	3062.3054	3087.4774	3092.0458	3098.1963	3119.8546	3136.5398	3149.6241	3179.1982
CC1CC2C(C#N)C12C	C[C@H]1C[C@H]2[C@@H](C#N)[C@@]12C	
InChI=1S/C8H11N/c1-5-3-6-7(4-9)8(5,6)2/h5-7H,3H2,1-2H3	InChI=1S/C8H11N/c1-5-3-6-7(4-9)8(5,6)2/h5-7H,3H2,1-2H3/t5-,6-,7+,8-/m0/s1
