18
gdb 52886	1.94982	1.20576	0.84601	4.5922	87.41	-0.2474	0.0173	0.2647	1426.9159	0.145287	-364.797937	-364.787751	-364.786807	-364.834516	35.485	
C	 0.0733106212	 1.4864901943	 0.0402682357	-0.503828
C	 0.0413202588	 0.0316803614	 0.0363080973	 0.1364
C	 0.0254927585	-1.1724415406	 0.0309237233	-0.034633
C	 0.0187180176	-2.6111626327	 0.015786763	 0.010244
C	-0.4889952079	-3.37505916	 1.2519643844	-0.308516
C	-1.3213967688	-3.3843687015	 0.0145655947	-0.02266
C	-2.6290108475	-2.6361676762	-0.0717184996	-0.414579
C	 1.1027898299	-3.2268651508	-0.7151000946	 0.22691
N	 1.9606801667	-3.7371536205	-1.2996385674	-0.347435
H	 1.0393581002	 1.8538625144	-0.3223746585	 0.159767
H	-0.7057106713	 1.9064564612	-0.6052142083	 0.152356
H	-0.0756430663	 1.8857501571	 1.0494140514	 0.151767
H	 0.0572582607	-4.2680524404	 1.5314100512	 0.143607
H	-0.8035393324	-2.7469204972	 2.0775748473	 0.137194
H	-1.2763276924	-4.2991933663	-0.5687089925	 0.119845
H	-2.585163851	-1.6955864896	 0.4825436255	 0.133326
H	-2.8813845045	-2.403536167	-1.1108207883	 0.133041
H	-3.4384506015	-3.2440067256	 0.3459145953	 0.127193
21.0794	78.9229	107.4813	145.2907	169.7532	193.3922	255.1107	298.515	352.429	387.5091	464.9416	505.8542	531.877	592.9533	599.1067	774.1214	859.1647	876.8956	921.9932	991.7167	1048.3165	1053.472	1054.4457	1079.7614	1094.1417	1134.5393	1198.0826	1243.4674	1334.7159	1397.5317	1414.3819	1423.3452	1475.1538	1477.5296	1477.7092	1490.9803	1498.7776	2351.8901	2371.4872	3029.2521	3040.4583	3090.5495	3093.8562	3104.3882	3123.5146	3144.2535	3160.6462	3238.9909
CC#CC1(CC1C)C#N	CC#C[C@]1(C[C@H]1C)C#N	
InChI=1S/C8H9N/c1-3-4-8(6-9)5-7(8)2/h7H,5H2,1-2H3	InChI=1S/C8H9N/c1-3-4-8(6-9)5-7(8)2/h7H,5H2,1-2H3/t7-,8+/m1/s1
