19
gdb 105633	2.03264	1.47211	1.15149	3.1551	75.98	-0.2571	0.018	0.2751	1170.8492	0.158896	-419.197595	-419.188123	-419.187179	-419.231961	34.803	
C	 0.0235720274	 1.5111602786	-0.1847683405	-0.401792
C	-0.0098772347	 0.0144097549	 0.1353837173	-0.218706
C	-1.4156273915	-0.5824320013	 0.055787906	 0.100904
N	-2.0609655057	-0.5252104481	-1.2854802163	-0.342256
C	-2.6224400897	-1.8886994304	-1.1235972558	-0.218376
C	-1.5659631944	-2.1637606586	-0.0262762112	 0.113286
O	-0.4207049176	-2.8493543345	-0.4410306121	-0.422332
C	-2.2780595591	-0.0461823754	 1.1192599391	 0.262505
N	-2.9809882203	 0.3766942433	 1.9355772042	-0.349142
H	 1.048659046	 1.8899185993	-0.1471998806	 0.122434
H	-0.3673154565	 1.7006038085	-1.1894732619	 0.126244
H	-0.5734767033	 2.0867617441	 0.5297431566	 0.137464
H	 0.6209151223	-0.5355884789	-0.5684473944	 0.096718
H	 0.3929831976	-0.175010804	 1.1368512255	 0.117631
H	-2.7317575783	 0.2234766433	-1.4214076863	 0.235407
H	-3.6468904327	-1.9218186613	-0.7320950392	 0.120346
H	-2.5592911462	-2.5149232826	-2.0196898546	 0.109545
H	-1.9084678534	-2.6459692925	 0.8885595417	 0.11487
H	-0.1845490301	-2.5412077545	-1.3235655476	 0.295249
76.9016	93.764	144.9694	167.6956	196.0861	245.5628	304.0743	370.8913	387.9751	424.0501	484.1485	537.6603	588.2015	644.7604	726.234	779.1095	853.6954	894.1001	971.0642	984.6425	994.161	1012.5033	1052.8848	1110.9723	1125.1368	1157.7216	1170.8727	1202.6433	1237.6283	1297.3055	1305.1434	1315.4439	1358.8865	1383.2657	1408.2356	1440.5896	1472.9152	1500.374	1508.5074	1512.5089	2334.323	3021.3387	3039.7485	3048.3625	3075.8053	3090.7439	3114.5552	3115.6433	3128.0728	3535.1033	3800.1586
CCC1(NCC1O)C#N	CC[C@]1(NC[C@H]1O)C#N	
InChI=1S/C6H10N2O/c1-2-6(4-7)5(9)3-8-6/h5,8-9H,2-3H2,1H3	InChI=1S/C6H10N2O/c1-2-6(4-7)5(9)3-8-6/h5,8-9H,2-3H2,1H3/t5-,6+/m1/s1
