22
gdb 8064	3.3517	1.52827	1.303	0.2507	82.97	-0.2821	0.095	0.3771	1078.8266	0.200588	-313.032156	-313.023767	-313.022823	-313.064862	32.583	
C	-0.0311444102	 1.5976267119	 0.013591357	-0.372449
C	-0.1957027832	 0.0753064825	-0.0829831254	-0.236409
C	 0.6202067528	-0.5244732273	-1.221789255	 0.046428
C	 2.1663782502	-0.7372739172	-1.1274387255	-0.055789
C	 1.9034732242	-1.9656910528	-0.212235753	-0.262427
C	 0.8506646231	-2.0720809065	-1.3628216265	 0.32246
C	-0.1974186735	-3.1377269795	-1.551521058	-0.515483
C	 2.0204043949	-1.7095132033	-2.3312830026	-0.25529
H	 1.0082252009	 1.8707607867	 0.2249090757	 0.11671
H	-0.3156915118	 2.086832297	-0.9247455953	 0.112781
H	-0.6547545811	 2.0163012558	 0.809719221	 0.109104
H	 0.0637854841	-0.377267359	 0.8796708875	 0.095694
H	-1.2549085592	-0.1621252807	-0.2517611728	 0.09407
H	 0.3129550938	-0.0551126801	-2.1667168814	 0.050981
H	 2.9326608344	 0.0280932682	-0.9962036316	 0.064055
H	 2.6813624807	-2.7354098761	-0.2039475904	 0.083153
H	 1.5357761281	-1.7828236421	 0.7989565981	 0.088104
H	-0.9008948461	-3.1551862503	-0.7114388551	 0.117324
H	-0.7744828454	-2.966034656	-2.4672328997	 0.11577
H	 0.2585044517	-4.1314268647	-1.6248113412	 0.11686
H	 1.7414718526	-1.2676035299	-3.2929923559	 0.082175
H	 2.8050763789	-2.4628546868	-2.4480933999	 0.08218
65.5118	144.2623	197.0604	218.7229	253.8934	291.8346	348.2656	432.2235	545.2028	571.6123	628.1922	740.9398	770.5135	806.26	854.0923	894.0056	905.6896	941.2508	973.4708	1003.097	1013.2374	1022.6526	1050.8518	1061.2499	1113.5743	1129.5135	1148.3987	1161.2666	1179.6862	1203.2924	1228.7563	1230.0048	1250.5279	1294.5425	1320.9688	1348.4822	1407.45	1409.7087	1433.5449	1482.575	1489.9946	1490.7883	1498.6981	1501.5094	1509.3011	1545.1271	3004.0479	3017.6538	3023.2336	3029.8929	3039.5707	3052.0822	3065.943	3089.6409	3090.5397	3097.6358	3099.5193	3102.1392	3104.5986	3119.574
CCC1C2CC1(C)C2	CC[C@H]1[C@H]2C[C@]1(C)C2	
InChI=1S/C8H14/c1-3-7-6-4-8(7,2)5-6/h6-7H,3-5H2,1-2H3	InChI=1S/C8H14/c1-3-7-6-4-8(7,2)5-6/h6-7H,3-5H2,1-2H3/t6-,7-,8+/m0/s1
