21
gdb 96561	2.22053	1.51941	1.1466	2.0032	74.24	-0.2443	0.066	0.3103	1151.2635	0.183822	-461.359788	-461.3509	-461.349956	-461.39315	34.529	
O	-0.4240187925	 1.4435015737	-0.0170308641	-0.457144
C	-0.13206161	 0.0394805711	-0.0611319751	 0.095883
C	 0.9448561987	-0.2924004395	 0.9835389367	-0.208732
C	 1.468279177	-1.7334545764	 0.9883456753	-0.204347
C	 0.3708232508	-2.7910814174	 1.092445092	-0.076415
O	-0.380461253	-2.8405339743	-0.113062765	-0.248029
C	-1.589944655	-2.1126098651	-0.1204382647	-0.099015
C	-1.5008768772	-0.6118292882	 0.2031800531	 0.110065
O	-1.8959538041	-0.4169714201	 1.5584002211	-0.444177
H	 0.4097791418	 1.9236533376	-0.0107546743	 0.28221
H	 0.2095988534	-0.2488726767	-1.0671022569	 0.074924
H	 1.792171878	 0.3869013592	 0.814986908	 0.078047
H	 0.5341482009	-0.0461963322	 1.9680102194	 0.107613
H	 2.0345012211	-1.9356783958	 0.0709252649	 0.104468
H	 2.1676604608	-1.8535283149	 1.8251693118	 0.093398
H	 0.8210049589	-3.7822387418	 1.2225181606	 0.098386
H	-0.2836752543	-2.5993501882	 1.9536132694	 0.111238
H	-1.9797953166	-2.2368666335	-1.135059537	 0.107358
H	-2.3199044461	-2.547230462	 0.579487505	 0.106656
H	-2.2133545869	-0.0921574085	-0.4556660359	 0.079276
H	-1.8332568156	 0.5329504031	 1.7175032257	 0.288336
74.044	126.1168	215.5055	242.0281	306.0319	325.066	343.1556	359.4336	397.5667	422.7973	469.3118	518.4435	602.1627	684.1118	786.2223	858.828	886.4839	909.4807	925.0393	960.0526	1024.2459	1031.4352	1059.9144	1083.7733	1122.1041	1135.9708	1161.3467	1227.6855	1235.7587	1254.692	1270.1393	1305.7904	1326.5802	1339.1074	1361.4855	1386.8282	1393.1346	1410.3119	1417.0137	1431.2473	1445.1754	1473.96	1481.6365	1486.6122	1502.6211	2978.5132	2989.7884	2994.9175	3007.3857	3011.3874	3026.4046	3058.8974	3065.2626	3083.2892	3085.0213	3785.916	3821.4748
OC1CCCOCC1O	O[C@H]1CCCOC[C@H]1O	
InChI=1S/C6H12O3/c7-5-2-1-3-9-4-6(5)8/h5-8H,1-4H2	InChI=1S/C6H12O3/c7-5-2-1-3-9-4-6(5)8/h5-8H,1-4H2/t5-,6+/m0/s1
