15
gdb 15649	3.43585	1.82679	1.26302	5.0416	63.83	-0.2382	-0.0139	0.2243	918.8764	0.120703	-395.99678	-395.989376	-395.988432	-396.028728	27.183	
O	 0.0900227926	 1.395085848	-0.0642897414	-0.422461
C	 0.0829637025	-0.0062077739	 0.0772396334	-0.047144
C	-1.3536129453	-0.5503963569	 0.0581390343	-0.069455
N	-2.0018994668	-0.1878321441	-1.2179162193	-0.2678
C	-2.3763038384	-1.2874760431	-1.7455981694	 0.062901
N	-2.1039995402	-2.433615952	-1.0138620308	-0.344299
C	-1.4290973447	-2.0710491789	 0.1571953227	 0.382698
N	-0.9609243199	-2.7840127001	 1.096606322	-0.543856
H	-0.4694726503	 1.5897092287	-0.8266841718	 0.295004
H	 0.6626268089	-0.5032438716	-0.71746919	 0.085136
H	 0.5483990359	-0.2515463181	 1.0355305077	 0.131846
H	-1.9034274667	-0.0843886246	 0.8837089958	 0.127535
H	-2.8796836414	-1.3713047587	-2.7037773461	 0.139694
H	-2.308541606	-3.3765738112	-1.299846968	 0.2604
H	-1.1209213001	-3.7810744934	 0.9444075108	 0.2098
92.4191	124.4937	171.2479	275.1088	336.037	406.5982	464.2633	507.7952	600.7943	637.3362	684.1863	842.4245	858.4213	888.1279	938.3217	947.3208	1051.8245	1078.2505	1087.1304	1093.0069	1099.9463	1209.1152	1244.3632	1295.4492	1305.109	1351.3412	1382.2047	1415.0598	1428.7234	1506.2932	1680.7607	1763.5262	2973.893	3053.7865	3100.4155	3191.2538	3458.268	3658.5697	3779.3672
OCC1N=CNC1=N	OC[C@H]1N=CN[C]1[NH]	
InChI=1S/C4H7N3O/c5-4-3(1-8)6-2-7-4/h2-3,8H,1H2,(H2,5,6,7)	InChI=1S/C4H7N3O/c5-4-3(1-8)6-2-7-4/h2-3,8H,1H2,(H2,5,6,7)/t3-/m1/s1
