14
gdb 8867	3.17339	1.45865	1.06814	2.3977	61.89	-0.2643	-0.0804	0.1839	1045.6302	0.104245	-419.644424	-419.635856	-419.634911	-419.677868	30.365	
O	 0.1607206372	 1.3835739209	 0.0039727239	-0.414848
C	 0.0727653128	-0.0092061138	 0.1773701271	-0.066421
C	-1.393043604	-0.46607207	 0.0002648717	 0.001993
O	-1.8732517654	 0.012802432	-1.2310694447	-0.443213
C	-1.5130886008	-1.9824437143	 0.0461924414	 0.205517
O	-1.8475670751	-2.5973870585	-0.9489109526	-0.314596
C	-1.1934033998	-2.6313901759	 1.2946353005	 0.285304
C	-0.9263160022	-3.1419567694	 2.3514356033	-0.397407
H	-0.2998497096	 1.5732225011	-0.8237187374	 0.295489
H	 0.7004502078	-0.5526686155	-0.5481434241	 0.093268
H	 0.4299758036	-0.2422727637	 1.1846604275	 0.118751
H	-1.9870588674	-0.0357308101	 0.819712515	 0.110888
H	-2.0190268343	-0.77517538	-1.7803391515	 0.299182
H	-0.6924305729	-3.607816523	 3.27851026	 0.226091
66.1191	109.8969	133.249	187.95	262.0075	322.6453	356.4705	425.8542	446.575	504.299	539.4969	617.8109	658.3683	696.1266	720.4279	862.5897	917.9542	1061.5705	1088.3288	1091.6639	1166.4681	1227.1657	1246.7724	1323.2388	1386.2261	1429.3158	1431.5334	1500.8256	1746.5763	2215.8279	2969.1063	3011.9481	3092.0403	3490.6148	3675.6157	3775.7655
OCC(O)C(=O)C#C	OC[C@@H](O)C(=O)C#C	
InChI=1S/C5H6O3/c1-2-4(7)5(8)3-6/h1,5-6,8H,3H2	InChI=1S/C5H6O3/c1-2-4(7)5(8)3-6/h1,5-6,8H,3H2/t5-/m1/s1
