14
gdb 129139	4.18489	1.51174	1.15474	5.4	73.68	-0.2468	-0.0684	0.1784	996.2253	0.103027	-428.998943	-428.992256	-428.991312	-429.030138	25.602	
N	-0.0399467816	 1.2163548973	-0.2317413946	-0.470669
C	-0.0782802347	-0.0114920616	 0.0754847678	 0.373849
N	 1.1500281163	-0.7382302431	 0.3718958326	-0.195609
N	 1.2208838722	-1.9725811149	 0.1683037779	-0.063419
N	 0.0718743538	-2.5427941627	-0.3435881991	-0.061388
C	-0.4443643856	-3.9156248235	-0.0933223549	-0.160026
C	-1.8663062553	-3.2658594158	 0.0548667522	-0.364428
C	-1.1377531354	-1.939503777	-0.0378904445	 0.424338
N	-1.2953974415	-0.7066293424	 0.228233795	-0.325923
H	 0.9353541445	 1.5228651549	-0.2423504008	 0.234683
H	-0.2894275282	-4.5931333141	-0.9332645688	 0.143682
H	-0.0535379202	-4.3486187688	 0.8290795322	 0.151026
H	-2.5524316452	-3.4657605163	-0.7695130196	 0.155588
H	-2.3708442692	-3.4436900421	 1.0055254146	 0.158297
112.5344	190.2194	222.0955	358.2948	452.2629	504.9537	541.9006	578.1715	637.0645	726.9125	777.1558	799.515	853.8312	895.4699	920.0331	940.2161	1004.6366	1054.981	1109.3352	1141.6946	1178.2426	1193.5697	1197.2885	1246.7912	1292.0412	1358.9431	1461.4026	1507.4385	1537.4174	1725.4616	1754.4203	3086.7254	3093.8578	3144.1515	3156.9826	3467.4119
N=C1N=NN2CCC2=N1	[NH][C]1[N][N]N2CC[C]2[N]1	
InChI=1S/C4H5N5/c5-4-6-3-1-2-9(3)8-7-4/h5H,1-2H2	InChI=1S/C4H5N5/c5-4-6-3-1-2-9(3)8-7-4/h5H,1-2H2
