19
gdb 127233	5.46081	0.91876	0.84329	2.2452	84.46	-0.2144	0.0264	0.2408	1412.3804	0.160932	-382.079821	-382.071248	-382.070304	-382.114226	31.316	
C	 0.1501193424	 1.4359387178	 0.0672148262	-0.319485
N	 0.0519578074	-0.0051739281	-0.002162549	 0.062764
C	 0.1809607568	-0.7977632673	-1.0976596991	-0.155136
C	-0.0821399659	-2.0969587259	-0.7036619049	 0.220206
C	-0.3702209978	-1.967847864	 0.6767303648	-0.101399
N	-0.2914201259	-0.7061537297	 1.0935263959	-0.268853
C	-0.0498931169	-3.3100421813	-1.5465536348	-0.102076
C	 0.4383426593	-4.6348582573	-0.9944644382	-0.266396
C	-1.0194111938	-4.4513172309	-1.3117357677	-0.266152
H	 0.853167214	 1.7908724266	-0.6896606893	 0.136212
H	-0.8227797912	 1.9124585043	-0.0973317361	 0.140274
H	 0.5141575962	 1.7102530324	 1.0580396068	 0.156708
H	 0.4502647496	-0.3893572627	-2.0595231662	 0.1249
H	-0.6223155447	-2.7440146753	 1.3852737627	 0.10547
H	 0.2006619851	-3.1171055581	-2.5852232958	 0.075612
H	 1.0333882746	-5.2694600897	-1.6421642624	 0.11131
H	 0.7371917157	-4.6567629813	 0.0479680874	 0.11737
H	-1.7146977399	-4.348191982	-0.4856321515	 0.117394
H	-1.4289569147	-4.9594846977	-2.1779436387	 0.111276
41.1838	63.6229	138.3036	155.8286	215.6615	311.1986	423.5216	438.8838	597.8635	641.2383	685.7862	729.5816	779.4726	789.6506	819.2586	868.1725	909.2206	916.8894	1006.7006	1017.4435	1059.6945	1066.8464	1075.6455	1080.9372	1130.9928	1146.9358	1174.3625	1201.151	1226.5876	1237.7463	1331.8952	1369.3482	1408.8728	1429.0143	1449.6913	1469.6113	1474.0698	1487.0605	1503.6894	1519.1533	1617.311	3037.1974	3110.0981	3129.753	3133.6348	3148.3273	3152.0669	3209.2553	3225.2462	3234.8745	3250.6046
CN1C=C(C=N1)C1CC1	Cn1cc(cn1)C1CC1	
InChI=1S/C7H10N2/c1-9-5-7(4-8-9)6-2-3-6/h4-6H,2-3H2,1H3	InChI=1S/C7H10N2/c1-9-5-7(4-8-9)6-2-3-6/h4-6H,2-3H2,1H3
