23
gdb 105239	2.47183	1.21511	0.9639	1.3717	85.65	-0.2461	0.0728	0.3189	1338.6429	0.204919	-388.259659	-388.249708	-388.248764	-388.294383	37.899	
C	-0.1960302165	 1.2847770937	-0.3293208627	-0.426981
C	 0.1701772181	-0.14840093	-0.0052913642	-0.014245
C	 1.6097581744	-0.6037150505	 0.066911442	-0.355325
C	 0.7637418003	-0.5807470947	 1.3203374415	 0.292103
C	 1.0757745518	 0.4508218527	 2.4117119607	-0.147703
O	 1.8945643921	 1.5435634827	 2.0215588034	-0.409232
C	 0.2644579249	-1.8646981937	 1.9314197288	-0.050102
C	 0.3108495913	-3.1994852046	 1.2363866628	-0.285114
C	 1.2150694038	-2.9352446874	 2.415306444	-0.265147
H	 0.5075234921	 1.9865810474	 0.1220749516	 0.144343
H	-0.1990635913	 1.4468720884	-1.4133304204	 0.10885
H	-1.1993376754	 1.5278583574	 0.0399318941	 0.108818
H	-0.5079177018	-0.8841643599	-0.4327318975	 0.07995
H	 1.8898523776	-1.5527531857	-0.3773805116	 0.106182
H	 2.3660003514	 0.167872425	-0.0346415217	 0.097563
H	 0.1422509111	 0.9007441365	 2.7700852607	 0.112341
H	 1.5242577554	-0.0791868758	 3.2653909817	 0.094624
H	 2.7801936445	 1.2015858272	 1.8657904938	 0.283589
H	-0.6123039557	-1.715735183	 2.5601742023	 0.082017
H	-0.5314482968	-3.8690064667	 1.3721622009	 0.110599
H	 0.7664446629	-3.266093613	 0.254570961	 0.114121
H	 2.2708051945	-2.7948249662	 2.2069572498	 0.109051
H	 1.0079009311	-3.4368672598	 3.3541522889	 0.1097
64.8867	97.3532	153.8553	190.2667	207.1043	223.7312	278.4269	308.9172	345.9449	406.6245	443.5916	470.1653	549.0286	680.0926	770.3588	791.5833	828.9605	840.9872	891.1241	910.2762	923.5897	955.644	1009.7462	1025.2445	1054.4308	1061.6976	1071.7488	1079.3888	1087.8742	1130.6771	1144.3079	1154.1587	1184.1374	1198.1957	1211.6727	1233.3868	1255.301	1317.7548	1385.0191	1397.9017	1411.5741	1415.647	1431.1402	1467.1019	1491.4022	1497.2849	1506.606	1508.6648	1510.7154	2988.4947	3027.3762	3054.7942	3078.8271	3110.577	3119.6106	3128.1086	3129.6511	3134.4138	3141.1371	3205.8217	3209.2256	3221.1034	3824.5238
CC1CC1(CO)C1CC1	C[C@H]1C[C@]1(CO)C1CC1	
InChI=1S/C8H14O/c1-6-4-8(6,5-9)7-2-3-7/h6-7,9H,2-5H2,1H3	InChI=1S/C8H14O/c1-6-4-8(6,5-9)7-2-3-7/h6-7,9H,2-5H2,1H3/t6-,8+/m0/s1
