19
gdb 91839	3.55973	1.17005	1.06182	5.1204	79.81	-0.2542	0.0188	0.2731	1191.6865	0.160735	-382.071066	-382.062768	-382.061823	-382.103828	31.848	
C	 0.650859726	 1.4940363089	 0.0159397077	-0.406708
C	 0.0043047897	 0.1026151804	-0.0199355996	 0.004388
C	 0.4688735665	-0.7965746533	-1.2050359797	-0.179445
N	 1.3199637525	-1.8930802657	-0.703931001	-0.114905
C	 2.4810264388	-1.4608037373	 0.0695339087	-0.276903
C	 1.227894258	-1.8681574539	 0.7759835905	 0.184624
C	 0.2827603447	-0.7610664722	 1.2427494363	-0.303191
C	 1.1673094705	-3.1352238036	 1.4643909466	 0.226594
N	 1.1153478739	-4.1302272334	 2.0510635213	-0.340739
H	 1.7388254837	 1.4517180957	 0.1280623383	 0.122246
H	 0.4373198632	 2.0435035945	-0.9067838043	 0.122715
H	 0.2578840847	 2.0836107581	 0.8507925358	 0.123328
H	-1.0757044954	 0.255413589	-0.1057052084	 0.091039
H	-0.3907906199	-1.2635656852	-1.6944118455	 0.120111
H	 1.0160247038	-0.2330277847	-1.9679003475	 0.114243
H	 3.3229086533	-2.1457185133	 0.0433272337	 0.139673
H	 2.7467184016	-0.4080911236	 0.0981362857	 0.123524
H	 0.7153026713	-0.1756304511	 2.059422642	 0.121671
H	-0.636431937	-1.2152910993	 1.6218277796	 0.127737
100.1314	136.3932	169.5067	214.1429	286.9604	355.0606	366.0113	401.2079	508.7753	561.4527	577.5171	685.0982	716.6887	799.0597	810.5688	890.6096	918.7787	923.2419	943.4863	952.6142	1031.7169	1063.3604	1093.9516	1119.3206	1147.1807	1178.5466	1212.9248	1231.7116	1265.6285	1278.8427	1315.1661	1348.7063	1372.1793	1375.5147	1416.7654	1490.0052	1491.138	1499.0556	1504.606	1517.1601	2356.4187	3034.2979	3044.8325	3052.5634	3063.4363	3091.5943	3100.7137	3103.3206	3107.0103	3120.6295	3208.7302
CC1CN2CC2(C1)C#N	C[C@H]1CN2C[C@]2(C1)C#N	
InChI=1S/C7H10N2/c1-6-2-7(4-8)5-9(7)3-6/h6H,2-3,5H2,1H3	InChI=1S/C7H10N2/c1-6-2-7(4-8)5-9(7)3-6/h6H,2-3,5H2,1H3/t6-,7+,9?/m1/s1
