19
gdb 69476	4.51493	0.8744	0.80444	3.8346	77.13	-0.2426	-0.0206	0.2221	1444.7477	0.156802	-422.998664	-422.989599	-422.988655	-423.03335	33.132	
C	 0.0825101446	 1.4553214603	-0.1603488171	-0.487729
C	 0.0526421994	-0.0244243245	 0.0334634998	 0.480442
C	-0.9751156402	-0.831619393	 0.7607543543	-0.337677
C	 0.4902977976	-0.9661415587	 1.1394181844	-0.206861
C	 1.2431387939	-1.7061021423	 0.0385531278	 0.124956
C	 0.9906171539	-3.190656479	-0.2187194207	-0.302256
C	 1.5370978133	-3.6283987851	-1.5626564043	 0.156531
O	 2.3690512961	-4.4868232975	-1.7127068845	-0.240642
O	 0.6716022124	-0.836778039	-0.9825330338	-0.343052
H	 1.1060775659	 1.8122047511	-0.3100775133	 0.130597
H	-0.5076145289	 1.7370359355	-1.039794451	 0.135453
H	-0.3437452288	 1.9642064313	 0.7088010625	 0.12548
H	-1.5677017756	-0.2875770864	 1.4898863775	 0.117259
H	-1.5048918273	-1.6294821579	 0.2478500618	 0.113313
H	 0.8649235023	-0.7657953169	 2.1342197215	 0.102531
H	 2.3227604934	-1.5183375545	 0.1027753487	 0.095206
H	 1.4581848627	-3.793697841	 0.5655350086	 0.121717
H	-0.0907310994	-3.3766538166	-0.2153669872	 0.117748
H	 1.1068352047	-3.0822944658	-2.4294875452	 0.096984
48.3552	68.0178	144.3027	169.1037	202.9972	278.8502	324.4676	402.6567	459.0935	484.3781	537.7802	641.5602	718.3088	807.077	846.986	877.816	897.0607	937.8182	965.1397	980.1455	1010.2147	1025.469	1065.0526	1092.3583	1097.3387	1107.2432	1124.6508	1202.586	1224.1768	1263.0622	1282.3961	1326.9878	1375.1094	1395.1462	1423.2397	1427.9268	1453.1037	1474.4813	1490.1947	1502.8835	1829.8263	2907.3573	3019.7206	3034.3454	3035.7278	3098.4595	3103.1837	3116.9313	3119.0196	3199.6153	3208.3993
CC12CC1C(CC=O)O2	C[C@]12C[C@H]1[C@@H](CC=O)O2	
InChI=1S/C7H10O2/c1-7-4-5(7)6(9-7)2-3-8/h3,5-6H,2,4H2,1H3	InChI=1S/C7H10O2/c1-7-4-5(7)6(9-7)2-3-8/h3,5-6H,2,4H2,1H3/t5-,6+,7-/m0/s1
