21
gdb 109593	1.97626	1.60184	1.14292	1.7146	74.11	-0.2473	0.0487	0.296	1176.3208	0.181043	-461.336475	-461.326503	-461.325559	-461.371086	37.057	
C	 0.4865119882	 0.7114456352	-0.4291367918	-0.251359
O	-0.0097973643	-0.5715882909	-0.0790670078	-0.27558
C	-1.4123773329	-0.6095491199	 0.1369536658	 0.019892
C	-2.1620654213	-1.1524898418	-1.1204067012	 0.126792
O	-1.5556223612	-0.9247649062	-2.3660733063	-0.431692
C	-2.131735372	-2.5938055529	-0.502070265	-0.093227
C	-1.0715916912	-3.5257383899	-1.0799325745	-0.411598
C	-1.7534199289	-1.937323317	 0.8717734328	 0.129993
O	-0.7306863374	-2.4960953938	 1.647807637	-0.435333
H	 1.5670460868	 0.6126855081	-0.5584266201	 0.130847
H	 0.0387919818	 1.0721881086	-1.362750378	 0.131941
H	 0.2859582023	 1.4412952113	 0.3676829585	 0.11918
H	-1.7530039978	 0.3319644568	 0.5849499067	 0.063073
H	-3.1780639216	-0.7558285166	-1.1927412922	 0.087528
H	-0.6279463525	-1.1689843258	-2.2668699662	 0.288322
H	-3.1024363122	-3.0981470603	-0.503979015	 0.067906
H	-0.0740325453	-3.0752600588	-1.0641898932	 0.109246
H	-1.0164051757	-4.4475384238	-0.4946875956	 0.127661
H	-1.3103503013	-3.7855367811	-2.1154167852	 0.121305
H	-2.6335547823	-1.8196488954	 1.5115552403	 0.083159
H	 0.0940214786	-2.1323834958	 1.2993131608	 0.291944
73.6561	102.6846	176.5891	185.0583	212.6697	234.543	247.897	254.8615	338.1668	419.1809	434.9392	499.3511	509.6174	543.9156	648.7655	768.6731	782.2453	811.441	885.1827	904.6339	1023.8715	1034.471	1076.2596	1112.9531	1131.6852	1151.3726	1159.8288	1181.9361	1184.1633	1214.5435	1242.8275	1274.1182	1282.8842	1290.8168	1326.1409	1358.7561	1380.8857	1408.7289	1430.0053	1450.0726	1479.2703	1487.2551	1493.4351	1509.2168	1514.8355	3000.6977	3024.3299	3040.9326	3051.5299	3062.4065	3067.916	3083.0565	3108.1279	3117.8841	3121.1671	3760.9941	3795.3402
COC1C(O)C(C)C1O	CO[C@H]1[C@@H](O)[C@@H](C)[C@H]1O	
InChI=1S/C6H12O3/c1-3-4(7)6(9-2)5(3)8/h3-8H,1-2H3	InChI=1S/C6H12O3/c1-3-4(7)6(9-2)5(3)8/h3-8H,1-2H3/t3-,4+,5-,6+
