19
gdb 12776	3.58899	1.48278	1.27473	2.6507	71.11	-0.2271	0.0719	0.299	1025.0383	0.165124	-365.013302	-365.004944	-365.003999	-365.045993	31.22	
C	 0.0119674245	 1.5196614287	 0.0651103129	-0.490929
C	-0.0533347391	 0.023020902	-0.0247872466	 0.324919
C	-0.8671732374	-0.81302031	 0.8852749363	-0.286745
N	 0.6010915003	-0.8946977238	 1.0045678192	-0.166898
C	 1.0311871838	-1.7889261996	-0.131445032	-0.170714
C	 0.4884525192	-0.8034417538	-1.197638648	-0.032354
C	-0.4660929735	-1.2891965474	-2.2725721572	-0.103095
O	 0.2815561932	-2.106175932	-3.1635211529	-0.420895
H	 0.9931355345	 1.891686933	-0.249459352	 0.122212
H	-0.7459717834	 1.9850310694	-0.5765263634	 0.119009
H	-0.1636537794	 1.8539839632	 1.0917607196	 0.129036
H	-1.3337799497	-0.3119670706	 1.7285869074	 0.115403
H	-1.4150716482	-1.6800772375	 0.5218379321	 0.104808
H	 2.1160053393	-1.9036744277	-0.1365075467	 0.112191
H	 0.5687048205	-2.7819331841	-0.1051884107	 0.101934
H	 1.3145550412	-0.2793518015	-1.6878939838	 0.086414
H	-1.296148978	-1.854227362	-1.8211582152	 0.083167
H	-0.9067086812	-0.4234283383	-2.794987129	 0.084934
H	-0.3186601066	-2.458038368	-3.8272540801	 0.287604
81.7661	159.4751	173.1703	187.5063	263.8647	289.1417	325.4316	431.6745	467.11	504.0099	624.0648	730.6137	772.842	857.27	873.8078	915.7801	966.9051	997.0225	1030.0688	1061.5972	1091.8722	1099.5278	1105.2335	1129.0716	1150.8069	1196.5714	1202.8219	1252.0498	1271.8871	1282.736	1321.952	1364.6707	1386.6926	1419.0556	1463.0201	1482.3665	1492.939	1495.8589	1511.4428	1523.6184	2959.6781	2994.323	3025.8232	3043.1889	3064.3645	3086.7634	3101.2415	3110.3645	3118.7507	3188.9585	3830.1422
CC12CN1CC2CO	C[C@]12CN1C[C@H]2CO	
InChI=1S/C6H11NO/c1-6-4-7(6)2-5(6)3-8/h5,8H,2-4H2,1H3	InChI=1S/C6H11NO/c1-6-4-7(6)2-5(6)3-8/h5,8H,2-4H2,1H3/t5-,6+,7?/m0/s1
