17
gdb 112107	2.957	1.40983	1.00539	3.839	71.15	-0.2451	-0.0075	0.2376	1162.7057	0.135245	-458.983019	-458.974497	-458.973553	-459.016915	30.744	
C	-0.4089002361	 1.5828508736	-0.093685439	-0.24515
O	-0.0248033219	 0.2259629631	-0.2519272863	-0.237732
C	-0.9858481792	-0.7154320753	 0.1409139361	-0.069134
C	-0.700160989	-2.0187092077	-0.5523160852	-0.068134
C	-1.1176135852	-3.1628067755	-0.0271240207	-0.102941
C	-1.8338638411	-3.1792862549	 1.2867177164	-0.114245
O	-1.5146425763	-2.0710291441	 2.141827321	-0.227225
C	-1.0281852193	-0.9009341621	 1.6715563345	 0.403752
O	-0.6726283796	-0.0563016953	 2.4457639088	-0.318342
H	 0.3882115769	 2.1833769371	-0.5375990871	 0.127542
H	-1.3486500754	 1.7901391847	-0.629713055	 0.099023
H	-0.526332244	 1.8477721658	 0.9603685126	 0.147386
H	-1.9973318659	-0.3676624655	-0.1505811301	 0.10314
H	-0.165125864	-1.9530409499	-1.4931536293	 0.119781
H	-0.9674771876	-4.1163027069	-0.5227283394	 0.112932
H	-2.9245153516	-3.2002088813	 1.1447313923	 0.130586
H	-1.5708359904	-4.0694572859	 1.8667195406	 0.138761
46.5266	117.055	132.1051	190.9702	242.1557	306.6298	372.8319	443.6114	487.9594	509.1783	559.533	654.7395	686.2318	832.2341	890.8686	938.477	986.2605	1000.6689	1039.8794	1041.9351	1115.9607	1147.7883	1168.8704	1178.0778	1211.9659	1227.5933	1254.8438	1293.4411	1342.3682	1400.2779	1420.8262	1475.1979	1479.6165	1501.0117	1518.6888	1734.5825	1845.3379	2899.467	2983.7415	3000.3631	3075.9178	3089.691	3133.0306	3181.7719	3205.2743
COC1C=CCOC1=O	CO[C@H]1C=CCOC1=O	
InChI=1S/C6H8O3/c1-8-5-3-2-4-9-6(5)7/h2-3,5H,4H2,1H3	InChI=1S/C6H8O3/c1-8-5-3-2-4-9-6(5)7/h2-3,5H,4H2,1H3/t5-/m0/s1
