23
gdb 57360	2.04505	1.52762	1.18565	0.67	91.29	-0.2399	0.0551	0.295	1207.8817	0.202376	-351.118775	-351.108316	-351.107372	-351.15327	40.926	
C	 0.2088009376	 1.5201569405	 0.2782933938	-0.432263
C	-0.0048765267	 0.0201744562	 0.0046994487	 0.171248
C	 0.5347440776	-0.7777248761	 1.2082222211	-0.406397
C	-1.5163818707	-0.2368254129	-0.1553198561	-0.406398
C	 0.721189041	-0.4644387156	-1.2797403126	 0.176277
C	 0.8509050588	 0.427865476	-2.5088852333	-0.31204
C	 2.0718501138	 0.105866406	-1.6972334897	-0.31204
C	 0.5449915065	-1.8677368698	-1.5714158929	 0.272704
C	 0.4041596632	-3.0365175498	-1.8232714382	-0.448772
H	 1.2619924043	 1.7710178883	 0.4350448007	 0.11416
H	-0.1819578155	 2.1517940245	-0.5248607259	 0.114161
H	-0.3260395168	 1.79675457	 1.1925564739	 0.114896
H	 0.0183841316	-0.4817690031	 2.1274700423	 0.104673
H	 0.390241256	-1.8519401727	 1.0663724489	 0.127206
H	 1.6057647614	-0.5977823116	 1.3500099776	 0.109192
H	-1.9244842978	 0.3331781659	-0.9968166807	 0.109192
H	-1.7197403569	-1.2955196463	-0.3362992627	 0.127208
H	-2.0548258994	 0.0649496809	 0.7492485364	 0.104673
H	 0.7344913995	-0.0467246977	-3.4757560798	 0.12514
H	 0.4504253309	 1.4326202685	-2.4508504316	 0.117386
H	 2.5008662661	 0.8918597516	-1.0877711327	 0.117386
H	 2.7943525491	-0.5899704532	-2.1064129712	 0.125141
H	 0.2795376063	-4.0672842295	-2.044593166	 0.187269
51.0091	153.3431	192.3128	199.6169	260.773	265.9765	278.8412	295.5403	310.1947	371.6587	381.2979	438.2107	438.7268	548.1254	566.6357	591.1262	598.6429	645.5374	775.0896	810.653	889.8144	896.3142	928.6867	937.6961	949.7837	963.3975	972.9868	1042.5517	1056.4248	1064.6842	1084.593	1191.7108	1200.1032	1227.5169	1240.154	1296.1681	1302.8933	1396.8678	1400.4654	1430.7578	1458.3646	1480.2336	1483.9099	1491.6899	1497.6726	1501.6734	1512.7385	1521.7893	2225.4612	3030.137	3032.586	3041.0751	3095.4643	3096.0635	3103.422	3110.6447	3115.8265	3119.2915	3146.6853	3149.4804	3227.1481	3241.219	3503.2497
CC(C)(C)C1(CC1)C#C	CC(C)(C)C1(CC1)C#C	
InChI=1S/C9H14/c1-5-9(6-7-9)8(2,3)4/h1H,6-7H2,2-4H3	InChI=1S/C9H14/c1-5-9(6-7-9)8(2,3)4/h1H,6-7H2,2-4H3
