17
gdb 112394	3.46957	1.1588	0.90059	2.1277	71.67	-0.2639	-0.0184	0.2455	1241.1826	0.137928	-455.203957	-455.195799	-455.194855	-455.2372	30.691	
O	-0.0617993946	 1.4868801501	-0.1846544441	-0.424227
C	 0.0470297557	 0.0863046054	-0.1255545812	-0.064259
C	-1.3235602131	-0.5897055492	 0.0509237169	-0.149351
C	-1.3240646016	-2.1292710047	 0.0795777454	-0.312827
C	-2.2143086507	-2.5147420702	 1.250765542	 0.389719
N	-2.6109056831	-3.690929839	 1.4996414686	-0.52185
N	-2.4627050022	-1.3339486679	 1.9620773362	-0.359673
C	-1.9456142835	-0.1917796724	 1.3872212951	 0.429965
O	-1.9786380676	 0.916751233	 1.8801595027	-0.380801
H	-0.5811049454	 1.7554060061	 0.5876382108	 0.298672
H	 0.4972664007	-0.2447754839	-1.0676974928	 0.112773
H	 0.7161716332	-0.2448061981	 0.6881811847	 0.088124
H	-1.984432942	-0.2045497432	-0.7344458941	 0.12556
H	-1.6836821639	-2.5918235992	-0.8401027445	 0.146689
H	-0.3183822001	-2.5228117908	 0.2677280535	 0.142928
H	-3.1895508432	-3.7348504396	 2.3401805932	 0.214863
H	-2.9558226486	-1.3017991864	 2.8430608876	 0.263696
55.9959	138.8573	165.3643	207.7074	311.7726	363.2668	401.9604	529.4021	540.9478	562.5018	613.8504	634.9739	661.586	729.0376	793.1506	878.7113	886.1658	919.2557	1018.9595	1058.1714	1092.6259	1096.971	1108.6173	1188.5273	1214.4067	1238.1437	1276.3442	1296.3469	1339.0568	1363.6326	1385.987	1387.8719	1464.5942	1471.6646	1514.0227	1767.1791	1819.5797	2950.472	3047.8747	3054.0121	3066.7539	3128.8796	3459.8993	3616.2326	3721.976
OCC1CC(=N)NC1=O	OC[C@H]1C[C]([NH])NC1=O	
InChI=1S/C5H8N2O2/c6-4-1-3(2-8)5(9)7-4/h3,8H,1-2H2,(H2,6,7,9)	InChI=1S/C5H8N2O2/c6-4-1-3(2-8)5(9)7-4/h3,8H,1-2H2,(H2,6,7,9)/t3-/m1/s1
