14
gdb 26774	3.55771	1.17172	0.88734	5.8936	76.78	-0.2216	-0.0555	0.1661	1229.0935	0.101255	-432.914613	-432.906139	-432.905195	-432.948004	29.995	
C	 0.1728336359	 1.4767087296	-0.0307038997	-0.50768
C	-0.0338545395	 0.0091534186	-0.008266228	 0.281292
C	-1.1282200867	-0.8102547747	 0.1050370894	 0.189743
N	-2.4656837172	-0.4837315038	 0.2890313551	-0.605281
N	-0.7211026758	-2.1253113218	 0.0833167797	-0.336231
C	 0.574323536	-2.0610246991	-0.0435066289	 0.282156
O	 1.064983066	-0.8060023948	-0.1142302723	-0.194738
C	 1.4901654814	-3.1392592852	-0.1152329389	 0.25856
N	 2.2409335648	-4.0181985886	-0.1765330934	-0.329814
H	 0.9534737331	 1.7763787196	 0.6764265631	 0.155103
H	 0.4667739185	 1.8419271801	-1.0222113227	 0.147755
H	-0.7526782207	 1.9814990037	 0.2580017941	 0.142188
H	-2.7838886174	 0.3038082428	-0.2579526341	 0.253656
H	-3.0646234483	-1.2862538964	 0.1487078166	 0.263292
89.1463	126.6861	150.5643	181.9612	244.9289	250.4457	337.5665	415.3329	498.4622	546.4852	604.2821	638.2473	663.7331	719.7851	753.7294	803.4771	983.1517	1025.2088	1060.3567	1085.7885	1187.281	1271.8567	1327.3918	1406.5818	1446.725	1472.2947	1489.4466	1550.8939	1641.2103	1676.5328	2351.0038	3027.7973	3083.5224	3122.6056	3557.912	3653.4725
CC1=C(N)N=C(O1)C#N	Cc1c(N)nc(o1)C#N	
InChI=1S/C5H5N3O/c1-3-5(7)8-4(2-6)9-3/h7H2,1H3	InChI=1S/C5H5N3O/c1-3-5(7)8-4(2-6)9-3/h7H2,1H3
