22
gdb 114313	2.2229	1.26452	1.083	2.7741	82.4	-0.2203	0.0701	0.2904	1272.2791	0.193043	-404.300489	-404.290548	-404.289604	-404.335162	37.02	
C	-0.1969940429	 1.4831161626	-0.2725677853	-0.431497
C	 0.0303139622	 0.0228969159	 0.0503149717	-0.013232
N	 1.2614943226	-0.7386903209	-0.2593426446	-0.193399
C	 2.4327329701	 0.1351439095	 0.1150200619	-0.186336
C	 2.0290841975	 0.1437989229	 1.6091041581	-0.013896
C	 1.9649078892	 1.4173763392	 2.4339500643	-0.116881
O	 3.3063019755	 1.8194315681	 2.683466129	-0.421142
C	 0.7548820978	-0.598435698	 1.1870952688	 0.277366
C	 0.1940463462	-1.7585412332	 1.961409876	-0.487832
H	 0.6477643527	 2.1279633444	-0.0315646288	 0.124499
H	-0.4062656927	 1.5973885482	-1.3422025743	 0.124947
H	-1.0682306208	 1.856289465	 0.2766900192	 0.120231
H	-0.8268814561	-0.5812074456	-0.248114199	 0.08932
H	 3.3642118832	-0.3942032226	-0.0897898413	 0.111374
H	 2.4653408508	 1.0998661358	-0.3998440697	 0.101689
H	 2.6760682137	-0.5498956321	 2.1562293149	 0.09026
H	 1.4091791097	 2.2085861189	 1.9126005616	 0.087116
H	 1.4273669644	 1.2105533851	 3.374942281	 0.084319
H	 3.287596144	 2.6431548032	 3.1792006564	 0.28689
H	-0.3411613083	-1.4114773074	 2.8539355296	 0.117545
H	-0.5087095445	-2.3333410806	 1.3514023066	 0.1274
H	 0.9901059256	-2.4355090183	 2.290464704	 0.12126
66.5463	119.606	158.2134	173.1446	202.4999	245.5035	263.9996	273.8521	318.082	357.6002	447.1227	495.2149	560.8304	618.2361	700.1908	759.22	840.4453	861.5886	910.816	940.1983	977.9503	1035.9959	1059.0767	1077.5962	1104.4798	1108.6304	1114.846	1145.7654	1152.385	1190.1946	1215.3376	1247.7882	1269.4039	1283.6028	1321.5627	1347.2305	1382.0079	1406.7658	1411.8546	1454.0056	1464.0748	1482.7985	1491.3315	1496.3016	1502.4515	1517.3995	1525.5893	2959.393	3016.7252	3023.4041	3037.4098	3055.2006	3062.0101	3083.5526	3091.0226	3100.3328	3110.3165	3118.3173	3149.6717	3829.5653
CC1N2CC(CO)C12C	C[C@H]1N2C[C@@H](CO)[C@@]12C	
InChI=1S/C7H13NO/c1-5-7(2)6(4-9)3-8(5)7/h5-6,9H,3-4H2,1-2H3	InChI=1S/C7H13NO/c1-5-7(2)6(4-9)3-8(5)7/h5-6,9H,3-4H2,1-2H3/t5-,6+,7-,8?/m1/s1
