14
gdb 123691	4.16665	1.68206	1.30508	3.4544	65.75	-0.258	-0.0099	0.248	902.874	0.105121	-432.867813	-432.861897	-432.860953	-432.898179	23.179	
C	-0.064605519	 1.4463991651	 0.0109281276	-0.206284
C	 1.4179759423	 1.8416316598	-0.0266660265	 0.046032
O	 2.1648367975	 1.4183275563	 1.108259556	-0.237701
C	 2.2552597369	 0.6210025502	-0.0929889667	-0.142124
C	 1.2925233523	-0.5031133777	-0.0757100477	 0.431568
N	 1.2666554938	-1.8215755696	-0.0643966976	-0.369065
C	-0.074602648	-2.0680390443	 0.0367891866	 0.018846
N	-0.8625146027	-0.9950782422	 0.0916035526	-0.2684
N	 0.0431057176	-0.0047289328	 0.0015257562	 0.050069
H	-0.5647789014	 1.8023826225	 0.9156800036	 0.155639
H	-0.6063105829	 1.81029132	-0.8677410485	 0.1409
H	 1.7073232447	 2.7907888386	-0.4668146771	 0.120754
H	 3.2290897022	 0.5602898012	-0.5628564297	 0.130066
H	-0.4846345932	-3.066259427	 0.0709836413	 0.1297
152.4734	215.2623	357.5351	445.5698	456.7098	628.9187	680.496	735.4872	774.2237	802.1675	860.1112	865.7981	897.8331	911.7686	985.9423	1002.0061	1050.9471	1102.7237	1159.9882	1196.294	1209.0975	1240.2839	1284.1389	1294.7139	1300.2797	1342.2936	1389.7888	1431.1371	1471.7975	1508.6571	1584.5788	3058.8927	3109.2587	3169.4038	3203.5118	3262.5342
C1C2OC2C2=NC=NN12	C1[C@H]2O[C@H]2c2ncnn12	
InChI=1S/C5H5N3O/c1-3-4(9-3)5-6-2-7-8(1)5/h2-4H,1H2	InChI=1S/C5H5N3O/c1-3-4(9-3)5-6-2-7-8(1)5/h2-4H,1H2/t3-,4-/m1/s1
