19
gdb 99575	2.26741	1.1419	0.79799	1.1531	78.14	-0.251	-0.0272	0.2238	1410.3986	0.155099	-422.995452	-422.98478	-422.983836	-423.032039	37.512	
C	-0.1652848461	 1.5295473794	 0.0689829854	-0.425567
C	 0.0104892349	-0.0002559375	-0.0012689194	-0.066757
C	-1.3757484226	-0.6273485897	 0.0228342048	 0.166462
O	-1.8968123531	-1.0971970678	 0.9989004116	-0.248433
C	 0.7816278727	-0.4590462256	-1.2669927775	-0.194103
C	 2.2374194622	 0.0699750654	-1.3118192956	-0.06737
O	 2.9276979884	-0.3637593113	-2.4604789994	-0.419003
C	 0.8046930361	-1.9191762765	-1.3663950111	 0.292193
C	 0.872122428	-3.1185810118	-1.4344750861	-0.44517
H	 0.7975444672	 2.0418994287	 0.1317515369	 0.135994
H	-0.6933049495	 1.9087676818	-0.8133291419	 0.125944
H	-0.7458246418	 1.8012517683	 0.954852214	 0.139596
H	 0.5333213781	-0.3522263845	 0.894056083	 0.106842
H	-1.9154266245	-0.5811349759	-0.9530945632	 0.075322
H	 0.2669761651	-0.0627669033	-2.1538907205	 0.116082
H	 2.2308774185	 1.1616430554	-1.3578809643	 0.115125
H	 2.7514815839	-0.2288035077	-0.3844377528	 0.097888
H	 2.8998615163	-1.3284990714	-2.4635476696	 0.287396
H	 0.8987139063	-4.179059416	-1.4932158343	 0.20756
44.6525	55.8714	109.8022	134.7013	167.9448	202.5214	221.7278	303.8473	323.7326	366.0583	380.6228	420.9436	492.0591	543.7906	624.5023	637.5148	667.6563	822.9023	885.0408	928.9317	955.2139	1025.4645	1046.9545	1088.5057	1109.3866	1128.1441	1160.215	1209.9983	1245.7311	1304.8033	1326.3048	1360.5972	1386.3028	1403.3841	1427.7871	1433.7226	1494.6193	1504.4033	1507.7697	1839.3417	2226.2426	2849.3878	2980.0412	3012.1593	3038.5619	3065.8895	3098.5289	3110.8816	3126.9302	3499.9118	3778.6518
CC(C=O)C(CO)C#C	C[C@@H](C=O)[C@@H](CO)C#C	
InChI=1S/C7H10O2/c1-3-7(5-9)6(2)4-8/h1,4,6-7,9H,5H2,2H3	InChI=1S/C7H10O2/c1-3-7(5-9)6(2)4-8/h1,4,6-7,9H,5H2,2H3/t6-,7+/m0/s1
