14
gdb 9563	4.298	1.3315	1.25246	2.4825	67.77	-0.3058	-0.0151	0.2908	973.5369	0.106836	-341.605225	-341.597349	-341.596405	-341.637408	28.182	
C	-0.0525984589	 1.5405207443	-0.0527549711	-0.460039
C	 0.0179178099	 0.0231323269	-0.0159601485	 0.143156
C	 1.3398459609	-0.6775047056	-0.2374210111	-0.300704
C	 0.7326475439	-0.6915965856	 1.1486049821	-0.203223
C	 1.3124457512	 0.0947793561	 2.2005523528	 0.299006
N	 1.7797142294	 0.7324976215	 3.044801853	-0.325689
C	-1.1621311538	-0.6545710822	-0.4991122223	 0.251548
N	-2.1101935897	-1.1895474984	-0.8893179855	-0.329238
H	 0.859552276	 1.9755859477	 0.3614129986	 0.151273
H	-0.1689294985	 1.8871984993	-1.083062396	 0.14734
H	-0.9012400623	 1.9046666677	 0.5320502815	 0.154414
H	 1.3463048955	-1.6151906317	-0.7789392293	 0.156444
H	 2.2008184978	-0.0399920715	-0.3992994058	 0.154129
H	 0.2889237585	-1.6239345385	 1.4791249715	 0.161583
111.7338	132.5105	186.1406	196.8867	260.8705	337.529	344.6286	503.27	548.5538	574.2518	588.6668	686.1402	796.8396	855.3109	936.7264	962.9251	996.0426	1086.3189	1092.7788	1108.5883	1133.1494	1267.1934	1291.3872	1390.3158	1423.8063	1478.8669	1486.7401	1499.465	2355.0563	2358.3715	3053.3199	3126.7653	3138.1721	3153.7771	3182.2459	3250.3734
CC1(CC1C#N)C#N	C[C@]1(C[C@H]1C#N)C#N	
InChI=1S/C6H6N2/c1-6(4-8)2-5(6)3-7/h5H,2H2,1H3	InChI=1S/C6H6N2/c1-6(4-8)2-5(6)3-7/h5H,2H2,1H3/t5-,6-/m0/s1
