16
gdb 54842	2.65871	1.37384	1.21489	5.7169	64.62	-0.2304	0.0054	0.2359	1066.1321	0.1237	-474.990243	-474.981892	-474.980948	-475.023756	31.084	
N	 0.103472918	 1.0321296933	-0.0102378657	-0.602881
H	 0.1603329685	 0.0221013905	-0.0610329315	 0.241121
H	 1.0410623778	 1.4074805066	-0.113887198	 0.242506
H	-3.038156145	 1.4135735427	 0.5884842134	 0.310867
C	-0.5189916113	 1.4750206159	 1.1869467078	 0.202237
C	-0.8480829691	 2.9478815385	 1.4466233356	-0.122329
O	-0.6986100201	 2.7760033854	 2.879284914	-0.2692
C	-0.2875269242	 1.4257057767	 2.7070657736	 0.045664
C	-1.3751151445	 0.5995795962	 2.0699102472	-0.258879
C	-2.8463002848	 0.7816954121	 2.379525068	 0.427868
O	-3.34777352	 0.4862492463	 3.4248071345	-0.3146
O	-3.5959090728	 1.2887040522	 1.3664636594	-0.374582
H	-0.0727271786	 3.6186862559	 1.0577198943	 0.113291
H	-1.8368470377	 3.3289059045	 1.1692027633	 0.11722
H	 0.4822900547	 1.0338984254	 3.3614908422	 0.116679
H	-1.0969426707	-0.4527749023	 2.0199672118	 0.125018
45.2192	122.236	168.7638	240.8323	255.1559	327.6499	379.7729	450.9653	531.4054	554.1719	597.6676	633.4948	732.3458	802.5141	818.0825	863.0068	883.6948	922.7115	971.6598	991.175	1031.0862	1052.123	1077.3851	1137.9407	1150.6391	1187.2763	1259.9994	1271.3944	1299.3771	1342.5067	1350.8703	1470.5707	1515.4051	1654.1341	1877.8853	3028.928	3082.1203	3128.0438	3189.2282	3505.6384	3597.8727	3795.1871
[NH3+]C12COC1C2C([O-])=O	N[C@]12CO[C@H]1[C@H]2C(=O)O	
InChI=1S/C5H7NO3/c6-5-1-9-3(5)2(5)4(7)8/h2-3H,1,6H2,(H,7,8)	InChI=1S/C5H7NO3/c6-5-1-9-3(5)2(5)4(7)8/h2-3H,1,6H2,(H,7,8)/t2-,3-,5-/m0/s1
