23
gdb 72900	2.57205	1.71474	1.36132	0.2148	87.39	-0.2559	0.082	0.3379	1070.9289	0.208267	-351.150277	-351.142403	-351.141459	-351.181983	33.154	
C	-0.3751523399	 1.4098247184	 0.1023450272	-0.466265
C	 0.0772409373	-0.0396069928	-0.0446240019	 0.374728
C	-1.0644457127	-1.0618025629	 0.2751780435	-0.281124
C	-0.3609107043	-1.4301428841	 1.6120238896	-0.226684
C	 0.8911492796	-0.6147256671	 1.1715945399	-0.051959
C	 2.0724925124	-1.3706690887	 0.5819892725	-0.042957
C	 1.810338978	-2.5254620033	-0.3582864894	-0.2973
C	 2.1003064028	-1.1592678676	-0.922156377	-0.024912
C	 0.9242852644	-0.2738953403	-1.3218234228	-0.303413
H	 0.4821131864	 2.092971746	 0.1139097958	 0.109999
H	-1.027902792	 1.7053257128	-0.72798014	 0.111675
H	-0.9360968708	 1.5606012405	 1.0316320752	 0.109133
H	-2.0627094259	-0.6241827041	 0.3671664641	 0.089018
H	-1.128357015	-1.8889365326	-0.4371272465	 0.095905
H	-0.8607438844	-1.0052037405	 2.4862679386	 0.095062
H	-0.1934026523	-2.4935191166	 1.7981405036	 0.097717
H	 1.241240718	 0.1243445023	 1.8984059823	 0.055806
H	 2.9945730557	-1.3982485402	 1.1527603217	 0.076378
H	 2.590789092	-3.2743476932	-0.4442456022	 0.105705
H	 0.808983523	-2.9341483787	-0.4415244336	 0.110416
H	 3.0402876949	-1.0182984947	-1.4453794841	 0.076869
H	 0.3232618631	-0.7078588336	-2.1304573227	 0.09484
H	 1.3077333498	 0.6829205311	-1.6958509739	 0.091362
129.6134	219.7829	241.2928	263.9479	331.8095	350.6578	387.2511	450.0466	589.9508	622.3955	660.9613	736.7903	770.2166	812.2198	836.349	858.5652	871.964	909.1162	941.6576	945.753	956.5456	974.3537	996.634	1024.4136	1060.3381	1076.2535	1090.8546	1108.2526	1119.3095	1146.1726	1171.1556	1196.3104	1212.2198	1223.1375	1249.2874	1263.6185	1272.5789	1279.6102	1325.7559	1340.4684	1350.1164	1392.5562	1410.7747	1477.0992	1484.9562	1490.3469	1494.5894	1496.2116	1507.9092	3015.1578	3022.94	3049.4895	3051.818	3056.5996	3063.7693	3081.5858	3086.577	3092.8271	3114.1339	3130.7692	3155.2832	3164.6269	3210.7385
CC12CCC1C1CC1C2	C[C@]12CC[C@H]1[C@H]1C[C@H]1C2	
InChI=1S/C9H14/c1-9-3-2-8(9)7-4-6(7)5-9/h6-8H,2-5H2,1H3	InChI=1S/C9H14/c1-9-3-2-8(9)7-4-6(7)5-9/h6-8H,2-5H2,1H3/t6-,7-,8-,9+/m0/s1
