20
gdb 119654	3.80144	1.01207	0.91881	1.5926	78.94	-0.2341	0.0579	0.2919	1352.7814	0.170238	-403.037344	-403.028946	-403.028001	-403.070962	32.039	
C	-0.0104393108	 1.5548488904	 0.0209148143	-0.381206
C	 0.0162983787	 0.0244788819	 0.0315924418	-0.171066
C	 0.6161080909	-0.5680032781	-1.2518949856	-0.34558
C	 0.6699343024	-2.0657474791	-1.2551703093	 0.334108
N	-0.5332419262	-2.9729970113	-1.2251751315	-0.384956
C	 0.6146530372	-3.9353643027	-1.2642646982	-0.077551
C	 1.4224028566	-3.028033771	-2.2314620894	 0.05046
O	 2.6510564341	-3.0622514566	-1.4485161824	-0.330639
C	 1.5989852079	-3.045344802	-0.441020341	 0.036157
H	 0.9998210194	 1.9668811359	-0.0784978218	 0.117541
H	-0.605618813	 1.9336128677	-0.817214204	 0.117959
H	-0.4436671699	 1.9521458881	 0.9438967778	 0.11321
H	 0.5935293718	-0.3280300188	 0.8960649459	 0.097648
H	-1.0036695779	-0.3580097332	 0.1641401432	 0.103325
H	 0.0336797695	-0.2348622979	-2.1206242402	 0.110669
H	 1.6400853671	-0.197875615	-1.3932212171	 0.115471
H	-0.9555640697	-2.9709490808	-0.2931185951	 0.209645
H	 0.499925999	-5.0191786121	-1.2722911224	 0.091026
H	 1.4827237183	-3.025934103	-3.3188398774	 0.101686
H	 1.8783620745	-3.0683641025	 0.6139818022	 0.092091
72.7865	82.086	126.3697	242.0999	259.5524	312.3495	344.799	487.0592	573.5108	698.3743	728.1074	766.7148	778.6675	811.8799	829.5454	854.3615	884.9348	908.7492	916.6609	944.876	972.157	1022.7984	1049.1042	1092.0783	1107.2495	1116.9732	1145.0063	1163.9048	1176.2367	1193.1864	1249.0948	1268.2091	1273.289	1305.9181	1318.4447	1333.4909	1371.9813	1409.8926	1412.7023	1469.5174	1491.4143	1499.0073	1508.6742	3014.8998	3023.4824	3031.2485	3044.0012	3067.367	3099.0791	3101.5994	3104.3592	3121.967	3139.1487	3404.8906
CCCC12NC3C1OC23	CCC[C@@]12N[C@H]3[C@@H]1O[C@@H]23	
InChI=1S/C7H11NO/c1-2-3-7-5-4(8-7)6(7)9-5/h4-6,8H,2-3H2,1H3	InChI=1S/C7H11NO/c1-2-3-7-5-4(8-7)6(7)9-5/h4-6,8H,2-3H2,1H3/t4-,5-,6+,7+
