18
gdb 79502	2.34899	1.87828	1.26426	2.2275	77.21	-0.2265	-0.0392	0.1874	1026.1486	0.146547	-401.852692	-401.844782	-401.843838	-401.885142	30.238	
C	 0.0569778401	 1.5835855003	-0.0873911523	-0.337968
N	-0.0179427942	 0.123424996	-0.0467436577	-0.160399
C	-1.1196360738	-0.4428416846	 0.7910237813	-0.009542
C	-0.326312541	-1.7537399945	 1.0589289442	-0.091915
C	-0.5719872709	-1.7011245707	 2.5765352939	-0.277503
C	-0.421676224	-0.2168601341	 2.1891067188	-0.113194
C	 0.6773281146	-0.5330507134	 1.1032613349	 0.288623
C	 2.1539281275	-0.6309319333	 1.2526357965	 0.026833
O	 2.7124671008	-0.8408431613	 2.3019647096	-0.253365
H	 1.0292938286	 1.8870426912	-0.4882292994	 0.123385
H	-0.7130677652	 1.9583807577	-0.769304711	 0.124449
H	-0.0814745119	 2.0744258348	 0.8898946298	 0.102142
H	-2.1755807581	-0.3351364919	 0.5371441488	 0.086366
H	-0.2385952711	-2.5981505275	 0.3761257229	 0.092699
H	-1.5624330099	-2.0186990509	 2.9151020949	 0.098713
H	 0.2107437184	-2.1156463507	 3.2142710091	 0.124756
H	-0.4662488173	 0.6583921296	 2.8354724401	 0.090132
H	 2.7183429773	-0.5204636966	 0.2991044057	 0.085787
86.5522	158.418	206.8172	225.9437	245.627	298.3449	427.0792	502.43	551.5073	674.5205	727.3369	728.4234	815.9823	853.0264	883.444	916.8053	927.8516	972.9626	1000.1208	1043.6206	1060.3443	1074.17	1113.5226	1121.9465	1152.5366	1166.8896	1169.5264	1182.4496	1197.7411	1242.1348	1257.6042	1270.0355	1334.3881	1411.644	1447.6448	1494.1637	1498.0083	1511.0755	1809.2232	2877.4942	2972.8031	3057.7463	3068.3052	3101.3597	3102.7462	3125.3205	3127.3125	3131.9185
CN1C2C3CC2C13C=O	CN1[C@H]2[C@@H]3C[C@H]2[C@]13C=O	
InChI=1S/C7H9NO/c1-8-6-4-2-5(6)7(4,8)3-9/h3-6H,2H2,1H3	InChI=1S/C7H9NO/c1-8-6-4-2-5(6)7(4,8)3-9/h3-6H,2H2,1H3/t4-,5+,6-,7+
