23
gdb 95201	2.122	1.76158	1.28519	1.4857	84.37	-0.2541	0.0636	0.3176	1118.0842	0.20777	-388.296906	-388.288143	-388.287199	-388.32957	35.309	
C	 0.0033679409	 1.5751841929	-0.0235984116	-0.393942
C	 0.0991332274	 0.0442386634	-0.0240728521	 0.010217
C	 0.7172796883	-0.4901733265	-1.3108272493	-0.010395
C	 2.1879147041	-0.362041057	-1.6198896246	-0.287837
C	 1.6033717951	-1.7199493089	-1.3008972273	-0.039373
C	 1.9369699342	-2.4044713265	 0.0248746427	-0.208008
C	 0.9762008042	-2.0132767866	 1.1598227168	-0.23688
C	 0.7723590647	-0.496841121	 1.2507634126	 0.106223
O	 2.0114133291	 0.191805155	 1.4407626581	-0.42824
H	 0.9981602163	 2.0256557828	-0.0349624525	 0.134502
H	-0.5437740553	 1.9274425399	-0.9042494058	 0.102845
H	-0.52218919	 1.9377963435	 0.8669664721	 0.10107
H	-0.9250264138	-0.3547213765	 0.0179965895	 0.068466
H	 0.0538476291	-0.3934335297	-2.1669771034	 0.073473
H	 2.4792809283	-0.1538338304	-2.6441683124	 0.096164
H	 2.8192487324	 0.0886296662	-0.8634278797	 0.130214
H	 1.4856786229	-2.3935737031	-2.144301885	 0.074858
H	 1.9061837333	-3.49098761	-0.1062267576	 0.092684
H	 2.9629183444	-2.1617695569	 0.3222435337	 0.098605
H	-0.0050353313	-2.4788528822	 1.0010727256	 0.097076
H	 1.3488282435	-2.3981087111	 2.1186829551	 0.078674
H	 0.1025917591	-0.2736392912	 2.0974124729	 0.058269
H	 2.4355276932	-0.1734167559	 2.2235477221	 0.281335
118.907	185.9195	212.9045	232.6387	256.8354	289.3744	348.4694	367.82	408.2814	423.48	547.3875	619.583	702.8161	728.1135	772.1532	827.1598	861.0098	880.7797	910.7744	934.7672	977.4099	993.797	1029.562	1050.4981	1070.2054	1077.9559	1102.3863	1125.3641	1136.7728	1143.2425	1177.1066	1214.6324	1225.7513	1252.3247	1254.8393	1333.5985	1344.9827	1360.8041	1372.5143	1383.0117	1399.2468	1405.714	1407.6329	1442.7493	1477.5245	1487.901	1492.9732	1496.447	1501.1761	2956.8505	2993.7588	3014.2666	3033.6284	3037.1523	3050.8961	3075.3791	3093.8053	3123.9607	3130.4224	3131.8711	3146.0012	3227.0105	3818.2486
CC1C2CC2CCC1O	C[C@H]1[C@H]2C[C@H]2CC[C@H]1O	
InChI=1S/C8H14O/c1-5-7-4-6(7)2-3-8(5)9/h5-9H,2-4H2,1H3	InChI=1S/C8H14O/c1-5-7-4-6(7)2-3-8(5)9/h5-9H,2-4H2,1H3/t5-,6+,7+,8+/m0/s1
