15
gdb 66968	2.63305	1.73901	1.30396	6.2244	68.54	-0.2404	0.0201	0.2605	965.2894	0.112904	-416.737493	-416.729946	-416.729002	-416.769554	28.852	
N	 0.0661817087	 1.4382010531	-0.079686752	-0.620913
C	 0.0634599177	 0.0316264322	-0.0172969132	 0.286218
C	-0.0893491573	-0.893787802	-1.2351020823	 0.065377
O	 0.5893383789	-2.1161956645	-0.9652735951	-0.273292
C	 0.0296435034	-2.0278393485	 0.3686124661	 0.055289
C	-1.0673457392	-1.0170808754	-0.1140190453	-0.219292
C	 0.8117968744	-0.8380047441	 1.0151697025	-0.193495
C	 2.2681218556	-0.8860080065	 1.0128855126	 0.281637
N	 3.4235161602	-0.9154407271	 1.0155591251	-0.331093
H	 0.0687708764	 1.8083426316	-1.0201249417	 0.246264
H	-0.6680460248	 1.8776677961	 0.4606058933	 0.242752
H	-0.1759549676	-0.5464768649	-2.2568669218	 0.119189
H	-0.0899593128	-2.9830205304	 0.8718572476	 0.107557
H	-2.143477822	-0.9615546967	-0.0346704563	 0.111642
H	 0.4392831083	-0.6317356931	 2.0220986205	 0.122159
119.5214	135.6564	146.6417	291.087	337.3495	397.7364	468.4108	552.1899	580.2713	662.1978	713.824	753.4505	795.6488	824.2121	839.9875	896.737	937.1237	945.738	956.7627	996.6985	1033.6455	1062.1923	1114.4971	1139.8816	1163.8099	1201.8827	1249.2224	1297.7899	1312.0336	1343.4271	1431.818	1654.857	2356.3255	3085.1068	3168.3274	3203.0158	3224.1756	3539.0993	3626.9425
NC12C3OC(C13)C2C#N	N[C@]12[C@H]3O[C@H]([C@@H]13)[C@H]2C#N	
InChI=1S/C6H6N2O/c7-1-2-4-3-5(9-4)6(2,3)8/h2-5H,8H2	InChI=1S/C6H6N2O/c7-1-2-4-3-5(9-4)6(2,3)8/h2-5H,8H2/t2-,3-,4+,5+,6+/m1/s1
