23
gdb 120908	3.183	0.91812	0.83103	1.4964	85.89	-0.2442	0.0764	0.3205	1520.1876	0.205593	-388.261838	-388.252247	-388.251303	-388.296427	36.472	
C	 0.0010947721	 1.5898719509	 0.2041746407	-0.379264
C	-0.0621736721	 0.0741080103	-0.0030258243	-0.160027
C	 0.8270856637	-0.4135405699	-1.1533990059	-0.195114
C	 0.7622172435	-1.9257928954	-1.3545081177	 0.036679
C	-0.5306692208	-2.5952428745	-1.9351133705	-0.25011
C	 0.3252981563	-3.3295913134	-2.9758323616	-0.122988
C	 1.0531822591	-2.3459050661	-3.8380383858	 0.11249
O	 0.5221933704	-1.099970506	-4.2026364429	-0.417012
C	 1.5919131786	-2.5870349069	-2.46794867	-0.128117
H	 1.0215353009	 1.9146137181	 0.4369397477	 0.111434
H	-0.3151335113	 2.1246796019	-0.6982772851	 0.113762
H	-0.6461482592	 1.9113346121	 1.026585699	 0.106205
H	 0.230074088	-0.4353034328	 0.9255800461	 0.08701
H	-1.1013421693	-0.2242441754	-0.1961159124	 0.094328
H	 0.5457919692	 0.0877916768	-2.0843205309	 0.118888
H	 1.8693727906	-0.1281427036	-0.9500796998	 0.083535
H	 1.0052757571	-2.4212997947	-0.4070289995	 0.068326
H	-1.0263167499	-3.2612184723	-1.2266817229	 0.098685
H	-1.2739344713	-1.9089029348	-2.3528733006	 0.089865
H	 0.2068424741	-4.3681428045	-3.2636402349	 0.081669
H	 1.6579105175	-2.8103614539	-4.6188931809	 0.084998
H	-0.1988715158	-1.2573488534	-4.8217527982	 0.284053
H	 2.5996006384	-2.9652204125	-2.3322409298	 0.080703
81.6062	89.7861	115.1469	189.4238	231.508	248.229	291.4019	316.8767	345.7363	417.1984	499.9708	624.0279	722.7676	735.4488	750.7381	807.5237	841.4935	865.954	905.7584	934.8274	959.9892	991.5715	1014.1291	1015.8745	1042.9549	1052.3066	1079.7282	1104.3132	1134.3172	1138.6542	1197.7114	1214.9753	1242.3149	1263.7714	1272.6928	1289.7118	1302.4648	1311.6032	1330.3483	1354.6046	1379.6336	1401.3449	1412.6977	1456.4971	1482.4365	1488.8079	1496.6097	1499.5941	1511.3324	3005.3399	3011.1697	3026.8491	3027.8347	3039.5751	3051.3625	3088.467	3090.3864	3096.9915	3099.1289	3112.7378	3161.0606	3174.868	3800.6563
CCCC1CC2C(O)C12	CCC[C@H]1C[C@H]2[C@@H](O)[C@@H]12	
InChI=1S/C8H14O/c1-2-3-5-4-6-7(5)8(6)9/h5-9H,2-4H2,1H3	InChI=1S/C8H14O/c1-2-3-5-4-6-7(5)8(6)9/h5-9H,2-4H2,1H3/t5-,6+,7-,8+/m0/s1
