16
gdb 15697	3.10444	1.90838	1.3469	2.4365	61.06	-0.2459	-0.0307	0.2152	926.6677	0.129819	-420.888059	-420.880162	-420.879218	-420.920946	27.809	
C	-0.2163644189	 1.3394960213	 0.2409459533	-0.242376
O	-0.1288801745	-0.0778679479	 0.2313708116	-0.248452
C	 0.8838994348	-0.5798087736	 1.0571513608	 0.09796
O	 0.6304214493	-0.4014949757	 2.4263419027	-0.253597
C	-0.2605221509	-1.4488498868	 2.8559144719	-0.094562
C	 0.1938134718	-2.6971038827	 2.0937470688	-0.344562
C	 0.8798923539	-2.1134042996	 0.8573333831	 0.388454
O	 1.3475924606	-2.7048991507	-0.0741887004	-0.292143
H	 0.7183634004	 1.7940037455	-0.1183945409	 0.11336
H	-1.0289925782	 1.6111924902	-0.4354647622	 0.132415
H	-0.4319765232	 1.7213479639	 1.2453754568	 0.127145
H	 1.8524555698	-0.1131473463	 0.8344620368	 0.093105
H	-0.161032293	-1.5283821299	 3.9394499683	 0.119263
H	-1.2971375354	-1.1859210999	 2.6135100644	 0.116007
H	 0.9340853943	-3.2728995914	 2.6592342808	 0.145307
H	-0.6100844308	-3.3773019363	 1.8045180442	 0.142677
67.7429	105.1895	159.7687	186.7185	208.8385	329.1308	436.1952	545.4909	560.6312	641.2279	691.5861	830.3586	847.8877	933.5009	964.4349	994.7952	1049.0776	1078.8168	1117.3429	1164.9011	1178.0399	1201.2938	1211.0054	1243.3297	1275.9979	1323.3261	1368.4438	1394.5492	1446.8196	1474.1289	1484.6066	1510.8784	1515.8663	1873.9808	2998.9826	3031.3046	3035.1191	3062.0286	3070.0043	3114.9324	3124.7736	3131.0532
COC1OCCC1=O	CO[C@H]1OCCC1=O	
InChI=1S/C5H8O3/c1-7-5-4(6)2-3-8-5/h5H,2-3H2,1H3	InChI=1S/C5H8O3/c1-7-5-4(6)2-3-8-5/h5H,2-3H2,1H3/t5-/m0/s1
