18
gdb 94032	3.59639	0.94514	0.91877	1.3715	78.77	-0.247	0.0181	0.2651	1367.5173	0.146655	-401.938482	-401.929343	-401.928399	-401.973532	32.959	
C	-0.5169705475	 1.3140290665	-0.0936537284	-0.387475
C	 0.0053405787	-0.0886649547	-0.3980150758	 0.027078
C	 1.4998403199	-0.1271840725	-0.8269978745	-0.12127
O	 2.112449963	-1.0508876015	 0.0994528491	-0.249121
C	 1.1305158162	-1.4021577725	 0.9696362816	 0.411799
C	 1.5535422275	-2.3443450413	 2.0639717802	-0.42887
C	 2.61205565	-1.8045681266	 2.9120374134	 0.311957
C	 3.4757206231	-1.3646314487	 3.6206219496	-0.455479
N	-0.0422855304	-0.9508468686	 0.7990433486	-0.315082
H	 0.0901418632	 1.7896803528	 0.6835334182	 0.122587
H	-0.4870174883	 1.9435311602	-0.9895160015	 0.112482
H	-1.5493830567	 1.2670583511	 0.2619398119	 0.131856
H	-0.6306023986	-0.5421309742	-1.1684276418	 0.088443
H	 1.6616200468	-0.5012627492	-1.8409211139	 0.118281
H	 1.9963855483	 0.8433643029	-0.7214648131	 0.115924
H	 0.6635247853	-2.5764430556	 2.6547857623	 0.163569
H	 1.896094408	-3.2795313517	 1.601588352	 0.152839
H	 4.2420562714	-0.9747738264	 4.243555092	 0.200481
32.2716	78.4112	96.937	202.1517	229.8101	287.6571	331.4531	368.4649	430.6665	440.7614	620.6571	635.728	653.0675	699.9245	771.6624	849.3442	889.1261	937.0506	938.8538	957.4253	992.6084	1020.6467	1088.3117	1121.7369	1161.3244	1206.9519	1227.1677	1271.4899	1310.2229	1343.0189	1368.0358	1389.3631	1409.4284	1452.339	1487.9676	1496.5122	1520.6582	1739.2526	2247.2453	3021.6756	3029.0705	3034.8773	3045.7464	3099.7076	3100.977	3105.5128	3123.6219	3507.1567
CC1COC(CC#C)=N1	C[C@H]1COC(=N1)CC#C	
InChI=1S/C7H9NO/c1-3-4-7-8-6(2)5-9-7/h1,6H,4-5H2,2H3	InChI=1S/C7H9NO/c1-3-4-7-8-6(2)5-9-7/h1,6H,4-5H2,2H3/t6-/m0/s1
