13
gdb 24838	2.53432	1.86926	1.26756	4.7224	69.44	-0.2744	-0.0654	0.209	948.0683	0.090994	-448.929361	-448.922184	-448.921239	-448.961518	26.17	
N	-0.1429808487	 1.4083364275	 0.0830928413	-0.463045
C	-0.0395110515	 0.1502934518	-0.0183366616	 0.305639
N	 1.1870247872	-0.5275856192	-0.1429948153	-0.266564
C	 1.4140466732	-1.5152103659	-0.8889446811	 0.132757
O	 0.621374142	-2.151310702	-1.8111409354	-0.194123
C	-0.7329738642	-1.9655088183	-1.9320586124	 0.132755
N	-1.5632057048	-1.4061018918	-1.1697197457	-0.266561
C	-1.2625277575	-0.7292553349	 0.0264928928	 0.305634
N	-1.9661836167	-0.8063024912	 1.0765391962	-0.463044
H	 0.786707584	 1.8348733079	 0.0402532388	 0.230889
H	 2.3942301595	-1.9840911657	-0.9099262162	 0.157387
H	-1.0577808677	-2.4555793944	-2.8460499606	 0.157387
H	-2.7541946748	-1.4401439638	 0.9172502192	 0.230889
84.1204	95.3839	260.1734	304.6983	317.4996	445.9952	452.0481	544.1888	638.9076	703.6631	780.8116	793.2488	844.8668	923.0185	958.0927	963.8913	965.0558	975.0243	995.1192	1070.6582	1139.8027	1300.1271	1348.0524	1420.5612	1438.6491	1696.5828	1714.7577	1741.7058	1769.8021	3182.9053	3184.2674	3443.9098	3444.3041
N=C1N=COC=NC1=N	[NH][C]1N=COC=N[C]1[NH]	
InChI=1S/C4H4N4O/c5-3-4(6)8-2-9-1-7-3/h1-2,5-6H	InChI=1S/C4H4N4O/c5-3-4(6)8-2-9-1-7-3/h1-2,5-6H
