20
gdb 70428	2.7761	1.46473	1.26052	2.8436	78.51	-0.2276	0.0736	0.3012	1086.0496	0.171012	-403.082112	-403.07373	-403.072786	-403.11523	32.114	
C	-0.0697670237	 1.5511545573	 0.0155669525	-0.514659
C	 0.1304756743	 0.0677877408	 0.0110128822	 0.262383
N	-0.8368730408	-0.8570720756	 0.6631993791	-0.373492
C	 0.5978996695	-0.8856303656	 1.0557944824	-0.099032
C	 1.2918261477	-1.764991906	 0.0144956038	-0.314263
C	 0.7715478525	-0.7950725601	-1.093368732	 0.290875
C	-0.0487698848	-1.2255789958	-2.3197062856	-0.125674
O	 0.8307431596	-0.5036202067	-3.213409815	-0.278606
C	 1.727258943	-0.1815404129	-2.1341150958	-0.148823
H	 0.8486761189	 2.080465416	-0.258142579	 0.128586
H	-0.8504670364	 1.8505158225	-0.6937726023	 0.134254
H	-0.3694023937	 1.8991526394	 1.0102057569	 0.118629
H	-1.3292062799	-0.3139053294	 1.3734121256	 0.222236
H	 0.8907239969	-0.7072700864	 2.0836884475	 0.09199
H	 2.3828530235	-1.7427655542	 0.0893337537	 0.102039
H	 0.946473385	-2.8011588618	-0.0384241995	 0.107702
H	-0.0447408061	-2.3039712266	-2.5259002462	 0.098173
H	-1.0805390039	-0.857977141	-2.3595293778	 0.10649
H	 1.9177008864	 0.8972201755	-2.0627636667	 0.097721
H	 2.6904326919	-0.7036232594	-2.2275301838	 0.093472
66.0228	123.3537	193.998	196.3982	257.4066	316.1099	397.161	439.5275	454.8157	552.9094	637.7768	741.688	835.752	853.395	864.0301	892.0349	912.8604	955.9605	982.6925	985.8802	1018.9598	1032.1735	1041.2301	1094.1418	1107.6565	1142.9369	1152.5466	1154.4347	1188.244	1209.6781	1217.1836	1247.0575	1303.9879	1313.4094	1348.9499	1381.6262	1405.4502	1439.7253	1475.6191	1482.8128	1495.9777	1507.0217	1531.5103	2991.2777	3012.5118	3024.3216	3037.6157	3051.707	3061.896	3086.9316	3097.3413	3108.4151	3183.9925	3457.5468
CC12NC1CC21COC1	C[C@]12N[C@H]1CC12COC1	
InChI=1S/C7H11NO/c1-6-5(8-6)2-7(6)3-9-4-7/h5,8H,2-4H2,1H3	InChI=1S/C7H11NO/c1-6-5(8-6)2-7(6)3-9-4-7/h5,8H,2-4H2,1H3/t5-,6-/m0/s1
