23
gdb 122625	3.72786	0.6743	0.60798	2.7359	82.72	-0.2407	0.0799	0.3206	1883.8301	0.204378	-425.406383	-425.395749	-425.394805	-425.443624	37.486	
C	-0.2464950821	 1.5318603412	-0.1809631799	-0.407571
C	 0.0171429781	 0.0349102613	-0.0795294957	-0.055693
C	 1.350633233	-0.479620447	-0.6657448567	-0.073239
O	 1.7993955035	-0.9473362566	 0.6205976038	-0.293342
C	 0.5564557802	-0.5574746095	 1.2565330042	 0.143257
C	 0.7807324766	 0.3395453543	 2.4628847877	-0.209287
C	 1.528411727	-0.3892723681	 3.5847971217	-0.165804
C	 1.8082010674	 0.5047542571	 4.784897292	-0.076845
O	 2.4806120447	-0.2723514873	 5.7644887011	-0.42082
H	 0.6179957075	 2.1206106824	 0.1406618843	 0.122244
H	-0.4661604044	 1.8093022313	-1.2176878657	 0.116564
H	-1.1050790543	 1.8320991916	 0.4288716736	 0.118193
H	-0.8522340913	-0.515159096	-0.4495417454	 0.077241
H	 1.2683160567	-1.2962436441	-1.3944465486	 0.096666
H	 2.0153515025	 0.2926177536	-1.0758320848	 0.095565
H	-0.0002187797	-1.4524091268	 1.5738477976	 0.067917
H	 1.3478277118	 1.22659189	 2.1568782578	 0.09638
H	-0.1955683384	 0.6914960663	 2.8246909608	 0.092296
H	 0.947953394	-1.255921479	 3.9247053598	 0.102097
H	 2.4776738881	-0.7756492027	 3.1993783189	 0.128422
H	 2.4197068092	 1.3670119198	 4.4710192557	 0.082974
H	 0.8597676667	 0.9076240948	 5.1790850286	 0.07875
H	 2.6761349932	 0.294741913	 6.5158691192	 0.284037
40.0286	59.1498	86.0036	98.7025	140.8811	204.9941	242.4732	260.8922	287.309	356.1824	399.6002	460.3192	535.3673	732.7775	764.3494	824.9096	872.7075	890.506	920.9161	948.8198	1012.3979	1023.0738	1032.4819	1059.2696	1074.8143	1099.0497	1132.8547	1157.0058	1170.4335	1187.1038	1215.4226	1227.2667	1269.4075	1280.9589	1301.9178	1306.6219	1317.6407	1354.2333	1371.4175	1384.8318	1411.3218	1416.626	1462.5499	1471.5603	1497.1691	1499.3741	1500.4545	1528.1135	1530.0649	2952.0883	2977.6464	2980.0021	3002.8512	3012.0453	3032.4797	3036.1244	3040.5357	3059.8563	3067.8979	3092.3815	3095.5983	3108.8886	3830.905
CC1COC1CCCO	C[C@H]1CO[C@H]1CCCO	
InChI=1S/C7H14O2/c1-6-5-9-7(6)3-2-4-8/h6-8H,2-5H2,1H3	InChI=1S/C7H14O2/c1-6-5-9-7(6)3-2-4-8/h6-8H,2-5H2,1H3/t6-,7-/m0/s1
