19
gdb 13438	3.44055	1.2285	1.08672	3.1025	72.7	-0.2294	-0.0204	0.2091	1159.5052	0.162561	-365.040292	-365.030927	-365.029983	-365.075094	32.851	
C	-0.1655857345	 1.448910074	 0.7230111788	-0.414619
C	 0.0900367161	 0.0237724664	 0.2836138923	 0.002362
C	 0.2832226185	-0.383129697	-1.1445837765	-0.002203
C	 0.2308393519	 0.5853742287	-2.3062439326	-0.420739
N	 1.3982151317	-0.4433967378	-0.1872228876	-0.122158
C	 2.5214330195	 0.4700884688	-0.2956239872	-0.231702
C	 3.7135753568	-0.2585483175	-0.9007331825	 0.161102
O	 4.5861421651	 0.2785845152	-1.5311721284	-0.242365
H	 0.24027035	 1.6198683204	 1.7263792816	 0.126047
H	 0.2731081459	 2.1940665367	 0.0569753313	 0.122214
H	-1.2434659338	 1.6367146724	 0.7710110022	 0.125474
H	-0.3931609724	-0.7055141924	 0.9348172414	 0.089485
H	-0.068922574	-1.3780942704	-1.4172814542	 0.090897
H	 0.4493574292	 1.6179555653	-2.0286951377	 0.124445
H	 0.9393261051	 0.2930322314	-3.0894512844	 0.132767
H	-0.770946627	 0.5701292434	-2.7480558697	 0.126722
H	 2.3619812095	 1.3936113136	-0.8671008959	 0.113877
H	 2.8237628008	 0.7693131047	 0.719255101	 0.130831
H	 3.7142776816	-1.3519100656	-0.6947366322	 0.087564
46.242	74.0509	135.5314	153.4505	170.6352	239.2198	271.2185	310.2043	441.095	473.7754	532.9139	542.7672	706.852	768.5134	771.3952	855.8469	959.1808	1018.8121	1047.2162	1053.0889	1059.4436	1101.168	1133.1	1168.5882	1183.9562	1198.7345	1249.4763	1327.4238	1351.8113	1382.1164	1400.1143	1416.6462	1421.4021	1439.0203	1459.2867	1488.5054	1489.5771	1502.0704	1512.2647	1837.7935	2895.3254	3000.8181	3037.1785	3039.3427	3046.4866	3087.0916	3092.9035	3095.688	3099.4632	3128.455	3138.859
CC1C(C)N1CC=O	C[C@H]1[C@@H](C)N1CC=O	
InChI=1S/C6H11NO/c1-5-6(2)7(5)3-4-8/h4-6H,3H2,1-2H3	InChI=1S/C6H11NO/c1-5-6(2)7(5)3-4-8/h4-6H,3H2,1-2H3/t5-,6+,7?
