18
gdb 9523	3.09019	1.58773	1.48617	1.173	68.34	-0.2503	-0.0275	0.2228	969.019	0.151093	-384.948435	-384.939603	-384.938659	-384.981838	31.741	
C	 0.2772696895	 1.4851574515	 0.2129329296	-0.394301
C	-0.0237561238	 0.0142680535	-0.0932961008	-0.204531
C	 0.5953428467	-0.4777539929	-1.4064613097	 0.286783
C	 0.0484356051	 0.196282777	-2.658535571	-0.433939
O	 2.0594561855	-0.418299148	-1.3597623498	-0.326222
C	 2.228739264	-1.8459907208	-1.4234835225	-0.194767
C	 0.7077324199	-2.0115425377	-1.4988606767	 0.307184
O	-0.0615214201	-2.9188651726	-1.5913171122	-0.285298
H	 1.3558856977	 1.6647318672	 0.1967564559	 0.138932
H	-0.1919328166	 2.159221114	-0.5097101706	 0.119433
H	-0.0983964873	 1.7527553711	 1.2048142959	 0.117218
H	 0.3603978334	-0.6091623817	 0.7227439674	 0.101813
H	-1.1050466413	-0.1620933839	-0.1379289023	 0.11243
H	 0.2555037608	 1.2694704028	-2.6377029642	 0.135295
H	 0.5115830172	-0.2197440934	-3.5573416549	 0.124675
H	-1.0337132804	 0.0489826849	-2.7263122794	 0.132901
H	 2.7815945715	-2.1769786521	-2.3120123046	 0.131354
H	 2.702558748	-2.2683173089	-0.5278651201	 0.131039
78.7769	105.8181	146.7081	184.4221	214.5657	260.2245	302.5004	350.9621	408.2545	530.724	558.2943	658.865	723.6912	785.0306	857.0117	900.8893	957.3208	996.7733	1010.0596	1031.859	1040.4549	1073.134	1137.8476	1172.2024	1207.2488	1237.0431	1291.2993	1316.3855	1373.082	1400.1886	1406.8033	1471.6799	1481.4075	1485.7102	1492.0394	1504.6776	1509.3167	1918.3786	3014.3233	3031.3249	3043.3472	3046.1493	3058.6168	3068.6901	3111.0925	3119.5762	3122.3043	3125.1373
CCC1(C)OCC1=O	CC[C@@]1(C)OCC1=O	
InChI=1S/C6H10O2/c1-3-6(2)5(7)4-8-6/h3-4H2,1-2H3	InChI=1S/C6H10O2/c1-3-6(2)5(7)4-8-6/h3-4H2,1-2H3/t6-/m1/s1
