26
gdb 57539	3.37075	0.73437	0.71744	1.0115	93.6	-0.229	0.0747	0.3037	1778.9567	0.238523	-369.592209	-369.581228	-369.580284	-369.628662	41.309	
C	-0.0102163604	 1.575383121	 0.1922830748	-0.400204
C	 0.0124192921	 0.0425286972	 0.0387768639	 0.262084
C	 0.5359103449	-0.5977045509	 1.3385009837	-0.400683
C	-1.4256020527	-0.4500067847	-0.2118188917	-0.400666
C	 0.8748920487	-0.3820332015	-1.1756797408	-0.179998
C	 2.3669534661	-0.0438783816	-1.1167699179	-0.166327
N	 3.0413373579	-0.53930872	-2.3153441181	-0.055512
C	 3.0946317639	 0.3761779433	-3.4501625963	-0.218354
C	 4.314273282	 0.0887827148	-2.6458793292	-0.221429
H	 0.9814015687	 1.9805442782	 0.4164628836	 0.10995
H	-0.371460586	 2.0590110935	-0.7223559445	 0.106099
H	-0.67687018	 1.871419974	 1.0098561413	 0.107403
H	-0.1359558398	-0.3765884738	 2.1750800086	 0.106636
H	 0.6021947605	-1.6874037408	 1.2440920336	 0.109589
H	 1.528123821	-0.2236103944	 1.6097986775	 0.110829
H	-1.8368607032	-0.0212139646	-1.1324337281	 0.10687
H	-1.4591834916	-1.5407979175	-0.3078417936	 0.108602
H	-2.0875656715	-0.1660777768	 0.6138492311	 0.105074
H	 0.7861506405	-1.4663329317	-1.3157106731	 0.100554
H	 0.4533172521	 0.0765506889	-2.0803675063	 0.088504
H	 2.5161075895	 1.0439739838	-0.9927451038	 0.077105
H	 2.8369763262	-0.5313839806	-0.2553886527	 0.103071
H	 2.9589270891	-0.0705989561	-4.4310220455	 0.114661
H	 2.6455978525	 1.3619553946	-3.3323797074	 0.106027
H	 4.6766886995	 0.8834680002	-1.9948560077	 0.105705
H	 5.0863758598	-0.5742217043	-3.0262208316	 0.11441
36.0935	69.2044	126.1171	144.4838	223.6927	253.0346	270.0932	274.9772	300.8345	333.5867	372.839	385.3696	417.671	478.9414	487.998	742.2174	778.3986	788.5331	844.4321	894.8706	926.7433	931.471	944.8017	956.5457	987.6256	1009.4731	1031.8421	1044.3913	1085.6535	1097.4144	1113.5214	1117.4635	1164.0328	1176.3236	1225.9925	1233.1757	1271.5574	1290.8689	1318.7136	1329.6162	1341.0545	1398.4919	1399.1064	1407.6239	1432.4746	1478.1132	1480.5652	1487.0131	1487.4103	1491.1479	1501.9412	1508.6341	1509.8109	1518.9951	1524.0112	2938.5796	3014.188	3021.0335	3023.5988	3031.8781	3049.0528	3066.8592	3087.606	3088.2339	3089.2268	3092.8804	3094.3069	3095.7412	3098.2346	3102.2526	3172.3065	3186.6784
CC(C)(C)CCN1CC1	CC(C)(C)CCN1CC1	
InChI=1S/C8H17N/c1-8(2,3)4-5-9-6-7-9/h4-7H2,1-3H3	InChI=1S/C8H17N/c1-8(2,3)4-5-9-6-7-9/h4-7H2,1-3H3
