21
gdb 60240	3.00189	0.92136	0.83959	3.3593	79.82	-0.2362	-0.015	0.2213	1484.7863	0.180309	-424.240273	-424.230342	-424.229398	-424.275771	36.421	
C	 0.2319046101	 1.5316218994	 0.1857893864	-0.408037
C	 0.0487771217	 0.0232473554	 0.0296876345	 0.134814
O	 0.8012217766	-0.6935810952	 1.009832049	-0.4308
C	-1.4317429433	-0.3911169324	 0.0630986945	-0.231407
C	-1.6209598599	-1.8819606288	-0.1966458532	-0.074891
C	-3.0447644675	-2.5268035409	-0.1845088768	-0.268049
C	-2.7245730721	-3.2861201333	-1.508465402	-0.331997
C	-1.4921654445	-2.3778403807	-1.6470622086	 0.393758
O	-0.7901206054	-2.0614144621	-2.5657175072	-0.303225
H	 1.2951161942	 1.7861584961	 0.1858563999	 0.125925
H	-0.2559253822	 2.0762275729	-0.6288162249	 0.120143
H	-0.2055879399	 1.8825973719	 1.1297135087	 0.102218
H	 0.4718198694	-0.297779678	-0.9280509504	 0.120451
H	 0.5313580288	-0.3696196773	 1.8768653484	 0.274131
H	-1.8551785647	-0.130463491	 1.0445602308	 0.085393
H	-1.9881703969	 0.1917648608	-0.6819693344	 0.098593
H	-0.9289450415	-2.4462656759	 0.43996498	 0.115974
H	-3.28714651	-3.1434986569	 0.6818495345	 0.107348
H	-3.8328991275	-1.7815488288	-0.3200269117	 0.110431
H	-2.4365953255	-4.3302494049	-1.3480474279	 0.13229
H	-3.4502610398	-3.2467527604	-2.3242635496	 0.126939
57.6856	73.8666	89.9755	150.939	218.1783	242.3401	298.2693	320.269	342.9251	434.7419	470.0776	477.4972	550.6996	689.8363	742.2583	758.8752	829.2681	878.0457	923.4711	928.2082	945.2314	994.6027	1037.8288	1051.3536	1078.8234	1099.6054	1143.5145	1158.8412	1187.2154	1197.4776	1228.9719	1251.6772	1262.4087	1301.6516	1321.1502	1354.212	1387.0967	1402.0399	1427.539	1442.72	1474.8987	1491.9632	1493.8079	1495.2762	1878.1534	2997.7053	3020.6454	3041.2229	3053.9184	3059.0013	3068.5676	3070.2216	3095.766	3113.7836	3119.6241	3131.2377	3789.2806
CC(O)CC1CCC1=O	C[C@@H](O)C[C@H]1CCC1=O	
InChI=1S/C7H12O2/c1-5(8)4-6-2-3-7(6)9/h5-6,8H,2-4H2,1H3	InChI=1S/C7H12O2/c1-5(8)4-6-2-3-7(6)9/h5-6,8H,2-4H2,1H3/t5-,6-/m1/s1
