18
gdb 29878	3.10766	1.39696	0.9755	6.6617	86.1	-0.1995	-0.0113	0.1882	1197.8236	0.149502	-398.171906	-398.163413	-398.162468	-398.205106	31.644	
C	-0.3072325991	 1.44984272	-0.0071945679	-0.348041
N	 0.0066720102	 0.0297271466	 0.0207947118	-0.129313
C	 0.2232388673	-0.653033967	-1.1525661627	 0.09101
N	 0.5058418206	-1.895690733	-1.2776136402	-0.34243
C	 0.6174009099	-2.6903818606	-0.1121239019	 0.322496
N	 0.8969046243	-3.941537213	-0.1487644753	-0.547095
C	 0.3952370715	-2.0060332355	 1.1545450599	-0.196308
C	 0.1003968208	-0.6924154895	 1.2169573685	 0.348485
C	-0.1342764711	 0.0437831074	 2.5027743239	-0.493939
H	 0.4434561263	 2.0396465922	 0.5283019299	 0.144405
H	-0.3223688445	 1.7816521371	-1.046603553	 0.147312
H	-1.2892950578	 1.6547752346	 0.4306988731	 0.144396
H	 0.1357591589	-0.0350204076	-2.0460386289	 0.118394
H	 1.0122995962	-4.2170230882	-1.1265887567	 0.207231
H	 0.4739325997	-2.5884527013	 2.0638191875	 0.109014
H	-0.0279960688	-0.6461472311	 3.3407311772	 0.147537
H	 0.5818067758	 0.8615208046	 2.6433118351	 0.138432
H	-1.1386001601	 0.4802903042	 2.5476136297	 0.138416
76.8001	121.737	176.7144	214.4572	244.215	319.8928	352.5745	452.0529	455.6452	528.614	560.8189	567.8886	743.0563	757.6633	787.9585	880.1243	895.252	906.679	965.9859	1021.6663	1065.3238	1074.5022	1131.0435	1148.2535	1186.2706	1237.8846	1318.2216	1334.452	1412.1892	1428.6899	1446.0751	1471.758	1476.2086	1487.6601	1493.993	1522.1299	1634.0408	1678.1657	1727.9616	3029.7706	3038.118	3081.3655	3094.764	3126.5908	3138.4206	3142.4463	3213.6212	3453.9422
CN1C=NC(=N)C=C1C	CN1C=NC(=C[C@H]1C)[NH]	
InChI=1S/C6H9N3/c1-5-3-6(7)8-4-9(5)2/h3-4,7H,1-2H3	InChI=1S/C6H10N3/c1-5-3-6(7)8-4-9(5)2/h3-5,7H,1-2H3/t5-/m1/s1
