17
gdb 77611	2.11329	1.64728	1.29786	4.2651	74.69	-0.2406	0.0041	0.2447	1054.6158	0.135379	-417.974142	-417.965359	-417.964414	-418.007303	32.67	
C	-0.0099712273	 1.5704730822	 0.0476256062	-0.489944
C	 0.0212708619	 0.073556359	 0.0146164245	 0.214143
C	 0.6241802642	-0.7880598302	-1.0986440958	-0.226127
N	 1.2485589396	-1.7031982441	-0.0909096517	-0.364445
C	 0.6508148793	-0.9436993544	 1.0018440598	 0.139758
C	 1.2836237682	-0.756545371	 2.2674045705	 0.222119
N	 1.7507870299	-0.6130064555	 3.3173909789	-0.358029
C	-0.8648432902	-0.7967676029	 0.8610395977	 0.003308
O	-1.535138935	-0.1171294346	 1.8670089949	-0.41014
H	 0.9824948303	 1.9893578058	-0.1445755798	 0.132017
H	-0.6921167184	 1.9512387767	-0.7216832825	 0.129641
H	-0.3628661042	 1.928350011	 1.0162396304	 0.154563
H	-0.0977091389	-1.25480662	-1.778859532	 0.109316
H	 1.3895566745	-0.2733422042	-1.6875080363	 0.125478
H	 0.9223501655	-2.666215149	-0.1387176559	 0.224686
H	-1.4058160884	-1.6338372108	 0.4081017581	 0.087868
H	-1.4525537408	-0.6124899879	 2.6902630528	 0.30579
108.0806	124.9784	169.896	222.4162	268.6386	282.413	291.0391	361.0539	385.1651	489.0314	562.4501	594.3857	631.7938	691.6698	716.3254	827.0674	888.3463	945.6292	982.5423	1008.3321	1050.238	1110.2119	1119.6361	1160.8247	1186.1629	1241.1773	1252.7571	1299.5325	1326.5927	1355.0477	1379.5204	1417.424	1442.2429	1489.9631	1492.1735	1511.6327	2337.8986	3030.3339	3035.9749	3045.7392	3081.6757	3096.5261	3141.3567	3476.4081	3792.3277
CC12CNC1(C#N)C2O	C[C@@]12CN[C@]1(C#N)[C@H]2O	
InChI=1S/C6H8N2O/c1-5-3-8-6(5,2-7)4(5)9/h4,8-9H,3H2,1H3	InChI=1S/C6H8N2O/c1-5-3-8-6(5,2-7)4(5)9/h4,8-9H,3H2,1H3/t4-,5-,6+/m0/s1
