18
gdb 62264	4.0416	0.67346	0.61388	2.2024	71.03	-0.2564	-0.0407	0.2156	1745.3648	0.145557	-476.254537	-476.244527	-476.243583	-476.29102	34.441	
O	 0.4670347455	 1.5356608026	 0.1740244636	-0.438315
C	 0.0077330142	 0.2418168323	-0.1168400537	 0.047006
C	 0.5330563753	-0.2474004953	-1.4765691793	-0.205679
C	 0.0780986893	 0.6843359086	-2.6085549295	-0.165217
N	 0.5888468658	 0.2865226542	-3.911432692	-0.269277
C	 0.0621271522	-0.7548279681	-4.6048186663	 0.150232
O	-0.8616060717	-1.4420069294	-4.218728164	-0.327563
C	 0.4133191902	-0.7188562527	 0.9809941092	 0.135386
O	 1.0551770081	-0.3544795797	 1.9368444762	-0.260924
H	 0.9268880418	 1.4629580431	 1.0257666804	 0.295405
H	-1.0983093016	 0.2275880122	-0.1512667763	 0.100242
H	 1.6283472972	-0.2829920584	-1.4437624443	 0.105
H	 0.1629288414	-1.2573762588	-1.6813675943	 0.130842
H	-1.0158401233	 0.6843199633	-2.6583955149	 0.134183
H	 0.4095337844	 1.7037579646	-2.402086396	 0.133544
H	 1.3751788751	 0.7777819756	-4.3038690108	 0.252214
H	 0.5686471724	-0.909006693	-5.5784035348	 0.077478
H	 0.0944216137	-1.773313561	 0.8563861067	 0.105444
43.6378	62.8563	84.1473	115.2586	175.6095	220.882	274.8905	309.1569	355.028	385.5915	435.5366	495.8529	531.8904	735.4152	751.4017	825.3994	847.3924	946.966	972.1887	996.5451	1033.0465	1066.0272	1121.0245	1166.9741	1208.4386	1248.7112	1258.8449	1304.6705	1342.0008	1357.5893	1395.445	1408.8157	1427.5286	1438.2087	1470.8184	1486.0969	1526.0513	1799.6273	1811.9697	2927.999	2936.7842	2943.9566	3037.8573	3058.6077	3092.3409	3127.	3644.9821	3684.8767
OC(CCNC=O)C=O	O[C@@H](CCNC=O)C=O	
InChI=1S/C5H9NO3/c7-3-5(9)1-2-6-4-8/h3-5,9H,1-2H2,(H,6,8)	InChI=1S/C5H9NO3/c7-3-5(9)1-2-6-4-8/h3-5,9H,1-2H2,(H,6,8)/t5-/m0/s1
