17
gdb 5081	3.2245	1.94719	1.23257	0.6786	71.26	-0.1739	0.0586	0.2325	970.7644	0.14111	-363.90716	-363.898166	-363.897222	-363.940783	32.073	
C	 0.0044427299	 1.5118171441	 0.0077518464	-0.50256
C	 0.0086873744	 0.0140391566	-0.003589319	 0.216348
C	-0.0386843911	-0.7946476856	-1.1092765615	-0.192327
N	-0.0162052165	-2.1104657434	-0.6779815232	-0.304585
C	 0.0455880653	-2.127534888	 0.6837575213	 0.308389
O	 0.0767149016	-3.3426204362	 1.2948644452	-0.43779
C	 0.0632768421	-0.8364585735	 1.1584557303	 0.055376
C	 0.1261210321	-0.4013664629	 2.5906639598	-0.514654
H	 0.9049764362	 1.9215188572	 0.4827419016	 0.118163
H	-0.0414424585	 1.912109892	-1.0093628188	 0.116872
H	-0.8536081866	 1.9159975267	 0.559880079	 0.118182
H	-0.0872164273	-0.5555176284	-2.1589920634	 0.11
H	-0.0365535915	-2.9333922079	-1.2531900054	 0.261851
H	 0.1215424441	-3.198358709	 2.2449461785	 0.30277
H	 1.017130902	 0.2028425715	 2.8030071144	 0.126454
H	-0.7438211847	 0.201314741	 2.880508714	 0.126508
H	 0.1569986084	-1.2557558841	 3.2785472608	 0.091004
47.7574	138.2114	155.4903	184.3631	228.9565	259.4975	288.9193	299.0255	420.2312	493.6119	559.338	628.779	658.7726	684.2575	707.8626	762.7715	942.7976	1002.1756	1049.8641	1070.0302	1081.3241	1122.1213	1167.9425	1234.6617	1279.5409	1368.0965	1407.3768	1416.4742	1426.9241	1471.9462	1483.3235	1490.9587	1506.7706	1556.0806	1588.0067	1659.186	3006.901	3013.4271	3055.5771	3056.1921	3063.613	3100.5074	3265.4869	3693.4446	3841.3551
CC1=CNC(O)=C1C	Cc1c[nH]c(O)c1C	
InChI=1S/C6H9NO/c1-4-3-7-6(8)5(4)2/h3,7-8H,1-2H3	InChI=1S/C6H9NO/c1-4-3-7-6(8)5(4)2/h3,7-8H,1-2H3
