15
gdb 125016	2.3537	1.86981	1.0501	3.5877	74.49	-0.22	-0.0599	0.1602	1070.3081	0.11242	-453.948262	-453.940072	-453.939128	-453.98108	30.385	
C	 0.0915917415	 1.5307626414	 0.0071807863	-0.499398
C	-0.021465951	 0.0408063341	-0.0092686382	 0.348726
C	-1.185576271	-0.6623108531	 0.0591435968	 0.069766
N	-2.443804591	-0.1013644305	 0.1950937993	-0.593195
C	-1.1197750501	-2.1139213234	 0.0495449305	 0.329289
O	-2.1171469987	-2.8291673842	 0.1055540025	-0.394068
C	 0.2447989787	-2.6241370797	-0.0478049562	-0.064593
N	 1.3301230092	-1.926524148	-0.1270092732	-0.060386
O	 1.1919956073	-0.5631336486	-0.1070049869	-0.263377
H	 1.0878023692	 1.8281591885	 0.3410459327	 0.157837
H	-0.0715031041	 1.9613259372	-0.9887652918	 0.147579
H	-0.6539777999	 1.9558698316	 0.6858822597	 0.151656
H	-2.6253190559	 0.7457298814	-0.321334457	 0.252326
H	-3.1595291029	-0.8090010176	 0.071189049	 0.268119
H	 0.3954756284	-3.6995105792	-0.0728981234	 0.149718
84.6051	124.9057	185.4622	265.4813	302.5237	323.2694	361.6796	477.6172	515.8571	532.6988	540.0568	575.1583	664.1835	686.2848	781.8315	878.3039	921.1755	945.9979	983.5252	1032.4805	1053.4316	1221.7019	1237.5687	1258.4005	1309.925	1401.9725	1450.579	1476.8702	1490.3171	1602.9188	1622.014	1676.9793	1728.1157	3028.9879	3092.5965	3137.3963	3187.4618	3531.3257	3655.0735
CC1=C(N)C(=O)C=NO1	Cc1c(N)c(=O)cno1	
InChI=1S/C5H6N2O2/c1-3-5(6)4(8)2-7-9-3/h2H,6H2,1H3	InChI=1S/C5H6N2O2/c1-3-5(6)4(8)2-7-9-3/h2H,6H2,1H3
