17
gdb 68809	2.70009	1.33635	1.1603	3.9741	73.49	-0.2314	0.0279	0.2593	1104.1377	0.135614	-417.983061	-417.974231	-417.973287	-418.016541	33.076	
N	-0.2090637456	 1.4729487452	 0.084760917	-0.593953
C	-0.1074778423	 0.0713044032	-0.0696203012	 0.241686
C	-0.2851610585	-0.8483335167	 1.1277292255	-0.402525
C	-1.201939992	-1.0065316599	-0.0481584583	 0.413556
O	-2.5780616524	-0.9545775249	-0.0135927226	-0.458048
C	-0.5213861248	-1.7853501767	-1.1637027856	-0.287553
C	 0.6521475546	-0.733320279	-1.1714981872	-0.222865
C	 0.7929807339	-0.0002829805	-2.4170566561	 0.270302
N	 0.8866235087	 0.6291370859	-3.3831849119	-0.333223
H	 0.6289666048	 1.8751882673	 0.494543302	 0.236981
H	-0.3725291934	 1.9347952034	-0.8050552608	 0.250448
H	 0.4593314065	-1.5977699305	 1.3935778755	 0.10794
H	-0.7259910712	-0.3322266166	 1.9763623042	 0.118969
H	-2.8523847139	-0.4427000075	 0.7542979319	 0.293196
H	-0.2324765195	-2.8173516373	-0.9461494328	 0.111985
H	-1.096470639	-1.7525536283	-2.0900495302	 0.14036
H	 1.6300945541	-1.1247111571	-0.8698072195	 0.112745
89.9012	107.7761	133.2098	192.9164	272.7065	329.4134	369.7684	382.363	430.7702	498.5054	532.1112	586.18	615.3899	727.0924	770.1363	795.3916	839.6324	851.8527	919.4645	970.1769	1024.0999	1034.1679	1069.3886	1114.7072	1130.1264	1151.2369	1183.6326	1246.0001	1274.6428	1315.6009	1331.1653	1408.9583	1420.71	1478.7216	1518.5343	1663.9838	2349.006	3045.4517	3065.2667	3088.3525	3135.0282	3188.0795	3487.3342	3564.7661	3824.1488
NC12CC1(O)CC2C#N	N[C@@]12C[C@]1(O)C[C@H]2C#N	
InChI=1S/C6H8N2O/c7-2-4-1-5(9)3-6(4,5)8/h4,9H,1,3,8H2	InChI=1S/C6H8N2O/c7-2-4-1-5(9)3-6(4,5)8/h4,9H,1,3,8H2/t4-,5+,6+/m0/s1
