20
gdb 49713	2.73956	1.43154	1.37664	4.0592	79.28	-0.2376	0.0328	0.2703	1060.3492	0.174769	-403.194006	-403.186443	-403.185499	-403.226635	29.601	
O	 0.0019491635	 0.0127082675	 0.228425126	-0.342634
C	 0.0609464883	 1.2182850403	 0.0926429575	 0.130037
N	 1.1817684505	 1.9228428364	-0.1952411354	-0.015902
C	 2.5700009859	 1.4518834047	-0.1313321591	-0.012665
C	 3.1928749162	 2.2531598926	-1.2987866827	-0.210803
C	 2.3931233263	 3.5976085835	-1.2469820729	-0.206263
C	 1.4323954078	 3.3602431824	-0.0570526904	-0.026457
C	 2.2466761333	 3.4129063754	 1.2634209872	-0.209792
C	 3.0443852983	 2.0684938964	 1.2113755668	-0.211696
H	-0.8294253795	 1.8779539208	 0.1529190033	 0.064367
H	 2.6412310391	 0.3692733569	-0.2015070569	 0.1066
H	 4.2690141442	 2.3914053518	-1.1691016235	 0.102049
H	 3.0326637777	 1.7377210413	-2.2484464452	 0.11155
H	 3.0306915705	 4.4706268441	-1.0874065051	 0.102221
H	 1.8308476481	 3.7569177073	-2.1700708292	 0.107913
H	 0.5202860142	 3.9573711027	-0.0664851317	 0.082369
H	 2.8918819502	 4.2938513169	 1.3126100074	 0.102697
H	 1.576566574	 3.4418231184	 2.1265488881	 0.107205
H	 2.7752028002	 1.4166359435	 2.045691063	 0.117214
H	 4.1273994912	 2.2138551971	 1.2345992427	 0.101989
44.2031	155.324	198.7419	286.0735	332.4003	376.7898	519.375	570.9765	589.7049	740.1257	786.8688	808.3602	815.2713	867.4593	882.7917	900.8565	924.5573	943.3905	987.7282	1004.0482	1017.547	1033.2733	1095.3245	1120.8112	1142.1951	1168.4991	1219.0815	1233.5761	1237.32	1277.8008	1283.7897	1291.7468	1303.9898	1327.5792	1340.6226	1340.7139	1419.6635	1451.2581	1481.5991	1495.254	1497.65	1515.8103	1786.1071	2916.0218	3058.5849	3062.3764	3068.2368	3072.5594	3098.1151	3102.8786	3116.5885	3119.1083	3124.0578	3159.9333
O=CN1C2CCC1CC2	O=CN1[C@H]2CC[C@@H]1CC2	
InChI=1S/C7H11NO/c9-5-8-6-1-2-7(8)4-3-6/h5-7H,1-4H2	InChI=1S/C7H11NO/c9-5-8-6-1-2-7(8)4-3-6/h5-7H,1-4H2/t6-,7+
