15
gdb 98498	2.83674	1.23884	0.9707	5.7721	67.72	-0.2716	-0.0193	0.2523	1204.5779	0.111237	-453.957007	-453.947862	-453.946918	-453.991609	31.591	
C	-0.3405075895	 1.4312478958	 0.435265786	-0.338018
N	-0.2627608204	-0.0074947967	 0.6073943648	-0.322278
C	 0.9164810009	-0.6696773341	 0.6402415744	 0.337338
O	 2.0233104936	-0.1773979197	 0.5602378566	-0.358815
C	 0.7546591749	-2.1765267006	 0.836821773	 0.157946
C	 0.162133046	-2.6830205989	 2.0971244672	-0.185722
O	-0.5788866784	-2.6985062353	 0.8795788084	-0.259503
C	 1.7296590162	-2.9950283207	 0.143530428	 0.274629
N	 2.4875335569	-3.6671483304	-0.4105731042	-0.321366
H	 0.6777062696	 1.8213661798	 0.4543181487	 0.17611
H	-0.8035667724	 1.6911240366	-0.5225119752	 0.138725
H	-0.9190470708	 1.8905946227	 1.2429835075	 0.133891
H	-1.1015361651	-0.5677957943	 0.5935225041	 0.268306
H	 0.4693183277	-3.6573010144	 2.4687916311	 0.155605
H	-0.1637681594	-1.9575344197	 2.8391190598	 0.143154
61.2325	92.7636	121.1463	152.8494	204.0917	253.5962	277.6129	323.0938	427.3382	466.6926	558.0931	599.7726	601.6942	756.9886	793.5181	887.7217	893.9648	944.3672	1036.1842	1133.8907	1153.9649	1166.184	1178.9459	1199.3761	1285.6622	1342.2883	1445.6537	1493.4266	1499.5709	1512.7419	1570.3257	1800.9289	2371.3566	3037.0283	3093.8584	3103.9862	3156.2304	3206.3762	3622.9256
CNC(=O)C1(CO1)C#N	CNC(=O)[C@]1(CO1)C#N	
InChI=1S/C5H6N2O2/c1-7-4(8)5(2-6)3-9-5/h3H2,1H3,(H,7,8)	InChI=1S/C5H6N2O2/c1-7-4(8)5(2-6)3-9-5/h3H2,1H3,(H,7,8)/t5-/m1/s1
