13
gdb 129120	5.21115	1.37446	1.09513	3.0745	65.8	-0.2534	-0.0315	0.222	1000.3455	0.092081	-448.920224	-448.913882	-448.912938	-448.951224	24.056	
N	-0.0892144994	 1.231029051	 0.0079609468	-0.504953
C	-0.0354351676	-0.0175253054	 0.0007733786	 0.382351
C	-1.2369017497	-0.9723453375	 0.0022658306	-0.260132
N	-0.5433706177	-2.2395126648	-0.0086572001	 0.023609
N	-0.8842789539	-3.5505095323	-0.0139658776	-0.166323
N	 0.2437388951	-4.2053204147	-0.0237538164	-0.175414
C	 1.3153563441	-3.347383927	-0.0252210803	-0.199455
C	 0.7902068581	-2.0839236054	-0.0153111563	 0.399501
O	 1.1494094173	-0.7716403805	-0.0101053567	-0.247468
H	 0.837827522	 1.657017713	 0.0050723622	 0.250551
H	-1.8494580331	-0.8342337662	 0.8969016847	 0.178976
H	-1.8594945416	-0.824378625	-0.8838253081	 0.178976
H	 2.3329901863	-3.6944063552	-0.0328728373	 0.13978
103.0102	180.7751	322.2605	339.2134	515.8809	532.5675	566.0198	691.9384	705.2791	765.475	810.1934	829.9189	843.9717	892.2804	989.0843	1011.3398	1016.7033	1103.3833	1133.2606	1184.6147	1230.6084	1248.0814	1291.4592	1324.4823	1352.8191	1482.8822	1529.8619	1609.1665	1823.4101	3072.0802	3117.2478	3298.9005	3500.6159
N=C1CN2N=NC=C2O1	[NH][C]1Cn2nncc2O1	
InChI=1S/C4H4N4O/c5-3-2-8-4(9-3)1-6-7-8/h1,5H,2H2	InChI=1S/C4H4N4O/c5-3-2-8-4(9-3)1-6-7-8/h1,5H,2H2
