18
gdb 108452	2.39435	1.67027	1.21758	2.8249	72.67	-0.2598	0.0186	0.2784	1058.4584	0.14857	-439.066876	-439.058807	-439.057862	-439.099596	30.821	
O	-0.0379351369	 1.4133733193	-0.0248942429	-0.421347
C	 0.0205503073	 0.0059123584	 0.0944484807	-0.168287
C	-1.3794643073	-0.5733479308	 0.0534899911	 0.187795
C	-2.3389417617	-0.4194672892	 1.2778341209	-0.280068
C	-2.7626198755	-1.9155715792	 1.137592054	-0.235999
C	-1.8510840696	-2.0541248727	-0.0948984104	 0.032234
O	-2.5504591041	-1.6975019557	-1.3391476945	-0.273153
C	-2.1009666326	-0.3994409134	-1.2577867041	 0.42469
N	-2.2084450793	 0.5739335273	-2.0465039156	-0.57479
H	-0.5450335236	 1.6041387116	-0.8282398687	 0.303063
H	 0.6337768465	-0.4486576452	-0.7012801021	 0.090797
H	 0.5068893919	-0.2126283733	 1.0516889065	 0.104022
H	-1.79128862	-0.209367946	 2.1989385694	 0.119064
H	-3.1256903627	 0.3276428647	 1.1649731046	 0.124031
H	-2.4408945002	-2.5374026873	 1.9765189112	 0.114867
H	-3.8161253812	-2.1154250433	 0.9339368621	 0.122603
H	-1.2163972172	-2.9270517769	-0.2434843165	 0.098472
H	-2.7390378338	 0.3429267117	-2.8871747657	 0.232008
105.5059	124.9915	148.1868	222.6615	285.007	330.291	422.2411	478.5241	539.6783	611.0602	712.8958	720.9319	749.1309	838.1572	857.9132	868.242	916.2162	941.5827	961.8572	983.736	1016.4153	1062.3078	1090.0905	1110.8258	1137.7315	1181.5171	1217.553	1233.3845	1235.8334	1266.708	1278.4117	1314.4828	1370.4119	1385.2481	1455.7641	1465.7138	1488.7234	1511.1163	1808.3072	2967.3343	3061.1077	3070.7123	3078.5881	3120.9876	3125.7745	3139.082	3484.6497	3717.2405
OCC12CCC1OC2=N	OC[C@]12CC[C@H]1O[C]2[NH]	
InChI=1S/C6H9NO2/c7-5-6(3-8)2-1-4(6)9-5/h4,7-8H,1-3H2	InChI=1S/C6H9NO2/c7-5-6(3-8)2-1-4(6)9-5/h4,7-8H,1-3H2/t4-,6-/m1/s1
