14
gdb 13850	4.02779	1.79482	1.39849	5.4163	58.15	-0.2366	0.0022	0.2388	851.0079	0.10957	-415.906784	-415.89992	-415.898976	-415.938378	24.986	
O	-0.26951471	-0.0449097802	 0.6276363127	-0.366164
C	-0.1473233596	 1.1515757322	 0.0398367401	 0.424433
O	 0.8888203957	 1.5594947782	-0.4115775558	-0.335318
C	-1.4524738022	 1.9698125167	 0.0304182631	-0.120213
C	-1.6738680697	 2.7258696614	-1.306582878	-0.194885
N	-2.7524514496	 1.9188323544	-1.8904042486	-0.284953
C	-3.2538807839	 1.1118424004	-0.9090357822	 0.076078
N	-2.61331098	 1.0695538034	 0.2039180073	-0.294932
H	-1.2229426111	-0.1564527796	 0.8200053158	 0.309848
H	-1.3818895423	 2.6578740023	 0.8797789241	 0.124664
H	-1.9944179951	 3.7614919918	-1.1461890426	 0.114562
H	-0.7712981306	 2.7243855846	-1.9215856792	 0.150555
H	-3.3341439872	 2.2723189195	-2.6323635786	 0.256733
H	-4.1384517044	 0.5139566548	-1.1079828581	 0.139593
84.2655	100.7635	241.1103	303.1311	407.9581	476.7204	516.4927	596.5473	696.0994	762.6328	796.3945	837.013	897.4709	967.3849	988.5377	998.6747	1039.1843	1074.8136	1151.8581	1189.7299	1224.1543	1265.8964	1301.7588	1313.238	1346.0144	1409.3267	1460.7966	1529.3604	1667.4158	1868.6899	3033.2324	3054.7723	3108.0342	3190.5012	3548.379	3647.5
[O-]C(=O)C1CNC=[NH+]1	OC(=O)[C@H]1CN[CH][N]1	
InChI=1S/C4H6N2O2/c7-4(8)3-1-5-2-6-3/h2-3H,1H2,(H,5,6)(H,7,8)	InChI=1S/C4H6N2O2/c7-4(8)3-1-5-2-6-3/h2-3H,1H2,(H,5,6)(H,7,8)/t3-/m1/s1
