15
gdb 44307	3.49825	1.94045	1.47795	3.5099	70.46	-0.2442	0.0161	0.2603	856.3391	0.115233	-416.689256	-416.683428	-416.682484	-416.719258	24.587	
N	-0.0865799567	 1.1964472855	-0.1899885523	-0.565049
C	-0.0619171846	-0.045777892	 0.0031604244	 0.356755
O	 1.055131904	-0.8705861526	 0.0734225877	-0.285831
C	 0.5195909544	-2.2292568325	 0.3000297758	 0.052043
C	-0.707944046	-2.3420232422	-0.6063838353	-0.089403
C	-1.7517292007	-2.741524452	 0.4778755566	-0.09529
N	-2.5587814512	-1.439668287	 0.4040469949	-0.413974
C	-1.1352145618	-1.056930217	 0.2010547679	 0.243766
C	-0.628328109	-2.0550651991	 1.29653354	-0.055571
H	 0.8607602742	 1.5651302769	-0.2923563049	 0.229351
H	 1.358870038	-2.9166228813	 0.3731164401	 0.097404
H	-0.7720493742	-2.4521525265	-1.6884977539	 0.09797
H	-2.2425995727	-3.6978949474	 0.6515580765	 0.097962
H	-3.0686342199	-1.3858955519	-0.4822025349	 0.22123
H	-0.6140110639	-1.8377626911	 2.3622351373	 0.108638
177.6802	306.4108	396.9226	505.0294	535.1343	621.3959	679.2354	703.0757	770.629	806.0214	819.2384	868.634	871.5557	894.894	896.7126	902.5873	951.6065	976.247	1004.0717	1039.8092	1091.1748	1113.1588	1131.0427	1148.998	1185.0048	1188.4645	1227.9578	1258.6625	1280.1455	1303.8644	1313.2149	1360.4401	1810.3124	3122.7793	3132.3843	3147.4913	3159.1708	3408.9083	3471.3792
N=C1OC2C3C4NC13C24	[NH][C]1O[C@@H]2[C@H]3[C@@H]4N[C@]13[C@H]24	
InChI=1S/C6H6N2O/c7-5-6-1-3(8-6)2(6)4(1)9-5/h1-4,7-8H	InChI=1S/C6H6N2O/c7-5-6-1-3(8-6)2(6)4(1)9-5/h1-4,7-8H/t1-,2+,3+,4-,6-
