13
gdb 129049	2.73559	1.58766	1.00461	5.2809	70.25	-0.255	-0.0922	0.1628	1074.3521	0.089022	-452.716851	-452.709335	-452.70839	-452.750081	26.866	
N	-0.1799081363	 1.278217489	-0.1330944336	-0.525974
C	-0.0173216651	 0.01049709	-0.0063940519	 0.241385
C	 1.2213900014	-0.7406329273	 0.0743073677	-0.229079
C	 1.1677354923	-2.072340697	 0.2065415105	 0.102309
O	 0.0233741936	-2.7885386679	 0.2724110821	-0.228622
N	-1.1999494946	-2.1461905775	 0.2022357334	-0.09493
C	-1.2089178155	-0.8628737582	 0.0743800887	 0.201126
C	-2.5911370281	-0.2404624452	 0.0056449374	 0.122443
O	-3.6109281149	-0.8751495671	 0.0602144933	-0.234067
H	 0.7222586864	 1.7562722057	-0.1760867563	 0.221154
H	 2.1796915552	-0.2370162825	 0.0287997271	 0.125942
H	 2.0250042605	-2.7317024359	 0.276332131	 0.158263
H	-2.5659246349	 0.8567225239	-0.0998693792	 0.14005
37.9879	85.348	217.9447	264.6661	360.8765	427.4461	445.1193	489.0558	548.8029	644.1265	754.8787	772.9891	818.2717	868.4273	903.3592	966.483	967.9673	1017.9216	1042.0324	1128.5344	1184.0679	1248.8562	1379.9257	1400.5643	1441.445	1601.7541	1644.8008	1706.7986	1822.5173	3010.2974	3200.5299	3221.0002	3451.4084
N=C1C=CON=C1C=O	[NH]C1=C[CH]ON=C1C=O	
InChI=1S/C5H4N2O2/c6-4-1-2-9-7-5(4)3-8/h1-3,6H	InChI=1S/C5H4N2O2/c6-4-1-2-9-7-5(4)3-8/h1-3,6H
