17
gdb 43767	3.87608	1.10714	0.99004	2.4344	74.17	-0.2382	-0.0227	0.2155	1195.8816	0.136376	-417.94257	-417.934744	-417.9338	-417.97553	29.805	
O	-0.42400818	 0.1805951142	-0.1909990084	-0.304896
C	-0.1570533714	 1.3256191165	 0.0212619751	 0.467059
C	-0.9581197498	 2.5071669459	 0.6494527995	-0.419814
C	 0.1445834118	 3.4291070083	 0.0882827363	 0.3528
N	 1.3622316604	 3.006976759	 0.7970537867	-0.366094
C	 0.9428297569	 2.2525484164	-0.4350997928	-0.24799
C	 0.0066074188	 4.7784972452	-0.5045532646	-0.118595
C	-1.3081357102	 5.3146757543	-0.9397464382	-0.247426
N	-0.6433916711	 5.8675517455	 0.251453396	-0.316282
H	-1.9311157642	 2.594356744	 0.1590750716	 0.133649
H	-1.0731945933	 2.5084443134	 1.7349199779	 0.134542
H	 2.1254758556	 3.617638969	 0.4996359672	 0.240393
H	 1.609742602	 2.165177689	-1.2839741306	 0.116781
H	 0.8936085838	 5.1080056684	-1.044871345	 0.090458
H	-1.3543382387	 5.9864876245	-1.7918237031	 0.127801
H	-2.1891536351	 4.6936450869	-0.8076105051	 0.118869
H	-1.0739313554	 5.4878950196	 1.0923204574	 0.238745
61.0549	96.735	180.3731	244.0533	371.789	413.1088	460.4066	474.7853	560.6126	616.3315	671.9951	762.4151	825.6313	841.7613	864.5517	940.5407	951.3787	962.7892	973.714	998.4937	1034.0103	1056.7403	1099.2284	1125.5529	1130.7421	1153.0447	1184.2425	1196.9144	1247.069	1273.7074	1296.5198	1326.7524	1370.5575	1436.8014	1465.8871	1512.2318	1898.351	3072.4681	3108.6215	3117.9197	3136.269	3199.8932	3202.2066	3452.8513	3491.0659
O=C1CC2(NC12)C1CN1	O=C1C[C@]2(N[C@@H]12)[C@H]1CN1	
InChI=1S/C6H8N2O/c9-3-1-6(4-2-7-4)5(3)8-6/h4-5,7-8H,1-2H2	InChI=1S/C6H8N2O/c9-3-1-6(4-2-7-4)5(3)8-6/h4-5,7-8H,1-2H2/t4-,5+,6+/m1/s1
