20
gdb 13982	5.12593	1.20201	1.11433	1.1551	76.27	-0.241	0.0886	0.3295	1153.8503	0.176866	-348.963976	-348.955636	-348.954692	-348.997088	30.778	
C	-0.6657037658	 1.4101851977	-0.5159581808	-0.21931
O	-0.8694561243	 0.0222710499	-0.6149413589	-0.234369
C	-0.5947494493	-0.6631411475	 0.5886297889	-0.18142
C	-0.8147340007	-2.1328526896	 0.3857142268	 0.363348
C	-0.5163863068	-2.8385842165	-0.9055106916	-0.316822
C	-1.9247453116	-2.868606385	-0.3680384022	-0.082411
C	-2.0312971494	-3.9047652495	 0.7570026289	-0.216589
C	-0.8957951111	-3.1537048422	 1.5303488894	-0.300521
H	-0.9005920635	 1.846423993	-1.4899979273	 0.126226
H	-1.3190933417	 1.8668374802	 0.2445842465	 0.103029
H	 0.3778431267	 1.6532591899	-0.2594377678	 0.103542
H	 0.446293808	-0.47029173	 0.9090018014	 0.08385
H	-1.2489066557	-0.2895985852	 1.3974910739	 0.081296
H	-0.3657957908	-2.1777893671	-1.7514804647	 0.124293
H	 0.0871812781	-3.7448230397	-0.9162412451	 0.093133
H	-2.7514846822	-2.4528745722	-0.9310178354	 0.087642
H	-2.9833661457	-3.8701407142	 1.2912396317	 0.100443
H	-1.8307047618	-4.9433477748	 0.472412809	 0.093587
H	 0.0217052165	-3.7138321311	 1.7403671496	 0.092268
H	-1.2563510287	-2.7177721463	 2.4663107679	 0.098784
78.2723	82.0247	150.8186	211.478	236.1338	325.8807	364.3744	391.4694	454.9626	674.0096	725.2591	786.1162	832.3353	880.1129	929.741	956.7792	972.163	985.647	1009.7513	1035.4376	1057.683	1090.0753	1126.9511	1151.2276	1166.6325	1186.0808	1201.9005	1222.4165	1237.8299	1239.0939	1267.8313	1276.0391	1292.6697	1396.7543	1432.1438	1479.6561	1480.3927	1484.2607	1484.437	1503.1212	1511.5378	1526.675	2924.5052	2946.6543	2969.0591	3011.4745	3036.9383	3045.54	3085.923	3096.8586	3107.683	3112.3802	3185.7075	3214.289
COCC12CC1CC2	COC[C@]12C[C@H]1CC2	
InChI=1S/C7H12O/c1-8-5-7-3-2-6(7)4-7/h6H,2-5H2,1H3	InChI=1S/C7H12O/c1-8-5-7-3-2-6(7)4-7/h6H,2-5H2,1H3/t6-,7+/m1/s1
