19
gdb 111900	3.2961	1.10473	0.87004	3.8894	78.55	-0.2457	-0.0292	0.2165	1339.1488	0.158406	-423.064583	-423.055614	-423.05467	-423.098449	33.497	
C	-0.0844485037	 1.5115761257	 0.0991000517	-0.487026
C	-0.0105599137	 0.0208274081	 0.0173308114	 0.306659
C	 0.0354477325	-0.7261423187	-1.0919343255	-0.18723
C	 0.0940353667	-2.2053682147	-0.8230091836	-0.1743
C	 1.2789715283	-2.9763428532	-1.4484936104	-0.055689
O	 1.2059526408	-4.3548804584	-1.1736018561	-0.424744
C	 0.1769498906	-2.2555342187	 0.7081018996	 0.400255
O	 0.4089885066	-3.2485428571	 1.3586287948	-0.331035
C	 0.0033542052	-0.8392939789	 1.2603587881	-0.412272
H	 0.7628571899	 1.9194090828	 0.6647970372	 0.130676
H	-0.0835006558	 1.9684542703	-0.8941798392	 0.128385
H	-0.9923056765	 1.8353889848	 0.6238739285	 0.130012
H	 0.025836862	-0.3209814004	-2.0986486382	 0.097174
H	-0.819573723	-2.7273491033	-1.144837914	 0.115378
H	 1.25516385	-2.8609410788	-2.5377512943	 0.106601
H	 2.2242478011	-2.5318113722	-1.0940112898	 0.085602
H	 1.0907620735	-4.4363591018	-0.2158080881	 0.296105
H	 0.8088017604	-0.5994645731	 1.9660671516	 0.137055
H	-0.9309679247	-0.7737876123	 1.8363658764	 0.138398
69.1937	115.7168	158.8344	185.7544	223.5496	288.2915	347.7743	383.5691	441.2223	487.3337	544.5627	559.8531	605.3196	709.8638	754.7231	836.0687	885.6845	912.7455	983.7119	996.4925	1028.4266	1049.9525	1086.3959	1091.4326	1137.9177	1159.1775	1186.5421	1206.5065	1250.3142	1278.5156	1315.4796	1348.9118	1379.1346	1414.719	1439.6432	1458.0091	1477.3948	1487.1346	1513.0924	1711.7007	1820.9793	2961.3367	3002.2593	3014.6146	3019.1578	3051.8838	3062.4905	3065.2845	3112.3858	3183.795	3727.1268
CC1=CC(CO)C(=O)C1	CC1=C[C@@H](CO)C(=O)C1	
InChI=1S/C7H10O2/c1-5-2-6(4-8)7(9)3-5/h2,6,8H,3-4H2,1H3	InChI=1S/C7H10O2/c1-5-2-6(4-8)7(9)3-5/h2,6,8H,3-4H2,1H3/t6-/m0/s1
