19
gdb 98564	4.18452	0.97059	0.8065	1.6351	78.8	-0.2248	-0.0539	0.1709	1442.2386	0.159671	-419.247399	-419.238192	-419.237248	-419.282311	32.865	
C	-0.0021658423	 1.5294307844	 0.0160966211	-0.38334
C	-0.0535142584	 0.0082902763	-0.0945133786	-0.279541
C	-1.4618348284	-0.5395904454	-0.1401803545	 0.322446
O	-2.4565882336	 0.1559641312	-0.1623594504	-0.323838
C	-1.6213263712	-2.0337087948	-0.1424439707	 0.289899
N	-0.6571247028	-2.8613911044	 0.0361630574	-0.305135
C	-1.2711045368	-4.2022951953	-0.0220647132	-0.166701
C	-2.8083618656	-3.9686304795	 0.046893756	-0.18332
N	-2.8797975637	-2.5587177086	-0.3458087619	-0.334817
H	 1.0341060652	 1.8776514096	 0.0278916366	 0.112282
H	-0.5170530882	 2.0021824765	-0.8242338466	 0.130792
H	-0.4914427673	 1.8741026444	 0.9312317973	 0.127604
H	 0.4628860546	-0.3510819224	-0.9946128144	 0.138049
H	 0.4705395359	-0.4886384793	 0.7301449426	 0.144537
H	-0.9825893668	-4.6790401591	-0.96826686	 0.11835
H	-0.8958841066	-4.8350661097	 0.7865491199	 0.116214
H	-3.3700916158	-4.6091749819	-0.6378473621	 0.115408
H	-3.1981490357	-4.125457372	 1.0629009997	 0.105899
H	-3.6697050724	-1.97932988	-0.103912168	 0.255213
48.6463	70.3164	144.9509	162.6564	185.2119	210.8576	284.7216	354.7027	481.659	500.6263	568.5691	662.6681	716.0606	734.966	816.7147	862.2558	897.9259	947.5789	992.3947	1007.7193	1026.0867	1061.3375	1086.0426	1107.5815	1121.8926	1198.2002	1238.3694	1261.9189	1266.3397	1311.2202	1342.3768	1387.7061	1415.0646	1439.3445	1477.7729	1489.9346	1493.6032	1499.1892	1529.5387	1679.0025	1782.7285	2997.6509	3020.9271	3037.3801	3050.7332	3070.4639	3081.8405	3091.4623	3121.3875	3125.2959	3623.735
CCC(=O)C1=NCCN1	CCC(=O)[C]1[N]CCN1	
InChI=1S/C6H10N2O/c1-2-5(9)6-7-3-4-8-6/h2-4H2,1H3,(H,7,8)	InChI=1S/C6H10N2O/c1-2-5(9)6-7-3-4-8-6/h2-4H2,1H3,(H,7,8)
