18
gdb 86917	3.73413	0.91462	0.79991	2.8033	75.65	-0.2485	-0.0294	0.2191	1437.1964	0.146304	-439.12288	-439.11349	-439.112546	-439.158338	33.097	
C	-0.0246721869	 1.6488249011	-0.2140032741	-0.407342
C	 0.0733589419	 0.1482255963	 0.0135350241	-0.085574
C	 0.6975260549	-0.7877666332	-1.0733329258	-0.277533
C	 1.436184267	-1.5935436811	 0.0521740536	-0.036299
N	 2.7903103467	-2.0398160847	-0.0844320592	-0.294235
C	 3.1158099311	-3.3592823036	-0.2064831058	 0.152694
O	 2.3135707093	-4.2590910359	-0.3255473769	-0.315376
C	 1.1871530922	-0.3646311579	 0.9401482196	 0.353925
O	 1.82856148	 0.1369404437	 1.8196364889	-0.306667
H	 0.9366937414	 2.0598944754	-0.5380899742	 0.122472
H	-0.7709380328	 1.8835634349	-0.978967991	 0.124198
H	-0.3100890717	 2.1607829776	 0.709612874	 0.137182
H	-0.889574692	-0.2600130949	 0.3441688614	 0.109541
H	 0.0113583465	-1.3590239191	-1.6983237508	 0.123618
H	 1.4081189956	-0.246906743	-1.7041096428	 0.113721
H	 0.8246289733	-2.4480827586	 0.3570667233	 0.145064
H	 3.5262278574	-1.3810009223	 0.1224753203	 0.256957
H	 4.2114205061	-3.5175047147	-0.1945893744	 0.083654
31.6754	78.5671	121.5348	175.4979	193.4602	209.0287	271.7246	336.7662	410.4397	508.8122	525.0628	573.0854	686.9786	741.7169	816.3032	861.4205	918.4447	934.2614	954.384	1021.5702	1038.5169	1076.5776	1112.7203	1137.5604	1147.9499	1206.8386	1241.7933	1243.3489	1259.322	1337.1904	1363.4156	1409.6468	1427.2883	1487.4728	1493.0137	1495.0481	1522.3237	1805.6921	1875.9379	2950.373	3039.2814	3039.8344	3071.5827	3081.8316	3109.6671	3114.8682	3143.6237	3616.7611
CC1CC(NC=O)C1=O	C[C@H]1C[C@@H](NC=O)C1=O	
InChI=1S/C6H9NO2/c1-4-2-5(6(4)9)7-3-8/h3-5H,2H2,1H3,(H,7,8)	InChI=1S/C6H9NO2/c1-4-2-5(6(4)9)7-3-8/h3-5H,2H2,1H3,(H,7,8)/t4-,5+/m0/s1
