19
gdb 90469	3.25107	1.20421	1.14512	1.4716	80.35	-0.2467	0.0417	0.2884	1144.5681	0.159607	-385.853221	-385.844916	-385.843971	-385.886007	32.901	
O	 0.1508030806	 1.3912999784	-0.1500812176	-0.436109
C	 0.0337716424	-0.018623531	 0.0097550939	 0.147537
C	 0.6178990733	-0.4851323066	 1.3666381173	-0.269167
C	-0.5632609841	-0.451273049	 2.3361717503	-0.069503
C	-1.8375991235	-0.4381609925	 1.5189670424	-0.069476
C	-1.4497755828	-0.4637782067	 0.0407576114	-0.269137
C	-1.4942780876	-1.660672117	 2.366316066	-0.21161
C	-1.1279566118	-2.912001247	 1.7748796646	 0.346082
C	-0.8182609838	-3.9628028596	 1.2754840825	-0.469508
H	-0.3152340176	 1.8075173453	 0.5840347018	 0.278108
H	 0.5752410054	-0.4403431394	-0.8414076632	 0.084851
H	 1.0348473985	-1.494598723	 1.2861034683	 0.117715
H	 1.4238585632	 0.1855904501	 1.6737223134	 0.105569
H	-0.4777236845	 0.1089620274	 3.26035453	 0.091176
H	-2.704967583	 0.1318037303	 1.8321892086	 0.091172
H	-2.0551662447	 0.2216084394	-0.5571448815	 0.105578
H	-1.565343017	-1.4677097951	-0.381281439	 0.117699
H	-2.0794081503	-1.7551217695	 3.2772084153	 0.111474
H	-0.5511999829	-4.8955502744	 0.8442306356	 0.19755
75.8935	140.7421	157.4156	294.9199	308.9	333.826	421.671	439.7105	560.936	587.9202	592.1926	653.6946	706.4753	736.7834	753.9472	782.1823	845.4163	865.4266	899.1072	938.1935	971.9709	991.2194	1004.0726	1027.6349	1083.1325	1096.0076	1109.7393	1190.7276	1192.5253	1209.3407	1254.6606	1291.7325	1301.0323	1335.1785	1353.3563	1355.172	1395.7905	1430.9034	1476.2885	1488.7421	2229.2923	3050.8566	3050.8733	3083.0221	3105.154	3106.6369	3138.9035	3166.3559	3177.1146	3503.0584	3793.4691
OC1CC2C(C1)C2C#C	O[C@H]1C[C@H]2[C@@H](C1)[C@H]2C#C	
InChI=1S/C8H10O/c1-2-6-7-3-5(9)4-8(6)7/h1,5-9H,3-4H2	InChI=1S/C8H10O/c1-2-6-7-3-5(9)4-8(6)7/h1,5-9H,3-4H2/t5-,6-,7+,8-
