21
gdb 64224	2.99572	1.01854	0.94338	4.665	83.59	-0.2307	0.0278	0.2584	1353.6913	0.181236	-383.267479	-383.25776	-383.256816	-383.302061	36.13	
C	-0.143476823	 1.5715158521	-0.1548796179	-0.44043
C	-0.0251573208	 0.0453435968	-0.0512974323	 0.326856
C	-1.3797454836	-0.5973452127	 0.2219755585	-0.428931
C	 0.824029235	-0.5557436785	-1.2134696095	-0.272819
C	 2.0079741893	-0.6006665241	-0.2207991005	-0.173297
N	 1.0435943825	-0.441248337	 0.8800485114	-0.092592
C	 1.4100150954	 0.3161332449	 2.0554612076	-0.304811
C	 2.3541390123	-0.4366302511	 2.8929589459	 0.279348
N	 3.1124545349	-1.0172679568	 3.5426088305	-0.304924
H	 0.8228442605	 2.0446392499	-0.3575088488	 0.117939
H	-0.8200735145	 1.8379844959	-0.9732404424	 0.122525
H	-0.5521310119	 2.0087096137	 0.762829085	 0.115725
H	-2.0880277755	-0.3682479427	-0.5819783484	 0.115462
H	-1.2784873358	-1.6823058199	 0.3040232347	 0.123641
H	-1.8116262579	-0.2249362711	 1.1584839136	 0.112095
H	 0.4824014563	-1.5477238939	-1.514311451	 0.112156
H	 0.9449751918	 0.0715354958	-2.0976318061	 0.105088
H	 2.605182317	-1.5158090057	-0.1722933006	 0.118512
H	 2.6914221493	 0.2562579736	-0.3359223782	 0.08996
H	 1.8723332822	 1.2973403485	 1.8368158044	 0.125824
H	 0.5112017566	 0.5133296425	 2.6517544642	 0.152672
54.844	116.0407	142.5564	203.5551	239.1543	246.2962	274.6454	339.7929	352.0785	387.9045	404.9256	470.0926	524.3949	628.0174	766.5013	787.1423	877.3132	917.8508	929.0087	948.8571	965.5911	978.187	992.3428	1029.7327	1085.5765	1151.2488	1169.9185	1205.656	1227.5924	1246.5118	1251.3925	1279.2169	1297.3043	1334.2617	1381.2864	1400.6804	1416.2669	1466.6787	1478.3496	1483.0488	1488.2229	1501.2207	1505.908	1526.442	2364.6895	2922.7323	2971.1216	3026.7878	3032.4275	3057.2688	3073.057	3081.8005	3089.6685	3098.9699	3103.522	3120.5261	3137.1934
CC1(C)CCN1CC#N	CC1(C)CCN1CC#N	
InChI=1S/C7H12N2/c1-7(2)3-5-9(7)6-4-8/h3,5-6H2,1-2H3	InChI=1S/C7H12N2/c1-7(2)3-5-9(7)6-4-8/h3,5-6H2,1-2H3
