21
gdb 38118	2.39379	2.16347	1.55449	0.2687	86.56	-0.2257	0.0181	0.2438	953.1885	0.186972	-349.946557	-349.939798	-349.938854	-349.977071	29.667	
C	-0.0326116546	 1.4770656027	 0.0167528726	-0.428174
C	 1.3435450146	 0.8203120471	-0.0405877302	-0.052608
C	 2.2810613095	 0.4705674568	-1.1445420605	-0.112936
C	 2.2366738023	-0.7922290809	-1.5911066461	-0.059431
C	 1.0816007267	-1.707005726	-1.1890893176	-0.041389
C	 1.0517599406	-2.1508554109	 0.3265642031	-0.205374
C	 0.1257396754	-1.1127021659	 1.0664997009	-0.298557
C	 0.0877452288	-0.0199226435	 0.0161621717	 0.360915
C	-0.1673056256	-0.8032012397	-1.2672374525	-0.257729
H	-0.2631550004	 2.0129106837	 0.9326850448	 0.110422
H	-0.4593041041	 1.926011346	-0.8749785856	 0.112468
H	 1.8519752103	 0.8992050837	 0.9214944326	 0.090919
H	 3.0405221913	 1.1719912941	-1.4805483341	 0.082174
H	 2.9535040247	-1.1536389844	-2.3239839113	 0.083989
H	 1.05027735	-2.5783408617	-1.8475371457	 0.05665
H	 0.6596238523	-3.1680926125	 0.4172631672	 0.09458
H	 2.0579529195	-2.1526865388	 0.7526981528	 0.103452
H	-0.8629385168	-1.5435517457	 1.2661519612	 0.088854
H	 0.5481256632	-0.7861080333	 2.0204795402	 0.092553
H	-0.1951043925	-0.1982732472	-2.174515837	 0.0946
H	-1.1056061752	-1.3672439434	-1.1904439566	 0.084621
192.7129	280.2905	326.3985	359.2344	453.4945	478.4507	489.6389	593.395	641.5655	708.5099	750.9638	788.8446	809.4502	847.2107	873.8954	885.5449	908.8614	928.6557	942.9895	971.1798	978.8281	1005.465	1039.1369	1057.812	1075.3854	1100.8741	1113.1403	1156.138	1164.9871	1185.7642	1212.1589	1223.249	1257.9175	1281.5557	1301.5276	1323.1861	1341.4061	1356.342	1388.0902	1427.7394	1483.6938	1487.7454	1493.0635	1511.5471	1663.3887	3022.1967	3028.1605	3055.3301	3075.382	3082.2238	3086.8252	3107.7753	3113.9119	3119.8005	3145.5206	3169.7584	3203.0855
C1C2C=CC3CCC12C3	C1[C@@H]2C=C[C@H]3CC[C@@]12C3	
InChI=1S/C9H12/c1-2-8-6-9(8)4-3-7(1)5-9/h1-2,7-8H,3-6H2	InChI=1S/C9H12/c1-2-8-6-9(8)4-3-7(1)5-9/h1-2,7-8H,3-6H2/t7-,8-,9+/m0/s1
