18
gdb 122803	5.59471	0.5254	0.51043	5.3214	72.67	-0.2493	-0.0718	0.1775	2087.0677	0.144971	-476.241696	-476.231181	-476.230237	-476.27954	35.194	
O	-0.2129162361	 1.3756087005	-0.4399587481	-0.419093
C	-0.030407946	 0.0274402152	-0.0417830345	-0.069595
C	-1.4012002168	-0.6384328397	-0.034905167	-0.176761
C	-1.3375271477	-2.0935796351	 0.4373342351	-0.169225
N	-2.644107235	-2.7316300621	 0.4445973364	-0.323297
C	-2.9460281378	-3.8112389184	-0.3285571168	 0.322886
O	-2.177043769	-4.3793650059	-1.0744423563	-0.344748
C	-4.4083542297	-4.2595201314	-0.1555178298	 0.088745
O	-4.8724882484	-5.1934924457	-0.7424007956	-0.204095
H	 0.6505204611	 1.795903591	-0.489470293	 0.289276
H	 0.6390654781	-0.5097896039	-0.7326054758	 0.096742
H	 0.4205364646	-0.0357201139	 0.9628053033	 0.086717
H	-2.0640807837	-0.0558658607	 0.6174479163	 0.103825
H	-1.8262825144	-0.5954738812	-1.0431981778	 0.124353
H	-0.7151140931	-2.6973049054	-0.2279204322	 0.156451
H	-0.8998920166	-2.1475958943	 1.4430021423	 0.114202
H	-3.3696770141	-2.3265851588	 1.0159166787	 0.250347
H	-5.0168127254	-3.6529830503	 0.5586343347	 0.073273
24.609	52.874	76.0786	112.1608	120.4294	218.6797	222.893	263.5004	285.8767	352.4599	448.2037	472.2801	521.2069	623.2173	737.6036	773.8819	866.6318	939.2163	991.8542	1015.2965	1040.4309	1069.9851	1095.2123	1167.7009	1207.7653	1233.9531	1245.6999	1311.3311	1318.0472	1325.962	1403.5247	1428.1229	1466.284	1489.9382	1502.5976	1529.4971	1545.9432	1798.4571	1854.4293	2832.2178	2958.2808	2987.7616	3018.2573	3032.4649	3084.1294	3113.6821	3622.5678	3831.5155
OCCCNC(=O)C=O	OCCCNC(=O)C=O	
InChI=1S/C5H9NO3/c7-3-1-2-6-5(9)4-8/h4,7H,1-3H2,(H,6,9)	InChI=1S/C5H9NO3/c7-3-1-2-6-5(9)4-8/h4,7H,1-3H2,(H,6,9)
