18
gdb 46366	3.39617	1.13963	0.89947	1.8516	72.79	-0.2433	0.0308	0.2741	1269.6715	0.148265	-439.084053	-439.075533	-439.074589	-439.118634	30.312	
O	-0.0790503014	 0.0254206892	-0.0345540336	-0.363405
C	-0.0742031085	 1.2273021175	-0.0088764391	 0.413769
N	-1.066550929	 2.1738179524	-0.0421513179	-0.320713
C	-0.1779477351	 3.3382437681	 0.0396431155	-0.183947
C	 1.0129507481	 2.3349531115	 0.0974599458	-0.165183
C	 1.8289538637	 2.2981252803	 1.3713062176	 0.157023
C	 2.9516494	 1.2418732814	 1.4691012884	-0.289791
C	 3.8810670081	 2.457605717	 1.6550514124	-0.069893
O	 2.7869192111	 3.3808036128	 1.4505189541	-0.299691
H	-2.0691279526	 2.0882014657	-0.1209878648	 0.25241
H	-0.1989112173	 3.983200624	-0.8436187493	 0.117497
H	-0.3128866604	 3.9443351568	 0.9409736624	 0.121862
H	 1.6707471176	 2.3761252297	-0.7745115764	 0.101553
H	 1.1569488407	 2.3118948466	 2.2421496808	 0.076796
H	 2.8813220889	 0.5507165142	 2.3089846168	 0.118249
H	 3.1091978303	 0.6726479553	 0.5517963813	 0.123924
H	 4.318282369	 2.5630618218	 2.6558377621	 0.103345
H	 4.6722028666	 2.5905868958	 0.9082776341	 0.106195
53.5281	69.675	94.1828	137.0986	220.3547	327.9742	367.0267	455.7038	539.83	664.5323	751.5999	774.3185	822.2597	863.9896	910.0189	946.3901	976.0558	981.7783	1007.0722	1025.7729	1047.044	1101.9101	1150.8463	1162.0153	1169.9334	1181.6277	1195.1247	1217.6059	1255.0445	1281.8228	1290.2581	1297.7864	1358.5627	1395.0965	1409.0473	1490.3884	1526.7338	1532.4965	1888.847	2991.1477	3018.0039	3045.4826	3059.6255	3084.5155	3089.1103	3097.0692	3144.5812	3609.8793
O=C1NCC1C1CCO1	O=C1NC[C@H]1[C@H]1CCO1	
InChI=1S/C6H9NO2/c8-6-4(3-7-6)5-1-2-9-5/h4-5H,1-3H2,(H,7,8)	InChI=1S/C6H9NO2/c8-6-4(3-7-6)5-1-2-9-5/h4-5H,1-3H2,(H,7,8)/t4-,5+/m0/s1
