23
gdb 121107	3.02315	0.89998	0.85422	1.7395	82.37	-0.2406	0.0705	0.3111	1524.9604	0.20547	-425.438397	-425.428434	-425.427489	-425.47397	36.668	
C	-0.5004945077	 1.4892023473	-0.4569287733	-0.381253
C	-0.2398041406	-0.0011138632	-0.2237861367	-0.162974
C	-1.5189286506	-0.7937094604	 0.0608456672	-0.174288
C	-1.270720641	-2.2864234272	 0.2783076457	 0.132491
C	-2.5575966423	-3.1180465329	 0.4892306067	-0.26936
C	-2.8012883483	-3.7591890039	-0.8789215594	 0.115933
O	-3.5354102012	-2.826614262	-1.6640115729	-0.431431
C	-1.3638240149	-3.9479355044	-1.3704893731	-0.090166
O	-0.6322512193	-2.835114454	-0.8911522836	-0.271945
H	 0.4293323489	 2.0310759489	-0.657499944	 0.107791
H	-1.16749838	 1.6450162387	-1.3122566506	 0.11285
H	-0.9735531859	 1.9528412956	 0.416490191	 0.108495
H	 0.2545234792	-0.4366433961	-1.0984830134	 0.113415
H	 0.4581627644	-0.1243960704	 0.6159062954	 0.085957
H	-2.0111342519	-0.3926853502	 0.9579607502	 0.082663
H	-2.2277074146	-0.6863521905	-0.768507729	 0.112023
H	-0.5846016321	-2.4185414941	 1.1277606311	 0.064818
H	-2.4013506525	-3.8981852332	 1.2395852686	 0.101147
H	-3.4110497602	-2.5105232498	 0.7962294902	 0.118145
H	-3.3377343942	-4.7158860026	-0.8075102591	 0.064956
H	-3.5210815433	-3.1250567698	-2.5788759928	 0.282524
H	-0.9543014319	-4.8951734316	-0.9799593273	 0.084868
H	-1.2862093001	-3.9738650745	-2.464516711	 0.093343
48.0002	90.0439	109.361	131.8855	183.2339	250.3988	278.5845	315.6915	376.7541	390.0601	405.9428	473.339	718.8773	750.656	798.3191	814.4526	849.2924	869.4348	902.5423	929.557	977.5815	985.2588	1002.4957	1052.3576	1055.338	1078.9829	1115.6983	1139.2704	1168.0258	1193.3242	1209.8038	1254.9172	1268.8895	1287.3533	1320.3466	1324.0537	1336.0045	1355.4514	1376.6227	1395.019	1405.6953	1412.8255	1418.9903	1477.4865	1481.6682	1494.0914	1500.336	1510.846	1511.4604	2957.7294	2987.1549	3004.51	3012.306	3014.7862	3026.314	3045.0089	3064.2743	3067.9392	3077.1925	3097.0074	3098.3117	3123.1726	3818.3895
CCCC1CC(O)CO1	CCC[C@H]1C[C@@H](O)CO1	
InChI=1S/C7H14O2/c1-2-3-7-4-6(8)5-9-7/h6-8H,2-5H2,1H3	InChI=1S/C7H14O2/c1-2-3-7-4-6(8)5-9-7/h6-8H,2-5H2,1H3/t6-,7+/m1/s1
