17
gdb 33981	2.36774	1.71638	1.21002	3.2795	78.24	-0.2364	0.0128	0.2492	1048.0015	0.136664	-380.820794	-380.813028	-380.812084	-380.852998	30.32	
N	-0.0046708917	-1.185902488	-0.0779587826	-0.362816
C	-0.0054438801	-0.0278325559	-0.0413025281	 0.195291
C	-0.017509572	 1.3911035029	 0.031841954	 0.101873
C	 0.2791448786	 2.3069999278	-1.1511558945	-0.309241
C	 1.1249297912	 2.4303073331	 0.0651444183	-0.053977
N	 0.4311224883	 3.2452258299	 1.079346577	-0.370303
C	-0.6426345095	 2.2164893817	 1.1481100631	 0.310371
C	-2.0863819099	 2.4881053642	 1.4179161625	-0.307219
C	-1.2462171717	 1.693314017	 2.4069287262	-0.349558
H	 0.7369607993	 1.8067930057	-1.997598485	 0.139832
H	-0.4305464879	 3.0926549827	-1.3921733991	 0.13404
H	 2.1951237365	 2.2689983976	 0.0804292641	 0.124096
H	 0.9589953582	 3.239659409	 1.9480247125	 0.23077
H	-2.3534648922	 3.5036381229	 1.6885984049	 0.12785
H	-2.8321338493	 1.9582194052	 0.8349897319	 0.127215
H	-1.4130401485	 0.6237465257	 2.4850787572	 0.141388
H	-0.9717515194	 2.1754338386	 3.3402106276	 0.120388
108.8332	136.7338	173.0796	285.2876	298.5405	447.6266	452.5295	495.5403	550.3505	585.5917	612.7308	763.737	803.4266	825.1519	850.1481	887.0242	916.8178	931.5228	971.7909	987.1142	1012.6759	1045.2299	1051.1458	1076.9026	1082.0316	1092.4446	1180.5934	1186.6816	1229.2841	1289.589	1327.0177	1393.8784	1405.7368	1454.8615	1479.314	1503.4226	2337.7299	3125.2338	3127.3525	3135.0335	3202.5687	3209.1668	3227.0651	3227.347	3502.7191
N#CC12CC1NC21CC1	N#C[C@]12C[C@H]1NC12CC1	
InChI=1S/C7H8N2/c8-4-6-3-5(6)9-7(6)1-2-7/h5,9H,1-3H2	InChI=1S/C7H8N2/c8-4-6-3-5(6)9-7(6)1-2-7/h5,9H,1-3H2/t5-,6-/m1/s1
