22
gdb 56903	2.25513	1.26633	1.001	1.2157	88.84	-0.2265	0.0491	0.2756	1324.4151	0.190274	-367.157445	-367.146823	-367.145879	-367.192571	39.833	
C	 2.4251261027	 0.8175184373	 0.7809065971	-0.386227
C	 1.392443499	-0.3091494937	 0.6129476294	-0.139174
C	 0.0518469697	 0.1399785414	 0.9977082749	 0.365176
C	-1.0404459867	 0.5175277978	 1.3274454732	-0.47106
N	 1.3909386222	-0.7375116908	-0.7908890871	-0.105768
C	 2.3384187647	-1.783696973	-1.1756086501	-0.297363
C	 0.8681468057	-2.0539447261	-1.1836102634	 0.347736
C	 0.2901644673	-3.0132509921	-0.1578648024	-0.460723
C	 0.1159969499	-2.0333344739	-2.5001960348	-0.440092
H	 3.4205627651	 0.4500631855	 0.5146314649	 0.11659
H	 2.1744874511	 1.6544664388	 0.1254485507	 0.136139
H	 2.4454438579	 1.1683409745	 1.8158582944	 0.121266
H	 1.6792179576	-1.129363291	 1.2934881377	 0.08603
H	-2.0071934032	 0.8483134037	 1.6165075861	 0.195225
H	 2.8853363674	-1.6143234894	-2.1002396296	 0.108755
H	 2.924889531	-2.2544074947	-0.3859038409	 0.100873
H	 0.8935096687	-3.0789264728	 0.750286323	 0.117574
H	-0.723173359	-2.7122713717	 0.1276915061	 0.133234
H	 0.2323723688	-4.0199286997	-0.5853543847	 0.118406
H	 0.1392860434	-3.0186893665	-2.9794851764	 0.109442
H	-0.9332311502	-1.761124606	-2.3398074384	 0.120514
H	 0.5538613469	-1.3004467576	-3.1816757194	 0.123445
65.5853	101.8783	160.4938	185.1362	197.9926	219.8025	237.3037	272.137	312.076	368.4236	394.3422	425.4321	483.5742	531.0544	561.0227	621.1349	652.0704	721.2856	750.8839	857.4978	906.0726	925.5638	959.963	982.1088	1017.8243	1038.2518	1084.9834	1105.9397	1124.6095	1132.5725	1145.7871	1198.98	1287.4326	1333.9622	1349.2258	1380.1544	1400.6051	1409.129	1420.1693	1478.9333	1485.2534	1486.9595	1494.3963	1499.631	1503.541	1515.1891	2237.2552	2942.8278	3028.9864	3038.2798	3047.2987	3078.4122	3090.6273	3099.0508	3119.1744	3122.0187	3124.2454	3137.4499	3164.441	3504.4058
CC(C#C)N1CC1(C)C	C[C@@H](C#C)N1CC1(C)C	
InChI=1S/C8H13N/c1-5-7(2)9-6-8(9,3)4/h1,7H,6H2,2-4H3	InChI=1S/C8H13N/c1-5-7(2)9-6-8(9,3)4/h1,7H,6H2,2-4H3/t7-,9?/m0/s1
