12
gdb 133614	4.79169	0.66826	0.65653	1.6095	68.07	-0.2572	-0.0277	0.2295	1598.7236	0.072066	-529.806269	-529.797677	-529.796733	-529.840719	30.328	
F	-0.0122884108	 0.0798303959	-0.1180076512	-0.068624
C	-0.0415100554	 1.4117322896	-0.0155624935	 0.290155
F	 1.2122234779	 1.861739728	-0.1202442833	-0.068624
F	-0.7386995695	 1.889528149	-1.0571784533	-0.071864
C	-0.6966159499	 1.8635521525	 1.2896299901	-0.521288
C	-0.0024462308	 1.3880315211	 2.4719287253	 0.404896
C	 0.5682472445	 0.997139742	 3.4627906513	-0.254655
C	 1.2112918971	 0.5565473397	 4.5778682048	 0.303626
C	 1.7811608905	 0.1661904756	 5.5677276733	-0.546954
H	-0.7320307509	 2.9586839813	 1.2692732507	 0.167915
H	-1.7316721551	 1.5039703159	 1.2711108536	 0.167914
H	 2.2830706522	-0.1776939906	 6.4380492223	 0.197505
49.8847	67.3832	155.0451	192.9099	320.7769	341.8709	363.2583	398.5695	533.228	534.3435	558.6846	572.2767	609.4003	610.6325	656.9662	775.9251	845.8315	927.0447	1143.1639	1172.7313	1196.8872	1268.5578	1312.6743	1375.1899	1450.6243	2188.433	2375.6243	3044.6167	3086.8546	3503.7122
FC(F)(F)CC#CC#C	FC(F)(F)CC#CC#C	
InChI=1S/C6H3F3/c1-2-3-4-5-6(7,8)9/h1H,5H2	InChI=1S/C6H3F3/c1-2-3-4-5-6(7,8)9/h1H,5H2
