18
gdb 30158	3.63877	1.26644	0.98357	3.0321	80.55	-0.1819	0.045	0.2269	1198.9933	0.148472	-401.948619	-401.940361	-401.939417	-401.981469	31.581	
C	-0.4009957604	 1.62225403	-0.282531159	-0.398784
C	 0.1057770464	 0.2136874469	-0.0345582264	 0.067346
C	 0.874227853	-0.5247637165	-1.200126752	-0.406913
C	 2.0233565449	-0.6162191915	-0.2114327866	 0.149991
C	 3.1135885569	-1.2125786763	 0.3830832576	 0.176602
O	 4.0801669445	-2.0301277943	-0.1332647755	-0.444437
C	 3.0905710383	-0.8003104593	 1.7519260478	-0.212804
C	 1.9634141365	-0.0200510003	 1.9659210205	-0.150292
N	 1.363310022	 0.1152947532	 0.7484682066	 0.007404
H	 0.3869003308	 2.2472951216	-0.7131535531	 0.1298
H	-1.2487165886	 1.6017512466	-0.9754909193	 0.122678
H	-0.7387957203	 2.08820049	 0.6488302657	 0.126088
H	-0.6814760106	-0.4161141999	 0.393992701	 0.099204
H	 0.4191911733	-1.4719257326	-1.5041213986	 0.116713
H	 1.0369269987	 0.0913515217	-2.090741761	 0.110828
H	 3.9193287982	-2.138049218	-1.0749164791	 0.293859
H	 3.8536697349	-1.029926877	 2.4803728481	 0.097934
H	 1.6172957614	 0.4810032954	 2.8557291933	 0.114782
66.6026	159.2387	218.8461	237.4248	268.0343	300.4702	350.7504	422.7407	537.4969	617.7875	637.2076	652.0192	708.2951	710.7767	762.4268	794.753	877.1484	915.6736	961.0073	1054.2965	1067.384	1089.6308	1091.5578	1112.2769	1179.5344	1217.52	1222.0555	1262.4476	1268.3587	1355.8008	1368.1887	1408.3938	1425.3934	1448.0289	1487.1288	1493.0569	1497.1449	1500.4635	1640.2682	3035.4516	3041.1545	3046.6819	3088.1125	3105.726	3117.398	3242.7702	3264.472	3842.1219
CC1CC2=C(O)C=CN12	C[C@H]1Cc2c(O)ccn12	
InChI=1S/C7H9NO/c1-5-4-6-7(9)2-3-8(5)6/h2-3,5,9H,4H2,1H3	InChI=1S/C7H9NO/c1-5-4-6-7(9)2-3-8(5)6/h2-3,5,9H,4H2,1H3/t5-/m0/s1
