16
gdb 23407	2.91768	1.44175	1.39503	2.1567	67.67	-0.2505	-0.0029	0.2476	991.0023	0.125923	-474.96724	-474.960061	-474.959116	-474.998911	27.874	
O	-0.139959481	 1.3217720224	 0.0088502487	-0.389719
N	 0.0022363079	-0.077813906	 0.0046358946	-0.297582
C	-1.1195552282	-0.6569418534	 0.011290503	 0.460796
C	-1.4319638919	-2.1330582972	 0.0101407229	-0.19076
C	-2.3494943625	-2.1633445354	 1.2541735148	-0.075069
O	-3.0561333508	-0.8971016223	 1.1870871447	-0.275938
C	-2.5764382044	-0.2471871884	 0.0226039243	 0.130255
O	-3.0726991276	-0.8917909596	-1.1378834096	-0.275939
C	-2.3671265318	-2.1576892561	-1.2208185804	-0.075069
H	 0.7763813737	 1.6193728079	 0.003007327	 0.309566
H	-0.6023852482	-2.8355519037	 0.0026248005	 0.102792
H	-3.0742817003	-2.9845146316	 1.2280401388	 0.111361
H	-1.78018013	-2.2130948643	 2.1887516533	 0.116224
H	-2.8651299673	 0.7985909649	 0.0270492493	 0.121495
H	-1.8111851261	-2.2031470231	-2.1636299552	 0.116224
H	-3.0914934816	-2.9789946641	-1.1881173467	 0.111361
117.1486	189.223	196.2136	308.0564	352.0283	419.9292	483.0291	526.5107	608.6065	703.3456	748.8668	809.6269	870.5494	902.5257	913.2731	934.7995	942.0724	962.6305	982.5733	1024.1843	1078.947	1111.0356	1172.1932	1189.5521	1192.373	1263.5615	1267.3536	1274.4639	1309.6085	1366.6017	1379.6239	1419.034	1516.8922	1532.537	1813.1135	3030.9939	3032.8097	3075.7229	3079.7022	3159.8141	3196.1101	3816.3705
ON=C1C2COC1OC2	ON=C1[C@H]2CO[C@@H]1OC2	
InChI=1S/C5H7NO3/c7-6-4-3-1-8-5(4)9-2-3/h3,5,7H,1-2H2	InChI=1S/C5H7NO3/c7-6-4-3-1-8-5(4)9-2-3/h3,5,7H,1-2H2/t3-,5+
