17
gdb 48852	3.09372	1.33735	1.1205	1.8009	69.07	-0.2604	-0.0414	0.219	1096.9249	0.135986	-458.956692	-458.948914	-458.94797	-458.989173	29.323	
O	-0.4214392275	 0.5629337976	 0.7347777683	-0.253574
C	 0.2177619616	 0.9564904975	-0.2064025135	 0.116248
C	 1.3785124211	 1.8964430982	-0.1022756842	 0.284705
C	 1.9562296615	 2.1771577375	 1.2645396161	-0.286243
C	 2.9794097455	 3.313523684	 1.1935999155	-0.099298
O	 2.4235247357	 4.448316077	 0.5476703352	-0.245065
C	 2.1991764348	 4.242133336	-0.831042988	-0.103686
C	 1.5053529565	 2.9281002452	-1.162135318	-0.030194
O	 2.3123101039	 1.75422414	-1.188717539	-0.283312
H	-0.0007034665	 0.6445738974	-1.252032235	 0.087882
H	 1.1316135528	 2.4489895077	 1.9305476316	 0.134868
H	 2.4149873857	 1.2683709325	 1.6698349657	 0.118722
H	 3.2611515856	 3.6398247562	 2.1975945135	 0.116298
H	 3.8867915539	 2.9768417954	 0.6703833449	 0.106545
H	 1.5739836984	 5.0752111682	-1.1658405064	 0.120447
H	 3.146797574	 4.2772558116	-1.3939816805	 0.110264
H	 0.7617863131	 2.9683278881	-1.9591531061	 0.105395
91.537	134.1552	210.6915	243.4321	319.5378	375.0894	385.3864	454.2231	516.1108	576.5625	690.4992	730.5818	797.4462	867.6935	873.9034	946.3389	972.9872	1010.671	1035.1375	1066.6091	1098.1837	1118.1719	1157.4474	1233.7406	1243.0851	1276.441	1309.5905	1325.3067	1375.6264	1388.8251	1399.795	1421.4827	1451.3278	1474.6028	1483.9267	1499.8704	1827.029	2893.1518	2971.6444	3000.5658	3051.3483	3083.5667	3095.7777	3104.4053	3107.2584
O=CC12CCOCC1O2	O=C[C@]12CCOC[C@H]1O2	
InChI=1S/C6H8O3/c7-4-6-1-2-8-3-5(6)9-6/h4-5H,1-3H2	InChI=1S/C6H8O3/c7-4-6-1-2-8-3-5(6)9-6/h4-5H,1-3H2/t5-,6-/m1/s1
