17
gdb 98861	3.16195	1.0982	0.93114	1.6756	65.22	-0.2587	-0.0545	0.2042	1259.5462	0.134223	-496.079491	-496.070551	-496.069607	-496.114203	32.119	
O	-0.1381724582	 1.4591350678	 0.5529876283	-0.417582
C	-0.1791423966	 0.0702277394	 0.6614404636	-0.131247
C	-0.8325745867	-0.581627675	-0.536522354	 0.380105
O	-1.2118655027	 0.1087236444	-1.4671796714	-0.353725
C	-1.0713050179	-2.084289536	-0.4785289319	-0.041202
O	-2.3749395613	-2.2830500783	 0.1238148852	-0.287214
C	-2.9677192945	-2.6235193407	-1.1589632699	-0.120456
C	-1.5625853944	-2.7508929176	-1.7998204248	 0.098759
O	-1.2853937764	-2.1759555988	-3.0317330401	-0.426843
H	-0.5272486003	 1.6669094275	-0.310263804	 0.297157
H	 0.8338285678	-0.3607023778	 0.7568572053	 0.123145
H	-0.7325468016	-0.2516606398	 1.5592684707	 0.141017
H	-0.281718688	-2.5895812591	 0.0900697359	 0.09219
H	-3.5869462873	-3.5226951488	-1.0893082408	 0.117992
H	-3.5569794773	-1.7942342393	-1.5691269077	 0.115678
H	-1.2369489939	-3.7927113031	-1.8490923369	 0.111189
H	-1.4220406807	-1.2218844748	-2.9349670974	 0.301036
33.1422	102.3288	129.8063	182.8768	240.9526	266.2607	359.6041	372.7171	418.9286	472.1978	550.9594	609.5063	680.8528	757.189	852.9123	866.0889	966.2258	978.5504	996.0586	1024.292	1051.7294	1092.2529	1151.1549	1153.2061	1181.479	1242.205	1247.7469	1264.9883	1307.2226	1319.922	1357.7108	1380.0151	1442.3481	1472.584	1483.3256	1510.5011	1769.1677	2958.0904	2990.6752	3028.2964	3040.6379	3081.9492	3099.1826	3708.6596	3720.4057
OCC(=O)C1OCC1O	OCC(=O)[C@H]1OC[C@H]1O	
InChI=1S/C5H8O4/c6-1-3(7)5-4(8)2-9-5/h4-6,8H,1-2H2	InChI=1S/C5H8O4/c6-1-3(7)5-4(8)2-9-5/h4-6,8H,1-2H2/t4-,5-/m1/s1
