16
gdb 20156	3.58678	3.05116	2.74239	1.5362	65.01	-0.2467	0.0941	0.3408	623.3972	0.134695	-346.578608	-346.573834	-346.57289	-346.607102	21.5	
C	-0.049565798	 1.5766001858	 0.0058842222	-0.210033
C	 1.4731557451	 1.7722330903	 0.039221366	-0.086502
C	 1.9376245419	 0.9766393824	 1.2773509982	-0.082828
C	 2.4585823562	-0.155617361	 0.4275265094	-0.08063
C	 1.0959538657	-0.2752640594	 1.0768275755	-0.071833
C	 0.0613825592	 0.0383810257	-0.0480414996	 0.045366
O	 0.8079997124	-0.1378587092	-1.2663119819	-0.25225
C	 1.9845850719	 0.5460544497	-0.8581576227	 0.060748
H	-0.5346984533	 1.9494535971	 0.9126630187	 0.095356
H	-0.5440896685	 1.9763670459	-0.8827833776	 0.101477
H	 1.8921011718	 2.7575502502	-0.1504627839	 0.069266
H	 2.2758572978	 1.3522927288	 2.2342093263	 0.084296
H	 3.2794064155	-0.8462125168	 0.570893069	 0.087086
H	 0.9128835756	-0.9805139602	 1.8751339257	 0.088919
H	-0.848483846	-0.5576621573	-0.0726092027	 0.073409
H	 2.6595494225	 0.713904008	-1.6937623526	 0.078155
426.6076	530.7779	570.8961	673.1787	697.9828	778.6263	791.6242	797.8513	822.1846	831.318	882.0134	899.7824	920.3555	929.135	958.7986	966.8097	982.6658	1021.1024	1024.1072	1037.9259	1050.6379	1079.1671	1127.803	1155.461	1195.2406	1218.3276	1238.1375	1249.3326	1263.4099	1283.2191	1311.7104	1329.6249	1364.6945	1475.5291	3059.5041	3119.1793	3145.4488	3146.5849	3155.9314	3190.2034	3200.1744	3221.0576
C1C2C3C4C3C1OC24	C1[C@H]2[C@@H]3[C@H]4[C@@H]3[C@@H]1O[C@@H]24	
InChI=1S/C7H8O/c1-2-4-5-3(1)8-7(2)6(4)5/h2-7H,1H2	InChI=1S/C7H8O/c1-2-4-5-3(1)8-7(2)6(4)5/h2-7H,1H2/t2-,3+,4-,5+,6-,7-/m0/s1
