21
gdb 120479	2.8151	0.893	0.81441	1.0381	75.09	-0.2508	0.0548	0.3056	1509.2777	0.180432	-461.339097	-461.328716	-461.327772	-461.375479	37.055	
C	 0.5263154177	 1.4428617535	-0.2353454015	-0.402947
C	 0.0886655112	 0.0181569906	 0.0426047211	 0.117247
O	 0.7978292399	-0.9563089616	-0.7625939869	-0.317261
C	 1.2792581065	-1.674913561	 0.4007068371	 0.091079
C	 2.7935798966	-1.7754163294	 0.4476809538	-0.194105
C	 3.3481058128	-2.5853305133	-0.7181694578	-0.077599
O	 4.7634199999	-2.594607986	-0.603233535	-0.423429
C	 0.5747571408	-0.6674988491	 1.3526303521	 0.044756
O	 1.3449163754	 0.0666760201	 2.2663444974	-0.419188
H	 1.6034570244	 1.5738504893	-0.0900574991	 0.105098
H	 0.3000283643	 1.7046648636	-1.2732928135	 0.130822
H	-0.0005537682	 2.1422443262	 0.421404132	 0.127539
H	-0.9951444	-0.0748015491	-0.1115516989	 0.075554
H	 0.8377944541	-2.6816211517	 0.4368960877	 0.072462
H	 3.2491829584	-0.7782123961	 0.4121995789	 0.0896
H	 3.0982240833	-2.2386048428	 1.393474402	 0.11688
H	 2.9376276626	-3.6082196941	-0.6863212123	 0.084038
H	 3.0212013516	-2.1275120812	-1.6628228399	 0.108749
H	 5.122661408	-3.0496137815	-1.3703168544	 0.286117
H	-0.2303837132	-1.1085975824	 1.943049707	 0.097344
H	 2.0921715338	 0.4588304662	 1.8036046803	 0.287246
33.8995	85.1425	101.5098	126.8761	193.553	250.8544	255.378	265.3385	286.1258	352.2887	391.7083	465.495	549.9163	554.3201	775.6144	795.1394	829.239	869.7639	890.8561	960.6162	1016.8692	1030.5556	1069.19	1077.5559	1103.8076	1135.7677	1138.683	1181.0607	1213.8636	1225.192	1255.9254	1276.0773	1284.5178	1309.8386	1319.8956	1343.6501	1372.1378	1402.7754	1417.3156	1447.1262	1460.6096	1474.0379	1482.0936	1497.9635	1529.7733	2964.5216	2993.057	3006.5374	3016.4263	3029.2625	3037.0426	3079.4565	3096.9278	3107.367	3116.4399	3822.2218	3831.2082
CC1OC(CCO)C1O	C[C@H]1O[C@@H](CCO)[C@H]1O	
InChI=1S/C6H12O3/c1-4-6(8)5(9-4)2-3-7/h4-8H,2-3H2,1H3	InChI=1S/C6H12O3/c1-4-6(8)5(9-4)2-3-7/h4-8H,2-3H2,1H3/t4-,5+,6+/m1/s1
