22
gdb 111762	2.17212	1.3809	1.01815	2.6868	82.95	-0.2438	0.0811	0.325	1285.0066	0.193948	-404.303979	-404.294615	-404.293671	-404.338413	35.493	
C	-0.0976622	 1.3348803301	-0.0661132241	-0.374549
C	 0.1138116351	-0.1452018407	-0.3750194173	-0.127728
N	 0.85642121	-0.7852142394	 0.7071714692	-0.132305
C	 0.2334166873	-1.2951343013	 1.9189607144	-0.092769
C	-1.1215398909	-1.9766590627	 1.6507893487	-0.241534
C	-0.4172240332	-2.9262017163	 0.6293875079	-0.307069
C	 0.9168409802	-2.2165638605	 0.9333073849	 0.300778
C	 2.2903041688	-2.8373516097	 0.9717460349	-0.153433
O	 3.2444278336	-1.9312814141	 1.4767170842	-0.422046
H	 0.8603296005	 1.8362767523	 0.0983307086	 0.125021
H	-0.614678728	 1.832315215	-0.8922113235	 0.113913
H	-0.7032521164	 1.4617343751	 0.8373272142	 0.121078
H	-0.8560836958	-0.6230790827	-0.5737021842	 0.093398
H	 0.7122639563	-0.2581939314	-1.2864929194	 0.105823
H	 0.582350809	-0.9159912459	 2.8734046143	 0.09875
H	-1.4877456214	-2.5145089367	 2.527503472	 0.110449
H	-1.9280381503	-1.3399312203	 1.2751008365	 0.10348
H	-0.4166697484	-3.9658204547	 0.9651251541	 0.110534
H	-0.7588658947	-2.8988406188	-0.4095123437	 0.101573
H	 2.2842072418	-3.7236501541	 1.6188372184	 0.10182
H	 2.5570565349	-3.1836938329	-0.0439331808	 0.082019
H	 2.9220378316	-1.0595228003	 1.2002029509	 0.282797
51.0798	102.5894	161.4832	194.7378	229.0128	239.0267	289.3114	326.7	428.7128	490.7438	518.2629	555.366	680.1799	722.1011	780.3924	790.4987	815.0716	911.9558	935.4763	951.7189	964.3349	993.0063	1026.4867	1074.5448	1091.0679	1101.7495	1120.667	1143.776	1179.8259	1192.8237	1213.2566	1227.1526	1244.9364	1270.976	1275.8136	1307.1056	1351.708	1383.05	1407.0663	1429.4491	1464.0298	1475.2177	1489.0382	1494.3124	1502.0357	1515.1749	1519.4272	2932.4905	3003.3017	3038.4626	3038.9061	3053.3302	3055.4179	3061.7743	3102.7157	3108.4589	3118.5838	3120.3791	3171.1279	3696.086
CCN1C2CCC12CO	CCN1[C@H]2CC[C@@]12CO	
InChI=1S/C7H13NO/c1-2-8-6-3-4-7(6,8)5-9/h6,9H,2-5H2,1H3	InChI=1S/C7H13NO/c1-2-8-6-3-4-7(6,8)5-9/h6,9H,2-5H2,1H3/t6-,7-,8?/m0/s1
