19
gdb 36220	3.47778	1.07132	0.95717	0.5634	86.72	-0.2254	0.0192	0.2446	1290.965	0.159352	-348.721306	-348.713019	-348.712075	-348.754496	32.352	
C	-0.0637378856	-1.1430546036	 0.4617261646	-0.465311
C	-0.0268664753	 0.0194561767	 0.1590042095	 0.313912
C	 0.0372916221	 1.4361597566	-0.1995265372	-0.462295
C	 1.4401722776	 1.9912252482	-0.158059095	 0.353292
C	 2.0795768083	 2.6148112282	-1.1523195453	-0.198991
C	 3.4786383807	 3.0418505069	-0.7617687085	-0.265636
C	 3.565398798	 2.6666047749	 0.7184885958	-0.03253
C	 2.5965514542	 3.3113430107	 1.6744032806	-0.281563
C	 2.2742109508	 1.9520187665	 1.0825654148	-0.125957
H	-0.103983152	-2.1712352939	 0.723277896	 0.195875
H	-0.3880170413	 1.5824371718	-1.1992538537	 0.133802
H	-0.6017972758	 2.0008724149	 0.4953045859	 0.138234
H	 1.6565416071	 2.8197892176	-2.1300959501	 0.086154
H	 4.2354481853	 2.5106767011	-1.3551886085	 0.107356
H	 3.6509057712	 4.1125758922	-0.933748999	 0.107087
H	 4.5148045057	 2.3276280808	 1.1154408465	 0.08494
H	 2.8884556469	 3.3468888383	 2.7190686436	 0.108165
H	 2.0111940577	 4.1620779697	 1.3385614891	 0.107714
H	 2.2394888242	 1.0821099022	 1.728361411	 0.095752
55.7302	100.949	202.1178	277.3123	310.7293	344.348	362.6227	435.8963	582.2949	617.2071	638.0782	660.8005	726.8739	775.6418	812.4675	826.0873	852.2269	897.9519	932.135	949.2146	980.7863	993.1181	1007.5867	1054.1006	1069.5952	1097.5518	1104.0485	1170.3676	1185.6013	1205.6242	1208.7727	1273.0858	1312.9564	1330.4508	1374.3981	1383.3093	1458.3066	1471.8112	1484.3475	1703.6833	2237.8201	2999.3842	3010.5396	3037.1339	3056.2958	3118.6387	3174.3546	3180.9382	3187.0196	3208.243	3506.7772
C#CCC1=CCC2CC12	C#CCC1=CC[C@H]2C[C@@H]12	
InChI=1S/C9H10/c1-2-3-7-4-5-8-6-9(7)8/h1,4,8-9H,3,5-6H2	InChI=1S/C9H10/c1-2-3-7-4-5-8-6-9(7)8/h1,4,8-9H,3,5-6H2/t8-,9-/m0/s1
