18
gdb 86374	2.26549	1.36234	0.96041	2.1778	70.09	-0.258	0.01	0.268	1229.9397	0.146487	-476.196816	-476.18762	-476.186676	-476.231547	33.595	
O	 0.3231039502	 0.7076351516	-1.04499598	-0.432486
C	 0.0820885862	-0.2353944164	-0.0394364563	 0.143607
C	 0.0096908815	 0.2012016182	 1.45035911	-0.325142
C	-1.1675708423	-0.8044617111	 1.635264793	 0.148622
O	-2.2637060224	-0.4703436062	 2.4303330766	-0.433134
C	-1.3636529212	-0.8070212045	 0.0925996283	 0.012668
O	-2.3171106912	 0.2140957419	-0.1999825655	-0.226445
C	-2.7413943257	 0.3201982232	-1.4813489367	 0.127136
N	-3.4226970885	 1.3226483692	-1.8263178307	-0.442129
H	-0.2722652651	 1.452358734	-0.9007038731	 0.296333
H	 0.8026546563	-1.0436382359	-0.1926491289	 0.099041
H	 0.8993226105	 0.0806802033	 2.070385888	 0.11016
H	-0.3529617882	 1.2305067278	 1.5378224355	 0.10961
H	-0.8055724005	-1.7785575777	 1.9756107022	 0.098237
H	-2.74927762	 0.2209103315	 1.9627291903	 0.296095
H	-1.6291916225	-1.7373007097	-0.4196062381	 0.080486
H	-2.4434394659	-0.5286301826	-2.1084361289	 0.101693
H	-3.6931057414	 1.2422267632	-2.8042307156	 0.235648
50.6195	93.1906	104.4014	157.0047	234.9114	295.4669	371.392	390.7239	427.9534	438.0678	483.4409	595.3464	636.8663	688.1397	770.843	825.2544	881.2453	898.6044	976.5094	1041.371	1049.9853	1054.6076	1064.2803	1116.7131	1135.9223	1170.9603	1184.848	1239.1891	1257.8688	1270.6084	1299.8381	1318.6385	1340.2334	1359.0776	1417.7868	1428.5227	1453.6368	1478.664	1743.517	3047.1706	3057.1003	3060.3243	3074.7878	3082.5363	3129.0489	3521.9987	3781.5252	3799.5082
OC1CC(O)C1OC=N	O[C@H]1C[C@@H](O)[C@H]1O[CH][NH]	
InChI=1S/C5H9NO3/c6-2-9-5-3(7)1-4(5)8/h2-8H,1H2	InChI=1S/C5H9NO3/c6-2-9-5-3(7)1-4(5)8/h2-8H,1H2/t3-,4+,5-
