17
gdb 25910	4.27569	1.07433	0.86785	1.5602	77.73	-0.2336	-0.0418	0.1918	1314.6708	0.135857	-418.084019	-418.075293	-418.074349	-418.117794	31.377	
C	-0.0297426533	 1.5223047704	 0.0036590407	-0.504196
C	 0.0779836784	 0.0145057663	 0.0646422096	 0.423414
O	 1.1236064024	-0.5807517104	 0.1453245378	-0.311401
N	-1.1418079562	-0.6927126485	 0.0217638693	-0.079482
C	-2.4341448435	-0.2056637063	-0.0676331556	 0.01762
N	-3.3180317568	-1.159133034	-0.0820973188	-0.314567
C	-2.5947420047	-2.3495193753	 0.0013884019	 0.268234
C	-3.2881990654	-3.6706750623	 0.0108948747	-0.484754
C	-1.2613399283	-2.0804746525	 0.0656939883	-0.179132
H	 0.977719704	 1.934384941	 0.0415220034	 0.158771
H	-0.5207765631	 1.8441265874	-0.9196447186	 0.155627
H	-0.6128956264	 1.9081506261	 0.8453025469	 0.155794
H	-2.6464991081	 0.8509255345	-0.1177443014	 0.137734
H	-3.8807761298	-3.8070769576	-0.9000185119	 0.137835
H	-2.5703019389	-4.4915884286	 0.0814285496	 0.123955
H	-3.9796858787	-3.7425266509	 0.8571871263	 0.137844
H	-0.3846129214	-2.6994444493	 0.1370451875	 0.156703
84.053	114.5041	138.8649	146.5349	184.1101	288.724	330.8168	395.6502	523.4922	573.4621	614.6539	646.0246	682.822	706.6878	776.0168	838.7132	956.1948	969.4939	1018.0294	1027.6975	1055.6371	1066.4348	1097.0963	1221.8827	1266.7738	1296.0285	1338.8356	1384.5906	1408.7213	1427.0555	1471.9406	1475.3099	1480.3973	1489.6713	1537.5286	1628.0361	1817.626	3037.5004	3051.5598	3092.3162	3117.2136	3123.374	3168.9058	3262.161	3301.3971
CC(=O)N1C=NC(C)=C1	CC(=O)n1cnc(C)c1	
InChI=1S/C6H8N2O/c1-5-3-8(4-7-5)6(2)9/h3-4H,1-2H3	InChI=1S/C6H8N2O/c1-5-3-8(4-7-5)6(2)9/h3-4H,1-2H3
