23
gdb 101036	2.34122	1.18686	1.0194	1.6899	82.54	-0.2443	0.0847	0.329	1342.3303	0.202327	-425.392166	-425.381261	-425.380317	-425.428341	39.377	
C	 0.1841242616	 1.4444630792	 0.1337285677	-0.233828
O	-0.1926525239	 0.1163893563	-0.1426170341	-0.247186
C	 0.7931893788	-0.6595206345	-0.8088727059	 0.066521
C	 1.9258213525	-1.089831532	 0.1275771423	-0.400919
C	 0.0845555478	-1.8743496512	-1.407866011	 0.421555
C	-0.9753358433	-2.5788861272	-0.6189188803	-0.309631
C	-1.3489248809	-1.7910620738	-1.8609424292	-0.331615
O	 0.9413390807	-2.726466195	-2.1223981248	-0.29084
C	 1.2936618627	-2.2724698535	-3.416181455	-0.250946
H	 1.0028601677	 1.5090206219	 0.8644605576	 0.109772
H	 0.4944598015	 1.9762818557	-0.7794815353	 0.103465
H	-0.6923458451	 1.9461233663	 0.5517827827	 0.127134
H	 1.2160011107	-0.0582724462	-1.6325205691	 0.058714
H	 1.5132063265	-1.6123197794	 0.9958641083	 0.124064
H	 2.5993696786	-1.7715329988	-0.3970698455	 0.132678
H	 2.5077827913	-0.2332085994	 0.4788989114	 0.107118
H	-0.9879352569	-3.6603523886	-0.6870609282	 0.115726
H	-1.2490572604	-2.162255985	 0.3427333687	 0.123672
H	-1.8729265538	-0.853375304	-1.7264872482	 0.122991
H	-1.6185195584	-2.3581289846	-2.7450983473	 0.109485
H	 0.4059829684	-2.046470402	-4.0224874134	 0.10962
H	 1.9317086633	-1.3779596743	-3.3898427465	 0.107331
H	 1.8531806905	-3.0819209099	-3.8915577647	 0.125118
63.5039	67.6715	99.6748	165.9394	188.7611	206.6978	216.5689	260.5884	264.9855	332.2602	341.8471	439.9016	453.192	464.6002	589.9002	707.7209	781.4011	852.9845	894.3428	904.4541	953.2734	984.0742	1048.8896	1056.4404	1081.4005	1093.0938	1105.491	1121.844	1159.5336	1181.8332	1183.585	1196.7841	1210.8086	1227.1838	1264.3499	1337.7067	1364.7321	1388.2888	1398.3399	1439.2973	1473.3577	1476.713	1483.4123	1491.4931	1492.4665	1494.2121	1501.4896	1509.5801	1513.3727	2947.31	2978.187	2995.0649	3028.3025	3046.5239	3047.3351	3110.3119	3114.1318	3117.8632	3131.5474	3141.9871	3145.9437	3232.0865	3244.6009
COC(C)C1(CC1)OC	CO[C@@H](C)C1(CC1)OC	
InChI=1S/C7H14O2/c1-6(8-2)7(9-3)4-5-7/h6H,4-5H2,1-3H3	InChI=1S/C7H14O2/c1-6(8-2)7(9-3)4-5-7/h6H,4-5H2,1-3H3/t6-/m0/s1
