14
gdb 10869	3.28095	2.02585	1.60157	1.5288	58.35	-0.2519	-0.0254	0.2265	812.2905	0.105067	-419.618876	-419.611554	-419.61061	-419.650264	27.296	
C	 0.0959071995	 1.445686895	-0.0364518439	-0.526001
C	-0.0330917732	-0.0323643767	 0.0940569324	 0.203305
O	 0.5832879829	-0.9182114451	-0.9686148487	-0.363188
C	 0.0363004079	-1.9154712857	 0.0011040942	-0.139748
C	 0.6041930256	-1.0167375022	 1.1404192407	 0.163255
O	 1.9832698611	-0.9598570334	 1.2795675754	-0.446107
C	-1.2189282462	-1.0183464999	-0.0137900737	 0.457239
O	-2.3965620758	-1.0503768558	-0.1616004767	-0.308772
H	 1.1360765815	 1.75546834	 0.104419345	 0.141468
H	-0.2463897931	 1.7796369589	-1.0196150872	 0.150697
H	-0.5154968785	 1.9361491058	 0.7271963434	 0.146189
H	 0.1954011334	-2.9685123105	-0.217827171	 0.118391
H	 0.1488915503	-1.0831314724	 2.1310296334	 0.109372
H	 2.3373248443	-0.925695628	 0.3788689666	 0.293899
144.2118	162.4624	184.078	254.9418	309.9673	340.0874	543.4781	566.4708	574.226	645.5377	724.3445	738.2226	793.5314	799.8194	845.4508	931.3504	1000.795	1075.0405	1103.1475	1125.7396	1167.7924	1176.7213	1212.5438	1303.0469	1347.9899	1414.3353	1451.8569	1473.5812	1483.5446	1935.6677	3042.9142	3101.0036	3115.1164	3124.7343	3163.3596	3742.145
CC12OC(C1O)C2=O	C[C@@]12O[C@@H]([C@H]1O)C2=O	
InChI=1S/C5H6O3/c1-5-3(6)2(8-5)4(5)7/h2-3,6H,1H3	InChI=1S/C5H6O3/c1-5-3(6)2(8-5)4(5)7/h2-3,6H,1H3/t2-,3+,5+/m0/s1
