18
gdb 51346	5.8485	0.89055	0.87751	3.7604	77.39	-0.2356	-0.0203	0.2154	1336.393	0.14715	-401.852793	-401.845066	-401.844122	-401.886102	29.002	
O	-0.7963742295	 0.7137294716	 0.6544504879	-0.241543
C	 0.0366118421	 0.9476436964	-0.1837308563	 0.157663
C	 1.2430325766	 1.840016236	 0.0313435436	-0.314437
C	 1.3480886379	 2.9144552222	-1.0464026924	 0.037566
C	 2.6556297872	 3.6623187549	-1.2977559258	-0.086365
C	 3.2073200985	 2.4426254385	-2.0986478971	-0.008411
C	 3.5330035665	 3.2653948447	-3.3475575668	-0.257883
C	 2.23094055	 3.8404035336	-2.7882438129	 0.002503
N	 1.6892313474	 2.4216884706	-2.4566547599	-0.172952
H	-0.0323389409	 0.5116765173	-1.2043213084	 0.098545
H	 1.1722758055	 2.2883053971	 1.0272791482	 0.12192
H	 2.1372805793	 1.2021596402	 0.0084349819	 0.117683
H	 0.4432895431	 3.5360716771	-1.0541883306	 0.082404
H	 3.2107582773	 4.3624324285	-0.6640262539	 0.070031
H	 3.7037152711	 1.5507018171	-1.7148582485	 0.087276
H	 4.4171773982	 3.905413179	-3.3006272056	 0.103834
H	 3.4577780934	 2.7409781518	-4.3034563986	 0.113856
H	 1.5596281164	 4.5976013732	-3.1969590547	 0.088308
56.3498	64.2634	159.1996	230.4852	335.5069	427.7693	463.3365	556.6631	707.6079	739.597	818.3435	821.9339	854.9113	858.2283	891.5173	897.8083	930.9882	1017.6667	1021.6936	1026.1899	1047.5801	1071.2223	1102.7733	1130.2867	1141.8791	1151.4737	1179.1223	1185.4659	1222.8432	1231.5108	1252.9497	1270.374	1302.8554	1317.6673	1410.1825	1424.5274	1456.8506	1490.1961	1831.2119	2900.1054	3019.1606	3029.5721	3045.6998	3060.6663	3093.9991	3103.1595	3110.3544	3127.5543
O=CCC1C2C3CC2N13	O=CC[C@H]1[C@H]2[C@@H]3C[C@H]2N13	
InChI=1S/C7H9NO/c9-2-1-4-7-5-3-6(7)8(4)5/h2,4-7H,1,3H2	InChI=1S/C7H9NO/c9-2-1-4-7-5-3-6(7)8(4)5/h2,4-7H,1,3H2/t4-,5-,6+,7-/m0/s1
