22
gdb 73304	3.10303	1.50017	1.30803	1.6895	85.22	-0.2183	0.0838	0.3022	1096.0218	0.195255	-367.193714	-367.185489	-367.184544	-367.225604	33.713	
C	-0.0355935815	 1.4777353148	 0.0380157111	-0.477976
C	-0.0319325061	-0.02440062	-0.0790927709	 0.36058
C	 0.9551109786	-0.6972428116	-1.0354956047	-0.301156
C	 0.2722739519	-2.0344260891	-1.4157304566	-0.246187
C	-0.7491886621	-2.2595086239	-0.2880947289	 0.308424
C	-1.7301292849	-3.3938608644	-0.4989459069	-0.493694
C	-0.0084883782	-2.167114708	 1.0730478331	-0.195575
N	-0.3284277273	-0.7084683722	 1.2225215991	-0.187825
C	-1.2648679307	-0.8298400544	 0.0441419009	-0.138989
H	 0.9407082903	 1.8426967752	 0.3764955523	 0.119954
H	-0.2546397323	 1.9458743887	-0.928118561	 0.111014
H	-0.783393353	 1.8053120425	 0.7644723202	 0.128317
H	 1.1301968205	-0.0620131022	-1.9090655993	 0.100286
H	 1.9300184912	-0.8467367093	-0.5570495753	 0.103969
H	-0.2478087614	-1.9417657005	-2.3768866059	 0.093997
H	 0.9793421435	-2.8673520236	-1.5001329487	 0.092806
H	-1.2081270501	-4.354515911	-0.5777767626	 0.116435
H	-2.4407991062	-3.4686151706	 0.3309459725	 0.117259
H	-2.3053052691	-3.2543173053	-1.4218124608	 0.114674
H	-0.515948788	-2.7100089784	 1.8753913264	 0.102919
H	 1.0590826292	-2.4182115018	 1.0948545053	 0.090362
H	-2.2870777145	-0.465818175	 0.0651896308	 0.080407
192.9066	210.5511	222.4612	227.9769	264.9199	328.1448	372.3268	390.3697	445.6968	544.0048	587.8302	635.2038	695.5001	793.5111	821.0546	862.6548	877.2818	894.8707	937.6082	965.3067	974.7349	999.1093	1004.0248	1026.3118	1037.9926	1085.64	1146.4396	1160.5465	1167.8534	1187.838	1233.5532	1244.8399	1270.1986	1279.8951	1290.9394	1327.1098	1363.1934	1402.6533	1414.4786	1419.532	1483.4863	1487.9856	1491.132	1494.9703	1496.1975	1497.7138	1516.3761	3021.074	3024.0083	3027.5502	3029.715	3040.4009	3067.6898	3082.84	3086.0593	3087.5356	3090.2482	3094.5182	3120.5248	3159.9374
CC12CCC3(C)CN1C23	C[C@@]12CC[C@@]3(C)CN1[C@@H]23	
InChI=1S/C8H13N/c1-7-3-4-8(2)6(7)9(8)5-7/h6H,3-5H2,1-2H3	InChI=1S/C8H13N/c1-7-3-4-8(2)6(7)9(8)5-7/h6H,3-5H2,1-2H3/t6-,7+,8+,9?/m1/s1
