17
gdb 20255	3.51992	3.08551	2.41187	1.5342	69.38	-0.2056	0.0799	0.2854	662.3392	0.146455	-326.667242	-326.662103	-326.661158	-326.696037	22.656	
C	-0.0090310726	 1.5231174529	 0.0039447349	-0.167225
C	 1.5370169069	 1.5049563625	-0.0081013826	-0.062171
C	 2.0468395783	 1.4984368489	 1.4426053297	-0.231103
C	 1.6362859703	 0.1200092938	 1.9371442974	-0.055252
C	 1.7780096382	-0.890298446	 0.8284277671	-0.104767
C	 0.3953997198	-0.5416616329	 1.3418997512	-0.034679
N	-0.0408486886	 0.0227783746	 0.0402005374	-0.135071
C	 1.414127686	-0.024169708	-0.3888321256	 0.004005
H	-0.4972998906	 2.02318428	 0.8472322826	 0.096811
H	-0.4608476609	 1.8712440228	-0.9302056902	 0.10019
H	 2.0655039396	 2.1919609054	-0.6713324257	 0.063654
H	 3.1387378028	 1.5959272193	 1.4893167271	 0.095055
H	 1.613346129	 2.3219310348	 2.0211745815	 0.097624
H	 1.8834820897	-0.1909675016	 2.9470242846	 0.083649
H	 2.3405457812	-1.8130651943	 0.8575330819	 0.089506
H	-0.2946634406	-1.1145029498	 1.9518589828	 0.088451
H	 1.6259115515	-0.3536254822	-1.4061492639	 0.071322
302.8846	404.7784	490.4727	594.3767	681.528	710.002	768.1348	794.3026	831.7131	840.0663	881.9636	894.8525	924.0455	936.4444	950.6985	974.0254	997.3485	1011.5866	1048.2301	1059.0697	1091.1863	1107.5071	1108.6114	1156.3916	1188.0876	1205.1999	1235.6228	1244.9898	1267.6072	1279.9141	1291.8073	1318.3831	1347.6575	1398.798	1491.3932	1503.7795	3022.0303	3035.6202	3067.0801	3085.2997	3092.6002	3109.4207	3161.507	3171.276	3208.1693
C1C2CC3C4C3N1C24	C1[C@H]2C[C@@H]3[C@H]4[C@@H]3N1[C@@H]24	
InChI=1S/C7H9N/c1-3-2-8-6(3)5-4(1)7(5)8/h3-7H,1-2H2	InChI=1S/C7H9N/c1-3-2-8-6(3)5-4(1)7(5)8/h3-7H,1-2H2/t3-,4-,5-,6+,7-/m1/s1
