17
gdb 97614	5.31037	0.52962	0.50401	1.9595	75.62	-0.2531	-0.0264	0.2267	2091.7546	0.131875	-458.924239	-458.913547	-458.912602	-458.962369	35.718	
O	 0.3993059276	 1.0023803334	-0.6943330624	-0.398128
C	 0.0120032313	 0.2042489527	 0.4130053268	-0.19579
C	-1.3656708247	-0.2821385101	 0.3310092905	 0.122678
C	-2.4947328326	-0.6843232619	 0.2020665935	 0.003946
C	-3.8577624304	-1.2032625254	 0.0878815381	-0.078646
O	-3.9045439623	-2.5057997993	-0.4885942086	-0.41064
C	-4.585788194	-1.1796421881	 1.4466580049	-0.289179
C	-5.9907816746	-1.7351248605	 1.3181343149	 0.168479
O	-6.4880324062	-2.5122537316	 2.0885592995	-0.236729
H	 0.2151053368	 0.4987669364	-1.494266156	 0.290479
H	 0.6880367846	-0.6551998337	 0.5491767585	 0.122421
H	 0.1321941259	 0.8409894453	 1.2964561989	 0.145427
H	-4.4188959638	-0.5767124472	-0.6175639384	 0.12661
H	-3.3292795527	-3.0787783534	 0.0315026238	 0.289172
H	-4.0391969237	-1.7547624567	 2.1998492812	 0.125478
H	-4.6543342578	-0.1417420042	 1.8001200715	 0.136658
H	-6.5594058233	-1.3473170457	 0.4414222332	 0.077763
21.2744	58.2683	66.9303	99.4778	132.5278	172.5665	248.6876	271.7406	316.7494	346.3027	404.6884	448.3586	523.7439	577.4353	590.2829	751.4708	805.9783	926.013	984.5123	1025.4038	1046.1184	1060.7926	1095.3701	1155.9885	1187.5349	1216.6693	1256.543	1293.6346	1352.7499	1359.9494	1413.2675	1419.5486	1431.5491	1452.7286	1487.9881	1842.8777	2353.0872	2866.6212	2977.0706	3029.5732	3030.8687	3065.156	3101.5789	3800.695	3815.9072
OCC#CC(O)CC=O	OCC#C[C@@H](O)CC=O	
InChI=1S/C6H8O3/c7-4-1-2-6(9)3-5-8/h5-7,9H,3-4H2	InChI=1S/C6H8O3/c7-4-1-2-6(9)3-5-8/h5-7,9H,3-4H2/t6-/m1/s1
