21
gdb 120867	4.90867	0.75635	0.72068	2.9649	79.47	-0.2447	0.0804	0.3251	1626.6301	0.180651	-424.189895	-424.180228	-424.179284	-424.224742	35.636	
C	 0.0951559943	 1.5498416826	-0.0259025424	-0.500059
C	-0.0873584272	 0.0749695504	 0.1217232279	 0.424617
C	-1.3957146438	-0.7369469215	 0.1178229593	-0.314699
C	-0.6856487257	-1.8072736203	 1.0339403632	-0.01088
C	-0.5699723475	-3.2447487103	 0.542839071	-0.187336
C	-1.905311774	-3.9770286362	 0.5102003503	-0.072224
O	-1.6671529303	-5.2987729783	 0.0491945876	-0.419462
C	 0.5822283744	-0.9387900444	 0.956428152	-0.063771
O	 0.9169596355	-0.7929272691	-0.4317616819	-0.286082
H	 1.1334892483	 1.8283157777	 0.1729802657	 0.133833
H	-0.1547564518	 1.8728180139	-1.0431279514	 0.130297
H	-0.5548059057	 2.0938714488	 0.6672220056	 0.122282
H	-2.2279015576	-0.234865807	 0.617557512	 0.101058
H	-1.7147629205	-1.0756975647	-0.8716872143	 0.105579
H	-1.1084230199	-1.7732208448	 2.0446392091	 0.071629
H	-0.1328378616	-3.249888865	-0.4608372016	 0.121685
H	 0.1140839646	-3.8057896844	 1.192139471	 0.101511
H	-2.3524241059	-3.9829216312	 1.5187749367	 0.078539
H	-2.6087668055	-3.4456436393	-0.1515863506	 0.086068
H	-2.5104257438	-5.758572129	 0.0052915973	 0.284043
H	 1.3968168235	-0.8544917278	 1.6686362435	 0.093372
70.4671	96.3414	106.7009	175.2617	200.4887	261.1507	273.8882	291.0692	371.7242	399.7116	460.7472	565.1429	656.3677	724.7796	786.9559	833.5155	873.888	896.5123	929.1503	943.0395	992.3522	1021.7794	1035.5991	1056.1464	1076.1689	1093.318	1144.8236	1180.1557	1205.6579	1211.7064	1236.5006	1241.3076	1261.7412	1280.2858	1309.1773	1328.0706	1379.571	1404.5259	1455.3198	1461.9265	1477.1373	1486.4685	1495.7678	1498.2093	1527.6013	2953.2711	2979.7269	3032.4377	3033.2373	3040.8533	3059.0447	3090.7312	3093.7581	3115.6943	3119.9726	3169.4798	3830.2822
CC12CC(CCO)C1O2	C[C@]12C[C@@H](CCO)[C@H]1O2	
InChI=1S/C7H12O2/c1-7-4-5(2-3-8)6(7)9-7/h5-6,8H,2-4H2,1H3	InChI=1S/C7H12O2/c1-7-4-5(2-3-8)6(7)9-7/h5-6,8H,2-4H2,1H3/t5-,6-,7+/m1/s1
