19
gdb 87877	3.29799	1.22979	1.19388	1.8737	75.18	-0.2399	0.0537	0.2936	1140.9337	0.158488	-422.971858	-422.963695	-422.962751	-423.004827	31.114	
C	-0.1753127172	 1.5174099603	 0.2086362962	-0.418558
C	-0.1254558255	 0.013448059	 0.2624373262	-0.011209
O	 1.0960920177	-0.61292126	-0.1788857534	-0.294656
C	 0.7391993891	-0.7171178173	 1.1895653928	 0.42765
C	 1.6486840885	-0.2387415972	 2.3357219592	-0.34492
C	 1.3401101578	-1.5600515793	 3.0952816304	-0.083426
C	 0.0077823917	-1.5827628019	 3.8668552725	-0.077258
O	-0.7319961077	-2.0135165465	 2.6977315296	-0.288943
C	 0.4684929202	-2.049307252	 1.8988875487	 0.006137
H	 0.7462320362	 1.9543079215	 0.6019108605	 0.125927
H	-0.3051538744	 1.8624809576	-0.8223560169	 0.130758
H	-1.0204752639	 1.8911636152	 0.7967923725	 0.125224
H	-1.0249891142	-0.4990580574	-0.0824558469	 0.097734
H	 2.691598186	-0.1672347255	 2.0156714589	 0.122345
H	 1.3700432211	 0.6912411113	 2.8403007872	 0.105876
H	 2.1783235981	-2.1140373745	 3.512880228	 0.084853
H	-0.0494888024	-2.3326774431	 4.665061323	 0.105833
H	-0.3462831748	-0.6191860964	 4.2553917361	 0.10052
H	 0.5872817737	-2.9758536437	 1.3313695856	 0.086115
67.8131	140.2021	182.3993	197.0417	258.5417	351.6869	412.074	442.0536	509.6326	545.5023	751.055	784.3256	797.2392	841.9725	881.9099	908.6742	934.5733	974.2208	990.4261	1013.2404	1024.3374	1051.0692	1091.5134	1121.7111	1135.487	1154.4807	1166.0073	1173.9332	1199.6424	1221.5564	1253.2449	1284.5687	1308.2418	1353.2558	1357.7116	1408.7568	1464.4	1476.97	1489.3245	1520.653	1522.2444	3011.0945	3036.8898	3053.1293	3055.6264	3083.149	3096.9513	3101.327	3107.7415	3125.5245	3133.0834
CC1OC11CC2COC12	C[C@H]1O[C@]21C[C@H]1CO[C@@H]21	
InChI=1S/C7H10O2/c1-4-7(9-4)2-5-3-8-6(5)7/h4-6H,2-3H2,1H3	InChI=1S/C7H10O2/c1-4-7(9-4)2-5-3-8-6(5)7/h4-6H,2-3H2,1H3/t4-,5+,6-,7+/m1/s1
