21
gdb 83047	2.19399	1.75824	1.38045	1.7697	83.2	-0.2281	0.0163	0.2445	1061.8565	0.184079	-387.089908	-387.081555	-387.080611	-387.122292	33.521	
C	 0.331012337	 1.5719231801	-0.068507205	-0.393021
C	 0.0187821323	 0.0638261212	-0.0131529202	-0.0457
C	 0.3603624306	-0.6280872121	-1.3104623273	-0.064857
C	 0.8913937304	-1.849202683	-1.4101823777	-0.103626
C	 1.2447539431	-2.7192436329	-0.2333896031	-0.274016
C	 1.2694910572	-1.9881528043	 1.0978549016	-0.118032
C	 2.1644379115	-0.7841242887	 1.2703799187	 0.12033
O	 3.044566443	-0.3468089262	 0.2748125797	-0.427053
C	 0.6675731153	-0.5894669559	 1.2003191968	-0.097634
H	 1.4071276229	 1.7391693606	-0.1657568949	 0.135797
H	-0.174681293	 2.0488615916	-0.9152067249	 0.105694
H	-0.0062850829	 2.068582511	 0.8468879188	 0.111235
H	-1.0714838689	-0.0354307967	 0.109826859	 0.090706
H	 0.112713389	-0.0801132999	-2.2178269222	 0.087833
H	 1.0666458606	-2.2762289921	-2.3950809423	 0.091521
H	 0.5182514713	-3.5425915191	-0.1791720447	 0.117581
H	 2.2155428207	-3.2016697767	-0.414270892	 0.115888
H	 1.1594413951	-2.6359534972	 1.9629804664	 0.081645
H	 2.6353034343	-0.6495429299	 2.2389833245	 0.099329
H	 2.6264214655	-0.4851178322	-0.5841318829	 0.286646
H	 0.1811592651	-0.3368923376	 2.1392275716	 0.079733
114.6355	156.0331	207.3348	255.3361	290.5995	319.686	379.3534	448.7986	477.1715	492.1456	581.4544	668.2859	711.6177	739.5562	771.0942	803.0359	861.1606	908.4514	928.6153	972.8065	1008.781	1013.7154	1040.9557	1062.1011	1076.7668	1095.7441	1122.8871	1130.8572	1162.5038	1201.7849	1228.1862	1238.161	1317.6026	1325.6872	1345.4809	1354.4298	1360.5001	1398.1239	1404.0545	1427.5025	1467.3819	1481.0706	1496.6854	1506.5179	1712.1157	2970.8491	3002.8486	3023.6083	3032.9249	3098.6049	3121.3026	3127.3698	3135.6511	3139.5834	3160.3	3163.1624	3758.3466
CC1C=CCC2C(O)C12	C[C@H]1C=CC[C@H]2[C@@H](O)[C@@H]12	
InChI=1S/C8H12O/c1-5-3-2-4-6-7(5)8(6)9/h2-3,5-9H,4H2,1H3	InChI=1S/C8H12O/c1-5-3-2-4-6-7(5)8(6)9/h2-3,5-9H,4H2,1H3/t5-,6+,7-,8+/m0/s1
