21
gdb 60582	3.5708	0.94509	0.85277	3.1804	78.97	-0.2252	0.0608	0.286	1422.5076	0.181828	-424.187875	-424.178542	-424.177598	-424.222379	35.761	
O	-0.406087448	 1.4004855754	 0.1642386961	-0.441051
C	-0.1407481974	-0.0073144197	 0.0096698731	 0.073083
C	 0.6735196555	-0.2788518176	-1.2346303469	 0.004122
C	 0.3957262595	-1.5048603849	-2.070005834	-0.265414
C	 0.039201162	-0.1381040867	-2.594320502	-0.276538
C	 0.5007214763	-0.6060350525	 1.2543117161	-0.063914
C	 1.4857545467	 0.1929416483	 2.0985762479	-0.347667
C	 0.115706808	-0.1465223542	 2.6367223491	 0.133759
O	-0.8553961675	 0.8279115956	 2.8513481472	-0.437362
H	 0.4093495694	 1.8779378427	-0.0227544039	 0.287463
H	-1.1376096464	-0.4487220325	-0.1186413908	 0.092166
H	 1.7187694905	 0.0118540163	-1.146602001	 0.083653
H	 1.2387315045	-2.0264309003	-2.5086988227	 0.115737
H	-0.4147118002	-2.1558678358	-1.7584855832	 0.116968
H	-1.0097528667	 0.1360984362	-2.6289537811	 0.122938
H	 0.6345821626	 0.277176449	-3.3996177345	 0.113657
H	 0.7165441	-1.6651087758	 1.1369944155	 0.090154
H	 2.3634850868	-0.3067929364	 2.4943420199	 0.109714
H	 1.6471049982	 1.2337514386	 1.8347751017	 0.096068
H	 0.0622710897	-0.90256193	 3.4143448058	 0.100172
H	-0.9080328235	 1.3558404643	 2.0403222677	 0.292292
56.7751	72.6732	146.651	230.586	238.7509	282.9421	303.0809	325.9397	419.3284	475.6445	543.8993	600.1077	649.9637	753.9181	779.018	803.83	833.2407	866.8507	877.015	937.8686	962.5494	976.7493	1012.3619	1029.3264	1057.2682	1067.6974	1081.6424	1115.6638	1123.9153	1137.4631	1143.3171	1164.4294	1197.9993	1223.3515	1232.6792	1273.9684	1313.4846	1357.3547	1373.9424	1401.9826	1434.5549	1459.8664	1471.3113	1496.4827	1506.7287	3026.7791	3123.0211	3124.4446	3132.7418	3136.5406	3138.053	3156.3882	3210.4417	3211.5493	3226.288	3700.8184	3812.0359
OC(C1CC1)C1CC1O	O[C@@H](C1CC1)[C@H]1C[C@H]1O	
InChI=1S/C7H12O2/c8-6-3-5(6)7(9)4-1-2-4/h4-9H,1-3H2	InChI=1S/C7H12O2/c8-6-3-5(6)7(9)4-1-2-4/h4-9H,1-3H2/t5-,6+,7-/m0/s1
