15
gdb 21301	3.24345	1.97598	1.24703	2.0583	63.6	-0.2464	0.0054	0.2518	943.5861	0.118589	-399.792857	-399.785102	-399.784158	-399.825165	27.374	
C	-0.0043908979	 1.3780460132	-0.032866856	-0.242423
O	-0.0074616488	-0.0519152758	-0.0241418459	-0.261079
C	-1.212164582	-0.629249788	 0.0060566017	 0.432726
N	-2.3388624579	 0.043802138	 0.0267563741	-0.253244
O	-3.335492147	-0.9363108427	 0.0548496803	-0.189332
C	-2.7505539239	-2.1463547115	 0.0495869413	 0.01326
C	-1.3990440965	-2.0490393648	 0.0190303339	 0.02971
C	-0.343687186	-3.1056297906	 0.0020643176	-0.504721
H	 1.0446360746	 1.6740559321	-0.0578246517	 0.132651
H	-0.5303758992	 1.7602568137	-0.9130879244	 0.143144
H	-0.4911181739	 1.7710275016	 0.8650180755	 0.14314
H	-3.4227303387	-2.9911375787	 0.0698595665	 0.148291
H	 0.2794032573	-3.0309986279	-0.8955688492	 0.139971
H	 0.3254275852	-3.0128332185	 0.8641201511	 0.140016
H	-0.7875813454	-4.1040425301	 0.0238995953	 0.127893
105.7726	125.7095	180.4543	185.1869	252.2812	294.0435	369.1032	531.5503	591.2506	618.111	737.3353	754.0458	842.9761	918.8016	962.5955	1018.3872	1047.2514	1069.9661	1156.4243	1180.8326	1212.7971	1252.2222	1307.9154	1423.8634	1437.6364	1463.4768	1480.1523	1480.7249	1499.0463	1503.6413	1567.9609	1678.1597	3036.9921	3039.4168	3089.6221	3109.7835	3119.698	3152.7726	3256.4405
COC1=NOC=C1C	COc1nocc1C	
InChI=1S/C5H7NO2/c1-4-3-8-6-5(4)7-2/h3H,1-2H3	InChI=1S/C5H7NO2/c1-4-3-8-6-5(4)7-2/h3H,1-2H3
