18
gdb 81427	2.41065	2.0031	1.48908	3.8738	70.72	-0.2341	0.0603	0.2944	939.1719	0.14796	-439.013356	-439.005702	-439.004758	-439.04498	30.665	
C	-0.0629339002	 1.4788166184	 0.0334462841	-0.499095
C	 0.0643029926	-0.0121931705	-0.0011741179	 0.466132
O	-0.8105325274	-0.8013322096	 0.8170901697	-0.279079
C	 0.6024924277	-0.9034704506	 1.0259374078	 0.00205
C	 1.3115569265	-1.9605803958	 0.1482734009	-0.142424
N	 0.2750520986	-2.1925360785	-0.9176056635	-0.292201
C	 0.5659043471	-0.7580256822	-1.2725558842	-0.154483
C	 2.0507171898	-1.0214129423	-0.8819313212	 0.127875
O	 2.81412934	 0.0838770039	-0.4716284346	-0.430458
H	 0.8610323273	 1.9411775282	-0.3264300293	 0.140945
H	-0.8892399651	 1.8184707937	-0.6012049948	 0.122365
H	-0.2554569212	 1.8202434673	 1.0537260914	 0.128274
H	 0.9890813665	-0.5939675334	 1.9901395347	 0.098061
H	 1.770305297	-2.8297785715	 0.6194289648	 0.068338
H	 0.7104006919	-2.7724164765	-1.6365869258	 0.217391
H	 0.2602469488	-0.3921706614	-2.252598959	 0.069564
H	 2.5701994818	-1.6100549634	-1.6512554381	 0.068392
H	 3.7246796383	-0.1973518357	-0.3401465651	 0.288352
175.9874	191.4801	217.0257	223.6832	308.7773	344.9416	445.419	489.1598	556.1836	615.8235	674.2667	746.8925	812.8958	833.8685	855.521	868.0502	880.4639	925.6262	963.3781	987.8689	1024.1422	1050.6179	1073.0606	1094.114	1128.8099	1144.2526	1167.1048	1184.5534	1225.6281	1236.3377	1280.3222	1285.3284	1327.4557	1361.5891	1406.2973	1429.8794	1460.9507	1489.0112	1498.0538	3005.5832	3035.9631	3101.7309	3119.1099	3122.7321	3126.23	3182.277	3444.0964	3824.3398
CC12OC1C1NC2C1O	C[C@]12O[C@H]1[C@H]1N[C@@H]2[C@H]1O	
InChI=1S/C6H9NO2/c1-6-4-3(8)2(7-4)5(6)9-6/h2-5,7-8H,1H3	InChI=1S/C6H9NO2/c1-6-4-3(8)2(7-4)5(6)9-6/h2-5,7-8H,1H3/t2-,3-,4+,5-,6+/m0/s1
