16
gdb 107526	2.24836	1.57343	1.12603	3.7707	69.26	-0.2591	-0.0067	0.2524	1097.2363	0.122526	-437.829679	-437.821176	-437.820232	-437.863249	30.679	
C	 0.1080771029	 1.326925099	 0.2934023145	-0.262812
O	-0.005623639	 0.0200886539	-0.2688764675	-0.277813
C	-1.2340580551	-0.5483430709	-0.1082845453	 0.356976
C	-1.7936189884	-1.0642230011	 1.2016421629	-0.364217
C	-1.6338268285	-1.9904999849	 0.0266905705	 0.015663
O	-2.7419759836	-1.8477464044	-0.8768477711	-0.284545
C	-2.3682402355	-0.4745174162	-1.1545556203	-0.081665
C	-3.4546815133	 0.4822245793	-0.9462511805	 0.281503
N	-4.2908202662	 1.2597014042	-0.7663198806	-0.322645
H	 1.1414429346	 1.6420932733	 0.140660983	 0.138835
H	-0.5640631385	 2.0373503076	-0.2041120462	 0.131527
H	-0.1183460205	 1.3155348009	 1.3666063897	 0.125147
H	-1.0318191235	-1.1820281709	 1.9665641918	 0.132523
H	-2.784120465	-0.7935416788	 1.5557314372	 0.140874
H	-1.081120031	-2.9205607397	 0.0087058553	 0.130694
H	-1.9730349395	-0.3819924514	-2.1721150935	 0.139952
81.4647	106.9187	135.9403	166.8609	236.3255	327.858	359.3039	417.4414	447.4957	539.6575	561.1726	695.8527	727.6965	873.0752	898.4951	950.2249	987.2398	995.9893	1017.7561	1032.7049	1057.3536	1076.7862	1107.5972	1177.6431	1195.0836	1219.0296	1229.1401	1275.1782	1346.6753	1393.7024	1463.7007	1488.3133	1501.2795	1506.4107	2354.7195	3012.0403	3058.0453	3074.7337	3120.2748	3139.2957	3208.3914	3217.6517
COC12CC1OC2C#N	CO[C@]12C[C@H]1O[C@H]2C#N	
InChI=1S/C6H7NO2/c1-8-6-2-4(6)9-5(6)3-7/h4-5H,2H2,1H3	InChI=1S/C6H7NO2/c1-8-6-2-4(6)9-5(6)3-7/h4-5H,2H2,1H3/t4-,5+,6-/m1/s1
