17
gdb 80802	2.00183	1.68226	1.21942	1.7811	76.24	-0.2412	0.0111	0.2523	1092.5994	0.133206	-421.720772	-421.712089	-421.711145	-421.753677	33.36	
C	-0.0810675843	 1.5859428366	 0.0128478142	-0.436936
C	-0.0328433218	 0.0724265255	-0.0313818489	-0.010641
C	 1.2337375655	-0.6332194252	-0.5905949791	-0.015744
O	 1.993320294	-0.2136477839	 0.6102202723	-0.337942
C	 0.6840178229	-0.6868057075	 1.1352598039	 0.289193
C	 0.4246803226	-0.6545598566	 2.5397289285	 0.054595
C	 0.1669516945	-0.6506067451	 3.7147431894	-0.357459
C	 0.8709916968	-1.9220849693	 0.1716891189	 0.082906
O	-0.2211202883	-2.6559123144	-0.2861744754	-0.423174
H	 0.8873340852	 1.9962254978	 0.3062615123	 0.13855
H	-0.3522959232	 1.991666395	-0.9676068772	 0.11641
H	-0.8350705792	 1.9263460503	 0.7302284555	 0.122927
H	-0.9764765683	-0.3838815911	-0.3367618394	 0.096871
H	 1.7261730567	-0.5204553191	-1.5554980356	 0.099048
H	-0.0525146139	-0.6394588321	 4.7539744135	 0.188797
H	 1.7386882252	-2.5312112494	 0.4442852433	 0.095931
H	-0.4010952546	-3.3599727116	 0.3450454538	 0.296667
112.296	139.358	214.6191	219.6641	253.8043	287.5827	337.9191	351.7637	492.8684	516.8211	570.0093	609.9111	619.7403	685.2425	688.3391	758.8162	803.5098	826.9327	920.5574	952.9833	968.4205	1049.1878	1074.1004	1117.628	1143.4444	1172.3209	1205.3984	1223.1194	1233.3677	1277.6398	1294.2378	1386.6167	1407.2893	1430.9498	1492.0157	1503.8687	2232.5611	3038.9372	3068.3587	3097.5309	3099.625	3134.7058	3135.6956	3499.3432	3821.6013
CC1C2OC1(C#C)C2O	C[C@H]1[C@H]2O[C@]1(C#C)[C@H]2O	
InChI=1S/C7H8O2/c1-3-7-4(2)5(9-7)6(7)8/h1,4-6,8H,2H3	InChI=1S/C7H8O2/c1-3-7-4(2)5(9-7)6(7)8/h1,4-6,8H,2H3/t4-,5+,6-,7-/m0/s1
