16
gdb 45581	2.66546	1.78605	1.46753	2.8953	65.31	-0.2576	0.0149	0.2725	927.5256	0.126072	-475.007731	-475.00055	-474.999606	-475.03969	27.18	
N	 0.0525527974	 0.8124204357	 0.8489265592	-0.549474
C	-0.0204514551	-0.230707889	 0.1622702139	 0.40463
O	 0.9457365541	-0.9299404198	-0.5435781751	-0.264678
C	 0.026976415	-2.0296079274	-0.8283698121	 0.072627
C	 0.2823990157	-3.2286327696	 0.0697831777	-0.104967
O	 0.1000036139	-2.8256196157	 1.4185334918	-0.243651
C	-1.2266414259	-2.5091811878	 1.7480277946	 0.016478
O	-1.9354178232	-1.8434304705	 0.7098331998	-0.262602
C	-1.1387716756	-1.1969889427	-0.2361660788	 0.000467
H	 1.0079527693	 1.1720734811	 0.8885777839	 0.232421
H	 0.0196520004	-2.2722476775	-1.8932137075	 0.095289
H	-0.3963844169	-4.050376084	-0.2073263308	 0.109326
H	 1.3138599408	-3.579540075	-0.0144043226	 0.132529
H	-1.8153850021	-3.4141498564	 1.960041243	 0.106016
H	-1.1666882507	-1.8757009991	 2.6406440918	 0.1288
H	-1.817311487	-0.7642857723	-0.9730886087	 0.12679
92.918	112.854	253.1408	264.9941	358.4823	436.4294	504.2047	546.4237	648.6083	706.021	812.6169	829.5921	870.2886	895.3372	904.3321	977.9072	999.1476	1008.3323	1040.3083	1055.365	1108.7581	1152.5313	1200.2377	1217.6447	1221.3858	1254.1863	1296.6227	1329.3862	1345.5858	1372.6106	1397.2497	1456.3759	1479.0389	1528.6048	1829.0099	2991.6663	2994.6869	3061.3734	3093.6567	3105.3264	3110.4875	3475.5457
N=C1OC2COCOC12	[NH][C]1O[C@H]2COCO[C@@H]12	
InChI=1S/C5H7NO3/c6-5-4-3(9-5)1-7-2-8-4/h3-4,6H,1-2H2	InChI=1S/C5H7NO3/c6-5-4-3(9-5)1-7-2-8-4/h3-4,6H,1-2H2/t3-,4+/m0/s1
