23
gdb 101870	3.2669	0.66193	0.57855	1.0766	89.4	-0.2539	0.0552	0.3091	1972.526	0.201984	-388.261839	-388.250422	-388.249478	-388.299553	40.553	
C	-0.1584217994	 1.516823226	 0.054678693	-0.385327
C	-0.0632257189	-0.0075824595	-0.0353712256	-0.172736
C	 0.7414051551	-0.4988471298	-1.2405547911	 0.156158
C	 0.9064869213	-2.0208232903	-1.2401616379	-0.40421
O	 0.0544360688	-0.0469065966	-2.4060102982	-0.257203
C	 0.8229096856	-0.0023252081	-3.5854751058	-0.05633
C	-0.0415919214	 0.6587684792	-4.6664092296	-0.348849
C	 0.6500088003	 0.7562439153	-5.9443382891	 0.287822
C	 1.2454956701	 0.8242470468	-6.9860905581	-0.450942
H	 0.833277979	 1.9694977871	 0.1685180276	 0.108515
H	-0.6126146109	 1.9266226236	-0.850653795	 0.129214
H	-0.7641474653	 1.824308681	 0.9124212576	 0.109438
H	 0.3985583283	-0.4118813378	 0.8733362618	 0.093077
H	-1.0683624996	-0.4431438708	-0.0979982983	 0.102899
H	 1.7399329298	-0.0281458508	-1.2165961943	 0.062142
H	-0.0735167688	-2.5082963125	-1.2623283853	 0.122294
H	 1.4804071764	-2.3669941022	-2.1043804824	 0.116972
H	 1.4355102174	-2.3478476548	-0.3394053964	 0.114948
H	 1.7439879574	 0.5820494311	-3.4325415642	 0.098041
H	 1.1224196863	-1.0063266245	-3.9201824597	 0.101391
H	-0.9655609063	 0.0787742213	-4.7765275025	 0.139358
H	-0.3391997707	 1.6542407123	-4.316346884	 0.138007
H	 1.7593847255	 0.8908034738	-7.9126849726	 0.195322
41.4449	54.521	94.3884	112.0069	134.1879	187.1269	219.4126	247.6517	259.9632	328.3428	357.3629	423.3055	440.3388	494.442	551.6919	621.8993	647.5476	772.4446	797.1784	833.5609	904.1336	968.2681	984.8698	1001.5053	1035.9891	1061.3728	1090.4602	1120.2653	1133.9371	1164.76	1198.895	1228.1011	1296.4682	1302.1916	1310.2317	1331.1287	1372.6821	1394.9736	1406.2606	1406.5578	1432.4529	1474.7321	1477.2323	1491.4224	1496.1881	1499.45	1510.5326	1528.6116	2241.4734	2949.2948	2978.1276	3012.8318	3028.2953	3035.3839	3035.8003	3039.6599	3066.2037	3072.8399	3099.962	3110.5139	3113.9498	3126.1075	3507.7479
CCC(C)OCCC#C	CC[C@@H](C)OCCC#C	
InChI=1S/C8H14O/c1-4-6-7-9-8(3)5-2/h1,8H,5-7H2,2-3H3	InChI=1S/C8H14O/c1-4-6-7-9-8(3)5-2/h1,8H,5-7H2,2-3H3/t8-/m1/s1
