19
gdb 55925	4.27565	0.88716	0.82699	3.6834	77.37	-0.241	0.0277	0.2687	1435.9858	0.15921	-419.192686	-419.183591	-419.182646	-419.228973	32.627	
C	-0.0086900701	 1.5328603834	 0.0025628884	-0.486537
C	-0.0106091047	 0.014314605	 0.0881447676	 0.408369
O	 0.0866545429	-0.5747156203	 1.1485064352	-0.367939
N	-0.1480539273	-0.6351830109	-1.1117798822	-0.331084
C	-0.1778860865	-2.0715797796	-1.2228460301	 0.039488
C	-1.4171911665	-2.8099893608	-1.8140177809	-0.195127
N	-0.5600724025	-3.5656482743	-2.7963498728	-0.119092
C	 0.0215974912	-2.5331186876	-3.6647757805	-0.24594
C	 0.6301206516	-2.7348289299	-2.3322954552	-0.051973
H	 0.0971159212	 1.9166497161	-1.0156825341	 0.111113
H	-0.9447767846	 1.9116929489	 0.4240328424	 0.153648
H	 0.8065377024	 1.9160138518	 0.6197763574	 0.154975
H	-0.2067098986	-0.0883302102	-1.9550041366	 0.240109
H	 0.0743765228	-2.4559155722	-0.2351590741	 0.13481
H	-1.8990595475	-3.493641921	-1.1134538486	 0.1237
H	-2.178572616	-2.1828773147	-2.2905276769	 0.100497
H	 0.5567398576	-2.9402672026	-4.5171181056	 0.1277
H	-0.5631495468	-1.6415634613	-3.8893334468	 0.100731
H	 1.6179421113	-3.1682219599	-2.2122941565	 0.102554
18.0517	39.54	91.4793	118.6165	234.887	342.4371	363.5911	450.6672	458.9943	536.3721	588.466	632.7155	740.9642	755.0158	788.8704	886.8805	942.584	955.8149	986.311	996.7951	1014.997	1050.3798	1066.1923	1079.9136	1109.0862	1120.8149	1172.4094	1204.2577	1220.0571	1254.86	1266.4426	1296.8774	1367.7749	1375.4415	1396.9661	1469.212	1486.6514	1489.9803	1509.0885	1530.7567	1783.4465	3044.4091	3048.017	3089.8481	3118.5883	3119.1765	3135.1625	3138.5987	3162.1987	3190.9443	3643.6388
CC(=O)NC1CN2CC12	CC(=O)N[C@H]1CN2C[C@@H]12	
InChI=1S/C6H10N2O/c1-4(9)7-5-2-8-3-6(5)8/h5-6H,2-3H2,1H3,(H,7,9)	InChI=1S/C6H10N2O/c1-4(9)7-5-2-8-3-6(5)8/h5-6H,2-3H2,1H3,(H,7,9)/t5-,6-,8?/m0/s1
