19
gdb 70634	2.41076	1.58587	1.17523	4.5259	79.37	-0.2444	0.0291	0.2735	1101.9012	0.160955	-382.078253	-382.06996	-382.069015	-382.110898	32.071	
C	-0.3021902281	 1.4021255268	-0.0471510334	-0.493953
C	 0.0051656607	-0.0679129374	 0.0828841189	 0.363434
C	-0.7033514723	-0.9363836211	 1.0937213033	-0.32663
C	 0.7794336631	-0.6849005031	 1.228085325	-0.086318
C	 1.704794509	-1.7347464973	 0.6405983551	-0.180707
N	 1.0732310036	-2.0481228232	-0.6475867529	-0.31379
C	 0.4956820925	-0.8070864461	-1.1693520001	-0.186013
C	-0.5692433395	-1.0886261536	-2.1455697502	 0.296159
N	-1.4006537068	-1.2791470865	-2.9250297392	-0.331249
H	 0.5557322747	 1.9594272968	-0.4415219839	 0.117671
H	-1.1497439881	 1.5705598276	-0.7209357197	 0.139711
H	-0.5617929167	 1.8313498347	 0.9248263016	 0.122872
H	-1.3560734868	-0.4230015627	 1.7913729888	 0.11308
H	-1.0370088299	-1.9242853241	 0.79674632	 0.138379
H	 1.1464387398	-0.0714283694	 2.042683736	 0.090815
H	 2.7194032706	-1.3112650683	 0.5443966815	 0.089618
H	 1.777887906	-2.646056685	 1.2453440866	 0.112199
H	 1.693806676	-2.4994213314	-1.3071147675	 0.234486
H	 1.2281884522	-0.1518969368	-1.6759917202	 0.100237
104.1523	131.2711	210.284	237.6021	276.9713	310.5946	377.9714	415.7836	505.6763	524.886	564.5468	635.9765	708.9161	801.2698	838.8342	888.9911	909.6495	964.5686	977.3037	1003.5447	1023.7527	1058.3215	1071.0817	1094.3382	1108.1206	1118.726	1132.2831	1221.1223	1229.0732	1290.7622	1309.0905	1349.5493	1362.4233	1405.8945	1425.851	1441.5061	1485.5347	1489.2704	1503.5103	1520.6193	2358.9974	2926.5072	2952.2427	3026.1055	3050.0558	3086.4233	3107.8996	3137.0669	3180.2565	3226.1984	3569.5164
CC12CC1CNC2C#N	C[C@]12C[C@H]1CN[C@H]2C#N	
InChI=1S/C7H10N2/c1-7-2-5(7)4-9-6(7)3-8/h5-6,9H,2,4H2,1H3	InChI=1S/C7H10N2/c1-7-2-5(7)4-9-6(7)3-8/h5-6,9H,2,4H2,1H3/t5-,6-,7-/m0/s1
