14
gdb 11142	5.27816	1.35634	1.17349	3.0388	70.13	-0.2435	-0.0521	0.1914	981.0909	0.106723	-345.403191	-345.396017	-345.395073	-345.434983	26.734	
O	 0.0115246409	-0.0413537877	 0.2721172901	-0.32265
C	 0.0121599317	 1.1557944598	 0.1149914062	 0.379761
C	-1.2342377853	 2.0439004237	-0.0327482217	-0.344441
C	-0.7021718647	 3.5020301186	-0.0500441937	-0.21132
C	 0.8113316385	 3.3243255686	-0.0745886893	-0.042697
C	 1.1929031553	 2.0491160194	 0.0253094236	-0.183647
C	-1.1852101558	 4.3170119582	-1.1604296358	 0.318567
C	-1.5711905551	 4.9862696154	-2.0809699382	-0.465242
H	-1.7387875051	 1.7933428674	-0.9695561553	 0.150325
H	-1.9389619097	 1.8516751252	 0.7792717405	 0.137614
H	-0.9744255249	 4.0099491386	 0.8862583173	 0.12704
H	 1.4656371329	 4.1844895664	-0.1585314014	 0.130282
H	 2.207419963	 1.6730067522	 0.0532722595	 0.123129
H	-1.9188473315	 5.5771633843	-2.8920582018	 0.203278
58.7697	144.8538	202.5081	308.8652	428.1125	472.3296	528.1753	545.2828	628.6451	643.7014	666.1474	733.9095	804.0123	829.0133	844.8469	965.1166	1003.0874	1038.8317	1039.252	1118.7209	1165.3741	1184.4863	1236.6552	1276.4188	1314.5986	1358.4794	1453.3558	1653.7175	1821.2591	2238.092	3002.3538	3077.4092	3123.9426	3201.5671	3231.1379	3502.85
O=C1CC(C=C1)C#C	O=C1C[C@@H](C=C1)C#C	
InChI=1S/C7H6O/c1-2-6-3-4-7(8)5-6/h1,3-4,6H,5H2	InChI=1S/C7H6O/c1-2-6-3-4-7(8)5-6/h1,3-4,6H,5H2/t6-/m1/s1
