23
gdb 120627	3.24881	0.78322	0.70231	2.3806	83.83	-0.2517	0.0832	0.3348	1740.0752	0.202119	-425.404549	-425.393391	-425.392446	-425.441832	39.301	
C	 0.479135643	 1.3551871785	 0.3575170681	-0.380835
C	-0.3006871667	 0.1784006274	-0.2451312594	-0.250961
C	 0.4362220221	-0.4953348235	-1.3944070171	 0.401447
C	 0.5645119726	 0.3229045398	-2.6647435191	-0.462353
O	 1.6382207783	-1.1963543281	-1.021421749	-0.29742
C	 0.5284028266	-1.9630704415	-1.5016639949	-0.011453
C	-0.1161209525	-2.9458426073	-0.5569580014	-0.093093
O	 0.4521680049	-4.2146000225	-0.8022411646	-0.233552
C	-0.0747621363	-5.2186695993	 0.0304617778	-0.224513
H	 1.4660867492	 1.0233761162	 0.6929098539	 0.136159
H	 0.6216594561	 2.165815487	-0.3633762415	 0.117807
H	-0.0529317947	 1.7703234674	 1.2184994349	 0.11244
H	-0.5015996441	-0.5518002354	 0.5431483261	 0.101446
H	-1.277252533	 0.5220264447	-0.6096869947	 0.097982
H	 1.0897115396	 1.2638950095	-2.474451314	 0.128139
H	 1.1276678279	-0.2295922885	-3.4204472573	 0.128413
H	-0.4229702543	 0.5656990453	-3.0723179743	 0.117637
H	 0.6769527038	-2.3859267636	-2.4973497973	 0.090751
H	 0.0516944629	-2.6401971537	 0.4861183455	 0.099221
H	-1.2076741553	-2.9761396183	-0.728664629	 0.086612
H	 0.1182699164	-5.0117609166	 1.0950876489	 0.105564
H	-1.162920495	-5.3321472049	-0.1034582478	 0.101436
H	 0.4139756884	-6.1575527827	-0.2404373839	 0.129127
41.1983	65.3608	84.0754	117.6364	169.7677	210.9455	221.8658	233.1014	268.6671	303.0771	330.786	382.3946	459.662	527.4616	572.4515	689.337	778.5639	817.9958	899.2887	957.0622	975.8674	1002.7621	1004.8997	1054.9289	1090.4734	1114.2335	1133.6128	1147.5559	1164.9798	1185.2109	1227.5747	1247.9815	1270.7678	1306.7094	1327.7205	1373.1524	1398.9692	1407.0323	1412.9474	1471.6092	1475.5939	1479.8222	1485.0971	1489.942	1496.893	1504.5911	1507.3985	1511.2728	1523.0941	2940.0129	2967.6052	3008.382	3011.6882	3030.9416	3038.5526	3042.9679	3086.7951	3094.0424	3102.9174	3112.082	3115.553	3119.4862	3125.5471
CCC1(C)OC1COC	CC[C@@]1(C)O[C@H]1COC	
InChI=1S/C7H14O2/c1-4-7(2)6(9-7)5-8-3/h6H,4-5H2,1-3H3	InChI=1S/C7H14O2/c1-4-7(2)6(9-7)5-8-3/h6H,4-5H2,1-3H3/t6-,7+/m0/s1
