14
gdb 46818	2.72699	1.63518	1.16307	5.6471	66.87	-0.2695	-0.058	0.2115	1013.7018	0.100907	-436.702331	-436.694867	-436.693923	-436.734533	27.632	
O	-0.2145334509	 0.3362380053	-0.9440026822	-0.279324
C	-0.1232735162	 1.3008062003	-0.2390668883	 0.362927
C	-1.2126188578	 1.9280354529	 0.6371290963	-0.339345
C	-0.8270710123	 3.4164957491	 0.7876516431	-0.255895
C	 0.6705570006	 3.4521106676	 0.538260231	-0.007487
O	 1.386823506	 2.4759357257	 1.2829490438	-0.269087
C	 1.1114472597	 2.187790216	-0.1041447407	 0.175226
C	 2.2313807706	 2.0619244156	-0.9954408923	 0.228527
N	 3.1161566246	 1.9500469992	-1.7296548828	-0.321523
H	-2.1892764988	 1.7685657991	 0.1782802987	 0.14688
H	-1.2122893737	 1.4127788999	 1.6026878605	 0.158426
H	-1.3300595282	 4.0336235411	 0.0361481769	 0.131773
H	-1.0720534241	 3.8257951266	 1.7713112205	 0.13477
H	 1.2000339805	 4.3823770615	 0.3520289255	 0.134132
97.8372	138.1885	169.7435	248.7407	380.1783	395.5735	477.3662	534.6024	582.9838	611.0856	653.1472	687.2457	812.5834	856.157	893.7732	923.9853	994.7681	1013.6975	1060.0561	1088.4523	1171.4941	1224.3375	1244.7546	1274.7346	1301.1284	1333.0568	1419.9586	1452.4591	1485.9654	1861.2603	2367.2003	3059.8217	3070.7277	3105.214	3134.4517	3166.1818
O=C1CCC2OC12C#N	O=C1CC[C@H]2O[C@@]12C#N	
InChI=1S/C6H5NO2/c7-3-6-4(8)1-2-5(6)9-6/h5H,1-2H2	InChI=1S/C6H5NO2/c7-3-6-4(8)1-2-5(6)9-6/h5H,1-2H2/t5-,6+/m1/s1
