17
gdb 35234	3.72022	1.11436	0.96655	2.122	74.56	-0.2529	0.0131	0.266	1217.1417	0.134864	-421.770382	-421.762128	-421.761184	-421.803708	30.958	
C	-0.0987509129	-1.1996026219	-0.0436472243	-0.41887
C	-0.0255535094	 0.0002655728	-0.0223251104	 0.342426
C	 0.0501605686	 1.4356391479	-0.0298600539	-0.262701
O	 0.5500374325	 2.0891201455	 1.1550636173	-0.273726
C	 1.3432756557	 2.1518382452	-0.0238622419	 0.409909
C	 2.7151468317	 1.4844705252	-0.0200152169	-0.325575
C	 3.5334218485	 2.4239635134	-0.9191354625	-0.085054
O	 2.9417189605	 3.7096729719	-0.7540024089	-0.245112
C	 1.5401746554	 3.5069347981	-0.709192367	-0.152693
H	-0.1663424901	-2.2596540966	-0.051952562	 0.205201
H	-0.8077982059	 1.9384777497	-0.4778212118	 0.114638
H	 3.0993683124	 1.4865056397	 1.0039398224	 0.131598
H	 2.6835819355	 0.4520737805	-0.3744168491	 0.123227
H	 4.5853872956	 2.5018034948	-0.6369311248	 0.117529
H	 3.4775210704	 2.1061204064	-1.97319065	 0.093685
H	 1.1139737844	 3.4908752504	-1.7262486134	 0.09663
H	 1.0785799472	 4.3198994469	-0.1432076926	 0.128888
56.3329	120.5897	138.9255	247.8411	292.6072	364.6379	372.6516	449.0288	556.9493	578.42	623.1288	670.0696	675.0619	766.3045	810.8322	875.2176	923.8784	949.8344	973.8242	1006.2289	1021.2722	1069.4061	1105.9967	1131.8232	1197.3892	1219.659	1227.5318	1268.1382	1295.5737	1321.6473	1354.0815	1398.8184	1459.2223	1480.684	1499.2675	1519.2041	2238.9179	2964.2475	2974.0915	3068.0621	3099.2285	3101.9696	3106.8768	3122.2455	3500.9481
C#CC1OC11CCOC1	C#C[C@H]1O[C@]21CCOC2	
InChI=1S/C7H8O2/c1-2-6-7(9-6)3-4-8-5-7/h1,6H,3-5H2	InChI=1S/C7H8O2/c1-2-6-7(9-6)3-4-8-5-7/h1,6H,3-5H2/t6-,7-/m1/s1
