25
gdb 121413	3.78589	0.75892	0.66644	1.3788	89.23	-0.2605	0.0801	0.3406	1751.3977	0.230905	-389.515538	-389.505796	-389.504852	-389.550436	37.173	
O	-0.1388582575	 1.5224810863	-0.1166395088	-0.421561
C	 0.031828285	 0.1161747789	 0.0026156879	-0.085799
C	-1.3558951779	-0.5132412375	 0.0513081608	-0.179367
C	-1.3703192564	-2.0494241391	 0.0558125732	 0.036617
C	-0.7369976676	-2.6527915833	 1.3241779191	-0.18452
C	-0.7976625797	-4.1878426336	 1.3312764285	-0.197527
C	-2.2330491473	-4.6981685426	 1.1498647683	-0.176109
C	-2.8697716077	-4.1126672841	-0.117436579	-0.200557
C	-2.805755198	-2.5789563548	-0.1194968921	-0.189795
H	 0.7309553699	 1.9319872782	-0.1025901285	 0.283473
H	 0.5923530902	-0.289764369	-0.8565397741	 0.080809
H	 0.603052549	-0.1317239624	 0.910005873	 0.085838
H	-1.8824660927	-0.1323232014	 0.9361632188	 0.098745
H	-1.9122168704	-0.1458088695	-0.8199726793	 0.099635
H	-0.7822456249	-2.397759308	-0.8086775429	 0.062496
H	 0.30383815	-2.326372913	 1.4264162071	 0.088145
H	-1.2709647596	-2.263197343	 2.2036020486	 0.089634
H	-0.1711600384	-4.5766757584	 0.5160901751	 0.090081
H	-0.3688524239	-4.5762364945	 2.2622410735	 0.087446
H	-2.2467692944	-5.793448656	 1.1131459396	 0.086957
H	-2.8333196947	-4.4076659138	 2.0235329937	 0.090325
H	-2.3388769932	-4.4978724822	-0.9993996393	 0.089791
H	-3.9095586263	-4.4462205143	-0.2121122923	 0.088014
H	-3.4290019223	-2.1889727271	 0.698706445	 0.089615
H	-3.2346404114	-2.1828698058	-1.0478641859	 0.087612
75.0297	78.3119	122.4717	187.3198	223.8413	269.2834	302.2787	319.544	353.352	440.0196	441.2236	474.5665	577.4231	776.0793	791.8534	804.993	850.5752	885.0687	896.7806	924.402	971.422	1007.3572	1026.3375	1043.2696	1059.794	1075.9916	1092.8065	1105.8611	1109.6065	1176.3889	1198.2064	1226.8247	1249.5389	1280.2557	1288.4963	1293.9061	1314.4298	1317.0053	1342.7225	1363.6686	1369.8336	1379.5811	1380.9822	1383.9986	1401.2106	1463.152	1478.8971	1484.0503	1485.6627	1490.1212	1493.9708	1505.1719	1529.2814	2957.9655	2972.1178	2996.3652	3000.0822	3005.2016	3006.9044	3009.4704	3013.5283	3023.2569	3050.3883	3057.0288	3058.1681	3059.9979	3064.043	3066.9532	3829.7499
OCCC1CCCCC1	OCCC1CCCCC1	
InChI=1S/C8H16O/c9-7-6-8-4-2-1-3-5-8/h8-9H,1-7H2	InChI=1S/C8H16O/c9-7-6-8-4-2-1-3-5-8/h8-9H,1-7H2
