16
gdb 48500	4.0328	1.49567	1.38029	2.8823	74.02	-0.236	-0.0241	0.2119	939.971	0.125171	-400.661855	-400.655269	-400.654325	-400.692943	26.076	
O	-0.3802554347	 0.6685657031	 0.8533033839	-0.283443
C	 0.1665272037	 1.0418400757	-0.1630880088	 0.007185
C	 1.3381556741	 1.9081800704	-0.1933312603	 0.270203
C	 1.8344887576	 2.862640969	 0.9010557599	-0.152877
C	 2.5948212052	 1.608716964	 0.7124291098	-0.04389
N	 3.7048594899	 2.204512	-0.0642161668	-0.146281
C	 3.4079451019	 1.8733394286	-1.509817336	-0.184147
C	 2.0785861885	 2.6320536621	-1.3378454488	-0.167969
C	 2.7776367241	 3.4314497313	-0.1823389226	-0.008313
H	-0.2037513436	 0.7270486418	-1.1659505079	 0.065998
H	 1.3004522525	 3.2708572078	 1.7471687286	 0.120514
H	 2.6604585224	 0.7059834433	 1.3044557853	 0.121341
H	 4.1264252041	 2.39159063	-2.1510580943	 0.115389
H	 3.3873032471	 0.8061955568	-1.7481111218	 0.111518
H	 1.5042049631	 3.0750651538	-2.1505354419	 0.082175
H	 3.218165944	 4.4231118623	-0.2514364083	 0.092596
115.4511	157.1642	218.2593	386.6061	481.0883	557.0868	679.1195	699.682	756.7637	778.2916	836.9174	840.4073	876.5605	890.1194	920.7911	932.6298	959.4375	990.3409	1004.1214	1046.0306	1051.743	1072.8628	1127.9554	1138.6435	1155.7756	1196.2302	1203.8468	1211.1159	1239.6667	1278.3883	1295.5868	1382.535	1435.677	1496.8127	1780.154	2862.8264	3055.1316	3116.3941	3125.8306	3148.9131	3213.7174	3227.1064
O=CC12C3C1N1CC2C31	O=C[C@@]12[C@H]3[C@@H]1N1C[C@@H]2[C@@H]31	
InChI=1S/C7H7NO/c9-2-7-3-1-8-5(3)4(7)6(7)8/h2-6H,1H2	InChI=1S/C7H7NO/c9-2-7-3-1-8-5(3)4(7)6(7)8/h2-6H,1H2/t3-,4-,5+,6+,7-/m1/s1
