17
gdb 56096	4.24593	0.7026	0.61801	1.3026	76.98	-0.251	-0.0588	0.1921	1740.3773	0.130765	-421.830812	-421.820391	-421.819446	-421.868852	35.287	
C	-0.0091573859	 1.4987076502	-0.0477494575	-0.473613
C	 0.0631022305	-0.0070587376	 0.1247960411	 0.374087
O	 1.1026360839	-0.5749829802	 0.3728017286	-0.293999
C	-1.2539247941	-0.7590768629	-0.0203027365	-0.312983
C	-1.0773272383	-2.2718647266	-0.0738983791	-0.30288
C	-2.3586471557	-3.0330252843	 0.2076387482	 0.222703
O	-3.3909975652	-2.5015575438	 0.5582167348	-0.292401
C	-2.2682799694	-4.475123914	 0.0413112998	 0.247831
C	-2.1742221492	-5.6663373874	-0.1033133047	-0.385251
H	 0.9481283972	 1.9501812728	 0.2147783011	 0.144197
H	-0.2495973483	 1.739878317	-1.0899545871	 0.143201
H	-0.8085005558	 1.9247921373	 0.5678854282	 0.139587
H	-1.8933605799	-0.4895503219	 0.8305201361	 0.150631
H	-1.7926841219	-0.3848905988	-0.8989249246	 0.125651
H	-0.6796593297	-2.6024882829	-1.0407956757	 0.136826
H	-0.3212867968	-2.5877263518	 0.6563774188	 0.160972
H	-2.1076610317	-6.7202917651	-0.2255509916	 0.215441
16.1071	47.0268	76.8191	106.1741	120.442	187.0702	241.6534	257.395	353.5094	470.3985	499.3676	561.2511	580.511	619.2876	646.0845	706.1384	756.8818	791.5428	876.6442	925.5198	958.6595	1059.9481	1067.9611	1117.998	1169.7943	1182.699	1273.3665	1329.0692	1380.8764	1387.832	1448.3194	1453.2899	1465.0831	1476.7115	1765.2648	1809.7814	2212.3158	3033.2296	3039.0979	3044.0193	3060.8859	3077.7441	3097.7343	3153.1718	3494.6008
CC(=O)CCC(=O)C#C	CC(=O)CCC(=O)C#C	
InChI=1S/C7H8O2/c1-3-7(9)5-4-6(2)8/h1H,4-5H2,2H3	InChI=1S/C7H8O2/c1-3-7(9)5-4-6(2)8/h1H,4-5H2,2H3
