22
gdb 12003	3.00198	1.94352	1.68649	0.1574	80.5	-0.2611	0.0825	0.3436	926.8605	0.201559	-313.083388	-313.075451	-313.074507	-313.114742	32.457	
C	-0.0018555592	 1.5476986361	-0.005471841	-0.426944
C	 0.0047597389	 0.0132445126	 0.0045951503	 0.307691
C	-1.4427421653	-0.5127757167	-0.000728584	-0.420362
C	 0.7950722282	-0.5711149053	-1.2032831509	-0.255623
C	 1.3539816847	-1.9340596148	-0.7340466764	-0.222742
C	 1.544409794	-1.7741880716	 0.7679629104	-0.025382
C	 2.2456116673	-0.5252218029	 1.2445429419	-0.313765
C	 0.7370281797	-0.5756502367	 1.2146058899	-0.0241
H	 1.0154759802	 1.9481252438	 0.051746095	 0.10908
H	-0.4649842568	 1.9347614073	-0.9204406296	 0.10633
H	-0.5664105116	 1.9476409153	 0.8444465046	 0.106213
H	-1.9930866434	-0.1364989741	-0.8702514658	 0.106158
H	-1.4710697479	-1.6067824707	-0.0306416268	 0.112279
H	-1.9808132593	-0.1918007426	 0.8983743611	 0.107406
H	 0.1679535939	-0.6604738787	-2.0955156067	 0.090883
H	 1.6164216446	 0.1026914616	-1.468526177	 0.09503
H	 0.6304882665	-2.7353712793	-0.9253998102	 0.097775
H	 2.2751563629	-2.205842332	-1.2616099831	 0.093146
H	 1.6135753675	-2.6663560945	 1.3809744199	 0.07536
H	 2.7190691649	-0.564554321	 2.2196325163	 0.105519
H	 2.7772205039	 0.0929818108	 0.5275937917	 0.10551
H	 0.2115465362	-0.5775049464	 2.1648608804	 0.070538
157.6639	219.0124	229.2982	267.3621	316.3023	329.9136	376.7791	381.2398	470.8993	570.7639	637.4929	719.1593	801.6222	820.7533	835.9512	893.3464	917.1923	945.8385	947.8836	971.3142	997.9315	1008.4778	1034.3126	1055.1337	1068.7721	1083.7773	1114.0049	1161.4742	1194.869	1209.5697	1232.1701	1247.4656	1263.5447	1320.8111	1330.3132	1363.145	1388.4904	1400.7396	1423.0298	1482.1273	1484.776	1486.3705	1497.2393	1504.9361	1507.4332	1512.1447	3021.4275	3026.0654	3030.3949	3043.4566	3064.0931	3083.5144	3086.1697	3091.9133	3097.6417	3100.1916	3125.9472	3148.704	3164.3874	3207.2087
CC1(C)CCC2CC12	CC1(C)CC[C@H]2C[C@@H]12	
InChI=1S/C8H14/c1-8(2)4-3-6-5-7(6)8/h6-7H,3-5H2,1-2H3	InChI=1S/C8H14/c1-8(2)4-3-6-5-7(6)8/h6-7H,3-5H2,1-2H3/t6-,7+/m0/s1
