15
gdb 124089	4.88814	1.09761	1.03127	4.5751	65.73	-0.2836	-0.0223	0.2612	1130.6335	0.114384	-450.073268	-450.066018	-450.065074	-450.10673	25.411	
C	-0.0283774627	 1.3899210864	-0.3216366568	-0.092626
O	 1.1592306684	 1.6883173239	 0.4386067537	-0.267685
C	 1.433792474	 0.2886391504	 0.6458531238	-0.092613
C	 0.0705608701	-0.111739261	 0.0349317995	 0.000118
N	-0.9170278911	-0.599411303	 0.972371592	 0.01999
C	-1.3336626735	-0.1113402486	 2.1571873178	 0.058672
N	-2.2580313791	-0.9063105299	 2.6489644948	-0.222454
N	-2.4039293873	-1.9037073097	 1.735487963	-0.089434
N	-1.6125937346	-1.7356421122	 0.7311026303	-0.12534
H	-0.9135627318	 1.9138565185	 0.0538396696	 0.12631
H	 0.0976967195	 1.6028232882	-1.3898445022	 0.12321
H	 2.2990725692	-0.0552101838	 0.0667617568	 0.12321
H	 1.5773298221	 0.0377532497	 1.7020241732	 0.126313
H	 0.0836227304	-0.8198275081	-0.7908097288	 0.134887
H	-0.9532710537	 0.7906777993	 2.6084242632	 0.177442
45.4994	51.5418	142.9398	233.1913	380.0279	412.2382	649.3018	686.5827	735.622	839.483	853.7523	877.7658	940.7613	985.0198	1020.52	1036.7659	1043.1419	1053.4363	1093.7417	1124.2829	1157.6224	1166.1077	1174.3048	1218.7187	1235.8469	1307.1746	1316.5373	1368.1814	1392.9698	1466.1878	1504.207	1507.7528	1530.6513	3024.1338	3034.4026	3083.3674	3083.4256	3149.4529	3282.0842
C1OCC1N1C=NN=N1	C1OCC1n1cnnn1	
InChI=1S/C4H6N4O/c1-4(2-9-1)8-3-5-6-7-8/h3-4H,1-2H2	InChI=1S/C4H6N4O/c1-4(2-9-1)8-3-5-6-7-8/h3-4H,1-2H2
