17
gdb 76670	2.9347	1.09334	1.00377	2.3117	65.46	-0.231	0.044	0.275	1231.8799	0.13533	-492.283872	-492.27448	-492.273535	-492.318591	34.63	
N	-0.3338828221	 1.3048072282	 0.1519217971	-0.567744
C	-0.1591296031	-0.0698035382	 0.2826783836	 0.459732
O	 0.6865985281	-0.5656595945	 1.0009140775	-0.391419
N	-1.0394885484	-0.8133266099	-0.4750503807	-0.341281
C	-1.1165547963	-2.2229651504	-0.3123215414	-0.021719
C	-1.9114934686	-2.8324906811	 0.8250636522	 0.030652
O	-2.5432678858	-1.9244010788	 1.6896515089	-0.417728
C	-2.4716804537	-2.8526741671	-0.5826928061	 0.021809
O	-3.5373029353	-1.9823629882	-0.8251350396	-0.431452
H	 0.4554415762	 1.8235546352	 0.5063331131	 0.257781
H	-0.6809104561	 1.6470145361	-0.7318624634	 0.246067
H	-1.8789453528	-0.3818024258	-0.8346411635	 0.243047
H	-0.229368072	-2.7715322097	-0.6122677687	 0.113968
H	-1.5323514518	-3.7395904741	 1.2874414102	 0.102678
H	-3.0963250953	-2.4280418352	 2.2958259857	 0.301171
H	-2.5351426944	-3.7718548481	-1.1565176784	 0.105758
H	-3.7868577287	-1.6316936384	 0.0442700435	 0.28868
47.8429	84.1542	119.4443	225.3106	234.4996	262.59	297.7475	384.6265	422.5452	478.7298	542.4254	555.5748	585.3086	644.0685	655.2838	708.5307	775.5531	783.304	791.3216	951.7456	1010.8793	1048.0127	1059.1578	1092.8214	1114.6979	1149.8822	1187.5681	1238.8361	1270.0718	1310.1209	1327.7449	1380.0831	1409.4176	1467.6567	1528.3378	1626.4328	1808.5376	3141.5502	3152.873	3163.2851	3571.6231	3594.3772	3685.8775	3693.6749	3818.9838
NC(=O)NC1C(O)C1O	NC(=O)N[C@H]1[C@@H](O)[C@H]1O	
InChI=1S/C4H8N2O3/c5-4(9)6-1-2(7)3(1)8/h1-3,7-8H,(H3,5,6,9)	InChI=1S/C4H8N2O3/c5-4(9)6-1-2(7)3(1)8/h1-3,7-8H,(H3,5,6,9)/t1-,2+,3-
