21
gdb 116011	2.00707	1.60913	0.99624	1.6394	80.88	-0.1993	0.0667	0.2661	1267.5444	0.183289	-420.42435	-420.414616	-420.413672	-420.459505	34.582	
C	-0.1654102565	 1.4909883197	-0.0611784144	-0.385957
C	-0.0447435996	-0.0392921615	-0.0423291649	-0.153005
N	-1.30806853	-0.7560487546	 0.0194568535	-0.131461
C	-2.1576964982	-0.7390399263	 1.2111617626	-0.189571
C	-3.4909438649	-1.2991799321	 0.6381605164	-0.165493
N	-3.4031008092	-1.1395247205	-0.8218129362	-0.389434
C	-2.1787058447	-0.8481734925	-1.051765747	 0.50141
O	-1.6347074906	-0.6438347008	-2.2564782708	-0.268729
C	-2.5274728686	-0.8118559656	-3.3605211141	-0.232108
H	 0.8289589703	 1.9476420909	-0.0970271169	 0.115736
H	-0.7238353639	 1.8212273115	-0.9418339207	 0.13044
H	-0.673253139	 1.8701041918	 0.8309404331	 0.120183
H	 0.4798604003	-0.3771279656	-0.9399303632	 0.126513
H	 0.5571371146	-0.3581414121	 0.8163594952	 0.104148
H	-1.7341104112	-1.3545183569	 2.011208592	 0.105914
H	-2.2818184013	 0.2830481003	 1.6000489313	 0.097123
H	-3.6083450798	-2.3624073765	 0.8875148729	 0.103093
H	-4.3645918628	-0.7763060888	 1.038369853	 0.104741
H	-3.3662589566	-0.1148875179	-3.2861171908	 0.140467
H	-1.9354994328	-0.6082886229	-4.2536800962	 0.125689
H	-2.9224646256	-1.8308243197	-3.3836270649	 0.140302
60.0209	94.5203	123.9835	149.4346	176.2287	196.6267	245.3782	278.0014	326.2392	413.4752	524.082	600.5296	712.1567	732.3614	784.0974	788.7933	866.6844	936.605	958.3082	1015.5121	1052.6278	1084.9938	1090.0754	1117.585	1184.5512	1191.9355	1210.9221	1221.8224	1249.5399	1269.3579	1309.5162	1340.7191	1353.3125	1390.0258	1404.8231	1442.7754	1474.5	1476.5692	1492.4108	1496.1378	1502.5613	1503.8922	1510.8911	1539.1729	1705.5953	2983.0599	3010.0117	3039.2278	3041.1955	3048.6954	3061.7454	3074.2382	3091.6167	3109.7197	3120.8246	3123.4029	3151.4752
CCN1CCN=C1OC	CCN1CC[N][C]1OC	
InChI=1S/C6H12N2O/c1-3-8-5-4-7-6(8)9-2/h3-5H2,1-2H3	InChI=1S/C6H12N2O/c1-3-8-5-4-7-6(8)9-2/h3-5H2,1-2H3
