17
gdb 77799	2.34197	1.41819	1.06207	3.4784	75.72	-0.2546	-0.0481	0.2065	1154.0318	0.134067	-421.83299	-421.824483	-421.823539	-421.86633	31.466	
C	-0.0190944231	 1.5689463059	 0.027778519	-0.422164
C	 0.083788016	 0.058873745	 0.0997801625	-0.073817
C	 1.3196194531	-0.7413614011	-0.2286416367	-0.238239
C	 2.5597969598	-0.1026744937	 0.3469794676	 0.427458
O	 3.6501371484	 0.0949224888	-0.1052718223	-0.306346
C	 1.9696527673	-0.0045330806	 1.7725030495	-0.434065
C	 0.7112085551	-0.6972944906	 1.2375537168	 0.243997
C	 0.0576993574	-1.8449533427	 1.8834583501	 0.064835
O	 0.3469549309	-2.2669788602	 2.9772068155	-0.259538
H	 0.8871551801	 2.0689556365	 0.3756603599	 0.13784
H	-0.1918883631	 1.8818481828	-1.0065495263	 0.136206
H	-0.8582277657	 1.9261563639	 0.6330990274	 0.132224
H	-0.8050741266	-0.4459177806	-0.2795281011	 0.108708
H	 1.2976643187	-1.5505084015	-0.9494602825	 0.123523
H	 2.5268135148	-0.6459354121	 2.460832903	 0.158795
H	 1.8567118797	 0.985687006	 2.2195440577	 0.128813
H	-0.7418877528	-2.3204426559	 1.26944975	 0.071768
82.1666	120.8896	174.3172	192.9143	236.9913	288.8393	366.6623	445.531	459.0716	522.6678	597.1226	618.4651	692.93	744.7195	843.0463	898.8088	936.7222	956.2945	1002.6423	1034.1597	1044.7719	1081.4949	1102.463	1120.0882	1134.5056	1209.7638	1228.8178	1291.1953	1330.5287	1415.6318	1425.5884	1446.981	1466.3444	1493.5377	1503.6417	1803.9544	1885.9167	2863.2384	3045.8564	3071.7353	3107.8591	3108.5729	3124.8477	3135.7053	3190.5114
CC1C2C(=O)CC12C=O	C[C@H]1[C@H]2C(=O)C[C@@]12C=O	
InChI=1S/C7H8O2/c1-4-6-5(9)2-7(4,6)3-8/h3-4,6H,2H2,1H3	InChI=1S/C7H8O2/c1-4-6-5(9)2-7(4,6)3-8/h3-4,6H,2H2,1H3/t4-,6-,7+/m0/s1
