17
gdb 41313	3.14598	2.14774	1.77629	2.1615	69.77	-0.2356	0.0454	0.281	817.6634	0.13821	-421.707647	-421.701748	-421.700803	-421.737433	25.765	
C	 0.0810502228	 1.4992445214	-0.2826709592	-0.163535
O	 1.4563924212	 1.5504779895	 0.2363647394	-0.322666
C	 1.2616852239	 0.2572623525	 0.8230518733	 0.332045
C	 0.5067368975	 0.0822945238	 2.1642194817	-0.306199
C	-0.3790759386	-0.8754131712	 1.3128579804	-0.144348
C	 0.6581913538	-2.0004808344	 1.0068913134	-0.200136
C	 1.5902228187	-1.110013395	 0.1369607558	-0.003206
O	 0.6868913495	-0.794655074	-0.9619637414	-0.321316
C	-0.00429403	-0.0023048939	 0.0352943081	 0.275337
H	-0.5882985366	 2.1508720184	 0.2890455867	 0.114918
H	 0.0389941906	 1.7439290367	-1.3464829628	 0.132286
H	 1.0166725921	-0.3364474633	 3.0344268384	 0.104102
H	 0.0104828104	 1.0152399631	 2.4379444059	 0.115437
H	-1.3852289866	-1.1738408884	 1.6006226381	 0.079088
H	 1.1118588073	-2.3977321856	 1.9184276097	 0.102416
H	 0.2654607116	-2.8153728821	 0.3967035999	 0.116707
H	 2.5682540522	-1.4826819374	-0.1676021174	 0.08907
299.7193	324.7947	351.218	467.7431	513.5113	524.2401	570.2663	687.6807	753.7287	790.8281	848.3288	869.9963	887.5495	892.6974	897.6726	923.2957	936.3758	972.8049	995.0926	1036.2503	1078.9654	1100.2166	1105.2536	1139.5696	1165.9175	1189.8276	1195.3894	1203.0869	1222.2453	1243.5002	1277.6571	1290.8574	1297.3283	1328.6949	1475.8303	1490.7437	1508.0488	3041.473	3068.6835	3071.72	3113.0565	3120.5015	3129.4198	3130.7851	3134.7126
C1OC23CC4CC2OC134	C1O[C@]23C[C@@H]4C[C@H]2O[C@]134	
InChI=1S/C7H8O2/c1-4-2-6-5(1)9-7(4,6)3-8-6/h4-5H,1-3H2	InChI=1S/C7H8O2/c1-4-2-6-5(1)9-7(4,6)3-8-6/h4-5H,1-3H2/t4-,5+,6+,7-/m0/s1
