15
gdb 13927	3.70878	1.79484	1.48229	4.0841	61.61	-0.2498	0.0209	0.2706	856.6418	0.119519	-399.790369	-399.783098	-399.782154	-399.822482	25.872	
O	-0.1412567979	 0.0177526049	 0.0155435716	-0.359232
C	-0.0879021891	 1.2179155937	 0.0247069656	 0.384127
N	-1.0387630097	 2.2088731118	 0.0514723309	-0.337612
C	-0.0906770601	 3.3293150328	 0.0424986192	-0.233014
C	 1.0436525881	 2.2707378426	 0.0117189477	 0.122093
C	 2.2030230062	 2.2206752968	 1.0230377106	-0.126098
O	 3.1859001625	 2.2305217312	-0.0302543492	-0.271659
C	 2.1628441396	 2.2379399928	-1.0446090471	-0.126076
H	-2.0469093974	 2.1737282629	 0.0703474817	 0.255014
H	-0.1541237949	 3.9659179454	-0.8463796888	 0.117673
H	-0.1195296299	 3.9509502463	 0.9436816447	 0.117673
H	 2.2916387517	 3.0926117718	 1.6835158808	 0.104868
H	 2.2476054515	 1.302052917	 1.6204609384	 0.123682
H	 2.1838831537	 1.3294111679	-1.6585292233	 0.12369
H	 2.2260424858	 3.1207990821	-1.6933881829	 0.10487
84.6157	90.6739	178.7868	252.657	265.4613	454.8762	459.427	596.025	727.4181	759.2212	851.5805	861.3749	910.0884	983.1406	983.25	997.3949	1046.0762	1140.6421	1143.3594	1164.1486	1167.0529	1173.3771	1190.374	1261.087	1302.1052	1311.2778	1383.9885	1393.3657	1501.9937	1524.3354	1528.0537	1895.7553	3007.4158	3018.2204	3033.9838	3060.5528	3061.5716	3081.6593	3616.2301
O=C1NCC11COC1	O=C1NCC21COC2	
InChI=1S/C5H7NO2/c7-4-5(1-6-4)2-8-3-5/h1-3H2,(H,6,7)	InChI=1S/C5H7NO2/c7-4-5(1-6-4)2-8-3-5/h1-3H2,(H,6,7)
