15
gdb 15852	2.4693	2.10624	1.21503	2.6162	69.42	-0.2389	-0.0303	0.2086	971.2755	0.116023	-362.610773	-362.602688	-362.601744	-362.643323	29.331	
C	-0.0400389692	 1.4961117587	 0.0920993992	-0.33047
N	-0.0146527104	 0.0488861365	 0.0797375875	-0.06974
C	-1.2648497697	-0.679842639	 0.3784174071	-0.291292
C	-0.4388656356	-1.6419913898	 1.2374040908	 0.389646
O	-0.6066804347	-2.7056067391	 1.7407206094	-0.270054
C	 0.7484665945	-0.6327002845	 1.1588086818	-0.289909
C	 2.0820842318	-1.0961586255	 0.8429848781	 0.342652
C	 3.1848191579	-1.5006995222	 0.589035638	-0.416747
H	 0.9717688858	 1.8809835433	-0.0654293841	 0.137531
H	-0.6695864206	 1.8616310274	-0.7248610617	 0.130415
H	-0.4274405614	 1.9152567522	 1.0404521024	 0.095837
H	-1.988893701	-0.1223149901	 0.9981437807	 0.11722
H	-1.7864222397	-1.0969522528	-0.4889469555	 0.14044
H	 0.7596772694	-0.0521056441	 2.10116467	 0.111773
H	 4.1577108829	-1.8595178309	 0.3594605962	 0.202698
89.3312	115.8307	166.9125	232.7994	278.9322	327.1313	372.6948	438.1156	528.4955	591.4219	614.2678	629.8122	667.5977	762.4565	850.0862	970.2248	978.145	1048.9255	1078.3684	1114.0419	1143.9038	1182.723	1201.8896	1261.7793	1290.7667	1338.1521	1450.873	1474.0454	1495.2031	1495.6535	1932.3823	2238.2486	2920.5025	2927.0323	2961.6784	3069.4637	3073.4499	3112.5239	3502.4477
CN1CC(=O)C1C#C	CN1CC(=O)[C@H]1C#C	
InChI=1S/C6H7NO/c1-3-5-6(8)4-7(5)2/h1,5H,4H2,2H3	InChI=1S/C6H7NO/c1-3-5-6(8)4-7(5)2/h1,5H,4H2,2H3/t5-/m1/s1
