20
gdb 104586	2.6736	1.08419	0.95633	5.8369	74.91	-0.2504	0.0232	0.2736	1323.9938	0.170577	-440.306305	-440.296905	-440.29596	-440.341436	34.601	
C	 0.8578343241	-0.4822962558	-1.2805736652	-0.417011
C	-0.2054447909	 0.3419922706	-0.5506720289	-0.250085
C	-1.5178331137	-0.356330166	-0.2121885844	 0.311959
C	-2.4888687161	 0.5144010734	 0.5831614225	-0.393096
C	-2.1548128348	 0.6084290143	 2.0778489977	 0.40468
O	-1.9485633559	-0.5768186814	 2.6760238126	-0.372058
O	-2.1125714348	 1.6445231687	 2.685274935	-0.329551
C	-2.0767934702	-1.4367598982	-1.0652044298	-0.287995
N	-1.5174385062	-1.7634821395	 0.2618988189	-0.362208
H	-0.5965596462	-2.1808079339	 0.1631299209	 0.242527
H	-1.9539527954	-1.2798897044	 1.987075166	 0.313681
H	 1.7505414603	 0.1275056885	-1.4439165595	 0.133797
H	 1.177098876	-1.3585067914	-0.7050340089	 0.120547
H	 0.5143646408	-0.8252066307	-2.2613218733	 0.126493
H	 0.2183452708	 0.7304721672	 0.384640623	 0.129422
H	-0.450291239	 1.2256380017	-1.1529866824	 0.118652
H	-2.517563983	 1.5303716285	 0.1854324492	 0.131077
H	-3.4999913827	 0.0979662365	 0.5073247156	 0.127401
H	-3.1532383468	-1.5521803281	-1.1528476501	 0.12756
H	-1.5172532765	-1.7672181601	-1.934292599	 0.124208
46.814	72.5996	83.0476	209.211	247.6332	258.6929	339.2815	347.7117	403.8804	424.9499	510.5428	586.2004	663.2787	745.7398	775.2423	817.7843	864.0222	892.4045	912.507	931.8234	973.9256	992.74	1021.0994	1036.1367	1083.1137	1128.8416	1133.465	1183.3722	1256.0065	1261.9234	1287.3421	1317.5238	1322.8479	1380.3992	1396.7258	1422.0817	1451.0928	1466.4193	1485.1127	1499.0946	1502.3155	1519.1768	1863.489	3024.1751	3034.7117	3047.6452	3054.9459	3098.5275	3114.4549	3121.9768	3123.3706	3207.9511	3408.956	3520.4247
CCC1(CC([O-])=O)C[NH2+]1	CC[C@@]1(CC(=O)O)CN1	
InChI=1S/C6H11NO2/c1-2-6(4-7-6)3-5(8)9/h7H,2-4H2,1H3,(H,8,9)	InChI=1S/C6H11NO2/c1-2-6(4-7-6)3-5(8)9/h7H,2-4H2,1H3,(H,8,9)/t6-/m1/s1
