16
gdb 67060	2.98319	1.73529	1.42293	3.3041	70.07	-0.2427	-0.0274	0.2153	932.1353	0.122848	-437.743153	-437.735667	-437.734723	-437.774789	29.319	
C	-0.1230343948	 1.5000210331	-0.1661133156	-0.481695
C	-0.0529998203	-0.0000700564	 0.0102462263	 0.158437
N	-1.2024958448	-0.6328882274	 0.9725111726	-0.191833
C	-0.3479338025	-1.9022675111	 0.9074652789	-0.204647
C	 0.6906838122	-0.7852279397	 1.0186397553	 0.311045
C	-0.2378414198	-0.1921861883	 2.1264534953	-0.249939
O	 1.9017021995	-0.9160311731	 0.172232057	-0.317657
C	 1.0726931952	-0.6162557177	-0.9367374628	 0.335232
O	 1.3599302841	-0.6969909234	-2.0807721103	-0.294904
H	 0.8762032715	 1.9501643559	-0.1629345054	 0.143913
H	-0.5773184204	 1.722253152	-1.1368352336	 0.1513
H	-0.7304759182	 1.9808990895	 0.603125168	 0.136399
H	-0.4921545984	-2.5706829585	 1.7573825031	 0.113129
H	-0.4286860857	-2.4252876672	-0.0481992384	 0.129083
H	-0.2103184733	 0.8778453968	 2.3174472961	 0.132338
H	-0.3984019645	-0.7750459643	 3.0347602735	 0.129799
140.8871	147.9222	237.3689	275.2106	318.3484	402.3362	463.0961	539.7087	573.9961	607.9163	667.764	714.8612	734.8627	796.8159	820.8863	863.3462	927.2477	984.3514	999.9269	1048.8199	1060.3435	1089.7938	1119.3794	1148.4216	1162.6915	1176.5035	1193.1922	1243.3689	1340.2028	1407.966	1479.1978	1486.5131	1512.1275	1544.6967	1933.2623	3037.4649	3070.3647	3094.8372	3100.6021	3128.3043	3144.7508	3184.5829
CC12N3CC1(C3)OC2=O	C[C@]12N3C[C@@]1(C3)OC2=O	
InChI=1S/C6H7NO2/c1-5-4(8)9-6(5)2-7(5)3-6/h2-3H2,1H3	InChI=1S/C6H7NO2/c1-5-4(8)9-6(5)2-7(5)3-6/h2-3H2,1H3/t5-/m1/s1
