19
gdb 94068	4.6305	0.99527	0.85891	2.0262	78.26	-0.2618	0.0367	0.2985	1354.5201	0.158443	-422.990798	-422.98205	-422.981106	-423.023969	33.379	
C	-0.0152841652	 1.5452637429	 0.0106089461	-0.41153
C	 0.0019721073	 0.0166008526	 0.0023476471	 0.006467
C	 0.7022135635	-0.5453358589	-1.2405174799	-0.07906
O	 0.7940363078	-1.9641777776	-1.1804353861	-0.249136
C	 1.470642941	-2.3789552102	-0.0168584524	 0.024513
O	 0.8041254577	-1.9767170332	 1.1568991279	-0.249134
C	 0.7129430792	-0.558601014	 1.2329938563	-0.079061
C	 1.5739758914	-3.8359907146	-0.0251262375	 0.290708
C	 1.701677377	-5.0284934416	-0.0320825275	-0.389773
H	 1.0012885297	 1.9554137833	 0.0088509321	 0.118527
H	-0.5344852559	 1.9395065466	-0.8689367124	 0.121813
H	-0.5276197657	 1.9300401451	 0.8983300361	 0.121819
H	-1.025638724	-0.3663316039	 0.0047593737	 0.093425
H	 0.1517481754	-0.3126832622	-2.1560552273	 0.114372
H	 1.7124728373	-0.1072991424	-1.3296062381	 0.0871
H	 2.4852484813	-1.9299089872	-0.0188263844	 0.078822
H	 1.7239773436	-0.121535191	 1.317963471	 0.0871
H	 0.1704976232	-0.3357819394	 2.1557355869	 0.114371
H	 1.8014922854	-6.0859461644	-0.0381914617	 0.198657
86.7264	142.2067	202.5094	208.6467	259.4765	287.631	341.0676	407.1427	429.3083	452.419	549.6006	604.076	646.1708	653.6723	674.2624	855.2182	899.6653	941.1704	941.9367	979.935	1011.1805	1041.9011	1054.2463	1107.0315	1151.2311	1179.6907	1186.6219	1256.2388	1304.9133	1318.5862	1358.2118	1371.0445	1401.193	1405.2649	1413.9234	1427.3016	1489.6012	1496.7179	1500.1467	1501.9685	2260.0084	2889.023	2947.2873	2955.2966	3029.1601	3041.4405	3089.9374	3090.7126	3098.4074	3102.8607	3504.584
CC1COC(OC1)C#C	C[C@H]1CO[C@@H](OC1)C#C	
InChI=1S/C7H10O2/c1-3-7-8-4-6(2)5-9-7/h1,6-7H,4-5H2,2H3	InChI=1S/C7H10O2/c1-3-7-8-4-6(2)5-9-7/h1,6-7H,4-5H2,2H3/t6-,7-
