16
gdb 56704	2.73001	1.34455	1.02329	1.5233	73.16	-0.2884	-0.0086	0.2798	1143.01	0.123925	-396.92735	-396.918392	-396.917448	-396.961278	32.154	
C	-0.1268382908	 1.6204439356	 0.4256878313	-0.402312
C	-0.0711543298	 0.121998256	 0.0578423815	-0.220646
C	 0.808365423	-0.5980249669	 0.9823850482	 0.261727
N	 1.4809753678	-1.1620345259	 1.7344310472	-0.318545
C	-1.4721320155	-0.5241531118	 0.0383582915	 0.144231
C	-1.6690038631	-1.9783214778	 0.3214826907	-0.267839
N	-2.1245334232	-0.969641208	 1.2819746916	-0.321104
C	-2.3586736096	 0.1161756694	-0.9142041642	 0.286194
N	-3.0276114251	 0.6305088845	-1.7040193308	-0.335234
H	 0.8748163333	 2.0545398297	 0.4030911421	 0.146948
H	-0.7564250337	 2.1510115745	-0.2918730495	 0.162633
H	-0.5433396395	 1.7598027028	 1.4264887797	 0.146685
H	 0.35467082	 0.0213751092	-0.9482612019	 0.154868
H	-2.4609047278	-2.5104431555	-0.1952616336	 0.150249
H	-0.781610578	-2.560418136	 0.55158429	 0.154487
H	-1.464472778	-0.8986764597	 2.0552436462	 0.257656
53.5772	133.7152	171.153	200.4063	221.9187	242.3447	273.3633	349.983	415.5235	513.6974	559.6843	566.4606	599.2915	699.8135	839.6428	864.1287	906.2389	939.2136	994.3831	1031.3112	1055.2851	1096.938	1134.7071	1161.3499	1246.4034	1272.2303	1310.465	1324.5791	1376.6592	1416.1846	1495.5838	1496.9506	1505.7704	2355.8259	2360.3599	3040.9593	3057.8287	3125.0038	3137.7109	3143.6236	3219.9764	3486.4563
CC(C#N)C1(CN1)C#N	C[C@@H](C#N)[C@]1(CN1)C#N	
InChI=1S/C6H7N3/c1-5(2-7)6(3-8)4-9-6/h5,9H,4H2,1H3	InChI=1S/C6H7N3/c1-5(2-7)6(3-8)4-9-6/h5,9H,4H2,1H3/t5-,6+/m0/s1
