22
gdb 99754	1.87448	1.34381	1.07897	4.8992	78.32	-0.2461	0.0201	0.2662	1296.8742	0.192926	-441.522937	-441.512358	-441.511414	-441.558609	38.342	
C	 0.1093761839	 1.4391017795	-0.3520848897	-0.330581
N	-0.0189007969	 0.0613530409	 0.127834276	-0.324871
H	 0.601859483	-0.5459473522	-0.3951408846	 0.230409
H	-0.3858239328	 0.1971405533	 1.9854034503	 0.305182
C	-1.3892372478	-0.465289989	 0.0849703785	-0.100009
C	-1.3881750305	-2.0062892643	-0.1103886035	-0.003323
C	-0.7400636968	-2.756040223	 1.0637469755	-0.400632
C	-2.7955948516	-2.5391553173	-0.4065570889	-0.397708
C	-2.1160170695	-0.0784569715	 1.3900961835	 0.437015
O	-3.3119392955	-0.0932076351	 1.5168362263	-0.343224
O	-1.281542242	 0.2471239503	 2.3888840714	-0.369275
H	 1.1598332574	 1.739997951	-0.3194136498	 0.12883
H	-0.2659497427	 1.5793540923	-1.377717649	 0.116164
H	-0.4520640211	 2.1095185498	 0.3062123723	 0.144702
H	-1.9694254719	-0.022814523	-0.7379480599	 0.090704
H	-0.7719171417	-2.1807527623	-1.005498456	 0.070134
H	-1.3325699347	-2.6483666376	 1.9782648944	 0.14118
H	-0.6722002672	-3.8243236765	 0.8369276529	 0.117452
H	 0.2705484978	-2.3943340453	 1.2758926344	 0.112446
H	-3.2210523274	-2.0650938252	-1.2968069976	 0.112626
H	-2.7595879293	-3.6187909026	-0.5829097932	 0.10892
H	-3.473827783	-2.3444443221	 0.4274454566	 0.153858
60.5448	87.1039	128.7817	172.5835	195.1049	211.2272	226.293	238.2027	314.4536	337.92	351.858	444.1367	479.8463	529.3323	649.6694	740.1769	773.8793	840.4895	880.6377	895.4579	936.4567	961.6713	973.5148	1009.1312	1100.7146	1125.5166	1133.4429	1152.5713	1196.7684	1204.8156	1239.4731	1290.6185	1326.5342	1367.7106	1370.4224	1406.1484	1413.1938	1427.374	1464.8015	1474.2932	1487.0102	1491.9448	1497.3475	1503.5334	1510.3584	1516.0599	1862.3867	2982.5382	2986.0845	3000.1819	3036.4722	3041.0102	3077.2961	3103.367	3107.5401	3108.5451	3117.8852	3132.3878	3457.7619	3532.0837
C[NH2+]C(C(C)C)C([O-])=O	CN[C@@H](C(C)C)C(=O)O	
InChI=1S/C6H13NO2/c1-4(2)5(7-3)6(8)9/h4-5,7H,1-3H3,(H,8,9)	InChI=1S/C6H13NO2/c1-4(2)5(7-3)6(8)9/h4-5,7H,1-3H3,(H,8,9)/t5-/m0/s1
