23
gdb 93912	2.66684	1.25792	0.96649	1.1314	88.37	-0.2373	0.0266	0.264	1328.8299	0.206227	-388.299086	-388.289705	-388.288761	-388.333082	36.156	
C	-0.2758062758	 1.6148212025	 0.0619989054	-0.402717
C	-0.1016295734	 0.0900082385	 0.0532342572	 0.021074
C	 0.9459719836	-0.3327056909	-0.9834344876	-0.085284
O	 0.7670480451	-1.6699165678	-1.4128831744	-0.257536
C	 1.374655708	-2.7091751833	-0.6647354987	 0.068533
C	 2.8992976342	-2.7584115086	-0.8867780653	-0.394958
C	 1.0472056276	-2.7763207014	 0.8067212907	-0.045486
C	 0.5811465372	-1.8628459845	 1.658899773	-0.088928
C	 0.2286332567	-0.4116318138	 1.4653956071	-0.245952
H	 0.6667687955	 2.119551382	 0.3069765178	 0.112458
H	-0.6070344242	 1.9827220557	-0.9143095442	 0.113719
H	-1.0165914993	 1.9241661606	 0.8063187905	 0.113945
H	-1.0432802198	-0.3719112168	-0.2697662477	 0.084869
H	 0.832736737	 0.2775190461	-1.8869821789	 0.098039
H	 1.9626856949	-0.1555872807	-0.6003525455	 0.086552
H	 0.9560808311	-3.6157556483	-1.1229192238	 0.090748
H	 3.3995366008	-1.894575629	-0.4394915053	 0.119529
H	 3.3238596261	-3.6578153932	-0.4302083471	 0.114745
H	 3.1152967834	-2.7758724945	-1.9586810195	 0.120572
H	 1.2770192098	-3.7570878907	 1.2236106013	 0.084748
H	 0.4740711287	-2.1912700111	 2.6923790372	 0.084335
H	 1.0669503879	 0.187432569	 1.8602528217	 0.105786
H	-0.6144211249	-0.1735976697	 2.127654596	 0.10121
66.4041	101.1195	211.6036	227.0664	244.7898	265.1942	302.49	334.859	380.8728	408.5626	449.431	518.5015	587.0753	712.4133	767.7676	789.9351	849.0306	881.3237	898.2802	935.4024	966.3059	997.4956	1009.9397	1025.6858	1079.9881	1091.7474	1104.796	1132.5628	1167.2706	1196.4321	1244.9729	1282.4966	1310.3057	1319.3074	1330.7598	1365.5166	1386.2551	1394.7608	1403.4706	1406.717	1421.8914	1436.3331	1470.2051	1485.6657	1494.889	1497.6237	1498.3396	1505.2983	1741.483	2967.7946	2990.0392	3010.9431	3021.549	3026.5852	3035.2188	3040.1536	3055.9487	3090.856	3102.8354	3109.3585	3113.7319	3120.9407	3136.5537
CC1COC(C)C=CC1	C[C@H]1CO[C@@H](C)C=CC1	
InChI=1S/C8H14O/c1-7-4-3-5-8(2)9-6-7/h3,5,7-8H,4,6H2,1-2H3	InChI=1S/C8H14O/c1-7-4-3-5-8(2)9-6-7/h3,5,7-8H,4,6H2,1-2H3/t7-,8+/m1/s1
