19
gdb 42975	2.71993	1.678	1.27129	3.1145	79.57	-0.235	-0.0084	0.2266	1038.7851	0.160888	-385.905036	-385.897463	-385.896519	-385.93702	30.359	
O	 0.0750156899	 0.0946277679	 0.3294199605	-0.357787
C	 0.0176791969	 1.2813428731	 0.0995543595	 0.372352
C	-1.217085721	 2.0820093323	-0.1610255384	-0.146275
C	-1.3862261109	 3.2953022438	 0.7496216636	-0.285718
C	-0.7765521826	 3.4702215078	-0.6014325276	-0.042344
C	 0.752095255	 3.5046311812	-0.6690394563	-0.327495
C	 1.2038484346	 2.209478012	 0.001306584	 0.225839
C	 2.2223637588	 2.1432484057	 1.1325016882	-0.295324
C	 2.5623118556	 1.5848949943	-0.2107108596	-0.305708
H	-2.099229097	 1.5753511832	-0.5302462125	 0.105663
H	-2.4066164505	 3.6309543039	 0.8961540722	 0.123201
H	-0.7573052682	 3.373650699	 1.6307083574	 0.126117
H	-1.3380059757	 4.0023352687	-1.3603629512	 0.093908
H	 1.071453109	 3.5227144537	-1.7174478647	 0.109719
H	 1.1624444827	 4.3998900809	-0.1887630311	 0.104663
H	 2.6768487633	 3.0799395532	 1.4383378901	 0.115491
H	 2.017082911	 1.4434191912	 1.9354191751	 0.131989
H	 2.5705159864	 0.505479611	-0.3186594516	 0.137685
H	 3.2630081026	 2.1276638869	-0.8362498976	 0.114022
77.4293	197.3801	236.442	255.901	353.5903	359.3804	439.4454	559.5552	596.3026	686.3704	762.5338	782.9338	800.9416	829.7235	848.1896	894.0944	907.6945	938.9603	954.9167	981.2135	1006.2375	1041.5734	1060.6326	1068.7634	1087.5696	1102.8162	1108.0396	1158.0279	1195.4326	1202.7474	1214.4745	1271.4828	1296.9209	1328.8713	1356.9641	1386.0842	1453.091	1483.7569	1488.0924	1500.4572	1813.9444	3030.8743	3066.832	3127.8473	3130.6333	3131.7021	3178.601	3202.2695	3214.1489	3220.4536	3229.2847
O=C1C2CC2CC11CC1	O=C1[C@H]2C[C@H]2CC21CC2	
InChI=1S/C8H10O/c9-7-6-3-5(6)4-8(7)1-2-8/h5-6H,1-4H2	InChI=1S/C8H10O/c9-7-6-3-5(6)4-8(7)1-2-8/h5-6H,1-4H2/t5-,6-/m0/s1
