16
gdb 129390	2.68589	1.57043	1.0053	4.8258	74.58	-0.2071	-0.0068	0.2003	1118.4161	0.128381	-430.272467	-430.264396	-430.263452	-430.305029	31.188	
N	 0.7916538042	-0.9505892292	 1.4982724036	-0.554792
C	-0.2871400239	-0.1469671571	 1.1141901263	 0.254534
N	-0.2500978486	 1.1091841466	 1.3397361305	-0.523446
C	-1.3650468083	-0.8700163651	 0.407944524	 0.277276
N	-2.5532903329	-0.279413575	 0.2259366734	-0.296571
N	-3.2771138358	-1.1666436586	-0.4492283442	-0.184177
C	-2.6067288638	-2.3220540571	-0.7227965501	-0.095523
C	-1.3458844698	-2.1700611206	-0.1776387438	 0.101449
N	-0.2984440992	-3.1003100253	-0.1442816832	-0.626168
H	 1.4309163879	-0.4384246387	 2.0933433921	 0.251
H	 0.5361598737	-1.8506726863	 1.8844317968	 0.258227
H	-1.069556197	 1.5517976835	 0.9246621938	 0.227183
H	-4.2282255073	-0.9414575824	-0.6867138634	 0.278264
H	-3.0617486639	-3.1340552061	-1.2667035057	 0.129095
H	-0.3682984293	-3.8026043441	-0.8684736087	 0.243418
H	 0.6085812542	-2.6498569846	-0.1751098413	 0.260231
73.5821	182.4968	213.8998	252.0401	327.6933	350.6188	403.3744	491.7012	507.0852	542.2315	630.4081	644.0832	663.0017	709.5098	721.8478	729.8322	809.5912	815.681	888.582	949.938	1078.9076	1087.2934	1121.1917	1168.3956	1214.6062	1252.2852	1344.3051	1385.3502	1420.4185	1481.3838	1527.5069	1617.5389	1628.1526	1652.1659	1716.5587	3263.8512	3493.1189	3525.3308	3530.9269	3624.7838	3638.4666	3673.1688
NC(=N)C1=NNC=C1N	NC(=N)c1n[nH]cc1N	
InChI=1S/C4H7N5/c5-2-1-8-9-3(2)4(6)7/h1H,5H2,(H3,6,7)(H,8,9)	InChI=1S/C4H7N5/c5-2-1-8-9-3(2)4(6)7/h1H,5H2,(H3,6,7)(H,8,9)
