19
gdb 107221	3.8771	1.22332	1.11106	3.5142	73.72	-0.2345	0.066	0.3004	1130.8625	0.16218	-419.15947	-419.151809	-419.150865	-419.191793	30.518	
O	 0.0754701581	 1.2897656816	-0.4989867994	-0.42374
C	 0.0437985188	 0.0502994043	 0.1918240717	-0.124785
C	-1.3541581413	-0.5163160273	 0.2350695791	 0.293798
C	-2.398640459	 0.1149574719	 1.1661677895	-0.293965
C	-3.3982560209	-0.9921503421	 1.4887019702	-0.033685
N	-4.129032389	-1.5207173055	 0.3189896287	-0.34686
C	-2.9515495006	-2.2525555302	 0.8371649949	-0.051736
C	-1.6827028427	-1.9640816305	 0.052714277	-0.089274
N	-1.807186703	-1.0293365561	-1.0731074967	-0.383135
H	-0.2934283645	 1.1088937859	-1.3720699113	 0.289518
H	 0.7138628396	-0.6854370832	-0.2777089683	 0.088756
H	 0.4170289473	 0.2526208547	 1.2017406902	 0.099144
H	-1.9095542215	 0.443088362	 2.0903089158	 0.106807
H	-2.8763246556	 0.9945602328	 0.7228105907	 0.12045
H	-3.9049512805	-0.9866307492	 2.4486595648	 0.091321
H	-4.9844678972	-1.9794998931	 0.6208228725	 0.235763
H	-3.091191627	-3.2292541991	 1.2858799547	 0.088956
H	-0.9377572247	-2.7476118816	-0.0449646452	 0.086921
H	-2.8017900664	-0.8411560754	-1.2047153587	 0.245744
66.1996	138.6615	260.9703	304.8877	356.138	379.1256	438.3843	455.0832	606.7761	682.8647	700.9077	721.4585	812.4219	841.5483	865.2033	882.2112	896.6136	951.1587	970.7359	983.5713	1030.892	1033.4421	1075.3017	1080.76	1126.9081	1139.3825	1145.5715	1178.5502	1193.955	1227.339	1263.5755	1301.6144	1308.3014	1334.3711	1365.1233	1383.4839	1412.7241	1424.8769	1441.8494	1476.4985	1496.7596	2991.3656	3045.0887	3070.401	3086.3626	3155.3432	3157.1229	3183.0896	3449.6956	3507.0398	3787.0285
OCC12CC3NC3C1N2	OC[C@]12C[C@H]3N[C@H]3[C@H]1N2	
InChI=1S/C6H10N2O/c9-2-6-1-3-4(7-3)5(6)8-6/h3-5,7-9H,1-2H2	InChI=1S/C6H10N2O/c9-2-6-1-3-4(7-3)5(6)8-6/h3-5,7-9H,1-2H2/t3-,4-,5-,6-/m1/s1
