21
gdb 99260	3.3257	0.74145	0.63727	3.9464	76.74	-0.2631	-0.0255	0.2376	1779.5929	0.178107	-461.374008	-461.363021	-461.362077	-461.411793	38.433	
C	 0.0363523443	 0.9136348209	-1.0754307814	-0.391237
C	-0.0219444374	-0.2474166002	-0.0905640969	 0.159326
C	 0.2456654034	 0.1978410345	 1.3487899409	-0.395994
O	-1.3201585265	-0.8286111663	-0.2338596638	-0.259396
C	-1.4777628955	-2.1059666285	 0.3246126763	-0.166898
C	-2.7809759021	-2.7262514502	-0.1518258423	 0.326663
O	-3.1569328429	-3.7960504102	 0.2778061731	-0.325001
C	-3.6083123215	-1.990384252	-1.1892817748	-0.126252
O	-4.7573122344	-2.7131494576	-1.5175595945	-0.425508
H	 1.0239186094	 1.3832083838	-1.0572074979	 0.118162
H	-0.1664396283	 0.5652404682	-2.0913646283	 0.124025
H	-0.71088003	 1.6701169468	-0.8158095222	 0.127089
H	 0.7279282035	-1.0041769652	-0.3772952327	 0.070573
H	 0.2236536414	-0.6425613715	 2.0485518547	 0.119832
H	 1.2339699067	 0.6618235514	 1.4230149081	 0.121458
H	-0.5045665081	 0.929843239	 1.6645308358	 0.1268
H	-0.6597491703	-2.7843982746	 0.026676706	 0.123755
H	-1.4956253027	-2.0962981258	 1.4250430861	 0.129051
H	-3.8488614865	-0.9933186973	-0.7885029656	 0.127955
H	-2.9710738533	-1.8084667328	-2.0691811075	 0.122747
H	-4.7148164392	-3.5177299724	-0.9762516428	 0.292849
21.1893	60.2575	91.6158	124.0921	136.0732	212.2352	237.7046	262.5568	302.9602	353.0904	393.3979	432.4748	443.3506	486.1314	529.3718	649.0554	818.1363	840.6035	847.1064	927.375	938.7957	950.9489	1073.2949	1118.2242	1127.474	1158.4311	1161.3516	1193.0394	1201.5374	1227.4043	1255.6826	1313.1792	1350.7902	1368.3207	1396.3774	1406.6247	1417.3235	1449.7083	1476.7578	1479.1552	1481.2624	1487.2786	1497.0207	1511.4068	1799.6638	2958.2443	2965.0634	2991.8451	3007.0976	3008.9019	3039.2422	3045.1858	3111.6306	3113.57	3119.8971	3125.5071	3683.7167
CC(C)OCC(=O)CO	CC(C)OCC(=O)CO	
InChI=1S/C6H12O3/c1-5(2)9-4-6(8)3-7/h5,7H,3-4H2,1-2H3	InChI=1S/C6H12O3/c1-5(2)9-4-6(8)3-7/h5,7H,3-4H2,1-2H3
