20
gdb 10183	3.05127	1.1503	0.87624	0.8181	78.25	-0.262	0.0394	0.3014	1361.7114	0.173847	-348.965333	-348.955266	-348.954322	-349.000466	35.521	
C	-0.0630700014	 1.9910224717	-1.3594877516	-0.386489
C	-0.0813093051	 0.5736496453	-0.7815880894	-0.170374
C	 0.7340850566	-0.4146127585	-1.6208945807	-0.178753
C	 0.7015139635	-1.8452133212	-1.0644533926	-0.075716
O	-0.6472461945	-2.2860947564	-1.1033731752	-0.230464
C	-0.8761670842	-3.5027808202	-0.4245116246	-0.236715
C	 1.5931554248	-2.7378856087	-1.81968212	 0.337204
C	 2.3192901285	-3.4620800052	-2.4472272938	-0.460394
H	 0.9576061916	 2.3858936806	-1.4172927121	 0.112227
H	-0.4816226606	 2.0106473031	-2.371838637	 0.116436
H	-0.6511404214	 2.6783750881	-0.7434996059	 0.111998
H	 0.3140811766	 0.5895366342	 0.2431620902	 0.089807
H	-1.11112545	 0.2103037811	-0.7094636795	 0.117428
H	 0.3547568877	-0.4449276782	-2.6488905013	 0.113989
H	 1.7810204529	-0.0950856268	-1.6772796717	 0.104943
H	 1.0452950119	-1.8258521557	-0.0143442312	 0.087712
H	-0.3082071039	-4.331023247	-0.869229168	 0.12007
H	-0.6075420937	-3.4272009268	 0.6408913293	 0.102719
H	-1.9444022551	-3.7161539636	-0.5060629132	 0.127362
H	 2.9626825758	-4.1022088858	-2.9989075421	 0.197011
84.3209	93.862	100.204	123.2885	175.9111	235.2542	243.9108	272.6817	300.9396	339.0485	454.953	567.2666	584.1155	624.5593	671.2825	744.1042	829.4215	904.52	923.6122	981.086	1038.5925	1062.6746	1122.4536	1142.7422	1152.2352	1184.6869	1223.984	1266.8812	1287.611	1327.0208	1354.4897	1365.1279	1397.1076	1415.357	1474.0459	1479.3104	1484.8366	1494.839	1499.9671	1510.5345	1511.7025	2228.8814	2938.342	2981.1261	3018.2894	3028.8445	3039.6312	3043.2113	3070.4572	3084.2988	3101.6991	3103.3369	3119.5056	3502.0236
CCCC(OC)C#C	CCC[C@@H](OC)C#C	
InChI=1S/C7H12O/c1-4-6-7(5-2)8-3/h2,7H,4,6H2,1,3H3	InChI=1S/C7H12O/c1-4-6-7(5-2)8-3/h2,7H,4,6H2,1,3H3/t7-/m0/s1
