21
gdb 108405	1.97777	1.40644	1.00104	3.5215	84.22	-0.2341	-0.0169	0.2173	1286.5591	0.181659	-387.078449	-387.069229	-387.068285	-387.112758	34.445	
C	-0.2461798132	 1.5109549595	 0.100442543	-0.37648
C	 0.1129212672	 0.0265773491	-0.0492355223	-0.293363
C	 0.8322364253	-0.527188173	 1.1513766493	 0.351392
C	 2.3004581302	-0.2219066767	 1.5113026225	-0.296279
C	 2.4668058918	-1.6965092152	 2.0036742037	-0.234139
C	 0.9968108363	-1.9519969856	 1.6491005866	-0.144357
C	 0.0550523639	-1.0001994696	 2.3800092182	-0.141046
C	 0.2538827672	-0.5042413286	 3.7595983826	 0.144827
O	-0.652035274	-0.3000758053	 4.5348075586	-0.274671
H	 0.6498607873	 2.1206491531	 0.2579971676	 0.119496
H	-0.7506134627	 1.8856431213	-0.795133045	 0.115099
H	-0.9108435801	 1.6688793142	 0.9557226961	 0.128411
H	-0.7972408553	-0.5590225147	-0.2279899676	 0.102286
H	 0.7464752518	-0.110407734	-0.9362536851	 0.099048
H	 2.8979229779	-0.0213020576	 0.6182161198	 0.108182
H	 2.4858163933	 0.5794267015	 2.2312703015	 0.105503
H	 3.1465002219	-2.2640921347	 1.3648278307	 0.111009
H	 2.7648084099	-1.8546618533	 3.0434841133	 0.107444
H	 0.5946713569	-2.8719769096	 1.2396285572	 0.095178
H	-0.9935171237	-1.1893589792	 2.1654954527	 0.102274
H	 1.3050684681	-0.3170334816	 4.0651199168	 0.070186
62.215	100.5437	145.1562	193.07	218.7683	253.489	294.3979	341.2475	421.0974	462.9685	497.2111	648.1336	696.7768	781.2005	798.3915	859.9994	876.8949	931.7677	945.1817	987.8912	989.8849	1018.4793	1042.7893	1053.5826	1080.051	1099.5871	1137.2681	1160.7403	1213.5054	1223.9785	1232.7255	1240.8152	1280.0933	1313.1143	1328.5034	1351.7156	1408.083	1415.2665	1467.3209	1478.6367	1486.0901	1498.5377	1507.3171	1509.3271	1802.1326	2901.8675	3012.2597	3035.9832	3051.1349	3056.9165	3064.8958	3098.3911	3104.8146	3110.9549	3117.5448	3153.793	3174.3871
CCC12CCC1C2C=O	CC[C@]12CC[C@H]1[C@H]2C=O	
InChI=1S/C8H12O/c1-2-8-4-3-6(8)7(8)5-9/h5-7H,2-4H2,1H3	InChI=1S/C8H12O/c1-2-8-4-3-6(8)7(8)5-9/h5-7H,2-4H2,1H3/t6-,7+,8-/m0/s1
