16
gdb 127330	4.23086	1.10079	0.8831	5.0497	73.78	-0.2432	-0.0438	0.1994	1283.2541	0.12435	-434.114414	-434.105677	-434.104733	-434.14879	30.149	
C	-0.065543361	 1.4322399925	 0.0191272922	-0.321675
N	 0.0142964715	-0.0144978978	-0.0243217845	 0.065754
C	 0.2561032364	-0.8289470294	-1.0779080052	-0.001889
N	 0.2448314001	-2.0874468049	-0.6935316833	-0.311578
C	-0.015904852	-1.9926713959	 0.6451238172	 0.247542
N	-0.1623653378	-0.7456352168	 1.0883339963	-0.282374
C	-0.1286445879	-3.1811746304	 1.5418974507	 0.318235
C	 0.0651883813	-4.5275943079	 0.8768722698	-0.477222
O	-0.3607583908	-3.0549805589	 2.7226170855	-0.29289
H	 0.1065639378	 1.8232601527	-0.9848937317	 0.147143
H	-1.0538951596	 1.7401422573	 0.3672467119	 0.16496
H	 0.6918064989	 1.8265451451	 0.7001429005	 0.164938
H	 0.4289568816	-0.4584050001	-2.0774648608	 0.149017
H	 1.0506764	-4.5800744912	 0.4034512236	 0.147932
H	-0.0388887256	-5.313867683	 1.6248840928	 0.134175
H	-0.667094993	-4.6651405813	 0.0750519051	 0.147933
57.8699	87.7817	120.8896	152.2377	169.1657	268.1687	324.1225	396.8765	515.6424	569.5542	619.2602	660.2491	725.2887	767.2853	854.9817	949.0791	1017.7451	1045.4104	1058.5708	1073.7712	1153.3012	1175.0765	1233.612	1318.2126	1348.8484	1382.4266	1440.5735	1448.4357	1458.3994	1466.3235	1473.6708	1477.3356	1519.9579	1532.5513	1801.1842	3047.9803	3060.1499	3110.3425	3135.3542	3152.8226	3158.7467	3253.8942
CN1C=NC(=N1)C(C)=O	Cn1cnc(n1)C(=O)C	
InChI=1S/C5H7N3O/c1-4(9)5-6-3-8(2)7-5/h3H,1-2H3	InChI=1S/C5H7N3O/c1-4(9)5-6-3-8(2)7-5/h3H,1-2H3
