17
gdb 63367	2.65783	1.25935	1.1296	1.7959	75.28	-0.2338	-0.0359	0.1979	1149.8361	0.13196	-421.797184	-421.787569	-421.786625	-421.831647	35.173	
C	-0.4887815648	 1.4906628694	 0.1730624572	-0.451559
C	-0.1675057752	 0.0071389089	-0.0051231494	 0.30397
O	-1.3129904135	-0.8097414843	 0.0907579914	-0.468286
C	 0.6928344159	-0.3264625611	-1.2588936642	-0.281816
C	 1.9834522446	-0.5040803178	-0.3780534048	-0.299696
C	 2.9506005792	 0.571272945	-0.4313645542	 0.331748
C	 3.7278892368	 1.4888859889	-0.4614918508	-0.465346
C	 1.0288081196	-0.4557410778	 0.8624155703	 0.353998
O	 1.1366151883	-0.7867598207	 2.0031364611	-0.29471
H	 0.4060800175	 2.1097157598	 0.05931941	 0.139298
H	-1.2272771157	 1.7942875762	-0.5751144198	 0.132752
H	-0.9026531244	 1.673433483	 1.1708139914	 0.123803
H	-1.657086941	-0.7328427017	 0.9885002554	 0.289967
H	 0.3755163242	-1.2678619716	-1.7086768361	 0.129244
H	 0.7497130252	 0.453566031	-2.0171392198	 0.120787
H	 2.4741922374	-1.4772691524	-0.4793990123	 0.132785
H	 4.4279951558	 2.2868271153	-0.4902404955	 0.20306
54.1127	121.0525	134.695	180.9107	211.3551	249.0837	304.7773	336.7112	371.8093	404.5815	457.4663	539.5328	613.0948	634.5173	649.7013	696.8059	790.9942	812.9515	861.8022	936.2477	946.2941	992.2491	1051.6163	1101.9441	1107.6133	1135.3971	1201.7968	1229.9918	1278.4513	1291.5931	1366.1898	1400.6637	1473.3418	1488.7018	1491.9416	1897.6788	2230.4372	3032.3644	3062.504	3094.3702	3106.1623	3119.8938	3160.2844	3503.267	3796.5853
CC1(O)CC(C#C)C1=O	C[C@@]1(O)C[C@@H](C#C)C1=O	
InChI=1S/C7H8O2/c1-3-5-4-7(2,9)6(5)8/h1,5,9H,4H2,2H3	InChI=1S/C7H8O2/c1-3-5-4-7(2,9)6(5)8/h1,5,9H,4H2,2H3/t5-,7-/m1/s1
