23
gdb 119739	3.21523	0.96772	0.86449	1.2691	85.21	-0.2581	0.078	0.3362	1442.1426	0.206029	-388.261936	-388.252497	-388.251553	-388.297088	35.492	
O	-0.0566966243	 1.4636528589	-0.2177780956	-0.41878
C	 0.0360586493	 0.0553018433	-0.0545166833	-0.07407
C	-1.3788937048	-0.5135456505	-0.0705059761	-0.295634
C	-1.4195520881	-2.0197244839	 0.0961864742	 0.397911
C	-0.914973857	-2.8973178416	-1.0900795644	-0.282003
C	-2.2502857978	-3.7007786005	-1.0778827436	-0.219767
C	-2.7614396458	-2.8512824249	 0.1137809646	-0.079272
C	-2.3966040794	-3.4098901398	 1.5129984029	-0.219761
C	-1.0608870158	-2.6071983657	 1.4955649358	-0.282007
H	 0.83381847	 1.8262222281	-0.2081123366	 0.283632
H	 0.630649133	-0.3994728779	-0.8633776524	 0.086587
H	 0.5314199742	-0.2020873896	 0.8957360786	 0.086586
H	-1.954053717	-0.0301171882	 0.7297644715	 0.098747
H	-1.8555442547	-0.2260549264	-1.0166026111	 0.098748
H	-0.7622786135	-2.3297139955	-2.012785409	 0.097268
H	-0.005103481	-3.4727861143	-0.8943243577	 0.091113
H	-2.8371072825	-3.5735264071	-1.9909881308	 0.099018
H	-2.1644548987	-4.7736245351	-0.8802377576	 0.093204
H	-3.744635783	-2.3886836316	 0.0063072711	 0.057875
H	-3.0795808233	-3.0910953022	 2.3043445139	 0.099017
H	-2.3029110839	-4.4987401479	 1.568276618	 0.093202
H	-0.1422442787	-3.2004618575	 1.5340505212	 0.091116
H	-1.0043934969	-1.8479096001	 2.2811619865	 0.097269
38.3123	88.3652	113.7455	127.285	263.1986	270.252	319.1767	343.6766	394.4356	402.0017	624.0529	687.8568	742.2821	753.5553	801.5259	847.6813	868.3298	891.9854	933.845	936.5211	976.2154	986.9945	1006.9451	1034.4682	1044.3566	1061.3451	1094.7391	1137.3143	1185.7943	1190.4773	1224.4896	1232.9721	1243.6568	1244.633	1255.098	1257.5854	1281.3194	1284.5783	1310.7063	1322.8868	1325.7675	1354.2455	1462.7531	1471.2184	1479.0143	1486.2903	1489.4369	1505.015	1526.7724	2963.7249	2987.7578	3017.8734	3041.3956	3043.2063	3050.3204	3052.6498	3058.9005	3078.8457	3083.4867	3089.5994	3104.0256	3110.3217	3828.9672
OCCC12CCC1CC2	OCC[C@]12CC[C@H]1CC2	
InChI=1S/C8H14O/c9-6-5-8-3-1-7(8)2-4-8/h7,9H,1-6H2	InChI=1S/C8H14O/c9-6-5-8-3-1-7(8)2-4-8/h7,9H,1-6H2/t7-,8+
