18
gdb 11959	3.53436	1.6693	1.41946	1.874	68.83	-0.2276	0.0787	0.3063	957.7467	0.151657	-384.886863	-384.878464	-384.87752	-384.919608	30.778	
C	 0.1960271879	 1.3323174251	 0.1954158789	-0.253745
O	-0.2040476041	 0.0087436482	-0.1295548872	-0.276442
C	 0.4908161675	-0.5383775562	-1.1800625143	 0.308039
C	 1.9325597758	-1.0088597579	-1.0849335817	-0.39607
C	 0.8341532043	-1.9782818564	-1.4580996113	 0.38025
C	 0.5298893687	-3.2857726837	-0.8075698437	-0.486108
O	 0.5352539527	-1.8333386113	-2.8582487651	-0.32112
C	 0.0812447817	-0.4680038407	-2.6502796973	-0.143461
H	 1.2656271843	 1.376984652	 0.440444291	 0.11553
H	-0.0045226778	 2.0314605379	-0.6282932006	 0.112979
H	-0.3881292874	 1.6352036841	 1.0669471494	 0.129782
H	 2.6796824775	-0.7181089776	-1.8192005504	 0.109587
H	 2.2882877812	-1.1053602335	-0.0631676606	 0.116409
H	 0.6821825904	-3.2154722725	 0.2729431972	 0.129771
H	-0.5065587321	-3.5811564286	-0.9964910764	 0.131119
H	 1.1867847554	-4.0726732422	-1.1946525432	 0.131418
H	-1.0041339616	-0.3933960966	-2.7842404828	 0.111526
H	 0.5936306257	 0.2462147198	-3.3054667622	 0.100537
82.7093	138.2365	174.6746	185.9527	228.1161	283.4952	375.3944	398.0545	440.7318	514.2147	599.0831	741.8901	762.2656	877.4262	904.8453	941.391	968.715	983.6391	1028.7272	1047.2063	1088.6226	1114.5876	1146.8922	1169.5548	1179.4187	1211.0875	1224.4352	1285.7657	1344.0543	1397.0125	1423.5123	1470.5882	1473.8121	1488.1505	1493.1541	1504.6312	1507.3289	1529.0614	2996.5535	3022.0031	3035.627	3053.0893	3075.2231	3100.2796	3107.5708	3121.0269	3125.0423	3204.8666
COC12CC1(C)OC2	CO[C@@]12C[C@]1(C)OC2	
InChI=1S/C6H10O2/c1-5-3-6(5,7-2)4-8-5/h3-4H2,1-2H3	InChI=1S/C6H10O2/c1-5-3-6(5,7-2)4-8-5/h3-4H2,1-2H3/t5-,6+/m0/s1
