16
gdb 105861	2.13691	1.64504	1.29595	4.2635	65.79	-0.2328	0.0025	0.2354	1042.3503	0.122628	-474.984335	-474.975599	-474.974655	-475.017989	31.661	
C	 0.0438068317	 1.3513272625	 0.1928471335	-0.266924
O	 0.0364515261	-0.0356332841	-0.1481759283	-0.274943
C	-1.2140591055	-0.5824404977	-0.1177682849	 0.252989
C	-1.8670881127	-1.1020831631	 1.1549394654	 0.014185
O	-3.1402447466	-0.6725271348	 1.5211127382	-0.41298
C	-1.6235830609	-2.0503387408	 0.0064921774	-0.163192
N	-2.6070827739	-1.8555158885	-1.065090179	-0.338856
C	-2.2998900704	-0.4824649804	-1.1943719931	 0.36588
O	-2.7451796165	 0.3763758501	-1.8970760783	-0.340405
H	 1.0801868706	 1.6842563787	 0.1152500488	 0.132302
H	-0.5814986189	 1.928450114	-0.4971196168	 0.148039
H	-0.3146981135	 1.5069490939	 1.2191040908	 0.118756
H	-1.1421398863	-1.1874253981	 1.9675243977	 0.105474
H	-3.535312911	-1.3440223607	 2.0884246532	 0.292885
H	-0.9952464511	-2.9312519133	 0.0319996964	 0.123849
H	-3.5710847014	-2.1531541477	-0.9609214008	 0.24294
66.1454	131.4597	159.9804	168.6143	237.2805	296.4584	315.8092	359.3942	433.1202	492.9068	583.8269	671.177	687.7164	750.059	799.7928	834.9887	924.6848	967.7354	1006.7679	1049.3875	1058.7993	1095.84	1159.4293	1180.3663	1210.425	1234.9829	1268.5084	1289.2847	1327.7551	1354.7638	1450.6961	1485.8232	1497.8079	1506.6534	1903.9336	3010.2741	3081.9212	3090.7602	3137.6057	3203.6084	3544.475	3796.387
COC12C(O)C1NC2=O	CO[C@]12[C@@H](O)[C@H]1NC2=O	
InChI=1S/C5H7NO3/c1-9-5-2(3(5)7)6-4(5)8/h2-3,7H,1H3,(H,6,8)	InChI=1S/C5H7NO3/c1-9-5-2(3(5)7)6-4(5)8/h2-3,7H,1H3,(H,6,8)/t2-,3+,5+/m1/s1
