21
gdb 62493	2.05391	1.40489	1.16452	0.8072	86.67	-0.227	0.0508	0.2778	1211.7189	0.177979	-387.05488	-387.04416	-387.043216	-387.089399	40.639	
C	-0.1103922587	 1.537840909	 0.0123802755	-0.456561
C	-0.0081877088	 0.0248018643	 0.059451848	 0.253798
C	-1.2043767434	-0.6779480559	-0.5580809076	-0.44377
C	 1.3698943245	-0.6334841733	-0.1802765635	-0.365253
C	 2.5467185505	 0.1326514194	-0.4485502648	 0.347459
C	 3.5421331408	 0.7737782588	-0.6705600706	-0.457047
C	 0.6986934694	-0.6465318244	 1.2047258517	 0.356998
C	 1.3016334939	 0.1186932405	 2.3602035144	-0.458017
O	 0.1322983811	-1.8712024996	 1.592034309	-0.457221
H	 0.8095535385	 2.0355262988	 0.3223597333	 0.129556
H	-0.3269915058	 1.8648967501	-1.0105113437	 0.120368
H	-0.9271683862	 1.8896349394	 0.6527654044	 0.116007
H	-1.3027407605	-0.4014435883	-1.613627023	 0.113037
H	-1.1210200992	-1.7622631042	-0.483503286	 0.133138
H	-2.1279056178	-0.3795730766	-0.0485632029	 0.116706
H	 1.3177601804	-1.5909843876	-0.6919267561	 0.107042
H	 4.4204576885	 1.3344676333	-0.8732527658	 0.190201
H	 1.7995269775	 1.0341278239	 2.0395546231	 0.136431
H	 0.5291694527	 0.3697980001	 3.0938997181	 0.125755
H	 2.0559458095	-0.4996494581	 2.8627639401	 0.109821
H	 0.8328331332	-2.4102841694	 1.9762627166	 0.281553
120.9675	140.1375	169.2074	181.3919	185.3027	209.1675	258.7362	292.3064	323.7677	353.4027	372.8651	399.9951	440.6629	455.5666	537.8815	560.4109	597.7882	648.9443	684.0118	702.9554	852.138	944.5788	962.2908	976.9861	1004.4559	1030.4091	1074.4049	1090.4683	1152.9763	1173.8701	1189.508	1284.4905	1303.2378	1322.003	1409.9937	1413.9443	1425.9366	1444.7949	1478.863	1485.2262	1491.4826	1494.4969	1508.8855	1521.2547	2224.0525	3028.586	3030.4208	3035.7972	3086.2368	3090.0852	3091.5642	3132.5314	3140.0596	3147.429	3148.3911	3503.9452	3792.3599
CC1(C)C(C#C)C1(C)O	CC1(C)[C@@H](C#C)[C@]1(C)O	
InChI=1S/C8H12O/c1-5-6-7(2,3)8(6,4)9/h1,6,9H,2-4H3	InChI=1S/C8H12O/c1-5-6-7(2,3)8(6,4)9/h1,6,9H,2-4H3/t6-,8+/m1/s1
