18
gdb 62717	2.71683	1.56654	1.32658	4.3411	78.54	-0.2446	-0.0495	0.1951	1036.5729	0.147272	-401.969702	-401.961531	-401.960587	-402.001974	31.672	
C	-0.0791494509	 1.5387196707	 0.0522721476	-0.463621
C	-0.0211357334	 0.0312849515	-0.060709793	 0.307465
C	-1.2209876115	-0.6817559965	 0.5276095538	-0.446269
C	 0.7079288103	-0.6802230441	-1.1856220996	-0.128549
C	 1.6969977046	 0.0148102022	-2.0433189931	-0.087953
C	 2.7327349846	 0.4274465583	-1.2991036039	-0.187818
C	 2.4542279986	 0.1216811133	 0.1304186974	 0.358398
O	 3.0580985591	 0.4844938414	 1.1078566336	-0.334721
N	 1.258563936	-0.6880776765	 0.1737767249	-0.160435
H	 0.7149928263	 2.0377809614	-0.5039140398	 0.13485
H	-1.0420118164	 1.8999804674	-0.3219788506	 0.122376
H	 0.0054686003	 1.8341127184	 1.1033919906	 0.144422
H	-2.1369827496	-0.3907617894	 0.0023164383	 0.12084
H	-1.1030600388	-1.7655256591	 0.462613409	 0.131911
H	-1.3371719156	-0.4161517274	 1.583556121	 0.134621
H	 0.2786672553	-1.6126129062	-1.5467718196	 0.104709
H	 1.5818442514	 0.1241300941	-3.1147837762	 0.12342
H	 3.6023419599	 0.9871837905	-1.6156617405	 0.126353
127.529	185.5181	197.8172	226.708	241.0998	335.1664	356.2841	428.3191	491.6444	528.6795	639.2599	684.1388	735.7973	782.9123	799.894	853.6638	899.7712	944.7487	960.0479	967.9497	990.5123	1030.4831	1061.9159	1084.8805	1114.1275	1135.4746	1166.1811	1256.9186	1306.9227	1348.8721	1377.8761	1408.3722	1421.5296	1476.3166	1481.8853	1501.1817	1501.5524	1628.0704	1826.0734	3036.3968	3045.0207	3101.0696	3106.3505	3128.8297	3132.0154	3142.2478	3207.7633	3239.2284
CC1(C)C2C=CC(=O)N12	CC1(C)[C@H]2C=CC(=O)N12	
InChI=1S/C7H9NO/c1-7(2)5-3-4-6(9)8(5)7/h3-5H,1-2H3	InChI=1S/C7H9NO/c1-7(2)5-3-4-6(9)8(5)7/h3-5H,1-2H3/t5-,8?/m1/s1
