19
gdb 40792	3.78779	1.17203	1.00174	1.4414	75.24	-0.2552	0.0819	0.3372	1208.4934	0.160376	-422.991134	-422.983409	-422.982465	-423.023884	29.761	
C	 0.180414347	 1.4612735382	-0.0160604963	-0.17643
O	 1.1078233979	 0.4036816507	-0.273494305	-0.239796
C	-0.2587184882	 0.0629903337	-0.031582588	 0.07529
C	-0.5135950833	-0.6964404008	 1.247321084	 0.093116
O	-1.9019785561	-0.5773563397	 1.5620347126	-0.276285
C	-2.2819084024	-1.691160368	 2.369297326	-0.092429
C	-1.3936707003	-2.8400432172	 1.9270777435	-0.058424
C	-1.2596698619	-3.023284955	 0.4384461005	-0.291791
C	-0.2464610314	-2.1934182681	 1.188605386	-0.058579
H	 0.3074510214	 1.9718730691	 0.93762301	 0.11582
H	-0.0414665614	 2.1057850179	-0.8649185706	 0.116336
H	-0.7992034835	-0.3051808211	-0.9035513891	 0.094741
H	 0.1109466705	-0.2516076283	 2.0403431734	 0.069755
H	-2.121516994	-1.4763379582	 3.4379885685	 0.093699
H	-3.3524371836	-1.855956235	 2.2073136739	 0.108894
H	-1.2454502834	-3.6780657411	 2.5974709185	 0.091132
H	-0.9342318451	-3.9934649353	 0.0809252817	 0.11379
H	-1.9733306004	-2.5191725266	-0.2060291331	 0.121047
H	 0.7750563779	-2.5388667553	 1.2855232334	 0.100112
65.0655	125.3864	165.4806	281.853	314.5298	364.1554	430.9921	498.1659	654.8477	724.681	783.3606	831.9136	856.3956	872.2346	905.5518	925.0196	959.3514	971.958	991.6535	1041.6802	1076.027	1080.747	1090.2195	1095.1635	1116.8186	1123.1554	1151.4459	1165.0196	1185.149	1197.1623	1238.765	1284.2087	1307.2878	1326.196	1334.3711	1360.5763	1401.0522	1461.9402	1481.5098	1516.174	1529.6579	2961.9074	2977.8692	3067.2175	3085.5152	3115.5245	3131.0352	3173.7163	3182.6439	3194.4098	3220.1031
C1OC1C1OCC2CC12	C1O[C@H]1[C@H]1OC[C@H]2C[C@@H]12	
InChI=1S/C7H10O2/c1-4-2-9-7(5(1)4)6-3-8-6/h4-7H,1-3H2	InChI=1S/C7H10O2/c1-4-2-9-7(5(1)4)6-3-8-6/h4-7H,1-3H2/t4-,5-,6-,7+/m1/s1
