15
gdb 130031	3.1258	1.43623	1.09872	3.3136	67.5	-0.2258	-0.0528	0.173	1063.6888	0.114172	-450.157267	-450.149339	-450.148395	-450.190216	28.658	
N	 0.2876043756	 1.3824760718	-0.1152107915	-0.611458
C	 0.0908051645	 0.0180240092	-0.0730326755	 0.413847
N	-1.0669659753	-0.6077811904	 0.0546811306	-0.335571
C	-0.6923375198	-1.9169491676	 0.1162418642	 0.03501
N	 0.5997643355	-2.1508124251	 0.0293391623	-0.263592
N	 1.1109724249	-0.8779893586	-0.0887465652	-0.014276
C	 2.5352681834	-0.6848172233	-0.0581835123	-0.24664
C	 3.1221501016	 0.0872535331	-1.221917599	 0.163136
O	 2.4888827533	 0.7344219798	-2.0163154323	-0.236495
H	 0.9030537734	 1.6637066943	-0.8708060403	 0.274915
H	-0.599916027	 1.8659301041	-0.1561566312	 0.265347
H	-1.4035362172	-2.7235057861	 0.2190030559	 0.124043
H	 2.849435405	-0.1535447021	 0.8558758529	 0.158102
H	 2.99244603	-1.6773745286	-0.014625247	 0.169771
H	 4.2320290519	 0.0413088493	-1.2668140517	 0.103862
65.4457	142.2371	152.9599	240.8105	261.03	314.3563	395.4678	452.7998	604.387	656.4209	687.0649	711.5048	755.4077	813.5251	830.6868	910.131	944.3153	988.2483	1044.4382	1108.2262	1162.6804	1229.1929	1280.2768	1309.6284	1318.4938	1380.3975	1414.484	1433.0476	1461.8867	1564.317	1583.1755	1656.4219	1832.1982	2904.3695	2986.3575	3105.0269	3254.5168	3526.0319	3633.5737
NC1=NC=NN1CC=O	Nc1ncnn1CC=O	
InChI=1S/C4H6N4O/c5-4-6-3-7-8(4)1-2-9/h2-3H,1H2,(H2,5,6,7)	InChI=1S/C4H6N4O/c5-4-6-3-7-8(4)1-2-9/h2-3H,1H2,(H2,5,6,7)
