16
gdb 130228	5.1669	1.03461	0.89897	3.1074	74.35	-0.2128	0.0188	0.2316	1264.0875	0.125595	-434.030065	-434.02219	-434.021245	-434.062987	29.613	
N	-0.0299996352	 1.36308844	 0.3120112932	-0.591614
C	 0.0002306611	 0.0110871091	 0.0084606238	 0.43533
N	-1.0218282349	-0.5645064433	-0.5901266234	-0.238211
O	-0.6786063733	-1.9356822071	-0.6520990338	-0.22455
C	 0.5338615498	-2.1021084868	-0.1074414958	 0.511464
C	 1.0320575332	-0.9141889757	 0.3407726834	-0.445767
N	 1.0673847706	-3.3748252804	-0.1647379466	-0.156166
C	 1.5519080805	-4.016964687	 1.0544310507	-0.227645
C	 0.3141802306	-4.5026748796	 0.3793922098	-0.221554
H	 0.8615542421	 1.8265600726	 0.2084871571	 0.252392
H	-0.7613524741	 1.8533071956	-0.1866394198	 0.25797
H	 1.9731107069	-0.7294967576	 0.829629467	 0.107046
H	 2.4847585853	-4.561597187	 0.9486645628	 0.13109
H	 1.432413847	-3.4706842188	 1.9865431919	 0.133506
H	-0.6386445354	-4.2847804503	 0.8526816373	 0.143416
H	 0.3382122157	-5.4032413737	-0.2253570874	 0.133293
51.6085	130.3158	180.4265	268.4996	304.7703	373.7885	407.4693	526.0502	537.3729	643.1555	704.3061	724.4581	736.6427	777.7472	820.18	896.5242	913.047	948.6382	1006.0349	1036.5581	1044.7314	1120.8273	1136.8154	1138.2876	1155.4655	1175.7026	1190.1114	1284.9797	1363.125	1493.9478	1509.7504	1521.9561	1559.6969	1640.4599	1661.9353	3115.1116	3125.0682	3203.4229	3219.1295	3278.6107	3551.935	3651.264
NC1=NOC(=C1)N1CC1	Nc1noc(c1)N1CC1	
InChI=1S/C5H7N3O/c6-4-3-5(9-7-4)8-1-2-8/h3H,1-2H2,(H2,6,7)	InChI=1S/C5H7N3O/c6-4-3-5(9-7-4)8-1-2-8/h3H,1-2H2,(H2,6,7)
