17
gdb 29514	3.17112	1.52764	1.05192	2.2184	74.45	-0.1838	0.0403	0.2242	1115.6279	0.137392	-421.848432	-421.840573	-421.839629	-421.88123	29.167	
C	 0.0148251246	 1.5518221113	-0.0556628006	-0.500531
C	 0.0053436852	 0.0576432989	 0.0224636105	 0.081989
C	 0.0320068073	-0.8080460347	-1.0328042473	-0.123117
O	 0.0137437323	-2.1377777502	-0.6062688715	-0.206901
C	-0.0250028736	-2.041227224	 0.7197588416	 0.443352
C	-0.0378856195	-0.7810188676	 1.1933807002	 0.059111
C	-0.0225486948	-0.8668158362	 2.6946123177	-0.382384
C	-0.1655490386	-2.4238331981	 2.8817569907	-0.08795
O	-0.024210603	-3.0756176157	 1.5728676957	-0.281029
H	 0.8837742281	 1.9747363148	 0.4617694944	 0.128295
H	 0.0457682767	 1.893003997	-1.0940569769	 0.125912
H	-0.8774655747	 1.983068215	 0.4127410241	 0.128326
H	 0.0522898831	-0.6742375363	-2.1004624086	 0.132409
H	 0.9078222429	-0.4955131842	 3.1424208108	 0.114764
H	-0.8473303223	-0.3458227108	 3.1928104514	 0.1151
H	 0.5981471019	-2.8510202785	 3.533737817	 0.126975
H	-1.1537269157	-2.6924198406	 3.265143961	 0.12568
66.6158	144.9089	177.8496	207.007	232.0594	353.885	498.7322	580.4131	605.7852	629.5859	633.4402	704.7015	767.2831	771.8147	839.1444	922.2682	973.5408	1008.3737	1060.01	1064.6796	1075.0557	1091.8445	1185.7806	1204.8669	1240.4353	1249.7096	1288.2478	1362.7031	1403.0573	1420.1904	1481.3215	1485.0693	1498.7354	1510.6231	1527.3337	1593.0986	1688.7446	3017.377	3026.5642	3049.7111	3066.4243	3075.7565	3110.5309	3123.3353	3289.3487
CC1=COC2=C1CCO2	Cc1coc2c1CCO2	
InChI=1S/C7H8O2/c1-5-4-9-7-6(5)2-3-8-7/h4H,2-3H2,1H3	InChI=1S/C7H8O2/c1-5-4-9-7-6(5)2-3-8-7/h4H,2-3H2,1H3
