18
gdb 87430	3.40552	1.51796	1.29534	2.3792	75.03	-0.2307	0.0564	0.2871	1005.7548	0.147518	-401.847645	-401.839964	-401.83902	-401.87992	30.047	
O	 0.0863130793	 1.3975027976	-0.156531965	-0.425366
C	-0.0332317478	 0.0024356031	-0.0976376392	 0.056483
C	-0.4260274336	-0.739053545	 1.1706218729	-0.430571
C	-1.3530414259	-0.6770942692	-0.0106048558	 0.385172
C	-2.7689560404	-0.1193382128	-0.0679314607	-0.195273
C	-2.9380840297	 0.1242602919	-1.5965819203	-0.241967
C	-2.7944029039	-1.3921975775	-1.7339330289	-0.039422
C	-3.1837811093	-1.6228973452	-0.3246381564	-0.044817
N	-1.7756076666	-1.8998577371	-0.7351576211	-0.190794
H	-0.5734462382	 1.7878782435	 0.4252955234	 0.284286
H	 0.7301592732	-0.4570728068	-0.7170268379	 0.117126
H	 0.0740482872	-1.6776333085	 1.3872197628	 0.127389
H	-0.6876567799	-0.1523306968	 2.0478531897	 0.10812
H	-3.1742032123	 0.5706547963	 0.6702225855	 0.072928
H	-3.9536250869	 0.4375336511	-1.8525798755	 0.104094
H	-2.2042511248	 0.7773579606	-2.0784170358	 0.113126
H	-2.9537817932	-2.0176308074	-2.6022270219	 0.100138
H	-3.8265448472	-2.3355363879	 0.1744311741	 0.099348
95.6783	123.6087	149.0379	236.2578	370.3396	420.8577	464.0507	518.0732	649.2827	724.9421	780.4826	795.4054	829.1681	839.8054	874.1165	913.369	925.7627	957.4405	973.714	985.9956	996.8411	1014.9161	1035.3463	1078.4932	1092.4248	1113.6839	1134.8621	1148.0368	1154.7807	1193.8523	1214.5585	1229.7279	1269.0064	1314.6845	1330.6712	1366.1153	1429.1652	1491.3418	1500.1345	3052.9779	3111.7622	3113.5082	3127.3581	3170.3419	3199.1238	3205.6811	3213.4252	3822.9029
OC1CC11C2CC3C2N13	O[C@H]1C[C@]21[C@H]1C[C@@H]3[C@H]1N23	
InChI=1S/C7H9NO/c9-5-2-7(5)3-1-4-6(3)8(4)7/h3-6,9H,1-2H2	InChI=1S/C7H9NO/c9-5-2-7(5)3-1-4-6(3)8(4)7/h3-6,9H,1-2H2/t3-,4+,5-,6-,7+,8?/m0/s1
