17
gdb 45886	2.51017	1.75812	1.19467	2.732	75.85	-0.2153	-0.0077	0.2076	1034.3167	0.139368	-418.019784	-418.012314	-418.01137	-418.051995	28.943	
O	 0.0228798577	-0.1164376699	-0.0185491765	-0.369605
C	 0.0020893414	 1.0984203366	 0.0753050989	 0.414959
N	-1.2059641434	 1.75831506	 0.1329945255	-0.35044
C	-1.5604173066	 3.109207641	 0.0941832877	 0.024381
C	-0.8461139977	 4.1720116408	-0.2759653412	-0.079937
C	 0.5600012963	 4.2279052939	-0.8053661165	-0.294066
C	 1.5659005159	 3.2741363533	-0.190538633	-0.02489
N	 1.4138463748	 2.9121620151	 1.2133943614	-0.32824
C	 1.2918629731	 1.8558967268	 0.1819009341	-0.118472
H	-1.9707654756	 1.0986724942	 0.1611331841	 0.252766
H	-2.5888125822	 3.2564529505	 0.4089171186	 0.107097
H	-1.3609154095	 5.1242600709	-0.205784543	 0.093303
H	 0.5619240558	 4.0602853374	-1.8938915849	 0.119786
H	 0.942302011	 5.246820468	-0.6679943219	 0.112507
H	 2.5800278843	 3.4384410561	-0.5562441997	 0.090846
H	 2.3128478567	 2.8320846884	 1.6798493604	 0.241609
H	 2.117361798	 1.1586801568	 0.0718801059	 0.108398
73.1692	130.1489	238.2864	292.4779	366.3679	449.9383	462.278	496.1013	615.1675	663.6728	704.7499	728.606	778.536	805.1873	856.6922	900.8898	912.9269	947.8927	960.8327	1009.1747	1021.3496	1075.5511	1142.6559	1179.3034	1203.481	1240.1769	1275.3059	1294.2561	1359.5144	1390.771	1421.331	1443.1194	1473.1988	1480.0931	1500.2061	1750.0786	1769.8577	2988.8459	3042.6642	3099.4036	3157.1548	3168.6449	3190.1647	3513.2236	3602.2485
O=C1NC=CCC2NC12	O=C1NC=CC[C@H]2N[C@@H]12	
InChI=1S/C6H8N2O/c9-6-5-4(8-5)2-1-3-7-6/h1,3-5,8H,2H2,(H,7,9)	InChI=1S/C6H8N2O/c9-6-5-4(8-5)2-1-3-7-6/h1,3-5,8H,2H2,(H,7,9)/t4-,5-/m1/s1
