18
gdb 90340	2.49487	1.59843	1.43577	3.0773	71.94	-0.2424	0.0035	0.246	1014.403	0.147469	-439.060481	-439.052248	-439.051304	-439.092884	31.757	
C	-0.3074828661	 1.4465071406	-0.2006465826	-0.402738
C	 0.0408405942	-0.0090225699	-0.0148599633	 0.061215
O	 1.3307751469	-0.3438023419	-0.7229547211	-0.28818
C	 1.9171817587	-0.4892035062	 0.4959934838	 0.377556
N	 3.0559175642	-0.2721431539	 0.9974358429	-0.311071
C	 2.7438882941	-0.0971705833	 2.4540121171	-0.170366
C	 1.2077267557	 0.2643162488	 2.5446757843	-0.331919
C	 0.6765575541	-0.5054599073	 1.3267928768	 0.28163
O	 0.1129404231	-1.7709351303	 1.621526757	-0.479737
H	 0.4937405367	 2.0977868337	 0.1603373264	 0.134473
H	-0.4741828533	 1.6651256694	-1.2588707017	 0.140808
H	-1.2252526516	 1.6809965433	 0.348360672	 0.131986
H	-0.7383818391	-0.6893787099	-0.3605721817	 0.113607
H	 2.9933600554	-1.0020163421	 3.0242269136	 0.104324
H	 3.372005826	 0.7072495151	 2.8441028055	 0.121974
H	 0.7288961433	-0.0359138072	 3.479993833	 0.108911
H	 1.0904865609	 1.345628569	 2.427431143	 0.118648
H	 0.7368608367	-2.2640118479	 2.1658620549	 0.288879
110.6146	192.5913	213.2077	238.4159	246.0149	287.3489	349.5836	393.9064	486.4042	547.7777	640.0182	681.3108	730.9968	746.6136	786.3248	846.0572	879.5615	939.7748	976.2136	1002.6653	1024.3317	1043.5423	1122.0834	1143.9832	1160.7496	1197.2115	1215.0244	1237.7377	1272.6153	1307.7053	1350.3618	1361.8324	1368.4063	1413.1682	1470.7279	1481.9728	1496.5551	1505.3332	1768.04	3019.4765	3042.9832	3061.3412	3096.5701	3106.4517	3116.7722	3118.6589	3127.6487	3804.666
CC1OC2=NCCC12O	C[C@H]1O[C]2[N]CC[C@@]12O	
InChI=1S/C6H9NO2/c1-4-6(8)2-3-7-5(6)9-4/h4,8H,2-3H2,1H3	InChI=1S/C6H9NO2/c1-4-6(8)2-3-7-5(6)9-4/h4,8H,2-3H2,1H3/t4-,6-/m1/s1
