23
gdb 57573	2.87958	1.12001	1.06082	1.4926	85.28	-0.262	0.078	0.34	1300.4534	0.204057	-388.264142	-388.254041	-388.253097	-388.299228	38.421	
C	 0.0451372254	 1.6634652959	 0.1160960353	-0.423047
C	 0.0015657676	 0.1329103138	 0.0915410045	 0.328124
O	 0.6257809819	-0.2884741864	 1.3168717944	-0.468015
C	-1.456416831	-0.3353060352	 0.0649482114	 0.025333
C	-1.861776038	-1.6576158031	 0.6622837383	-0.280799
C	-2.2820019769	-0.3653331792	 1.3214417663	-0.280618
C	 0.7360386675	-0.4972060342	-1.089670384	-0.029966
C	 1.011408008	 0.2139572111	-2.3907883729	-0.272299
C	 2.1496370186	-0.1160264025	-1.4599204263	-0.287752
H	 1.0705237924	 2.0382967193	 0.054597174	 0.114054
H	-0.5406870058	 2.0925994379	-0.7012013523	 0.111784
H	-0.3819456588	 2.0114334713	 1.0597692536	 0.128158
H	 1.1146582134	-1.0960965472	 1.1344733486	 0.281395
H	-1.9745404925	-0.0476019756	-0.8464478686	 0.078929
H	-2.6092596477	-2.250342239	 0.1466858885	 0.104254
H	-1.0998313631	-2.2361156222	 1.1728728178	 0.100078
H	-1.7792463625	-0.1086847221	 2.2466633719	 0.12461
H	-3.3227030344	-0.0658202723	 1.2652691793	 0.102937
H	 0.5003882165	-1.5550450162	-1.1905331678	 0.084405
H	 0.9107497012	-0.3515430549	-3.3105268786	 0.110561
H	 0.7241617334	 1.2552014975	-2.4779459704	 0.116262
H	 2.6152338497	 0.7019841109	-0.9216526828	 0.121892
H	 2.8357484952	-0.9079884875	-1.7397712001	 0.109719
56.4143	75.5034	128.4215	168.1126	229.2865	258.5569	265.3094	285.2773	333.757	395.1893	464.3497	480.5741	575.6851	684.6507	785.2495	793.0535	818.0957	830.9446	839.6904	909.0777	933.8272	949.8581	954.1047	972.7518	1029.6234	1057.173	1059.0638	1074.6737	1081.3083	1086.0713	1137.9531	1145.288	1148.5092	1169.5894	1199.4884	1201.1853	1216.5994	1231.4044	1241.0842	1363.0911	1382.1433	1401.0449	1416.3627	1454.2247	1466.7417	1489.189	1494.9191	1499.265	1509.7355	3048.4532	3120.1009	3121.2934	3126.1854	3132.8971	3135.5453	3136.2613	3141.5039	3142.204	3214.1357	3214.5213	3229.3404	3230.7465	3833.8099
CC(O)(C1CC1)C1CC1	CC(O)(C1CC1)C1CC1	
InChI=1S/C8H14O/c1-8(9,6-2-3-6)7-4-5-7/h6-7,9H,2-5H2,1H3	InChI=1S/C8H14O/c1-8(9,6-2-3-6)7-4-5-7/h6-7,9H,2-5H2,1H3
