23
gdb 90253	3.2961	1.39065	1.16708	0.1414	89.12	-0.2436	0.0871	0.3308	1165.3214	0.207027	-351.118925	-351.110624	-351.10968	-351.152004	33.45	
C	-0.2057727716	 1.5473572257	 0.0021404676	-0.404739
C	 0.0313875548	 0.0427939169	 0.0196561006	 0.042936
C	 1.1162187365	-0.5224057078	-0.9600539537	-0.364364
C	 1.9131081257	-1.044186122	 0.2396441253	 0.413168
C	 2.7802557591	-2.2917069114	 0.4260993368	-0.331734
C	 3.6460560557	-1.5024406476	 1.4594199832	-0.22328
C	 2.9198287648	-0.1755652653	 1.0723064207	-0.058052
C	 1.7887251232	 0.277380587	 2.0319969275	-0.251397
C	 0.7850993639	-0.6031862462	 1.2381330937	-0.091044
H	 0.7293553146	 2.1129186865	 0.0741306601	 0.115764
H	-0.6933656172	 1.8470990582	-0.9322308638	 0.112094
H	-0.8506608435	 1.8625802216	 0.8302502262	 0.112583
H	-0.9278710199	-0.4626271693	-0.1281815162	 0.07149
H	 0.7330728154	-1.3152699406	-1.6108461647	 0.094827
H	 1.6298266874	 0.2124742338	-1.5902707569	 0.088689
H	 2.2793925797	-3.2015108766	 0.7725782755	 0.090942
H	 3.3483638214	-2.5395846518	-0.4772413473	 0.097352
H	 3.4871872343	-1.7988519798	 2.5003916025	 0.096434
H	 4.7206972307	-1.5155666076	 1.2641428168	 0.098642
H	 3.5518024077	 0.5908180698	 0.6167257593	 0.053021
H	 1.9357927915	-0.0233620277	 3.0744195149	 0.090516
H	 1.5695003004	 1.348660977	 2.02376386	 0.094069
H	 0.1915064454	-1.3207927128	 1.8097763821	 0.052083
38.5774	154.4274	217.0354	253.0352	288.4736	352.3279	382.2466	440.8246	504.414	629.5482	685.2503	737.5888	768.0867	787.013	831.1877	861.534	878.7504	894.8409	931.8013	950.6327	959.5486	991.4401	1022.6374	1037.2654	1068.0536	1107.7292	1120.6706	1136.9719	1164.5455	1177.5861	1207.3102	1210.564	1220.4768	1237.1656	1249.0841	1272.5845	1282.7801	1283.8022	1293.0611	1316.1574	1324.2158	1360.6943	1408.39	1470.5378	1477.4323	1481.4382	1491.4035	1494.0377	1502.535	3024.1959	3030.3852	3034.5918	3042.2223	3043.1036	3054.9933	3067.1193	3073.4566	3078.6956	3079.5146	3089.1098	3091.0875	3097.1192	3111.0757
CC1CC23CCC2CC13	C[C@H]1C[C@@]23CC[C@@H]2C[C@@H]13	
InChI=1S/C9H14/c1-6-5-9-3-2-7(9)4-8(6)9/h6-8H,2-5H2,1H3	InChI=1S/C9H14/c1-6-5-9-3-2-7(9)4-8(6)9/h6-8H,2-5H2,1H3/t6-,7+,8-,9-/m0/s1
