16
gdb 34489	2.95263	1.42829	1.03059	3.8801	79.93	-0.2517	-0.0522	0.1995	1118.8502	0.125682	-400.737454	-400.729984	-400.72904	-400.769706	28.094	
N	-0.1072081793	-1.0558527592	 0.3050004099	-0.336771
C	-0.0965885319	 0.0904227624	 0.1317071176	 0.203121
C	-0.0520194042	 1.4867025014	-0.0872432815	 0.038382
C	-1.0651844151	 2.3398284494	-0.2655649828	 0.125262
C	-2.4579050475	 2.6445641111	 0.2249428958	-0.318818
C	-1.7817388891	 3.9012425572	 0.9010520984	-0.254523
C	-0.5823002604	 3.7398925115	-0.1126225414	 0.09917
O	 0.770376868	 3.6656303047	 0.2822170524	-0.272996
C	 1.2277849503	 2.3252361972	 0.0426070839	-0.15751
H	-3.1487672864	 2.9401061904	-0.5691815061	 0.133128
H	-2.9343711012	 1.898525043	 0.8613150713	 0.13865
H	-2.3363564777	 4.840414988	 0.8625330883	 0.117392
H	-1.4594267529	 3.6835244705	 1.9200080236	 0.132567
H	-0.7079746476	 4.4055088871	-0.9772243732	 0.096293
H	 1.8353859559	 1.9959150471	 0.8926908517	 0.134624
H	 1.8554532291	 2.2897807281	-0.8599190479	 0.12203
104.0856	141.2697	157.0805	250.0985	345.2514	376.4909	507.6697	558.5884	596.4821	669.5589	702.4946	746.0474	796.8882	867.9071	908.6551	958.3792	992.5007	1020.8172	1057.8722	1081.2949	1120.1074	1129.3152	1171.0808	1187.1473	1210.3654	1225.5159	1250.5033	1278.1977	1340.6298	1379.0142	1467.9514	1481.4886	1519.5435	1718.2951	2332.6623	2997.0013	3014.0369	3064.0099	3072.0569	3079.6487	3135.467	3154.5801
N#CC1=C2CCC2OC1	N#C[C]1[C]2CC[C@H]2OC1	
InChI=1S/C7H7NO/c8-3-5-4-9-7-2-1-6(5)7/h7H,1-2,4H2	InChI=1S/C7H7NO/c8-3-5-4-9-7-2-1-6(5)7/h7H,1-2,4H2/t7-/m1/s1
