15
gdb 27232	3.49079	1.62152	1.1148	2.6746	74.91	-0.1927	-0.0124	0.1803	1014.4487	0.115754	-416.851092	-416.844358	-416.843414	-416.882073	26.769	
O	 0.0873244608	 1.3700418002	-0.0049631947	-0.435256
C	 0.0710839427	 0.0190579895	-0.055976237	 0.204614
C	 0.0365631382	-0.7744203168	-1.1717922562	 0.240628
C	 0.0009064861	-0.8498302772	-2.6700926691	-0.422366
C	-0.0211099125	-2.3577839771	-2.8870510319	-0.12908
C	-0.0011304891	-3.0041368528	-1.7152526337	-0.017748
N	 0.0337715342	-2.0714554093	-0.6646778743	-0.015457
C	 0.0656303085	-2.0002066563	 0.6883480528	-0.02179
N	 0.0890190553	-0.7374590177	 1.0864227763	-0.363779
H	 0.1114602574	 1.5997670378	 0.9319978398	 0.299108
H	-0.8823801175	-0.3656501068	-3.108383526	 0.137132
H	 0.8735708439	-0.3854545869	-3.1491988936	 0.137127
H	-0.0489740515	-2.8279819627	-3.8592086104	 0.114751
H	-0.0080898914	-4.0627526786	-1.5029087539	 0.138082
H	 0.0707401649	-2.8668686453	 1.330187492	 0.134033
147.0682	220.6867	284.3993	351.5994	382.2408	470.6432	538.2485	625.2291	656.7884	677.812	700.6105	739.2396	761.2886	823.4061	871.3872	909.279	936.3334	960.6621	1074.053	1095.7375	1145.0159	1161.4222	1243.0432	1250.5266	1313.2089	1326.4926	1348.0231	1401.6182	1456.3163	1468.8785	1508.9827	1648.515	1702.9265	3012.8903	3030.755	3237.6372	3261.6024	3263.5492	3801.8906
OC1=C2CC=CN2C=N1	Oc1c2CC=Cn2cn1	
InChI=1S/C6H6N2O/c9-6-5-2-1-3-8(5)4-7-6/h1,3-4,9H,2H2	InChI=1S/C6H6N2O/c9-6-5-2-1-3-8(5)4-7-6/h1,3-4,9H,2H2
