16
gdb 123492	5.03823	0.95308	0.90282	0.4308	70.28	-0.2434	-0.026	0.2174	1289.533	0.125455	-434.027927	-434.020317	-434.019373	-434.061496	27.368	
C	-0.0876299709	 1.5474730944	-0.2881411562	-0.266755
N	-0.1018798896	 0.086547215	-0.2664410045	-0.063511
C	-0.2375014896	-0.5270294279	 1.0524912419	-0.218319
C	-1.377714115	-0.5242288176	 0.0947528332	-0.220259
C	 1.3080969262	 2.0555146866	-0.1033260584	 0.385353
N	 1.6994931379	 2.6005670747	 1.0188911853	-0.170915
O	 3.0440669391	 2.9122056852	 0.7824083303	-0.151576
C	 3.2969153171	 2.5148092968	-0.466184994	 0.105204
N	 2.2878657811	 1.982892033	-1.0747791912	-0.29103
H	-0.4555712115	 1.8773134701	-1.2652343307	 0.13178
H	-0.7248379085	 1.9951546835	 0.4916488947	 0.111712
H	 0.3475018066	-1.4277678069	 1.2117880243	 0.122383
H	-0.3073513406	 0.1312635957	 1.916488596	 0.124071
H	-2.2144483964	 0.135085646	 0.320539319	 0.112297
H	-1.6413895318	-1.4212650566	-0.4575996822	 0.122669
H	 4.2973213959	 2.6768495782	-0.8401842475	 0.166895
44.8949	68.8444	123.1547	292.7374	322.3313	375.8906	420.5005	635.4916	695.9555	767.5897	801.4826	844.762	904.8827	909.5659	913.2035	978.0673	987.0466	1020.2147	1028.3526	1054.3633	1112.9733	1120.043	1142.8788	1171.514	1177.879	1262.6001	1299.5098	1317.2349	1359.4223	1397.4892	1478.201	1493.652	1519.4302	1525.7196	1600.7729	2975.7833	3076.5272	3096.9247	3104.0171	3182.6062	3197.2533	3266.7152
C(N1CC1)C1=NOC=N1	C(N1CC1)c1nocn1	
InChI=1S/C5H7N3O/c1-2-8(1)3-5-6-4-9-7-5/h4H,1-3H2	InChI=1S/C5H7N3O/c1-2-8(1)3-5-6-4-9-7-5/h4H,1-3H2
