19
gdb 60325	3.97874	0.68884	0.61486	3.8341	78.96	-0.227	-0.0856	0.1415	1788.0233	0.156492	-419.21116	-419.200767	-419.199823	-419.247916	35.772	
C	 0.0918716563	 1.4816573393	 0.0612820088	-0.322011
N	-0.0073963385	 0.0306904518	-0.0017841803	-0.059903
C	 0.7556534201	-0.5908240358	 1.0718882836	-0.317853
C	-1.3841894161	-0.4460572697	-0.0169795589	-0.142363
C	-2.0872330603	-0.1344163918	-1.339893992	-0.322009
C	-3.4169305636	-0.8326120585	-1.4753476118	 0.293382
O	-3.9008035821	-1.5856895152	-0.6686630556	-0.265228
C	-4.1428955811	-0.5309557623	-2.7328415822	 0.230702
N	-4.6994361153	-0.2853045856	-3.716159109	-0.294293
H	 1.1452721714	 1.7757931742	 0.0426450017	 0.124758
H	-0.3919980456	 1.942691592	-0.8042865038	 0.118205
H	-0.3649609895	 1.9068679577	 0.975872449	 0.095574
H	 0.3791435817	-0.3347817958	 2.080618651	 0.096307
H	 0.7281888067	-1.67955975	 0.9667421452	 0.121959
H	 1.8000101933	-0.2695112544	 1.0125489431	 0.121087
H	-1.3718461681	-1.5318553387	 0.1146117497	 0.122284
H	-1.9819073213	-0.0411991554	 0.8219494147	 0.094436
H	-2.2666198677	 0.939021545	-1.4830456623	 0.146918
H	-1.4554345503	-0.4365158468	-2.186835451	 0.158049
33.9438	64.1551	94.8013	118.9458	189.978	241.1628	257.7318	271.6888	278.3302	360.4667	387.8194	463.2457	499.8783	575.9926	615.4281	791.7285	807.8719	887.9229	1025.0928	1053.9979	1064.3385	1078.4717	1092.0402	1121.8906	1163.1332	1200.0366	1254.3419	1306.7689	1328.7771	1340.8106	1416.6318	1444.2151	1446.2233	1476.6109	1483.8457	1492.5724	1499.7052	1505.2058	1513.2072	1798.3402	2337.294	2921.8693	2923.3912	2935.304	3028.2238	3058.0106	3063.5453	3071.8595	3085.0543	3108.1721	3112.0823
CN(C)CCC(=O)C#N	CN(C)CCC(=O)C#N	
InChI=1S/C6H10N2O/c1-8(2)4-3-6(9)5-7/h3-4H2,1-2H3	InChI=1S/C6H10N2O/c1-8(2)4-3-6(9)5-7/h3-4H2,1-2H3
