27
gdb 104610	2.07613	1.08795	0.93668	0.1819	95.75	-0.2592	0.0777	0.337	1505.3437	0.250519	-353.55693	-353.545777	-353.544833	-353.592796	42.366	
C	-0.0677680219	 0.5995719487	 0.4477915259	-0.378351
C	-0.5464061707	-0.2814647674	-0.7155193097	-0.257251
C	 0.4822403495	-0.5855710408	-1.8069741212	 0.38009
C	 0.6357470294	 0.4349415833	-2.93374147	-0.257079
C	 1.0904119606	 1.8673606095	-2.5854517991	 0.0341
C	 2.4833298104	 1.9110936571	-1.9431116178	-0.3813
C	 1.0543752573	 2.7419120381	-3.8477055072	-0.386033
C	 1.6851270077	-1.4188546745	-1.4194393171	-0.293138
C	 0.5850675188	-2.032368772	-2.2473963811	-0.319983
H	 0.8044396638	 0.1586259479	 0.9415811104	 0.114689
H	 0.2096785848	 1.606235915	 0.1264034211	 0.123402
H	-0.8576286534	 0.7001391029	 1.1996308758	 0.107432
H	-0.8939896394	-1.231973646	-0.2929669234	 0.092681
H	-1.4295735114	 0.1757732496	-1.1817310586	 0.09269
H	 1.3426087605	 0.0279211846	-3.6706282957	 0.083543
H	-0.330090418	 0.5043016413	-3.4552226982	 0.088559
H	 0.371002633	 2.2942447444	-1.874824755	 0.07419
H	 2.7746473135	 2.9415109963	-1.7122506589	 0.105291
H	 2.5260388382	 1.3337433334	-1.0163665626	 0.1228
H	 3.2378388032	 1.5012500696	-2.6260646507	 0.105765
H	 0.0554487283	 2.757512084	-4.2965382309	 0.107576
H	 1.3377769764	 3.7753585718	-3.6221180513	 0.106881
H	 1.7527548597	 2.3646782734	-4.6047482946	 0.109632
H	 2.6341730079	-1.2113736162	-1.9017060034	 0.108356
H	 1.7794180027	-1.735169353	-0.385411319	 0.106013
H	-0.0657728575	-2.7595906163	-1.7733197298	 0.104533
H	 0.7849194767	-2.2359574347	-3.2945033478	 0.104912
77.2521	79.4573	121.3065	153.8424	221.4556	225.065	238.5873	256.2123	290.5519	300.3841	356.1951	385.1542	423.7344	446.0224	510.9769	715.9764	770.8558	790.7514	816.0125	863.9691	899.4428	922.2289	929.4639	937.9591	958.485	970.1869	992.708	1025.985	1053.0283	1074.0338	1081.069	1097.6027	1136.2575	1143.2381	1190.2057	1192.999	1252.8082	1267.4354	1321.1801	1332.9699	1356.2783	1370.7832	1373.4808	1397.6748	1403.0391	1413.2428	1420.911	1468.3515	1475.2728	1480.2526	1486.7739	1493.2769	1500.1212	1502.3943	1505.9033	1508.7722	1513.1302	2992.2185	3013.7785	3015.087	3020.93	3026.6	3035.2197	3039.0046	3049.2605	3083.442	3090.8758	3097.3434	3098.5507	3116.9479	3123.5283	3123.9503	3129.329	3200.7337	3215.5234
CCC1(CC(C)C)CC1	CCC1(CC(C)C)CC1	
InChI=1S/C9H18/c1-4-9(5-6-9)7-8(2)3/h8H,4-7H2,1-3H3	InChI=1S/C9H18/c1-4-9(5-6-9)7-8(2)3/h8H,4-7H2,1-3H3
