19
gdb 34317	2.24762	1.77898	1.30048	0.8791	88.01	-0.2307	0.0145	0.2452	1059.4975	0.159572	-348.706379	-348.698329	-348.697385	-348.738664	32.161	
C	-0.1510402936	-1.2491126823	 0.0306087901	-0.487087
C	-0.1031993561	-0.0468099113	 0.0082546845	 0.320581
C	-0.0609451083	 1.406838071	-0.0109380295	 0.080817
C	-0.1601786209	 2.0193568423	 1.448531902	-0.277383
C	 1.4093082301	 2.1261584852	 1.4794642457	-0.319277
C	 1.3340696396	 2.0199398613	-0.0231865917	 0.286714
C	 1.63443351	 2.6134870433	-1.1706598547	-0.234104
C	 0.5150112608	 2.3686976223	-2.1799106731	-0.240438
C	-0.7117706466	 2.0308316059	-1.274971895	-0.293253
H	-0.1864198241	-2.3101109019	 0.0442623825	 0.190335
H	-0.6325579432	 3.0040121765	 1.4268968666	 0.109294
H	-0.629271838	 1.3914050943	 2.2077332202	 0.109984
H	 1.8602416089	 3.0254045732	 1.904160366	 0.111347
H	 1.8490899265	 1.2440604897	 1.9549678261	 0.124624
H	 2.4860879751	 3.253362699	-1.3714893854	 0.09497
H	 0.3293143318	 3.2477231212	-2.8060149645	 0.102577
H	 0.7482753315	 1.541603602	-2.8641152216	 0.114813
H	-1.4376460394	 1.3732673526	-1.7584291792	 0.103944
H	-1.2231409244	 2.9591229457	-0.998332849	 0.101543
98.3003	139.1041	201.6702	245.23	313.7431	362.1604	487.3448	526.6562	554.2595	602.7197	627.0731	640.2942	673.8861	730.2487	780.8514	828.5844	862.0251	895.8493	902.9148	934.2054	942.7143	983.4737	1010.4128	1073.2815	1105.0723	1114.9582	1144.3753	1190.5991	1209.9765	1226.581	1253.2554	1256.8651	1289.2495	1308.2231	1326.8133	1466.9898	1477.7625	1480.0207	1493.0207	1741.2134	2223.8648	3016.7163	3045.8912	3056.5546	3068.6577	3070.3036	3111.0115	3112.3558	3138.1521	3195.8984	3502.734
C#CC12CCC1=CCC2	C#C[C@@]12CC[C]1[CH]CC2	
InChI=1S/C9H10/c1-2-9-6-3-4-8(9)5-7-9/h1,4H,3,5-7H2	InChI=1S/C9H10/c1-2-9-6-3-4-8(9)5-7-9/h1,4H,3,5-7H2/t9-/m1/s1
