16
gdb 65411	4.03142	1.00563	0.93507	1.805	74.34	-0.2782	-0.0063	0.2719	1239.0704	0.123025	-396.919387	-396.910299	-396.909355	-396.953413	32.377	
C	 0.9042413365	 0.6072686281	-1.8985280516	-0.484482
C	 0.4163518788	-0.4445001519	-0.9155249557	 0.136374
C	 1.1680697769	-1.7330118004	-0.7207446661	-0.279028
N	 1.1037894423	-0.7543878109	 0.3495189922	-0.106707
C	 2.2778136487	-0.0099013349	 0.7964285871	-0.264845
C	 3.4627117502	-0.0345163692	-0.0784938721	 0.255366
N	 4.3818455139	-0.0996602921	-0.7766274442	-0.312596
C	-1.0311737851	-0.4764346574	-0.7777179646	 0.282288
N	-2.184217658	-0.4905333564	-0.7006213072	-0.331355
H	 1.9814001754	 0.5456922555	-2.0544292209	 0.163658
H	 0.4099566121	 0.4618643537	-2.8630358961	 0.154433
H	 0.6524787593	 1.6124134637	-1.54615718	 0.143703
H	 0.633899016	-2.6608765733	-0.5406962153	 0.145821
H	 2.0938997454	-1.8261070526	-1.2857278545	 0.150709
H	 1.9896904422	 1.0302624464	 0.9798364903	 0.170659
H	 2.5787296353	-0.4284870782	 1.7635337488	 0.176002
68.8522	107.0059	166.0732	175.7304	190.6193	245.1203	327.3998	371.4989	397.5571	410.6509	548.1587	570.3946	642.1782	668.331	760.5665	868.3634	903.0868	936.6564	989.7542	1003.087	1094.8726	1112.9552	1147.1776	1173.3424	1251.5343	1294.7481	1346.6834	1375.6315	1422.2295	1460.5663	1489.606	1500.8339	1503.597	2350.0908	2359.5811	3049.0846	3052.1248	3089.9524	3104.1559	3115.6285	3155.5558	3200.6976
CC1(CN1CC#N)C#N	C[C@]1(CN1CC#N)C#N	
InChI=1S/C6H7N3/c1-6(4-8)5-9(6)3-2-7/h3,5H2,1H3	InChI=1S/C6H7N3/c1-6(4-8)5-9(6)3-2-7/h3,5H2,1H3/t6-,9?/m1/s1
