15
gdb 44827	3.07554	1.23629	1.00448	3.8808	70.43	-0.2646	-0.0399	0.2248	1152.7152	0.112089	-416.790614	-416.782581	-416.781637	-416.824532	29.031	
O	-0.5408490941	 0.0864855214	-0.2729023414	-0.29505
C	-0.2878659031	 1.2248301122	-0.0084019038	 0.365705
C	-1.1059586303	 2.5290883677	 0.0740959455	-0.292479
N	 0.1707567587	 3.3183600055	-0.0876417332	-0.150679
C	 0.949972484	 3.0134532552	 1.1057084572	-0.268249
C	 0.9876320153	 2.0182667724	-0.0059416822	 0.199256
C	 2.2138185389	 1.7235447241	-0.8393472406	-0.451764
C	 3.2929978765	 1.1143516087	-0.0607072541	 0.266615
N	 4.1410522938	 0.6464916093	 0.5685482132	-0.298589
H	-1.7594172626	 2.6471213597	-0.7936229649	 0.151909
H	-1.6579330301	 2.752550924	 0.9904712223	 0.13903
H	 1.8404830829	 3.6245463682	 1.2226851977	 0.148845
H	 0.4381581024	 2.7719515927	 2.0346701864	 0.135033
H	 1.9474669114	 1.0524258073	-1.663374775	 0.173967
H	 2.5776385864	 2.6574589816	-1.2820587869	 0.17645
25.1513	114.2217	147.2659	225.4724	316.4565	374.8197	424.5484	475.6818	523.6862	545.6365	667.2583	738.5585	768.6333	867.195	888.9731	915.5098	947.8839	994.6307	1024.5702	1046.7851	1095.7148	1132.1187	1182.8051	1198.1345	1243.6703	1299.2942	1328.6457	1364.0917	1447.9214	1463.0528	1507.9051	1892.698	2367.8101	3047.5766	3068.5308	3091.3529	3106.8814	3130.8761	3199.3058
O=C1CN2CC12CC#N	O=C1CN2C[C@@]12CC#N	
InChI=1S/C6H6N2O/c7-2-1-6-4-8(6)3-5(6)9/h1,3-4H2	InChI=1S/C6H6N2O/c7-2-1-6-4-8(6)3-5(6)9/h1,3-4H2/t6-,8?/m0/s1
