16
gdb 47632	2.44746	1.70183	1.14389	5.5139	74.83	-0.2533	-0.0708	0.1825	1057.7777	0.12527	-437.905439	-437.897697	-437.896753	-437.93808	29.077	
N	-0.0575229062	 0.9133211445	-0.9818166715	-0.472598
C	 0.0390257709	 0.0520675603	-0.0621575968	 0.304923
O	 1.1728371776	-0.6706859853	 0.1378804611	-0.243097
C	 1.3161156987	-1.4371278495	 1.3354889991	-0.109998
C	 0.626216137	-2.7895925193	 1.2323455856	-0.260811
C	-0.8701487987	-2.720068335	 1.1832001653	-0.047643
C	-1.6295187545	-1.6297552275	 1.027129682	-0.13364
C	-1.2085403377	-0.225999646	 0.7829189774	 0.273127
O	-1.9082629103	 0.6963794149	 1.1357461273	-0.297418
H	 0.8240919128	 0.9762075968	-1.4975435282	 0.227385
H	 2.3933034509	-1.5676512158	 1.4613773164	 0.12794
H	 0.939594056	-0.8723130293	 2.197871779	 0.12991
H	 1.0066866448	-3.324359682	 0.3506161936	 0.138888
H	 0.9206323265	-3.4002189013	 2.0970420858	 0.124596
H	-1.3803351826	-3.6674738173	 1.3459925723	 0.11318
H	-2.7088706954	-1.7161972284	 1.1178262614	 0.125258
69.2237	105.0943	252.9572	272.0453	331.8239	386.4101	416.3989	426.3022	565.6493	585.1077	650.1396	699.5528	787.4055	849.4028	857.5913	917.4941	919.2351	981.0489	1019.7497	1043.2005	1080.9448	1115.1481	1182.3561	1228.739	1247.7753	1299.0929	1345.0841	1392.4339	1403.6056	1425.2206	1450.9983	1503.5607	1696.7092	1728.2355	1773.9672	3014.8065	3028.7955	3047.3186	3108.1846	3146.8074	3177.3283	3454.2354
N=C1OCCC=CC1=O	[NH][C]1OCCC=CC1=O	
InChI=1S/C6H7NO2/c7-6-5(8)3-1-2-4-9-6/h1,3,7H,2,4H2	InChI=1S/C6H7NO2/c7-6-5(8)3-1-2-4-9-6/h1,3,7H,2,4H2
