20
gdb 89690	3.58228	1.18426	1.08072	4.4253	83.62	-0.3005	0.0293	0.3299	1187.4599	0.173288	-366.030348	-366.02241	-366.021466	-366.062513	31.697	
C	-0.1462956052	 1.5211798476	 0.0153170115	-0.419539
C	 0.0615141282	 0.0080092386	 0.0424673742	 0.042778
C	 0.993201281	-0.5502010443	-1.0889661008	-0.276657
C	 2.027989356	-1.3018515683	-0.2127709258	 0.230442
C	 1.1095661344	-2.0069290058	 0.8384355274	-0.2624
C	 0.8300490822	-0.5395129088	 1.2690682033	-0.042195
C	 2.3175444327	-0.2562165864	 0.91100742	-0.259429
C	 3.0932925209	-2.00544618	-0.8913168908	 0.157016
N	 3.9474416088	-2.5693585562	-1.4300372969	-0.347201
H	 0.8011122466	 2.0659630752	 0.0839674607	 0.118531
H	-0.6358875832	 1.830788791	-0.9139724399	 0.120911
H	-0.7794281824	 1.8458995554	 0.8480231257	 0.116985
H	-0.9197499624	-0.4765996019	-0.0116764857	 0.075948
H	 0.4792193273	-1.2223413684	-1.7799922203	 0.114976
H	 1.4649029589	 0.2441212698	-1.6739714919	 0.113989
H	 0.2785016423	-2.6050618272	 0.4553425777	 0.104543
H	 1.6835752769	-2.5728764253	 1.5740640685	 0.116083
H	 0.4286117439	-0.3033302446	 2.2541379745	 0.070549
H	 3.0134576108	-0.6391706601	 1.6590973781	 0.117173
H	 2.6115154522	 0.7480121999	 0.5983301606	 0.107495
126.6103	146.4568	219.485	229.6953	293.7646	403.3699	458.6707	485.1903	528.2961	549.8311	567.7346	650.3418	794.7915	831.0422	841.7092	898.2598	907.5583	937.3679	961.1108	989.8021	997.5939	1027.0915	1047.6011	1084.1288	1126.5848	1146.7823	1155.5603	1184.5039	1215.4195	1225.0071	1241.6344	1244.5862	1273.6853	1319.0661	1329.2119	1381.2782	1414.3378	1485.7274	1494.4571	1499.6321	1501.3665	1526.5346	2351.1841	3031.1397	3036.0366	3062.0931	3063.9811	3074.41	3097.8258	3101.2706	3112.2351	3122.0239	3132.0088	3137.718
CC1CC2(CC1C2)C#N	C[C@H]1C[C@@]2(C[C@H]1C2)C#N	
InChI=1S/C8H11N/c1-6-2-8(5-9)3-7(6)4-8/h6-7H,2-4H2,1H3	InChI=1S/C8H11N/c1-6-2-8(5-9)3-7(6)4-8/h6-7H,2-4H2,1H3/t6-,7-,8-/m0/s1
