26
gdb 59990	2.36085	0.99271	0.83899	0.9443	93.34	-0.2289	0.0793	0.3082	1571.4832	0.238717	-369.594136	-369.583138	-369.582194	-369.630167	41.142	
C	 0.8282378035	-0.2438940958	-1.2583431717	-0.387764
C	-0.1441595049	-0.1811697993	-0.0713334311	 0.030839
C	-1.3764951068	-1.054364406	-0.3488105519	-0.384963
C	 0.5848966499	-0.5839996816	 1.2242292059	-0.161538
C	-0.153693993	-0.3664156251	 2.5558009533	 0.038583
C	 0.6574789555	-0.9583556341	 3.7126339673	-0.388476
N	-0.3373465148	 1.0693023301	 2.800004052	-0.057639
C	-1.5831445826	 1.6866397099	 2.3573090014	-0.221359
C	-1.3290762018	 1.4423523269	 3.8019338462	-0.228328
H	 1.209001039	-1.2629374337	-1.3996561284	 0.10869
H	 0.3377126377	 0.0577400841	-2.1899749076	 0.106003
H	 1.6896623489	 0.4140064477	-1.1033727511	 0.110913
H	-0.4736425335	 0.8600923673	 0.0300168553	 0.085324
H	-1.0886591569	-2.1066771428	-0.4645219578	 0.109133
H	-2.1153049427	-1.0028978699	 0.4565642915	 0.109664
H	-1.875847935	-0.7454092448	-1.2732600458	 0.108863
H	 0.853655422	-1.6474469239	 1.1537850391	 0.082713
H	 1.5286565051	-0.0280091762	 1.2870704653	 0.096889
H	-1.132633684	-0.8808738344	 2.5242771385	 0.053014
H	 0.8116343191	-2.0318245432	 3.5677713594	 0.110159
H	 1.6365254858	-0.4729078061	 3.7776130668	 0.122836
H	 0.1459048951	-0.8152727781	 4.6691214005	 0.110641
H	-1.4958208187	 2.6852620972	 1.9378756524	 0.11386
H	-2.3298880084	 1.056501717	 1.8771543112	 0.111906
H	-1.9059486178	 0.6477454343	 4.2741376248	 0.106455
H	-1.0534456204	 2.2572982506	 4.4654282344	 0.113582
58.4868	85.338	115.6967	169.0214	205.6613	220.6167	233.407	256.8058	288.5641	311.8889	341.7301	409.9868	416.7167	496.8414	536.2545	713.2823	815.8353	824.851	877.4532	903.4116	910.9195	928.9532	965.2098	968.533	997.9599	1020.8091	1034.8255	1080.3148	1111.143	1118.8897	1122.6943	1151.2075	1174.5319	1181.2065	1192.5272	1203.8885	1276.5147	1309.8451	1317.865	1357.3221	1362.6892	1382.5566	1397.3821	1402.0645	1408.4609	1423.8522	1466.4656	1486.8661	1488.6545	1490.9257	1494.0747	1500.381	1504.3379	1509.8931	1519.1743	2919.728	3006.1257	3021.3037	3025.0783	3033.731	3037.8765	3055.8315	3084.8244	3088.7461	3092.793	3096.0822	3098.029	3101.0853	3109.1815	3112.6676	3171.0355	3185.8761
CC(C)CC(C)N1CC1	CC(C)C[C@@H](C)N1CC1	
InChI=1S/C8H17N/c1-7(2)6-8(3)9-4-5-9/h7-8H,4-6H2,1-3H3	InChI=1S/C8H17N/c1-7(2)6-8(3)9-4-5-9/h7-8H,4-6H2,1-3H3/t8-/m1/s1
