18
gdb 10980	2.89463	2.41349	1.75526	1.0735	71.72	-0.2259	0.0146	0.2405	821.819	0.153827	-347.769856	-347.762526	-347.761581	-347.800743	29.608	
C	-0.1787845295	 1.5349265077	 0.0257246014	-0.434659
C	 0.0182670102	 0.0252284106	 0.0289672826	 0.030962
C	 1.1862812275	-0.6041277812	-0.8352348055	-0.091299
C	 2.1528490478	-0.208668524	 0.3332168461	-0.287441
C	 0.8863575265	-0.6104250336	 1.1735413655	 0.374624
O	 0.6605082853	-0.2001449444	 2.4844837561	-0.493803
C	 0.7756497698	-2.0999832733	 0.7971811477	-0.167603
C	 0.9747583248	-2.0910062154	-0.5234719622	-0.082252
H	 0.7526703591	 2.0989733217	 0.1156416161	 0.117332
H	-0.6715191778	 1.8504705284	-0.9005389386	 0.112488
H	-0.822769566	 1.8282818716	 0.8613412107	 0.130053
H	-0.9456081527	-0.4730313256	-0.1103688985	 0.067983
H	 1.3693320662	-0.2987018833	-1.8638002684	 0.062555
H	 3.0519995837	-0.8165722056	 0.4580789603	 0.08667
H	 2.3931395212	 0.8552790932	 0.3804114727	 0.098445
H	 1.2884153168	-0.6506767687	 3.0592568053	 0.27893
H	 0.5552016507	-2.9101556027	 1.4787340278	 0.096866
H	 0.9727727166	-2.9043134156	-1.2355990992	 0.100149
167.3218	202.6133	225.051	272.8359	380.1524	382.5037	475.8319	537.0939	561.7975	639.2519	672.3875	699.7881	795.6231	835.0452	874.6589	900.6398	911.6926	926.8348	994.498	1035.9974	1053.4193	1055.4807	1082.596	1108.7736	1130.6883	1160.2154	1214.1646	1233.7556	1244.9108	1267.4841	1321.3957	1349.5464	1383.8603	1407.0154	1486.4183	1495.118	1508.6175	1625.5891	3036.1281	3059.5764	3066.8377	3096.6967	3116.9222	3131.892	3134.1934	3212.0095	3239.7262	3807.6188
CC1C2CC1(O)C=C2	C[C@H]1[C@H]2C[C@]1(O)C=C2	
InChI=1S/C7H10O/c1-5-6-2-3-7(5,8)4-6/h2-3,5-6,8H,4H2,1H3	InChI=1S/C7H10O/c1-5-6-2-3-7(5,8)4-6/h2-3,5-6,8H,4H2,1H3/t5-,6+,7+/m0/s1
