18
gdb 41022	3.14851	1.97248	1.48494	1.4491	75.76	-0.2337	0.0579	0.2916	902.0799	0.150014	-401.822198	-401.815893	-401.814949	-401.85252	26.734	
C	 0.0701445189	 1.5232054327	 0.1582205842	-0.239071
O	 1.4821077578	 1.4292979475	-0.2325825147	-0.313671
C	 1.1961688503	 0.125785215	-0.8508134285	 0.120237
C	 1.8744753491	-1.2402177293	-0.6556202507	-0.318274
C	 0.7085991255	-1.8830810774	 0.1350375273	 0.025825
C	 0.3708710293	-0.9260337056	 1.2844563653	-0.098935
C	-1.0788920295	-1.4103194639	 1.1948354767	-0.187591
N	-0.726772352	-1.2827961263	-0.2914886438	-0.248721
C	 0.0371109372	-0.0099366289	 0.0746879131	 0.356709
H	-0.055578933	 1.9917846431	 1.1378910257	 0.115509
H	-0.5169963651	 2.0522276384	-0.6026691139	 0.112889
H	 0.9175662956	 0.2901593069	-1.8991505617	 0.086176
H	 2.1213197996	-1.7328687221	-1.598730712	 0.1117
H	 2.7705975937	-1.2142597781	-0.0276268768	 0.123412
H	 0.6848332471	-2.9645615778	 0.2787904951	 0.082216
H	 0.9865189196	-0.6959734845	 2.1611807098	 0.070164
H	-1.2986654703	-2.4336633888	 1.5132898942	 0.098724
H	-1.8784583038	-0.7297370408	 1.5000006207	 0.102702
189.98	298.5458	308.7572	349.6581	463.8775	544.432	615.2083	668.4114	699.4492	770.0863	783.6557	856.0085	899.0067	905.6748	925.9352	930.0777	956.7385	1001.0402	1021.5613	1055.3442	1063.2481	1079.4428	1103.359	1120.725	1141.6853	1175.7376	1191.7152	1199.2318	1240.4388	1247.9064	1258.0872	1274.7794	1292.0881	1327.2271	1346.5774	1388.3123	1476.0936	1508.8235	1530.8419	3022.4675	3029.3984	3038.0691	3052.2204	3060.7786	3099.8529	3108.4193	3110.6676	3116.7172
C1OC2CC3C4CN3C124	C1O[C@H]2C[C@H]3[C@@H]4CN3[C@]124	
InChI=1S/C7H9NO/c1-5-4-2-8(5)7(4)3-9-6(1)7/h4-6H,1-3H2	InChI=1S/C7H9NO/c1-5-4-2-8(5)7(4)3-9-6(1)7/h4-6H,1-3H2/t4-,5-,6-,7-/m0/s1
