25
gdb 122141	2.06109	0.85735	0.66916	2.1357	86.36	-0.2478	0.0753	0.3231	1826.1721	0.226467	-426.628079	-426.616357	-426.615413	-426.666379	41.348	
C	 1.5000955411	 0.2394635566	-1.6406110607	-0.382798
C	 0.7480662662	-0.7250927451	-0.7203054859	-0.183474
C	 1.6175200894	-1.2321600053	 0.4226069536	-0.045022
O	 0.8417382157	-2.1010095248	 1.2311851494	-0.272942
C	 1.5207710689	-2.6538266405	 2.3642072155	 0.099068
C	 0.4713042602	-2.9332386843	 3.4414150321	-0.170073
C	-0.2840328997	-1.68288821	 3.8949339164	-0.38746
C	 2.2571234487	-3.9244294522	 1.9176853021	-0.067235
O	 1.3720034093	-4.8284793818	 1.2849011165	-0.422758
H	 2.3724617562	-0.2413459416	-2.0968136019	 0.117838
H	 0.8552796968	 0.5924447706	-2.4502982989	 0.119521
H	 1.8557205098	 1.1188512217	-1.0923742741	 0.11761
H	-0.1353984787	-0.2358799929	-0.2945092778	 0.108729
H	 0.3825022821	-1.5866239962	-1.2913772055	 0.103495
H	 2.5039423945	-1.7489616262	 0.0212507971	 0.090612
H	 1.9839509971	-0.3871676498	 1.0285839984	 0.090362
H	 2.253365638	-1.9234721888	 2.7449556525	 0.062124
H	-0.2252124266	-3.6830082501	 3.0518996579	 0.112908
H	 0.981588321	-3.3974971498	 4.2942696082	 0.093975
H	-0.7920428968	-1.2123788428	 3.0495276658	 0.128427
H	-1.0350501602	-1.9305875554	 4.6511117232	 0.110934
H	 0.3962315158	-0.9429957584	 4.3327767355	 0.106032
H	 3.0924518722	-3.6546495828	 1.250605854	 0.081443
H	 2.6868943985	-4.437294158	 2.7851327452	 0.103913
H	 0.8320415907	-4.283921302	 0.6973995214	 0.284771
39.2713	51.6131	96.5169	109.5689	130.9088	144.6685	220.3743	224.3121	237.2376	287.3341	335.2501	361.6057	425.5554	481.1879	506.1269	679.902	763.8578	776.4282	850.9675	897.2327	901.6529	913.2029	963.1129	997.0538	1044.1585	1057.2356	1090.1918	1110.3252	1130.1406	1148.2022	1181.9691	1191.9102	1228.1396	1268.2945	1286.1029	1307.999	1316.6731	1333.128	1364.9786	1368.5121	1403.9157	1406.9643	1413.6832	1429.2102	1444.3434	1482.5276	1491.3625	1497.7393	1500.5166	1506.3131	1508.8018	1510.8185	1527.5895	2960.9024	2962.4067	2979.9695	2996.0223	3032.4874	3033.7491	3035.9229	3037.4936	3067.7457	3071.0714	3079.1426	3100.3174	3100.7529	3109.9082	3124.1234	3768.7444
CCCOC(CC)CO	CCCO[C@@H](CC)CO	
InChI=1S/C7H16O2/c1-3-5-9-7(4-2)6-8/h7-8H,3-6H2,1-2H3	InChI=1S/C7H16O2/c1-3-5-9-7(4-2)6-8/h7-8H,3-6H2,1-2H3/t7-/m0/s1
