18
gdb 50938	2.11156	1.27594	0.87852	1.3711	74.7	-0.2417	-0.0441	0.1976	1308.4679	0.14565	-439.090597	-439.081266	-439.080321	-439.126167	32.761	
O	-0.447083133	-0.0286280562	 0.1791507873	-0.231077
C	-0.2731643939	 1.1068608499	-0.1717249752	 0.168947
C	 1.0791344985	 1.8172025297	-0.111699095	-0.285065
N	 1.2518514653	 2.8022830692	-1.1534500501	-0.050952
C	 1.2229689208	 4.1420619118	-0.8652108783	 0.145809
O	 1.3462739441	 5.0321156242	-1.6762357711	-0.331221
C	 1.4662598163	 2.4105379984	-2.5286925437	 0.060928
C	 2.6956161252	 1.651017708	-2.9553583904	-0.27087
C	 1.3365322314	 0.9860669433	-2.9925211473	-0.315693
H	-1.1000583383	 1.7466365109	-0.5556769159	 0.093603
H	 1.1226159353	 2.3341829384	 0.8561415966	 0.147318
H	 1.8752625093	 1.064762828	-0.1043304084	 0.140849
H	 1.0614937223	 4.3259986584	 0.2156046766	 0.075291
H	 1.1215256532	 3.1915027673	-3.1941544231	 0.137443
H	 3.1719156937	 1.9383322826	-3.8855768798	 0.128826
H	 3.383550256	 1.3254402262	-2.1824696873	 0.12025
H	 1.1471480744	 0.2012643121	-2.2696604239	 0.137263
H	 0.8584885991	 0.8191778878	-3.9512469609	 0.128351
48.177	65.262	76.9617	133.6686	218.4489	265.0905	304.8816	338.7714	425.6398	470.235	489.1827	703.2423	712.7654	775.7571	808.8655	824.8809	928.0228	967.8955	1022.466	1039.9498	1054.6048	1063.0062	1090.5281	1100.5321	1141.1126	1193.9138	1211.9164	1229.8952	1300.1876	1334.4657	1362.3232	1404.4215	1435.7146	1447.6058	1464.9056	1469.7618	1509.9942	1798.6724	1840.7877	2883.4263	2932.5343	3028.2627	3076.7091	3138.8744	3144.9124	3199.7037	3219.8144	3234.2449
O=CCN(C=O)C1CC1	O=CCN(C=O)C1CC1	
InChI=1S/C6H9NO2/c8-4-3-7(5-9)6-1-2-6/h4-6H,1-3H2	InChI=1S/C6H9NO2/c8-4-3-7(5-9)6-1-2-6/h4-6H,1-3H2
