15
gdb 70140	2.50266	2.02591	1.28435	2.3868	67.16	-0.2368	-0.0225	0.2143	939.4912	0.114219	-453.978833	-453.971571	-453.970627	-454.010322	28.538	
O	 0.0780628208	 1.3622642253	-0.172572928	-0.472189
C	 0.0318083593	-0.0167682107	-0.0747964834	 0.313768
C	-0.5278890333	-0.7980959449	-1.2351212974	-0.344297
C	-1.32624411	-0.7532615365	 0.0444774122	-0.066816
N	-1.4338555433	-1.9326440632	 0.8299382348	-0.219045
C	-0.3658579511	-2.4382612839	 1.2945843987	 0.07113
N	 0.9115213667	-1.8816644854	 1.1884841623	-0.35203
C	 1.1243610714	-0.5880854406	 0.7449814115	 0.361615
O	 2.1130686232	 0.0586120997	 1.0461367987	-0.387936
H	 0.9290454859	 1.6125210891	 0.2203990015	 0.299509
H	-0.8867333194	-0.1808579762	-2.0505320889	 0.143358
H	-0.0710188208	-1.7393442455	-1.5213590308	 0.130931
H	-2.2102635185	-0.1250605982	 0.0440787369	 0.122619
H	-0.3962101528	-3.3700773492	 1.8549232667	 0.133861
H	 1.6549286319	-2.2639891099	 1.7571998252	 0.265522
109.2554	209.1688	294.7297	320.2763	338.794	411.4637	472.7718	513.5583	533.3392	587.7167	654.9381	688.4909	765.0442	838.1752	846.0396	903.4143	906.0865	943.3733	993.7262	1051.7934	1068.1215	1092.7988	1153.772	1201.1777	1231.1434	1306.9996	1399.3313	1415.6852	1441.3508	1454.5829	1471.289	1725.8001	1778.0651	3135.097	3160.4416	3176.6593	3234.7689	3600.4247	3706.5574
OC12CC1N=CNC2=O	O[C@]12C[C@H]1N=CNC2=O	
InChI=1S/C5H6N2O2/c8-4-5(9)1-3(5)6-2-7-4/h2-3,9H,1H2,(H,6,7,8)	InChI=1S/C5H6N2O2/c8-4-5(9)1-3(5)6-2-7-4/h2-3,9H,1H2,(H,6,7,8)/t3-,5-/m1/s1
