18
gdb 32251	2.55313	1.55737	0.97917	3.2803	82.61	-0.2369	-0.003	0.234	1192.1549	0.148944	-402.00967	-402.001285	-402.000341	-402.042689	31.143	
C	-0.0249909417	 1.3853344362	 0.1081568611	-0.250294
O	 0.0260626596	-0.02753449	 0.0006917818	-0.258498
C	 0.6282379537	-0.5697691807	-1.0844643899	 0.355202
C	 1.2106382997	 0.1592388553	-2.1199479923	-0.273446
C	 1.7938579235	-0.5436121923	-3.1729410462	 0.003144
N	 1.8323758503	-1.8711809639	-3.2568381657	-0.288078
C	 1.2654543487	-2.5458589885	-2.2484842898	-0.050067
C	 0.6506320509	-1.9750232196	-1.1403388469	 0.157761
C	 0.0351056851	-2.8030263231	-0.0466008545	-0.490904
H	 0.9804487152	 1.8220345771	 0.1450737761	 0.130978
H	-0.5801521994	 1.8318792766	-0.725733587	 0.130977
H	-0.5452938129	 1.5982492118	 1.0430104001	 0.14012
H	 1.2198192719	 1.2411901102	-2.1242802816	 0.098377
H	 2.2537875933	 0.0068700843	-3.9909564818	 0.10387
H	 1.3006906184	-3.6316609434	-2.3237973312	 0.099461
H	 0.5008536938	-2.5936615644	 0.922452893	 0.134401
H	-1.032107205	-2.5840257667	 0.067039197	 0.134402
H	 0.1473865049	-3.8691074289	-0.2598215923	 0.122595
99.8115	131.6043	173.0196	222.0039	238.8657	293.1427	315.1187	443.5295	499.7113	509.4809	591.8374	622.5989	774.0046	777.3113	838.8576	842.7427	947.2427	983.3639	1012.4255	1067.0205	1071.0116	1088.5392	1177.0352	1206.6076	1210.8571	1225.3474	1294.0912	1325.9544	1346.1232	1415.8435	1439.5164	1475.722	1477.894	1492.0576	1493.2426	1505.5257	1534.9988	1615.0108	1627.9218	3013.6736	3034.2648	3077.0236	3087.0514	3117.9602	3138.9376	3139.8102	3149.1703	3214.0571
COC1=CC=NC=C1C	COc1ccncc1C	
InChI=1S/C7H9NO/c1-6-5-8-4-3-7(6)9-2/h3-5H,1-2H3	InChI=1S/C7H9NO/c1-6-5-8-4-3-7(6)9-2/h3-5H,1-2H3
