14
gdb 130348	3.13153	1.64712	1.17362	3.8881	64.3	-0.2339	-0.0496	0.1843	983.1207	0.102323	-469.947482	-469.940252	-469.939308	-469.979571	26.905	
N	-0.1831563903	 1.5392910561	-0.0805829904	-0.498013
C	 0.0533775324	 0.099487382	 0.0157772052	-0.162173
C	-1.3020648444	-0.7144731169	-0.0300445734	-0.094326
O	-1.40088428	-1.4528121504	-1.2929042901	-0.273191
C	-0.1630484779	-1.3481221602	-1.8135877326	 0.3554
C	 0.7197623742	-0.5678685395	-1.1561038692	 0.271579
O	 1.8621332903	-0.5497715588	-1.8207773646	-0.2362
N	 1.6174952248	-1.4232872861	-2.9922888232	-0.032342
N	 0.4277800417	-1.8487787682	-2.9260012926	-0.213786
H	 0.6892805197	 2.0449957918	 0.0425283336	 0.244509
H	-0.5249647677	 1.776124565	-1.008859689	 0.238693
H	 0.5636823123	-0.0836207883	 0.9655342437	 0.119014
H	-1.3451995981	-1.4487040934	 0.7780472396	 0.13699
H	-2.157393607	-0.0405815031	 0.0358015931	 0.143844
68.8568	144.0587	264.3282	295.1808	340.0874	425.2496	451.5638	524.8169	628.9145	664.2576	709.3947	753.9138	769.7155	867.3723	893.9275	964.5438	993.4055	1008.7008	1109.4399	1169.5385	1206.5704	1246.263	1255.1407	1322.0272	1369.6844	1407.4433	1418.34	1479.5949	1505.7157	1654.9355	1662.8344	3066.4375	3077.969	3140.6789	3485.3998	3568.2147
NC1COC2=C1ON=N2	N[C@H]1COc2c1onn2	
InChI=1S/C4H5N3O2/c5-2-1-8-4-3(2)9-7-6-4/h2H,1,5H2	InChI=1S/C4H5N3O2/c5-2-1-8-4-3(2)9-7-6-4/h2H,1,5H2/t2-/m0/s1
