17
gdb 49597	2.99656	1.49568	1.20297	4.3396	72.08	-0.2282	-0.0118	0.2164	1034.5212	0.137627	-417.957306	-417.950007	-417.949063	-417.989537	28.354	
O	-0.1220232432	 0.0358280203	-0.0020493876	-0.262668
C	-0.0079363728	 1.2364992008	 0.0094318117	 0.156721
C	 1.3250521287	 1.9622922015	-0.001633486	-0.084636
C	 1.4844820125	 2.8981439864	-1.2122823479	-0.080661
N	 0.4584018113	 3.9498953238	-1.3335253981	-0.308982
C	 1.7641097645	 4.2824901307	-0.7347974134	-0.041846
C	 1.7869734501	 4.2626551252	 0.7785982551	-0.041866
N	 0.4997958105	 3.9140083845	 1.4075783122	-0.308987
C	 1.5213040952	 2.8661861615	 1.2278803896	-0.08059
H	-0.8852875938	 1.9116659009	 0.0297068964	 0.116724
H	 2.1166269926	 1.2073048461	-0.0233340143	 0.091387
H	 1.9264461294	 2.4911889921	-2.1162030763	 0.098191
H	 0.434263063	 4.2798086626	-2.2956508879	 0.23426
H	 2.4410369311	 4.9457064942	-1.261771707	 0.090231
H	 2.4798004026	 4.9120794203	 1.3020766302	 0.090234
H	 0.5048871322	 4.2185642687	 2.3783174766	 0.234263
H	 1.9901152461	 2.4357132006	 2.1070376468	 0.098227
64.0949	130.9218	210.6711	317.2649	386.2269	420.4665	509.4507	560.6426	698.0881	743.3927	763.2287	830.7565	858.2957	860.9136	878.9354	906.442	906.9641	951.3907	981.935	1055.4019	1060.2759	1070.1731	1107.4458	1130.6078	1137.8747	1169.8777	1186.1714	1226.2857	1229.4294	1276.5978	1307.7961	1325.0074	1390.4929	1408.84	1417.7702	1421.2121	1819.1298	2955.6104	3074.5217	3156.4144	3159.1313	3169.2296	3182.2645	3496.2835	3497.5133
O=CC1C2NC2C2NC12	O=C[C@H]1[C@H]2N[C@H]2[C@H]2N[C@@H]12	
InChI=1S/C6H8N2O/c9-1-2-3-5(7-3)6-4(2)8-6/h1-8H	InChI=1S/C6H8N2O/c9-1-2-3-5(7-3)6-4(2)8-6/h1-8H/t2-,3+,4-,5+,6-
