19
gdb 31560	3.30028	1.09029	0.83173	0.214	80.53	-0.1711	0.0667	0.2378	1392.4369	0.15886	-419.232526	-419.222514	-419.22157	-419.267615	35.889	
C	 0.5893780883	 0.6181837771	 0.4200380815	-0.241974
O	-0.7207171481	 0.9437985039	-0.0071498963	-0.261962
C	-1.6026594966	-0.081065964	 0.0392870893	 0.422408
C	-1.5084304878	-1.4002279305	 0.4178886194	-0.406022
C	-2.8110961005	-1.9784848098	 0.2353961579	 0.262194
C	-3.2017185301	-3.3969803488	 0.514891922	-0.506973
C	-3.6371147322	-0.9888316931	-0.2445502453	 0.147726
N	-5.0030075854	-0.9369416805	-0.6128454999	-0.616663
N	-2.8806907313	 0.1708573334	-0.3598852184	-0.346337
H	 1.1820965709	 1.5295833887	 0.3288928282	 0.131674
H	 0.5924825748	 0.2801778149	 1.4643899899	 0.124176
H	 1.026105432	-0.1690831313	-0.2079749017	 0.124185
H	-0.6274260583	-1.903987138	 0.7817715444	 0.086839
H	-3.0481283232	-3.666276753	 1.5671755284	 0.120245
H	-4.2592560598	-3.5619327692	 0.2849005622	 0.100913
H	-2.6200783954	-4.1093184892	-0.0831668938	 0.120249
H	-5.6178509265	-1.1633004753	 0.1616454593	 0.240195
H	-5.2205754174	-1.5764094338	-1.3697015107	 0.240209
H	-3.2321974334	 1.0536641685	-0.6877309863	 0.258917
73.0355	81.2892	126.6927	177.3325	193.4211	228.4494	232.3205	262.371	347.4115	376.2572	451.2578	516.9449	618.1671	646.8383	657.5824	676.0548	735.302	761.6629	808.9515	990.2298	1016.2663	1060.8777	1088.8474	1161.647	1182.9794	1188.5038	1204.8398	1228.5219	1237.625	1320.8425	1411.4708	1463.8985	1465.7922	1482.2806	1484.0727	1485.6777	1501.015	1512.0626	1588.6106	1639.9551	1666.618	3005.6146	3016.1103	3061.2142	3062.8425	3093.3198	3137.122	3253.6387	3499.5294	3562.6088	3685.3229
COC1=CC(C)=C(N)N1	COc1cc(C)c(N)[nH]1	
InChI=1S/C6H10N2O/c1-4-3-5(9-2)8-6(4)7/h3,8H,7H2,1-2H3	InChI=1S/C6H10N2O/c1-4-3-5(9-2)8-6(4)7/h3,8H,7H2,1-2H3
