17
gdb 82258	3.11246	1.38748	1.06372	5.3127	80.46	-0.2536	-0.0479	0.2057	1116.4896	0.137637	-380.873955	-380.866123	-380.865178	-380.906258	30.044	
C	-0.1050752798	 1.5578855353	 0.0076490676	-0.403405
C	 0.0153652285	 0.0287506986	-0.0036141952	-0.098174
C	 0.7958298064	-0.532266565	-1.1941513007	-0.058828
N	 2.1913925268	-0.0624873863	-1.2638028606	-0.325328
C	 1.8889967383	-1.4057952745	-0.6835977904	-0.087386
C	 1.7986519227	-1.3587463726	 0.7993934649	-0.146298
C	 0.799605121	-0.5464886114	 1.1810326288	 0.18583
C	 0.4736257281	-0.2175392369	 2.5238883944	 0.220575
N	 0.1701025992	 0.0693019936	 3.6050258988	-0.344803
H	 0.884496338	 2.0125488008	-0.0796610452	 0.144867
H	-0.7199841071	 1.8986280124	-0.8309665327	 0.116094
H	-0.572618562	 1.9065664705	 0.9328967703	 0.13669
H	-0.9936429152	-0.4054407605	 0.0028284996	 0.098412
H	 0.2701217363	-0.7543025867	-2.1164481313	 0.096759
H	 2.5289598143	-0.1914764423	-2.2162367496	 0.235903
H	 2.239856388	-2.2921065313	-1.1992937447	 0.102412
H	 2.4668794566	-1.8842774038	 1.4695684061	 0.126682
109.1818	141.6137	201.586	234.2497	267.9695	378.2619	452.8709	482.5646	556.6124	605.3494	645.7261	693.5418	793.408	819.048	846.0661	867.0841	918.8387	922.0279	976.8509	1035.9707	1069.0379	1090.1472	1113.968	1132.1064	1161.0788	1179.2513	1246.5635	1281.7141	1317.7425	1337.8915	1369.8767	1399.5588	1414.2483	1494.8382	1504.9575	1658.0224	2332.8112	3016.2234	3044.5292	3112.8026	3133.9513	3168.2533	3183.1343	3221.0368	3482.9668
CC1C2NC2C=C1C#N	C[C@H]1[C@H]2N[C@H]2C=C1C#N	
InChI=1S/C7H8N2/c1-4-5(3-8)2-6-7(4)9-6/h2,4,6-7,9H,1H3	InChI=1S/C7H8N2/c1-4-5(3-8)2-6-7(4)9-6/h2,4,6-7,9H,1H3/t4-,6+,7-/m1/s1
