20
gdb 70314	3.08347	1.54598	1.29355	1.74	78.11	-0.2188	0.0891	0.3079	1052.948	0.172258	-403.119368	-403.111564	-403.11062	-403.151131	31.449	
C	 0.3743035751	 1.2989748668	-0.3656984958	-0.463698
C	-0.1737663405	-0.0259764846	 0.110779363	 0.384235
C	-1.6812105059	-0.1793801292	 0.0285074677	-0.297096
C	-2.2577923443	-1.4135698985	 0.707411013	-0.015671
C	-1.7754146927	-2.7918238517	 0.4034150481	-0.251363
N	-1.5103923247	-2.1773283412	 1.7087829174	-0.105082
C	-0.1430484868	-1.7819479343	 2.0364338377	-0.195223
C	 0.5636602959	-0.8314448902	 1.093162953	-0.000979
O	 0.5963767681	-1.1736395054	-0.3018871908	-0.292972
H	 1.465707364	 1.3030030088	-0.3106319916	 0.128781
H	 0.0836086968	 1.4841172618	-1.4058926413	 0.125607
H	-0.0112793239	 2.1244062554	 0.2421525875	 0.121549
H	-2.1244980353	 0.7126563115	 0.490054736	 0.108078
H	-1.9896169584	-0.1585183251	-1.0254632205	 0.115003
H	-3.3107525106	-1.2998359324	 0.9620910262	 0.087228
H	-2.473967755	-3.6254722012	 0.4281122276	 0.103706
H	-0.9537472291	-2.8866429154	-0.2975837628	 0.138295
H	-0.1631345396	-1.2991151778	 3.0238789764	 0.109043
H	 0.45484979	-2.6947858235	 2.1494387969	 0.117085
H	 1.509080357	-0.4395533336	 1.4755437224	 0.083474
150.1897	182.5646	220.073	302.362	312.7961	363.0732	389.6196	413.0991	477.1893	605.2594	663.4716	717.6265	737.4179	796.4921	844.3705	872.8556	928.7731	939.5627	980.8029	983.8488	1038.433	1051.948	1086.8169	1109.4822	1127.1707	1139.9674	1155.2211	1184.3871	1230.2964	1263.6988	1294.4684	1325.8255	1340.4154	1357.5762	1384.1628	1412.443	1423.2317	1465.4164	1475.3486	1477.702	1488.3966	1504.396	1516.7362	3007.5472	3014.6541	3033.6903	3046.1014	3051.0487	3081.526	3096.7543	3101.8389	3107.851	3122.8276	3213.492
CC12CC3CN3CC1O2	C[C@]12C[C@H]3CN3C[C@H]1O2	
InChI=1S/C7H11NO/c1-7-2-5-3-8(5)4-6(7)9-7/h5-6H,2-4H2,1H3	InChI=1S/C7H11NO/c1-7-2-5-3-8(5)4-6(7)9-7/h5-6H,2-4H2,1H3/t5-,6+,7-,8?/m0/s1
