20
gdb 119326	5.23723	0.96859	0.93682	1.6786	81.74	-0.21	0.0708	0.2808	1341.995	0.170489	-365.895095	-365.886919	-365.885975	-365.928265	31.54	
C	-0.0892767847	 1.5419943879	 0.0101992733	-0.382578
C	 0.0851216164	 0.0223569975	-0.0379049337	-0.166517
C	 0.76851125	-0.5360343769	 1.2174061882	-0.35206
C	 0.8665344098	-2.026880335	 1.2217197322	 0.385724
C	 1.3812445904	-3.037073196	 2.2876196116	-0.184803
C	 1.5598638451	-4.0839848784	 1.1791620225	-0.110948
C	 0.2416848891	-3.937450917	 1.8918702672	-0.004824
N	-0.2851741319	-2.9393670058	 0.8637858545	-0.219684
C	 1.0436987391	-3.0494845888	 0.1505527957	-0.108736
H	 0.8761161299	 2.0519021628	 0.1054773811	 0.111453
H	-0.5735751554	 1.9140867331	-0.8979052696	 0.112133
H	-0.7069488519	 1.842819908	 0.8636859764	 0.115336
H	-0.8885595271	-0.4662113858	-0.1530762887	 0.125885
H	 0.6750891826	-0.2515245549	-0.9217268783	 0.095622
H	 1.7777162622	-0.1114618584	 1.3158846795	 0.099946
H	 0.2128338888	-0.2180773942	 2.1113382815	 0.103559
H	 1.9174682534	-2.9306771161	 3.2200853581	 0.094161
H	 2.253461009	-4.9106327052	 1.1257909509	 0.095499
H	-0.3718574633	-4.6324393172	 2.4513838665	 0.098106
H	 1.1244681484	-2.9680698995	-0.927252819	 0.092726
80.6449	85.0084	129.2973	248.7299	275.7553	314.5928	361.3581	653.7511	668.1378	736.6663	739.9016	767.7789	787.04	814.4078	836.9637	865.8947	896.1995	902.9962	921.514	945.3463	996.5049	996.712	1003.7157	1032.5808	1049.0778	1063.8991	1076.0822	1134.8705	1142.7829	1186.7549	1230.3722	1246.5361	1265.8651	1321.8876	1326.4996	1344.6782	1391.0818	1413.6904	1431.2776	1481.3553	1495.2618	1500.5796	1512.0125	3000.3438	3025.2525	3029.117	3033.8751	3071.508	3098.613	3102.8267	3175.4618	3186.6482	3211.4788	3224.8338
CCCC12C3C4C3N1C24	CCC[C@@]12[C@@H]3[C@H]4[C@@H]3N1[C@@H]24	
InChI=1S/C8H11N/c1-2-3-8-5-4-6(5)9(8)7(4)8/h4-7H,2-3H2,1H3	InChI=1S/C8H11N/c1-2-3-8-5-4-6(5)9(8)7(4)8/h4-7H,2-3H2,1H3/t4-,5+,6-,7+,8-,9?/m0/s1
