19
gdb 113570	4.01879	1.05966	0.96616	1.7107	80.75	-0.2102	0.0149	0.2251	1289.7983	0.157819	-422.991541	-422.982824	-422.98188	-423.025342	32.313	
C	 0.1490891773	 1.1584702822	-0.2858829661	-0.228131
O	-0.1364131	 0.0717451238	 0.5720989099	-0.230268
C	-1.3791352209	-0.492315188	 0.3366430919	 0.049074
C	-1.5445420112	-1.488769633	-0.7993952493	-0.399377
C	-1.5342828113	-1.9635176984	 0.63918267	 0.406786
O	-0.4062001989	-2.6839287142	 1.0764554651	-0.298432
C	-0.8009644195	-3.6147962468	 2.0858181332	-0.12738
C	-2.2949372957	-3.4722142732	 2.1887593514	-0.11139
C	-2.7038084904	-2.5219068407	 1.3534647079	-0.155399
H	 1.1448045038	 1.522161722	-0.0217744628	 0.128133
H	 0.1439671179	 0.8538338996	-1.3422288433	 0.108848
H	-0.575523312	 1.9773752955	-0.1582631351	 0.103156
H	-2.2269613693	 0.160460765	 0.5610868132	 0.079752
H	-2.4669712961	-1.5138915502	-1.3704896658	 0.109864
H	-0.6414445715	-1.721070364	-1.3539288618	 0.131216
H	-0.4872304636	-4.6275715895	 1.7903275319	 0.108201
H	-0.2910201443	-3.3786560161	 3.033383162	 0.109909
H	-2.9062435058	-4.0635002546	 2.8576654252	 0.107155
H	-3.7160059783	-2.1739870993	 1.1951858227	 0.108284
73.2251	91.6841	151.6524	166.091	220.523	295.8166	336.8712	404.2312	469.5632	539.8162	647.7003	724.5671	781.035	818.8988	853.4577	879.6156	910.7048	947.7705	955.017	996.3085	1026.916	1040.1696	1044.8982	1076.71	1115.5643	1124.1334	1176.5848	1183.6718	1195.5247	1223.9811	1247.9094	1294.4161	1357.8237	1383.7081	1410.0853	1462.0028	1485.9239	1490.9547	1508.1484	1519.3951	1680.1588	2974.9811	2981.1215	2995.8907	3033.127	3059.5908	3118.5949	3125.4572	3212.5368	3223.4894	3236.4342
COC1CC11OCC=C1	CO[C@H]1C[C@]21OCC=C2	
InChI=1S/C7H10O2/c1-8-6-5-7(6)3-2-4-9-7/h2-3,6H,4-5H2,1H3	InChI=1S/C7H10O2/c1-8-6-5-7(6)3-2-4-9-7/h2-3,6H,4-5H2,1H3/t6-,7+/m0/s1
