21
gdb 118680	3.08928	0.87423	0.82116	2.2123	75.19	-0.2329	0.0545	0.2874	1502.5699	0.17938	-461.336534	-461.325717	-461.324773	-461.372496	39.136	
C	-0.0508161275	 1.4800224228	-0.1355516476	-0.421585
C	 0.0394871026	-0.0220442815	 0.0139777875	-0.125168
C	 1.3745273927	-0.7458276899	-0.0722333901	-0.012153
O	 2.5661383748	-0.0022841831	-0.1256956816	-0.431144
C	 0.6590500488	-0.6533100069	 1.2544912513	 0.392911
O	 1.2508337205	 0.2036732591	 2.1915434668	-0.478012
C	 0.0264542537	-1.866254465	 1.8926831678	-0.234451
C	 1.0240217701	-2.7120497633	 2.6776157721	-0.075853
O	 0.3181498041	-3.825136885	 3.2093570143	-0.423809
H	 0.6853938378	 1.9855864445	 0.4925371849	 0.12482
H	 0.0982413404	 1.7966974156	-1.1750610929	 0.105929
H	-1.0386559605	 1.8342863577	 0.1745897771	 0.127573
H	-0.7900255278	-0.5743836264	-0.4211271536	 0.085874
H	 1.4236778896	-1.7015422592	-0.5920887576	 0.091133
H	 2.5304503533	 0.591505447	-0.8827216575	 0.298292
H	 2.1003611915	 0.4688693192	 1.8104019155	 0.292525
H	-0.7751363528	-1.5480813908	 2.5699685802	 0.1135
H	-0.4387055187	-2.4879595994	 1.1195724098	 0.100847
H	 1.8393137623	-3.038771913	 2.0111696706	 0.081518
H	 1.4723056224	-2.0984275804	 3.470555769	 0.103188
H	 0.9197513726	-4.316692802	 3.7755825739	 0.284066
75.8908	82.2733	115.8571	122.9434	191.4848	231.8132	256.7449	263.0919	292.8158	305.1724	334.6094	374.9936	479.0009	546.5856	604.6994	630.2217	736.0942	802.1175	832.0984	850.4947	984.5399	1000.0379	1011.477	1052.9911	1062.2442	1083.8205	1111.3699	1144.7789	1158.6457	1207.8447	1224.5078	1249.9593	1274.5387	1297.3988	1335.451	1343.5276	1362.565	1381.6311	1414.6925	1457.6765	1467.8655	1480.5445	1494.8872	1504.8201	1530.8804	2966.4728	3026.7836	3028.6205	3037.3263	3081.7635	3090.0704	3107.6099	3123.5788	3140.3169	3727.2104	3809.1357	3832.2806
CC1C(O)C1(O)CCO	C[C@H]1[C@@H](O)[C@]1(O)CCO	
InChI=1S/C6H12O3/c1-4-5(8)6(4,9)2-3-7/h4-5,7-9H,2-3H2,1H3	InChI=1S/C6H12O3/c1-4-5(8)6(4,9)2-3-7/h4-5,7-9H,2-3H2,1H3/t4-,5+,6-/m0/s1
