18
gdb 41553	3.71863	1.72563	1.49471	2.3028	72.76	-0.2286	0.0709	0.2995	905.1679	0.151233	-401.883327	-401.877116	-401.876172	-401.913745	25.931	
C	-0.0012670532	 1.4966134844	-0.2472072363	-0.101057
O	 1.3798317807	 1.608866172	 0.1685918967	-0.293484
C	 1.4150028321	 0.2198730137	 0.5755021081	 0.097849
C	 1.2989546895	 0.0958605845	 2.0834646368	-0.031687
C	-0.1183347731	 0.096233984	 2.494975539	-0.058548
C	-0.7994355002	-0.5395910763	 1.2515490212	-0.083294
C	-0.119514666	-1.8536651752	 1.7075265951	-0.15504
N	 0.7311608578	-1.1311003162	 2.7189891073	-0.165313
C	-0.0227151802	-0.0186371515	 0.0454655196	-0.066544
H	-0.6704593926	 2.1066182389	 0.3733822044	 0.101695
H	-0.1294611448	 1.7837864902	-1.2970672497	 0.104886
H	 2.2649840439	-0.3083149177	 0.1330530177	 0.08262
H	 2.0564482375	 0.5632075646	 2.7035698523	 0.103639
H	-0.5641939134	 0.6601282399	 3.3050362968	 0.095086
H	-1.8859592129	-0.5241840115	 1.1681736756	 0.075445
H	-0.7862095354	-2.5239180665	 2.2549841781	 0.112806
H	 0.4313321053	-2.4303584292	 0.9545020922	 0.098633
H	-0.1239803649	-0.6577569383	-0.833893045	 0.082308
152.866	234.4592	314.619	406.9003	454.3093	627.4929	703.3988	770.377	785.7887	791.3418	837.0217	870.8711	886.5378	907.0328	944.0985	961.4189	983.9403	1004.1549	1023.1183	1024.9756	1061.434	1063.6511	1067.3626	1113.2642	1161.6427	1163.839	1194.4017	1216.0389	1232.0841	1267.9406	1269.5837	1291.3018	1311.5168	1324.7097	1339.3693	1363.9001	1392.4508	1505.7469	1521.8355	3013.2359	3029.8247	3058.5034	3062.2313	3093.7089	3100.2795	3115.9228	3172.9566	3189.9367
C1OC2C3C4C(CN34)C12	C1O[C@H]2[C@H]3[C@H]4[C@H](CN34)[C@@H]12	
InChI=1S/C7H9NO/c1-3-4-2-9-7(4)6-5(3)8(1)6/h3-7H,1-2H2	InChI=1S/C7H9NO/c1-3-4-2-9-7(4)6-5(3)8(1)6/h3-7H,1-2H2/t3-,4-,5-,6-,7-,8?/m1/s1
