18
gdb 70201	3.58935	1.31885	1.12695	5.0503	72.17	-0.2534	0.0484	0.3019	1108.2082	0.149118	-439.123164	-439.115174	-439.114229	-439.155505	30.934	
C	-0.440483883	 1.5263543841	 0.1129080753	-0.471785
C	 0.0331042565	 0.0957150521	-0.015971156	 0.285219
C	-0.6042467542	-0.990112262	 0.8370232912	-0.36392
C	 0.808260258	-0.5388230872	 1.0977069606	 0.094369
O	 1.9092467358	-1.3816816418	 0.8327209494	-0.238331
C	 2.0548310388	-1.9916334556	-0.3737587209	 0.446053
O	 2.8870984872	-2.849432299	-0.5230919489	-0.383424
N	 1.1820430865	-1.593264583	-1.3598826879	-0.374653
C	 0.509269112	-0.3017145204	-1.3989813906	-0.220232
H	 0.3386862481	 2.2329949604	-0.1949316288	 0.12498
H	-1.3239014404	 1.7070345361	-0.5108051438	 0.123847
H	-0.7142786734	 1.7581077415	 1.1462004701	 0.123129
H	-1.3666447743	-0.7002712846	 1.5520924132	 0.118852
H	-0.7428136667	-1.968562605	 0.3914444043	 0.136945
H	 1.0212403704	 0.0299762917	 1.9953182873	 0.112678
H	 1.4043090254	-2.0224585028	-2.2450593779	 0.258511
H	-0.3349105441	-0.3752953873	-2.095367835	 0.11696
H	 1.1761951573	 0.487577063	-1.7816210318	 0.110802
99.3324	170.8227	202.944	232.4409	308.3784	345.9325	390.8038	469.2677	492.5704	575.9521	604.7751	681.4666	765.5548	779.4277	809.6089	870.4752	917.0546	927.1104	964.3931	1022.5115	1050.4724	1072.3982	1099.4657	1125.0284	1143.3744	1190.5914	1241.2208	1268.702	1292.8015	1343.5843	1408.5181	1417.2803	1428.0808	1476.6542	1487.5951	1491.274	1502.726	1528.6648	1849.2941	2971.3456	3025.7084	3040.5383	3086.0058	3106.7564	3137.2956	3180.2753	3228.6327	3629.9876
CC12CC1OC(=O)NC2	C[C@]12C[C@H]1OC(=O)NC2	
InChI=1S/C6H9NO2/c1-6-2-4(6)9-5(8)7-3-6/h4H,2-3H2,1H3,(H,7,8)	InChI=1S/C6H9NO2/c1-6-2-4(6)9-5(8)7-3-6/h4H,2-3H2,1H3,(H,7,8)/t4-,6-/m1/s1
