17
gdb 105360	2.83584	1.35894	1.14244	3.1133	68.26	-0.2592	-0.0426	0.2166	1089.1747	0.134448	-458.920434	-458.912127	-458.911183	-458.953448	31.063	
O	 0.1882286017	 1.3164372035	-0.1749935552	-0.429826
C	 0.1072729835	-0.0738753339	 0.0674172031	-0.138477
C	-1.3364646499	-0.5725113865	 0.0631436663	 0.178906
C	-2.135956156	-0.4719612159	-1.3075488654	-0.310482
C	-2.2831102398	-1.9954471785	-1.2907829663	 0.039506
O	-0.9651740055	-2.5510043107	-1.2466697721	-0.235292
C	-1.5474490122	-2.1106720731	-0.0213356837	-0.042368
C	-2.1621414292	 0.0497144483	 1.1565436467	 0.1196
O	-1.7864691194	 0.9459385367	 1.8765961331	-0.275366
H	-0.2229124573	 1.7402463117	 0.588766756	 0.295931
H	 0.6547229498	-0.5744207703	-0.7348570454	 0.125399
H	 0.5817519956	-0.3492124361	 1.0223172212	 0.093554
H	-3.0871326455	 0.0581574538	-1.2102980194	 0.118766
H	-1.5645021757	-0.0484754464	-2.1348495301	 0.14053
H	-3.0669931946	-2.6139603381	-1.7107340226	 0.115793
H	-1.6101713575	-2.8297970358	 0.7874184609	 0.115626
H	-3.1910234181	-0.3631386786	 1.264475623	 0.0882
103.027	122.7331	152.3884	199.7179	262.9637	320.9219	396.367	412.3297	484.6826	553.6138	556.2783	749.6891	793.624	840.009	862.1679	899.3374	911.2167	948.2632	975.4069	1001.9111	1041.458	1080.3651	1092.4171	1111.0503	1122.3938	1219.8533	1228.9874	1259.7892	1267.0287	1305.5587	1373.3253	1388.9934	1429.6231	1441.1949	1470.5986	1504.5428	1802.0057	2873.0395	2985.447	3070.9325	3103.256	3135.7675	3181.3269	3200.1914	3779.9078
OCC1(CC2OC12)C=O	OC[C@]1(C[C@H]2O[C@@H]12)C=O	
InChI=1S/C6H8O3/c7-2-6(3-8)1-4-5(6)9-4/h2,4-5,8H,1,3H2	InChI=1S/C6H8O3/c7-2-6(3-8)1-4-5(6)9-4/h2,4-5,8H,1,3H2/t4-,5-,6+/m1/s1
