18
gdb 22374	3.134	1.18419	1.01056	1.6848	76.18	-0.2401	0.0049	0.245	1204.245	0.14599	-439.014199	-439.005486	-439.004542	-439.047816	33.171	
O	-0.2433422069	 1.3434234298	-0.3744880154	-0.394112
N	-0.0695980047	-0.0544101531	-0.3428892124	-0.244039
C	-1.1233771817	-0.6311888662	 0.0577182114	 0.437797
C	-2.4924080598	-0.1827715363	 0.5385407798	-0.396556
C	-2.8482557009	-1.6917499561	 0.7426708398	 0.412603
O	-3.2681448802	-2.0828699853	 2.0152510947	-0.477623
C	-3.481386594	-2.3946500373	-0.4899446491	-0.291301
C	-2.0592442817	-2.7736512739	-1.0051364264	-0.221572
C	-1.408802512	-2.1005142784	 0.2452303699	-0.176987
H	 0.6214645126	 1.6472472512	-0.6702102817	 0.305629
H	-2.4368441447	 0.3551657913	 1.4908187485	 0.130019
H	-3.0962154908	 0.399187348	-0.1643266122	 0.115401
H	-4.1568090424	-1.738679023	 2.1612140655	 0.279458
H	-4.0678334557	-3.2661134884	-0.1894803954	 0.107891
H	-4.0907118057	-1.7659965906	-1.1451378691	 0.096017
H	-1.885907763	-3.8506731365	-1.0449283481	 0.111572
H	-1.7625343101	-2.3393477381	-1.9616032159	 0.113383
H	-0.7099127384	-2.6913160271	 0.8366222162	 0.092421
46.7774	145.118	181.2113	220.3771	262.1597	340.8096	364.8599	385.7887	414.1223	477.4684	545.6551	625.5014	645.0518	751.9994	773.9947	866.0281	894.9169	907.8528	941.4242	950.344	984.8811	1025.6495	1038.5739	1101.183	1124.9206	1158.2693	1193.8721	1216.579	1223.5462	1230.0574	1265.8965	1272.7753	1305.287	1362.374	1404.3773	1445.1575	1472.2233	1492.8823	1778.9483	3045.7446	3056.2406	3073.7192	3098.4254	3108.3805	3119.9762	3132.0459	3790.645	3818.0443
ON=C1CC2(O)CCC12	ON=C1C[C@@]2(O)CC[C@@H]12	
InChI=1S/C6H9NO2/c8-6-2-1-4(6)5(3-6)7-9/h4,8-9H,1-3H2	InChI=1S/C6H9NO2/c8-6-2-1-4(6)5(3-6)7-9/h4,8-9H,1-3H2/t4-,6-/m0/s1
