19
gdb 83294	2.35013	1.85463	1.45789	3.5865	74.25	-0.226	-0.0174	0.2086	984.7782	0.161097	-423.054921	-423.047317	-423.046373	-423.086858	30.044	
C	-0.2097559569	 1.5686605156	 0.0824765403	-0.423861
C	 0.0402010508	 0.0663899041	-0.0324090131	-0.083859
C	 0.7956601715	-0.4921841136	-1.269378256	-0.072567
C	 2.2019548732	 0.1176936728	-1.3182451625	-0.075269
O	 2.8532725247	-0.4245839001	-0.1503005469	-0.282484
C	 1.9429392347	-1.3882436986	 0.4262654876	 0.001438
C	 1.1659654113	-1.9165932224	-0.7809043824	-0.256708
C	 0.8903675573	-0.5102862061	 1.1238981932	 0.438635
O	 0.7712842891	-0.2704821448	 2.2956342238	-0.337485
H	 0.7180582534	 2.1449768003	 0.0266761062	 0.12928
H	-0.8804958061	 1.9229920687	-0.7062466273	 0.114243
H	-0.6693590444	 1.7855643944	 1.0505934528	 0.142421
H	-0.929608464	-0.4489051872	 0.0223111951	 0.103588
H	 0.2447142669	-0.4279907254	-2.208437117	 0.075474
H	 2.7479191106	-0.1884096722	-2.2200935451	 0.101707
H	 2.2170531736	 1.2100621865	-1.261888479	 0.110307
H	 2.5000206858	-2.0721886191	 1.0631983186	 0.092183
H	 0.2983620654	-2.5243558302	-0.509313794	 0.109838
H	 1.7989165932	-2.4705469529	-1.4783592642	 0.113118
99.1689	190.2786	209.5024	245.5276	303.0087	431.6903	454.9426	483.6411	543.27	643.9842	715.3172	767.1847	821.9089	853.6001	891.0761	915.1321	934.8558	950.949	976.4122	1005.5374	1035.8531	1056.6305	1079.8764	1117.7793	1139.3144	1166.4322	1184.5127	1214.401	1245.9162	1280.9901	1281.9999	1303.5378	1340.5731	1342.1999	1376.0589	1408.0463	1487.7863	1494.6509	1498.9046	1534.9804	1859.4902	3007.5044	3018.5766	3043.1543	3063.9209	3079.9364	3110.3755	3113.1476	3118.8766	3120.8479	3150.0095
CC1C2COC(C2)C1=O	C[C@H]1[C@H]2CO[C@H](C2)C1=O	
InChI=1S/C7H10O2/c1-4-5-2-6(7(4)8)9-3-5/h4-6H,2-3H2,1H3	InChI=1S/C7H10O2/c1-4-5-2-6(7(4)8)9-3-5/h4-6H,2-3H2,1H3/t4-,5+,6+/m0/s1
