17
gdb 78857	3.33155	1.58458	1.37337	0.8018	69.63	-0.2204	0.0736	0.294	953.6217	0.136534	-421.768107	-421.760993	-421.760049	-421.799154	29.513	
O	 0.0061050987	 1.434211535	 0.0481423379	-0.435728
C	 0.0634300289	 0.0199806545	-0.0200953903	 0.135491
C	 0.6209975515	-0.6374810962	 1.2329923882	-0.115815
C	-0.5046204478	-0.9057740106	 2.2248530201	-0.088738
C	 0.0784033451	-2.036493929	 1.4043043562	-0.179403
C	-1.2262369087	-2.0502910405	 0.5395199607	 0.395756
O	-1.8744875774	-3.1703962703	 0.0734959943	-0.46605
C	-1.7946706346	-0.9309112491	 1.3638981806	-0.159198
C	-1.2903664894	-0.6669763322	-0.064869019	-0.204294
H	-0.5261946023	 1.6545744151	 0.8216917641	 0.279461
H	 0.6687178692	-0.2025937826	-0.9055779659	 0.086428
H	 1.611236076	-0.3869659647	 1.5951418995	 0.091714
H	-0.4400000689	-0.7324111683	 3.2899887808	 0.090516
H	 0.6477881889	-2.8980046214	 1.7255243006	 0.09391
H	-1.4771438825	-3.4251077784	-0.7674674002	 0.286185
H	-2.8093967522	-0.75061933	 1.68899842	 0.096505
H	-2.0154624445	-0.4610672414	-0.8427601876	 0.093261
163.4961	247.1222	259.5639	320.8321	343.1529	389.5746	511.1676	571.4231	629.8303	702.9673	734.3485	764.8903	779.7715	839.4209	864.675	902.4353	906.4874	920.9827	947.8009	979.3329	992.4509	1004.091	1046.1502	1061.1802	1068.5895	1096.9583	1136.0811	1199.2956	1224.5889	1252.8902	1268.6548	1273.1942	1300.0788	1310.0192	1362.0512	1430.3787	1471.1429	3059.7877	3187.5113	3198.0705	3202.8948	3213.722	3221.0698	3779.5684	3791.8131
OC1C2C3C2C2(O)C3C12	O[C@H]1[C@H]2[C@@H]3[C@H]2[C@@]2(O)[C@@H]3[C@@H]12	
InChI=1S/C7H8O2/c8-6-2-1-3(2)7(9)4(1)5(6)7/h1-6,8-9H	InChI=1S/C7H8O2/c8-6-2-1-3(2)7(9)4(1)5(6)7/h1-6,8-9H/t1-,2+,3-,4+,5+,6+,7-/m1/s1
