21
gdb 70408	2.21545	1.49937	1.38485	2.4098	82.69	-0.2477	-0.0222	0.2254	1104.5147	0.180575	-387.080261	-387.070959	-387.070015	-387.113872	35.515	
C	-0.0427446028	 1.5358262776	 0.0576478163	-0.511977
C	 0.0516293162	 0.03385538	 0.0307672518	 0.332334
C	-0.8204215298	-0.8433144855	 0.8924374932	-0.343094
C	 0.6732351338	-0.935228854	 1.0368101129	-0.076682
C	 1.2471101489	-1.7956507844	-0.0910948478	-0.290358
C	 0.6455085723	-0.8119140465	-1.1463130552	 0.162935
C	-0.3310424853	-1.3433997169	-2.1972744139	-0.475821
C	 1.7236032395	-0.0015167219	-1.8443537263	 0.117974
O	 2.9035094435	-0.0341688054	-1.6042154124	-0.255974
H	 0.9100450393	 2.0115099844	-0.2003260018	 0.13011
H	-0.8023371972	 1.9067130195	-0.6415571096	 0.120074
H	-0.3226576142	 1.88327005	 1.0573533198	 0.122213
H	-1.3403638975	-0.3119199613	 1.6841069971	 0.1108
H	-1.3845713421	-1.6772857139	 0.4820525589	 0.104439
H	 1.1775107086	-0.7054718954	 1.9678494722	 0.087572
H	 2.3369017934	-1.7896148671	-0.1381270372	 0.131417
H	 0.8802627075	-2.8260706909	-0.138845372	 0.090815
H	-1.1760465769	-1.8558828227	-1.7312190298	 0.125468
H	-0.7329097227	-0.5303532369	-2.8132682765	 0.11895
H	 0.1620808142	-2.0566589106	-2.8674229924	 0.125554
H	 1.3282256213	 0.6788022517	-2.6351759871	 0.073249
78.7547	131.624	187.4229	211.4684	224.8646	257.1053	311.8705	328.8036	375.0278	419.0255	445.4323	578.4379	597.1726	712.8842	781.9424	811.4514	864.4339	878.5785	919.4545	946.5332	970.8502	998.6278	1020.0417	1034.7712	1047.6144	1091.3337	1110.0494	1140.6218	1159.9716	1216.9053	1234.3098	1254.6142	1273.6491	1288.1947	1379.6627	1403.9011	1420.9429	1430.1925	1478.3536	1486.8048	1489.8685	1496.2311	1499.2904	1507.4325	1824.0768	2852.3443	3020.8234	3027.6393	3047.9657	3079.5512	3088.6025	3097.3346	3108.3742	3116.7949	3128.2887	3180.417	3194.6949
CC12CC1CC2(C)C=O	C[C@]12C[C@H]1C[C@]2(C)C=O	
InChI=1S/C8H12O/c1-7(5-9)3-6-4-8(6,7)2/h5-6H,3-4H2,1-2H3	InChI=1S/C8H12O/c1-7(5-9)3-6-4-8(6,7)2/h5-6H,3-4H2,1-2H3/t6-,7-,8+/m1/s1
