21
gdb 40650	3.17108	1.16601	1.14076	2.95	82.34	-0.217	0.0687	0.2857	1206.4931	0.185489	-383.218959	-383.210816	-383.209872	-383.252532	31.29	
C	-0.5437585737	 1.264365352	-0.3832871361	-0.247009
N	 0.7109233627	 1.5524935029	 0.3253882923	-0.315206
C	 0.3146182371	 0.1469845004	 0.0950782636	-0.026814
C	-0.0636412859	-0.6210937641	 1.3204236664	 0.01902
C	-0.3598484885	-2.0813988051	 1.3484883166	-0.053784
C	 0.0637883571	-2.9757320663	 0.1898627313	-0.22771
C	 1.5923048919	-2.7623568096	 0.0429865906	-0.234449
C	 2.021746077	-2.0159885387	 1.336984117	-0.15152
N	 0.8223521008	-1.5478363567	 2.0537035719	-0.12204
H	-1.4451862791	 1.5235053304	 0.1656754962	 0.119866
H	-0.6023796916	 1.4410105507	-1.4542482362	 0.11013
H	 1.4320431098	 1.8253257182	-0.3369513387	 0.230931
H	 0.8508200032	-0.3884150396	-0.681251239	 0.084382
H	-0.6289680818	 0.0039454877	 2.0106508375	 0.09282
H	-1.1751339497	-2.4364804514	 1.9748252858	 0.084922
H	-0.1630532677	-4.015296345	 0.445867295	 0.107091
H	-0.4759115758	-2.7531455457	-0.7362015416	 0.10559
H	 2.1212940968	-3.7134310391	-0.0615628276	 0.101646
H	 1.8282855575	-2.1812146306	-0.8522903208	 0.105992
H	 2.5490658785	-2.6945068965	 2.0151419805	 0.107347
H	 2.6938500515	-1.1759036539	 1.1346494955	 0.108793
40.1427	124.5362	139.4075	182.794	291.368	321.4971	478.8734	523.2968	683.482	704.6488	740.0357	785.1052	831.1006	856.3504	866.9134	889.5101	894.9107	908.378	936.506	964.8029	989.2823	1030.8443	1055.8585	1081.3256	1116.6626	1122.1995	1135.21	1144.0309	1192.4628	1225.8518	1237.9345	1244.8351	1255.8223	1287.7093	1294.3247	1307.9142	1330.2319	1339.2115	1348.3168	1399.5646	1475.5743	1492.4844	1498.8809	1515.2169	1518.7615	3043.6379	3046.8138	3060.8346	3074.3511	3081.8719	3103.8074	3105.3992	3110.6529	3129.1656	3164.6289	3190.3696	3504.6247
C1NC1C1C2CCCN12	C1N[C@H]1[C@H]1[C@H]2CCCN12	
InChI=1S/C7H12N2/c1-2-6-7(5-4-8-5)9(6)3-1/h5-8H,1-4H2	InChI=1S/C7H12N2/c1-2-6-7(5-4-8-5)9(6)3-1/h5-8H,1-4H2/t5-,6-,7+,9?/m1/s1
