17
gdb 30214	3.633	1.33115	1.1434	0.7908	73.71	-0.2217	0.0115	0.2331	1072.841	0.138495	-421.856722	-421.849588	-421.848644	-421.888256	28.576	
O	 0.0318056371	 1.4302658947	 0.051225462	-0.434079
C	 0.0247938277	 0.0115036487	 0.0157212191	 0.131051
C	 0.6588757841	-0.5887414463	 1.3105596609	-0.374179
C	-0.5399409765	-0.7260728436	 2.2057289261	 0.222541
C	-0.9132274105	-0.8643376061	 3.5009074797	-0.176407
O	-2.2767789958	-0.9264428944	 3.5808987844	-0.15115
C	-2.7727274218	-0.8253654577	 2.3107229457	-0.176407
C	-1.7489980174	-0.700731778	 1.4318645426	 0.222541
C	-1.433770453	-0.5448806886	-0.0288514852	-0.374179
H	-0.4629309994	 1.7034188747	 0.8331299789	 0.283383
H	 0.5925950509	-0.2519078185	-0.8800159394	 0.085845
H	 1.1116924174	-1.5663180937	 1.1003571461	 0.113752
H	 1.4491912261	 0.0675952468	 1.6837690846	 0.119284
H	-0.3926722788	-0.9278623168	 4.4419888735	 0.137485
H	-3.8467011929	-0.8554705314	 2.2312162625	 0.137485
H	-2.0836737443	 0.1416412177	-0.5774633887	 0.119284
H	-1.4614325529	-1.5123871574	-0.5465871328	 0.113751
95.2013	209.7151	276.6044	347.8242	374.0777	395.2597	481.3929	608.1645	637.5275	648.146	701.8886	738.1932	763.0346	793.2256	857.3762	877.5471	923.6665	937.034	1021.2085	1055.266	1064.868	1095.5223	1135.1177	1164.5921	1183.7603	1231.6728	1259.4444	1268.2681	1291.3953	1324.406	1325.6107	1391.4834	1434.2292	1469.4108	1482.1602	1596.242	1663.9035	3024.8795	3026.3159	3088.537	3096.2743	3097.3547	3272.4973	3277.2266	3784.6345
OC1CC2=COC=C2C1	O[C@H]1Cc2cocc2C1	
InChI=1S/C7H8O2/c8-7-1-5-3-9-4-6(5)2-7/h3-4,7-8H,1-2H2	InChI=1S/C7H8O2/c8-7-1-5-3-9-4-6(5)2-7/h3-4,7-8H,1-2H2
