18
gdb 86867	2.61523	1.30164	1.05623	2.2722	72.41	-0.2388	-0.0395	0.1993	1179.7144	0.146497	-439.11805	-439.109197	-439.108252	-439.152242	32.219	
C	-0.5234148706	 1.3221542681	 0.1044016994	-0.392788
C	 0.2919450138	 0.0597662579	-0.1539483287	-0.069076
N	 1.410941259	 0.2622844289	-1.084893686	-0.313467
C	 2.4274070801	-0.7509676028	-0.8069366753	-0.085194
C	 2.3904986776	-0.9275434367	 0.7220290355	-0.352144
C	 0.9740546919	-0.4827388597	 1.1038120938	 0.424029
O	 0.4856568904	-0.547544593	 2.2000812125	-0.312288
C	 2.1979086605	-2.0711097214	-1.5359703947	 0.14954
O	 1.3113888299	-2.2517913177	-2.3309626672	-0.2452
H	 0.1346334041	 2.144348849	 0.3984556153	 0.125028
H	-1.0719062089	 1.6246270008	-0.7922446348	 0.116401
H	-1.2410596617	 1.1374041191	 0.9082618979	 0.136849
H	-0.3862209537	-0.7471049122	-0.4883084072	 0.10727
H	 1.0983839788	 0.1762939384	-2.0467644184	 0.233263
H	 3.4199035838	-0.4048956042	-1.1334515031	 0.106261
H	 2.5874661009	-1.9458590667	 1.06893146	 0.137093
H	 3.1066144617	-0.2684352329	 1.2221227532	 0.150182
H	 2.9378673424	-2.8712911448	-1.3001199722	 0.084243
55.0105	88.4452	133.2246	205.2365	233.7722	261.0856	326.5266	382.9583	458.9274	551.3908	577.9572	645.8103	693.1174	746.4875	795.4766	854.8143	878.1404	935.1872	982.4787	1016.9279	1045.7374	1091.684	1117.8091	1151.5424	1168.4611	1204.3212	1225.0938	1283.542	1322.0955	1336.9817	1354.4867	1400.9446	1408.5191	1450.7096	1458.822	1492.0544	1498.2904	1825.6422	1856.487	2864.2987	2935.2596	2993.4618	3045.4349	3063.6737	3106.9924	3118.8768	3130.0382	3530.3335
CC1NC(CC1=O)C=O	C[C@H]1N[C@@H](CC1=O)C=O	
InChI=1S/C6H9NO2/c1-4-6(9)2-5(3-8)7-4/h3-5,7H,2H2,1H3	InChI=1S/C6H9NO2/c1-4-6(9)2-5(3-8)7-4/h3-5,7H,2H2,1H3/t4-,5+/m1/s1
