16
gdb 28025	4.04067	0.9376	0.81022	1.3827	77.66	-0.1872	0.0339	0.2211	1382.1136	0.123621	-400.739244	-400.730494	-400.72955	-400.773253	32.526	
N	-0.0170253556	 1.3863547775	 0.0553037535	-0.59335
C	-0.0822884824	 0.0009962636	 0.0254848853	 0.400065
C	-1.0802218781	-0.8898784405	-0.2343804878	-0.380303
C	-0.5120544817	-2.192105324	 0.0036441067	 0.296502
C	-1.2093555965	-3.5219792572	-0.1141269773	-0.474798
C	-1.8138537507	-3.7545469173	-1.4253688419	 0.319
C	-2.3185515862	-3.9384462478	-2.5002429251	-0.465198
C	 0.7723665981	-1.9860636485	 0.3802979782	-0.138964
O	 1.0502466339	-0.6379873795	 0.4019500295	-0.178646
H	 0.9045387489	 1.7374384222	-0.1729465759	 0.255903
H	-0.7202640862	 1.8225758058	-0.5245344922	 0.256613
H	-2.0810932812	-0.6668128763	-0.56691029	 0.103012
H	-0.4964923215	-4.3257084128	 0.1063017694	 0.135381
H	-1.9940098198	-3.5981410921	 0.6517827906	 0.141089
H	-2.7589084314	-4.1051349989	-3.4516867536	 0.1944
H	 1.5868031602	-2.6354709241	 0.6517915307	 0.129296
43.3989	92.1793	180.9296	205.0676	264.9375	335.502	347.5445	423.054	450.1184	601.9547	617.2268	633.3559	638.7273	665.2556	688.8501	737.497	747.3367	787.9246	931.161	949.9566	964.31	1004.2483	1090.3867	1143.7248	1188.1492	1209.6428	1263.7428	1336.6513	1337.4629	1455.9864	1462.7967	1605.7472	1635.9699	1673.9394	2240.0439	3007.6066	3051.7214	3261.4748	3286.0588	3507.4505	3546.4235	3647.7883
NC1=CC(CC#C)=CO1	Nc1cc(CC#C)co1	
InChI=1S/C7H7NO/c1-2-3-6-4-7(8)9-5-6/h1,4-5H,3,8H2	InChI=1S/C7H7NO/c1-2-3-6-4-7(8)9-5-6/h1,4-5H,3,8H2
