19
gdb 19906	4.57155	1.44875	1.31984	1.67	74.77	-0.2176	0.0666	0.2842	1008.9989	0.166198	-327.827648	-327.820241	-327.819297	-327.859418	29.025	
C	-0.9163475095	 1.3406595968	 0.5352438389	-0.40335
C	-0.1309384072	 0.1638180635	-0.0584498054	-0.215192
C	 0.6736642084	-0.566790243	 1.0202381552	 0.011372
C	 0.6004104621	-1.9987152172	 1.4800677019	-0.11413
C	 0.7684111809	-3.0421829079	 0.3572999181	-0.034519
C	 1.0345749339	-2.5281254747	-1.0065980632	-0.248963
N	 2.1295362465	-2.5239457512	-0.0188647433	-0.140914
C	 1.923732677	-1.426613072	 1.0059939289	-0.047894
H	-0.2427505451	 2.0798209417	 0.9825605639	 0.118008
H	-1.5078800422	 1.8486575178	-0.2324623234	 0.113067
H	-1.6032136003	 0.9997765611	 1.317417551	 0.119983
H	-0.8362557316	-0.5204515534	-0.5390306872	 0.112639
H	 0.5353741383	 0.5385913412	-0.8452011598	 0.109263
H	 0.7710444734	 0.0640771268	 1.9064485775	 0.091356
H	 0.2995901517	-2.2894526	 2.4786582453	 0.090389
H	 0.6257595087	-4.1014302652	 0.547577978	 0.098103
H	 1.1954163623	-3.2827114433	-1.7730530793	 0.118843
H	 0.6251766801	-1.6021880999	-1.3789287259	 0.123777
H	 2.8064105526	-1.1441881213	 1.5669505888	 0.09816
64.405	184.9373	205.7441	268.4064	323.0119	407.1356	478.1338	647.5378	676.6025	711.5176	731.8884	760.7348	811.7297	876.6295	898.1503	921.4914	931.6578	995.5541	1010.7775	1038.8991	1056.5449	1072.8244	1091.2383	1098.458	1109.1634	1136.5927	1148.1186	1211.3266	1246.1122	1278.9147	1310.1492	1332.2236	1338.1466	1369.9107	1409.6495	1447.4457	1491.5584	1499.6103	1505.3948	1511.4061	3026.7027	3031.1339	3071.6801	3084.6845	3102.7074	3106.4547	3129.3978	3155.6281	3177.5509	3190.9065	3265.8822
CCC1C2C3CN3C12	CC[C@H]1[C@H]2[C@H]3CN3[C@@H]12	
InChI=1S/C7H11N/c1-2-4-6-5-3-8(5)7(4)6/h4-7H,2-3H2,1H3	InChI=1S/C7H11N/c1-2-4-6-5-3-8(5)7(4)6/h4-7H,2-3H2,1H3/t4-,5+,6-,7-,8?/m0/s1
