21
gdb 122681	5.33184	0.65734	0.61338	0.7029	76.04	-0.2526	0.088	0.3407	1834.3454	0.181954	-461.347621	-461.337824	-461.33688	-461.38411	33.767	
C	 0.0407159626	 1.3536516892	-0.0675066336	-0.227912
O	 0.0483504571	-0.0520333857	-0.0198611424	-0.232388
C	 0.6810298692	-0.5572974858	 1.1360037822	-0.052359
C	 0.661780012	-2.0785633156	 1.0652078806	-0.221916
C	 1.2922121641	-2.733585247	 2.2872170695	 0.1122
C	 1.3230168387	-4.2738418702	 2.240939807	-0.13107
O	 2.5533223473	-4.6000055971	 2.8674148766	-0.233259
C	 3.4288465153	-3.579268994	 2.4666505598	 0.027266
O	 2.6786030418	-2.3810920476	 2.4092079975	-0.274266
H	 1.0610737546	 1.7692724199	-0.0683570842	 0.103927
H	-0.4610009762	 1.6483294436	-0.992605798	 0.125252
H	-0.5035313261	 1.7900624487	 0.7856646148	 0.101743
H	 1.7196729525	-0.1975177192	 1.2027738799	 0.105787
H	 0.1575529524	-0.2089324117	 2.044457205	 0.08084
H	-0.3782593461	-2.4162964607	 0.9725708772	 0.107076
H	 1.1906539384	-2.4024933236	 0.1616727279	 0.109217
H	 0.7814774452	-2.3925556552	 3.1992206195	 0.08164
H	 0.5129728813	-4.7472069307	 2.7988221304	 0.121
H	 1.3023802985	-4.6335308412	 1.1996802977	 0.096142
H	 4.226437072	-3.4842619769	 3.210416195	 0.11728
H	 3.8622588753	-3.7995848593	 1.4737962878	 0.083798
37.8293	62.7792	89.2841	113.3446	140.0601	233.813	250.7223	291.9532	307.9441	449.702	505.4575	673.5528	741.3422	793.9813	869.5423	957.6595	975.0125	983.8287	1025.3881	1041.0155	1093.8892	1110.3318	1122.1686	1150.3802	1166.5535	1178.7167	1189.9701	1207.5141	1227.93	1240.9275	1268.5836	1290.1478	1312.1376	1346.9524	1369.8208	1401.9473	1428.0104	1436.823	1478.1252	1481.9277	1485.2937	1505.3963	1510.0689	1533.9626	1547.4221	2932.4923	2943.7004	2967.4289	2978.4051	2998.5395	2999.4395	3009.395	3031.7071	3073.3631	3080.4092	3111.2402	3113.0786
COCCC1COCO1	COCC[C@H]1COCO1	
InChI=1S/C6H12O3/c1-7-3-2-6-4-8-5-9-6/h6H,2-5H2,1H3	InChI=1S/C6H12O3/c1-7-3-2-6-4-8-5-9-6/h6H,2-5H2,1H3/t6-/m0/s1
