14
gdb 77001	3.12242	1.29256	0.97965	3.235	68.71	-0.272	-0.0818	0.1902	1126.0678	0.101012	-436.72239	-436.714531	-436.713586	-436.755261	28.722	
O	 0.1674480111	 1.2608690677	 0.3857095127	-0.431626
C	 0.0718537799	-0.0866203062	 0.0285153151	 0.034232
C	-1.3894584046	-0.5979705737	-0.0718372856	-0.211452
C	-1.357075135	-1.4946760454	-1.304137473	-0.049087
C	-0.2367220402	-1.3546415325	-2.0218106089	-0.184225
C	 0.6349313443	-0.3519274114	-1.3791012681	 0.339904
O	 1.5850426646	 0.2461084413	-1.8272399282	-0.332721
C	-1.884894689	-1.2865265133	 1.1188206439	 0.267664
N	-2.2772765371	-1.8473172866	 2.0495725376	-0.314111
H	 0.9281980942	 1.6103453375	-0.1020303277	 0.300751
H	 0.6201308649	-0.7354794984	 0.7315046007	 0.123797
H	-2.0355325522	 0.2698837968	-0.2572846571	 0.16503
H	-2.1909649729	-2.144303766	-1.5423280021	 0.150073
H	-0.005121068	-1.8357340798	-2.9628302993	 0.141772
62.2285	135.8689	183.2084	252.3031	307.4523	372.9824	420.2652	457.58	497.1792	564.0235	621.8421	701.3582	737.8793	791.993	885.8873	948.3945	1002.3825	1029.2163	1037.3777	1101.8863	1145.3451	1180.5196	1218.1566	1245.071	1309.489	1344.8334	1363.0649	1410.2258	1642.2057	1821.6201	2363.5872	2971.9916	3038.2195	3209.6531	3236.3415	3727.3767
OC1C(C=CC1=O)C#N	O[C@H]1[C@@H](C=CC1=O)C#N	
InChI=1S/C6H5NO2/c7-3-4-1-2-5(8)6(4)9/h1-2,4,6,9H	InChI=1S/C6H5NO2/c7-3-4-1-2-5(8)6(4)9/h1-2,4,6,9H/t4-,6-/m0/s1
