15
gdb 127040	6.50562	0.85571	0.76349	3.7404	66.04	-0.2451	0.0219	0.267	1445.8059	0.111621	-491.069334	-491.061042	-491.060098	-491.103113	29.397	
C	 0.0624391692	 1.5148901926	-0.1430677517	-0.395706
C	 0.0117781882	 0.0085385514	-0.0059962109	-0.056271
O	 0.6650116163	-0.5547173161	-1.1758295215	-0.250799
C	 0.7117613098	-1.8611282222	-1.2222018558	 0.527487
N	 0.255783129	-2.7086295559	-0.3687158486	-0.258576
O	 0.6023120175	-3.9715361185	-0.9609932076	-0.251547
C	 1.246535512	-3.7443990194	-2.1379993831	 0.513717
N	 1.7174232134	-4.5523285796	-2.9696033559	-0.572316
O	 1.3184709803	-2.3770534298	-2.3091123517	-0.203379
H	 1.0958861836	 1.8679066229	-0.1897853897	 0.141797
H	-0.4596195164	 1.8423383213	-1.0458665314	 0.141794
H	-0.4218527098	 1.9743543618	 0.7231820608	 0.13484
H	 0.5392615702	-0.3481014621	 0.8841291526	 0.141151
H	-1.0131123174	-0.3736706674	 0.0295937982	 0.141156
H	 1.567744474	-5.512239029	-2.6693601339	 0.246652
55.7999	93.7717	141.0096	186.2279	249.8133	343.2547	345.5534	378.6297	544.668	691.7477	722.2758	743.4726	776.2137	782.8541	814.3506	895.2741	914.6175	966.5139	999.4043	1042.4488	1100.4146	1135.6376	1182.251	1261.47	1296.0192	1385.7169	1417.6277	1478.6378	1483.9103	1497.4576	1520.6482	1705.8565	1824.6239	3052.4391	3054.6235	3098.2778	3128.931	3135.5517	3547.7724
CCOC1=NOC(=N)O1	CCOC1=NO[C@@H]([NH])O1	
InChI=1S/C4H6N2O3/c1-2-7-4-6-9-3(5)8-4/h5H,2H2,1H3	InChI=1S/C4H7N2O3/c1-2-7-4-6-9-3(5)8-4/h3,5H,2H2,1H3/t3-/m0/s1
