18
gdb 52623	3.66456	0.78314	0.7455	5.6553	81.88	-0.2677	0.0181	0.2858	1582.808	0.143756	-401.942722	-401.931852	-401.930908	-401.979957	37.563	
C	 0.0483884213	 1.4715367336	 0.0271708442	-0.501391
C	 0.017562363	 0.0162502935	 0.0125770397	 0.081316
C	-0.0248915933	-1.1874501465	-0.007782324	 0.04348
C	-0.0299834637	-2.6560458221	-0.0403763153	 0.135896
C	-1.4585640205	-3.2120549681	-0.0057929445	-0.400114
O	 0.5478383526	-3.142744583	-1.2484623661	-0.435623
C	 0.8014734709	-3.164353716	 1.1826046104	-0.352102
C	 0.9023020895	-4.6201903886	 1.2358513202	 0.27075
N	 0.9787046263	-5.7716147059	 1.2930230313	-0.31333
H	 0.924099275	 1.8473326081	 0.5669741686	 0.153218
H	 0.0845619943	 1.8744408671	-0.9906422181	 0.157342
H	-0.8442459738	 1.8787752436	 0.51396234	 0.15716
H	-2.0141358085	-2.8354366528	-0.8663194565	 0.137681
H	-1.4272673067	-4.303332471	-0.0547438783	 0.152223
H	-1.9716594531	-2.9066969049	 0.9093267379	 0.12278
H	 1.3383572902	-2.6238571529	-1.4333036097	 0.28624
H	 1.8093504974	-2.7399783605	 1.126612469	 0.147285
H	 0.351810679	-2.7993920635	 2.1117086412	 0.157192
24.8733	65.2197	78.3586	123.9538	162.31	238.1362	280.2157	288.7449	307.8174	355.6888	366.0107	387.9824	401.8205	485.3063	555.531	562.4251	736.0804	845.558	898.9115	954.5114	966.846	1047.222	1051.0139	1053.9017	1095.7558	1157.222	1200.5284	1247.1462	1316.1769	1382.069	1412.5293	1413.9284	1456.5876	1475.9084	1477.1401	1482.6537	1495.2759	2362.9526	2366.2419	3031.7824	3053.3235	3056.9789	3094.8137	3095.5138	3096.4535	3136.8541	3145.2739	3810.1664
CC#CC(C)(O)CC#N	CC#C[C@@](C)(O)CC#N	
InChI=1S/C7H9NO/c1-3-4-7(2,9)5-6-8/h9H,5H2,1-2H3	InChI=1S/C7H9NO/c1-3-4-7(2,9)5-6-8/h9H,5H2,1-2H3/t7-/m1/s1
