22
gdb 113796	3.1114	1.02543	0.9696	1.6133	83.64	-0.2153	0.0736	0.2889	1370.1933	0.192732	-404.299201	-404.289501	-404.288557	-404.333868	36.98	
C	 0.0237125046	 1.6333391138	 0.1358704026	-0.374189
C	 0.4021628682	 0.1951352245	-0.2090898931	-0.125256
N	 0.7654908022	-0.5300762335	 1.0111265548	-0.090636
C	-0.296205563	-1.2240176884	 1.7324029077	-0.275816
C	 0.7622822094	-1.9939512222	 1.0164753598	-0.056443
C	 0.4487946792	-2.8389871993	-0.1917646821	 0.395241
O	-0.8157648868	-2.6639505203	-0.7820931097	-0.455785
C	 1.5409577576	-3.1291090098	-1.1815551955	-0.28917
C	 1.044361239	-4.2273226866	-0.2657862865	-0.336032
H	 0.8385137467	 2.1298596932	 0.6707104364	 0.121628
H	-0.1976896353	 2.2029928976	-0.7721490535	 0.108126
H	-0.8648454698	 1.6615915455	 0.7757562609	 0.113163
H	-0.4121570222	-0.2921930749	-0.7620562707	 0.112726
H	 1.282504218	 0.1903875766	-0.8628807053	 0.098408
H	-0.2852328984	-1.1368390989	 2.8163067694	 0.109601
H	-1.2893811931	-1.2211873525	 1.2850738661	 0.100859
H	 1.5764257403	-2.4088539588	 1.6099144689	 0.086
H	-1.4709477796	-3.0392983032	-0.1827615909	 0.281084
H	 1.245696183	-3.1758177657	-2.2230723803	 0.125711
H	 2.5223884127	-2.7060990854	-0.9990360696	 0.120839
H	 1.6871400552	-4.5657474965	 0.5398926359	 0.115075
H	 0.4204853522	-4.9955516053	-0.7084295254	 0.114867
53.581	87.8414	139.1339	202.5957	241.7361	266.2305	309.0578	334.9278	366.9673	407.122	436.8062	495.0487	603.7931	717.2214	747.2153	773.9256	814.429	866.4337	916.0379	921.2154	925.2151	967.7121	988.5575	1005.388	1051.3072	1058.5849	1078.4213	1097.8812	1117.0172	1138.8612	1145.6403	1191.657	1201.6074	1244.7335	1297.3706	1316.5204	1333.4321	1354.1424	1392.3578	1410.8151	1420.9844	1452.888	1488.4554	1490.316	1496.081	1502.9901	1521.4516	3014.5411	3035.8825	3054.8083	3087.5784	3103.8751	3105.1022	3116.0075	3132.2972	3141.5011	3170.2143	3219.1514	3236.012	3790.9115
CCN1CC1C1(O)CC1	CCN1C[C@H]1C1(O)CC1	
InChI=1S/C7H13NO/c1-2-8-5-6(8)7(9)3-4-7/h6,9H,2-5H2,1H3	InChI=1S/C7H13NO/c1-2-8-5-6(8)7(9)3-4-7/h6,9H,2-5H2,1H3/t6-,8?/m0/s1
