16
gdb 127973	4.78628	1.09605	0.90181	3.6518	79.85	-0.2429	-0.0905	0.1525	1275.4811	0.122539	-434.040266	-434.031558	-434.030614	-434.074736	30.862	
C	-0.0783582291	 1.4243362252	 0.008339255	-0.318602
N	 0.0021733341	-0.0257418455	 0.0032131339	-0.287295
C	-1.0687052337	-0.6928776102	 0.0095458723	 0.472887
O	-2.3052030194	-0.0284440895	 0.0214075728	-0.281235
N	-3.5187926404	-0.7040295395	 0.0284048648	-0.114847
C	-3.4638141583	-1.9892752132	 0.0237596599	 0.334435
C	-4.7576584468	-2.7460823838	 0.0311120463	-0.481151
C	-2.1812025796	-2.6859428468	 0.0117565694	-0.037504
N	-1.0519360899	-2.0824503607	 0.0050278442	-0.252658
H	 0.9333852416	 1.8350550832	 0.0010462461	 0.123436
H	-0.6191957582	 1.8071606678	-0.8673842786	 0.12822
H	-0.6041891993	 1.801661225	 0.8955183012	 0.12823
H	-5.5987633968	-2.051759894	 0.0395972209	 0.159493
H	-4.8347502861	-3.389052965	-0.8528409014	 0.146725
H	-4.8215008503	-3.3945500094	 0.912103023	 0.14673
H	-2.1794963179	-3.7764343736	 0.0082972803	 0.133137
23.8786	112.1152	159.6531	196.3509	209.2649	312.49	316.0499	363.5865	475.6574	548.7025	558.6925	623.467	751.9097	763.0478	771.8043	898.0007	959.6999	979.9038	1056.6565	1065.7122	1078.1282	1105.1014	1124.2694	1208.502	1275.8772	1411.6205	1430.2219	1434.9477	1473.9256	1477.3195	1483.1208	1497.0805	1620.8111	1699.4474	1743.9833	3004.2666	3036.5614	3054.6481	3092.0701	3113.8808	3126.4873	3149.6862
CN=C1ON=C(C)C=N1	C[N]C1=N[CH]C(=NO1)C	
InChI=1S/C5H7N3O/c1-4-3-7-5(6-2)9-8-4/h3H,1-2H3	InChI=1S/C5H7N3O/c1-4-3-7-5(6-2)9-8-4/h3H,1-2H3
