19
gdb 82217	2.40487	1.79746	1.3321	1.5754	73.03	-0.24	0.0653	0.3053	1009.9251	0.1598	-422.993281	-422.985222	-422.984278	-423.025318	32.605	
O	 0.264948745	 1.2906698381	-0.4293404483	-0.43755
C	 0.057943339	-0.0517132737	-0.0108540406	 0.026929
C	 0.6771745068	-0.4360192282	 1.3349872972	-0.069064
C	 0.1842121533	 0.1971101892	 2.6162070911	-0.315886
C	-0.3816700878	-1.1269479733	 2.1692526783	-0.035071
C	-1.6723758121	-1.1501231521	 1.3627252888	-0.094876
C	-2.3594787085	 0.1618021918	 1.0128564747	-0.367363
C	-1.4170002296	-0.4933566046	 0.0379069928	 0.389309
O	-1.943824844	-1.0452764346	-1.131325144	-0.471148
H	 0.0272341266	 1.8646744235	 0.3063657033	 0.277774
H	 0.5242125757	-0.6598114451	-0.793335563	 0.09969
H	 1.7031744141	-0.785097268	 1.3204199227	 0.090896
H	 0.8784929499	 0.1825624838	 3.4496223811	 0.114781
H	-0.4387276642	 1.0846295022	 2.6016015288	 0.104774
H	-0.1505490336	-2.008266174	 2.7558679535	 0.087918
H	-2.2946010737	-2.0348176274	 1.4275682997	 0.096452
H	-3.4092697395	 0.0824047959	 0.7506673989	 0.115377
H	-2.1026548155	 1.0817120874	 1.5258315227	 0.101092
H	-2.0934695018	-0.3217884708	-1.7508938977	 0.285966
127.1766	177.9629	227.8953	264.1719	296.6794	338.6908	419.3146	432.6986	494.2932	569.3718	618.0996	659.7428	692.9258	793.3212	806.5738	842.728	897.7362	936.0525	958.9154	972.0367	992.2024	1020.1687	1039.0018	1050.0924	1069.9872	1074.2295	1093.8477	1108.6806	1119.1472	1198.3856	1216.0498	1262.1618	1277.3566	1317.1336	1321.9024	1351.854	1381.13	1409.8206	1432.1923	1484.6631	1507.8863	3061.0171	3130.1048	3139.0949	3169.452	3175.4635	3186.7706	3210.2678	3218.3641	3788.3589	3810.7118
OC1C2CC2C2CC12O	O[C@H]1[C@H]2C[C@H]2[C@H]2C[C@@]12O	
InChI=1S/C7H10O2/c8-6-4-1-3(4)5-2-7(5,6)9/h3-6,8-9H,1-2H2	InChI=1S/C7H10O2/c8-6-4-1-3(4)5-2-7(5,6)9/h3-6,8-9H,1-2H2/t3-,4+,5-,6+,7+/m1/s1
