21
gdb 73151	2.53378	1.61033	1.3837	1.5762	82.24	-0.2341	0.0756	0.3096	1063.3628	0.182132	-387.049843	-387.0414	-387.040456	-387.082755	33.255	
C	 0.2244213734	 1.6473263665	 0.1980963046	-0.484229
C	 0.1254252904	 0.1460234584	 0.1529874296	 0.372409
O	-1.2314405694	-0.3111827328	-0.0862394566	-0.325205
C	-1.156308676	-1.2519181923	 1.0092158181	-0.083863
C	 0.2889351216	-0.8483978139	 1.3480333303	-0.128162
C	 1.3826134615	-1.6229088938	 0.5659170328	-0.333722
C	 1.1611151374	-0.6816029198	-0.6323538392	 0.342561
C	 1.0625154556	-1.0455701455	-2.0820111162	-0.309822
C	 2.1945896497	-0.1726448421	-1.5966876226	-0.335927
H	 1.2393091678	 1.9651428429	 0.455462981	 0.119312
H	-0.0296066822	 2.075307709	-0.7789316645	 0.12599
H	-0.4733359796	 2.0573958019	 0.93394773	 0.121637
H	-1.8992576395	-1.0193547161	 1.782472533	 0.09869
H	-1.2999133445	-2.2896735485	 0.6801664109	 0.096163
H	 0.5029936087	-0.541358427	 2.3712528152	 0.074239
H	 2.37591216	-1.5269421167	 1.0148398071	 0.101651
H	 1.1796086494	-2.6855856185	 0.3971729476	 0.097476
H	 1.2893310459	-2.0689319964	-2.3642584694	 0.108957
H	 0.2665958708	-0.5885700874	-2.6608029852	 0.121803
H	 2.178138683	 0.8803458452	-1.8600190738	 0.111392
H	 3.1908108158	-0.6016089531	-1.5433826226	 0.10865
57.2192	199.1491	204.6595	214.9452	241.7874	309.4191	380.9229	388.6161	473.7417	538.4788	630.3632	754.4624	777.632	812.3507	856.7066	865.0296	884.9146	911.1745	931.8303	940.4678	983.6661	1007.8043	1035.4837	1049.7684	1073.3486	1097.6732	1117.4481	1145.4993	1155.8918	1158.3004	1186.5287	1190.4367	1218.5133	1261.6951	1295.036	1322.9478	1354.6045	1375.3276	1405.5449	1466.0218	1479.5152	1481.6333	1487.2588	1503.2734	1523.3885	3005.4945	3030.7915	3038.8255	3046.5514	3086.5352	3097.6028	3114.4703	3115.9987	3119.8822	3126.7808	3198.2602	3214.8575
CC12OCC1CC21CC1	C[C@]12OC[C@H]1CC12CC1	
InChI=1S/C8H12O/c1-7-6(5-9-7)4-8(7)2-3-8/h6H,2-5H2,1H3	InChI=1S/C8H12O/c1-7-6(5-9-7)4-8(7)2-3-8/h6H,2-5H2,1H3/t6-,7+/m1/s1
