19
gdb 67446	2.58285	1.7268	1.62954	1.729	79.78	-0.2153	0.0222	0.2374	965.4174	0.160738	-385.868866	-385.86152	-385.860576	-385.900178	29.932	
C	-0.0458203444	 1.5534241841	-0.0474906818	-0.509846
C	-0.0117288014	 0.0553779121	-0.0217368115	 0.240963
C	 0.5338659611	-0.9852325573	-0.9524374627	 0.051923
O	 1.1439710123	-1.7511714498	 0.0741001911	-0.29876
C	 0.6275350794	-0.8189167572	 1.0784771884	 0.052993
C	-0.3047350586	-1.5356291834	 2.0428192595	-0.273902
C	-1.473724229	-2.1503765511	 1.3125196111	-0.083914
C	-1.7632125455	-1.8543462821	 0.0439328671	-0.030276
C	-0.980241152	-0.8679364353	-0.7364184189	-0.171834
H	 0.9355386589	 1.9805895405	 0.1899573906	 0.120471
H	-0.3394683169	 1.921282922	-1.0359497713	 0.122215
H	-0.7680669406	 1.9495773789	 0.676567607	 0.12387
H	 1.0208679546	-0.9364201103	-1.9204064989	 0.101406
H	 1.4606281708	-0.3238965839	 1.5901754243	 0.076938
H	 0.2676082096	-2.3172449988	 2.55942129	 0.117321
H	-0.6424702696	-0.8425980345	 2.8289926851	 0.104597
H	-2.0802941167	-2.867391186	 1.8584463873	 0.086183
H	-2.5984471238	-2.3380718283	-0.4544509332	 0.085515
H	-1.483204368	-0.4053313596	-1.5820184832	 0.084136
173.8045	188.897	207.5876	286.5619	357.8165	385.114	497.2702	524.2673	599.6274	657.5056	699.6053	760.5739	811.6388	859.6298	876.7636	892.6795	928.3516	938.0828	981.1779	987.6419	1012.0984	1031.9028	1042.4398	1070.2228	1090.2954	1128.3648	1185.1446	1197.8735	1232.788	1240.9193	1278.307	1324.9379	1339.9308	1374.8079	1413.8067	1421.945	1459.7813	1482.1022	1488.2153	1498.7825	1709.8161	2992.8506	3019.6458	3036.0082	3044.3466	3078.417	3095.9614	3142.353	3156.1455	3172.5512	3178.3547
CC12C3OC1CC=CC23	C[C@@]12[C@H]3O[C@@H]1CC=C[C@@H]23	
InChI=1S/C8H10O/c1-8-5-3-2-4-6(8)9-7(5)8/h2-3,5-7H,4H2,1H3	InChI=1S/C8H10O/c1-8-5-3-2-4-6(8)9-7(5)8/h2-3,5-7H,4H2,1H3/t5-,6-,7+,8+/m1/s1
