25
gdb 87705	2.24663	1.27988	1.12985	0.1541	92.91	-0.2534	0.0811	0.3345	1304.6297	0.227843	-352.345113	-352.334987	-352.334042	-352.379702	39.154	
C	 0.0334542649	 1.6470191512	 0.61603911	-0.40781
C	-0.1212496192	 0.1503716881	 0.4646224435	-0.046399
C	 0.8718511727	-0.6477167854	-0.3512909367	-0.367725
C	 0.8199918665	-0.814807184	 1.1395753942	 0.362815
C	 1.8902151726	-0.462192652	 2.1808961724	-0.318406
C	 1.23323429	-1.4909245953	 3.1537520035	 0.013062
C	 0.4158280465	-0.8438633534	 4.2676693789	-0.395841
C	 0.4184686065	-2.0677656079	 1.9408090299	-0.038181
C	-1.0507224847	-2.4315711155	 2.103489298	-0.417824
H	 1.0884687869	 1.9351142239	 0.6653610969	 0.115647
H	-0.4125945139	 2.1766025988	-0.2332457524	 0.114826
H	-0.4523035614	 2.0137028463	 1.5280699998	 0.112872
H	-1.1540336224	-0.1843509141	 0.3925262825	 0.078564
H	 0.5015793681	-1.4565299447	-0.9749902349	 0.102254
H	 1.7212507241	-0.1165881045	-0.7729842148	 0.102326
H	 2.8998104548	-0.7489130313	 1.8697154618	 0.093546
H	 1.9195441904	 0.573512957	 2.5340039967	 0.092923
H	 1.9330645948	-2.209503656	 3.5911593368	 0.059874
H	-0.2704058053	-0.0846803597	 3.8761689546	 0.116923
H	-0.1801316305	-1.5812139421	 4.8161744552	 0.111228
H	 1.0765265508	-0.3478108164	 4.9872399768	 0.110503
H	 0.9540768164	-2.9374416657	 1.5390330057	 0.066524
H	-1.637754283	-1.601718128	 2.508204982	 0.115851
H	-1.4938709051	-2.7113004844	 1.1406334231	 0.111423
H	-1.1717447903	-3.2875174048	 2.7767877165	 0.111023
54.8712	135.0476	186.7362	192.0444	223.0587	233.5294	247.2023	267.2882	348.2592	389.6449	424.8393	451.7348	494.7541	575.9236	723.7599	778.9813	786.6924	833.7799	873.5857	892.2001	913.5016	926.9158	982.5791	999.4977	1024.5957	1043.5985	1056.5037	1098.6932	1108.176	1125.8921	1128.8847	1166.1792	1184.6961	1200.7997	1211.7641	1243.5767	1275.0984	1287.4171	1330.8879	1364.6943	1370.0517	1405.3319	1408.7106	1411.9456	1427.5468	1484.9619	1486.8072	1490.9141	1492.0521	1493.9417	1502.8714	1504.9925	1506.082	3012.0323	3022.7716	3024.0796	3027.7949	3036.9765	3050.6609	3081.6214	3084.239	3085.1336	3091.1695	3094.4522	3095.5801	3105.1577	3108.2061	3126.8928	3190.5463
CC1CC11CC(C)C1C	C[C@H]1C[C@]21C[C@@H](C)[C@H]2C	
InChI=1S/C9H16/c1-6-4-9(8(6)3)5-7(9)2/h6-8H,4-5H2,1-3H3	InChI=1S/C9H16/c1-6-4-9(8(6)3)5-7(9)2/h6-8H,4-5H2,1-3H3/t6-,7+,8-,9+/m1/s1
