15
gdb 105292	2.30417	1.27702	1.06213	3.9657	67.89	-0.2808	-0.0311	0.2498	1163.5013	0.110912	-453.934983	-453.925938	-453.924994	-453.969478	31.42	
O	 0.1995905315	 1.3270969753	 0.1345029008	-0.400015
C	 0.0359247645	 0.0259934458	-0.3756758039	-0.121773
C	-1.3049764068	-0.5754319449	 0.0271000631	 0.092299
C	-1.4246961448	-2.0420643233	 0.3809362457	-0.264788
N	-1.3802605717	-1.0389309166	 1.4145877301	-0.110325
C	-2.4527233395	-0.7994914281	 2.2834206645	 0.148428
O	-3.0926246587	-1.6682093527	 2.8107102469	-0.2606
C	-2.4734116108	 0.074443555	-0.5331902828	 0.27641
N	-3.3937784056	 0.6045471279	-0.9892638026	-0.322342
H	 0.2388587106	 1.2621249696	 1.0954690068	 0.295251
H	 0.0915892511	 0.1059859956	-1.465160026	 0.139332
H	 0.8270464182	-0.6583880585	-0.0377864582	 0.108878
H	-2.3788987316	-2.5306606796	 0.206751194	 0.163856
H	-0.5441601811	-2.6695010232	 0.2770555645	 0.144123
H	-2.5896617052	 0.2789443377	 2.4792311069	 0.111265
63.8282	87.5339	137.6079	163.1065	184.2157	253.617	338.4401	351.88	396.6954	441.2207	564.1277	579.3371	629.7632	767.2307	861.4672	909.5781	940.2888	986.4846	1036.7002	1087.3782	1117.2692	1137.3391	1156.3732	1203.7202	1288.3583	1365.7344	1406.4262	1411.4133	1419.8894	1488.0233	1505.422	1817.4836	2357.0283	2983.8938	3007.6683	3097.924	3120.6359	3216.3106	3803.1922
OCC1(CN1C=O)C#N	OC[C@]1(CN1C=O)C#N	
InChI=1S/C5H6N2O2/c6-1-5(3-8)2-7(5)4-9/h4,8H,2-3H2	InChI=1S/C5H6N2O2/c6-1-5(3-8)2-7(5)4-9/h4,8H,2-3H2/t5-,7?/m1/s1
