20
gdb 91948	2.33848	1.72394	1.35593	1.3804	77.93	-0.2399	0.068	0.3079	1044.4838	0.172164	-403.116034	-403.108065	-403.107121	-403.148178	31.845	
C	-0.2908199638	 1.534397764	 0.003335538	-0.399043
C	 0.0197470725	 0.0311024535	-0.0069166682	-0.080021
C	 0.9357246441	-0.3918695254	-1.1983073361	-0.233986
C	 2.3299626531	-0.5404515057	-0.6114504421	-0.027655
N	 2.7583561643	 0.6346170492	 0.1772911902	-0.344283
C	 2.2354956374	-0.5682728254	 0.8688133958	-0.134951
C	 0.7870810613	-0.4407509934	 1.2396056426	 0.477023
C	 0.3062301175	-0.2963049004	 2.6152465696	-0.252787
O	 0.2589450521	-1.5680812674	 1.9584462484	-0.290219
H	 0.6311385614	 2.1179271766	 0.0498770002	 0.146656
H	-0.8339660177	 1.8165234911	-0.9050489553	 0.106488
H	-0.9166867183	 1.804021759	 0.8602969526	 0.10528
H	-0.921505378	-0.5256272753	-0.0402431108	 0.087586
H	 0.6190514704	-1.3590188265	-1.6037258962	 0.105147
H	 0.9035103678	 0.3363932947	-2.014766667	 0.102968
H	 3.0827307771	-1.113830443	-1.1428246238	 0.087167
H	 3.7727877859	 0.635679582	 0.2519014256	 0.233278
H	 2.887927859	-1.1626223558	 1.4992760224	 0.090306
H	 1.0197716261	-0.2174577259	 3.4352531991	 0.108725
H	-0.662033532	 0.165080114	 2.8056229352	 0.112321
102.2926	199.6574	220.8695	247.4443	305.6273	343.3256	378.5088	429.4319	489.4537	571.2522	697.2944	744.8329	800.7655	854.0906	857.8156	869.6872	896.3899	907.4144	955.6367	969.5371	991.7719	1018.8922	1064.6354	1104.0882	1119.1159	1127.8984	1131.6661	1153.6336	1167.3591	1223.3604	1238.2931	1264.2279	1271.0312	1335.7526	1345.3857	1351.4497	1400.2059	1406.8697	1458.7033	1484.953	1496.3193	1510.6708	1534.0065	3034.4525	3042.5665	3063.0087	3076.6174	3086.7638	3096.1635	3134.1196	3159.6383	3160.6078	3175.9829	3499.7932
CC1CC2NC2C11CO1	C[C@H]1C[C@H]2N[C@H]2[C@]21CO2	
InChI=1S/C7H11NO/c1-4-2-5-6(8-5)7(4)3-9-7/h4-6,8H,2-3H2,1H3	InChI=1S/C7H11NO/c1-4-2-5-6(8-5)7(4)3-9-7/h4-6,8H,2-3H2,1H3/t4-,5+,6+,7+/m0/s1
