12
gdb 9004	7.01391	0.97565	0.8838	4.9798	53.53	-0.2723	-0.119	0.1533	1183.576	0.079754	-455.630383	-455.622102	-455.621158	-455.66457	26.643	
O	 0.2156758523	 0.1123889856	-0.0978936947	-0.258882
C	 0.3596165358	 1.283936813	-0.2461756285	 0.191332
O	 0.5251841243	 2.1269856624	 0.8073124052	-0.163941
C	 0.7620611454	 3.4849058242	 0.5117468688	-0.215251
C	 2.1561730848	 3.7265527105	-0.0602457841	 0.295369
O	 2.8605862975	 2.8425896095	-0.4659951651	-0.242119
C	 2.6045247646	 5.2077604868	-0.117877777	 0.087312
O	 3.6645797039	 5.5325765334	-0.5711769921	-0.187463
H	 0.343832447	 1.8074244483	-1.2196014624	 0.087038
H	 0.0220651006	 3.8914878254	-0.1973887917	 0.147335
H	 0.6359464575	 4.0380180157	 1.4482074481	 0.160551
H	 1.8792685562	 5.9475503552	 0.2889171036	 0.098719
47.7172	76.9932	93.3129	164.8008	215.6974	291.0932	342.9479	391.548	445.3643	653.219	728.4809	843.9875	898.8767	1013.85	1032.8471	1045.7467	1082.0341	1176.5338	1286.9281	1383.275	1415.6036	1427.0996	1463.6325	1822.873	1851.2379	1884.6026	2883.3299	2970.7378	2988.2882	3085.3228
O=COCC(=O)C=O	O=COCC(=O)C=O	
InChI=1S/C4H4O4/c5-1-4(7)2-8-3-6/h1,3H,2H2	InChI=1S/C4H4O4/c5-1-4(7)2-8-3-6/h1,3H,2H2
