19
gdb 73459	2.28064	1.86642	1.56905	1.9758	73.86	-0.2193	0.0627	0.282	962.7188	0.16011	-422.998507	-422.99068	-422.989736	-423.030087	31.976	
O	-0.2096939755	 1.2851283775	-0.1159436763	-0.495449
C	-0.0120893551	-0.0990595446	-0.0657697464	 0.323854
C	 1.0546373697	-0.7520552947	-0.9479142245	-0.296462
C	 0.3999370678	-2.1088619785	-1.341707752	-0.211831
C	-0.7204550939	-2.3022715938	-0.3004921421	-0.099055
C	-0.1419629428	-2.2852654918	 1.1565014896	-0.236146
C	-0.4529451593	-0.792757825	 1.2377917982	-0.222483
C	-1.2799484274	-0.8823477001	-0.0476263316	 0.385525
O	-2.5147881959	-0.4067645521	-0.417498667	-0.475793
H	 0.3694822157	 1.709919052	 0.5250636766	 0.28797
H	 1.2506252717	-0.1199223898	-1.8184857733	 0.105642
H	 2.006812246	-0.8897164142	-0.4233187124	 0.093961
H	-0.0350805672	-2.0415430952	-2.3447860078	 0.103917
H	 1.1126146326	-2.9393004182	-1.3447743894	 0.095119
H	-1.4284571645	-3.099119187	-0.5251518694	 0.077883
H	-0.7624943238	-2.8599727119	 1.8487889625	 0.105366
H	 0.9015718283	-2.6028811567	 1.2665351289	 0.086669
H	-0.6099257269	-0.2020884417	 2.1346221493	 0.077937
H	-2.4161272395	 0.5472507858	-0.539580883	 0.293375
193.4926	209.2316	222.4914	270.751	327.1544	345.9656	386.0707	412.6481	508.7777	562.8993	626.3431	664.374	712.1446	794.628	829.3147	855.0128	901.7013	928.5885	943.0333	974.6321	998.2007	1033.7461	1041.0785	1083.1723	1107.4524	1134.5035	1163.8125	1201.234	1214.5333	1240.2866	1261.2139	1268.7354	1277.3483	1307.4045	1330.4187	1348.0627	1399.4534	1473.7751	1486.2433	1494.3752	1513.9299	3029.809	3037.9576	3044.0349	3081.6267	3093.2123	3097.5986	3122.5128	3161.7973	3758.1274	3805.2361
OC12CCC3CC1C23O	O[C@@]12CC[C@H]3C[C@@H]1[C@@]23O	
InChI=1S/C7H10O2/c8-6-2-1-4-3-5(6)7(4,6)9/h4-5,8-9H,1-3H2	InChI=1S/C7H10O2/c8-6-2-1-4-3-5(6)7(4,6)9/h4-5,8-9H,1-3H2/t4-,5-,6-,7+/m0/s1
