16
gdb 36125	4.1208	1.13726	1.00589	4.6759	72.78	-0.2604	-0.0129	0.2475	1160.4595	0.124525	-400.7519	-400.744218	-400.743274	-400.7846	29.016	
N	-0.0501976507	-1.0916899143	-0.4834675807	-0.306004
C	-0.0443653814	 0.0353024648	-0.2298159655	 0.270408
C	-0.0226269001	 1.4594921535	 0.1116339975	-0.437638
C	 1.3860742382	 2.0150705717	 0.1982459738	 0.41295
C	 2.4011166496	 1.4355992306	 1.1848740053	-0.328178
C	 3.3136560875	 2.6120502231	 1.4658491621	-0.078046
C	 2.9217444248	 3.7224694707	 0.8355459986	-0.075812
C	 1.7208114582	 3.4373868839	-0.0035508255	-0.079321
O	 1.9638770358	 2.4417999431	-1.0328783141	-0.28733
H	-0.5824818337	 2.0150392408	-0.6468538075	 0.163719
H	-0.5390472569	 1.5915653974	 1.0698011526	 0.156894
H	 1.9132539892	 1.0694266005	 2.0976268745	 0.118559
H	 2.936836208	 0.5847696348	 0.7492373937	 0.146631
H	 4.1950576185	 2.5208453489	 2.0899682806	 0.111598
H	 3.4052893078	 4.6898972646	 0.8770837473	 0.110571
H	 0.993929925	 4.1990159359	-0.2705508827	 0.101
56.2081	108.9655	224.2802	294.3496	370.5182	385.3701	402.1582	449.8655	531.2937	699.2696	718.186	740.4873	817.8204	855.7781	906.3114	922.5071	939.2066	955.9222	958.8678	986.3923	1018.7981	1071.9629	1137.4488	1160.6542	1203.1661	1242.8156	1274.4212	1323.8988	1330.3033	1370.5829	1435.0265	1447.3537	1462.2811	1661.4037	2364.8735	3030.0361	3045.2502	3074.9238	3096.8954	3159.6	3198.4376	3226.2609
N#CCC12CC=CC1O2	N#CC[C@]12CC=C[C@H]1O2	
InChI=1S/C7H7NO/c8-5-4-7-3-1-2-6(7)9-7/h1-2,6H,3-4H2	InChI=1S/C7H7NO/c8-5-4-7-3-1-2-6(7)9-7/h1-2,6H,3-4H2/t6-,7-/m1/s1
