22
gdb 121277	4.00132	0.84846	0.76653	2.1732	81.46	-0.2271	0.0774	0.3044	1529.0391	0.195812	-404.325942	-404.316986	-404.316042	-404.360047	34.01	
O	-0.0892912839	 1.4764538769	-0.0874310552	-0.420926
C	 0.0218566949	 0.0634109545	-0.0040181245	-0.074578
C	-1.3883981723	-0.5142671573	 0.0065423415	-0.187839
C	-1.4234328362	-2.0458692517	 0.0312666234	 0.017666
C	-0.863348816	-2.7032160376	 1.3160568378	-0.25621
C	-1.6405380606	-4.0361009026	 1.4182904781	-0.157796
N	-2.9362972485	-3.869690694	 0.7289387107	-0.100843
C	-3.6688192786	-2.6668305893	 1.1524761158	-0.24884
C	-2.8264622973	-2.6360250095	-0.0717361474	-0.02979
H	 0.7968677052	 1.8494305809	-0.0772301322	 0.284928
H	 0.5819699982	-0.3439313446	-0.8626583501	 0.082328
H	 0.5611233597	-0.2384034762	 0.9079995117	 0.086714
H	-1.9274201458	-0.1137732004	 0.8736677282	 0.103512
H	-1.9108149691	-0.1440647197	-0.8839422925	 0.105339
H	-0.8538740037	-2.4191812614	-0.8318892927	 0.073229
H	 0.2171801459	-2.8614527068	 1.2738531573	 0.101322
H	-1.0548950293	-2.0627403124	 2.1836824463	 0.104308
H	-1.101677308	-4.836409628	 0.8990375109	 0.106128
H	-1.7995790425	-4.3629657885	 2.4508753612	 0.104078
H	-4.7484984441	-2.7431485854	 1.0628318239	 0.114102
H	-3.3319618829	-2.1282188986	 2.0350299113	 0.106939
H	-3.3011331049	-2.6494491687	-1.0494483835	 0.086229
77.575	97.2893	115.461	193.5456	264.4725	271.7455	334.4663	354.6857	411.2381	526.1799	647.3759	654.129	746.0068	791.5363	835.4601	865.7984	873.1685	950.2517	966.072	997.7535	1005.0868	1026.1761	1033.0858	1076.3945	1090.6015	1108.4463	1130.7484	1149.6483	1180.2886	1201.2706	1230.012	1238.3989	1246.4572	1271.5125	1301.9658	1315.8921	1320.8003	1342.9554	1345.6629	1381.752	1398.1162	1463.407	1490.416	1493.4934	1500.2547	1522.9605	1527.3231	2956.9222	2987.595	2999.487	3030.6395	3039.4907	3048.1925	3073.0848	3081.5701	3100.2056	3107.745	3139.6396	3189.2394	3830.2943
OCCC1CCN2CC12	OCC[C@H]1CCN2C[C@@H]12	
InChI=1S/C7H13NO/c9-4-2-6-1-3-8-5-7(6)8/h6-7,9H,1-5H2	InChI=1S/C7H13NO/c9-4-2-6-1-3-8-5-7(6)8/h6-7,9H,1-5H2/t6-,7+,8?/m1/s1
