19
gdb 48947	3.47273	1.37646	1.32662	3.4104	79.82	-0.2422	-0.0117	0.2306	1034.97	0.162234	-385.922963	-385.916026	-385.915082	-385.954275	28.399	
O	-0.1439144443	 0.0742452733	 0.2342614153	-0.274652
C	 0.0404485522	 1.2292603969	-0.0741203823	 0.040772
C	 1.3365152603	 1.9085728597	-0.0258537251	 0.28715
C	 2.6333797381	 1.24767055	 0.4221913403	-0.282331
C	 3.548246857	 2.4793860781	 0.232049225	-0.055312
C	 3.2274001156	 2.8877493256	-1.2265224351	-0.223287
C	 1.7121277678	 2.9813969994	-1.0672874335	-0.104523
C	 1.4391518374	 3.4018976738	 0.3430393356	-0.10452
C	 2.7892904704	 3.5625785772	 1.0369219179	-0.22329
H	-0.8027873338	 1.8689258096	-0.4284290654	 0.057197
H	 2.5885922053	 0.9002598236	 1.4583699673	 0.107798
H	 2.9120925788	 0.4019623435	-0.2129978858	 0.107802
H	 4.6013440905	 2.3463383538	 0.475552124	 0.069409
H	 3.6756783804	 3.8466629519	-1.5076940806	 0.100816
H	 3.5339134861	 2.1314404349	-1.9556221513	 0.103945
H	 1.0398040041	 3.2178683864	-1.8817369819	 0.094137
H	 0.555867798	 3.9633261045	 0.6184907458	 0.094135
H	 2.7473217695	 3.3430269071	 2.1081715557	 0.103942
H	 3.2093749063	 4.5649257406	 0.9014418239	 0.100812
101.608	186.5813	269.042	400.6567	424.579	453.9607	459.2756	629.1396	641.5262	762.4696	795.9951	833.6373	885.136	905.5536	913.031	918.9327	942.4733	949.7442	961.9086	1005.573	1011.0546	1054.5405	1069.1069	1081.4381	1109.4698	1147.7677	1152.0379	1175.1032	1242.839	1247.1697	1279.8079	1284.5712	1291.6551	1331.7106	1353.0854	1394.6431	1440.9137	1487.1353	1488.1337	1512.9469	1801.6386	2845.1786	3043.7406	3047.0656	3059.0342	3090.1378	3093.3764	3104.1282	3129.385	3196.7696	3206.136
O=CC12CC3CC1C2C3	O=C[C@@]12C[C@H]3C[C@@H]1[C@@H]2C3	
InChI=1S/C8H10O/c9-4-8-3-5-1-6(8)7(8)2-5/h4-7H,1-3H2	InChI=1S/C8H10O/c9-4-8-3-5-1-6(8)7(8)2-5/h4-7H,1-3H2/t5-,6+,7-,8-
