17
gdb 73297	2.93002	1.87567	1.32951	0.1807	67.32	-0.2448	0.058	0.3028	950.9102	0.135202	-458.897903	-458.890532	-458.889588	-458.929114	29.997	
C	 0.0098492385	 1.4947827194	-0.0601781188	-0.494043
C	 0.030260662	-0.0019801437	-0.0010187914	 0.461777
O	 0.3850262213	-0.6076730349	-1.2298228804	-0.313343
C	 0.3417466804	-2.0189085492	-0.9479734571	-0.142199
C	-0.0625496913	-2.0058233203	 0.5125431024	 0.390908
O	-0.2058961312	-3.2210946296	 1.1387546573	-0.480672
C	 0.663402287	-0.7908333352	 1.1875516108	-0.100274
O	-0.5177675351	-0.5362246649	 2.027766478	-0.337925
C	-1.0866758502	-0.8338372692	 0.7034861826	-0.100275
H	 0.9953274647	 1.8830155325	-0.3337554306	 0.13046
H	-0.7116417253	 1.8410664847	-0.8060163187	 0.130461
H	-0.2708504163	 1.888723955	 0.9194189696	 0.142035
H	-0.3940869918	-2.5147890524	-1.5909868728	 0.116614
H	 1.3250967715	-2.472542999	-1.1154648916	 0.116614
H	-0.4629792621	-3.0263981909	 2.0509362963	 0.293606
H	 1.648733413	-0.7228775756	 1.6495691736	 0.093128
H	-2.1713171152	-0.8167488168	 0.5929570108	 0.093128
218.3382	234.1975	258.5117	268.4362	282.6291	415.9988	447.4669	497.4449	521.0944	595.6368	689.1643	714.1497	740.9521	751.8548	837.6299	873.1877	883.3106	926.857	1023.5477	1037.5108	1064.6867	1093.4787	1100.8725	1129.8645	1145.8213	1156.1637	1184.3456	1196.9939	1257.9097	1305.2561	1345.9893	1387.9747	1411.6003	1448.2506	1483.1758	1495.7226	1523.1012	3033.7398	3047.0897	3076.4004	3114.1786	3115.7593	3122.5539	3135.5171	3752.2528
CC12OCC3(O)C1OC23	C[C@@]12OC[C@@]3(O)[C@@H]1O[C@@H]23	
InChI=1S/C6H8O3/c1-5-3-6(7,2-8-5)4(5)9-3/h3-4,7H,2H2,1H3	InChI=1S/C6H8O3/c1-5-3-6(7,2-8-5)4(5)9-3/h3-4,7H,2H2,1H3/t3-,4+,5-,6-
