15
gdb 128640	5.07251	1.10407	0.91272	2.3278	73.64	-0.2247	-0.062	0.1627	1224.7939	0.113681	-450.138924	-450.130958	-450.130014	-450.171483	29.462	
C	-0.0209446672	 1.3882278927	 0.0177603722	-0.226695
O	-0.0419689215	-0.0397542979	 0.0208944557	-0.244701
C	-1.2430082899	-0.6292382302	 0.0127351386	 0.489465
N	-1.1964710968	-1.9745630456	 0.0156165555	-0.274103
C	-2.3658125797	-2.5671630116	-0.0041115204	-0.04739
C	-3.5670206736	-1.8206753157	-0.0138233474	 0.376108
N	-4.8082355614	-2.4250697681	-0.0980180798	-0.57048
N	-3.5249466773	-0.4932655168	 0.0044534651	-0.262761
N	-2.3377062323	 0.1176307142	 0.0077310013	-0.286271
H	 1.0350670384	 1.660625156	 0.0212217607	 0.131152
H	-0.5157472641	 1.7867250523	-0.8724060832	 0.139132
H	-0.5225238942	 1.7908397723	 0.9022803773	 0.13835
H	-2.3812378566	-3.6564146188	-0.0104123442	 0.120879
H	-4.8969596749	-3.3224127472	 0.3546216109	 0.255897
H	-5.5689602989	-1.7942465956	 0.1147246476	 0.261417
87.4536	144.2585	200.0765	226.6132	318.3795	372.9515	383.5315	433.0834	495.4943	551.622	574.5852	637.2896	665.5087	797.425	828.1067	873.7325	961.5077	1045.8329	1081.2299	1099.1536	1175.4336	1180.1001	1207.6313	1317.1813	1374.1515	1415.7711	1446.8183	1479.5947	1496.1668	1518.5652	1564.8547	1622.2071	1648.0462	3043.5556	3115.21	3134.0792	3150.3996	3562.0055	3670.6619
COC1=NC=C(N)N=N1	COc1ncc(N)nn1	
InChI=1S/C4H6N4O/c1-9-4-6-2-3(5)7-8-4/h2H,1H3,(H2,5,7)	InChI=1S/C4H6N4O/c1-9-4-6-2-3(5)7-8-4/h2H,1H3,(H2,5,7)
