16
gdb 27168	3.01904	1.34536	0.98995	2.0055	74.15	-0.1962	0.0089	0.2051	1163.163	0.124974	-437.879391	-437.871321	-437.870377	-437.912578	29.966	
N	 0.0726529405	 1.4382344419	 0.3028126634	-0.61304
C	 0.019697872	 0.0550942967	 0.0959808987	 0.116488
C	-1.0705212299	-0.7070318932	-0.2364827323	 0.343177
O	-0.6797147083	-2.0151819766	-0.4106551034	-0.187803
C	 0.6497698831	-2.0672086659	-0.1898799367	-0.012934
C	 1.1419571596	-0.839095389	 0.1181963778	-0.232716
C	-2.4777466077	-0.367327362	-0.4318720689	-0.066847
C	-3.4712681864	-1.3106346908	-0.9639473944	-0.175071
O	-3.4730605725	-0.9856480928	 0.4232336849	-0.240579
H	 0.8486547168	 1.715066113	 0.8887035797	 0.247998
H	-0.7836581682	 1.8220907324	 0.6800057214	 0.250265
H	 1.1062191173	-3.0390173256	-0.2848854032	 0.135303
H	 2.1687768394	-0.5894809546	 0.337338811	 0.10698
H	-2.6537898642	 0.6960056266	-0.594367108	 0.092933
H	-4.314103534	-0.9324251935	-1.5425216998	 0.11003
H	-3.1553571775	-2.3232639665	-1.2066589101	 0.125814
57.831	129.8899	169.4026	199.3996	288.6612	307.2274	436.4956	503.1187	611.514	629.9423	679.5888	713.3717	743.9122	769.0175	794.4629	810.0833	896.1591	923.5062	990.1196	1039.2074	1083.1477	1094.1156	1158.2956	1164.3095	1176.9435	1219.1739	1257.3271	1300.3832	1325.9805	1415.3357	1486.432	1517.917	1550.2944	1655.1766	1681.091	3081.0421	3111.477	3173.5321	3248.5173	3279.8107	3547.9058	3636.0158
NC1=C(OC=C1)C1CO1	Nc1c(occ1)[C@H]1CO1	
InChI=1S/C6H7NO2/c7-4-1-2-8-6(4)5-3-9-5/h1-2,5H,3,7H2	InChI=1S/C6H7NO2/c7-4-1-2-8-6(4)5-3-9-5/h1-2,5H,3,7H2/t5-/m1/s1
