23
gdb 83027	2.54884	1.33503	1.20483	0.2016	91.18	-0.225	0.0377	0.2627	1211.4122	0.206831	-351.171136	-351.162041	-351.161097	-351.204609	35.379	
C	 0.3289666519	 1.7331939413	 0.2635900352	-0.41758
C	 0.1011669388	 0.2487923978	 0.0731333583	-0.005878
C	 1.1681607323	-0.6964353813	-0.4385230072	-0.059155
C	 2.587952849	-0.2325358964	-0.7199144632	-0.275509
C	 3.3867823425	 0.1551096987	 0.4936984125	-0.143524
C	 2.9755927691	 0.0660721474	 1.7599249645	 0.32273
C	 3.8555224673	 0.4624831902	 2.9155332889	-0.472388
C	 1.6097162954	-0.4537333044	 2.1419863972	-0.312688
C	 0.6813256448	-0.8065532944	 0.9913966313	-0.056376
H	 1.3384375922	 1.957722676	 0.6152337606	 0.127941
H	 0.1776055156	 2.2738924491	-0.6777907223	 0.112252
H	-0.3779956975	 2.1459254375	 0.9925639316	 0.111507
H	-0.8999770311	 0.0184680209	-0.2850956351	 0.075586
H	 0.8171950231	-1.461450758	-1.124855755	 0.075528
H	 3.1232328363	-1.0391947586	-1.2411880587	 0.106222
H	 2.5832787251	 0.6057158667	-1.4332668419	 0.10374
H	 4.3902054601	 0.5279411046	 0.2941330785	 0.071251
H	 4.8314006759	 0.8213884042	 2.5776670661	 0.117117
H	 3.38993688	 1.2550584287	 3.5160776805	 0.119038
H	 4.0213142213	-0.3828048843	 3.5966484047	 0.118381
H	 1.7528936876	-1.3496413764	 2.7636928314	 0.104936
H	 1.1277157597	 0.2742625877	 2.813186846	 0.101397
H	 0.0211935908	-1.6407658167	 1.210628196	 0.075471
81.9311	146.5527	168.9038	187.0617	218.9327	259.796	326.242	418.232	428.9391	447.505	510.8557	573.3441	710.9513	746.8774	761.2297	808.2644	835.8955	891.997	934.3196	946.0878	963.324	991.551	1027.9603	1050.9593	1067.8992	1095.3966	1111.4244	1131.3553	1145.8975	1154.4288	1175.2138	1237.5423	1248.0506	1260.2822	1322.6292	1360.4615	1377.067	1380.4977	1396.1815	1413.5217	1417.6014	1451.0814	1473.5184	1478.0159	1478.6486	1492.9636	1501.7034	1503.8406	1749.9568	2983.4007	2988.87	3006.8923	3009.2817	3011.4255	3027.9921	3054.7615	3079.3266	3108.2381	3111.2784	3127.9547	3132.8467	3135.1995	3148.0762
CC1C2CC=C(C)CC12	C[C@H]1[C@H]2CC=C(C)C[C@@H]12	
InChI=1S/C9H14/c1-6-3-4-8-7(2)9(8)5-6/h3,7-9H,4-5H2,1-2H3	InChI=1S/C9H14/c1-6-3-4-8-7(2)9(8)5-6/h3,7-9H,4-5H2,1-2H3/t7-,8+,9-/m0/s1
