20
gdb 116776	5.82141	0.53504	0.51729	5.0908	78.1	-0.2505	0.0057	0.2562	2128.7908	0.168348	-477.405663	-477.394844	-477.3939	-477.443082	37.158	
C	-0.17898234	 1.260303638	 0.083496728	-0.250745
O	 0.0346429991	-0.1478543865	 0.1036868095	-0.192035
C	 0.5748355602	-0.6722276178	-1.0088978307	 0.136066
N	 0.8359188537	-1.9016848198	-1.0784605256	-0.239039
C	 1.4313325175	-2.415425034	-2.2992395355	-0.175105
C	 2.6724917401	-3.2337052874	-1.9234614893	 0.120474
O	 2.3345375887	-4.2144407309	-0.9540378307	-0.455837
C	 3.2742977698	-3.9937070748	-3.1000250863	-0.04918
O	 4.3780543074	-4.7738637848	-2.6898934867	-0.429425
H	 0.7680834187	 1.807088469	 0.0053595386	 0.13215
H	-0.8378885008	 1.5537980655	-0.7423102334	 0.131066
H	-0.6592465658	 1.5100951858	 1.0298451618	 0.151459
H	 0.7507938231	 0.0498934092	-1.8212054202	 0.080886
H	 0.7077135755	-3.0858263865	-2.78137155	 0.112993
H	 1.6983873146	-1.6245497815	-3.019681118	 0.085183
H	 3.4372933026	-2.5496187005	-1.5183593169	 0.066953
H	 1.7570735585	-3.7716214415	-0.3174804856	 0.296815
H	 2.4881048973	-4.6172438877	-3.5580852748	 0.084219
H	 3.6374153584	-3.2930653087	-3.8599565913	 0.098682
H	 4.0837072112	-5.2417012853	-1.8988025029	 0.294419
40.8111	57.2586	73.9803	127.5168	145.1291	164.532	226.8387	251.3144	332.5818	346.4184	434.0923	444.1314	477.924	481.6723	574.5776	620.9619	874.1546	922.1769	988.0441	1008.8628	1046.8885	1078.5235	1095.3472	1113.8001	1137.7803	1176.5901	1179.1256	1209.2932	1262.0072	1279.3994	1286.5949	1334.0719	1374.8474	1387.9775	1412.6156	1433.3221	1456.4309	1480.6986	1486.4887	1495.3213	1499.7877	1500.5016	1777.0341	2955.856	2966.5602	2970.6616	2997.675	3020.3155	3040.0612	3070.1472	3083.7271	3149.9182	3754.4457	3789.6484
COC=NCC(O)CO	COC=NC[C@@H](O)CO	
InChI=1S/C5H11NO3/c1-9-4-6-2-5(8)3-7/h4-5,7-8H,2-3H2,1H3	InChI=1S/C5H11NO3/c1-9-4-6-2-5(8)3-7/h4-5,7-8H,2-3H2,1H3/t5-/m1/s1
