19
gdb 73990	2.91759	1.6737	1.24829	1.8342	83.27	-0.2019	-0.0241	0.1779	1039.5963	0.158244	-385.792471	-385.784529	-385.783584	-385.824261	32.188	
C	-0.1862852536	 1.2842013337	-0.2540414922	-0.470969
C	-0.0457112216	-0.0823475137	 0.3357742824	 0.257764
C	-1.0660962414	-0.9642048217	 0.4807044927	-0.042411
C	-1.7815931635	-1.3672664312	-0.8271126476	-0.271736
C	-0.7107484704	-2.5081658434	-0.7933683035	-0.123774
C	-0.5541867371	-2.3956678434	 0.7030395858	-0.145354
C	 0.6995381147	-2.2511198826	-0.059106773	 0.399873
O	 1.5672991726	-3.3366454776	-0.1164838669	-0.474916
C	 1.2663690111	-0.8510868047	 0.2501940266	-0.377357
H	 0.3231857753	 1.3637632129	-1.2245479152	 0.119573
H	-1.237688711	 1.555145109	-0.3849797641	 0.126263
H	 0.2709356739	 2.0425844548	 0.3952868762	 0.129446
H	-2.7840443164	-1.8010818799	-0.7284458917	 0.103337
H	-1.7740301409	-0.6362874385	-1.6417183208	 0.095978
H	-0.7809410249	-3.4401341263	-1.3504305084	 0.086128
H	-0.798729043	-3.0913566744	 1.4951016206	 0.092361
H	 2.0702374896	-3.277486532	-0.9359725014	 0.285135
H	 1.8836665861	-0.4166322622	-0.5478598803	 0.096902
H	 1.8996948706	-0.9069560088	 1.1467760509	 0.113756
145.6348	182.4682	239.1825	273.9356	320.1989	347.3428	397.1809	451.529	494.0928	537.3141	591.5674	621.7714	757.8438	785.1045	851.7617	867.2696	882.2508	926.0714	932.527	981.324	989.2232	1031.4599	1045.3134	1058.909	1075.3713	1106.0413	1145.9306	1166.0906	1185.6424	1212.3843	1218.7477	1263.3717	1274.6014	1304.7078	1403.7466	1418.7661	1464.5338	1479.0012	1485.7792	1505.3505	1614.3371	2999.1297	3006.3027	3021.3131	3036.026	3050.1086	3080.0114	3106.8286	3130.8276	3195.6938	3799.0173
CC1=C2CC3C2C3(O)C1	C[C]1[C]2C[C@@H]3[C@H]2[C@]3(O)C1	
InChI=1S/C8H10O/c1-4-3-8(9)6-2-5(4)7(6)8/h6-7,9H,2-3H2,1H3	InChI=1S/C8H10O/c1-4-3-8(9)6-2-5(4)7(6)8/h6-7,9H,2-3H2,1H3/t6-,7+,8+/m1/s1
