15
gdb 7217	3.63563	1.18245	0.94597	4.4916	66.24	-0.2469	0.0135	0.2603	1208.0584	0.116764	-399.806338	-399.797113	-399.796168	-399.841327	31.867	
C	 0.1210880771	 1.4756557207	 0.0396393028	-0.499316
C	 0.0691530161	 0.0209713771	 0.0205613993	 0.034022
C	 0.0005974528	-1.1817074721	 0.0114862196	 0.08628
C	-0.0610024688	-2.6449754652	 0.0110139639	-0.118029
O	-1.3774547218	-3.1280497507	 0.0428694946	-0.41949
C	 0.6556950054	-3.2543554687	-1.2260699123	 0.392311
N	 1.8775361999	-2.7528616578	-1.5135953784	-0.515768
O	 0.1240516516	-4.1710441116	-1.8263279439	-0.373734
H	 0.8552838368	 1.8395278345	 0.7665708657	 0.150771
H	 0.389690075	 1.8818327196	-0.9415792487	 0.149633
H	-0.8531226559	 1.8933655761	 0.3156907648	 0.160832
H	 0.4994276497	-3.0136078575	 0.8895723098	 0.117824
H	-1.3971816003	-3.8046861688	-0.6575314257	 0.296196
H	 2.154249283	-1.8680059855	-1.1204244338	 0.269372
H	 2.3429706794	-3.0800233601	-2.3450223979	 0.269096
48.0806	52.3375	90.602	148.5243	262.2678	326.0674	333.77	382.347	425.2265	449.9646	467.3104	521.869	567.4739	628.3805	692.2492	841.7477	874.703	1050.2649	1055.7613	1102.6198	1112.0643	1176.0386	1244.3383	1335.7116	1367.9167	1414.0827	1453.2454	1476.4735	1478.3192	1616.1912	1799.8928	2365.4633	2935.5577	3029.9595	3091.2092	3094.3909	3589.2494	3632.7698	3718.8918
CC#CC(O)C(N)=O	CC#C[C@@H](O)C(=O)N	
InChI=1S/C5H7NO2/c1-2-3-4(7)5(6)8/h4,7H,1H3,(H2,6,8)	InChI=1S/C5H7NO2/c1-2-3-4(7)5(6)8/h4,7H,1H3,(H2,6,8)/t4-/m1/s1
