21
gdb 102134	2.42338	0.83254	0.64282	0.8619	94.61	-0.2452	0.0445	0.2897	1777.577	0.178728	-349.908429	-349.897007	-349.896063	-349.947144	39.668	
C	 0.7922244306	-0.2503240583	 1.3597535043	-0.3867
C	 0.1004527493	-0.0952862944	 0.0047873801	-0.167137
C	-1.3405474541	-0.6520695393	-0.0171511777	-0.164261
C	-2.0611023725	-0.3300112463	-1.3611317123	-0.361625
C	-2.2348605067	 1.0978868728	-1.59576532	 0.306024
C	-2.3805310814	 2.2791067197	-1.7670079098	-0.451025
C	-1.3738755949	-2.094248725	 0.223971008	 0.067868
C	-1.3980579324	-3.2872917879	 0.3905944396	 0.074494
C	-1.4322290053	-4.7273749248	 0.606140855	-0.498954
H	 1.8100455323	 0.1500931929	 1.3266253498	 0.111428
H	 0.2487150278	 0.287702552	 2.1446244002	 0.113182
H	 0.8502986036	-1.3023323168	 1.6545702017	 0.126891
H	 0.054756916	 0.9629220483	-0.2738485567	 0.112175
H	 0.6823405663	-0.605466282	-0.7727805533	 0.098536
H	-1.9070444249	-0.1502978063	 0.779703817	 0.108379
H	-1.4898495592	-0.7789258599	-2.1830607091	 0.135511
H	-3.0393203245	-0.8234630555	-1.3620712606	 0.137576
H	-2.513050011	 3.3196686355	-1.9311897389	 0.19454
H	-2.3388581932	-5.172122739	 0.1810588911	 0.147515
H	-0.5722873018	-5.2214798365	 0.140529337	 0.147282
H	-1.4149386839	-4.970524799	 1.6743529547	 0.148301
13.5448	64.4482	78.0914	92.3339	137.5429	177.816	229.5086	246.2169	287.872	329.7899	350.1823	383.1559	472.4169	518.2849	553.8605	615.2908	644.6601	723.2041	819.5218	839.6571	942.1732	971.4572	1011.1924	1047.9143	1053.7479	1055.1742	1099.3933	1114.3562	1176.1456	1227.3201	1274.8626	1302.3203	1329.5978	1369.4967	1375.261	1411.4071	1415.3413	1470.5299	1478.6749	1479.3286	1487.2397	1498.252	1507.6801	2235.377	2366.4994	3007.0912	3026.4984	3030.1233	3034.0792	3035.4947	3069.9701	3076.0554	3086.8725	3087.0065	3101.1483	3113.8236	3506.3392
CCC(CC#C)C#CC	CC[C@@H](CC#C)C#CC	
InChI=1S/C9H12/c1-4-7-9(6-3)8-5-2/h1,9H,6-7H2,2-3H3	InChI=1S/C9H12/c1-4-7-9(6-3)8-5-2/h1,9H,6-7H2,2-3H3/t9-/m0/s1
