20
gdb 120359	3.30936	1.02605	0.8393	1.1689	82.52	-0.2194	-0.0029	0.2165	1421.9846	0.172296	-399.362253	-399.353111	-399.352167	-399.397165	33.154	
C	 0.0118585405	 1.5515530373	 0.053075286	-0.380289
C	 0.0248776619	 0.021503917	 0.0410105462	-0.174606
C	-1.3909040514	-0.5641248731	-0.0305989596	-0.157397
N	-1.4157574167	-2.0157320544	-0.0211195888	-0.058992
C	-1.5274186284	-2.86403648	-1.1115590954	 0.064504
N	-1.5264378983	-4.1196557187	-0.872784731	-0.268048
C	-1.3936411586	-4.2295996346	 0.5866892292	-0.269187
C	-1.3219318005	-2.7987542074	 1.1261542645	 0.337928
N	-1.2085766208	-2.2993566732	 2.2916853132	-0.555559
H	 1.0275903619	 1.9530347806	 0.110697474	 0.119277
H	-0.4542721673	 1.9565207233	-0.8525127705	 0.113013
H	-0.546393099	 1.9353377373	 0.9138628551	 0.124082
H	 0.6090692117	-0.34494923	-0.8122386434	 0.096643
H	 0.5074855271	-0.3593059739	 0.9466896173	 0.131787
H	-1.9746481629	-0.223038525	 0.8307165744	 0.138039
H	-1.9025239872	-0.2235264381	-0.9381129396	 0.107884
H	-1.615869088	-2.4325366872	-2.1041290776	 0.131691
H	-2.247274092	-4.7719594292	 1.0095997002	 0.139627
H	-0.4924816459	-4.7967851733	 0.8476723775	 0.139719
H	-1.1685816662	-3.0343120873	 2.9958958083	 0.219885
47.6608	84.3557	88.1535	164.9594	241.6238	282.8242	284.3747	361.2188	456.1798	472.7461	595.5583	684.98	738.3054	749.3725	828.1929	868.6893	898.5535	908.6767	934.726	973.9302	1006.2709	1012.9375	1044.3739	1108.9835	1125.6275	1191.7691	1217.6484	1252.1107	1284.5578	1310.0353	1324.3589	1332.7851	1387.1863	1406.0353	1417.0406	1422.7858	1453.7551	1475.9464	1492.2412	1502.3078	1508.6375	1677.1159	1732.7519	3030.4285	3031.3113	3039.432	3039.9635	3071.2055	3074.847	3089.6231	3106.3271	3109.8269	3187.76	3496.2156
CCCN1C=NCC1=N	CCCN1C=NC[C]1[NH]	
InChI=1S/C6H11N3/c1-2-3-9-5-8-4-6(9)7/h5,7H,2-4H2,1H3	InChI=1S/C6H11N3/c1-2-3-9-5-8-4-6(9)7/h5,7H,2-4H2,1H3
