17
gdb 105159	2.56761	1.16513	0.97294	2.1004	77.09	-0.259	-0.0468	0.2122	1258.7756	0.131676	-421.782802	-421.773173	-421.772229	-421.817614	34.449	
C	 0.3040753824	 0.4374026235	 1.2205624717	-0.38912
C	-0.2267950211	-0.4690892652	 0.1019521025	-0.271997
C	 0.7521420373	-0.5977443727	-1.039746172	 0.284229
O	 1.9975990472	-1.2671659076	-0.7860610556	-0.269345
C	 1.0891951913	-1.9108739479	-1.6783680822	-0.229281
C	 0.4644544338	-3.1341857918	-1.2585861821	 0.323348
C	-0.0577384732	-4.1712487293	-0.948048521	-0.384719
C	 0.9207887471	 0.5851065795	-1.9536164431	 0.131309
O	 0.1669615246	 1.5222224434	-1.9946828823	-0.251045
H	 1.2471848993	 0.0501234853	 1.6170875432	 0.132056
H	 0.473270026	 1.4550913705	 0.8578316664	 0.135122
H	-0.4152498149	 0.4892116969	 2.0424005025	 0.118725
H	-0.4493062224	-1.465623908	 0.491619833	 0.12036
H	-1.1558316626	-0.0567964167	-0.305670674	 0.125329
H	 1.4142199065	-1.8998913517	-2.7196162597	 0.123615
H	-0.5164546612	-5.0873952591	-0.66671697	 0.209682
H	 1.82408319	 0.515222281	-2.6001885773	 0.091732
66.924	85.9624	124.4421	177.4137	202.6658	219.406	277.302	313.9953	364.8611	415.5417	541.2882	563.0961	605.5124	638.4748	678.0901	732.4055	789.2477	822.0008	894.525	985.9265	998.864	1041.271	1074.4971	1100.758	1117.6337	1242.6467	1306.1233	1319.205	1369.2737	1396.8242	1406.8652	1438.2156	1470.3089	1499.5886	1509.399	1827.2064	2240.6898	2889.4096	3045.8311	3057.8017	3100.7314	3101.9294	3118.6371	3126.6379	3499.8496
CCC1(OC1C#C)C=O	CC[C@]1(O[C@H]1C#C)C=O	
InChI=1S/C7H8O2/c1-3-6-7(4-2,5-8)9-6/h1,5-6H,4H2,2H3	InChI=1S/C7H8O2/c1-3-6-7(4-2,5-8)9-6/h1,5-6H,4H2,2H3/t6-,7-/m0/s1
