14
gdb 16866	4.35349	1.87335	1.42505	2.9421	56.54	-0.2652	0.0066	0.2717	823.5368	0.108239	-419.691096	-419.684689	-419.683745	-419.72196	24.077	
O	-0.143288979	-0.0934968676	 0.2510927289	-0.319228
C	-0.0368334476	 1.0539980245	-0.0816198508	 0.413382
C	-1.1380875634	 2.0923134429	 0.1102467891	-0.381117
C	-1.2088718059	 3.0953352607	-1.0288899787	 0.03911
O	-0.6743156032	 4.3934078654	-0.7683835032	-0.24184
C	 0.0764094689	 3.5076303396	-1.6050354398	 0.017563
C	 1.2980326837	 2.8736582055	-0.9685282963	-0.105315
O	 1.1085643468	 1.4764934529	-0.6722704188	-0.222927
H	-2.0717683937	 1.5459117541	 0.245467223	 0.145182
H	-0.9360128364	 2.6375265878	 1.0401058308	 0.155126
H	-2.1028484666	 3.087902598	-1.6482333325	 0.116501
H	 0.1459495285	 3.8107504444	-2.6468676762	 0.113309
H	 2.1627647942	 2.8975317039	-1.6334777863	 0.134726
H	 1.5478795037	 3.415560108	-0.0495422691	 0.135527
87.4291	168.8034	315.3919	428.2778	436.7935	467.6398	537.8354	603.5741	756.4863	785.1921	838.3571	845.7958	916.1376	979.1791	1020.9086	1047.5104	1067.2872	1098.7678	1147.8481	1169.1496	1238.7858	1276.0752	1282.8822	1313.0062	1364.4935	1410.9474	1449.1023	1459.3958	1500.2163	1853.1188	3049.5842	3051.3478	3121.178	3130.7948	3141.3638	3150.8387
O=C1CC2OC2CO1	O=C1C[C@H]2O[C@H]2CO1	
InChI=1S/C5H6O3/c6-5-1-3-4(8-3)2-7-5/h3-4H,1-2H2	InChI=1S/C5H6O3/c6-5-1-3-4(8-3)2-7-5/h3-4H,1-2H2/t3-,4+/m1/s1
