18
gdb 18167	3.57028	1.74267	1.48764	2.5443	67.52	-0.2382	0.072	0.3102	915.5523	0.153842	-384.894663	-384.88693	-384.885985	-384.926528	29.478	
C	 0.0871331592	 1.2200539576	-0.2403576787	-0.242177
O	-0.0096259076	-0.0694570456	 0.3308980393	-0.254278
C	-1.2737030203	-0.6826699605	 0.1319890137	 0.118145
C	-1.6074956827	-1.2726206552	-1.2825694619	-0.272336
C	-1.7488646266	-2.6523392261	-0.6341061454	-0.101139
C	-0.4571496609	-3.0174054135	 0.0364078442	 0.139631
O	 0.7957055816	-2.6642982616	-0.4679294651	-0.442806
C	-1.3648897284	-2.0665096788	 0.7553971706	-0.160811
H	 1.0815506025	 1.6067138854	-0.0068212093	 0.132564
H	-0.0394482572	 1.1964799269	-1.3320572104	 0.116783
H	-0.668351593	 1.8985682183	 0.1832761688	 0.1113
H	-2.0667605616	-0.0071027673	 0.4796235391	 0.078122
H	-2.533892747	-0.8724499309	-1.6978966956	 0.1021
H	-0.8086229091	-1.1975621727	-2.0257372217	 0.109847
H	-2.5145065059	-3.3816343224	-0.8682699046	 0.088435
H	-0.4505420505	-4.0186117845	 0.462234311	 0.097
H	 0.9635646925	-1.7520358585	-0.1950345489	 0.294081
H	-1.7644425051	-2.2704382207	 1.7417807551	 0.08554
111.5775	157.3144	174.3094	217.5999	294.6876	399.762	438.7511	465.3118	497.3115	635.3843	735.4813	753.744	817.3465	841.3943	937.0098	965.4172	989.2751	1011.752	1028.0143	1040.9326	1073.404	1108.0488	1123.6478	1167.4652	1186.2637	1197.4784	1220.8304	1245.7967	1266.5156	1311.2235	1339.9787	1379.4151	1401.2099	1454.8981	1479.1893	1483.7772	1488.3566	1508.7685	2986.1613	3011.5504	3039.1284	3060.8201	3121.3406	3121.6709	3134.1033	3176.0991	3191.463	3737.9887
COC1CC2C(O)C12	CO[C@H]1C[C@H]2[C@@H](O)[C@@H]12	
InChI=1S/C6H10O2/c1-8-4-2-3-5(4)6(3)7/h3-7H,2H2,1H3	InChI=1S/C6H10O2/c1-8-4-2-3-5(4)6(3)7/h3-7H,2H2,1H3/t3-,4+,5-,6-/m1/s1
