19
gdb 36955	5.37408	0.75912	0.75724	1.0593	71.88	-0.2521	0.0564	0.3085	1530.7498	0.158606	-460.095942	-460.087197	-460.086253	-460.131337	30.503	
C	 0.0339411924	 1.1291190249	-0.5760185473	-0.092719
O	 1.2943998639	 1.5611705827	-0.024670024	-0.271371
C	 1.3758314086	 0.4009250498	 0.8296124767	-0.098576
C	 0.1392449571	-0.2253463195	 0.1696956824	 0.077762
O	-0.8721540603	-0.5487275686	 1.0889686875	-0.257368
C	-2.0331471044	-1.0718795683	 0.4965385102	 0.077762
C	-2.0390394288	-2.5748370684	 0.1185980052	-0.092719
O	-3.1582449047	-2.8182476752	 0.9946917101	-0.271371
C	-3.1030728715	-1.4755812959	 1.5208118136	-0.098577
H	-0.8057167487	 1.7477767335	-0.2318540816	 0.104061
H	 0.0520707713	 1.1066256433	-1.6714982005	 0.104506
H	 2.3272265915	-0.1297910172	 0.7175766272	 0.107578
H	 1.208058569	 0.6442083716	 1.8861526235	 0.113978
H	 0.3591369891	-1.0760894246	-0.4883468138	 0.083465
H	-2.3972853739	-0.4137706631	-0.3031065154	 0.083465
H	-2.268452372	-2.834502066	-0.9210433016	 0.104506
H	-1.1333325247	-3.1052896723	 0.4419044641	 0.104061
H	-2.7287490526	-1.4430297439	 2.5515560702	 0.113978
H	-4.0714255111	-0.9675101129	 1.4614721735	 0.107578
52.8544	55.8138	77.4677	109.2977	153.5405	314.2913	374.4477	433.3433	499.3095	724.3292	756.05	870.1956	874.8383	883.0081	899.887	977.3143	1007.2006	1017.8875	1031.0784	1039.9714	1057.4981	1104.8914	1122.6291	1150.7356	1156.7716	1160.0981	1166.03	1203.9395	1204.2916	1273.7391	1282.2317	1303.8608	1304.4202	1341.5619	1359.2465	1398.81	1435.4112	1498.6741	1498.7589	1525.7886	1526.5451	3007.1872	3007.4019	3013.7395	3020.2794	3026.0414	3027.1321	3066.0112	3066.9515	3078.446	3078.9529
C1OCC1OC1COC1	C1OCC1OC1COC1	
InChI=1S/C6H10O3/c1-5(2-7-1)9-6-3-8-4-6/h5-6H,1-4H2	InChI=1S/C6H10O3/c1-5(2-7-1)9-6-3-8-4-6/h5-6H,1-4H2
