18
gdb 12575	2.93124	2.00377	1.22594	3.6953	76.89	-0.2302	-0.0314	0.1988	995.1041	0.152788	-347.866292	-347.857598	-347.856654	-347.900628	30.716	
C	-0.0922020654	 1.5047015671	 0.1300484892	-0.491406
C	-0.0095887177	 0.0193004184	-0.0081693732	 0.218255
C	 0.0100443187	-0.7101542608	-1.1407931194	 0.115447
C	-0.0429047685	-0.2779571118	-2.5709867716	-0.499097
C	 0.0994065217	-2.1526086053	-0.8103493635	 0.340898
O	 0.1359874931	-3.0639850137	-1.6078168918	-0.335458
C	 0.1372173654	-2.2866772497	 0.7166086359	-0.337502
C	 0.064433513	-0.8424156569	 1.2374539529	-0.304033
H	 0.7762120299	 1.8897346077	 0.6797815332	 0.135554
H	-0.1407761448	 2.0166807801	-0.8329300984	 0.132354
H	-0.9764721679	 1.7890394857	 0.7146954397	 0.135544
H	 0.8444581916	-0.6297633851	-3.1085737368	 0.141915
H	-0.9027302031	-0.7328332212	-3.0749188019	 0.141959
H	-0.1090031803	 0.8064600871	-2.6832913308	 0.116766
H	-0.6997498807	-2.9079189839	 1.04853402	 0.130623
H	 1.0522482509	-2.8071662242	 1.0139977081	 0.130623
H	 0.9372493457	-0.5673136974	 1.843362371	 0.113777
H	-0.8097546817	-0.6677485262	 1.8776895573	 0.11378
25.4947	90.99	133.7159	140.6515	269.9659	273.2598	303.5909	468.3441	511.2847	548.6152	603.5158	650.9596	687.8861	830.7818	865.7983	955.3779	958.9585	1015.1265	1061.1854	1066.475	1067.998	1119.5279	1159.4353	1190.6658	1233.9819	1266.9965	1317.1951	1345.8295	1411.2049	1416.4904	1453.7812	1472.6258	1478.4196	1478.8649	1484.5543	1487.4938	1711.4227	1802.7081	3019.144	3024.4543	3038.3637	3045.9138	3065.3174	3066.326	3089.0702	3104.6681	3122.8893	3128.7221
CC1=C(C)C(=O)CC1	CC1=C(C)C(=O)CC1	
InChI=1S/C7H10O/c1-5-3-4-7(8)6(5)2/h3-4H2,1-2H3	InChI=1S/C7H10O/c1-5-3-4-7(8)6(5)2/h3-4H2,1-2H3
