18
gdb 107954	2.95834	1.5555	1.32877	2.946	75.48	-0.212	-0.0061	0.2059	1010.8965	0.148659	-401.855582	-401.848108	-401.847164	-401.88758	29.608	
O	-0.062316185	 1.4497650829	 0.1117050384	-0.421346
C	 0.0138811787	 0.0364970506	-0.0214001447	-0.233118
C	-1.3920362619	-0.497895821	-0.0034241912	 0.338152
C	-2.5638633257	-0.2298500989	-0.954519305	-0.221228
N	-3.2123546376	-1.1934499683	 0.0432741299	-0.154742
C	-1.8684099643	-1.9878151865	 0.0284301218	-0.091886
C	-1.7091217753	-2.5189073032	 1.4373534579	-0.096051
C	-2.0885712404	-1.482767129	 2.1890902563	-0.091917
C	-2.4375949934	-0.4283234878	 1.1619713034	-0.063855
H	 0.8333362585	 1.7995416578	 0.1213696403	 0.290452
H	 0.5076106317	-0.2553632803	-0.9630125584	 0.087445
H	 0.5809541011	-0.4202274522	 0.8060193964	 0.091951
H	-3.0073611515	 0.7688581738	-0.9522899569	 0.106107
H	-2.5042967713	-0.6307561972	-1.9711106759	 0.092403
H	-1.7222104093	-2.641571531	-0.833070355	 0.069223
H	-1.393975602	-3.5123318272	 1.7221815184	 0.110124
H	-2.1664030235	-1.3902338078	 3.2627245292	 0.110694
H	-2.8704460988	 0.5250856853	 1.4639715451	 0.077593
80.12	161.1228	215.7274	266.4495	346.8131	454.0525	478.0759	532.7116	633.335	712.6008	733.2628	758.8541	790.2894	833.2974	904.8464	916.4918	919.3128	932.6498	953.4292	979.7886	1007.1048	1065.8118	1088.8725	1114.5397	1128.735	1130.0883	1144.6352	1185.4142	1229.0377	1248.8331	1264.2531	1269.5277	1306.9131	1334.6783	1339.8257	1462.7389	1510.3901	1529.8018	1630.6522	2960.9918	2991.8904	3048.459	3106.9907	3112.8384	3127.7546	3226.7084	3253.281	3829.5611
OCC12CN3C1C=CC23	OC[C@@]12CN3[C@@H]1C=C[C@@H]23	
InChI=1S/C7H9NO/c9-4-7-3-8-5(7)1-2-6(7)8/h1-2,5-6,9H,3-4H2	InChI=1S/C7H9NO/c9-4-7-3-8-5(7)1-2-6(7)8/h1-2,5-6,9H,3-4H2/t5-,6+,7+
