18
gdb 37425	2.87186	2.17794	1.76217	0.2872	72.47	-0.2137	0.0707	0.2844	840.1063	0.151239	-401.89301	-401.887003	-401.886059	-401.923036	25.897	
C	-0.0645479728	 1.5535636851	 0.0097631574	-0.262298
C	 1.4822756993	 1.5404958797	 0.0287557772	 0.033253
C	 2.2010444324	 1.43562934	 1.394614062	-0.262298
C	 2.0480552795	-0.1123451673	 1.2735479603	-0.026687
C	 0.9559379014	-0.7575468404	 2.1088168033	 0.028816
O	-0.0960973958	 0.1381405012	 2.4915458372	-0.242375
C	-0.3006216942	-0.6921329752	 1.3407486808	 0.028815
C	-0.0047824563	-0.0054854494	 0.0187517081	-0.026687
N	 1.5009245153	 0.0323709384	-0.1301879444	-0.13967
H	-0.559308135	 2.0108294081	 0.8678743474	 0.120547
H	-0.4800410483	 1.9646293497	-0.9124568308	 0.103944
H	 1.9831790412	 2.134418044	-0.7401353404	 0.071202
H	 3.2395527004	 1.7710102408	 1.3611586544	 0.103944
H	 1.6976217162	 1.8933431142	 2.247432058	 0.120547
H	 2.97471251	-0.691131345	 1.3144280448	 0.075497
H	 1.1821131812	-1.5423752373	 2.826006222	 0.098976
H	-1.0995046631	-1.4236004927	 1.431374143	 0.098976
H	-0.5047737615	-0.5100111438	-0.8124046903	 0.075498
216.6764	243.4358	366.7086	472.0834	514.7545	658.9849	676.9154	697.7253	714.0555	810.4743	818.8073	830.1283	865.5347	884.7355	919.1283	940.5862	978.2232	991.6226	1009.428	1025.4578	1064.2717	1079.4747	1086.7217	1101.0487	1121.4099	1170.1441	1220.3024	1231.3333	1255.2298	1256.6037	1267.2068	1275.8564	1314.8466	1331.8944	1347.2219	1355.8439	1417.3385	1462.3041	1477.975	3062.8348	3064.026	3066.0312	3075.4753	3080.9002	3133.0867	3135.4747	3141.8191	3154.0741
C1C2CC3C4OC4C1N23	C1[C@H]2C[C@H]3[C@H]4O[C@H]4[C@@H]1N23	
InChI=1S/C7H9NO/c1-3-2-5-7-6(9-7)4(1)8(3)5/h3-7H,1-2H2	InChI=1S/C7H9NO/c1-3-2-5-7-6(9-7)4(1)8(3)5/h3-7H,1-2H2/t3-,4+,5-,6-,7+
