17
gdb 14326	4.32022	1.76148	1.49823	3.7997	67.95	-0.2383	0.0383	0.2766	869.253	0.145161	-363.904727	-363.898058	-363.897114	-363.935736	26.143	
O	-0.2713069225	-0.012285901	 0.2715073151	-0.37523
C	-0.2068116867	 1.1792009902	 0.0668464517	 0.394657
C	-1.3074542248	 2.0861790762	-0.5055254875	-0.351587
C	-0.778680711	 3.504441012	-0.309663714	-0.000956
C	-0.9639653276	 4.157670151	 1.0945463253	-0.229921
C	 0.5774425141	 4.3138023361	 1.2206297856	-0.223801
C	 0.7539830276	 3.3775223011	-0.0067873064	 0.001127
N	 0.8900506886	 1.9723400766	 0.2969345921	-0.295893
H	-1.4521659098	 1.8254867386	-1.5596486517	 0.127101
H	-2.2518424964	 1.8910010258	 0.0092616602	 0.129443
H	-1.0146890442	 4.1826222872	-1.1300507375	 0.077824
H	-1.5494515841	 5.0787211093	 1.1246724888	 0.105162
H	-1.3859023745	 3.4602842234	 1.8232399542	 0.111124
H	 0.9154877808	 5.3300544478	 1.0001988021	 0.104397
H	 1.0415210117	 3.983448186	 2.1528860696	 0.102185
H	 1.4712762876	 3.7008064273	-0.768520444	 0.076782
H	 1.7358768511	 1.5601251725	 0.6589811765	 0.247587
96.805	120.8111	337.1493	373.8372	474.3542	487.2637	597.0965	633.0305	645.5847	731.072	763.8985	849.1297	863.9505	877.3676	938.1139	956.8724	964.8564	1036.2946	1069.8988	1086.8233	1131.9611	1177.3092	1201.7062	1223.8743	1253.449	1264.9037	1271.4557	1292.1899	1295.8016	1336.867	1378.0276	1428.223	1466.4187	1475.1464	1496.3499	1828.4362	3039.2822	3053.6672	3060.3661	3065.9625	3099.1137	3103.4547	3110.3111	3125.5474	3634.1965
O=C1CC2CCC2N1	O=C1C[C@H]2CC[C@H]2N1	
InChI=1S/C6H9NO/c8-6-3-4-1-2-5(4)7-6/h4-5H,1-3H2,(H,7,8)	InChI=1S/C6H9NO/c8-6-3-4-1-2-5(4)7-6/h4-5H,1-3H2,(H,7,8)/t4-,5-/m1/s1
