19
gdb 13813	3.83352	1.14487	1.00035	3.2717	67.99	-0.2482	0.0675	0.3157	1211.3104	0.164468	-402.162946	-402.153635	-402.152691	-402.197499	33.587	
C	-0.1084509265	 1.4635133314	-0.3107309644	-0.410802
C	 0.0438452525	 0.0277963534	 0.1910871978	 0.141579
O	 0.7349257759	-0.030143606	 1.4364751448	-0.431819
C	-1.3010400154	-0.6700035582	 0.2810926712	-0.044169
N	-1.7910925805	-1.3461399883	-0.9332947719	-0.352913
C	-1.4854753386	-2.1435605999	 0.2756652366	-0.036661
C	-0.3760829793	-3.1558919393	 0.1134505255	-0.064903
O	-0.7934096815	-4.2301172636	-0.7144724318	-0.424003
H	 0.8677231265	 1.9516513521	-0.3714060302	 0.125248
H	-0.5736692946	 1.4784776718	-1.3011492138	 0.13008
H	-0.7425819676	 2.0486063998	 0.3683194166	 0.10176
H	 0.67579144	-0.5248568155	-0.5092686747	 0.098527
H	 0.2438215504	 0.5024737424	 2.0718216893	 0.276241
H	-2.0381880866	-0.1106801594	 0.8617373149	 0.073245
H	-2.7938063151	-1.2184324205	-1.0351335027	 0.234352
H	-2.3408055246	-2.5207828576	 0.8344947238	 0.088433
H	 0.5290036403	-2.6772858005	-0.2824030447	 0.095051
H	-0.1209033116	-3.5924423641	 1.084269985	 0.113289
H	-1.0683730139	-3.8294986478	-1.5475473014	 0.287463
46.8244	69.5825	142.7776	185.0285	251.1506	268.6948	285.8004	355.7418	376.3734	429.6758	469.6541	522.0732	604.518	808.057	816.9376	897.1598	936.7867	955.759	984.7527	1003.8825	1044.0232	1068.2807	1092.0461	1111.559	1157.2568	1181.2227	1227.941	1269.9731	1273.5517	1293.5356	1336.5165	1368.425	1399.4375	1403.9001	1413.1487	1441.4101	1482.8463	1493.3257	1496.6949	1497.9309	3021.7842	3022.3781	3071.4006	3081.3623	3083.5335	3100.7108	3120.6277	3123.4396	3509.4503	3793.3908	3800.8381
CC(O)C1NC1CO	C[C@@H](O)[C@H]1N[C@H]1CO	
InChI=1S/C5H11NO2/c1-3(8)5-4(2-7)6-5/h3-8H,2H2,1H3	InChI=1S/C5H11NO2/c1-3(8)5-4(2-7)6-5/h3-8H,2H2,1H3/t3-,4+,5-/m1/s1
