18
gdb 124595	3.96329	1.06869	0.9074	3.2153	73.88	-0.2295	0.0149	0.2444	1298.1136	0.148752	-435.305348	-435.296688	-435.295744	-435.339057	32.195	
C	 0.0924518477	 1.4955404126	 0.043858418	-0.38273
C	-0.035362041	-0.028778574	-0.0511687992	 0.070554
C	-1.4887823794	-0.4978024818	-0.0131774131	-0.414149
N	 0.6434965938	-0.5177404494	-1.2534285243	 0.039902
C	 0.1635151948	-1.0454485229	-2.3914337085	 0.013449
N	 1.1482916611	-1.3134628311	-3.238194366	-0.376621
C	 2.238005366	-0.9101852981	-2.5368519831	 0.431638
O	 3.4835103833	-1.0028438789	-3.0223850337	-0.408411
N	 2.00521849	-0.4196773075	-1.3325646012	-0.327186
H	 1.1417558019	 1.7899332478	-0.0182374436	 0.153353
H	-0.4555116562	 1.9810480837	-0.7704919188	 0.120845
H	-0.3174954045	 1.8480414464	 0.9949808419	 0.119083
H	 0.5057706216	-0.4772516627	 0.7890586238	 0.114327
H	-2.0779670092	-0.0493341381	-0.8198554619	 0.128644
H	-1.5649368093	-1.5863406701	-0.085976007	 0.132071
H	-1.9391050487	-0.1884839246	 0.9332566594	 0.131401
H	-0.884351118	-1.2244667374	-2.5703373623	 0.143708
H	 3.4041355761	-1.390070134	-3.9023772705	 0.310122
45.5371	115.5993	198.0893	241.314	278.29	309.5772	334.1045	403.6741	411.4511	450.7549	522.746	627.1284	656.2768	766.3178	770.7374	850.4132	889.6264	936.8083	958.3614	1024.1779	1052.7527	1119.6386	1140.2723	1175.894	1210.538	1240.3692	1275.789	1357.3062	1375.2645	1388.8627	1398.8515	1420.317	1481.7737	1486.1967	1491.6304	1500.3052	1514.4576	1523.1119	1637.0373	3039.8923	3042.3546	3052.1429	3109.6639	3115.9083	3125.3948	3140.3312	3273.8055	3813.8468
CC(C)N1C=NC(O)=N1	CC(C)n1cnc(O)n1	
InChI=1S/C5H9N3O/c1-4(2)8-3-6-5(9)7-8/h3-4H,1-2H3,(H,7,9)	InChI=1S/C5H9N3O/c1-4(2)8-3-6-5(9)7-8/h3-4H,1-2H3,(H,7,9)
