16
gdb 124765	4.34194	0.93806	0.91352	1.2882	67.66	-0.2546	-0.009	0.2456	1304.6793	0.123514	-475.019806	-475.011201	-475.010257	-475.05358	31.681	
C	-0.0106598177	 1.5915540299	 0.1618251517	-0.403785
C	 0.0227927389	 0.0751867776	-0.062154007	 0.01586
O	 0.7802119959	-0.5907172452	 0.94125222	-0.423037
C	-1.3586663148	-0.5064298948	-0.1578891546	 0.485223
C	-2.0510812504	-1.144635821	-1.1353583894	-0.468998
C	-3.2985881926	-1.4288255789	-0.5120949129	 0.481546
O	-4.3262263918	-2.0612016658	-1.0958899509	-0.416368
N	-3.3578743902	-1.0065893068	 0.7279609052	-0.25921
O	-2.1116192069	-0.4070920265	 0.9557818222	-0.242462
H	 1.0116092746	 1.9678651716	 0.2482305459	 0.129611
H	-0.5083136012	 2.1010815431	-0.6691102683	 0.125107
H	-0.5545475545	 1.8318297997	 1.0806991327	 0.131469
H	 0.53654159	-0.1445782726	-1.0031489805	 0.108694
H	 0.2974250177	-0.5087482915	 1.7719000013	 0.292376
H	-1.7375511788	-1.3889718594	-2.1355487386	 0.13076
H	-5.0400176181	-2.1244080096	-0.4469198469	 0.313212
44.0031	117.5152	176.154	249.1349	287.9241	296.7713	336.9607	419.2391	438.8148	460.188	513.9906	650.1183	697.9324	740.9323	750.8983	812.5913	896.5824	959.153	992.6497	1021.1673	1048.4376	1082.0617	1104.3321	1159.5441	1229.0316	1269.3465	1320.4394	1354.3345	1402.147	1422.1114	1489.3236	1492.1189	1536.4624	1555.5911	1662.231	3041.5819	3070.7267	3116.1662	3129.357	3287.2102	3779.7377	3801.5374
CC(O)C1=CC(O)=NO1	C[C@@H](O)c1cc(O)no1	
InChI=1S/C5H7NO3/c1-3(7)4-2-5(8)6-9-4/h2-3,7H,1H3,(H,6,8)	InChI=1S/C5H7NO3/c1-3(7)4-2-5(8)6-9-4/h2-3,7H,1H3,(H,6,8)/t3-/m1/s1
