21
gdb 40297	2.87858	1.3937	1.09904	0.9277	78.15	-0.2473	0.0805	0.3278	1160.1408	0.184246	-424.212077	-424.203885	-424.202941	-424.24472	32.237	
C	-0.3853868478	 1.5397274741	 0.0577712102	-0.240372
O	 0.96503507	 1.0690352745	 0.0690295172	-0.280902
C	-0.1006431208	 0.0985279859	 0.0056169777	 0.422898
C	-0.2286205229	-0.7335745944	 1.2732005534	-0.261485
C	 0.9807741703	-1.6662141015	 1.4695049207	-0.230867
C	 0.9097843647	-2.977804764	 0.6669645367	-0.066228
O	 0.2517979617	-2.8874437293	-0.5851231816	-0.246267
C	 0.6903766538	-1.8523713092	-1.4489401265	-0.088836
C	-0.2097171197	-0.6178143267	-1.3269981368	-0.257966
H	-0.7314824853	 1.9886784345	 0.9884033673	 0.108911
H	-0.6889430053	 2.0673058285	-0.846241443	 0.108069
H	-0.2910001587	-0.0486982061	 2.124288105	 0.097737
H	-1.1612776599	-1.3092471022	 1.2471661332	 0.106037
H	 1.8852053484	-1.1023137625	 1.2175797417	 0.122386
H	 1.0773414252	-1.9329783385	 2.5280569426	 0.09799
H	 1.9266744084	-3.3832380359	 0.5378671791	 0.088968
H	 0.3305820852	-3.7236300486	 1.2218821495	 0.106015
H	 1.7414982712	-1.5901581944	-1.2626611617	 0.102923
H	 0.6269055991	-2.2453684899	-2.4700664723	 0.103331
H	-1.2456236049	-0.9459694103	-1.4787539333	 0.108036
H	 0.0350111573	 0.0911543262	-2.125770079	 0.099622
89.309	143.8086	221.2156	246.9813	305.1066	334.5372	385.3889	421.637	451.9092	557.7036	579.7239	686.2336	789.5249	847.4481	856.0356	873.425	881.2071	934.5593	957.7326	991.7042	1016.0942	1053.3501	1084.0318	1106.9981	1135.0561	1157.7352	1163.7921	1190.491	1234.3424	1251.8902	1282.1866	1303.1973	1321.4854	1349.9826	1374.8882	1378.9298	1396.1301	1420.8217	1433.8521	1455.4129	1477.3329	1492.5737	1499.4697	1511.8016	1531.4246	2970.8664	3006.4562	3028.6948	3038.8368	3042.5518	3058.8269	3062.5157	3075.2347	3080.1484	3084.4438	3088.6818	3159.0621
C1OC11CCCOCC1	C1O[C@]21CCCOCC2	
InChI=1S/C7H12O2/c1-2-7(6-9-7)3-5-8-4-1/h1-6H2	InChI=1S/C7H12O2/c1-2-7(6-9-7)3-5-8-4-1/h1-6H2/t7-/m1/s1
