25
gdb 103769	3.04999	1.06647	0.93676	0.1144	93.6	-0.2455	0.0833	0.3288	1421.1179	0.227958	-352.343516	-352.33334	-352.332395	-352.378447	38.836	
C	 0.1949424961	 1.4460194991	 0.2853957405	-0.380085
C	-0.1934987288	 0.034954193	-0.175067045	-0.243054
C	 0.6029853097	-0.4774077376	-1.3676269795	 0.295427
C	 0.4043641761	 0.2888365793	-2.6630041549	-0.465624
C	 1.9774864887	-1.0601577148	-1.0951208126	-0.392436
C	 0.831637453	-1.9637299413	-1.4674971423	 0.335388
C	 0.267915486	-3.0938379999	-0.5893661054	-0.29193
C	 0.5382418729	-4.0792880022	-1.7639600683	-0.213485
C	 0.7793731859	-2.8672967875	-2.7109641062	-0.293811
H	 1.2594157119	 1.4972747692	 0.5383324513	 0.116001
H	 0.0016839975	 2.1942658159	-0.4896161619	 0.115982
H	-0.3757080984	 1.7381062523	 1.1726850389	 0.108245
H	-0.0668800205	-0.6594288134	 0.66370246	 0.094774
H	-1.2641233039	 0.0164606403	-0.4235287794	 0.089185
H	 0.7377795968	 1.3285452115	-2.5738926877	 0.115719
H	 0.9658213839	-0.1646507816	-3.485037468	 0.114365
H	-0.6534407776	 0.304745116	-2.9539250779	 0.109375
H	 2.7615127717	-0.8982145242	-1.8297448907	 0.100789
H	 2.3305379873	-1.082363216	-0.0674144018	 0.101203
H	 0.7864241008	-3.2982821518	 0.3514971182	 0.095329
H	-0.7995790079	-2.9758201801	-0.3747231697	 0.097621
H	 1.444706478	-4.6691944743	-1.6082568758	 0.103061
H	-0.2743622805	-4.7579659627	-2.032115937	 0.095538
H	-0.0812833596	-2.6568412119	-3.3548807114	 0.097306
H	 1.6754198109	-2.9048862071	-3.3367461934	 0.095118
70.9465	92.8826	133.1666	165.5716	193.9707	221.897	259.9647	302.4976	360.8009	403.8303	417.4117	429.4268	627.4394	674.9574	718.4194	787.1249	795.2843	862.1663	874.0814	902.2595	919.7476	940.5352	941.9144	966.7661	1018.5502	1033.9621	1043.6253	1056.7847	1075.0531	1120.114	1138.7839	1175.7584	1192.5058	1210.8174	1239.4631	1252.8844	1269.1204	1277.0209	1290.051	1320.7841	1364.5078	1406.3425	1409.3653	1419.3495	1477.0688	1477.4947	1480.6229	1487.213	1494.0788	1499.692	1506.8423	1508.0324	1511.0656	3007.03	3021.5161	3034.3906	3038.1386	3042.1511	3053.8536	3064.9874	3080.039	3084.9836	3089.1856	3101.2219	3101.9056	3105.5982	3107.6219	3119.9084	3189.4722
CCC1(C)CC11CCC1	CC[C@@]1(C)CC21CCC2	
InChI=1S/C9H16/c1-3-8(2)7-9(8)5-4-6-9/h3-7H2,1-2H3	InChI=1S/C9H16/c1-3-8(2)7-9(8)5-4-6-9/h3-7H2,1-2H3/t8-/m0/s1
