25
gdb 57534	3.23314	0.88505	0.84436	1.2241	89.22	-0.2552	0.063	0.3182	1551.5427	0.227095	-389.491132	-389.48056	-389.479616	-389.526731	40.324	
C	 0.0084382497	 1.5792606965	-0.0475316324	-0.414198
C	 0.0005272858	 0.0440076269	 0.008958472	 0.347005
C	 0.549837998	-0.4349827227	 1.3558157529	-0.391152
O	-1.3546258373	-0.4271818616	-0.0234005328	-0.452608
C	 0.8002401433	-0.526457962	-1.1851006694	-0.246341
C	 0.7865484567	-2.0421333207	-1.3463833816	 0.070499
C	-0.4975128317	-2.7692681929	-1.838955477	-0.205404
C	 0.4033056464	-3.7132498005	-2.678561633	-0.217865
C	 1.5379369702	-2.6598904979	-2.5615074975	-0.237597
H	 1.0244026103	 1.9789903248	 0.0356839679	 0.112313
H	-0.4113585767	 1.9358258299	-0.9958677636	 0.09981
H	-0.5943632357	 1.9895240275	 0.7677789247	 0.118824
H	-0.0246549843	 0.0117106514	 2.1722020111	 0.11828
H	 0.4701246723	-1.5205086356	 1.4472785814	 0.123703
H	 1.5993469208	-0.149225817	 1.4728701357	 0.108703
H	-1.7486250059	-0.1330278782	-0.8516332179	 0.273402
H	 0.4081325173	-0.0723690891	-2.1082344637	 0.073905
H	 1.8400926069	-0.1807825683	-1.1024390991	 0.092389
H	 1.1436209576	-2.5231175809	-0.4291722808	 0.069771
H	-1.1577983637	-3.2056339975	-1.0877878982	 0.102305
H	-1.0955938488	-2.1156936046	-2.4838839303	 0.079723
H	 0.6466694055	-4.630659671	-2.134275268	 0.099452
H	 0.0646603927	-3.9869285584	-3.6807598191	 0.091707
H	 1.5362171321	-1.9742197443	-3.4162094757	 0.092697
H	 2.5604984088	-3.0142497338	-2.4057316055	 0.090679
41.7068	101.0464	125.9988	177.2666	211.8165	245.8424	284.3052	295.9432	309.2305	341.2473	384.716	431.4466	462.1743	521.4868	646.7911	756.2544	776.4918	793.0463	866.6044	903.4269	915.2603	932.1766	932.4704	948.7228	970.5812	976.9713	1009.5822	1042.3513	1082.2184	1120.0668	1158.1522	1183.8745	1207.3852	1219.064	1240.3746	1255.5947	1259.11	1272.4766	1280.8111	1298.332	1343.4344	1371.1881	1396.8368	1402.7895	1420.629	1468.6635	1477.4555	1481.4489	1486.3093	1488.0812	1497.9218	1507.9687	1511.0861	2987.1798	3025.0811	3029.316	3039.5534	3041.1391	3046.2377	3052.8571	3054.3416	3091.4244	3092.1599	3105.2127	3111.1613	3118.7852	3119.0144	3127.8535	3805.621
CC(C)(O)CC1CCC1	CC(C)(O)CC1CCC1	
InChI=1S/C8H16O/c1-8(2,9)6-7-4-3-5-7/h7,9H,3-6H2,1-2H3	InChI=1S/C8H16O/c1-8(2,9)6-7-4-3-5-7/h7,9H,3-6H2,1-2H3
