22
gdb 99107	3.5778	0.86753	0.84667	3.1862	83.5	-0.2374	0.0345	0.272	1531.2621	0.192303	-404.380126	-404.369631	-404.368687	-404.416418	38.251	
C	 0.9906996785	-2.9111038512	 2.911987464	-0.36669
C	 0.2866496175	-2.0817119198	 1.8385622438	-0.30306
C	-1.1366959013	-2.574199221	 1.5699618697	 0.417607
O	-1.7921085888	-3.1777797881	 2.3999239988	-0.377178
N	-1.6189920868	-2.2733825315	 0.3233738722	-0.374451
C	-2.9886019784	-2.5079703966	-0.0617884512	 0.371498
C	-4.0029980047	-1.5756502873	 0.5717596692	-0.449264
C	-3.1866649348	-2.9804506191	-1.4813162738	-0.325051
C	-3.3699063941	-3.9398377051	-0.3295352173	-0.261084
H	 1.9568741723	-2.4704521637	 3.1731794437	 0.106142
H	 0.3701300852	-2.9668247113	 3.80847764	 0.144126
H	 1.1637277542	-3.9351225821	 2.5679184268	 0.121881
H	 0.2093326207	-1.0353654764	 2.1646578392	 0.125017
H	 0.8631325586	-2.0691377989	 0.9058318003	 0.10021
H	-1.0637624103	-1.6734117508	-0.2669999976	 0.239123
H	-3.7977416797	-0.5316371953	 0.3083352391	 0.105761
H	-5.015698373	-1.8157008361	 0.2346353763	 0.112781
H	-3.9708705934	-1.673654531	 1.6603679573	 0.148055
H	-4.0649391952	-2.6271124325	-2.0104247865	 0.114395
H	-2.3059614591	-3.1019947953	-2.1030721467	 0.108839
H	-2.6102930178	-4.6945704778	-0.1705277185	 0.124169
H	-4.3753980194	-4.247669619	-0.0661238586	 0.117173
39.4979	61.6095	90.3562	134.7059	202.9433	236.9955	264.1853	297.6874	323.3077	407.6032	416.4239	445.3371	452.1906	599.2329	684.5818	742.1464	774.2735	815.2292	870.7336	889.6838	939.7178	956.5571	998.222	1029.5967	1041.8973	1071.4346	1078.8998	1093.1491	1097.9387	1131.6689	1186.8128	1221.4283	1286.4217	1309.0913	1342.8521	1372.4367	1409.2779	1410.8741	1460.7597	1466.5846	1481.7506	1492.6126	1497.6335	1503.2962	1507.7241	1514.9185	1778.4149	3019.8837	3031.1552	3048.9977	3057.7804	3098.4395	3115.08	3120.4934	3131.2316	3138.9062	3148.7368	3215.0648	3239.7096	3615.2276
CCC(=O)NC1(C)CC1	CCC(=O)NC1(C)CC1	
InChI=1S/C7H13NO/c1-3-6(9)8-7(2)4-5-7/h3-5H2,1-2H3,(H,8,9)	InChI=1S/C7H13NO/c1-3-6(9)8-7(2)4-5-7/h3-5H2,1-2H3,(H,8,9)
