16
gdb 33288	6.60875	0.70082	0.7008	0.9929	94.92	-0.2477	-0.0242	0.2235	1601.6691	0.124318	-363.476133	-363.468261	-363.467317	-363.508978	30.221	
C	 0.0525521773	-3.757260984	-0.0171531614	-0.595996
C	 0.0378505159	-2.5495274276	-0.0137791134	 0.197824
C	 0.0212838084	-1.1904852491	-0.0102946968	 0.366807
C	 0.0064077178	 0.0212983944	-0.0071459724	-0.281746
C	-0.011630545	 1.4564390873	-0.0032172127	 0.222583
C	-0.656091455	 2.4363680042	 1.0181489648	-0.198766
N	-0.0364944916	 3.4079814695	 0.0023022303	-0.172906
C	 1.1738308963	 2.4624140773	 0.0378221523	-0.198818
C	-0.5907160688	 2.4430801622	-1.0569788752	-0.198835
H	 0.0654030834	-4.8189412466	-0.0198456411	 0.191297
H	-1.7471108164	 2.4781681937	 1.0601613467	 0.111421
H	-0.2097140513	 2.4949584578	 2.0136895077	 0.111402
H	 1.7541830597	 2.5229072924	 0.9615917623	 0.111451
H	 1.8118733059	 2.5287872739	-0.8466585157	 0.111411
H	-0.0826047661	 2.5078844014	-2.0221234872	 0.111419
H	-1.6769883504	 2.4849653032	-1.1671641081	 0.111453
78.972	80.5766	232.8044	233.1375	407.7438	455.2737	455.4274	536.0296	536.152	590.878	592.9774	609.0097	609.4945	790.423	791.3411	836.3111	938.9935	977.403	986.9664	987.9094	1021.8774	1030.3563	1130.8546	1131.3346	1165.7937	1166.693	1199.3108	1200.0915	1288.085	1323.5935	1509.411	1510.6819	1561.9819	2178.8433	2350.1534	3055.8567	3056.6994	3064.9067	3126.3737	3132.2968	3132.4756	3503.954
C#CC#CC12CN(C1)C2	C#CC#C[C@@]12CN(C1)C2	
InChI=1S/C8H7N/c1-2-3-4-8-5-9(6-8)7-8/h1H,5-7H2	InChI=1S/C8H7N/c1-2-3-4-8-5-9(6-8)7-8/h1H,5-7H2
