19
gdb 98619	4.02235	1.01454	0.94347	3.314	76.89	-0.231	-0.0108	0.2201	1322.4565	0.157871	-422.998365	-422.989502	-422.988557	-423.032944	32.374	
C	 0.0185674556	 1.5365140785	-0.2341238114	-0.378973
C	-0.1871615997	 0.0245894535	-0.2302627175	-0.284084
C	-1.6236700041	-0.3934906505	 0.0674818327	 0.384106
O	-2.4847988477	 0.4211226468	 0.3242751082	-0.320132
C	-1.8838611609	-1.863843805	-0.0079110295	-0.149349
C	-3.1251028108	-2.5877996542	 0.4963383911	-0.169694
C	-4.3909174441	-1.7841586426	 0.1870636632	-0.082726
O	-4.0093581539	-1.6756805812	-1.2179176117	-0.270852
C	-2.8809323291	-2.4920282885	-0.9807293319	 0.092557
H	 1.0642417455	 1.7847131342	-0.4366626748	 0.107295
H	-0.6047019538	 2.0121099993	-0.9956321307	 0.132845
H	-0.2617241437	 1.969478755	 0.7292960213	 0.131567
H	 0.101377877	-0.4215390139	-1.1921739658	 0.121894
H	 0.460833443	-0.4613099677	 0.5136234163	 0.119153
H	-0.9919065114	-2.481928462	 0.0699971047	 0.095396
H	-3.0528663025	-3.4272333839	 1.1746103714	 0.105064
H	-5.2978265681	-2.3910613125	 0.2768116833	 0.108371
H	-4.5103230752	-0.8100860504	 0.6586225902	 0.145262
H	-2.5882663559	-3.2028446647	-1.7455528992	 0.112298
42.6077	66.2868	152.5042	171.6668	200.6066	283.9568	334.6834	398.7596	439.7547	586.0614	681.6621	740.6911	783.3831	802.5258	824.6242	883.1073	916.4221	960.8155	972.4761	985.654	1017.0021	1043.8876	1053.1442	1087.4172	1088.4227	1101.6419	1126.512	1163.5001	1171.5759	1261.9513	1276.7162	1308.0597	1351.7046	1372.3314	1411.4196	1433.5548	1451.9405	1491.1896	1495.6242	1497.4229	1789.77	3011.0159	3039.6988	3050.8489	3051.2763	3122.1257	3128.1605	3137.7542	3153.8104	3175.6458	3203.9673
CCC(=O)C1C2COC12	CCC(=O)[C@H]1[C@H]2CO[C@@H]12	
InChI=1S/C7H10O2/c1-2-5(8)6-4-3-9-7(4)6/h4,6-7H,2-3H2,1H3	InChI=1S/C7H10O2/c1-2-5(8)6-4-3-9-7(4)6/h4,6-7H,2-3H2,1H3/t4-,6-,7-/m1/s1
