20
gdb 109012	4.10493	0.99786	0.8871	2.9688	81.08	-0.216	0.0148	0.2309	1356.7109	0.170813	-403.133842	-403.124827	-403.123883	-403.167531	34.099	
C	 0.0348450447	 1.4935037119	-0.0883228674	-0.464509
C	-0.0483015458	-0.0019428195	 0.0827401578	 0.336938
C	-1.3968915549	-0.70045475	-0.1371892035	-0.3911
C	-1.3414739543	-1.9148406598	 0.7725636573	 0.283936
C	-2.431173678	-2.9363957802	 0.7772759912	-0.171966
O	-2.1266131072	-3.9573226297	 1.7094247575	-0.412864
C	-0.220648043	-1.9242659184	 1.5029512176	-0.17365
C	 0.6687579103	-0.7833473116	 1.1394610991	-0.104514
N	 1.1639687849	-0.7596349356	-0.2627913256	-0.370153
H	 1.0437154781	 1.8473325152	 0.1369390428	 0.129066
H	-0.1979347574	 1.7839096781	-1.119809143	 0.115966
H	-0.6733824123	 2.0058339761	 0.5723734575	 0.111926
H	-2.2284659362	-0.0355377516	 0.1364762623	 0.108117
H	-1.5556587812	-0.9677942667	-1.191299662	 0.107511
H	-3.3895699324	-2.4423623104	 1.0203570802	 0.094691
H	-2.5518353274	-3.3453967087	-0.2424879417	 0.094091
H	-2.8543561502	-4.5851196973	 1.7147002703	 0.290344
H	 0.0354305938	-2.6816840628	 2.2318375975	 0.112853
H	 1.3378879818	-0.3376979687	 1.8689722294	 0.085384
H	 0.9250436766	-1.6432262902	-0.7103625574	 0.217931
68.3131	140.8392	178.1862	188.6998	230.3328	263.2506	307.307	390.5218	399.358	439.3601	531.2099	601.8028	678.1064	740.5307	812.311	852.707	897.9277	903.1032	947.1169	958.5992	1015.6893	1028.135	1066.034	1080.5951	1099.5336	1126.2236	1171.1036	1176.3383	1196.2222	1213.1334	1251.5937	1265.369	1291.5623	1318.3103	1339.2646	1403.9906	1432.5807	1466.1679	1472.8279	1486.8322	1495.3553	1507.0759	1702.7411	2933.2326	2943.6239	3004.7494	3027.0608	3032.0715	3085.3833	3122.1639	3157.8697	3227.0282	3469.2504	3839.425
CC12CC(CO)=CC1N2	C[C@]12CC(=C[C@H]1N2)CO	
InChI=1S/C7H11NO/c1-7-3-5(4-9)2-6(7)8-7/h2,6,8-9H,3-4H2,1H3	InChI=1S/C7H11NO/c1-7-3-5(4-9)2-6(7)8-7/h2,6,8-9H,3-4H2,1H3/t6-,7+/m1/s1
