18
gdb 55834	4.49744	0.82757	0.75695	5.0916	73.68	-0.2457	-0.0264	0.2193	1501.0203	0.145667	-439.1343	-439.124936	-439.123992	-439.169736	33.289	
C	 0.0658565758	 1.5105828807	 0.0055585624	-0.473896
C	 0.2372028874	 0.0048406898	 0.0239805475	 0.386295
O	 0.5905046821	-0.5901948515	 1.0184876416	-0.299536
C	-0.050258377	-0.7314878171	-1.2813833728	-0.323005
C	-0.077372169	-2.2449842081	-1.1132005682	 0.073612
C	-0.0180241561	-3.111674654	-2.4067176023	-0.42259
C	 1.3088380609	-3.6741606788	-1.8286969733	 0.431065
O	 2.1175183264	-4.4973161579	-2.1617637683	-0.359579
N	 1.2039843449	-2.8475031606	-0.7371065114	-0.312344
H	 0.6182359893	 1.9542137227	-0.8299173817	 0.141143
H	-0.9906827488	 1.7617923623	-0.1448564071	 0.14491
H	 0.4087475625	 1.9371104192	 0.9487301357	 0.147759
H	-0.999349824	-0.3712463774	-1.6995482262	 0.122647
H	 0.7269735103	-0.4438796057	-2.0037429149	 0.13082
H	-0.8899975411	-2.5288077144	-0.4354964976	 0.093478
H	-0.8098235749	-3.8544496718	-2.5158194308	 0.132575
H	 0.0963796925	-2.5565890494	-3.3401881226	 0.125068
H	 1.7299873187	-2.762675238	 0.11953951	 0.261577
47.1835	65.2569	102.0632	113.9853	166.5918	306.9593	313.1492	441.9183	459.1708	484.4072	498.1655	570.1392	597.3799	730.79	812.28	825.4703	855.0853	949.6719	951.8288	967.6509	1023.2647	1063.8008	1077.5472	1139.6967	1177.5966	1182.5656	1193.1607	1232.6956	1271.5584	1342.2534	1380.9464	1385.8842	1406.0504	1438.9587	1462.6448	1463.0464	1475.2981	1803.3456	1897.1681	3016.6021	3037.0931	3042.3315	3061.1215	3084.471	3097.6825	3143.2884	3154.3594	3626.8841
CC(=O)CC1CC(=O)N1	CC(=O)C[C@H]1CC(=O)N1	
InChI=1S/C6H9NO2/c1-4(8)2-5-3-6(9)7-5/h5H,2-3H2,1H3,(H,7,9)	InChI=1S/C6H9NO2/c1-4(8)2-5-3-6(9)7-5/h5H,2-3H2,1H3,(H,7,9)/t5-/m0/s1
