18
gdb 22359	2.88774	1.13956	0.96144	1.8003	70.89	-0.2501	-0.0044	0.2458	1239.9093	0.147032	-476.189667	-476.180856	-476.179912	-476.223318	33.756	
O	 0.0801265258	 1.0802174557	-0.3246693735	-0.391111
N	 0.0477795095	-0.227800774	 0.1882958469	-0.219895
C	-1.1292669439	-0.7091978136	 0.13971831	 0.372001
C	-2.380746149	-0.0818808025	-0.43329449	-0.338697
C	-3.4649873459	-1.1875812849	-0.3146322929	 0.127915
O	-4.3915843502	-1.2173339339	-1.3702863051	-0.441332
C	-2.6516043112	-2.5048232579	-0.2110399808	 0.077907
O	-2.3048578055	-2.9467090126	-1.5270284738	-0.447293
C	-1.4272563823	-2.1152769535	 0.6222277047	-0.326553
H	 1.0109713775	 1.3115294056	-0.2357044107	 0.307787
H	-2.6485049897	 0.8434105068	 0.0844620491	 0.134475
H	-2.2232815831	 0.1942286163	-1.4824849907	 0.13012
H	-4.0345116907	-1.0458276971	 0.611502878	 0.088453
H	-3.981843806	-1.7724152748	-2.0498364445	 0.28278
H	-3.237363165	-3.3172236842	 0.2244866832	 0.093448
H	-1.5212365903	-2.4646444635	-1.8160928325	 0.293732
H	-0.584705778	-2.8016889337	 0.5132013447	 0.12837
H	-1.703932372	-2.0956348582	 1.6847874281	 0.127894
52.9682	125.4658	200.8581	274.518	278.58	313.8207	379.7806	389.9023	407.9198	471.4792	511.2997	532.3096	567.9112	649.0819	731.1248	826.1923	833.2415	863.6425	940.7661	958.713	986.6004	1028.6183	1081.6688	1119.8724	1142.995	1193.0322	1197.1177	1225.4217	1252.8917	1287.3156	1318.1104	1319.6932	1365.2377	1404.3099	1423.7205	1445.6966	1461.0844	1468.3315	1752.4423	3026.6348	3039.6256	3050.1351	3092.5556	3096.1729	3110.3353	3728.1893	3794.7331	3817.2553
ON=C1CC(O)C(O)C1	ON=C1C[C@@H](O)[C@@H](O)C1	
InChI=1S/C5H9NO3/c7-4-1-3(6-9)2-5(4)8/h4-5,7-9H,1-2H2	InChI=1S/C5H9NO3/c7-4-1-3(6-9)2-5(4)8/h4-5,7-9H,1-2H2/t4-,5+
