17
gdb 19457	4.91718	1.55055	1.52059	4.2621	72.12	-0.2964	0.0344	0.3307	885.5284	0.145625	-326.736748	-326.730326	-326.729382	-326.767172	25.616	
N	-0.0676539013	-1.1531856548	-0.0942036658	-0.335962
C	-0.0387440644	 0.0020566718	-0.0419632408	 0.260708
C	-0.0168375558	 1.4531379066	 0.0089063402	-0.141442
C	-0.0732754075	 2.0752063634	 1.4518854197	-0.011041
C	 1.4469940407	 1.7598221477	 1.5453562352	-0.239478
C	 1.4149862037	 2.1026282241	 0.0284904137	-0.011047
C	 1.0557989861	 3.599933735	 0.0382025566	-0.225273
C	-0.0764550655	 3.5790724912	 1.1211145618	-0.225273
H	-0.72544362	 1.8505264236	-0.7243353256	 0.109709
H	-0.789453102	 1.7096161948	 2.1864044255	 0.08329
H	 2.0581526422	 2.3904468339	 2.1965156122	 0.096877
H	 1.6502342862	 0.7053914573	 1.7375436878	 0.130551
H	 2.1874426195	 1.7644672588	-0.6607434585	 0.083288
H	 1.9090523087	 4.2175059619	 0.3304094551	 0.107543
H	 0.7038339864	 3.9528063629	-0.9350472859	 0.105003
H	-1.0397494852	 3.9206856225	 0.7325553114	 0.105004
H	 0.1656924681	 4.1853830695	 1.9977984774	 0.107545
157.801	160.6002	303.632	378.9299	453.3599	529.2104	541.2511	648.2367	820.7505	829.6457	845.3467	882.4434	889.8972	908.5145	941.5476	967.5473	990.3709	1024.8633	1048.7404	1060.7519	1081.9528	1125.2006	1150.318	1198.1546	1221.102	1237.7651	1258.6908	1270.7824	1279.2202	1312.8408	1314.7598	1362.2399	1493.9524	1501.6504	1522.5927	2350.1951	3056.2218	3063.0526	3064.608	3068.8754	3094.7373	3112.8178	3129.281	3130.5855	3137.1288
N#CC1C2CC1CC2	N#C[C@H]1[C@H]2C[C@@H]1CC2	
InChI=1S/C7H9N/c8-4-7-5-1-2-6(7)3-5/h5-7H,1-3H2	InChI=1S/C7H9N/c8-4-7-5-1-2-6(7)3-5/h5-7H,1-3H2/t5-,6+,7+
