21
gdb 61241	3.43876	0.84089	0.76503	1.8837	85.18	-0.2505	0.0513	0.3018	1562.2425	0.1794	-387.042313	-387.031789	-387.030845	-387.078203	38.538	
C	 0.015512822	 1.5453407547	-0.2431327519	-0.399916
C	 0.038103505	 0.0472564485	-0.027464105	-0.011104
C	 1.3207747594	-0.7435051114	-0.1086306421	-0.303624
C	 0.6106981755	-0.5868488785	 1.2185205703	-0.013133
C	 1.2130904404	 0.236676495	 2.3375467761	 0.115419
O	 0.223949966	 0.9338868071	 3.0829890752	-0.426415
C	 2.0920032598	-0.6526114517	 3.2506529152	-0.384591
C	 2.7731129102	 0.0859922523	 4.3047391985	 0.309467
C	 3.3460964065	 0.7023424714	 5.1625406228	-0.436744
H	 0.9486431266	 2.0196974439	 0.0732289815	 0.117983
H	-0.1253110981	 1.7784628139	-1.3040821418	 0.112231
H	-0.7970184098	 2.0136981943	 0.3208899063	 0.128465
H	-0.839941264	-0.4602758408	-0.4197208957	 0.083119
H	 1.3192111639	-1.7147663805	-0.5910793276	 0.11015
H	 2.2410981118	-0.1830489167	-0.2476017344	 0.11161
H	 0.0837357664	-1.4709510416	 1.5775696913	 0.071615
H	 1.8491947191	 1.0244027983	 1.922562846	 0.097201
H	-0.4019180883	 0.2857909957	 3.424988169	 0.276009
H	 1.4572677172	-1.4341306451	 3.6931091149	 0.115615
H	 2.8262292402	-1.1765383819	 2.6259117867	 0.134735
H	 3.8452637203	 1.2473304731	 5.9245756847	 0.191907
55.2764	74.7408	95.665	157.5068	197.2617	210.0401	247.1283	324.1271	345.0807	361.7738	373.9061	434.3942	524.5415	591.0466	615.0096	635.7652	776.6705	838.0845	858.0328	865.3209	904.5386	968.7727	983.1453	1022.6357	1049.6964	1067.7507	1084.6352	1110.6696	1148.3815	1152.0806	1194.5669	1197.8761	1240.348	1274.9272	1309.9556	1357.2138	1394.2979	1415.0795	1421.5555	1436.1994	1463.7831	1490.2052	1493.5629	1501.8686	2241.0751	3004.1192	3036.0498	3049.5394	3070.6805	3098.4352	3101.6381	3108.6287	3122.6903	3135.0707	3207.2972	3507.9016	3799.2838
CC1CC1C(O)CC#C	C[C@H]1C[C@H]1[C@@H](O)CC#C	
InChI=1S/C8H12O/c1-3-4-8(9)7-5-6(7)2/h1,6-9H,4-5H2,2H3	InChI=1S/C8H12O/c1-3-4-8(9)7-5-6(7)2/h1,6-9H,4-5H2,2H3/t6-,7+,8-/m0/s1
