19
gdb 62911	3.70138	1.10979	0.95041	3.2254	77.27	-0.2359	-0.0274	0.2085	1263.7586	0.156636	-422.964092	-422.955244	-422.9543	-422.997457	33.487	
O	 0.0851030036	-0.1914084289	 0.8201163428	-0.26117
C	 0.1049373413	 1.0160443808	 0.8342906548	 0.13246
C	 1.3427726149	 1.8095518445	 0.5215413711	-0.097909
C	 1.1674977377	 3.1024226735	-0.334307408	-0.009479
O	 0.4221411231	 3.7026288941	 0.795640245	-0.30832
C	 1.6221799788	 3.0735005445	 1.3928746202	-0.009462
C	 2.4947425386	 3.7038645008	 0.2500433288	 0.346071
C	 3.8493752214	 3.1027995233	-0.1167130286	-0.480645
C	 2.5762953268	 5.2285696425	 0.2540523842	-0.46239
H	-0.7943176394	 1.6121560295	 1.0802447223	 0.101792
H	 2.1661459829	 1.1352352487	 0.2935152452	 0.089965
H	 0.7325512711	 3.2024671607	-1.3303002565	 0.101946
H	 1.7346624051	 3.1386458264	 2.4765202006	 0.10196
H	 3.8716329302	 2.0129388294	-0.1392681152	 0.12709
H	 4.1598717285	 3.4618523729	-1.1039567903	 0.126553
H	 4.6092188213	 3.4357481456	 0.5986518194	 0.126537
H	 3.3306143406	 5.5671448335	 0.9730575387	 0.116014
H	 2.8825145957	 5.5955926276	-0.7319108607	 0.116007
H	 1.6180462978	 5.6770089908	 0.5133974563	 0.142981
86.6084	148.793	168.0038	207.073	230.1987	256.2952	355.6009	381.9225	404.7991	453.3458	546.908	608.0612	721.176	734.2213	749.5623	848.3905	881.2138	944.8171	952.1063	966.63	1011.9832	1039.0883	1103.023	1111.2476	1116.9774	1130.5944	1171.2898	1184.5117	1185.3094	1233.6861	1268.3685	1317.3477	1326.9951	1399.5409	1418.0074	1426.972	1484.8024	1486.9384	1506.7879	1515.0642	1813.8427	2956.0247	3034.4195	3041.1465	3088.2535	3095.3795	3103.8109	3108.1427	3126.2282	3148.1218	3155.5302
O=CC1C2OC1C2(C)C	O=C[C@H]1[C@H]2O[C@@H]1C2(C)C	
InChI=1S/C7H10O2/c1-7(2)5-4(3-8)6(7)9-5/h3-6H,1-2H3	InChI=1S/C7H10O2/c1-7(2)5-4(3-8)6(7)9-5/h3-6H,1-2H3/t4-,5+,6-
