18
gdb 20842	5.17206	1.24572	1.08237	2.3917	75.24	-0.2277	0.0296	0.2574	1146.6982	0.154768	-344.025109	-344.0166	-344.015655	-344.059084	30.3	
C	 0.0459567953	 1.4155708836	-0.4725973607	-0.368709
C	-0.0974128489	 0.1169022883	 0.3384216238	-0.28201
C	-1.434788675	-0.5401244249	 0.1687544839	 0.352262
N	-2.3206426671	-0.5395812803	 1.1624587374	-0.293599
N	-3.3955836415	-1.1857381491	 0.6586252728	-0.252341
C	-3.2277292065	-1.6031248007	-0.6232138136	 0.389425
C	-4.2835671177	-2.3431783552	-1.3777122047	-0.503451
C	-1.9569292566	-1.1960134586	-0.9749581176	-0.374433
H	 1.0345675202	 1.8617884978	-0.3245312895	 0.10873
H	-0.0827859979	 1.2306515233	-1.5439898504	 0.114206
H	-0.7082958361	 2.1477492765	-0.1685441478	 0.123435
H	 0.6949008706	-0.5821696664	 0.0428474784	 0.100933
H	 0.0438844023	 0.3267550769	 1.4030276632	 0.115202
H	-4.2017193604	-1.3174467678	 1.2456566782	 0.265147
H	-5.1993445343	-1.7504279015	-1.486485235	 0.135197
H	-3.9253424802	-2.5872085864	-2.3798436915	 0.142398
H	-4.5565631058	-3.28281022	-0.8833640983	 0.134623
H	-1.4738938804	-1.3557049955	-1.9263492684	 0.092988
38.9998	64.2248	129.7653	200.8198	248.4759	288.3581	389.9521	422.1888	489.5431	587.4775	669.5505	716.7612	743.2962	790.1521	807.8372	964.4809	988.8828	1011.3977	1047.7761	1062.4048	1064.3994	1087.2011	1170.4824	1183.1791	1272.1618	1314.4211	1351.5876	1405.9204	1411.914	1436.9645	1460.6282	1479.4317	1482.988	1490.83	1497.433	1512.1604	1513.2035	1616.793	3028.1473	3029.0224	3034.7721	3077.246	3081.5041	3105.3407	3112.6316	3128.9504	3253.8305	3669.9212
CCC1=NNC(C)=C1	CCc1n[nH]c(C)c1	
InChI=1S/C6H10N2/c1-3-6-4-5(2)7-8-6/h4H,3H2,1-2H3,(H,7,8)	InChI=1S/C6H10N2/c1-3-6-4-5(2)7-8-6/h4H,3H2,1-2H3,(H,7,8)
