19
gdb 86074	2.19033	1.7854	1.19597	2.8581	78.93	-0.2266	0.0118	0.2385	1092.6813	0.158741	-422.988024	-422.979495	-422.978551	-423.020974	32.35	
C	-0.0184936842	 1.4741496649	-0.0794095436	-0.49667
C	 0.0059685883	-0.0069776281	 0.107809456	 0.192823
C	-0.9999009912	-0.8621016009	 0.2683351145	 0.098275
C	-2.3830192489	-1.2458182926	-0.1981883381	-0.153417
O	-1.8477915458	-2.5461256597	-0.5982243764	-0.297346
C	-0.6095379558	-2.2929335161	 0.1320897213	 0.126768
C	 0.7780372747	-2.2197820411	-0.5535961752	 0.059634
O	 0.5846445072	-2.1860388984	-1.9527773714	-0.417996
C	 1.2896402678	-0.8407486585	-0.0072028079	-0.328862
H	 0.5319955835	 1.9890994798	 0.7186194935	 0.128883
H	 0.463683972	 1.7580824141	-1.0236494838	 0.127515
H	-1.0404017212	 1.8629827126	-0.083410007	 0.125337
H	-3.1515030168	-1.3631785404	 0.5773374243	 0.104116
H	-2.7957488185	-0.6811566338	-1.0416674127	 0.118488
H	-0.5722019202	-2.9160605072	 1.0368560017	 0.073374
H	 1.4414481697	-3.0489618666	-0.266468581	 0.056851
H	 1.4484759979	-2.0834111446	-2.3641380857	 0.282665
H	 2.008055462	-0.3879813371	-0.7027208513	 0.093612
H	 1.8140822395	-0.9615719565	 0.9509861128	 0.105949
111.6984	142.2058	171.6755	200.6289	259.356	264.298	332.0051	382.4745	460.7611	508.8143	595.5753	690.6625	757.71	802.1884	850.2788	902.045	916.444	946.0619	955.4612	984.7722	1030.3071	1053.8716	1091.7308	1118.2587	1124.8047	1142.3815	1184.5204	1193.8026	1231.6748	1271.1388	1274.8529	1331.1677	1341.501	1358.5331	1412.4721	1429.2263	1471.2875	1478.3233	1488.0824	1508.3544	1780.2239	2983.237	3000.8035	3009.1935	3013.1503	3017.1503	3048.5404	3060.5742	3064.871	3109.9343	3820.3425
CC1=C2COC2C(O)C1	C[C]1[C]2CO[C@H]2[C@@H](O)C1	
InChI=1S/C7H10O2/c1-4-2-6(8)7-5(4)3-9-7/h6-8H,2-3H2,1H3	InChI=1S/C7H10O2/c1-4-2-6(8)7-5(4)3-9-7/h6-8H,2-3H2,1H3/t6-,7+/m0/s1
