21
gdb 41707	3.64635	1.42269	1.22029	0.2523	87.27	-0.2138	0.0248	0.2385	1095.2458	0.186287	-349.974051	-349.966918	-349.965974	-350.005127	30.096	
C	 0.3017003467	 1.3430866388	-0.5210294005	-0.219704
C	 1.4284433801	 1.9782417782	 0.3332291355	-0.230318
C	 2.0604384048	 0.8172608311	 1.0883832696	-0.065073
C	 2.4624769307	-0.3927750026	 0.2871251965	-0.10373
C	 3.2954853428	-1.4762817119	 0.9771449676	-0.297675
C	 2.3844664345	-1.9938234504	 2.0742825876	-0.079045
C	 1.1854360152	-1.405913677	 2.0470661444	-0.19135
C	 1.1026748168	-0.3672513739	 0.9874157843	 0.376445
C	-0.1455610805	 0.0815051875	 0.2545238703	-0.313179
H	-0.5220667841	 2.0373478974	-0.7065924042	 0.095083
H	 0.6931836546	 1.0528980612	-1.5013585329	 0.104799
H	 2.1409914527	 2.53976298	-0.2819566728	 0.094724
H	 1.0056013174	 2.6841714548	 1.0580376472	 0.09798
H	 2.5760931759	 1.0171437156	 2.0233109327	 0.074773
H	 2.5399210981	-0.2954868971	-0.7909487163	 0.076945
H	 3.5701948853	-2.2753791574	 0.2754011197	 0.104435
H	 4.2406468129	-1.0875301021	 1.3798854047	 0.10673
H	 2.7063818908	-2.7314622544	 2.8006144046	 0.089653
H	 0.3672147308	-1.6122797139	 2.7287856974	 0.087418
H	-0.9260544687	 0.3320299502	 0.985397163	 0.095342
H	-0.5622495666	-0.6847016944	-0.4089302883	 0.095746
190.7428	206.7357	248.9105	286.9198	342.6364	463.7759	484.1265	618.9031	647.7954	720.8665	736.7368	796.9141	823.4656	870.1282	877.8996	895.4174	919.6819	923.6183	951.2331	974.6783	991.9534	1018.987	1037.2356	1057.1485	1073.8037	1098.6654	1122.2637	1156.4704	1179.8507	1203.2961	1233.6799	1248.163	1269.1998	1277.6248	1312.1001	1329.7713	1332.5057	1342.9217	1394.9708	1419.4305	1479.2192	1491.5789	1492.3397	1510.7705	1665.2619	3010.032	3016.4143	3028.3911	3034.138	3046.1333	3061.2716	3066.349	3097.5357	3147.0428	3156.8535	3180.0168	3206.1079
C1CC2C3CC=CC23C1	C1C[C@@H]2[C@H]3CC=C[C@@]23C1	
InChI=1S/C9H12/c1-3-7-8-4-2-6-9(7,8)5-1/h1,5,7-8H,2-4,6H2	InChI=1S/C9H12/c1-3-7-8-4-2-6-9(7,8)5-1/h1,5,7-8H,2-4,6H2/t7-,8-,9+/m1/s1
