17
gdb 68462	2.41038	2.0885	1.36457	4.0655	67.62	-0.2462	0.0009	0.2471	953.01	0.136451	-458.986905	-458.97934	-458.978395	-459.018718	29.334	
C	-0.122654839	 1.5253569948	 0.0233197243	-0.474781
C	 0.026241709	 0.0294628964	-0.026478539	 0.230046
C	 0.7756523439	-0.6859090674	-1.1781662611	-0.296709
C	-0.3454775384	-1.7182367512	-0.9670092128	 0.070908
C	-0.0088346228	-2.6711203012	 0.1646997718	-0.072498
O	 0.4969312104	-1.9507986673	 1.3076075737	-0.246477
C	 0.5030362776	-0.5918930789	 1.2927958038	 0.446386
O	 0.8833419207	 0.0227139589	 2.2488102105	-0.334444
O	-1.1976920129	-0.685398236	-0.4013272191	-0.318331
H	 0.8365900483	 1.9908315131	 0.2631046423	 0.141881
H	-0.4763068029	 1.8967561746	-0.9416257168	 0.121585
H	-0.836332087	 1.8118724256	 0.800133756	 0.145937
H	 0.6657433301	-0.1421062857	-2.1176083383	 0.120521
H	 1.8126176652	-0.9915923992	-1.0243422509	 0.120118
H	-0.7950114867	-2.2287390422	-1.8225256918	 0.09346
H	-0.9055834273	-3.2091197867	 0.4889393656	 0.131397
H	 0.7572697618	-3.3976125678	-0.1278667084	 0.121001
121.5455	178.1102	212.8037	268.1404	318.4101	379.7342	424.2301	483.6704	498.2736	644.8828	677.2638	749.3787	810.7593	857.1816	872.9812	897.3219	935.4426	983.3777	1013.0919	1027.4866	1066.7049	1103.1983	1129.4992	1161.3857	1224.174	1235.9154	1250.6336	1311.0895	1319.0057	1350.9591	1411.1252	1419.2834	1474.1469	1482.7679	1490.2952	1500.1351	1857.6687	3041.9719	3053.4439	3073.2897	3087.04	3091.1476	3131.0389	3134.9701	3140.0518
CC12CC(COC1=O)O2	C[C@@]12C[C@@H](COC1=O)O2	
InChI=1S/C6H8O3/c1-6-2-4(9-6)3-8-5(6)7/h4H,2-3H2,1H3	InChI=1S/C6H8O3/c1-6-2-4(9-6)3-8-5(6)7/h4H,2-3H2,1H3/t4-,6+/m0/s1
