13
gdb 131394	3.57439	1.17112	0.90945	4.8075	61.68	-0.2373	-0.0038	0.2335	1172.7855	0.089484	-489.910475	-489.902553	-489.901609	-489.943706	28.202	
O	 0.3579553219	 1.103193184	 0.6341484634	-0.4293
C	 0.1319506156	-0.1747723606	 0.2747625695	 0.348475
N	 0.2911845028	-0.6180173126	-0.9614989444	-0.314574
N	-0.0378049174	-1.9315695925	-0.8885208623	-0.197023
C	-0.3858697308	-2.3274587865	 0.3556380491	-0.103465
C	-0.2874847584	-1.2048095299	 1.1498750918	 0.165606
O	-0.6231103677	-1.1155621578	 2.4799749664	-0.223186
C	 0.3280233273	-0.6395186931	 3.3349147081	 0.160783
O	 0.1054711002	-0.4803505128	 4.4929484276	-0.259017
H	 0.6234330501	 1.5869452754	-0.1581574183	 0.31103
H	-0.0008000583	-2.4868654434	-1.7246714106	 0.284782
H	-0.6843309038	-3.3360018555	 0.5899585039	 0.155076
H	 1.2859137986	-0.4375762747	 2.826088886	 0.100813
54.9941	118.6749	155.8231	285.2065	304.5746	364.0044	386.824	445.2466	462.3	543.4296	650.576	718.8762	728.1088	801.8476	857.2237	933.2843	1037.8715	1070.3716	1128.1916	1139.1607	1248.8695	1267.801	1336.3308	1414.8292	1450.3126	1497.5907	1592.1116	1638.4618	1878.9085	3001.3812	3274.34	3693.9384	3797.3635
OC1=NNC=C1OC=O	Oc1n[nH]cc1OC=O	
InChI=1S/C4H4N2O3/c7-2-9-3-1-5-6-4(3)8/h1-2H,(H2,5,6,8)	InChI=1S/C4H4N2O3/c7-2-9-3-1-5-6-4(3)8/h1-2H,(H2,5,6,8)
