18
gdb 22829	2.28907	1.54168	0.97126	1.5737	71.59	-0.2533	-0.0037	0.2496	1191.3347	0.147363	-476.178267	-476.169672	-476.168728	-476.211534	32.293	
C	 0.0513828448	 1.5426517313	-0.0740777532	-0.401252
C	 0.121273207	 0.0312072656	 0.0498656464	 0.040518
O	 0.7419592659	-0.4804743386	-1.1334729928	-0.241473
C	 0.888705243	-1.8717608995	-1.0910490418	 0.019504
O	 1.7634677392	-2.2858322232	-0.0772415025	-0.23121
C	 1.2809972606	-1.9375176944	 1.2133122053	-0.184882
C	 0.8672288791	-0.4825732089	 1.2686416727	 0.349736
N	 1.0564745038	 0.3123517821	 2.2456374011	-0.18746
O	 1.6928937511	-0.3108296852	 3.3293424369	-0.394692
H	 1.0573224296	 1.9652190155	-0.1270850752	 0.134303
H	-0.4914506121	 1.8050578664	-0.9854690293	 0.120509
H	-0.4589094216	 1.9739287645	 0.7885892613	 0.133399
H	-0.9037855097	-0.3835077475	 0.1010922979	 0.0813
H	-0.100823933	-2.3530616694	-0.9581811077	 0.072709
H	 1.3335613253	-2.1781598348	-2.0395896208	 0.121528
H	 0.4154991	-2.5692797674	 1.4812682096	 0.108241
H	 2.081160548	-2.1371183579	 1.9247858598	 0.149471
H	 1.8128432689	 0.4218503611	 3.9426917024	 0.309748
72.7037	166.7764	201.8591	225.5414	245.0714	303.6565	372.0747	377.7465	440.1036	449.2406	496.4594	552.6745	642.9348	721.0306	801.5136	869.8843	966.8852	974.935	986.7903	1037.9988	1075.1541	1101.7406	1116.0096	1166.115	1212.1015	1235.7694	1269.7187	1321.9495	1353.5906	1369.1441	1377.8175	1408.9851	1413.8696	1441.822	1481.6907	1483.4876	1494.0277	1507.601	1743.9633	2905.5843	2920.2296	2953.5908	3059.7843	3116.5487	3135.4291	3143.7437	3148.3411	3821.2325
CC1OCOCC1=NO	C[C@H]1OCOCC1=NO	
InChI=1S/C5H9NO3/c1-4-5(6-7)2-8-3-9-4/h4,7H,2-3H2,1H3	InChI=1S/C5H9NO3/c1-4-5(6-7)2-8-3-9-4/h4,7H,2-3H2,1H3/t4-/m1/s1
