21
gdb 55856	2.99843	1.00157	0.96315	1.6943	79.96	-0.2583	0.0161	0.2744	1384.6423	0.178901	-424.260908	-424.250348	-424.249404	-424.297598	37.637	
C	-0.1803842978	 1.3381717995	 0.127194986	-0.480923
C	-0.1157894713	-0.14445663	-0.1493241002	 0.425329
O	 0.692297392	-0.6969166134	-0.8492298544	-0.346994
O	-1.1015597765	-0.7921330558	 0.5214146084	-0.243546
C	-1.1351187442	-2.1997825056	 0.3592940975	 0.107243
C	-2.3714601261	-2.8762357726	 0.8639544807	-0.372396
C	-2.0901922664	-2.8131483071	-0.6310774294	 0.31381
C	-2.951341045	-1.8971645206	-1.4775560992	-0.457479
C	-1.6346862354	-4.0816106457	-1.3258558897	-0.449255
H	 0.5998281692	 1.8465352375	-0.4378031723	 0.148002
H	-1.16202203	 1.7316559347	-0.1510554465	 0.148485
H	-0.047240781	 1.5248877046	 1.196703233	 0.151013
H	-0.1634919088	-2.6608018504	 0.495614547	 0.1119
H	-2.2637868985	-3.8209979849	 1.3863159044	 0.112809
H	-3.1532770517	-2.2313656307	 1.2509138483	 0.119664
H	-3.2262764523	-0.9881513665	-0.9374882625	 0.119601
H	-2.42180985	-1.600143091	-2.3902197153	 0.122907
H	-3.874517735	-2.4049798854	-1.7786391125	 0.115292
H	-2.4935603495	-4.6958685243	-1.6209599531	 0.114922
H	-1.0609122651	-3.8474195501	-2.2293811958	 0.126604
H	-0.9995673467	-4.6913722223	-0.6755812843	 0.113012
31.957	56.4064	91.7261	118.3266	202.5019	220.4636	246.6074	285.0606	327.6374	356.1119	389.7235	452.5229	515.0866	610.3248	644.7676	718.1731	806.3706	859.9843	911.4354	927.1356	974.4528	991.2925	1008.6056	1042.057	1053.5773	1063.4447	1085.8022	1133.2223	1155.7636	1169.1583	1254.3499	1284.1488	1337.668	1391.3641	1405.7281	1414.4321	1423.4185	1469.472	1476.0722	1482.5047	1484.4507	1491.6875	1502.4643	1514.6858	1829.6606	3023.5713	3029.6403	3057.2572	3085.6961	3088.4316	3099.9275	3119.4604	3121.8038	3130.2831	3169.4312	3172.7756	3218.5252
CC(=O)OC1CC1(C)C	CC(=O)O[C@H]1CC1(C)C	
InChI=1S/C7H12O2/c1-5(8)9-6-4-7(6,2)3/h6H,4H2,1-3H3	InChI=1S/C7H12O2/c1-5(8)9-6-4-7(6,2)3/h6H,4H2,1-3H3/t6-/m0/s1
