17
gdb 36474	3.15982	0.99256	0.81033	4.2499	79.99	-0.247	0.0031	0.2501	1383.4731	0.134896	-380.817588	-380.808665	-380.807721	-380.851881	32.278	
C	 0.0439319948	-1.228388788	-0.0848078705	-0.421531
C	 0.003488078	-0.0282484238	-0.0621021224	 0.301402
C	-0.0443098795	 1.4286591554	-0.0062449318	-0.318186
N	 1.2885614381	 2.0050861601	 0.0964293621	-0.065213
C	 2.0900393298	 1.7782558356	 1.3188204367	-0.16521
C	 2.6167320662	 3.2279520489	 1.1971282583	-0.254077
C	 1.3906566767	 3.4662621258	 0.2694988126	-0.109436
C	 1.5650745683	 4.2405472375	-0.9586975023	 0.294016
N	 1.7051917538	 4.8627214144	-1.9224708168	-0.321336
H	 0.0764179422	-2.2894510158	-0.117836139	 0.203366
H	-0.5127343627	 1.8202082906	-0.9183590273	 0.150605
H	-0.690615142	 1.735892695	 0.8403955621	 0.110315
H	 1.4724359773	 1.6364396584	 2.2196754608	 0.098886
H	 2.8075291832	 0.9582646238	 1.2450137905	 0.126281
H	 2.6596983161	 3.8317457464	 2.10217987	 0.124389
H	 3.559141571	 3.2961299359	 0.6543163618	 0.140582
H	 0.5461577888	 3.8965439597	 0.8343762552	 0.105146
55.3396	110.3168	123.1403	159.7269	233.2432	309.3796	336.7701	344.9446	446.0066	529.8091	587.7001	620.4381	660.7474	673.0887	799.4913	831.6785	939.7333	952.6858	968.3705	993.5189	1056.8909	1082.7955	1108.6639	1152.8318	1208.6906	1211.0832	1248.8649	1259.4794	1271.4047	1327.6429	1362.9355	1396.2412	1479.095	1487.0029	1523.1474	2245.3897	2357.7608	2901.9602	2956.4289	2984.3398	3040.0531	3097.6355	3105.0382	3166.2322	3504.6924
C#CCN1CCC1C#N	C#CCN1CC[C@H]1C#N	
InChI=1S/C7H8N2/c1-2-4-9-5-3-7(9)6-8/h1,7H,3-5H2	InChI=1S/C7H8N2/c1-2-4-9-5-3-7(9)6-8/h1,7H,3-5H2/t7-/m0/s1
