18
gdb 34496	4.13169	1.00881	0.87822	4.8847	88.6	-0.2415	-0.0374	0.204	1319.5474	0.149073	-364.837363	-364.82928	-364.828335	-364.87038	30.762	
N	 0.0159433526	-1.1414664492	-0.0131276692	-0.34061
C	-0.0233205866	 0.016822172	 0.0128626857	 0.200887
C	-0.0293411583	 1.4353115139	 0.0505498754	 0.17334
C	-1.1206096535	 2.2142887778	-0.0154796753	-0.215788
C	-0.7750390579	 3.6492596242	 0.0208158563	 0.352354
C	-1.4402540924	 4.6170727866	-0.9479566923	-0.306408
C	-1.7499543505	 4.6936851472	 0.5190301097	-0.312429
C	 0.7263061832	 3.703298459	 0.3475678753	-0.316593
C	 1.2482307394	 2.2585502002	 0.1211475666	-0.321181
H	-2.1374882577	 1.8504562574	-0.1080705593	 0.120682
H	-0.8099191976	 5.3857261123	-1.3827871679	 0.122379
H	-2.1999253324	 4.2288517963	-1.6178360359	 0.121902
H	-2.7255332588	 4.3630456504	 0.8596109339	 0.120804
H	-1.3350772724	 5.5191334951	 1.0886119884	 0.120903
H	 1.2609555018	 4.4356915904	-0.2622620589	 0.110569
H	 0.8658076144	 3.9880752991	 1.3954345388	 0.116339
H	 1.9130908653	 1.9215670891	 0.9217582882	 0.126239
H	 1.8110669814	 2.1608717483	-0.8150291995	 0.126613
72.6214	111.2086	144.6865	274.1983	302.7688	327.2062	461.2763	494.3722	540.7224	569.5371	578.3443	760.2519	780.8935	844.0257	862.2426	903.4384	905.2938	934.0364	958.2453	978.3695	997.2295	1054.8142	1059.2277	1083.0724	1147.4882	1183.9674	1193.0968	1221.5184	1263.3119	1299.0543	1307.1383	1330.6631	1385.714	1466.167	1485.0431	1497.4124	1502.947	1666.0251	2332.1628	3035.2672	3048.842	3080.6666	3100.7239	3126.2122	3130.5942	3203.9014	3206.7438	3222.7471
N#CC1=CC2(CC2)CC1	N#CC1=CC2(CC2)CC1	
InChI=1S/C8H9N/c9-6-7-1-2-8(5-7)3-4-8/h5H,1-4H2	InChI=1S/C8H9N/c9-6-7-1-2-8(5-7)3-4-8/h5H,1-4H2
