14
gdb 49360	1.90715	1.79413	1.38958	5.2444	69.85	-0.2622	-0.0675	0.1947	991.4198	0.09942	-432.843138	-432.834582	-432.833638	-432.876874	29.59	
N	-0.3123432247	 1.0039786275	 0.4655103515	-0.41373
C	-0.2369982491	-0.2134818492	 0.1345537331	 0.078115
N	-1.3243342245	-0.8507155886	-0.4848815301	-0.05812
C	-1.9508332819	-2.0754348221	-0.0591187166	-0.120504
C	-1.613753685	-2.7252208447	 1.2512489886	 0.150439
O	-0.8842791915	-2.2407321938	 2.0766688197	-0.234927
C	-2.689725683	-0.7310700559	-0.0515545385	-0.172529
C	-3.0529265707	-0.1176386229	 1.2066268627	 0.346875
N	-3.4332564526	 0.3595352984	 2.187606539	-0.326886
H	 0.5802541334	 1.3355468904	 0.8260636537	 0.239265
H	 0.6407433073	-0.8621084365	 0.1899592584	 0.119364
H	-2.2190594886	-2.7698821964	-0.854028215	 0.129161
H	-2.092804467	-3.7160869471	 1.3985352199	 0.106977
H	-3.4167372721	-0.5606124189	-0.8417335663	 0.156502
78.2056	117.4251	120.4823	147.9285	218.0292	265.088	306.891	370.2339	509.5152	553.5251	633.4321	743.362	798.4317	843.7456	856.8331	873.8829	980.1655	1011.8526	1050.6057	1076.346	1080.4251	1132.0257	1218.1773	1348.9733	1357.5748	1401.424	1413.3316	1433.9152	1716.5279	1822.1774	2364.8631	2914.8714	3094.6616	3125.983	3146.7222	3512.8958
N=CN1C(C=O)C1C#N	[NH][CH]N1[C@@H](C=O)[C@H]1C#N	
InChI=1S/C5H5N3O/c6-1-4-5(2-9)8(4)3-7/h2-5,7H	InChI=1S/C5H5N3O/c6-1-4-5(2-9)8(4)3-7/h2-5,7H/t4-,5+,8?/m1/s1
