21
gdb 111416	1.95578	1.63415	1.03842	2.182	78.87	-0.2434	0.0732	0.3166	1238.2387	0.180759	-424.175794	-424.166307	-424.165363	-424.210427	34.648	
C	 0.1505459721	 1.5133257972	-0.1280114899	-0.386902
C	 0.0565469599	-0.0154524102	-0.1707720286	-0.176888
C	-1.3709206747	-0.5333571606	-0.0268656409	-0.068674
C	-1.5710351903	-2.0566958175	 0.0114794173	 0.00949
O	-0.8701706844	-2.5555279421	 1.1539083476	-0.236507
C	-2.1826519347	-2.0203136149	 1.3513374867	-0.020629
C	-2.058436596	-0.4821347918	 1.3928316128	 0.101287
O	-1.2773936275	 0.0968944991	 2.3970257766	-0.226605
C	-1.8486057023	-0.001879752	 3.682799512	-0.23861
H	 1.1866028392	 1.8458576379	-0.2466027274	 0.10823
H	-0.438174635	 1.9715520241	-0.9315166617	 0.102725
H	-0.2211245255	 1.8955600733	 0.8261750675	 0.133628
H	 0.4623013368	-0.3848854134	-1.1222307743	 0.087447
H	 0.666895756	-0.4525314593	 0.6238365789	 0.122756
H	-2.0288233756	-0.0695568972	-0.7701832315	 0.072622
H	-1.7390005182	-2.745957773	-0.8082641277	 0.102323
H	-2.9227381268	-2.6714623624	 1.8025116403	 0.101927
H	-3.05382838	-0.0120326683	 1.3459196764	 0.064926
H	-1.1721102109	 0.500660476	 4.3776146585	 0.130836
H	-2.8345821337	 0.4875135685	 3.7278125779	 0.10247
H	-1.9662612585	-1.0487817932	 3.9982023694	 0.114149
72.4377	108.7305	120.2374	156.1494	189.1313	236.3497	245.4898	296.4788	341.2527	490.9447	536.3149	662.0964	719.5861	779.5209	817.0928	865.8897	872.1962	904.9393	932.6492	980.2198	1002.7251	1024.4413	1048.5846	1071.4468	1109.5955	1152.5375	1173.6037	1181.95	1202.2686	1231.1773	1243.569	1256.4704	1283.756	1287.1473	1330.5724	1376.4049	1381.2298	1399.6438	1407.4191	1480.7695	1485.8646	1487.8053	1499.4131	1507.0084	1512.8735	2970.745	2978.6243	3019.5648	3028.2246	3031.1131	3049.2822	3086.2804	3104.9254	3119.6923	3124.35	3174.8656	3190.2315
CCC1C2OC2C1OC	CC[C@H]1[C@H]2O[C@H]2[C@H]1OC	
InChI=1S/C7H12O2/c1-3-4-5(8-2)7-6(4)9-7/h4-7H,3H2,1-2H3	InChI=1S/C7H12O2/c1-3-4-5(8-2)7-6(4)9-7/h4-7H,3H2,1-2H3/t4-,5+,6-,7+/m1/s1
