16
gdb 43485	2.3036	1.96757	1.18371	2.8262	69.97	-0.2739	-0.0145	0.2594	1013.7113	0.126165	-437.931538	-437.924287	-437.923343	-437.964002	27.446	
N	-0.1874835737	 1.3392886406	-0.3821352429	-0.523605
C	-0.1084969612	 0.1026296286	-0.1737207163	 0.40761
O	 1.0905431464	-0.6038451945	-0.1581864932	-0.220363
C	 0.8878057683	-1.9704549787	-0.0293125367	 0.42675
O	 1.8027015821	-2.7333888024	-0.006013582	-0.317331
C	-0.5989000894	-2.2483629142	 0.0795625299	-0.175551
C	-1.0843634449	-2.5222996093	 1.5360665555	-0.230842
C	-1.5737066614	-1.0483943106	 1.6321168529	-0.231493
C	-1.2406506285	-0.8425456956	 0.1134242649	-0.1015
H	 0.7359889859	 1.749443889	-0.5307997243	 0.236367
H	-0.8967447562	-2.9694703972	-0.6824594311	 0.117616
H	-1.8974627814	-3.2496411476	 1.5654597619	 0.121419
H	-0.3132007298	-2.8379069066	 2.2411370478	 0.128857
H	-2.627657251	-0.9190132869	 1.8805004403	 0.122826
H	-0.9842124522	-0.4139121522	 2.2969063909	 0.126141
H	-2.1003844029	-0.6413294823	-0.5226789677	 0.113099
51.6476	129.5766	219.3296	236.4769	372.9503	487.1068	605.5187	621.7815	680.9994	707.6445	725.1549	804.8659	816.8118	852.9857	908.6922	914.2328	964.3971	968.9131	1005.2767	1019.0607	1087.1052	1110.8123	1139.4677	1195.4754	1222.5223	1231.6245	1263.2605	1268.9419	1289.5268	1315.3312	1331.7373	1482.2479	1498.9483	1788.8216	1909.0363	3077.8772	3082.2204	3108.5468	3124.1766	3134.8018	3145.1945	3478.8233
N=C1OC(=O)C2CCC12	[NH][C]1OC(=O)[C@H]2CC[C@@H]12	
InChI=1S/C6H7NO2/c7-5-3-1-2-4(3)6(8)9-5/h3-4,7H,1-2H2	InChI=1S/C6H7NO2/c7-5-3-1-2-4(3)6(8)9-5/h3-4,7H,1-2H2/t3-,4+/m1/s1
