21
gdb 122929	3.65313	0.67524	0.59514	1.436	76.78	-0.2584	-0.0281	0.2302	1851.7825	0.179138	-461.360361	-461.349436	-461.348492	-461.398029	37.497	
C	 0.042424311	 1.6805244863	 0.089459225	-0.40249
C	 0.0991781756	 0.1495959819	-0.0604438092	-0.103943
C	 0.8180098406	-0.543184199	 1.0928113903	-0.047052
O	 2.161320881	-0.101676985	 1.1144076331	-0.272195
C	 2.9375233511	-0.7051209754	 2.1352306767	-0.069635
C	 4.3058397361	-0.0442036918	 2.1024359991	-0.060923
O	 4.2177803536	 1.3452037978	 2.3494418892	-0.420927
C	-1.2972907536	-0.405381345	-0.2504332761	 0.154078
O	-1.7903897477	-1.2830986111	 0.4116718553	-0.244787
H	 1.0532981179	 2.0904061732	 0.1226379557	 0.137848
H	-0.4864451681	 2.1421799121	-0.7503957325	 0.121977
H	-0.4733307678	 1.9640714249	 1.0130721482	 0.129357
H	 0.643350641	-0.0737057407	-0.9915903027	 0.109837
H	 0.317701839	-0.3107392867	 2.046410266	 0.10159
H	 0.7711833029	-1.6340998622	 0.964269549	 0.106646
H	 2.4655820151	-0.5435334421	 3.1173780651	 0.098629
H	 3.0235105177	-1.7914807252	 1.9698318541	 0.090454
H	 4.9406640132	-0.4730463615	 2.884570402	 0.109924
H	 4.7802988534	-0.2521263146	 1.1299608789	 0.092876
H	 3.5335234529	 1.6732442377	 1.7549901607	 0.287768
H	-1.8686804648	 0.0771709865	-1.0774286679	 0.080968
32.2693	60.6748	99.5787	112.4959	129.2016	163.6119	216.2474	233.2076	291.0357	350.522	392.5049	418.1799	444.7557	532.2817	675.6624	816.0266	872.8553	906.2099	919.6654	926.6676	943.8567	1051.174	1084.9418	1107.1691	1134.7991	1153.3712	1157.2325	1180.6156	1237.3436	1260.4541	1272.6709	1303.6363	1329.8819	1383.9239	1387.2251	1399.6763	1424.277	1436.521	1450.9419	1491.7908	1498.7346	1501.7617	1506.1619	1522.7176	1826.1134	2862.5126	2967.7057	2978.572	2982.3478	2997.411	3011.7984	3024.3589	3040.2935	3081.035	3105.3463	3136.6214	3803.9587
CC(COCCO)C=O	C[C@@H](COCCO)C=O	
InChI=1S/C6H12O3/c1-6(4-8)5-9-3-2-7/h4,6-7H,2-3,5H2,1H3	InChI=1S/C6H12O3/c1-6(4-8)5-9-3-2-7/h4,6-7H,2-3,5H2,1H3/t6-/m1/s1
