18
gdb 86230	2.04058	1.47161	0.99188	3.0469	72.35	-0.2752	0.0141	0.2893	1222.3039	0.147174	-439.102662	-439.093628	-439.092684	-439.137598	32.937	
C	-0.005341064	 1.4562317464	 0.0329130221	-0.407909
C	 0.1485306237	-0.0517914561	 0.0674504566	 0.128602
C	 0.638489598	-0.7067373199	-1.2294512026	-0.242279
C	 1.3862337116	-1.9702265674	-0.7693103155	 0.087671
O	 2.6258697701	-2.0411891856	-1.4434244371	-0.422942
C	 1.5542344056	-1.7198144098	 0.7754485424	-0.073877
O	 1.1699294237	-0.385983721	 1.0231087239	-0.242597
C	 0.7391932761	-2.6669805887	 1.5665036445	 0.259906
N	 0.0953089126	-3.4183867088	 2.1639246136	-0.326079
H	 0.9369759923	 1.9293705773	-0.2590028603	 0.129156
H	-0.7784425121	 1.741352979	-0.6867771589	 0.123492
H	-0.2947060416	 1.8350290523	 1.0165901199	 0.134589
H	-0.798668199	-0.5154854259	 0.3873542634	 0.087471
H	-0.1700381675	-0.9278683561	-1.9287588102	 0.115016
H	 1.3647212315	-0.0579695973	-1.7283573685	 0.12735
H	 0.7972481237	-2.8788695847	-0.9391707841	 0.099993
H	 2.9972893046	-2.9198541495	-1.314761023	 0.291876
H	 2.6040427207	-1.8340644742	 1.0612874938	 0.130561
22.3353	95.7561	154.2703	218.1487	246.5083	290.0214	318.3108	383.5503	417.5304	444.593	540.6024	566.2614	583.3891	734.8174	841.0165	891.6635	913.7282	936.2325	960.428	997.9483	1051.1927	1078.8615	1105.816	1143.0046	1157.9722	1209.2321	1241.6978	1270.9286	1291.4035	1317.6816	1351.3319	1379.3446	1395.5614	1416.7534	1433.5587	1481.8959	1485.1239	1498.9474	2349.6837	2974.2487	3035.5424	3044.9337	3065.5336	3075.2733	3119.2679	3124.3427	3126.6674	3819.0508
CC1CC(O)C(O1)C#N	C[C@H]1C[C@@H](O)[C@@H](O1)C#N	
InChI=1S/C6H9NO2/c1-4-2-5(8)6(3-7)9-4/h4-6,8H,2H2,1H3	InChI=1S/C6H9NO2/c1-4-2-5(8)6(3-7)9-4/h4-6,8H,2H2,1H3/t4-,5+,6-/m0/s1
