22
gdb 120783	3.76976	0.7916	0.72891	3.0464	84.43	-0.2324	0.082	0.3145	1631.6322	0.194056	-404.296063	-404.286566	-404.285622	-404.331383	35.429	
O	 0.2838636219	 1.3007874935	-0.4272462938	-0.422891
C	 0.1410078838	-0.0445255506	-0.0255624452	-0.047478
C	-1.3237311526	-0.3814535261	 0.2566289799	-0.14945
N	-2.0970260495	-0.0514940096	-0.9399099528	-0.106678
C	-2.4931240572	-1.1362798666	-1.8362598483	-0.272416
C	-3.5144826824	-0.4084951095	-1.0285475152	 0.01152
C	-4.2490215573	-1.0784617628	 0.08873261	 0.014948
C	-5.1215549796	-0.2556548803	 1.0096235885	-0.267546
C	-5.7534775715	-1.1908195944	 0.012863538	-0.281056
H	-0.4537502547	 1.4528070911	-1.0347039317	 0.283941
H	 0.5300466599	-0.7376476516	-0.7917803523	 0.080047
H	 0.7406135165	-0.1866680931	 0.8803239399	 0.100011
H	-1.4153680017	-1.4350319462	 0.5653667335	 0.081916
H	-1.6867003083	 0.2465249634	 1.0778945463	 0.114286
H	-2.3809163479	-0.9497580953	-2.901044809	 0.116159
H	-2.2566387127	-2.1544543541	-1.5277666389	 0.108854
H	-4.1076174513	 0.3541047121	-1.5348237048	 0.086272
H	-3.735827016	-1.9199491425	 0.5426565707	 0.085206
H	-5.1511439773	-0.5211408147	 2.0603770597	 0.115394
H	-5.1900282059	 0.810188035	 0.818222516	 0.118025
H	-6.2483286857	-0.7554564014	-0.8492315329	 0.11578
H	-6.2163572206	-2.1014703662	 0.3756882623	 0.115156
44.5063	70.5718	115.1795	151.3645	195.4711	270.9873	293.5133	363.1074	443.5187	481.2392	511.4658	605.5314	724.4065	757.8379	809.2186	830.2892	890.6959	906.8803	923.0718	930.678	972.626	993.4732	1035.2597	1062.4446	1080.1166	1092.1903	1104.2612	1122.543	1130.7069	1137.2179	1171.3379	1199.4205	1212.0669	1225.6698	1241.7205	1275.1806	1318.2335	1332.6533	1376.6579	1382.6302	1447.6189	1454.1072	1470.1279	1479.6178	1504.3096	1510.6761	1513.1797	2952.42	2973.8517	3061.9422	3072.2876	3086.5315	3093.22	3131.6437	3135.8974	3159.3039	3175.0149	3210.3268	3225.6192	3737.2247
OCCN1CC1C1CC1	OCCN1C[C@H]1C1CC1	
InChI=1S/C7H13NO/c9-4-3-8-5-7(8)6-1-2-6/h6-7,9H,1-5H2	InChI=1S/C7H13NO/c9-4-3-8-5-7(8)6-1-2-6/h6-7,9H,1-5H2/t7-,8?/m0/s1
