19
gdb 41380	2.47155	1.84457	1.75779	1.5828	73.03	-0.2461	0.0498	0.2959	921.6341	0.161078	-422.987442	-422.980362	-422.979418	-423.01859	28.984	
C	 0.0867154427	 1.5811371262	-0.0914978686	-0.156672
O	 1.4344538196	 1.5761242404	 0.4766221378	-0.345462
C	 1.4238532186	 0.1327566689	 0.5491714564	 0.360276
C	 0.7657232841	-0.4434520418	 1.8213291762	-0.146367
O	-0.5238523151	-0.5315180513	 1.1387829207	-0.344434
C	 0.0441825496	 0.0358330744	-0.0631006069	 0.360044
C	 0.1120809028	-0.8687776325	-1.2819910568	-0.299877
C	 1.4334923563	-1.6627459933	-1.0393504768	-0.212208
C	 2.3913915705	-0.6794847763	-0.2966415176	-0.307802
H	-0.6382486587	 2.0695931208	 0.5671766946	 0.112769
H	 0.0734951931	 2.051379139	-1.0817702189	 0.103269
H	 1.1135263245	-1.4323497991	 2.1440952581	 0.102577
H	 0.7421199418	 0.2424027408	 2.6744283913	 0.112589
H	-0.7592093845	-1.5209999804	-1.3810720157	 0.11668
H	 0.1881679687	-0.2667199421	-2.1940682908	 0.10502
H	 1.2225361409	-2.5239856257	-0.3956767786	 0.115985
H	 1.8691925112	-2.0540455462	-1.9625029914	 0.104171
H	 2.8822564714	-0.005706249	-1.0061998088	 0.116869
H	 3.1696241327	-1.2011542227	 0.2677326157	 0.102572
149.0498	179.3533	308.6798	323.9255	347.6156	374.982	535.0266	550.0283	634.8879	705.4188	726.1651	826.8057	847.8227	892.4239	897.1608	905.3631	957.4285	960.3158	971.9696	979.2851	1005.0163	1014.1403	1130.372	1142.8581	1161.4111	1186.6095	1196.5841	1205.3397	1227.4691	1261.6528	1281.3936	1311.5886	1324.738	1330.7882	1349.8506	1365.3507	1469.9988	1484.7603	1495.9336	1503.1713	1506.7791	3020.182	3025.8658	3047.2264	3049.5696	3053.9126	3081.579	3087.3574	3095.0936	3103.5293	3111.4369
C1OC23COC12CCC3	C1O[C@@]23CO[C@@]12CCC3	
InChI=1S/C7H10O2/c1-2-6-4-9-7(6,3-1)5-8-6/h1-5H2	InChI=1S/C7H10O2/c1-2-6-4-9-7(6,3-1)5-8-6/h1-5H2/t6-,7-/m0/s1
