15
gdb 130983	4.18595	0.96074	0.80925	1.3147	67.88	-0.2319	-0.0409	0.191	1324.7369	0.112224	-453.933567	-453.925384	-453.92444	-453.967853	28.892	
O	 0.8525846488	 1.0311173741	 1.2821478527	-0.233098
C	 0.5376268415	 1.6632945904	 0.3096962064	 0.171181
C	 1.1686818663	 1.4825919621	-1.0692466199	-0.263337
N	 1.2636754836	 2.7402676419	-1.7808911584	-0.388328
C	 2.3019356472	 3.6075533693	-1.5101251755	 0.450312
N	 2.65611657	 4.5207528179	-2.3923797414	-0.246573
O	 3.6871198944	 5.2421717481	-1.7800806637	-0.163687
C	 3.914806457	 4.7284742316	-0.5690417053	 0.090352
C	 3.0838629765	 3.687558587	-0.3145654279	-0.337943
H	-0.2568583233	 2.4427174774	 0.3343054963	 0.094065
H	 2.1269088672	 0.9583924803	-0.9539472393	 0.135566
H	 0.4976134067	 0.8228166718	-1.6328891484	 0.140699
H	 0.9957525322	 2.730999947	-2.7530578485	 0.259001
H	 4.6972842404	 5.2010636771	 0.0050868339	 0.152733
H	 3.0295245916	 3.0800637938	 0.5727060491	 0.139057
48.4317	61.2113	101.3035	201.2379	290.3307	349.859	414.8107	496.8402	592.2586	615.4079	671.7571	726.2882	776.2064	785.0576	871.843	914.9371	942.3542	995.2129	1040.9125	1084.9035	1104.7685	1149.4441	1176.45	1254.4078	1328.8805	1343.6483	1398.8797	1414.086	1452.2251	1492.5467	1535.1566	1642.4415	1839.7671	2890.6619	3015.8691	3071.5727	3259.3975	3287.918	3621.1803
O=CCNC1=NOC=C1	O=CCNc1nocc1	
InChI=1S/C5H6N2O2/c8-3-2-6-5-1-4-9-7-5/h1,3-4H,2H2,(H,6,7)	InChI=1S/C5H6N2O2/c8-3-2-6-5-1-4-9-7-5/h1,3-4H,2H2,(H,6,7)
