15
gdb 36681	3.37989	0.79888	0.68679	5.4125	70.78	-0.3159	-0.0187	0.2971	1539.8736	0.111795	-416.808902	-416.80009	-416.799145	-416.843828	30.365	
N	-0.1502758198	-1.122570503	 0.0241977178	-0.294888
C	-0.0377516875	 0.0201365441	 0.1512497286	 0.259413
C	 0.117348059	 1.4650865831	 0.2936440543	-0.334717
C	 1.3617981895	 1.9968202155	-0.4509385253	-0.240012
C	 1.4509503602	 3.4963940201	-0.3238497357	 0.060218
O	 1.7741659738	 4.0191569313	 0.9657290496	-0.229492
C	 2.7201793238	 4.2188608663	-0.0856746489	-0.102942
C	 3.9776863356	 3.5109782653	 0.0257407539	 0.30646
N	 4.9909201348	 2.9596184674	 0.0952295646	-0.317132
H	-0.7909817888	 1.9504378265	-0.0824949142	 0.155558
H	 0.1941112827	 1.7132110488	 1.3575781191	 0.175826
H	 2.2616305282	 1.5283339908	-0.0442519969	 0.156234
H	 1.3030219374	 1.7301389376	-1.5114988381	 0.139506
H	 0.6743006815	 4.0630300483	-0.8411854403	 0.118114
H	 2.8159185796	 5.2456488678	-0.4335799885	 0.147854
57.6954	71.898	94.2875	161.9953	209.3462	256.5892	362.0856	397.5442	458.4907	534.2827	579.1825	620.7188	765.0399	818.6274	834.096	938.0942	969.3162	1009.6019	1031.7266	1061.0643	1127.9919	1148.4584	1221.9753	1279.3632	1291.7346	1317.1926	1368.5611	1391.8055	1462.4248	1469.9728	1484.6754	2363.2041	2366.8333	3044.2262	3060.8945	3086.5814	3096.2238	3120.6408	3138.0762
N#CCCC1OC1C#N	N#CCC[C@H]1O[C@H]1C#N	
InChI=1S/C6H6N2O/c7-3-1-2-5-6(4-8)9-5/h5-6H,1-2H2	InChI=1S/C6H6N2O/c7-3-1-2-5-6(4-8)9-5/h5-6H,1-2H2/t5-,6+/m1/s1
