17
gdb 26523	2.36239	1.82924	1.04416	3.4976	79.92	-0.2284	-0.0239	0.2045	1115.9408	0.136474	-418.053994	-418.045438	-418.044494	-418.087415	31.266	
C	 0.1356212823	 1.5160593914	 0.0610817164	-0.479618
C	-0.0638492887	 0.0364049702	 0.0388452878	 0.267787
C	-1.2036869781	-0.6791324741	 0.0221716489	 0.145183
C	-2.5841294714	-0.0892943783	 0.0226309726	-0.479314
C	-1.1134130477	-2.148742772	 0.0018879816	 0.281766
N	-2.174073996	-2.8636830265	-0.0138687291	-0.518764
N	 0.1795340596	-2.7228960988	 0.0005451542	-0.31632
C	 1.1801842092	-1.9441789933	 0.0174104572	 0.114202
O	 1.1687078686	-0.5957283235	 0.0369692122	-0.222914
H	 0.7065823913	 1.8064282213	 0.94999558	 0.147135
H	 0.7174404878	 1.8313989321	-0.8121175886	 0.147128
H	-0.8101288397	 2.0543510641	 0.0629876969	 0.144511
H	-3.1346321413	-0.4326079876	-0.8587547104	 0.149769
H	-3.145107744	-0.4586123631	 0.8867370774	 0.149839
H	-2.5851256433	 1.0010092238	 0.0389250228	 0.110515
H	-1.9043421167	-3.849324534	-0.0264032801	 0.218164
H	 2.2009732982	-2.3169751818	 0.0175393703	 0.140931
92.1775	108.9954	122.5689	165.771	283.4679	326.3239	336.6797	487.0887	507.4865	512.2881	522.3165	547.6193	672.9705	780.6636	872.8449	885.0778	915.3438	969.3613	972.3574	1035.7396	1053.5653	1069.2536	1147.2429	1162.4516	1198.6496	1254.7029	1392.996	1411.6027	1423.2296	1435.1064	1464.5446	1473.7296	1478.274	1486.2691	1670.4857	1687.1553	1735.2304	3041.0795	3050.7918	3090.8523	3102.242	3141.6195	3171.7784	3181.7026	3463.3519
CC1=C(C)C(=N)N=CO1	C[C@@H]1C(=C([NH])N=CO1)C	
InChI=1S/C6H8N2O/c1-4-5(2)9-3-8-6(4)7/h3,7H,1-2H3	InChI=1S/C6H9N2O/c1-4-5(2)9-3-8-6(4)7/h3,5,7H,1-2H3/t5-/m1/s1
