23
gdb 53692	4.77752	0.5186	0.48527	0.7066	93.03	-0.2418	0.0424	0.2842	2357.0417	0.201709	-388.2653	-388.253362	-388.252418	-388.30501	40.559	
C	 0.0044314307	 1.4767456475	 0.0191103918	-0.498777
C	-0.0061708525	 0.021594045	 0.0326941497	 0.136322
C	-0.0235145112	-1.181385139	 0.0433907975	-0.001185
C	-0.0155725756	-2.6377667424	 0.0579963377	-0.206072
O	-1.3386055304	-3.1364758345	 0.0021299304	-0.248939
C	-1.3875773236	-4.5492650554	 0.0143320132	-0.024341
C	-2.8474376045	-4.9993258478	-0.0113818191	 0.018966
C	-2.9283728266	-6.5256342769	-0.1357280783	-0.39316
C	-3.6076588071	-4.4885157651	 1.2186050821	-0.380506
H	 0.5536708049	 1.8651263246	-0.845598146	 0.14786
H	-1.0152486111	 1.8741704048	-0.0310107057	 0.15289
H	 0.4734836796	 1.8822544722	 0.9223143224	 0.147847
H	 0.5716868083	-3.018430816	-0.7963961233	 0.110539
H	 0.4910565522	-3.0016271811	 0.9693434681	 0.111071
H	-0.8463202205	-4.9558493852	-0.8577715757	 0.080193
H	-0.8858196544	-4.942125347	 0.9177538151	 0.079299
H	-3.2993260047	-4.551574508	-0.9065106986	 0.084422
H	-2.4683483928	-7.0171189035	 0.7300206128	 0.112677
H	-3.9701865708	-6.8568021429	-0.1861954768	 0.114738
H	-2.4183622139	-6.8865338296	-1.0353817627	 0.11072
H	-4.6693622502	-4.7490454946	 1.1596674572	 0.106203
H	-3.2061833799	-4.9348358694	 2.1369618144	 0.105089
H	-3.5205076958	-3.4031961957	 1.3046008438	 0.134145
17.644	37.7644	62.8568	86.3977	138.974	168.4597	209.6883	219.6919	245.447	282.2183	310.3579	377.3543	379.3959	424.6483	439.9269	553.6513	785.5115	841.79	925.7063	931.8972	963.2248	977.0207	1024.0564	1028.0766	1051.9019	1058.2686	1132.3466	1156.5746	1180.5358	1191.2451	1200.9389	1253.8939	1275.3534	1327.7198	1372.6581	1387.0648	1397.8649	1413.957	1416.0083	1449.0471	1476.7324	1479.165	1489.0679	1490.1909	1498.5678	1503.0865	1512.9355	1523.6129	2380.4279	2932.0061	2945.008	2956.7863	2965.1087	3020.4952	3024.1458	3027.391	3029.9092	3087.68	3087.8123	3089.8209	3093.1108	3102.3632	3127.4004
CC#CCOCC(C)C	CC#CCOCC(C)C	
InChI=1S/C8H14O/c1-4-5-6-9-7-8(2)3/h8H,6-7H2,1-3H3	InChI=1S/C8H14O/c1-4-5-6-9-7-8(2)3/h8H,6-7H2,1-3H3
