21
gdb 71908	3.06283	1.69061	1.65912	1.4093	80.76	-0.2346	0.0833	0.318	956.9654	0.185538	-387.106285	-387.099323	-387.098379	-387.136987	30.144	
C	 0.0620544452	 1.4534386555	 0.086390571	-0.473584
C	-0.0266059889	-0.0500491327	-0.0348311694	 0.399821
C	 0.6137299051	-0.6924895953	-1.289859846	-0.247935
C	 0.311321018	-2.1955297414	-1.0643595659	-0.044126
C	 1.2425802546	-2.7559752796	 0.0396379743	-0.236505
C	 0.3141425118	-2.0523934567	 1.0522343674	 0.112204
O	 0.6016697239	-0.6503738811	 1.1217465759	-0.315061
C	-0.8500872654	-2.1310558939	 0.0081327266	-0.056953
C	-1.4169932196	-0.7197123878	-0.0242907395	-0.258029
H	 1.1066762339	 1.7783714575	 0.1083633021	 0.123463
H	-0.430218364	 1.9365963794	-0.7631261355	 0.113247
H	-0.4187386074	 1.7940681113	 1.0080737893	 0.122418
H	 0.1334486669	-0.3114108403	-2.1978603667	 0.091419
H	 1.6853656804	-0.4830768256	-1.3579157006	 0.096664
H	 0.1751584867	-2.7706045781	-1.9811650218	 0.060433
H	 1.1698112201	-3.8449738924	 0.123737637	 0.092035
H	 2.2938121898	-2.4543402307	 0.0355013544	 0.09455
H	 0.2134497639	-2.4401079432	 2.0683141069	 0.0671
H	-1.5223530664	-2.9843648752	 0.0732647514	 0.066794
H	-1.9926072842	-0.455776308	 0.8676625352	 0.098146
H	-2.0064383242	-0.5015833515	-0.919673356	 0.093901
199.5827	244.3049	287.277	358.4806	389.0165	457.7668	488.1579	578.4013	597.4205	650.5112	793.8492	803.3634	828.6488	840.1128	856.1949	883.1598	905.8624	941.5332	953.9553	964.2833	983.5233	1006.3931	1042.9829	1052.5387	1067.6356	1113.8022	1124.7758	1163.2296	1180.3226	1214.5548	1234.285	1243.458	1254.9045	1275.261	1276.84	1291.9386	1323.2974	1352.7763	1358.4321	1414.0296	1469.3411	1478.7131	1481.6788	1494.9649	1496.9171	3038.2929	3041.6296	3044.735	3055.4562	3082.8632	3089.8535	3095.0263	3103.7606	3107.3244	3112.0113	3115.5374	3136.7615
CC12CC3CC(O1)C3C2	C[C@@]12C[C@H]3C[C@@H](O1)[C@H]3C2	
InChI=1S/C8H12O/c1-8-3-5-2-7(9-8)6(5)4-8/h5-7H,2-4H2,1H3	InChI=1S/C8H12O/c1-8-3-5-2-7(9-8)6(5)4-8/h5-7H,2-4H2,1H3/t5-,6+,7-,8+/m1/s1
