23
gdb 100950	2.30198	1.04436	0.76414	1.5296	79.44	-0.2333	0.0745	0.3078	1556.3432	0.201708	-462.535351	-462.523507	-462.522562	-462.573272	40.944	
C	 0.0289923164	 1.36466975	-0.0918690047	-0.235798
O	-0.0310761282	-0.0177685736	 0.172906314	-0.250317
C	-1.3268421056	-0.5947317684	 0.0551182521	 0.113135
C	-1.7519322483	-0.7658522142	-1.4031991903	-0.408092
C	-1.2538688321	-1.9415791822	 0.799808429	 0.087686
C	-0.9083643077	-1.7436635941	 2.2816321623	-0.076586
O	-0.5973609262	-2.955834517	 2.9603355051	-0.421214
O	-2.5089595785	-2.5737291062	 0.6264021724	-0.255359
C	-2.5069618231	-3.9831402257	 0.753478147	-0.239641
H	 1.0486700105	 1.6897125387	 0.1302445161	 0.126271
H	-0.1903500783	 1.6041591927	-1.1419063384	 0.110361
H	-0.669478888	 1.9310218052	 0.5438677085	 0.105019
H	-2.0608567626	 0.0453521651	 0.5746446434	 0.071252
H	-2.7143594451	-1.2772189759	-1.4504138642	 0.139037
H	-1.8489851308	 0.2005226914	-1.9056453564	 0.110372
H	-1.0087618315	-1.3615676178	-1.9437141179	 0.115245
H	-0.456742403	-2.5419079919	 0.3245443706	 0.059411
H	-0.0916436021	-1.0168256421	 2.3647406971	 0.106923
H	-1.7897096144	-1.3361663393	 2.7880877793	 0.112057
H	 0.2529646486	-3.264488395	 2.6315000164	 0.281498
H	-2.2506606224	-4.3041137094	 1.767905883	 0.134075
H	-3.5158911008	-4.3224669987	 0.5038274382	 0.118986
H	-1.7972678768	-4.4452127516	 0.0486977674	 0.09568
50.0977	63.6195	76.6261	104.3319	161.4755	183.9009	195.6628	211.5767	247.2024	304.6043	313.3478	356.4202	358.0521	404.2109	438.8911	509.6306	587.3506	852.2611	867.0905	930.54	1001.2443	1024.0381	1086.9695	1095.4147	1113.1761	1124.9912	1158.6543	1171.361	1182.6913	1186.384	1211.8247	1215.6624	1248.0476	1289.4672	1358.7122	1371.3173	1384.5201	1396.8443	1406.2887	1414.8413	1476.5927	1478.2977	1482.3696	1483.8869	1493.5997	1496.2449	1501.7324	1512.0684	1521.8619	2940.995	2960.4922	2979.4364	2979.9709	3030.4756	3032.9442	3045.6049	3073.0396	3089.8638	3109.3386	3112.233	3116.5616	3146.362	3816.2637
COC(C)C(CO)OC	CO[C@@H](C)[C@@H](CO)OC	
InChI=1S/C6H14O3/c1-5(8-2)6(4-7)9-3/h5-7H,4H2,1-3H3	InChI=1S/C6H14O3/c1-5(8-2)6(4-7)9-3/h5-7H,4H2,1-3H3/t5-,6+/m0/s1
