17
gdb 26278	3.58082	1.19432	0.94106	2.6617	75.64	-0.249	-0.0399	0.2091	1218.738	0.137585	-418.056486	-418.048333	-418.047389	-418.09011	30.211	
C	 0.1919469898	 1.3377720464	-0.4435284255	-0.409571
C	 0.025353485	-0.0522531288	 0.1804152628	 0.0277
O	 0.530081663	-0.0783997567	 1.5086232257	-0.416273
C	-1.4083111521	-0.5610061947	 0.1086893625	 0.178162
C	-2.0804552593	-1.0492992531	 1.228254085	-0.048145
N	-3.3383954568	-1.4986345003	 1.1857966894	-0.251051
C	-3.9279524881	-1.4677227832	-0.0079124993	 0.07468
N	-3.3917101755	-1.0466858548	-1.1554149805	-0.252272
C	-2.1380847473	-0.5993552201	-1.0812050198	-0.03625
H	 1.2353725046	 1.6529859897	-0.3617964636	 0.132904
H	-0.0898635044	 1.3466304156	-1.4999383768	 0.129636
H	-0.4391671026	 2.0699249886	 0.0741606863	 0.118509
H	 0.6648948707	-0.7585867258	-0.3645855478	 0.115331
H	 0.1495994329	 0.6681490076	 1.9855677215	 0.283105
H	-1.5774330871	-1.0861136241	 2.189745764	 0.123071
H	-4.9530424222	-1.8274015916	-0.0550379802	 0.119843
H	-1.6969368106	-0.2618891546	-2.0177602438	 0.110621
27.0842	144.5699	212.8188	242.1832	315.5786	323.3202	389.8211	419.4901	450.1765	517.1537	640.2077	643.9482	759.6372	792.5313	911.2881	938.4321	1010.6504	1017.99	1034.8008	1053.3541	1070.9764	1116.9565	1146.5463	1216.0909	1229.3885	1251.3568	1299.9833	1334.8482	1369.2251	1405.9864	1415.0733	1451.1665	1459.7074	1491.2512	1493.4863	1595.0626	1621.7476	3026.4932	3034.8244	3106.5342	3126.3549	3141.3516	3166.6072	3181.6909	3795.1902
CC(O)C1=CN=CN=C1	C[C@@H](O)c1cncnc1	
InChI=1S/C6H8N2O/c1-5(9)6-2-7-4-8-3-6/h2-5,9H,1H3	InChI=1S/C6H8N2O/c1-5(9)6-2-7-4-8-3-6/h2-5,9H,1H3/t5-/m1/s1
