12
gdb 20532	5.10186	1.78039	1.33061	1.2169	57.47	-0.2942	-0.0813	0.2129	843.6757	0.084104	-410.844782	-410.837984	-410.837039	-410.876413	23.331	
C	-0.0204897256	 1.4759827491	-0.0475406473	-0.486167
C	-0.0277838556	-0.021334086	 0.089511884	 0.445522
O	-0.0504430764	-0.6469835412	 1.1058311141	-0.253065
N	-0.0026937768	-0.727589557	-1.1782493719	 0.039072
N	-0.0038241897	-2.0587031787	-1.2857386171	-0.203463
C	 0.0233290908	-2.2125731462	-2.5929841084	 0.093975
N	 0.0407902712	-1.0260455868	-3.2698958678	-0.198644
N	 0.0242731605	-0.0978151868	-2.3660654324	-0.102427
H	 0.8688871195	 1.808733999	-0.5888863998	 0.17266
H	-0.8861020956	 1.8138354209	-0.623210002	 0.172605
H	-0.0389348009	 1.9050950644	 0.9534649921	 0.157925
H	 0.0310418487	-3.1749375106	-3.0785135636	 0.162008
77.3174	131.2537	168.5594	225.3298	392.0878	499.8415	577.1331	641.6579	700.4909	724.173	914.7139	955.2732	1005.1744	1036.4297	1060.3325	1131.2123	1155.1265	1185.2801	1284.2118	1316.5567	1362.1792	1401.3421	1458.348	1468.5777	1510.0743	1874.3559	3064.4153	3131.7421	3174.2749	3289.8716
CC(=O)N1N=CN=N1	CC(=O)n1ncnn1	
InChI=1S/C3H4N4O/c1-3(8)7-5-2-4-6-7/h2H,1H3	InChI=1S/C3H4N4O/c1-3(8)7-5-2-4-6-7/h2H,1H3
