21
gdb 118082	3.73906	0.69003	0.60681	2.1315	71.75	-0.2569	0.0592	0.3161	1807.7637	0.179504	-498.479392	-498.468127	-498.467183	-498.516323	39.92	
O	-0.0796847262	 1.4737234007	-0.0236133891	-0.422915
C	 0.0335943992	 0.0575076416	-0.0318988294	-0.080994
C	-1.3755891475	-0.5204879512	-0.0291589782	-0.195083
C	-1.3916090433	-2.0473144876	 0.0326478208	 0.101544
O	-0.7731343327	-2.5456646655	 1.2200786255	-0.436286
C	-2.8105883026	-2.6135069118	-0.1073884718	 0.119294
O	-3.3436251915	-2.1680932963	-1.3408625036	-0.44612
C	-2.8308924116	-4.1389253849	-0.0564659513	-0.103744
O	-4.1835683457	-4.519472893	-0.3087390542	-0.436341
H	 0.8074396991	 1.8438282919	-0.001837649	 0.28423
H	 0.5737743844	-0.2944351852	-0.9264142692	 0.08422
H	 0.5855470088	-0.3080096919	 0.846248747	 0.092121
H	-1.9230498211	-0.1147942614	 0.8340062813	 0.089732
H	-1.9119141536	-0.1924514603	-0.923785354	 0.136521
H	-0.7876907941	-2.4521321659	-0.789602707	 0.091774
H	-1.2097426329	-2.1270920525	 1.9711263329	 0.280195
H	-3.4234862748	-2.2379286489	 0.7339916801	 0.05841
H	-4.1071940066	-2.7348247909	-1.5102122584	 0.292126
H	-2.1592732984	-4.5346671171	-0.8328178648	 0.093228
H	-2.4829556366	-4.4940023472	 0.9205084046	 0.103665
H	-4.2092453822	-5.4630410925	-0.4881554623	 0.294423
58.2653	85.2495	91.2641	119.59	140.4432	230.142	251.2501	265.3366	276.6258	310.0553	325.2741	372.238	414.0965	457.947	486.5432	565.2184	600.2251	799.4675	895.1379	928.6042	1005.4884	1029.748	1062.306	1075.5738	1082.9486	1110.0429	1116.2034	1128.6399	1198.5202	1208.2227	1244.6855	1250.3276	1262.364	1298.9978	1312.7814	1340.7429	1368.8977	1374.0294	1410.7675	1435.043	1457.8191	1462.9283	1489.0749	1511.3963	1531.6728	2924.8698	2964.6921	2994.9894	3006.8055	3015.9741	3039.1344	3061.0404	3104.7359	3772.5207	3791.1768	3829.6359	3845.5532
OCCC(O)C(O)CO	OCC[C@@H](O)[C@@H](O)CO	
InChI=1S/C5H12O4/c6-2-1-4(8)5(9)3-7/h4-9H,1-3H2	InChI=1S/C5H12O4/c6-2-1-4(8)5(9)3-7/h4-9H,1-3H2/t4-,5+/m1/s1
