21
gdb 62707	2.75285	1.66267	1.46569	1.2864	80.69	-0.2417	0.078	0.3197	1009.0211	0.183662	-387.074579	-387.066662	-387.065718	-387.106203	32.892	
C	-0.2553274674	 1.5835925741	 0.0632282194	-0.470168
C	 0.0296557919	 0.087740236	 0.0054847682	 0.424308
O	-1.1671140084	-0.6375266276	 0.2894816446	-0.483041
C	 0.6018709151	-0.5478201135	-1.258388661	-0.086391
C	 2.1190917748	-0.4327837355	-1.3508648937	-0.046593
C	 2.8746281086	 0.6422811175	-0.5729784933	-0.242313
C	 2.4513103545	 0.3988647678	 0.9033554469	-0.222219
C	 1.2374866221	-0.5367217946	 0.802565098	-0.10078
C	 1.5075199822	-1.4461059747	-0.4318212529	-0.076602
H	 0.6155168216	 2.187498975	-0.2000248652	 0.120703
H	-1.0658526532	 1.8280365282	-0.6305752183	 0.123315
H	-0.5744742037	 1.8824245326	 1.0706469744	 0.101051
H	-1.4888861109	-0.338733006	 1.1472594301	 0.269242
H	 0.0037032882	-0.8027301115	-2.1263379784	 0.082039
H	 2.5258489212	-0.7744978502	-2.2971466471	 0.081284
H	 3.9542215221	 0.5152001381	-0.7032341545	 0.096335
H	 2.6361566027	 1.6541711451	-0.9167976971	 0.100055
H	 3.2567292917	-0.1008029522	 1.4527772735	 0.096856
H	 2.2234579726	 1.3262039776	 1.4384001347	 0.093769
H	 0.938825644	-1.011123411	 1.7383346074	 0.056583
H	 1.6467959502	-2.5178549753	-0.4596683258	 0.082567
186.7887	206.8104	221.8984	257.4528	285.6719	372.7315	380.6895	425.4132	503.4725	609.0611	651.8204	734.6284	767.3265	785.5485	834.5947	844.0422	885.7776	904.8588	928.1546	950.6181	964.3939	983.1903	1016.1266	1035.7223	1060.559	1065.232	1097.9116	1117.612	1144.1666	1178.2863	1199.8649	1222.003	1233.8481	1245.7162	1264.4895	1292.5712	1315.3091	1344.3391	1396.1449	1400.0924	1406.6227	1479.3712	1488.1732	1496.4952	1512.0634	3019.606	3036.7674	3045.7935	3069.1239	3087.9829	3089.8508	3103.0896	3126.7298	3163.4041	3173.3766	3208.0431	3796.707
CC1(O)C2C3CCC1C23	C[C@@]1(O)[C@H]2[C@H]3CC[C@@H]1[C@@H]23	
InChI=1S/C8H12O/c1-8(9)5-3-2-4-6(5)7(4)8/h4-7,9H,2-3H2,1H3	InChI=1S/C8H12O/c1-8(9)5-3-2-4-6(5)7(4)8/h4-7,9H,2-3H2,1H3/t4-,5+,6-,7-,8-/m0/s1
