18
gdb 65240	2.58849	1.48621	1.1514	3.5205	72.27	-0.2454	-0.0274	0.2179	1108.5177	0.145841	-439.055616	-439.046826	-439.045882	-439.089592	32.415	
C	 0.1426129263	 1.4995703399	-0.6192730212	-0.471728
C	-0.0223437178	 0.0740294808	-0.1432471593	 0.410439
C	 1.0979128636	-0.8758797679	-0.1423314627	-0.214973
O	 0.6604991622	-0.2554149254	 1.0718708052	-0.274644
C	-1.4471064059	-0.4541217254	-0.2072867839	-0.194839
N	-1.6368092836	-1.8596008577	 0.242875889	-0.316721
C	-2.5719203369	-1.4767345136	 1.3384903062	-0.282845
C	-2.3505662203	-0.0040699384	 0.966732225	 0.408833
O	-2.7162055635	 1.0495733924	 1.3901158892	-0.28692
H	 1.1681160589	 1.8369922686	-0.4530372075	 0.130263
H	-0.0872991269	 1.5860929558	-1.6869543271	 0.117579
H	-0.5353515784	 2.1618622509	-0.071317175	 0.151433
H	 0.8889023195	-1.940871172	-0.2076168241	 0.122565
H	 2.0714108001	-0.5499821849	-0.5075468381	 0.108168
H	-1.8853363788	-0.2134940099	-1.1860531526	 0.093467
H	-2.0716238759	-2.4418801445	-0.4621050859	 0.227388
H	-3.613208526	-1.8023643088	 1.2214697409	 0.125365
H	-2.2205217365	-1.7614536898	 2.3360171021	 0.147169
60.9213	79.7362	131.6136	207.2957	239.4751	335.4781	346.7482	396.04	422.8132	517.9317	568.0419	643.8108	711.8819	778.3891	815.2127	872.7408	909.1675	931.3683	997.8721	1013.4265	1032.0217	1043.897	1082.2463	1101.8341	1118.1876	1135.2073	1177.5624	1215.5801	1234.5516	1277.1689	1340.235	1381.3642	1393.0133	1414.9718	1464.8127	1481.5933	1498.0887	1516.511	1911.4039	3011.7841	3027.3246	3037.4206	3079.2885	3086.4214	3103.8642	3129.8485	3184.6149	3555.8635
CC1(CO1)C1NCC1=O	C[C@]1(CO1)[C@H]1NCC1=O	
InChI=1S/C6H9NO2/c1-6(3-9-6)5-4(8)2-7-5/h5,7H,2-3H2,1H3	InChI=1S/C6H9NO2/c1-6(3-9-6)5-4(8)2-7-5/h5,7H,2-3H2,1H3/t5-,6-/m0/s1
