17
gdb 10877	2.77499	2.0107	1.7105	3.0238	64.79	-0.2463	0.0669	0.3132	853.4265	0.141969	-400.930583	-400.922917	-400.921973	-400.961996	29.819	
C	 0.0217728973	 1.4314404994	-0.0075919483	-0.524315
C	-0.0138098763	-0.0652561459	 0.0601941922	 0.256368
N	 0.6649118341	-0.9586801478	-0.9821633978	-0.39349
C	 0.0485441288	-1.9262986278	 0.0129019338	-0.141655
C	 0.6570623897	-1.0136428977	 1.1170332064	 0.180879
O	 2.0369202197	-0.9612709943	 1.2641048667	-0.456137
C	-1.2234742745	-1.0280038509	 0.0408288061	 0.09606
O	-2.0719546752	-0.9833474073	 1.1581377184	-0.434902
H	 1.0509959094	 1.7907452935	 0.0889745845	 0.134062
H	-0.3870710528	 1.8019069136	-0.9539498652	 0.118063
H	-0.5697189853	 1.8575337089	 0.8087727555	 0.13772
H	 0.1268299906	-0.9526060119	-1.8550898745	 0.206275
H	 0.1344998813	-3.0065676963	-0.1152795221	 0.078199
H	 0.1924082262	-1.0528867174	 2.0994477644	 0.101389
H	 2.3843714114	-0.9402208437	 0.3599398849	 0.288567
H	-1.7794315326	-1.0243761481	-0.9086542914	 0.063902
H	-2.6790437416	-1.7286948061	 1.1131741864	 0.289015
183.36	192.8436	209.444	242.749	260.7557	360.2723	372.2455	457.2172	591.8136	595.0123	651.6803	674.5182	785.5318	807.1944	872.7323	891.3525	913.7251	964.2495	1042.2119	1104.7294	1109.9179	1128.2292	1139.6319	1177.2727	1188.4243	1207.4853	1239.8776	1277.8089	1288.2003	1335.7751	1342.636	1405.0082	1427.5418	1470.5997	1484.4335	1487.1118	2994.4182	3033.708	3101.9545	3104.3604	3113.3993	3157.6874	3380.4013	3726.9146	3820.5484
CC12NC(C1O)C2O	C[C@@]12N[C@@H]([C@H]1O)[C@H]2O	
InChI=1S/C5H9NO2/c1-5-3(7)2(6-5)4(5)8/h2-4,6-8H,1H3	InChI=1S/C5H9NO2/c1-5-3(7)2(6-5)4(5)8/h2-4,6-8H,1H3/t2-,3-,4-,5+/m1/s1
