21
gdb 83350	2.13433	1.96154	1.56216	1.3624	81.27	-0.2364	0.0223	0.2587	994.529	0.184058	-387.102025	-387.093917	-387.092972	-387.133828	33.404	
C	-0.1432976193	 1.5343426925	 0.0336969494	-0.438378
C	 0.0502371013	 0.0216465264	 0.0144849446	 0.020196
C	 1.0701450318	-0.5825956819	-0.9925958022	-0.080432
C	 2.4256118887	-0.0043137348	-0.4538833546	-0.208745
C	 2.2166142504	-0.0242520751	 1.0869035998	-0.26853
C	 0.7713180096	-0.6129117057	 1.2330515891	 0.391669
O	 0.1310730197	-0.3612017221	 2.4596034649	-0.513038
C	 0.8612079099	-2.0608802831	 0.7643941389	-0.145607
C	 1.0364137583	-2.0404231228	-0.5599113214	-0.083694
H	 0.7954734651	 2.0898796659	 0.1054735994	 0.113665
H	-0.6544037836	 1.8658469179	-0.8764726245	 0.11003
H	-0.7629586867	 1.8189389109	 0.8895817539	 0.131388
H	-0.9235938031	-0.4619121768	-0.1094777672	 0.074758
H	 0.8909582209	-0.3918289592	-2.0516654556	 0.056908
H	 3.2751201008	-0.6110431818	-0.7754823653	 0.096277
H	 2.5919564424	 1.0119502333	-0.8222827043	 0.098496
H	 2.954773741	-0.6388920471	 1.610198703	 0.0877
H	 2.2496031928	 0.9795888107	 1.5203445473	 0.101127
H	 0.7131444012	-0.6472941422	 3.1706415706	 0.276147
H	 0.8719318304	-2.9139245413	 1.4328436903	 0.087746
H	 1.2285972785	-2.8825354137	-1.2138410758	 0.092316
165.1813	204.9981	224.6447	250.9253	282.9346	352.5993	383.7779	405.8751	506.0618	554.6966	625.7733	676.7697	706.3963	747.6318	774.4254	824.37	853.1058	897.4453	926.547	946.6284	967.9699	977.0267	1006.0741	1046.082	1070.9835	1100.6679	1110.882	1125.1819	1158.6984	1185.5389	1221.6773	1238.8639	1258.7639	1281.7645	1306.0018	1307.6672	1351.4282	1367.8466	1400.0246	1408.8178	1482.3684	1493.7273	1507.3191	1513.6151	1644.5902	3039.8486	3049.8122	3059.0468	3062.286	3089.3907	3101.3241	3103.0906	3107.077	3120.064	3186.5198	3212.7861	3816.3958
CC1C2CCC1(O)C=C2	C[C@H]1[C@H]2CC[C@]1(O)C=C2	
InChI=1S/C8H12O/c1-6-7-2-4-8(6,9)5-3-7/h2,4,6-7,9H,3,5H2,1H3	InChI=1S/C8H12O/c1-6-7-2-4-8(6,9)5-3-7/h2,4,6-7,9H,3,5H2,1H3/t6-,7+,8+/m0/s1
