20
gdb 15987	3.61634	1.49098	1.20921	1.6506	75.38	-0.2388	0.0763	0.3151	1076.8973	0.176494	-348.975551	-348.967166	-348.966222	-349.008537	31.27	
C	 0.2245044011	 1.5411420492	 0.1154391213	-0.383508
C	-0.0174294833	 0.0314450555	 0.0215507828	-0.187155
C	 0.4923821562	-0.5502570939	-1.2862120696	 0.088904
O	 1.9315380973	-0.402877934	-1.4334813174	-0.300975
C	 2.1200637081	-1.8225436973	-1.6158927806	-0.134757
C	 0.6291975759	-2.0691995793	-1.4219266092	 0.2923
C	-0.0420086672	-3.1503421638	-0.6321145761	-0.322414
C	-0.2630253721	-3.0411222042	-2.1254448083	-0.326582
H	 1.2906689681	 1.7610468566	 0.0123207998	 0.138392
H	-0.3075238708	 2.0781950225	-0.6777809394	 0.112085
H	-0.1168639516	 1.9382331308	 1.075935519	 0.109605
H	 0.4783099998	-0.4840528754	 0.8525266878	 0.098695
H	-1.0909171549	-0.1866921346	 0.1047746476	 0.090806
H	-0.0243856667	-0.0768522084	-2.1358350966	 0.067759
H	 2.5153032273	-2.0584637351	-2.6134697809	 0.097954
H	 2.7884050627	-2.2500820846	-0.8566729642	 0.099756
H	 0.5720262405	-3.9658995319	-0.2625521051	 0.114141
H	-0.8589032029	-2.8757756097	 0.0273863337	 0.116815
H	-1.2290097949	-2.6882021284	-2.4738495728	 0.114405
H	 0.1969160773	-3.7845948041	-2.7691884617	 0.113776
81.5838	100.5316	152.5287	217.8479	252.5494	270.8405	335.7811	441.3047	486.5661	568.5191	760.7871	773.5824	832.6169	864.9934	891.2314	927.3733	943.9161	954.7333	994.014	1024.3368	1052.7059	1065.4626	1076.3636	1099.2993	1108.0826	1150.8784	1165.0579	1187.5837	1248.5929	1273.1336	1290.2821	1319.6652	1346.6322	1395.6536	1407.765	1418.8827	1464.4399	1475.8061	1497.3083	1509.1578	1509.8475	1525.8925	2975.7796	2997.7233	3017.8926	3036.1158	3036.8068	3062.7529	3102.6264	3120.1403	3120.5039	3125.7464	3198.0583	3213.5752
CCC1OCC11CC1	CC[C@H]1OCC21CC2	
InChI=1S/C7H12O/c1-2-6-7(3-4-7)5-8-6/h6H,2-5H2,1H3	InChI=1S/C7H12O/c1-2-6-7(3-4-7)5-8-6/h6H,2-5H2,1H3/t6-/m1/s1
