14
gdb 33818	2.29344	1.60655	1.11292	4.132	75.55	-0.2659	-0.0273	0.2386	1075.9022	0.099154	-399.485888	-399.477927	-399.476983	-399.518465	29.826	
C	 0.0123752974	-1.2084386891	 0.0825844907	-0.354249
C	 0.0472271124	-0.0091941887	 0.0101281897	 0.223749
C	 0.0511672136	 1.4042320749	-0.1211817577	 0.170922
C	-0.7596006354	 2.2823177293	-1.0944332621	-0.301971
C	 0.4172635349	 3.3159210217	-1.1010555496	-0.297641
C	 1.1699971998	 2.4028721756	-0.1204341447	 0.210962
O	 0.3396034447	 2.2197299907	 1.0261367137	-0.291933
C	 2.5810704695	 2.2238471903	 0.0176349617	 0.237251
N	 3.728922217	 2.1008032025	 0.0854397098	-0.336845
H	-0.0060698688	-2.2679742147	 0.1580322258	 0.205544
H	-0.9091241522	 1.8071052643	-2.0647458774	 0.133595
H	-1.7153077948	 2.6219716556	-0.6927175364	 0.131003
H	 0.9081669742	 3.390594063	-2.0723415151	 0.136252
H	 0.2086126178	 4.3126676447	-0.7096392684	 0.13336
90.7489	150.3865	173.7933	201.6897	300.6879	439.8116	441.0187	490.5288	553.3842	570.809	631.151	643.9467	656.7268	684.6732	735.464	777.4589	872.0072	939.1187	988.1832	1038.3337	1123.5777	1169.1319	1179.0982	1215.7209	1229.9525	1285.2393	1415.9135	1464.6595	1487.8148	2245.0655	2356.4625	3084.4638	3089.7193	3140.9345	3155.6213	3500.2937
C#CC12CCC1(O2)C#N	C#C[C@]12CC[C@]1(O2)C#N	
InChI=1S/C7H5NO/c1-2-6-3-4-7(6,5-8)9-6/h1H,3-4H2	InChI=1S/C7H5NO/c1-2-6-3-4-7(6,5-8)9-6/h1H,3-4H2/t6-,7-/m0/s1
