17
gdb 54857	2.7462	1.60891	1.48231	3.7709	68.28	-0.2449	0.0452	0.2902	960.1326	0.13789	-455.157616	-455.149899	-455.148955	-455.189814	29.651	
N	-0.3238769369	 1.1795659596	-0.3156577783	-0.539272
C	-0.2149919542	-0.1849916846	-0.1516401121	 0.43037
O	 0.7360906625	-0.8375069086	-0.5228059647	-0.378138
N	-1.300751883	-0.7371596529	 0.5542818435	-0.130581
C	-2.7002100368	-0.7049830617	 0.151255789	-0.077259
C	-2.9963398747	-0.4475080179	-1.3154139477	-0.098014
O	-2.0851894101	-1.2630610437	-2.0372864381	-0.24889
C	-1.7843603228	-2.4220093822	-1.2630872883	-0.103768
C	-1.9225723943	-1.9883597342	 0.1863924626	-0.044544
H	 0.5362973133	 1.6374691256	-0.5735917823	 0.263214
H	-0.918386044	 1.6865111227	 0.3204906346	 0.256951
H	-3.4256990048	-0.4215203653	 0.9080483214	 0.10206
H	-4.0459333098	-0.719021691	-1.5177161952	 0.098026
H	-2.8322832226	 0.5856544616	-1.6353330499	 0.122181
H	-2.4946915881	-3.2397915074	-1.4637579013	 0.094767
H	-0.7743065686	-2.7370261915	-1.5307783885	 0.147662
H	-2.0321830152	-2.7350612785	 0.9663226554	 0.105236
105.676	137.2948	167.0368	258.5818	344.1234	423.3575	439.7189	472.6918	535.0525	578.0062	711.1619	753.424	774.3772	804.6925	857.4054	891.6406	933.0309	985.0534	1002.0381	1024.7621	1047.1636	1107.5952	1119.2701	1123.6265	1138.6679	1226.6293	1256.9646	1259.3577	1310.6664	1351.2624	1351.4018	1396.9895	1431.1533	1495.112	1508.6441	1616.1831	1808.2203	2969.7809	2983.6596	3084.9976	3121.2979	3155.045	3168.705	3586.7109	3708.2789
NC(=O)N1C2COCC12	NC(=O)N1[C@H]2COC[C@@H]12	
InChI=1S/C5H8N2O2/c6-5(8)7-3-1-9-2-4(3)7/h3-4H,1-2H2,(H2,6,8)	InChI=1S/C5H8N2O2/c6-5(8)7-3-1-9-2-4(3)7/h3-4H,1-2H2,(H2,6,8)/t3-,4+,7?
