25
gdb 116450	2.36294	1.22912	0.9407	1.379	88.29	-0.2389	0.078	0.3169	1389.4112	0.230093	-389.50905	-389.499288	-389.498344	-389.543383	37.582	
C	 0.0194002043	 1.6008453979	 0.131671025	-0.392776
C	 0.0014067812	 0.0848580251	-0.1000619954	-0.196131
C	-1.4041214961	-0.5387634522	-0.0937766217	 0.032036
C	-2.2278163898	-0.1416589411	-1.329577193	-0.083138
O	-3.552266622	-0.6443482872	-1.2773986124	-0.247658
C	-3.586688271	-2.0599693665	-1.2160358963	-0.069694
C	-2.8524013107	-2.5878166326	 0.0183246527	-0.220262
C	-1.3956908004	-2.0810775786	 0.0751929815	-0.000593
C	-0.4888906083	-2.8250265966	-0.9202919268	-0.398628
H	 1.0460345474	 1.978829623	 0.1652637602	 0.112074
H	-0.5018210606	 2.1451079582	-0.6619759917	 0.120135
H	-0.4618699468	 1.8603766471	 1.0811205036	 0.116155
H	 0.5059722356	-0.14264918	-1.0478242318	 0.097031
H	 0.6002415812	-0.3993864312	 0.682660155	 0.093278
H	-1.9456057471	-0.1352766014	 0.7744214417	 0.071658
H	-2.3267818378	 0.9449286059	-1.4012733681	 0.10358
H	-1.7254390304	-0.4880109226	-2.2503062439	 0.081969
H	-4.6446750245	-2.3380590838	-1.1895947041	 0.10263
H	-3.1557126919	-2.4878371636	-2.1373003292	 0.084248
H	-3.3915210764	-2.2431746331	 0.9089823393	 0.098261
H	-2.8812860877	-3.6842705691	 0.0250268083	 0.087292
H	-1.0051690701	-2.2936725972	 1.0795515997	 0.065197
H	-0.7764593273	-2.6568950653	-1.9626170146	 0.116676
H	 0.5564776651	-2.5217925066	-0.8152850337	 0.11611
H	-0.536712606	-3.9043034385	-0.7398283141	 0.11055
75.7071	122.2938	169.5482	201.2843	207.6411	230.8876	298.5948	322.483	341.8892	405.5834	428.5935	494.7642	542.0681	627.843	760.2013	782.9751	833.282	866.4864	927.2798	946.3217	971.9489	981.5253	1000.4814	1028.5341	1055.4919	1059.807	1101.7164	1124.4624	1148.3799	1175.7828	1179.4872	1243.8606	1251.9917	1284.607	1304.7152	1331.9037	1337.9891	1354.103	1367.9462	1374.0129	1392.7182	1401.9085	1412.9055	1416.3674	1427.7307	1475.1418	1484.2158	1490.4257	1497.4265	1501.2644	1504.053	1508.4959	1509.752	2948.9663	2961.1395	2994.1929	3005.4555	3013.6442	3026.2924	3033.382	3037.5419	3046.9634	3066.5937	3078.2688	3084.165	3098.2075	3100.2397	3105.6708	3111.3398
CCC1COCCC1C	CC[C@H]1COCC[C@H]1C	
InChI=1S/C8H16O/c1-3-8-6-9-5-4-7(8)2/h7-8H,3-6H2,1-2H3	InChI=1S/C8H16O/c1-3-8-6-9-5-4-7(8)2/h7-8H,3-6H2,1-2H3/t7-,8+/m1/s1
