18
gdb 22850	3.19383	1.218	0.94761	0.4353	72.24	-0.2468	0.0006	0.2474	1216.6614	0.148436	-476.173199	-476.164912	-476.163968	-476.206186	31.418	
O	-0.1393369459	 1.4446261356	-0.2690074576	-0.395933
N	 0.1161761855	 0.0906522941	-0.0035547971	-0.180482
C	-0.9445542124	-0.6186388662	 0.0720326856	 0.370964
C	-0.7379012665	-2.0972955914	 0.2913570294	-0.269996
C	-1.7027386964	-2.732314258	 1.3011857027	-0.091869
O	-3.0394621494	-2.6601526172	 0.8123233901	-0.242419
C	-3.7649342227	-1.5427758938	 1.2491465042	-0.000367
O	-3.0434736158	-0.3416860876	 1.2046128092	-0.238091
C	-2.3605436919	-0.0833964906	-0.0228681328	-0.181843
H	 0.7457164461	 1.8223796837	-0.2431259777	 0.308092
H	-0.892869404	-2.6186579099	-0.663740051	 0.120848
H	 0.3004431127	-2.268581813	 0.5899073431	 0.117335
H	-1.4678525046	-3.7959994333	 1.4067533131	 0.110551
H	-1.6169052267	-2.2605336158	 2.2879638308	 0.112994
H	-4.6514090783	-1.5114558873	 0.5986102511	 0.101373
H	-4.0722681546	-1.639594256	 2.300656047	 0.102231
H	-2.3453804494	 0.996808479	-0.1559749505	 0.143712
H	-2.8882071456	-0.5416466521	-0.8704556795	 0.112899
72.0521	150.426	234.5377	244.3667	308.2427	326.9869	356.2147	387.9763	411.4897	484.8821	559.5371	629.3848	687.2021	798.9312	846.9945	919.9011	946.1463	969.8757	999.0982	1013.8242	1085.1224	1097.1742	1156.3963	1160.7056	1234.9257	1251.9488	1280.6756	1294.723	1319.165	1362.9518	1377.0313	1393.0028	1423.5791	1443.2016	1459.9622	1486.1237	1497.6734	1517.4048	1727.1239	2987.7255	3013.7775	3018.1474	3028.5683	3031.9036	3086.0225	3095.1469	3152.5195	3825.1601
ON=C1CCOCOC1	ON=C1CCOCOC1	
InChI=1S/C5H9NO3/c7-6-5-1-2-8-4-9-3-5/h7H,1-4H2	InChI=1S/C5H9NO3/c7-6-5-1-2-8-4-9-3-5/h7H,1-4H2
