19
gdb 73470	2.83326	1.84666	1.58284	1.1864	73.74	-0.2167	0.083	0.2998	934.382	0.16131	-423.021356	-423.0142	-423.013256	-423.052511	29.273	
C	-0.0323452031	 1.4635609744	-0.0501591132	-0.461979
C	 0.0345344484	-0.0367102604	 0.0230313284	 0.415348
O	-1.1960576317	-0.5987687118	-0.374943551	-0.316878
C	-1.1825537518	-2.0100140278	-0.5937768526	-0.061785
C	 0.0975008639	-2.6235679894	-0.0363115078	 0.025023
C	 0.3249604607	-2.1326707828	 1.4100722716	-0.236145
C	 0.8057520496	-0.7145632976	 1.14621304	-0.182989
C	 1.3198461231	-0.7614557449	-0.2880389639	 0.019638
O	 1.1883376524	-2.0721686248	-0.7866167378	-0.261556
H	 0.9188898548	 1.908339811	 0.2560345783	 0.116361
H	-0.2561905154	 1.7890243444	-1.0707832221	 0.127614
H	-0.8178051902	 1.8442515403	 0.6109627111	 0.126935
H	-2.071516375	-2.4334396565	-0.1082801885	 0.09795
H	-1.2402635858	-2.2170087428	-1.6709915505	 0.10354
H	 0.1102203847	-3.7076187652	-0.1637680521	 0.086487
H	-0.595207777	-2.1820732277	 1.9998147605	 0.110092
H	 1.0974460377	-2.7215490928	 1.9137066468	 0.108061
H	 1.2853492432	-0.1371297251	 1.928216666	 0.084918
H	 2.2075548616	-0.2579108804	-0.6528703733	 0.099364
157.9551	200.0479	241.6008	303.9552	356.199	415.5118	512.3128	556.2231	602.6585	686.851	705.3473	812.2161	835.4357	853.0372	863.0624	908.7435	914.7076	986.7837	1004.773	1016.0886	1037.3235	1067.2375	1089.7789	1109.1533	1120.3483	1140.4278	1185.497	1211.0609	1243.6956	1251.9771	1263.1154	1303.8623	1340.9946	1359.1714	1406.6319	1413.6026	1436.6951	1476.7319	1489.2633	1505.1369	1509.7817	3004.4169	3036.2797	3043.7003	3052.3961	3098.0358	3103.1608	3104.1292	3115.6155	3171.5882	3182.5907
CC12OCC3CC1C2O3	C[C@]12OC[C@@H]3C[C@H]1[C@H]2O3	
InChI=1S/C7H10O2/c1-7-5-2-4(3-8-7)9-6(5)7/h4-6H,2-3H2,1H3	InChI=1S/C7H10O2/c1-7-5-2-4(3-8-7)9-6(5)7/h4-6H,2-3H2,1H3/t4-,5-,6+,7-/m0/s1
