16
gdb 46186	3.25037	1.58328	1.21109	0.6446	69.87	-0.2496	0.0082	0.2578	998.1992	0.124881	-437.803175	-437.796143	-437.795199	-437.834738	27.437	
N	 0.0831773328	 1.2366968127	-0.2577221788	-0.556785
C	 0.0627679904	 0.0093994199	 0.002008443	 0.353344
O	 1.0583575619	-0.8407081674	 0.436849373	-0.263216
C	 0.1466253486	-1.9922156818	 0.4551524126	-0.17604
C	-0.9826875151	-1.079124491	-0.027015798	 0.286847
C	-2.4168984001	-1.0432332262	 0.5466248697	-0.02247
C	-2.8771309562	-0.2338925696	-0.6876539739	-0.239201
C	-1.9879005084	-1.4099909227	-1.1527936426	-0.022478
O	-2.6909893964	-2.3005827695	-0.1946449146	-0.322261
H	 1.0107166121	 1.6379684506	-0.1101414797	 0.231444
H	 0.4801625933	-2.7658861252	-0.2397273246	 0.129535
H	 0.0499149141	-2.3981477602	 1.4643779658	 0.129536
H	-2.7326366281	-0.9873587589	 1.5881499046	 0.106372
H	-3.9341182896	-0.3420871074	-0.931128975	 0.111862
H	-2.4870670585	 0.7778238736	-0.8075295623	 0.147138
H	-1.7883130708	-1.7946796868	-2.1526767392	 0.106371
124.2979	170.0507	174.0879	314.9768	364.4433	451.9978	600.448	634.8973	636.2602	736.8427	788.4943	826.2458	860.3278	881.1062	886.839	925.3499	950.3068	1003.2929	1022.1121	1030.9085	1074.8526	1103.7403	1136.7173	1141.5636	1157.1458	1177.7113	1212.8864	1214.313	1244.9849	1271.948	1316.7212	1387.8411	1483.5349	1511.2052	1817.0127	3069.5303	3082.5139	3123.4333	3128.7692	3129.2162	3169.0593	3478.4947
N=C1OCC11C2CC1O2	[NH][C]1OC[C@]21[C@H]1C[C@@H]2O1	
InChI=1S/C6H7NO2/c7-5-6(2-8-5)3-1-4(6)9-3/h3-4,7H,1-2H2	InChI=1S/C6H7NO2/c7-5-6(2-8-5)3-1-4(6)9-3/h3-4,7H,1-2H2/t3-,4+,6+
