19
gdb 115180	2.24193	1.51738	1.10467	3.1782	70.46	-0.2552	-0.0377	0.2175	1139.0775	0.159708	-460.190834	-460.182245	-460.181301	-460.224106	32.879	
O	 0.5602277615	 0.8716510753	 0.6258503871	-0.427859
C	 0.065670909	-0.4218427334	 0.3629716868	-0.057969
C	-1.3950555951	-0.4088519877	-0.1151844136	-0.074908
C	-1.9174736767	-1.8203412145	-0.5081787133	-0.2451
C	-2.3997028477	-2.4854715006	 0.8045288708	-0.324628
C	-2.5590132646	-1.3270834809	 1.7767034544	 0.380563
O	-2.7144388437	-1.3648632693	 2.9732550193	-0.332133
C	-2.3670087649	-0.0166543027	 1.0157513918	 0.044008
O	-1.947315259	 1.0135923077	 1.8805912807	-0.444304
H	-0.0533347326	 1.263531145	 1.2623448213	 0.292583
H	 0.6971624121	-0.8474533235	-0.4253107147	 0.104887
H	 0.1695581629	-1.0827321227	 1.2432585023	 0.08037
H	-1.4616022926	 0.28752506	-0.9551522642	 0.091384
H	-2.750616022	-1.721460318	-1.2103794454	 0.113142
H	-1.1458443255	-2.4079892688	-1.0116478003	 0.115323
H	-3.3395248407	-3.036599464	 0.7016759126	 0.139457
H	-1.6726176625	-3.1871746908	 1.2250522295	 0.146948
H	-3.3441066383	 0.2380713324	 0.5652290944	 0.10083
H	-2.1445864298	 0.6924288366	 2.7760094706	 0.297407
84.9968	115.3	169.6768	228.9023	279.99	293.1526	384.1625	428.9997	477.3229	510.2973	594.2181	609.2576	624.8651	703.5409	719.0904	818.6846	884.3349	923.1709	968.8877	1015.4079	1029.1984	1037.9464	1095.1	1127.5125	1173.549	1184.6744	1196.6376	1217.9304	1246.3957	1274.8386	1294.5678	1328.7714	1358.6668	1375.1039	1409.5878	1418.1022	1448.7347	1460.5939	1497.6993	1506.954	1835.6838	2934.7083	2938.0679	3054.3695	3055.9148	3062.2577	3081.065	3092.8749	3109.3227	3676.5804	3746.2508
OCC1CCC(=O)C1O	OC[C@H]1CCC(=O)[C@H]1O	
InChI=1S/C6H10O3/c7-3-4-1-2-5(8)6(4)9/h4,6-7,9H,1-3H2	InChI=1S/C6H10O3/c7-3-4-1-2-5(8)6(4)9/h4,6-7,9H,1-3H2/t4-,6+/m1/s1
