20
gdb 91578	2.74134	1.26276	1.08534	3.5674	80.4	-0.2386	0.0283	0.2669	1204.3436	0.170857	-403.149051	-403.140088	-403.139144	-403.183291	33.657	
C	-0.1455873679	 1.5689097341	-0.1718566609	-0.408347
C	 0.0624196539	 0.0611190331	-0.1253846048	-0.021672
C	 1.2525191644	-0.5937083936	-0.9152301608	-0.250232
C	 1.7318766705	-1.269345868	 0.3753616227	-0.130796
C	 2.0427656493	-0.2206116904	 1.4063435119	-0.285422
C	 0.6089365491	-0.5799012978	 1.1645470625	 0.403513
N	-0.2018056953	-1.0944247578	 2.2115590695	-0.394215
C	-0.3667047391	-0.5038601337	 3.4345073487	 0.133084
O	 0.1928783043	 0.496309662	 3.8213052412	-0.311783
H	 0.7679580551	 2.1096367749	 0.0941141206	 0.12118
H	-0.4456848654	 1.8936204039	-1.1742927087	 0.111922
H	-0.9280805449	 1.8773228424	 0.5294989469	 0.125026
H	-0.8685926118	-0.4454826484	-0.4053580282	 0.06537
H	 0.9182016014	-1.2887242051	-1.6883490779	 0.100858
H	 1.9658357592	 0.1074265351	-1.3609883379	 0.099662
H	 2.0965614249	-2.2855480172	 0.4647439628	 0.089538
H	 2.4376014823	-0.5870508288	 2.3465824158	 0.128409
H	 2.4275682239	 0.752331931	 1.1131755081	 0.11233
H	-0.7950247426	-1.8851162385	 2.006403427	 0.242687
H	-1.0860410912	-1.0752246571	 4.0573841615	 0.068887
33.7335	122.3356	179.9032	196.5137	222.326	265.9004	323.4562	398.1175	443.1346	495.3857	548.3408	611.5152	677.9943	804.1227	817.266	847.1976	874.0818	939.3478	947.8761	979.1015	1021.8791	1026.5492	1031.9993	1082.0393	1093.025	1110.3179	1141.0882	1152.4235	1199.3388	1222.2198	1238.8091	1265.0191	1292.782	1364.0982	1399.0962	1413.3702	1438.9457	1484.3071	1492.0549	1496.646	1504.7598	1516.8833	1815.7805	2917.0537	3030.4381	3033.3959	3048.1365	3096.4033	3104.2801	3108.5274	3124.0056	3184.4232	3220.3637	3599.3806
CC1CC2CC12NC=O	C[C@H]1C[C@H]2C[C@@]12NC=O	
InChI=1S/C7H11NO/c1-5-2-6-3-7(5,6)8-4-9/h4-6H,2-3H2,1H3,(H,8,9)	InChI=1S/C7H11NO/c1-5-2-6-3-7(5,6)8-4-9/h4-6H,2-3H2,1H3,(H,8,9)/t5-,6-,7+/m0/s1
