21
gdb 87557	2.67634	1.43547	1.20005	1.3242	83.31	-0.2187	0.0785	0.2972	1143.8861	0.182236	-383.190399	-383.181652	-383.180708	-383.223307	34.197	
C	-0.0047770202	 1.6284953313	-0.1011172964	-0.410031
C	 0.0521823463	 0.1103357727	-0.0061101198	-0.074336
C	 1.0619038546	-0.6360225054	-0.9032331059	-0.057556
N	 2.4177070094	-0.2153443366	-0.4740743446	-0.337839
C	 1.7023018109	-1.2887434263	 0.2705409857	-0.165111
C	 0.7593930132	-0.5668752412	 1.2100585533	 0.406804
C	 0.9930823519	-0.0565786802	 2.580200382	-0.311949
N	 0.1284647958	-1.2192427701	 2.3420466317	-0.150507
C	-1.300150929	-1.0241101551	 2.5410774501	-0.317269
H	 0.9999519469	 2.0498812144	-0.0170187309	 0.14027
H	-0.4326910755	 1.9441144219	-1.0594771815	 0.109046
H	-0.6260427612	 2.0552280522	 0.6935857185	 0.109994
H	-0.944309359	-0.3283893401	-0.1332185387	 0.078327
H	 0.8879568259	-1.0197282268	-1.9009746559	 0.090721
H	 3.0822695862	-0.6778353944	-1.0945687367	 0.227664
H	 2.1216011928	-2.2799463543	 0.3885798884	 0.097714
H	 1.9292124881	-0.2531687616	 3.0963478882	 0.113283
H	 0.5117583443	 0.8834399211	 2.8498744111	 0.104016
H	-1.657625375	-0.015489128	 2.2767286469	 0.102767
H	-1.8566101787	-1.7522581014	 1.9412696787	 0.120556
H	-1.5379652876	-1.2025994821	 3.5944187557	 0.123437
110.8498	163.8915	194.8896	219.9649	230.786	244.8968	316.7771	390.2971	438.9627	525.6076	564.2256	589.4787	725.	803.5867	827.0196	836.1914	860.4497	884.59	921.0642	929.4729	1010.1845	1037.3077	1057.1109	1075.8244	1101.5603	1108.7723	1113.486	1126.3294	1150.8692	1163.0386	1193.826	1206.6372	1224.5407	1291.9022	1310.6332	1353.8145	1365.2946	1401.8407	1435.4041	1448.8312	1490.3587	1492.5462	1497.6316	1502.7592	1516.6246	2970.7117	3030.41	3044.4867	3064.2097	3085.5363	3090.3748	3099.5179	3125.1389	3173.6445	3184.9107	3200.8067	3467.5497
CC1C2NC2C11CN1C	C[C@H]1[C@H]2N[C@H]2[C@]21CN2C	
InChI=1S/C7H12N2/c1-4-5-6(8-5)7(4)3-9(7)2/h4-6,8H,3H2,1-2H3	InChI=1S/C7H12N2/c1-4-5-6(8-5)7(4)3-9(7)2/h4-6,8H,3H2,1-2H3/t4-,5+,6+,7+,9?/m0/s1
