18
gdb 127606	2.563	0.90581	0.6832	5.8553	82.56	-0.2093	-0.078	0.1314	1636.575	0.142961	-435.25746	-435.245678	-435.244734	-435.297382	38.281	
C	-0.5462131242	 0.9203238242	 0.1244832889	-0.346005
N	-0.0760747169	-0.4336407584	-0.0547922129	-0.085763
N	 0.2902433239	-0.8580651645	-1.289583701	-0.17735
C	 0.8827483085	-2.0150169107	-1.1992069418	-0.117407
C	 0.9951992929	-2.4543140946	 0.198554703	 0.255158
O	 1.474621699	-3.4607360017	 0.6798078171	-0.335865
C	 0.3416377021	-1.3093449718	 0.9377789131	 0.310754
C	 0.210339934	-1.201621606	 2.2638869244	-0.411881
N	-2.1521897682	 1.3220217524	 3.4617359291	-0.700386
H	-3.1145059017	 1.0637647345	 3.2592158536	 0.2479
H	-1.9753624613	 1.007461238	 4.4124133628	 0.247727
H	-2.1360677495	 2.3379947488	 3.497428972	 0.24656
H	 0.280850839	 1.6161370946	 0.3205852626	 0.126978
H	-1.0563291234	 1.2252059404	-0.7904767245	 0.147074
H	-1.2385771339	 0.9590633148	 0.969786918	 0.166119
H	 1.2252269295	-2.5361298098	-2.0805579126	 0.131647
H	 0.6046056304	-2.0061674562	 2.8745337668	 0.140212
H	-0.2831298206	-0.3631764641	 2.7434404914	 0.154527
24.2593	36.2619	47.0927	86.932	112.1377	141.009	166.1201	190.5383	197.9367	285.301	315.3123	355.9289	542.2275	545.5986	573.3623	737.6455	757.9957	776.9161	788.7651	859.0193	872.5118	946.7591	1010.3116	1110.3603	1117.0746	1154.2638	1184.6202	1247.5329	1321.7285	1409.18	1436.931	1470.1851	1489.7156	1515.44	1543.5909	1678.7092	1680.0322	1693.3873	1793.9448	3010.9594	3094.1453	3147.6664	3150.1231	3250.8788	3251.6948	3465.9536	3581.5532	3583.196
CN1N=CC([O-])=C1C[NH3+]	CN1N=CC(=O)C1=C.N	
InChI=1S/C5H9N3O/c1-8-4(2-6)5(9)3-7-8/h3,9H,2,6H2,1H3	InChI=1S/C5H6N2O.H3N/c1-4-5(8)3-6-7(4)2;/h3H,1H2,2H3;1H3
