16
gdb 50928	2.0527	1.21393	0.8069	4.7115	71.53	-0.2974	-0.0174	0.28	1367.7816	0.122482	-437.895744	-437.88665	-437.885706	-437.931614	31.283	
O	-0.1224474462	 0.2073343859	-0.3813317038	-0.254503
C	-0.0374117144	 1.3821652273	-0.2138782435	 0.176094
O	 1.1363557147	 1.9883298553	 0.0905865263	-0.177406
C	 1.1350211811	 3.4127313152	 0.2580117156	-0.069443
C	 1.2695557119	 3.7202514498	 1.6938802169	 0.296841
N	 1.3753295498	 3.983215146	 2.8132574062	-0.306527
C	 2.2552662012	 4.0176216285	-0.5527975895	 0.022904
C	 2.0168860872	 4.3342572264	-2.0058555245	-0.280247
C	 2.1449848335	 5.451969411	-1.0043787378	-0.263375
H	-0.8807283795	 2.0956321767	-0.2933416911	 0.088469
H	 0.1738651796	 3.8232487079	-0.0830112739	 0.127317
H	 3.2373658527	 3.6549865253	-0.2699229001	 0.123263
H	 2.8318894181	 4.1571581263	-2.6974310301	 0.134204
H	 1.0340079803	 4.1299532052	-2.4179145272	 0.121257
H	 1.2493994906	 6.0037417668	-0.7387109588	 0.126779
H	 3.0487232495	 6.0492563361	-0.9994760546	 0.134372
21.6625	70.6208	136.6346	139.8242	164.0428	248.993	331.928	360.055	426.1816	512.996	533.9892	703.9045	773.3139	836.845	882.8625	924.8192	954.2201	1013.7217	1034.9856	1042.2037	1066.8369	1087.9502	1131.3062	1148.4587	1194.6828	1204.6749	1226.1808	1291.1915	1349.1629	1412.5628	1438.3645	1472.7218	1506.899	1880.9024	2365.8731	2949.3122	3012.0525	3137.7959	3142.7702	3176.49	3219.621	3233.6703
O=COC(C#N)C1CC1	O=CO[C@@H](C#N)C1CC1	
InChI=1S/C6H7NO2/c7-3-6(9-4-8)5-1-2-5/h4-6H,1-2H2	InChI=1S/C6H7NO2/c7-3-6(9-4-8)5-1-2-5/h4-6H,1-2H2/t6-/m0/s1
