20
gdb 41099	2.92695	1.89548	1.76566	1.5366	81.27	-0.1943	0.0684	0.2627	903.6786	0.173376	-365.904362	-365.897651	-365.896707	-365.934866	28.879	
C	-0.0035865802	 1.4271052447	 0.0995168792	-0.162225
C	 1.5371201256	 1.5032614097	-0.027055594	-0.127274
C	 2.0216570628	 1.3626696463	-1.5089578521	-0.306909
C	 1.6190619024	-0.1405744525	-1.4616041533	 0.250034
C	 2.6560620382	-1.2919225409	-1.3013525775	-0.306756
C	 2.4300377007	-1.2403827851	 0.2624401083	-0.35695
C	 1.4656056057	-0.0545942316	 0.0511739977	 0.34642
N	-0.0630579814	-0.0743133897	-0.0331942521	-0.198493
C	 0.0989182693	-0.4334057713	-1.500273835	-0.23909
H	-0.3413660597	 1.7069854256	 1.1020816735	 0.107746
H	-0.6022841102	 1.9704442255	-0.6405535965	 0.09433
H	 2.0659592838	 2.1776407088	 0.6485241027	 0.065806
H	 1.5441822898	 2.0045313222	-2.2573727232	 0.093567
H	 3.1064136693	 1.4839272833	-1.5938565546	 0.101381
H	 2.3900905085	-2.2383456153	-1.780329636	 0.103669
H	 3.6696962219	-1.0250674865	-1.6130041099	 0.103157
H	 1.9363162885	-2.1215097554	 0.6804195441	 0.120974
H	 3.3175461981	-1.0297418497	 0.8647502317	 0.109616
H	-0.5273273953	 0.1546597192	-2.1815345934	 0.097353
H	-0.1310881176	-1.4933024374	-1.6498421998	 0.103645
179.736	261.1365	294.3076	361.1142	424.0989	470.5504	549.3611	655.6103	686.2162	698.6857	782.8872	801.0104	812.7415	832.5106	884.6919	898.9867	916.0821	938.369	958.5241	989.1383	994.722	1013.7294	1087.9131	1130.2803	1139.3874	1159.3034	1180.3581	1197.4594	1218.0655	1222.6988	1235.3969	1243.3745	1262.6161	1266.3299	1272.8693	1301.4751	1312.035	1318.7633	1458.9002	1469.9973	1480.0267	1486.1824	1503.726	3023.3271	3030.0143	3033.6844	3050.4143	3060.3007	3077.928	3081.6781	3084.6048	3093.136	3098.7794	3118.0422
C1C2CC34CCC23N1C4	C1[C@@H]2C[C@@]34CC[C@@]23N1C4	
InChI=1S/C8H11N/c1-2-8-6-3-7(1,8)5-9(8)4-6/h6H,1-5H2	InChI=1S/C8H11N/c1-2-8-6-3-7(1,8)5-9(8)4-6/h6H,1-5H2/t6-,7+,8+/m0/s1
