15
gdb 24904	4.95007	1.31376	1.0464	2.9169	73.67	-0.1876	0.0113	0.1989	1068.1256	0.116593	-413.028006	-413.021011	-413.020067	-413.059385	27.26	
N	-0.0715056293	 1.2456966741	-0.0765489864	-0.539655
C	 0.0037804069	-0.0190840955	 0.012385117	 0.382946
C	-1.2597993665	-0.926234276	 0.0278429958	-0.420485
C	-0.6240546173	-2.2745030311	-0.0405625987	 0.261367
C	 0.7315750211	-2.1776142995	 0.002457068	 0.357125
N	 1.139059656	-0.838800803	 0.1130256011	-0.444246
N	 1.3620729098	-3.3791154359	 0.0085104007	-0.356786
C	 0.3554845704	-4.2435185755	-0.0313642616	-0.012254
N	-0.869962695	-3.6293111818	-0.046520496	-0.376607
H	 0.8529247305	 1.6801926791	-0.0693301844	 0.206329
H	-1.8282831874	-0.739373448	 0.9468199082	 0.143566
H	-1.9084823034	-0.6575720916	-0.8119864237	 0.143385
H	 2.0464250878	-0.5106831201	-0.1761385183	 0.253961
H	 0.4552181895	-5.3173878207	-0.0582891364	 0.13224
H	-1.7609172833	-4.0940944344	-0.0877111452	 0.269114
106.4007	164.3978	304.3114	337.356	366.543	494.1784	530.3636	545.3012	561.0301	655.9101	733.0269	739.4377	758.0552	827.568	847.8224	856.0371	967.0091	972.2259	1073.0469	1099.2434	1148.3269	1158.8386	1222.4932	1267.2567	1294.2552	1319.4748	1382.5458	1442.4241	1457.0815	1467.8501	1542.9482	1638.0301	1748.149	3037.1181	3074.8342	3263.627	3456.9434	3644.0478	3672.9102
N=C1CC2=C(N1)N=CN2	[NH][C]1Cc2c(N1)nc[nH]2	
InChI=1S/C5H6N4/c6-4-1-3-5(9-4)8-2-7-3/h2H,1H2,(H2,6,9)(H,7,8)	InChI=1S/C5H6N4/c6-4-1-3-5(9-4)8-2-7-3/h2H,1H2,(H2,6,9)(H,7,8)
