19
gdb 39642	4.42566	0.93395	0.87856	2.0647	78.45	-0.2319	0.0097	0.2416	1354.2191	0.160136	-422.999013	-422.990663	-422.989719	-423.033514	29.846	
C	-0.0133822375	 1.4914855065	-0.1664563867	-0.086702
O	 1.3908342047	 1.5984357706	 0.129541135	-0.269446
C	 1.4659598324	 0.2109503141	 0.5038674868	-0.08671
C	 0.0060464865	-0.0502402397	 0.0361474031	-0.153637
C	-0.9625336092	-0.6766517625	 0.9769059417	 0.316132
C	-1.7605413742	-1.7182599033	 0.7472312606	-0.226219
C	-2.5815676378	-2.0307162032	 1.9622682104	-0.101809
O	-2.187235162	-1.0663420393	 2.9349998086	-0.264316
C	-1.1943047706	-0.2024673856	 2.395079533	-0.158208
H	-0.6296781452	 2.0436540739	 0.5552924072	 0.102879
H	-0.252776642	 1.8408412408	-1.1771783379	 0.107971
H	 2.2495653518	-0.3252126008	-0.0433147749	 0.10797
H	 1.6347201399	 0.0835863426	 1.5813317261	 0.10288
H	-0.0189328651	-0.5790668821	-0.9189488059	 0.084964
H	-1.8293319239	-2.2806996235	-0.1760769483	 0.100463
H	-3.6642321148	-1.9505407701	 1.7728947537	 0.105675
H	-2.3978513943	-3.0470816807	 2.3466000572	 0.105667
H	-0.2814550529	-0.2543003327	 3.0097702859	 0.106217
H	-1.5457674258	 0.8408612551	 2.4369949846	 0.106229
52.714	58.7696	96.2585	161.3145	220.5055	323.5552	378.5377	521.361	572.2347	764.75	815.3441	825.2144	886.0254	895.0826	922.0117	944.1123	973.3269	997.475	1019.9256	1033.4247	1045.8608	1065.4698	1101.5333	1119.7811	1160.769	1166.1747	1176.3137	1221.6669	1227.6892	1256.1504	1297.3231	1309.0065	1351.9914	1372.045	1391.0803	1398.1484	1514.097	1516.4495	1529.1883	1541.0441	1721.745	2965.5485	2973.3127	2981.7281	2984.3478	3008.5045	3018.9472	3056.6377	3060.2668	3088.5933	3208.3073
C1OCC1C1=CCOC1	C1OCC1C1=CCOC1	
InChI=1S/C7H10O2/c1-2-8-3-6(1)7-4-9-5-7/h1,7H,2-5H2	InChI=1S/C7H10O2/c1-2-8-3-6(1)7-4-9-5-7/h1,7H,2-5H2
