17
gdb 51668	4.18913	0.97366	0.91854	3.6889	69.13	-0.2469	-0.0215	0.2254	1276.1291	0.134835	-458.920621	-458.912551	-458.911606	-458.954468	29.1	
O	-0.2330969236	 0.2486600729	 0.1283801157	-0.241457
C	 0.0766371804	 1.4109515101	 0.0611695267	 0.153835
C	 1.4723588466	 1.906095783	-0.2559913221	-0.298411
C	 1.4867314575	 2.8865946411	-1.4202239159	 0.099859
O	 0.595449053	 4.0280987657	-1.2329763207	-0.317861
C	 1.6550399866	 4.9670470085	-1.4909513677	 0.073102
C	 2.4003562937	 5.3910724752	-0.2195912983	-0.095417
O	 3.2751483865	 4.2315730861	-0.3138328899	-0.28752
C	 2.6966684875	 3.8335746446	-1.5678291074	 0.039753
H	-0.6653234046	 2.2181259405	 0.2402484342	 0.096887
H	 1.8697897	 2.4245939627	 0.6259976906	 0.136667
H	 2.1118125901	 1.045164822	-0.473422138	 0.123801
H	 1.2406283739	 2.3811492487	-2.3642003992	 0.093249
H	 1.4042783306	 5.7027847564	-2.2558608624	 0.097458
H	 2.9746053607	 6.3216706921	-0.3052959073	 0.112063
H	 1.7994642541	 5.3980175691	 0.6952328663	 0.119205
H	 3.439478517	 3.6430422414	-2.3435587447	 0.094787
56.3152	74.2992	133.1019	169.487	261.3162	386.8659	433.9179	465.036	563.7575	703.3976	796.0467	804.8733	850.3273	880.0807	923.7079	950.2747	983.6116	1001.4434	1033.4528	1066.1826	1078.8631	1101.4484	1117.3771	1165.3229	1195.4166	1213.3047	1232.0011	1258.3163	1293.1662	1305.5403	1346.2299	1356.6822	1378.8843	1423.2364	1458.4374	1502.2765	1829.7311	2910.0518	3012.4834	3025.2976	3036.6648	3089.7339	3100.8663	3103.3576	3113.6208
O=CCC1OC2COC12	O=CC[C@H]1O[C@H]2CO[C@@H]12	
InChI=1S/C6H8O3/c7-2-1-4-6-5(9-4)3-8-6/h2,4-6H,1,3H2	InChI=1S/C6H8O3/c7-2-1-4-6-5(9-4)3-8-6/h2,4-6H,1,3H2/t4-,5+,6+/m1/s1
