16
gdb 55223	3.06714	1.28784	1.03031	2.462	64.77	-0.2589	-0.0331	0.2258	1140.8041	0.124064	-475.093095	-475.08459	-475.083646	-475.127374	30.28	
C	 0.4274053815	 0.3021412028	 0.9332018435	-0.478483
C	-0.1501045989	 0.2467561212	-0.459814251	 0.355053
O	 0.351604749	 0.7900723275	-1.415260354	-0.291235
C	-1.4820714141	-0.511037588	-0.641413008	 0.00425
C	-1.5350103252	-1.3185277837	-1.953535687	-0.198193
N	-1.2224585115	-2.6364977433	-1.434799433	-0.364667
C	-1.4892913257	-2.7407362159	-0.0904522478	 0.475998
O	-1.5327432365	-3.7226007553	 0.593339379	-0.384273
O	-1.6947673697	-1.4688426206	 0.4001146194	-0.246367
H	 1.2878778648	 0.971380372	 0.9447475219	 0.144203
H	-0.3291630682	 0.6345411557	 1.6516157673	 0.151102
H	 0.7272530619	-0.7014205681	 1.2523397128	 0.166745
H	-2.2824852155	 0.2346198753	-0.584869669	 0.129755
H	-2.5270549355	-1.275012536	-2.4206682255	 0.116253
H	-0.7892163479	-0.9468238725	-2.6589708965	 0.151997
H	-1.2941390985	-3.4716276212	-1.9918938621	 0.267861
43.0086	76.9206	140.7573	153.2664	251.9262	320.1911	419.3344	455.302	498.0801	534.4702	587.5354	734.382	745.245	766.6789	788.7753	919.9578	947.9076	978.4452	1009.3879	1065.3086	1092.0841	1111.8663	1197.4089	1219.4024	1226.5419	1288.2356	1341.4773	1374.8441	1388.0576	1431.8537	1453.5118	1468.379	1538.7218	1816.5028	1901.0777	3019.9582	3047.3019	3059.137	3108.4344	3111.0452	3160.5568	3664.3446
CC(=O)C1CNC(=O)O1	CC(=O)[C@H]1CNC(=O)O1	
InChI=1S/C5H7NO3/c1-3(7)4-2-6-5(8)9-4/h4H,2H2,1H3,(H,6,8)	InChI=1S/C5H7NO3/c1-3(7)4-2-6-5(8)9-4/h4H,2H2,1H3,(H,6,8)/t4-/m1/s1
