20
gdb 101920	1.93458	1.31967	0.94929	3.4085	75.51	-0.2452	0.0278	0.273	1320.0751	0.169079	-440.300079	-440.289679	-440.288735	-440.336751	36.5	
C	-0.0601449953	 1.6069484203	-0.1308496844	-0.392466
C	 0.0137694105	 0.0774257432	-0.1381950383	-0.176095
C	-1.3580747796	-0.624356333	-0.0193812345	-0.137417
C	-2.2582314715	-0.3346987405	-1.2076542187	 0.108365
C	-3.7200260627	-0.2904863068	-1.0875535774	-0.183219
O	-2.9553203003	 0.9121466017	-1.2054362089	-0.242485
C	-1.1355750187	-2.138023342	 0.0431813104	 0.416293
N	-1.4741997191	-2.7373624254	 1.2212763663	-0.530398
O	-0.6894554759	-2.7604076042	-0.9026758806	-0.37673
H	 0.9447086559	 2.0359777536	-0.1949138905	 0.110948
H	-0.6483032311	 1.9896949321	-0.9681150053	 0.143174
H	-0.5235760651	 1.9778382049	 0.7899308528	 0.111768
H	 0.4963234012	-0.2815541307	-1.0539084628	 0.123282
H	 0.6476751588	-0.2617153751	 0.6908955275	 0.094679
H	-1.8688538934	-0.2700308821	 0.8848029684	 0.068368
H	-1.8337452472	-0.6185582053	-2.1699049911	 0.114042
H	-4.3426029765	-0.536369555	-1.9460682137	 0.119312
H	-4.1863492951	-0.4525198491	-0.1160937243	 0.10776
H	-1.7671165414	-2.2130374158	 2.0262415409	 0.259537
H	-1.2804395236	-3.7203909807	 1.3269806843	 0.261284
28.9892	73.4766	90.8164	158.4502	167.7007	187.753	201.5819	276.3171	331.6694	367.0422	410.5292	487.9796	585.7221	627.4309	754.2591	768.7287	850.7246	865.9564	894.6914	927.0951	972.3893	1018.5903	1059.3777	1080.2748	1111.8625	1122.5067	1153.3588	1173.4929	1184.0026	1240.6475	1266.5978	1286.7566	1337.2914	1365.2314	1389.72	1417.7252	1438.2592	1489.8701	1497.9585	1505.5085	1531.6741	1614.8279	1789.0172	3026.6369	3029.4598	3038.4558	3072.8506	3082.9417	3101.6559	3125.8433	3128.7764	3170.0993	3598.3171	3738.142
CCC(C1CO1)C(N)=O	CC[C@@H]([C@H]1CO1)C(=O)N	
InChI=1S/C6H11NO2/c1-2-4(6(7)8)5-3-9-5/h4-5H,2-3H2,1H3,(H2,7,8)	InChI=1S/C6H11NO2/c1-2-4(6(7)8)5-3-9-5/h4-5H,2-3H2,1H3,(H2,7,8)/t4-,5+/m0/s1
