20
gdb 42081	3.69887	1.23979	1.20526	2.0789	77.91	-0.2419	0.0297	0.2716	1123.1064	0.173737	-403.186705	-403.178834	-403.177889	-403.221744	30.008	
C	 0.0030729405	 1.5223512248	 0.1833659125	-0.203823
C	 1.4774018248	 1.9498598623	 0.0407578825	-0.208141
C	 1.9962023928	 1.0297949733	-1.0716593883	-0.248399
C	 1.3681375839	-0.3347822359	-0.7525439062	 0.404178
C	-0.0005189965	-0.0016583699	-0.106811331	-0.262845
C	 1.3780583655	-1.3826724047	-1.8992763639	-0.261879
N	 2.228837895	-2.4893349788	-1.4358070377	-0.266241
C	 2.6067358304	-2.1579248512	-0.2727534463	 0.107112
O	 2.2082614035	-0.9862802413	 0.2663595382	-0.258897
H	-0.4147639795	 1.762757836	 1.1641207825	 0.100988
H	-0.606534567	 2.0472258805	-0.5606432843	 0.100301
H	 1.5955305408	 3.01282676	-0.1858864545	 0.095123
H	 2.0237557907	 1.7442806069	 0.967686607	 0.113229
H	 1.6199359473	 1.3680722931	-2.0460294475	 0.099528
H	 3.085305676	 0.965045597	-1.1378600646	 0.107459
H	-0.1067736503	-0.5913848878	 0.8071087334	 0.118727
H	-0.8212713478	-0.2856256276	-0.771740133	 0.102681
H	 0.3737846499	-1.7584477575	-2.125733161	 0.112888
H	 1.7844365837	-0.9668916825	-2.8283638221	 0.113555
H	 3.2500434164	-2.7510709765	 0.3688079141	 0.134455
6.0795	66.0304	202.0109	274.7197	374.5388	414.3666	425.2637	531.1363	573.3163	712.2199	774.3592	787.7981	850.5486	856.7501	904.3181	911.7425	922.3991	962.5979	971.1868	989.5637	1001.9013	1024.4641	1055.1802	1121.2936	1143.2085	1153.858	1207.6473	1223.8355	1228.5805	1255.9409	1279.0388	1307.0426	1322.5005	1336.6127	1339.626	1347.4898	1363.5921	1474.1356	1476.6106	1491.9827	1497.641	1509.3051	1708.4666	3026.2001	3031.9231	3041.0219	3049.3081	3059.3848	3063.5732	3089.4714	3097.7896	3102.8819	3112.0407	3207.3933
C1CCC2(C1)CN=CO2	C1CCC2(C1)CN=CO2	
InChI=1S/C7H11NO/c1-2-4-7(3-1)5-8-6-9-7/h6H,1-5H2	InChI=1S/C7H11NO/c1-2-4-7(3-1)5-8-6-9-7/h6H,1-5H2
