22
gdb 15720	2.51443	1.92144	1.29601	1.0149	78.07	-0.2453	0.0773	0.3226	1055.9449	0.200734	-350.21765	-350.208618	-350.207674	-350.251748	33.092	
C	-0.6449562153	 1.0892800967	 0.0985260169	-0.232887
O	-0.275706426	-0.265835597	 0.1560149905	-0.248899
C	 0.8033033044	-0.5444793695	 1.0420024296	 0.133134
C	 0.3351329953	-0.6376682972	 2.5104509329	-0.229799
C	-0.0979334792	-2.1185978101	 2.7242859854	-0.203175
C	 0.2364533143	-2.847662346	 1.4010450479	-0.198555
C	 1.3062850753	-1.9655589043	 0.7306947392	 0.022215
C	 1.5652629126	-2.2548491507	-0.7454875284	-0.409166
H	 0.1971852919	 1.7267788014	-0.2154811016	 0.101617
H	-1.4465162181	 1.1765708257	-0.6397375295	 0.12396
H	-1.0173828835	 1.4700173852	 1.0617900755	 0.102724
H	 1.588483829	 0.2146873796	 0.9019246414	 0.049136
H	 1.1615688972	-0.3722822464	 3.177926815	 0.095341
H	-0.471578615	 0.0712967888	 2.7143436883	 0.099563
H	 0.4556845282	-2.5580081666	 3.5598227252	 0.095574
H	-1.1584817969	-2.2029478819	 2.9746547305	 0.098557
H	 0.5763241394	-3.8757199624	 1.5567547375	 0.086101
H	-0.6465966084	-2.8879059726	 0.7546273562	 0.108148
H	 2.2458478444	-2.0847076511	 1.2895339615	 0.065933
H	 0.6599685135	-2.0885750443	-1.3339974876	 0.130662
H	 2.3508544473	-1.6053877346	-1.1473523174	 0.104266
H	 1.8864232196	-3.2918292626	-0.889040019	 0.10555
39.9181	106.8726	143.1432	189.3816	219.4484	224.5423	296.6591	338.9927	425.1558	524.3631	583.058	717.3761	755.2372	823.4879	878.2655	893.0639	915.6101	944.6093	979.8317	1007.2691	1036.5637	1066.229	1109.9073	1135.6097	1176.2215	1182.494	1185.0216	1215.0337	1236.1466	1259.3384	1273.5163	1308.125	1331.5493	1335.3837	1351.1546	1384.2307	1392.987	1408.7074	1477.1769	1480.0126	1487.5345	1490.3772	1496.2637	1504.563	1510.5273	1511.6162	2968.5265	2979.2096	3002.9552	3015.4823	3034.3528	3045.2759	3047.9768	3059.3602	3080.4614	3092.8228	3093.106	3106.9314	3107.1884	3125.6627
COC1CCCC1C	CO[C@H]1CCC[C@H]1C	
InChI=1S/C7H14O/c1-6-4-3-5-7(6)8-2/h6-7H,3-5H2,1-2H3	InChI=1S/C7H14O/c1-6-4-3-5-7(6)8-2/h6-7H,3-5H2,1-2H3/t6-,7+/m1/s1
