18
gdb 14703	13.81155	0.51072	0.49862	0.0006	73.93	-0.2447	0.0561	0.3008	2127.1143	0.151482	-384.902995	-384.892738	-384.891794	-384.940988	34.019	
O	-0.0744617211	 1.4421696569	 0.0106003943	-0.415574
C	 0.0383556473	 0.0291863016	 0.0019157353	-0.062563
C	-1.3874759044	-0.5331956994	 0.0122629079	-0.323617
C	-1.4127063729	-1.9902310715	 0.0047048456	 0.049346
C	-1.3980535856	-3.1946104314	-0.0018598224	 0.049351
C	-1.4232822242	-4.6516460462	-0.0094146583	-0.323617
C	-2.8491070122	-5.2140331243	 0.0015532113	-0.062563
O	-2.7362884654	-6.6270160354	-0.0071876574	-0.415574
H	 0.8113808579	 1.8157416098	 0.0044132692	 0.288647
H	 0.5665809933	-0.3329325854	-0.8926457871	 0.097598
H	 0.5832461495	-0.34250769	 0.8824441392	 0.097599
H	-1.9048092991	-0.1426247099	 0.8973540744	 0.134281
H	-1.9212934137	-0.1332042799	-0.8587167537	 0.13428
H	-0.9063303924	-5.0422097225	-0.8947336328	 0.134281
H	-0.8890863864	-5.051641373	 0.8613304986	 0.13428
H	-3.3769398994	-4.8519172807	 0.8963476937	 0.097598
H	-3.3943862448	-4.8423398695	-0.8787347384	 0.097599
H	-3.6221271665	-7.0005910196	-0.0006382293	 0.288647
6.9922	64.3866	75.098	106.9847	148.6449	233.4611	239.4059	246.4127	326.8039	358.539	408.0461	506.326	512.1492	794.8132	796.7984	825.8559	998.6261	1004.5455	1079.3749	1081.351	1088.8203	1089.3243	1163.7937	1221.4594	1221.9922	1237.4528	1239.2142	1303.8733	1304.0624	1329.4029	1338.6754	1453.8552	1454.6321	1479.495	1481.4021	1527.797	1527.8622	2371.8656	2983.1556	2983.1813	3013.602	3013.7204	3026.6912	3027.2557	3063.4182	3064.2148	3834.0274	3834.0824
OCCC#CCCO	OCCC#CCCO	
InChI=1S/C6H10O2/c7-5-3-1-2-4-6-8/h7-8H,3-6H2	InChI=1S/C6H10O2/c7-5-3-1-2-4-6-8/h7-8H,3-6H2
