21
gdb 108364	2.29582	1.47851	1.10768	2.9804	79.17	-0.2245	0.0691	0.2936	1189.3216	0.180602	-424.177634	-424.167977	-424.167033	-424.211755	36.327	
C	 0.0006859217	 1.5223720711	-0.0502345659	-0.468436
C	 0.0320579966	 0.0095981418	 0.0482895447	 0.219866
C	-1.1604857305	-0.6816733338	-0.5929622902	-0.463162
C	 1.3233203219	-0.7540452568	-0.084849293	 0.028813
O	 2.4461333062	-0.0061535602	 0.37543584	-0.289704
C	 1.8960191433	 0.0103188978	 1.7211267595	-0.145997
C	 0.6250092326	-0.7086530616	 1.2658259724	 0.240285
C	-0.0482409325	-1.7467672378	 2.1073987678	-0.211304
O	 0.9160139077	-2.7342141107	 2.4629287415	-0.416913
H	 0.9632210238	 1.9609348097	 0.2186002998	 0.137902
H	-0.2220873407	 1.8286300508	-1.0785736048	 0.113779
H	-0.7737705045	 1.9493757451	 0.5972424754	 0.109321
H	-1.283668252	-0.3313373563	-1.6235202662	 0.119538
H	-1.0420722819	-1.7689339305	-0.6283089192	 0.12065
H	-2.0912955677	-0.4644084512	-0.0559900745	 0.116875
H	 1.50356963	-1.556650843	-0.7925735348	 0.100558
H	 2.5003046864	-0.6138902751	 2.3861742967	 0.123622
H	 1.8079631777	 1.0248931449	 2.1271134195	 0.097093
H	-0.460880446	-1.266579613	 3.0111867562	 0.087899
H	-0.8950609171	-2.1955864214	 1.5704480781	 0.092371
H	 0.5224114651	-3.3100780695	 3.1254180367	 0.286945
68.0462	137.7939	184.0058	201.2086	232.6501	256.7643	283.7335	300.4779	335.2593	350.6957	391.7348	518.3739	545.5766	660.7319	695.7478	758.4123	892.8308	937.0173	969.4289	972.1156	985.7525	992.7237	1024.0996	1051.4322	1053.3697	1076.2065	1148.5699	1158.889	1170.803	1208.7864	1233.545	1252.9339	1280.176	1314.0991	1336.5753	1404.192	1420.182	1432.8282	1470.1166	1483.983	1490.2438	1500.9459	1511.2145	1518.0196	1521.6447	2955.2029	3015.9621	3025.2477	3027.8964	3032.2232	3083.481	3086.4405	3090.0244	3101.0767	3132.0785	3166.8284	3824.7884
CC1(C)C2OCC12CO	CC1(C)[C@H]2OC[C@@]12CO	
InChI=1S/C7H12O2/c1-6(2)5-7(6,3-8)4-9-5/h5,8H,3-4H2,1-2H3	InChI=1S/C7H12O2/c1-6(2)5-7(6,3-8)4-9-5/h5,8H,3-4H2,1-2H3/t5-,7-/m1/s1
