14
gdb 132583	3.16796	1.39613	0.97489	1.2548	67.74	-0.2537	-0.0342	0.2195	1118.7263	0.100942	-478.038656	-478.030941	-478.029997	-478.071604	28.226	
C	 0.0044234762	 1.4680198677	 0.0523319409	-0.459492
C	 0.0088669374	-0.0337302014	-0.0014179206	 0.345955
N	-0.1186803177	-0.618641635	-1.1908969877	-0.288262
C	-0.1108851632	-1.9605896686	-1.2034535356	-0.101208
C	 0.0213109	-2.7064079624	-0.0553366562	 0.152237
F	 0.0286918426	-4.037067059	-0.0723121754	-0.056765
C	 0.1497763792	-2.0021925056	 1.149537185	 0.315004
O	 0.2815680134	-2.6764105301	 2.2985152306	-0.399316
N	 0.1428906157	-0.6813773154	 1.1696957842	-0.367294
H	 0.9354506826	 1.8363631901	 0.4948338563	 0.139832
H	-0.1086826945	 1.8784232665	-0.9508455926	 0.141476
H	-0.8132802967	 1.8243577853	 0.6869250503	 0.139843
H	-0.2135771226	-2.4602919826	-2.1633451099	 0.131845
H	 0.3541486876	-2.0083703196	 2.9960446807	 0.306145
46.5193	128.5279	223.9867	283.9831	309.522	383.45	447.8755	475.8344	546.7073	568.0163	586.2259	677.6376	757.5943	793.8582	794.2578	966.4517	970.766	1032.1266	1066.3257	1185.5544	1252.5746	1282.9236	1335.5686	1355.6938	1398.9106	1448.1637	1474.5441	1479.457	1519.8213	1624.7477	1657.7505	3047.3219	3103.4865	3159.1789	3169.1223	3753.8416
CC1=NC=C(F)C(O)=N1	Cc1ncc(F)c(O)n1	
InChI=1S/C5H5FN2O/c1-3-7-2-4(6)5(9)8-3/h2H,1H3,(H,7,8,9)	InChI=1S/C5H5FN2O/c1-3-7-2-4(6)5(9)8-3/h2H,1H3,(H,7,8,9)
