19
gdb 73599	2.29569	1.63163	1.30282	2.04	81.9	-0.2392	0.0496	0.2889	1074.0253	0.158641	-385.852176	-385.843543	-385.842599	-385.885041	33.162	
C	-0.005289055	 1.4766673158	-0.0196098478	-0.487451
C	-0.0173173706	-0.0309923129	 0.0273077739	 0.292009
C	-1.3234499047	-0.7573250621	-0.2609436454	-0.135916
O	-1.2246019264	-2.0436560855	 0.3334134565	-0.25093
C	-0.2947933689	-1.9971020925	 1.4097480583	-0.100062
C	 0.6483063389	-0.8535389924	 1.0993897193	-0.115964
C	 1.2527783094	-0.8140931975	-0.3009976127	-0.27796
C	 1.2848058396	-1.9482037082	-1.177753353	 0.363549
C	 1.3536335047	-2.8822644687	-1.9327949108	-0.465434
H	 0.967204794	 1.8757952086	 0.2836536503	 0.121443
H	-0.2128544507	 1.8450366727	-1.0307124224	 0.128075
H	-0.7642645852	 1.8968162576	 0.650400249	 0.121865
H	-2.1583948928	-0.1786622982	 0.1692627844	 0.087185
H	-1.5197939036	-0.9053286599	-1.3284807288	 0.115389
H	-0.8002847536	-1.8089438964	 2.3710906959	 0.091977
H	 0.1921885446	-2.9766946614	 1.460023728	 0.117435
H	 1.2067557614	-0.3967039564	 1.9087682108	 0.092739
H	 2.1360479818	-0.1834343854	-0.3718032829	 0.109701
H	 1.3964888469	-3.7127868471	-2.5925614427	 0.192348
116.9915	133.2469	197.0458	201.7263	220.7493	307.8704	338.2382	362.3707	534.1477	542.2864	586.4888	595.3662	643.1816	712.5958	734.0048	849.9062	861.6902	937.1042	937.8077	975.3903	995.3671	1018.6872	1056.4849	1098.4395	1113.2216	1124.6429	1143.0856	1217.8324	1236.1414	1247.118	1295.2021	1343.736	1363.256	1375.2502	1418.9521	1456.6653	1489.0477	1499.8764	1508.1116	1519.6864	2234.2708	2960.315	2972.1228	3026.0363	3063.1584	3068.4337	3086.1389	3103.3386	3131.2291	3176.1439	3505.2991
CC12COCC1C2C#C	C[C@]12COC[C@H]1[C@H]2C#C	
InChI=1S/C8H10O/c1-3-6-7-4-9-5-8(6,7)2/h1,6-7H,4-5H2,2H3	InChI=1S/C8H10O/c1-3-6-7-4-9-5-8(6,7)2/h1,6-7H,4-5H2,2H3/t6-,7+,8-/m1/s1
