20
gdb 73576	2.19458	2.09608	1.54421	2.321	77.41	-0.2173	0.078	0.2953	970.1947	0.172661	-403.110382	-403.102739	-403.101794	-403.142033	31.017	
C	 0.1071039597	 1.6057794533	 0.0099634866	-0.456176
C	 0.0134743532	 0.0931012168	 0.0717069982	 0.436356
O	-1.3393273574	-0.2938124891	 0.1205689053	-0.307989
C	-1.492046577	-1.4661718263	 0.9279525051	-0.069535
C	-0.2936977341	-1.5106707876	 1.9095197027	-0.245064
C	 0.7732230704	-0.6394846798	 1.2347514881	-0.094326
C	 1.7046075091	-1.25984957	 0.1785969355	-0.057203
N	 0.8537014088	-2.079204465	-0.7154447109	-0.343611
C	 0.9551410664	-0.617232658	-0.9385595936	-0.107748
H	 1.1505682682	 1.9312818649	-0.0445429745	 0.112769
H	-0.4160091215	 1.9814207712	-0.8755532732	 0.124997
H	-0.3558023798	 2.0524558277	 0.8946587246	 0.119562
H	-2.4557898068	-1.379851851	 1.4419551777	 0.08924
H	-1.5026842768	-2.3575002732	 0.2953061549	 0.117076
H	-0.5703233856	-1.0802073632	 2.8765292693	 0.09938
H	 0.0405345596	-2.5370094017	 2.079242664	 0.107229
H	 1.292355766	 0.0333008805	 1.9193843076	 0.072094
H	 2.7642500778	-1.4612645342	 0.2742886792	 0.089645
H	 1.4679419431	-2.524102393	-1.3965876908	 0.229177
H	 1.3094625966	-0.2280183322	-1.8864693757	 0.084128
138.4716	205.4109	223.8402	260.4971	272.3381	327.5717	458.7211	555.1431	601.641	641.5213	699.3147	778.7396	806.6811	831.4911	847.9804	893.4977	903.244	911.7535	943.5199	961.6171	1009.2953	1042.5494	1063.6127	1078.2866	1100.8928	1109.4476	1144.7848	1172.9863	1181.6803	1214.6856	1243.967	1257.7077	1278.9124	1313.9654	1322.6094	1348.7929	1380.8221	1399.535	1404.758	1482.1693	1483.4762	1492.627	1514.1698	3035.821	3038.0259	3056.0822	3086.2709	3095.3405	3107.1442	3112.4442	3114.7626	3172.5617	3192.9008	3473.5137
CC12OCCC1C1NC21	C[C@]12OCC[C@H]1[C@H]1N[C@@H]21	
InChI=1S/C7H11NO/c1-7-4(2-3-9-7)5-6(7)8-5/h4-6,8H,2-3H2,1H3	InChI=1S/C7H11NO/c1-7-4(2-3-9-7)5-6(7)8-5/h4-6,8H,2-3H2,1H3/t4-,5+,6+,7-/m0/s1
