15
gdb 44706	3.26378	1.39988	1.18145	4.2856	65.66	-0.2371	-0.0413	0.1958	1025.2349	0.1139	-453.996354	-453.988859	-453.987914	-454.02884	28.283	
O	 0.0866674517	-0.036483453	-0.3088564613	-0.279552
C	 0.003570323	 1.1348060389	-0.0948400464	 0.387798
C	-1.1549761299	 2.0945205359	 0.2414004063	-0.356089
C	-0.0897304313	 3.1512659124	 0.6683447219	-0.016575
N	 0.2577119979	 3.1359134896	 2.0686215083	-0.337276
C	 1.4997200887	 2.5836997376	 2.3442410957	 0.435492
O	 2.0254428036	 2.4879777462	 3.4272185489	-0.395718
N	 2.0337094535	 2.1721253643	 1.1203642904	-0.342085
C	 1.0611802575	 2.272725763	 0.0635971645	-0.108508
H	-1.7145535623	 2.3807904021	-0.656243016	 0.136544
H	-1.8545318365	 1.7575156495	 1.0093824197	 0.140778
H	-0.2233232272	 4.1577560627	 0.2650588482	 0.094976
H	-0.1857294226	 3.7123661248	 2.7626813748	 0.259443
H	 2.723020305	 1.4374328668	 1.1388020775	 0.26599
H	 1.4839565489	 2.6073155092	-0.8885832325	 0.114783
67.106	97.3833	222.3093	355.3371	382.9631	405.86	451.8886	506.3578	543.4036	618.2188	685.392	743.7624	764.4974	789.5183	868.8176	921.3066	955.5145	977.1599	1055.8073	1068.737	1095.1477	1150.6632	1167.1044	1227.2905	1238.4701	1286.7216	1329.3676	1373.4324	1397.002	1414.6695	1432.1964	1856.2712	1901.7348	3052.784	3060.9935	3080.0043	3124.3517	3650.8568	3675.7252
O=C1CC2NC(=O)NC12	O=C1C[C@H]2NC(=O)N[C@@H]12	
InChI=1S/C5H6N2O2/c8-3-1-2-4(3)7-5(9)6-2/h2,4H,1H2,(H2,6,7,9)	InChI=1S/C5H6N2O2/c8-3-1-2-4(3)7-5(9)6-2/h2,4H,1H2,(H2,6,7,9)/t2-,4-/m1/s1
