19
gdb 48988	3.12382	1.46289	1.28479	3.1082	74.7	-0.2501	-0.0273	0.2227	1039.0851	0.160984	-423.050153	-423.042614	-423.04167	-423.082258	29.644	
O	-0.7546507523	 1.0166817925	 0.4989656413	-0.263126
C	 0.3076411248	 0.8572591467	-0.0466711023	 0.081844
C	 1.4383866389	 1.8506826264	 0.004228981	 0.334707
C	 1.6005839371	 2.6775182912	 1.2938013406	-0.244935
C	 2.5425626175	 3.8316558002	 0.8197316784	-0.225118
C	 2.7928676172	 3.4791207736	-0.6664135174	-0.051849
C	 3.6011814514	 2.1728305031	-0.7178588833	-0.073737
O	 2.6697709448	 1.1678054929	-0.2643716815	-0.323681
C	 1.4100136179	 2.9438378848	-1.0928983177	-0.262305
H	 0.5304449376	-0.0411837488	-0.6628665827	 0.089501
H	 0.6306417814	 3.03554085	 1.6457820022	 0.122348
H	 2.0432725018	 2.0617002024	 2.0794255646	 0.111884
H	 2.054925462	 4.806525	 0.9093794128	 0.103466
H	 3.4727424166	 3.8767493755	 1.3928276835	 0.102551
H	 3.2142867323	 4.2839715883	-1.2704957602	 0.072703
H	 3.9361178036	 1.9240349876	-1.733153707	 0.10008
H	 4.4761249433	 2.187197335	-0.0572593001	 0.102333
H	 1.3826006638	 2.5262749498	-2.102636636	 0.107297
H	 0.5957515703	 3.6594166889	-0.9607107361	 0.116037
81.2612	161.6536	223.4535	243.075	367.803	405.1011	450.8961	486.7932	578.772	708.1976	773.1498	790.6663	827.6691	854.3318	893.7972	933.1078	952.7012	964.2686	974.4491	981.0424	999.7077	1040.3795	1098.9768	1129.2877	1154.4443	1162.2952	1193.9584	1220.4492	1250.0928	1255.8728	1279.4607	1300.6592	1329.8655	1342.463	1378.1874	1403.5729	1482.0807	1488.5722	1507.6078	1534.6183	1829.0094	2899.0517	3014.0195	3054.3175	3056.7191	3068.592	3076.5595	3095.0183	3108.4324	3126.3676	3130.8217
O=CC12CCC(CO1)C2	O=C[C@@]12CC[C@@H](CO1)C2	
InChI=1S/C7H10O2/c8-5-7-2-1-6(3-7)4-9-7/h5-6H,1-4H2	InChI=1S/C7H10O2/c8-5-7-2-1-6(3-7)4-9-7/h5-6H,1-4H2/t6-,7+/m1/s1
