18
gdb 36869	4.93102	0.86629	0.79388	2.2235	73.52	-0.2442	0.0273	0.2715	1452.7046	0.148153	-439.078762	-439.070283	-439.069339	-439.113603	29.886	
C	 0.0610026182	 1.4483390851	 0.229299145	-0.355083
C	-0.0571390705	-0.0568067896	 0.2058859067	 0.118382
C	-1.340038889	-0.7102196215	-0.0746546177	-0.187563
O	-0.3136924613	-0.65314962	-1.0662138052	-0.22981
C	 1.4616237048	 1.9320074068	 0.0050618397	 0.436518
N	 2.5214917798	 1.237233237	 0.0657517196	-0.311308
C	 3.6400838622	 2.1530937751	-0.2009323317	-0.185622
C	 2.9718862275	 3.5374069143	-0.4126884865	-0.111734
O	 1.560165182	 3.2641932302	-0.2629184634	-0.260298
H	-0.5923991617	 1.8844383441	-0.5333002239	 0.136829
H	-0.2826021247	 1.8404430291	 1.1964321066	 0.133233
H	 0.681189139	-0.5866410182	 0.8044853948	 0.11553
H	-1.5456960082	-1.6982973235	 0.3346155051	 0.11522
H	-2.2215208628	-0.1024699409	-0.2785435473	 0.109905
H	 4.3373255	 2.149172579	 0.6434412206	 0.116276
H	 4.1959806005	 1.8157686375	-1.0819795683	 0.120328
H	 3.258427404	 4.2814935095	 0.3359449574	 0.118255
H	 3.1354542902	 3.9568871962	-1.4090527415	 0.120942
40.8976	62.7626	97.1673	139.8557	225.0009	332.16	343.445	452.035	595.9455	722.8059	760.9342	801.2722	829.6256	864.4824	923.3118	950.1429	964.4188	980.8204	1006.1019	1028.654	1094.7814	1118.0482	1128.2412	1159.2593	1166.8046	1195.6056	1214.6256	1242.956	1246.7966	1297.2081	1315.4935	1354.7102	1393.2726	1449.9181	1455.6788	1503.8873	1527.9769	1533.0845	1744.733	3026.3762	3041.8389	3056.0477	3069.7877	3079.0564	3084.6376	3103.8375	3139.5272	3165.4218
C(C1CO1)C1=NCCO1	C([C@H]1CO1)C1=NCCO1	
InChI=1S/C6H9NO2/c1-2-8-6(7-1)3-5-4-9-5/h5H,1-4H2	InChI=1S/C6H9NO2/c1-2-8-6(7-1)3-5-4-9-5/h5H,1-4H2/t5-/m0/s1
