18
gdb 6992	2.65901	1.93752	1.50571	2.8895	68.13	-0.2343	-0.0177	0.2166	921.6861	0.150828	-384.952142	-384.943141	-384.942197	-384.985367	32.977	
C	-0.1290345477	 1.4825203617	 0.0372489747	-0.421737
C	-0.0607281455	-0.0500720281	-0.0296912403	 0.162837
C	-1.4284665342	-0.6866912124	 0.2041012433	-0.44589
C	 0.7634393421	-0.5762974413	-1.2571989423	 0.084367
O	 0.8951266656	 0.3702379547	-2.2904157691	-0.427516
C	 2.0018270778	-0.8334792331	-0.3419411894	-0.40026
C	 1.0748690573	-0.597921017	 0.859493427	 0.386101
O	 1.1569187265	-0.8309466364	 2.0316198676	-0.306592
H	 0.8516869118	 1.9455507489	-0.0973032914	 0.122748
H	-0.7835218434	 1.8651467994	-0.7509259521	 0.13048
H	-0.5268710825	 1.7923624757	 1.0080500021	 0.124669
H	-2.1520404504	-0.3343890742	-0.539028194	 0.121396
H	-1.3807403824	-1.7786676604	 0.1422528705	 0.114643
H	-1.804030529	-0.4268339097	 1.1985851911	 0.133251
H	 0.3426029929	-1.5191963683	-1.6325944025	 0.073886
H	 1.4473932509	-0.0087973915	-2.9811502839	 0.288697
H	 2.5069390382	-1.8010441058	-0.3926650217	 0.12372
H	 2.7443564022	-0.0337241621	-0.4389028196	 0.135201
63.5307	162.6529	182.6795	205.4139	249.3819	256.5771	272.6013	308.5698	374.0223	471.3423	490.0457	571.4629	643.2619	705.6088	769.8125	859.7882	936.4198	964.8833	975.6549	1000.875	1055.5333	1103.3293	1131.3006	1170.9063	1181.6641	1225.4283	1249.8032	1263.9207	1324.2489	1395.6491	1408.9457	1420.4948	1440.659	1480.0672	1481.8616	1500.0994	1504.4371	1885.5879	3003.8364	3031.0094	3044.1658	3052.4654	3099.4254	3108.3417	3116.5186	3118.5963	3121.6015	3821.5211
CC1(C)C(O)CC1=O	CC1(C)[C@@H](O)CC1=O	
InChI=1S/C6H10O2/c1-6(2)4(7)3-5(6)8/h4,7H,3H2,1-2H3	InChI=1S/C6H10O2/c1-6(2)4(7)3-5(6)8/h4,7H,3H2,1-2H3/t4-/m0/s1
