18
gdb 104639	2.57141	1.20549	0.97624	2.5711	72.8	-0.2738	0.0148	0.2887	1249.2639	0.145642	-439.071129	-439.061698	-439.060754	-439.105463	34.301	
C	-0.145286946	 1.3317913762	 0.0663754661	-0.267358
O	 0.1365696842	-0.0587343296	 0.0007239954	-0.270468
C	 0.737724633	-0.592577079	 1.1470614967	 0.271307
C	-0.1185918559	-0.6902285825	 2.4571485665	-0.299676
C	 0.3547511909	-2.1490863878	 2.6154060614	 0.140952
O	-0.6738224005	-3.023524845	 3.0039963285	-0.424704
C	 0.7993411249	-2.1447736982	 1.1250177529	-0.320943
C	 2.0581029198	 0.0178919789	 1.3950076034	 0.242325
N	 3.0890985871	 0.503344917	 1.5906670986	-0.348798
H	 0.7711865416	 1.9252898359	 0.1802271357	 0.136741
H	-0.6282119142	 1.5935291227	-0.8765453847	 0.138781
H	-0.8266598394	 1.5661086618	 0.8957199156	 0.117674
H	 0.0767342657	 0.0131887956	 3.2665347724	 0.122106
H	-1.1768498183	-0.6747102959	 2.1843780032	 0.132852
H	 1.218815343	-2.2191891073	 3.2885736674	 0.088737
H	-0.2964397449	-3.8966629093	 3.1510153207	 0.288198
H	-0.0086185882	-2.5064127171	 0.4851945873	 0.132111
H	 1.7449359671	-2.6115807763	 0.8474145031	 0.120165
73.303	108.7091	163.4475	173.5433	198.613	254.6559	264.1113	359.296	380.818	429.0088	451.5957	505.3739	590.516	645.9417	718.1982	830.1262	853.6141	935.6756	967.3572	1027.8545	1041.4804	1066.8803	1093.2638	1153.5832	1184.0533	1199.1397	1217.0877	1227.6118	1249.9676	1270.612	1281.0115	1324.6593	1433.423	1456.134	1477.138	1488.1362	1489.9892	1507.1467	2345.2491	3002.1011	3019.6445	3061.9474	3076.1223	3081.3338	3134.8004	3147.0749	3149.046	3818.8903
COC1(CC(O)C1)C#N	CO[C@]1(C[C@@H](O)C1)C#N	
InChI=1S/C6H9NO2/c1-9-6(4-7)2-5(8)3-6/h5,8H,2-3H2,1H3	InChI=1S/C6H9NO2/c1-9-6(4-7)2-5(8)3-6/h5,8H,2-3H2,1H3/t5-,6+
