17
gdb 18887	3.46218	2.71746	2.53292	1.5164	65.3	-0.2095	0.0798	0.2892	668.6385	0.147085	-363.840745	-363.835575	-363.834631	-363.869641	22.639	
C	 0.0244913587	 1.5128026518	-0.0066123234	-0.186607
C	 1.5277584984	 1.8762716097	 0.0012316414	 0.095799
O	 2.0436742602	 1.6900993535	 1.3439004876	-0.301567
C	 2.159232698	 0.2732191303	 1.0563464914	 0.095799
C	 0.7719612701	-0.3847148689	 1.2423143954	-0.186607
N	 0.0051485555	 0.020607076	 0.0274509429	-0.110818
C	 1.0026557288	-0.2832040839	-1.0311319568	-0.195547
C	 2.1691329529	 0.5401127239	-0.4783774832	-0.080384
H	-0.4957382271	 1.935178559	 0.8556894304	 0.114327
H	-0.4726508074	 1.8466948682	-0.9238891477	 0.100843
H	 1.800959625	 2.8436740898	-0.4259213466	 0.075796
H	 2.9983347612	-0.1959679796	 1.5747452566	 0.075796
H	 0.8370227441	-1.4780175563	 1.2644005267	 0.100843
H	 0.2813642221	-0.0375705731	 2.1541309437	 0.114327
H	 1.2018815077	-1.3577677348	-1.0784461926	 0.105207
H	 0.6454170988	 0.0548589675	-2.0082246354	 0.105207
H	 3.1251258331	 0.5769481669	-0.9945606505	 0.077584
361.5271	371.8657	489.1796	496.3183	635.8294	643.355	796.873	818.424	838.2992	867.0969	867.1563	878.5116	931.0591	946.6203	946.9292	964.6773	1009.4156	1013.7501	1023.9912	1059.0412	1104.1211	1139.3256	1166.9858	1234.3074	1235.4794	1269.0239	1272.8707	1284.4604	1291.4283	1305.044	1310.7776	1348.8475	1363.8711	1472.7898	1480.2143	1506.6982	3044.3169	3045.2559	3056.9126	3087.0274	3089.0546	3105.2105	3115.8818	3119.5255	3153.5303
C1C2OC3CN1CC23	C1[C@H]2O[C@H]3CN1C[C@@H]23	
InChI=1S/C6H9NO/c1-4-5-2-7(1)3-6(4)8-5/h4-6H,1-3H2	InChI=1S/C6H9NO/c1-4-5-2-7(1)3-6(4)8-5/h4-6H,1-3H2/t4-,5+,6-
