23
gdb 59560	3.1582	1.18602	1.03533	1.3922	84.97	-0.258	0.0771	0.3352	1266.9979	0.207438	-388.284226	-388.275607	-388.274662	-388.317268	34.594	
C	-0.0394643532	 1.5688726177	 0.0848272395	-0.404059
C	 0.0095900739	 0.0398947188	 0.0602815778	 0.107732
O	 0.7164765391	-0.4618511773	 1.1960646498	-0.433215
C	-1.3820135308	-0.5920051846	-0.0467273883	 0.035812
C	-2.1370453353	-0.335964984	-1.3987658988	-0.242277
C	-2.440035979	-1.7948034698	-1.7978757434	-0.009244
C	-2.8898659628	-2.4176151549	-0.4446833109	-0.23101
C	-1.4078372305	-2.1386255218	-0.0557713796	-0.018384
C	-1.0727270928	-2.4865999464	-1.5363052468	-0.222544
H	 0.9701411288	 1.977619466	 0.1795244278	 0.121766
H	-0.4955394327	 1.9735480984	-0.8238395326	 0.119442
H	-0.632374814	 1.9213489999	 0.93878512	 0.102715
H	 0.6176517413	-0.2814148804	-0.7940937166	 0.085532
H	 0.2405155165	-0.1736796857	 1.9832429416	 0.272816
H	-1.9771314919	-0.218869915	 0.7994690188	 0.049702
H	-3.0413528487	 0.2658111129	-1.2710317215	 0.093323
H	-1.5050458035	 0.1655428853	-2.1398713878	 0.094364
H	-2.9987405737	-1.9512135376	-2.7215615248	 0.055312
H	-3.6772638442	-1.9101340252	 0.1226198206	 0.081538
H	-3.1117011699	-3.4844929321	-0.5244000853	 0.093273
H	-0.9191287395	-2.6379180112	 0.7790186417	 0.064988
H	-1.1033758299	-3.5624284085	-1.7239377581	 0.09428
H	-0.1764361972	-2.0571370044	-1.9928996129	 0.08814
79.4886	151.5836	175.6102	236.8153	272.7263	319.0951	390.0621	404.6498	469.3108	489.3331	532.1815	664.7016	812.3869	834.7404	836.8804	854.3433	865.1866	903.1819	939.7347	944.133	975.5898	990.951	1015.0504	1025.311	1039.4865	1077.6966	1085.4837	1090.5678	1111.7718	1115.8163	1171.1301	1191.5461	1223.5127	1241.7017	1248.8753	1250.467	1283.5408	1294.0812	1312.7233	1326.2538	1341.9136	1398.3749	1401.3252	1417.8873	1487.9702	1491.6299	1493.8906	1498.3086	1527.1574	2990.5086	3022.5561	3039.2031	3042.4672	3043.6124	3056.3215	3087.058	3095.4941	3103.5162	3108.7071	3114.0904	3119.6559	3132.3764	3793.0975
CC(O)C1CC2CC1C2	C[C@@H](O)[C@H]1C[C@@H]2C[C@H]1C2	
InChI=1S/C8H14O/c1-5(9)8-4-6-2-7(8)3-6/h5-9H,2-4H2,1H3	InChI=1S/C8H14O/c1-5(9)8-4-6-2-7(8)3-6/h5-9H,2-4H2,1H3/t5-,6-,7+,8-/m1/s1
