19
gdb 39624	4.55075	0.92698	0.79501	1.28	79.83	-0.2319	0.0059	0.2378	1414.7184	0.159802	-422.999584	-422.9913	-422.990356	-423.033336	30.269	
C	 0.0309672282	 1.5038528155	-0.1322763887	-0.168223
O	 1.3765586154	 1.5261752341	 0.3999280573	-0.275103
C	 1.4221935554	 0.0828139821	 0.4849571477	-0.170411
C	 0.0207120241	-0.0060061498	-0.0758104795	 0.18006
C	-0.8288035043	-0.9704703713	-0.3824993941	 0.1466
C	-2.2204798955	-0.8163532821	-0.9608921471	-0.331705
C	-2.4987913289	-2.238399968	-1.4747938432	-0.080043
O	-1.8064461401	-3.0961912372	-0.5775140272	-0.249463
C	-0.5773174482	-2.4631777207	-0.2492226109	-0.159808
H	-0.6818256269	 2.0211226883	 0.5257363918	 0.111606
H	-0.026635612	 1.9548084902	-1.1335883798	 0.110356
H	 2.2242678703	-0.3434703448	-0.1347931248	 0.111441
H	 1.5563708714	-0.2668794944	 1.518869613	 0.111888
H	-2.9393598139	-0.550367966	-0.1760662801	 0.123015
H	-2.2809631425	-0.0535352664	-1.742392975	 0.112877
H	-3.5542651592	-2.5201294178	-1.4596665737	 0.112083
H	-2.1195319607	-2.3586063558	-2.5029446792	 0.092253
H	 0.2260230471	-2.7867309493	-0.9335470963	 0.102768
H	-0.2964500296	-2.7712131268	 0.7640273797	 0.119809
55.4979	126.1375	126.5482	168.0029	248.245	294.4008	379.8896	472.1578	478.1298	652.9903	752.2152	867.7037	879.3901	911.6114	940.1941	948.9467	965.1148	1008.8786	1020.9662	1039.9187	1069.3874	1085.2723	1093.4799	1122.0894	1135.8391	1136.68	1202.582	1206.8894	1235.1831	1260.3355	1296.6296	1301.0664	1348.5794	1360.6435	1396.3574	1473.9225	1494.1588	1501.3818	1520.9352	1521.9479	1826.9999	2951.6251	2971.1926	2982.3664	2994.8837	3020.2674	3021.8787	3030.4202	3055.2382	3088.363	3101.4915
C1OCC1=C1CCOC1	C1OCC1=C1CCOC1	
InChI=1S/C7H10O2/c1-2-8-3-6(1)7-4-9-5-7/h1-5H2	InChI=1S/C7H10O2/c1-2-8-3-6(1)7-4-9-5-7/h1-5H2
