23
gdb 57543	3.2333	0.9104	0.87201	1.2777	82.71	-0.2445	0.0813	0.3258	1484.3665	0.201996	-425.402084	-425.39143	-425.390485	-425.438079	39.402	
C	 0.2296690972	 1.4614519924	 0.4763033957	-0.406954
C	 0.1133509256	 0.040064559	-0.0974432097	 0.35099
C	 1.0416856605	-0.9306914531	 0.6445292294	-0.410335
C	-1.3387549569	-0.4406198213	-0.0109854	-0.393483
O	 0.3712726089	 0.0443365821	-1.5176920062	-0.287107
C	 1.6472649978	 0.4188787894	-1.9955589748	-0.10729
C	 2.5095654334	-0.7670830621	-2.3664654043	 0.084608
C	 3.9562385788	-0.6199887039	-2.5652362756	-0.181712
O	 3.4406268622	-1.2552282834	-1.3946448569	-0.225393
H	 1.2606031725	 1.8276451474	 0.4694586246	 0.112783
H	-0.388933292	 2.1549469512	-0.1009187069	 0.116811
H	-0.1109195758	 1.4783316831	 1.5162277334	 0.114859
H	 0.7845556092	-0.9576443179	 1.7084959267	 0.105568
H	 0.9381242879	-1.9423499049	 0.2412866592	 0.116993
H	 2.0911191488	-0.6419500294	 0.553779341	 0.133866
H	-2.000259241	 0.2440597403	-0.5493184729	 0.115547
H	-1.4348155533	-1.4325166758	-0.4610904396	 0.117123
H	-1.6666438795	-0.4968870056	 1.0310622903	 0.1084
H	 1.4737252271	 1.0117943237	-2.9045540199	 0.105477
H	 2.200377103	 1.0520655236	-1.291029059	 0.099545
H	 1.9861125342	-1.5513975994	-2.9143031941	 0.100461
H	 4.4778307971	-1.2715740046	-3.2645256773	 0.116667
H	 4.425876154	 0.3496128093	-2.400669493	 0.112575
38.987	79.854	102.7992	195.1116	213.429	253.3538	270.8108	271.533	316.3868	345.7041	375.9996	408.618	440.7901	478.3631	543.7981	729.9097	786.0533	861.073	861.4505	907.4423	920.7318	951.2444	955.594	993.4381	1042.7265	1044.6998	1093.4431	1105.4757	1149.0087	1157.3193	1176.5278	1219.6583	1253.5428	1269.3253	1289.2815	1311.174	1375.2768	1392.9285	1399.9426	1425.6792	1443.4545	1471.6663	1476.855	1480.9124	1484.1951	1499.3793	1505.3442	1515.86	1531.2442	3006.7617	3036.6378	3039.3465	3046.2433	3057.8048	3081.4175	3105.3367	3109.2853	3113.0327	3113.8374	3119.0291	3122.1575	3130.844	3167.0197
CC(C)(C)OCC1CO1	CC(C)(C)OC[C@H]1CO1	
InChI=1S/C7H14O2/c1-7(2,3)9-5-6-4-8-6/h6H,4-5H2,1-3H3	InChI=1S/C7H14O2/c1-7(2,3)9-5-6-4-8-6/h6H,4-5H2,1-3H3/t6-/m1/s1
