18
gdb 47492	2.91572	1.40088	1.08556	3.7763	72.	-0.2529	0.0106	0.2635	1119.7869	0.149486	-439.102362	-439.094585	-439.093641	-439.134913	29.966	
O	-0.0256412806	-0.003206003	-0.3975630409	-0.322289
C	-0.0314707941	 1.1137358549	 0.0425898239	 0.412421
C	-1.3150591614	 1.9381200312	 0.1441159196	-0.42135
C	-1.2390809451	 3.1306486577	 1.072982194	 0.32916
C	-2.4779980128	 3.7905954465	 1.5401614161	-0.304295
N	-1.6604164865	 2.9930698101	 2.4790335441	-0.351753
C	 0.0610544183	 3.8794835527	 0.8828952598	-0.278312
C	 1.2008714172	 2.9105488073	 1.1640496095	-0.064818
O	 1.1394566133	 1.7030479511	 0.3775467629	-0.231152
H	-1.5201148854	 2.2792063218	-0.8800474886	 0.146548
H	-2.1250650076	 1.2520857172	 0.406613712	 0.131027
H	-2.4863358226	 4.8597597296	 1.7353469817	 0.121243
H	-3.4307588407	 3.3857266976	 1.2071736315	 0.115704
H	-2.099139395	 2.0880070926	 2.6327219988	 0.232991
H	 0.1320355294	 4.2700228692	-0.1395577851	 0.109432
H	 0.129439683	 4.72114256	 1.5775110926	 0.119689
H	 2.1758476858	 3.3460151332	 0.9348722941	 0.123351
H	 1.186660235	 2.6261189904	 2.2225025839	 0.132405
83.4672	113.4181	206.8998	281.2297	362.8279	370.2864	450.4945	478.35	497.9831	577.8385	646.2589	742.3572	792.1191	840.9507	890.9673	926.9244	944.1051	960.1164	992.8585	1001.6198	1086.3009	1088.4931	1100.9884	1143.5501	1174.4208	1225.1637	1228.9407	1260.1879	1280.8532	1297.205	1338.535	1375.761	1417.0362	1431.3462	1452.3093	1473.6326	1511.6067	1518.4096	1843.1929	3026.2055	3037.836	3046.111	3097.7122	3102.7334	3103.8412	3110.8733	3187.932	3494.3366
O=C1CC2(CN2)CCO1	O=C1C[C@]2(CN2)CCO1	
InChI=1S/C6H9NO2/c8-5-3-6(4-7-6)1-2-9-5/h7H,1-4H2	InChI=1S/C6H9NO2/c8-5-3-6(4-7-6)1-2-9-5/h7H,1-4H2/t6-/m0/s1
