19
gdb 72877	3.13443	1.12606	0.97259	3.5177	76.58	-0.243	-0.0209	0.2221	1246.918	0.157798	-423.007285	-422.998511	-422.997567	-423.041476	32.758	
O	 0.3258405556	 1.3689856477	-0.6294308129	-0.479762
C	 0.1284053517	 0.0856167197	-0.1115689499	 0.427142
C	 0.5087470702	-1.1170787405	-1.030494834	-0.292852
C	-0.9802031959	-1.5895269635	-1.0217576325	-0.224772
C	-1.3216319746	-0.4858331727	 0.0046700565	-0.089375
C	-1.0170315138	-0.889455034	 1.491197011	-0.067362
C	 0.3542348116	-0.1348632111	 1.4017054183	-0.327765
C	-1.9724281401	-0.3211963349	 2.5021807878	 0.157547
O	-2.5644881589	-0.9592903179	 3.3345844487	-0.258369
H	 1.2720128098	 1.5044207185	-0.7557394776	 0.278357
H	 0.864442783	-0.7951763245	-2.0118493049	 0.106676
H	 1.2316861812	-1.818425271	-0.6047610206	 0.098484
H	-1.473656189	-1.4362491	-1.9841103132	 0.111231
H	-1.1650285127	-2.6170397945	-0.6991811695	 0.105941
H	-2.2089725411	 0.1275692752	-0.1575078982	 0.080394
H	-0.9398433896	-1.9671090788	 1.6490721401	 0.088796
H	 1.2400413952	-0.6900674317	 1.7218473424	 0.102474
H	 0.3190022576	 0.8230070845	 1.9309390482	 0.11071
H	-2.1052140101	 0.7852344396	 2.4261459203	 0.072505
46.6961	69.3685	188.323	205.1535	266.6571	319.9598	327.6667	388.1638	427.0345	463.9829	632.5847	645.4065	747.3615	818.12	857.8775	887.16	892.904	935.8317	949.8411	984.4456	1023.7587	1033.0588	1056.2195	1100.4162	1140.7856	1178.5246	1180.8014	1219.5927	1229.1049	1237.5265	1247.214	1272.1141	1276.9847	1304.3245	1325.7368	1367.8046	1429.8064	1464.6521	1474.5296	1490.4556	1827.8584	2841.5134	3044.7299	3056.1383	3064.6766	3091.3907	3100.6236	3106.7274	3107.9604	3124.3357	3791.2009
OC12CCC1C(C2)C=O	O[C@]12CC[C@H]1[C@@H](C2)C=O	
InChI=1S/C7H10O2/c8-4-5-3-7(9)2-1-6(5)7/h4-6,9H,1-3H2	InChI=1S/C7H10O2/c8-4-5-3-7(9)2-1-6(5)7/h4-6,9H,1-3H2/t5-,6-,7-/m0/s1
