20
gdb 78926	4.30717	1.3641	1.32958	1.6508	82.03	-0.2203	0.0895	0.3098	1061.1796	0.171564	-365.938859	-365.931212	-365.930268	-365.970485	30.872	
C	 0.0535496022	 1.6274779625	 0.0442808019	-0.421471
C	 0.044807908	 0.1089969099	-0.0078215906	 0.026196
C	 0.7288100744	-0.6559396364	-1.1737374603	-0.084904
C	 2.2332718967	-0.3410635232	-1.0583487758	-0.111843
N	 2.435155462	-0.3491217478	 0.4404268809	-0.195725
C	 1.0154187543	-0.7144208225	 0.861978696	-0.010627
C	 1.0477650739	-1.8572570672	-0.1946219243	-0.138254
C	 2.5749085317	-1.6054421134	-0.3621695145	 0.359682
C	 3.7817080613	-2.4798793053	-0.3477036346	-0.526172
H	 1.0722910966	 2.0145885613	-0.0514998913	 0.133472
H	-0.5518473177	 2.0551815375	-0.7626435628	 0.111297
H	-0.3543150868	 1.9921017717	 0.9934101628	 0.114703
H	-0.9680936073	-0.2910500419	 0.1305661719	 0.071927
H	 0.2832447995	-0.7720760662	-2.1603176823	 0.066858
H	 2.8491410019	 0.3342552171	-1.6397696224	 0.09047
H	 0.9094471233	-0.8335852561	 1.9397597541	 0.068241
H	 0.4953671303	-2.7930700946	-0.1659275423	 0.068764
H	 3.7872671223	-3.1631747932	-1.2043603651	 0.120429
H	 4.6882588522	-1.8679409964	-0.3903709526	 0.133168
H	 3.8238707814	-3.0827267058	 0.5666387513	 0.123789
165.6391	184.4503	198.493	208.3855	290.2546	305.7001	533.9523	597.5714	600.7435	717.3085	731.0531	758.4946	803.1071	821.657	859.4341	866.8469	903.8336	920.7994	943.3279	982.6818	1005.3669	1050.7436	1053.5688	1072.9618	1079.5252	1094.5378	1118.3285	1157.6867	1165.801	1186.154	1212.5116	1226.9731	1261.3346	1275.2595	1286.1162	1377.9374	1399.907	1409.9875	1451.3756	1480.1561	1491.2917	1493.5183	1499.4786	3025.7743	3028.0072	3032.2739	3087.659	3091.8147	3105.6936	3111.6312	3118.4951	3129.2855	3148.51	3184.4634
CC1C2C3N4C1C2C34C	C[C@H]1[C@H]2[C@H]3N4[C@@H]1[C@@H]2[C@@]34C	
InChI=1S/C8H11N/c1-3-4-5-6(3)9-7(4)8(5,9)2/h3-7H,1-2H3	InChI=1S/C8H11N/c1-3-4-5-6(3)9-7(4)8(5,9)2/h3-7H,1-2H3/t3-,4+,5+,6-,7+,8-,9?/m0/s1
