21
gdb 79152	4.2133	1.17638	1.0935	1.6948	81.81	-0.2494	0.0785	0.3279	1185.1093	0.184263	-387.057407	-387.049578	-387.048634	-387.089316	31.939	
C	-0.1532752717	 1.5289358111	-0.0188609339	-0.404429
C	 0.0374945781	 0.0110794487	-0.0106251059	 0.01415
C	 0.9812313532	-0.5294686285	-1.1264436371	-0.265902
C	 2.0294411274	-1.2379164486	-0.2685767084	-0.0249
C	 1.308006029	-1.9579013327	 0.9245273624	-0.124246
C	 2.5235409563	-1.6516072793	 1.8349532386	 0.17676
O	 3.7056196316	-2.4026334614	 1.7521113094	-0.453854
C	 2.3285908175	-0.36245232	 0.9977581867	-0.114467
C	 0.7862013508	-0.5158171538	 1.2186828524	 0.002452
H	 0.8099958583	 2.048380997	 0.039885904	 0.114124
H	-0.6538047195	 1.8599683083	-0.9349680285	 0.112778
H	-0.761652359	 1.8589271612	 0.8304121619	 0.111288
H	-0.9476617451	-0.4667511791	-0.0764289929	 0.067777
H	 0.4776125545	-1.2145879374	-1.8160557056	 0.096207
H	 1.4168785291	 0.2780024852	-1.7255415815	 0.095153
H	 2.8486382456	-1.7364423554	-0.7933432405	 0.046361
H	 0.7098417629	-2.8704982645	 0.8745121253	 0.065003
H	 2.3062841979	-1.5617913741	 2.9028585595	 0.079025
H	 3.9416963988	-2.5103736239	 0.825261481	 0.281221
H	 2.9117105177	 0.5599316673	 1.0350381661	 0.066514
H	 0.3724277168	-0.2969857	 2.206057627	 0.058986
122.2888	209.7673	234.935	250.1336	279.6994	329.1561	407.0782	477.4781	539.6092	668.3318	704.7449	750.6341	794.9626	843.5932	844.7477	912.7308	924.7096	928.9094	943.8806	963.2303	999.2443	1011.1992	1057.0907	1075.4555	1090.1699	1104.9214	1121.3169	1126.6149	1166.3301	1176.254	1212.2343	1215.5981	1255.9201	1258.5945	1276.6236	1282.307	1298.0722	1317.4665	1358.2634	1387.4038	1410.9012	1456.1957	1495.1271	1499.408	1501.0947	3023.1472	3025.5182	3038.841	3071.6194	3076.2938	3079.5543	3084.2453	3087.1116	3094.6352	3095.8762	3100.6821	3820.0374
CC1CC2C3C(O)C2C13	C[C@H]1C[C@@H]2[C@H]3[C@@H](O)[C@@H]2[C@@H]13	
InChI=1S/C8H12O/c1-3-2-4-6-5(3)7(4)8(6)9/h3-9H,2H2,1H3	InChI=1S/C8H12O/c1-3-2-4-6-5(3)7(4)8(6)9/h3-9H,2H2,1H3/t3-,4-,5+,6-,7+,8-/m0/s1
