18
gdb 46282	3.21346	1.30374	1.22371	2.3755	77.47	-0.2479	0.0173	0.2652	1087.8219	0.149277	-401.959544	-401.951884	-401.95094	-401.992151	29.449	
N	 0.3884714325	 1.1574611203	-0.1695812217	-0.552443
C	 0.1696634803	-0.0573727619	 0.0497154106	 0.389279
O	 1.0027350176	-1.0576790635	 0.5024566261	-0.260305
C	-0.0796896502	-2.0399639091	 0.4365443518	-0.126368
C	-1.0527262515	-0.9470371196	-0.074867784	 0.199659
C	-2.2668781883	-0.6095631522	 0.8287592951	-0.332431
C	-3.4508734903	-1.0728204594	 0.0156518989	-0.064021
C	-3.1138827857	-1.3600832789	-1.2393991207	-0.064019
C	-1.6427619606	-1.1415799267	-1.495638761	-0.332432
H	 1.3572009589	 1.4094610051	 0.0328992584	 0.227242
H	 0.1641087099	-2.8398531246	-0.267699333	 0.116992
H	-0.2909865316	-2.4520580503	 1.426872575	 0.116991
H	-2.1949249602	-1.0932456609	 1.8100724264	 0.106865
H	-2.3149414021	 0.4712635474	 1.0163997543	 0.136654
H	-4.4544331554	-1.1129373972	 0.4237121341	 0.09741
H	-3.798266167	-1.6722772557	-2.0200451792	 0.097409
H	-1.4769076606	-0.243101697	-2.1046827298	 0.136654
H	-1.1642645058	-1.9718142959	-2.0284175715	 0.106863
65.7025	117.5464	168.1561	281.5734	352.0579	406.1999	408.7668	563.8759	674.7964	674.8246	744.0816	783.0032	795.612	861.2637	890.8375	927.8493	958.1503	969.7609	975.3124	981.5076	981.89	1013.1498	1076.5398	1126.6332	1147.5298	1153.8847	1158.0501	1202.6098	1233.491	1264.4652	1297.4367	1341.8929	1361.0986	1373.2798	1479.7555	1485.123	1517.0122	1691.1191	1821.7796	3021.0258	3022.4974	3052.4404	3054.2397	3056.1323	3114.474	3186.6282	3211.6861	3478.3261
N=C1OCC11CC=CC1	[NH][C]1OC[C@]21CC=CC2	
InChI=1S/C7H9NO/c8-6-7(5-9-6)3-1-2-4-7/h1-2,8H,3-5H2	InChI=1S/C7H9NO/c8-6-7(5-9-6)3-1-2-4-7/h1-2,8H,3-5H2
