16
gdb 9330	4.76226	0.94487	0.80018	2.05	63.35	-0.2643	-0.0834	0.1809	1389.9216	0.127646	-420.913192	-420.904034	-420.90309	-420.948629	30.249	
C	 0.0768761942	 1.3754074611	-0.2028691784	-0.386178
C	 0.2437381477	-0.1385440152	-0.0439859455	-0.191298
C	 0.6886074408	-0.5104484352	 1.3594675232	-0.051026
O	 0.8193339713	-1.9497813225	 1.4163207295	-0.217025
C	 1.2047883773	-2.4525329365	 2.5841392865	 0.335442
O	 1.4523693069	-1.8289756721	 3.5872681763	-0.341774
C	 1.3182016433	-3.9816888363	 2.5584001018	 0.092054
O	 1.0899749469	-4.6684606481	 1.6034737475	-0.211603
H	 1.0168320592	 1.9038498593	-0.0105156451	 0.122368
H	-0.2433473447	 1.6257318895	-1.2177326687	 0.124977
H	-0.6740967196	 1.7700131158	 0.4900187232	 0.122368
H	-0.6997951456	-0.6503540093	-0.2636179298	 0.116664
H	 0.9805062952	-0.5173508512	-0.761009035	 0.116665
H	 1.6534471205	-0.0613570982	 1.6186570515	 0.126665
H	-0.0353082656	-0.1949819645	 2.1185501649	 0.126666
H	 1.6408108821	-4.3756787367	 3.5431421883	 0.115033
39.6895	64.5045	106.6923	113.7988	197.1989	218.8599	240.9504	323.9694	414.8397	513.1563	604.5017	717.8901	758.4058	889.4336	896.2462	926.8592	1026.4129	1030.2652	1053.5299	1148.5909	1187.0403	1268.7886	1306.8334	1314.0233	1336.6008	1377.9705	1414.2144	1423.4167	1490.6101	1502.1566	1502.6905	1517.5049	1805.0487	1843.2249	2944.845	3035.6406	3039.7497	3048.2062	3070.1615	3091.423	3108.5108	3115.5341
CCCOC(=O)C=O	CCCOC(=O)C=O	
InChI=1S/C5H8O3/c1-2-3-8-5(7)4-6/h4H,2-3H2,1H3	InChI=1S/C5H8O3/c1-2-3-8-5(7)4-6/h4H,2-3H2,1H3
