18
gdb 69689	4.59223	1.04795	0.9864	3.9043	79.14	-0.2269	0.0049	0.2318	1238.6499	0.14625	-401.885315	-401.87715	-401.876206	-401.917982	31.309	
C	 0.1260495484	 1.5354146355	-0.0407056119	-0.494199
C	 0.0050376465	 0.0418964991	 0.0323112249	 0.323198
C	-0.8975049592	-0.7095040632	 0.9719763638	-0.331445
C	 0.5897994004	-0.9515104917	 1.0377647287	-0.132904
C	 1.0887198899	-1.8411842954	-0.1362691062	-0.030475
C	 0.5072177164	-0.885290295	-1.1249650636	-0.120582
N	-0.0348232718	-2.2340147758	-0.9709251726	-0.075737
C	 0.0247909114	-3.2194617374	-1.9376133276	 0.130902
O	 0.5623884255	-4.2929852984	-1.8060999867	-0.297497
H	 1.1137139011	 1.8425033272	-0.4046061038	 0.119996
H	-0.6249472784	 1.9645838155	-0.7153797292	 0.124479
H	-0.0188142429	 1.9858889578	 0.9461107122	 0.1248
H	-1.2895736408	-0.1106554611	 1.7885312737	 0.111927
H	-1.562715623	-1.4848335203	 0.6103696046	 0.133647
H	 1.1840622594	-0.7510199106	 1.9196465778	 0.097686
H	 2.0115800464	-2.4037910507	-0.1783721103	 0.124774
H	 0.9060953061	-0.5540183825	-2.0767942523	 0.109129
H	-0.5489691953	-2.9322713331	-2.8402477813	 0.0823
89.3809	145.4333	207.3577	229.9704	251.837	296.9905	374.3244	434.4137	507.401	622.6396	693.9508	750.8889	774.6492	813.3601	847.535	879.4673	909.8895	933.1769	952.2114	973.0926	1019.0947	1029.5099	1033.8216	1090.4609	1098.2193	1119.1204	1170.4756	1196.1479	1227.6994	1271.5463	1284.585	1369.8014	1411.0102	1415.4752	1421.4894	1478.2943	1484.8101	1499.5609	1791.662	2945.5334	3019.1409	3074.9283	3100.7312	3132.0654	3186.0648	3198.12	3217.8891	3221.2941
CC12CC1C1C2N1C=O	C[C@]12C[C@H]1[C@@H]1[C@H]2N1C=O	
InChI=1S/C7H9NO/c1-7-2-4(7)5-6(7)8(5)3-9/h3-6H,2H2,1H3	InChI=1S/C7H9NO/c1-7-2-4(7)5-6(7)8(5)3-9/h3-6H,2H2,1H3/t4-,5+,6+,7-,8?/m0/s1
