21
gdb 95399	2.19974	1.55214	1.03921	2.5787	80.59	-0.2456	0.011	0.2566	1210.1513	0.183313	-424.249139	-424.240116	-424.239172	-424.282303	35.398	
C	-0.0159854696	 1.5246246525	 0.1240574812	-0.48005
C	-0.0198076886	 0.024004098	-0.0005459734	 0.273548
C	 0.0128884204	-0.6105524891	-1.1775990925	-0.138805
C	 0.0153381558	-2.1066442393	-1.3493468257	-0.264187
C	 0.3779301791	-2.8373432767	-0.050613402	-0.234963
C	-0.3865061307	-2.2348075596	 1.1311883436	 0.129937
O	-0.1441722776	-2.9276009526	 2.3395664064	-0.44873
C	-0.0352946193	-0.7455498749	 1.3007304541	 0.008652
O	 1.227575706	-0.6217103591	 1.9906667224	-0.449929
H	 0.7974894622	 1.8580491065	 0.7783335701	 0.133682
H	 0.0977693952	 2.0116549465	-0.8479497088	 0.118365
H	-0.9481707675	 1.8840912439	 0.5786439226	 0.126248
H	 0.024488981	-0.0177081506	-2.0909659494	 0.083511
H	-0.9787708739	-2.4303317347	-1.6937479349	 0.115177
H	 0.704036746	-2.3858632644	-2.156113011	 0.105884
H	 0.1593637718	-3.9065699612	-0.1196224055	 0.105161
H	 1.4565777994	-2.748971965	 0.1399672378	 0.080392
H	-1.4637745218	-2.3105704269	 0.9299519659	 0.081233
H	 0.6344441296	-2.4991799932	 2.7223102361	 0.281253
H	-0.7536101566	-0.2965163683	 1.9966522019	 0.090415
H	 1.9226119692	-0.7424918021	 1.3336349611	 0.283205
96.3404	173.1041	203.9708	230.8415	280.804	297.3978	301.0287	362.8415	391.5161	451.7207	461.0636	530.7609	581.6571	633.5107	674.5656	800.0097	846.6344	875.618	913.888	935.0575	994.1435	1027.5638	1061.5355	1068.8933	1071.7307	1103.0637	1133.9444	1170.9588	1176.2881	1230.1985	1241.5932	1286.3624	1316.4658	1346.018	1364.4323	1378.3523	1403.4755	1408.7418	1417.511	1444.1106	1477.0654	1478.4336	1494.8529	1497.6467	1731.1668	2995.8655	3009.7803	3020.9215	3023.2619	3044.7528	3045.6004	3074.2079	3090.0348	3114.6226	3137.6191	3740.8856	3800.6397
CC1=CCCC(O)C1O	CC1=CCC[C@@H](O)[C@H]1O	
InChI=1S/C7H12O2/c1-5-3-2-4-6(8)7(5)9/h3,6-9H,2,4H2,1H3	InChI=1S/C7H12O2/c1-5-3-2-4-6(8)7(5)9/h3,6-9H,2,4H2,1H3/t6-,7+/m1/s1
