16
gdb 94149	1.93487	1.72003	1.1918	1.3536	77.64	-0.2419	0.0082	0.2501	1088.1248	0.121283	-400.640151	-400.630856	-400.629912	-400.674267	34.569	
O	 0.1804449275	 1.3565143838	-0.1850550909	-0.41839
C	 0.0914805385	-0.0168216841	 0.0179717312	 0.126658
C	 0.1764440348	-0.5185790743	 1.4810740876	-0.211008
N	-1.2984001869	-0.6441006834	 1.5148244783	-0.335509
C	-1.3935903931	-0.6249210933	 0.0217229412	-0.130353
C	-2.4374439782	 0.2525585337	-0.4935250019	 0.289818
C	-3.2634728224	 1.0224862416	-0.9047870898	-0.414882
C	-1.4420728193	-1.9485258428	-0.5940059046	 0.298773
C	-1.4454226303	-3.0572469351	-1.0597258431	-0.457784
H	-0.5242921137	 1.7877931329	 0.313721822	 0.29354
H	 0.7604363074	-0.4908132421	-0.6991844013	 0.110607
H	 0.7256457034	-1.4648836204	 1.5655340249	 0.106758
H	 0.5799167696	 0.1995081346	 2.2017278243	 0.109843
H	-1.67084627	-1.4855927584	 1.9414668265	 0.228842
H	-4.0066349951	 1.6849523511	-1.2751670412	 0.20042
H	-1.4640327822	-4.0312303638	-1.4831216532	 0.202668
54.4618	121.0429	130.1683	167.6875	225.6347	296.2314	358.7687	391.8181	470.6675	484.712	554.2073	570.4841	593.3797	633.2746	646.212	650.4971	653.7029	711.5658	850.4266	876.0727	1000.7368	1011.736	1045.728	1077.6426	1115.7661	1163.2582	1193.7683	1223.5312	1305.6284	1323.6316	1373.946	1439.7257	1509.1469	2227.1404	2235.862	3018.8552	3079.0288	3128.2753	3499.4966	3500.2324	3535.6187	3787.3234
OC1CNC1(C#C)C#C	O[C@H]1CNC1(C#C)C#C	
InChI=1S/C7H7NO/c1-3-7(4-2)6(9)5-8-7/h1-2,6,8-9H,5H2	InChI=1S/C7H7NO/c1-3-7(4-2)6(9)5-8-7/h1-2,6,8-9H,5H2/t6-/m0/s1
