18
gdb 40452	3.54754	1.24547	1.12817	0.4871	71.27	-0.2507	0.079	0.3297	1119.1698	0.1492	-439.034415	-439.026817	-439.025873	-439.066895	29.052	
C	 0.0705972098	 1.4687721064	-0.0063783668	-0.190614
O	 1.186526384	 0.5833521913	-0.1271178242	-0.237814
C	-0.1153903848	 0.0114911303	 0.0389955825	 0.002884
C	-0.362056042	-0.7391808163	 1.3030189195	 0.315153
C	 0.1121373424	-0.1979576156	 2.6445460458	-0.175988
O	 0.0229305538	-1.2969155553	 3.5481191761	-0.26243
C	 0.2766915248	-2.4923818017	 2.8135352885	-0.108953
C	-0.2637028943	-2.2216088374	 1.4223779891	-0.088702
N	-1.5756508302	-1.5705964796	 1.339546657	-0.38119
H	 0.0350786068	 2.052009059	 0.9125199719	 0.115454
H	-0.1942026226	 2.0153928273	-0.9101455766	 0.121022
H	-0.5157297222	-0.4802303319	-0.8471342525	 0.100951
H	 1.1437071247	 0.1707954781	 2.5443620067	 0.118067
H	-0.5138405412	 0.6040780252	 3.0501663024	 0.110725
H	 1.3540345408	-2.716710598	 2.7587837677	 0.104574
H	-0.2224426281	-3.3120721005	 3.3412580951	 0.115423
H	 0.010635092	-2.8713559401	 0.5976503107	 0.102146
H	-1.9982441837	-1.5213462612	 2.2659259374	 0.23929
68.0666	155.4061	186.8206	255.8807	316.0179	384.6287	420.4727	522.6965	587.4181	711.9475	754.8577	852.5303	873.2882	879.773	908.3628	942.8949	964.553	997.0549	1032.5448	1056.5909	1072.062	1099.1995	1110.8156	1146.9861	1156.1489	1174.2086	1180.1198	1222.0654	1254.9106	1270.0367	1305.3895	1315.4613	1345.1028	1377.2528	1407.6901	1480.5187	1507.649	1521.1126	1532.4907	2981.491	3001.4599	3067.8843	3070.5314	3086.7722	3119.0881	3168.2202	3172.7112	3472.0575
C1OC1C12COCC1N2	C1O[C@H]1[C@]12COC[C@H]1N2	
InChI=1S/C6H9NO2/c1-4-6(7-4,3-8-1)5-2-9-5/h4-5,7H,1-3H2	InChI=1S/C6H9NO2/c1-4-6(7-4,3-8-1)5-2-9-5/h4-5,7H,1-3H2/t4-,5-,6+/m1/s1
