25
gdb 58624	2.24966	1.18677	1.11003	1.6289	87.75	-0.2562	0.0778	0.334	1344.4681	0.226362	-389.484948	-389.474032	-389.473088	-389.520441	41.262	
C	-0.3992150151	 1.350362389	-0.0562817577	-0.394596
C	 0.1939269355	-0.0614959323	-0.1431736551	-0.054625
C	 1.212222485	-0.1661663935	-1.2913983746	-0.385718
C	 0.8234759756	-0.5417964082	 1.1747162492	 0.423727
C	 1.8056578695	 0.3248640228	 1.8484199579	-0.239844
O	 0.4759390075	 0.1994463144	 2.3590367711	-0.284226
C	 0.8133732621	-2.0638690304	 1.3735568954	-0.027768
C	 1.8642184321	-2.5760703241	 2.3657908577	-0.412655
C	-0.5913640452	-2.5186967311	 1.8107916609	-0.388071
H	 0.3758956178	 2.1077082498	 0.1025413793	 0.112321
H	-0.9087323956	 1.5981782392	-0.9929124003	 0.106152
H	-1.1149839908	 1.4300831955	 0.7636839351	 0.131625
H	-0.6318795278	-0.7473479116	-0.3728769377	 0.074976
H	 2.0418710055	 0.5336948006	-1.1419214621	 0.113618
H	 1.6364210958	-1.1716949383	-1.3765709847	 0.11499
H	 0.7404331598	 0.0756327008	-2.2492016633	 0.11356
H	 2.5869648024	-0.1001357122	 2.4730582509	 0.111031
H	 2.0468921433	 1.2979431197	 1.4223071252	 0.105053
H	 1.0272804729	-2.5134072207	 0.3949139216	 0.072661
H	 2.8839681628	-2.3763344385	 2.0233887151	 0.110651
H	 1.7318304346	-2.1112358518	 3.3486607071	 0.13077
H	 1.7641018175	-3.6581097952	 2.4964160214	 0.109624
H	-1.366099842	-2.2153380717	 1.1003799766	 0.114522
H	-0.6317481083	-3.608632959	 1.9001507598	 0.108231
H	-0.8401913849	-2.0834887232	 2.783174791	 0.133992
60.0512	73.1897	196.0046	210.9596	214.5556	230.1272	237.5572	262.8975	304.1075	306.2006	336.6284	389.8573	412.176	464.9797	513.3643	596.4815	657.7999	821.5079	853.2718	897.3847	920.8527	928.395	933.111	954.9181	968.0586	977.6837	1092.5447	1097.6836	1118.5693	1122.1099	1143.4644	1164.1265	1178.0018	1204.0638	1224.3095	1334.4782	1340.1734	1351.0934	1379.8078	1392.2386	1399.2685	1404.3131	1417.9258	1426.9742	1483.4806	1488.9815	1491.5798	1494.6702	1500.9638	1505.8539	1509.7181	1515.97	1536.8712	3017.8509	3021.0077	3030.3929	3032.9211	3040.2683	3040.4929	3092.5181	3095.8084	3100.2326	3101.4778	3102.9898	3106.3108	3107.3162	3117.0932	3135.4715	3178.1224
CC(C)C1(CO1)C(C)C	CC(C)C1(CO1)C(C)C	
InChI=1S/C8H16O/c1-6(2)8(5-9-8)7(3)4/h6-7H,5H2,1-4H3	InChI=1S/C8H16O/c1-6(2)8(5-9-8)7(3)4/h6-7H,5H2,1-4H3
