16
gdb 51468	3.23437	1.30051	1.20591	3.4478	65.9	-0.2383	0.017	0.2553	1063.8006	0.124296	-474.973195	-474.965299	-474.964355	-475.006572	28.329	
N	-0.5611833207	 1.1342777547	 0.0776883061	-0.442465
C	-0.5551048697	-0.1055645184	 0.2985445804	 0.144277
O	-1.0517771572	-0.9501794077	-0.6432551778	-0.191208
C	-1.0049920832	-2.3110104476	-0.3321244749	 0.013773
C	-1.8486867793	-2.867687691	 0.8106730236	-0.003531
O	-2.8362112362	-2.023844388	 1.3310912085	-0.259724
C	-3.7046563965	-1.6440161993	 0.2640679503	 0.027212
O	-3.4543534319	-2.5075091161	-0.833644299	-0.250254
C	-2.2365999138	-3.152538728	-0.6090967976	 0.023968
H	-0.1624740551	 1.63057816	 0.8719871102	 0.232833
H	-0.1876355487	-0.62291904	 1.1923995399	 0.100911
H	-0.0454801237	-2.7930582083	-0.5160870514	 0.111485
H	-1.4635182393	-3.576370457	 1.5334794003	 0.118922
H	-4.7452303703	-1.7626802735	 0.5880482599	 0.119087
H	-3.5007382731	-0.6063511715	-0.0242813911	 0.13188
H	-2.1622090715	-4.1071623882	-1.1141918775	 0.122833
57.0514	124.9454	126.4669	177.9224	228.889	287.7872	524.6581	589.6764	691.5137	748.1304	770.7698	777.4223	798.4665	826.974	942.856	946.8237	1008.2223	1042.6744	1048.9643	1085.6094	1097.3466	1098.5903	1126.1873	1152.5213	1169.2907	1212.0781	1234.9452	1280.2059	1301.3509	1340.7321	1405.7778	1423.0824	1443.5693	1548.7946	1747.2056	3024.3262	3055.6346	3072.0966	3111.7933	3188.5462	3200.0634	3519.6433
N=COC1C2OCOC12	[NH][CH]O[C@H]1[C@H]2OCO[C@@H]12	
InChI=1S/C5H7NO3/c6-1-7-3-4-5(3)9-2-8-4/h1,3-6H,2H2	InChI=1S/C5H7NO3/c6-1-7-3-4-5(3)9-2-8-4/h1,3-6H,2H2/t3-,4+,5-
