21
gdb 62578	3.41559	1.42777	1.28308	1.3319	82.59	-0.2369	0.0722	0.3091	1079.4311	0.184103	-387.046265	-387.038523	-387.037579	-387.077805	32.425	
C	 0.0666813992	 1.5012123879	 0.0468204617	-0.441833
C	-0.0768561271	-0.0104480907	-0.0231390718	 0.356852
O	-1.3509290713	-0.3799029359	-0.4910919911	-0.457062
C	 1.2099081995	-0.758116712	-0.3241808008	-0.109353
C	 0.5920506509	-0.767150374	 1.0898765526	-0.070724
C	 0.4609252701	-2.2872883264	 1.3003305324	-0.053855
C	 1.8770303814	-2.7504283509	 0.8000257556	-0.202517
C	 1.2866731107	-2.2755024338	-0.5764712018	-0.061142
C	-0.0570239782	-2.8549512099	-0.0503390786	-0.23377
H	 1.0346894091	 1.8012323388	 0.4574820284	 0.117414
H	-0.0224849613	 1.9429332057	-0.9535136121	 0.105298
H	-0.7248295539	 1.9227690547	 0.6740421334	 0.126085
H	-1.4042714046	-0.1173526723	-1.417222013	 0.277876
H	 2.0916515278	-0.169916537	-0.5614796721	 0.076146
H	 1.0146201526	-0.1913024134	 1.9079617025	 0.079826
H	 0.0500387354	-2.615649198	 2.255434876	 0.058484
H	 2.7532799197	-2.2223754811	 1.1878989082	 0.083793
H	 2.0231010416	-3.8330010346	 0.8583096771	 0.089164
H	 1.7155175477	-2.5939228387	-1.5275973499	 0.054578
H	-0.0282650189	-3.9473403838	-0.0449955376	 0.084418
H	-0.9957462504	-2.4925346846	-0.4524918791	 0.120323
166.1438	220.8368	242.2607	261.5576	290.3232	369.3578	402.6193	517.343	571.506	616.5557	660.6377	701.3315	778.3456	802.1048	837.2414	839.2087	880.7223	899.7902	952.6257	964.8875	1011.1006	1014.4079	1027.3563	1045.3835	1057.3701	1077.9103	1095.0058	1101.5837	1110.613	1132.0133	1156.6099	1220.1575	1243.4387	1250.7239	1262.8668	1283.4454	1305.7167	1311.5959	1328.8162	1411.0847	1428.044	1488.417	1488.8662	1499.848	1526.5401	3025.0014	3044.9768	3074.3824	3090.592	3101.7076	3106.4804	3111.1347	3117.0682	3141.2913	3151.314	3204.3015	3789.4342
CC1(O)C2C1C1CC2C1	C[C@@]1(O)[C@H]2[C@@H]1[C@@H]1C[C@H]2C1	
InChI=1S/C8H12O/c1-8(9)6-4-2-5(3-4)7(6)8/h4-7,9H,2-3H2,1H3	InChI=1S/C8H12O/c1-8(9)6-4-2-5(3-4)7(6)8/h4-7,9H,2-3H2,1H3/t4-,5+,6-,7+,8-
