16
gdb 66444	2.70281	1.72212	1.36261	1.9327	68.14	-0.2029	0.0508	0.2537	972.938	0.121753	-437.751315	-437.743167	-437.742223	-437.783478	31.474	
C	 0.0810368869	 1.5212853733	 0.03784305	-0.52395
C	-0.0283705359	 0.0401121965	-0.0926043059	 0.272878
C	 0.8281311479	-0.9846877956	-0.7644774148	-0.208537
N	 0.7747506608	-0.9272222906	 0.7421636289	-0.202485
C	-0.3948033864	-1.904241108	 0.7304060751	-0.169829
C	-0.3534822186	-2.0024565532	-0.7883004307	 0.266488
O	-0.7774457192	-2.9481666722	-1.6781576643	-0.450751
C	-1.2367314463	-0.9614114991	-0.1010459135	 0.276076
O	-2.5934572972	-0.8130712834	-0.1177135404	-0.448447
H	 1.1324066477	 1.8099172679	 0.134271151	 0.135143
H	-0.3362324379	 2.0289604799	-0.8386063971	 0.122001
H	-0.4528124309	 1.8774079211	 0.9253294542	 0.134133
H	 1.759338706	-0.8939178723	-1.3153784563	 0.094472
H	-0.6374465304	-2.5991205303	 1.5246692598	 0.106863
H	-0.2607248406	-3.7527077861	-1.5518670223	 0.296958
H	-2.8951142859	-0.8095394378	-1.0340527335	 0.298984
152.7751	177.6921	190.0223	203.0953	299.2832	334.4429	351.8277	403.1306	464.5163	561.393	644.5721	663.3387	723.4766	756.6015	785.2509	808.0969	880.3622	922.3379	940.2627	976.5868	1001.811	1014.722	1076.4791	1095.2261	1175.6141	1194.4049	1238.6679	1286.9542	1288.3321	1384.5873	1413.5099	1426.1133	1477.0904	1488.9408	1507.9121	3030.2573	3095.914	3108.6031	3154.2663	3192.3091	3775.5112	3777.2366
CC12C3N1C1C3(O)C21O	C[C@@]12[C@H]3N1[C@@H]1[C@@]3(O)[C@]21O	
InChI=1S/C6H7NO2/c1-4-2-5(8)3(7(2)4)6(4,5)9/h2-3,8-9H,1H3	InChI=1S/C6H7NO2/c1-4-2-5(8)3(7(2)4)6(4,5)9/h2-3,8-9H,1H3/t2-,3-,4+,5-,6-,7?/m1/s1
