21
gdb 116226	2.33572	1.40319	1.04661	1.7978	78.	-0.2442	0.0755	0.3197	1216.1254	0.183099	-424.20699	-424.198023	-424.197078	-424.241029	33.833	
O	-0.0146901276	 1.4216038653	-0.2705446448	-0.425183
C	 0.0546465878	 0.0011981596	-0.2569689553	-0.079573
C	-1.3245661899	-0.5235080643	 0.1405432286	-0.090268
C	-2.3567840806	-0.2320985924	-0.95886575	-0.089762
O	-2.1720668925	-1.2754375143	-1.9100660173	-0.258214
C	-1.9329340307	-2.4758916312	-1.1866194249	-0.138438
C	-1.3949296338	-2.0519051499	 0.1908037155	 0.329251
C	-0.4196858381	-2.9096498486	 0.9537187017	-0.326287
C	-1.8464407904	-2.7817580727	 1.4294494386	-0.319313
H	 0.8125510067	 1.7604464052	-0.624002599	 0.287339
H	 0.3222080137	-0.3963791439	-1.2475417822	 0.098873
H	 0.8116828534	-0.3492947276	 0.4604582206	 0.082188
H	-1.6068167793	-0.0653921433	 1.0934513534	 0.079232
H	-3.3795411192	-0.2481582957	-0.5491538865	 0.083846
H	-2.1893885152	 0.7219800083	-1.4620550955	 0.121703
H	-2.8631048257	-3.0570076855	-1.0818773207	 0.090044
H	-1.2203001398	-3.0766432279	-1.762938502	 0.103459
H	-0.1111056865	-3.8491993014	 0.5054728264	 0.112416
H	 0.3565944772	-2.4249406446	 1.5365253886	 0.114379
H	-2.0342893688	-2.2048688963	 2.3292700308	 0.113627
H	-2.5055707607	-3.6351882986	 1.301372954	 0.110683
53.685	105.8128	177.569	195.7259	254.1459	280.7875	289.121	324.2097	449.8208	478.5357	522.5876	701.2216	781.4756	828.1085	864.2658	878.3465	916.6161	931.8104	949.1628	987.3408	996.6463	1035.9763	1058.0097	1068.9753	1079.903	1098.3937	1114.7161	1143.0242	1190.9516	1201.2726	1230.2394	1245.5344	1266.4523	1277.7053	1280.641	1335.161	1359.8144	1360.4735	1410.6772	1452.7724	1468.7984	1501.483	1512.8502	1518.9113	1527.0443	2969.2922	2976.1264	2980.9591	3014.0435	3051.3147	3068.3681	3116.9723	3118.7529	3123.8254	3197.1656	3212.499	3835.1483
OCC1COCC11CC1	OC[C@H]1COCC21CC2	
InChI=1S/C7H12O2/c8-3-6-4-9-5-7(6)1-2-7/h6,8H,1-5H2	InChI=1S/C7H12O2/c8-3-6-4-9-5-7(6)1-2-7/h6,8H,1-5H2/t6-/m0/s1
