13
gdb 42617	2.80945	1.9225	1.40541	5.1631	61.68	-0.2657	-0.0374	0.2283	875.5414	0.090175	-456.583853	-456.577646	-456.576701	-456.614615	24.405	
O	 0.061860581	 0.0653120409	-0.1396928833	-0.307162
C	-0.0096151311	 1.2415342455	 0.0484251546	 0.443779
C	-1.1336108846	 2.2148422677	 0.1175462293	-0.232576
C	-0.7054262419	 3.435072113	 0.9307125355	 0.095818
O	 0.2592887998	 3.3068468701	 1.9549676801	-0.227514
C	 1.4080450653	 2.7746109437	 1.4067954166	 0.455655
O	 2.412561558	 2.6232292201	 2.0281845345	-0.32234
C	 1.0713029519	 2.3845127172	-0.0239362994	-0.332276
C	-0.1193866695	 3.2956681657	-0.4115585218	-0.112097
H	-2.1699115896	 2.038591676	-0.1404759879	 0.127804
H	-1.4729996647	 4.1581742412	 1.1703862738	 0.14348
H	 1.9240985977	 2.2193872392	-0.6740020239	 0.131139
H	-0.2092922523	 3.9412512899	-1.2722918681	 0.136291
138.0555	153.8611	411.2154	420.3266	486.2394	552.0235	642.938	683.1351	720.6189	753.5459	807.758	850.4047	851.4142	890.1406	900.1566	946.124	975.339	1003.4465	1058.3617	1089.8673	1123.7689	1137.632	1141.8189	1225.035	1266.4639	1299.547	1399.5486	1883.7388	1914.1305	3189.4895	3208.3636	3221.0103	3236.9371
O=C1C2C3OC(=O)C1C23	O=C1[C@H]2[C@H]3OC(=O)[C@@H]1[C@@H]23	
InChI=1S/C6H4O3/c7-4-2-1-3(4)6(8)9-5(1)2/h1-3,5H	InChI=1S/C6H4O3/c7-4-2-1-3(4)6(8)9-5(1)2/h1-3,5H/t1-,2+,3-,5+/m1/s1
