13
gdb 32395	4.2689	1.052	0.84854	4.1564	70.87	-0.2417	-0.0657	0.176	1257.8196	0.089539	-452.770461	-452.762626	-452.761681	-452.803514	27.379	
C	-0.0133545494	 1.4012160729	 0.0092245262	-0.244148
O	-0.0012823889	-0.0294866628	 0.0045981928	-0.271585
C	-1.1908225463	-0.6319024468	 0.0116605753	 0.358171
C	-1.420172934	-1.9814334993	 0.0093289815	-0.152453
O	-2.7718056594	-2.1611437638	 0.0195762977	-0.153088
C	-3.2843445351	-0.9140270677	 0.0253953933	 0.301462
N	-2.3891401852	 0.0363504692	 0.0230695121	-0.381591
C	-4.693961894	-0.7716343287	 0.0366697678	 0.272007
N	-5.8450672668	-0.6536588172	 0.0458979574	-0.32482
H	 1.0346249677	 1.7010594286	 0.0021004704	 0.140537
H	-0.5241922038	 1.7915324246	-0.8757654131	 0.143646
H	-0.5104724575	 1.785889992	 0.9044425321	 0.143652
H	-0.8017272773	-2.8597307111	 0.0021542264	 0.16821
81.1727	136.6597	137.3617	175.8789	255.0371	342.4041	486.4838	496.4574	549.6571	591.4074	669.9291	729.2048	735.3218	747.2769	988.5181	1003.3357	1074.3397	1142.3451	1179.1246	1205.8592	1237.7461	1347.9916	1355.5808	1469.6728	1484.2371	1499.3583	1553.1666	1642.9893	2355.1746	3042.9545	3115.3846	3156.8351	3314.1769
COC1=COC(=N1)C#N	COc1coc(n1)C#N	
InChI=1S/C5H4N2O2/c1-8-5-3-9-4(2-6)7-5/h3H,1H3	InChI=1S/C5H4N2O2/c1-8-5-3-9-4(2-6)7-5/h3H,1H3
