20
gdb 72891	2.97492	1.41093	1.16228	1.5535	78.83	-0.2366	0.0684	0.3051	1117.3135	0.171158	-403.092945	-403.084702	-403.083757	-403.126003	32.786	
O	 0.3945032477	 1.3310330081	-0.5054500644	-0.478636
C	 0.070012713	 0.0539291361	-0.0494321738	 0.437633
C	 0.4354496014	-1.0518547783	-1.0594070685	-0.258664
C	-0.9831701115	-1.6800624615	-0.9087327478	-0.226039
C	-1.4007411571	-0.550863143	 0.0745131478	-0.215202
C	-1.0913323508	-0.8580696709	 1.5412975784	 0.376942
C	-2.0287779913	-0.7851246406	 2.6824582822	-0.315063
N	-1.4318490257	-2.075311518	 2.2753188438	-0.358334
C	 0.3333573387	-0.289929131	 1.4438372672	-0.377746
H	 0.1684512503	 1.9698173059	 0.1789450495	 0.276607
H	 0.6065654619	-0.626218302	-2.0505430377	 0.113958
H	 1.2895207942	-1.6804207198	-0.7940336191	 0.099409
H	-1.5567225167	-1.683851916	-1.8377338509	 0.103782
H	-1.0085149346	-2.6886647862	-0.4871911053	 0.100945
H	-2.3140398448	 0.0037328802	-0.1491721311	 0.064356
H	-1.6896454898	-0.411203514	 3.6458472576	 0.11538
H	-3.0807548802	-0.6054642819	 2.4723543767	 0.109982
H	-2.1128468699	-2.6180836229	 1.7472985362	 0.228694
H	 1.1459104018	-0.9938037974	 1.6449539745	 0.110674
H	 0.4871338934	 0.603412533	 2.0606076645	 0.091322
36.8427	184.9969	238.4361	267.996	315.964	343.9614	376.7767	390.1863	483.341	525.0848	640.7973	697.982	752.4359	810.2287	861.2522	871.5664	908.6682	920.4896	940.7338	951.5357	981.7352	995.7721	1025.0155	1051.9731	1082.5431	1102.7216	1116.9389	1128.6328	1154.442	1212.8444	1226.6571	1237.555	1250.8563	1269.0705	1273.261	1302.2556	1323.703	1384.886	1413.5147	1466.7073	1474.2773	1493.1678	1512.7222	3032.0924	3057.6765	3063.992	3088.7263	3093.8557	3095.822	3106.3653	3125.3333	3179.7332	3479.3217	3806.1728
OC12CCC1C1(CN1)C2	O[C@]12CC[C@H]1[C@]1(CN1)C2	
InChI=1S/C7H11NO/c9-7-2-1-5(7)6(3-7)4-8-6/h5,8-9H,1-4H2	InChI=1S/C7H11NO/c9-7-2-1-5(7)6(3-7)4-8-6/h5,8-9H,1-4H2/t5-,6+,7-/m0/s1
