16
gdb 46697	2.93128	2.01699	1.45861	3.5426	67.81	-0.2389	-0.0116	0.2273	883.1479	0.126495	-437.850167	-437.843626	-437.842682	-437.881104	26.177	
O	 0.1170111647	 0.1356983709	 0.463093276	-0.316393
C	 0.0356330495	 1.255522256	 0.0260939015	 0.365991
C	-1.2374667334	 2.1012426567	 0.0607143041	-0.196216
O	-0.9121680254	 3.3086151344	 0.7648056928	-0.262699
C	 0.0644930339	 4.0514260755	 0.0925570039	 0.108118
C	 1.5617600157	 3.9508941395	 0.3594134387	-0.119626
C	 1.9849753435	 2.5368045625	 0.7542339597	-0.191246
N	 1.1710410609	 1.9904343165	-0.3914156978	-0.125082
C	 0.922378963	 3.355761023	-0.8977877399	-0.104119
H	-1.6279963923	 2.3213372039	-0.942118814	 0.116812
H	-1.997859319	 1.581953214	 0.6428512613	 0.142934
H	-0.2636964528	 5.0575643135	-0.1606001112	 0.108624
H	 2.1697162668	 4.8416403028	 0.4518343034	 0.103381
H	 3.0501970718	 2.3483439607	 0.6004671145	 0.128081
H	 1.6810421092	 2.1647399395	 1.7365100546	 0.134046
H	 1.0341764539	 3.5839889304	-1.9508792674	 0.107394
101.7044	234.4136	275.6054	402.8852	467.5804	501.219	517.235	664.409	688.8277	740.4075	795.939	826.5503	842.2401	929.6553	944.7368	976.7346	998.6086	1024.3706	1034.2302	1073.5973	1080.5232	1103.4716	1107.0553	1166.6533	1191.4964	1233.4473	1256.4579	1277.8501	1308.1841	1331.2537	1346.4088	1411.9276	1480.1123	1509.7437	1829.4615	3014.7404	3058.7687	3113.0999	3131.5106	3149.3859	3180.3803	3201.9416
O=C1COC2C3CN1C23	O=C1CO[C@H]2[C@H]3CN1[C@@H]23	
InChI=1S/C6H7NO2/c8-4-2-9-6-3-1-7(4)5(3)6/h3,5-6H,1-2H2	InChI=1S/C6H7NO2/c8-4-2-9-6-3-1-7(4)5(3)6/h3,5-6H,1-2H2/t3-,5+,6-/m0/s1
