19
gdb 98879	3.74825	0.99069	0.9112	2.9489	77.42	-0.2439	-0.0281	0.2157	1333.5894	0.159094	-423.053181	-423.044302	-423.043358	-423.087982	32.391	
O	-0.0629666648	 1.3813089326	-0.5165306423	-0.42071
C	-0.0369028366	 0.0271992456	-0.1812328589	-0.13345
C	-1.4424642383	-0.5534951045	-0.0897854323	 0.354193
O	-2.3927122954	 0.186678038	-0.2356042264	-0.325886
C	-1.5821186238	-2.0505937189	 0.1654843898	-0.141421
C	-2.9998438001	-2.4624083072	 0.6404514575	-0.227098
C	-3.7182708401	-3.0407391421	-0.6072289576	-0.248565
C	-2.5878356517	-3.3114727413	-1.5673771049	-0.042038
C	-1.4318649326	-2.7956724048	-1.1560878198	-0.086356
H	-1.0060938156	 1.6108200859	-0.5469476468	 0.293417
H	 0.5418289988	-0.5543602332	-0.9169310385	 0.116693
H	 0.4533671512	-0.1406095405	 0.7942414119	 0.113348
H	-0.7976222264	-2.3423356727	 0.8757932808	 0.088321
H	-2.9066349622	-3.2346563867	 1.4085416827	 0.104123
H	-3.5361421892	-1.6168067171	 1.0728883738	 0.121818
H	-4.2952379954	-3.9425251754	-0.373551898	 0.106197
H	-4.4270989332	-2.3230186456	-1.0395956839	 0.124419
H	-2.7249551812	-3.8542241547	-2.4963981466	 0.100803
H	-0.4898014535	-2.8447901075	-1.6899454504	 0.10219
42.9962	62.4641	99.8178	193.0525	214.8034	322.3405	367.4654	402.0497	444.843	557.0036	618.2919	724.9485	751.8085	786.6976	812.1043	872.5487	909.1297	918.3601	968.1836	973.3065	1023.9758	1031.3053	1059.8648	1100.5997	1134.7317	1151.1208	1179.8929	1216.3208	1247.6032	1268.6421	1301.8826	1313.1715	1316.9187	1359.342	1374.6205	1451.8095	1473.963	1489.5808	1492.7491	1683.2399	1791.3848	2957.5331	2990.5537	3020.8264	3028.0292	3056.5617	3073.8799	3129.5381	3184.4774	3210.1755	3677.7931
OCC(=O)C1CCC=C1	OCC(=O)[C@H]1CCC=C1	
InChI=1S/C7H10O2/c8-5-7(9)6-3-1-2-4-6/h1,3,6,8H,2,4-5H2	InChI=1S/C7H10O2/c8-5-7(9)6-3-1-2-4-6/h1,3,6,8H,2,4-5H2/t6-/m1/s1
