23
gdb 87450	2.66666	1.34676	1.22917	0.2395	91.1	-0.2548	0.0899	0.3447	1195.4929	0.205377	-351.098955	-351.090007	-351.089063	-351.131952	35.647	
C	-0.064927823	 1.5321034097	-0.0399354564	-0.40376
C	 0.0087174053	 0.0211025649	 0.0217550321	-0.120549
C	 1.3474199038	-0.6901458345	-0.2047297877	-0.407654
C	 0.6968690109	-0.6861025578	 1.1368983232	 0.44396
C	 1.180739972	-0.242900979	 2.5299949184	-0.134482
C	-0.2039531276	-0.7157418299	 3.0646796265	-0.253295
C	 0.2564877439	-1.8370418237	 2.0742266885	 0.251194
C	-0.476148438	-3.0969886861	 1.701540481	-0.517664
C	 1.6726630188	-1.7078022616	 2.7273705721	-0.252932
H	 0.828445588	 1.9876545039	 0.4000674282	 0.112868
H	-0.1419893953	 1.8853340833	-1.0745184113	 0.114183
H	-0.9335325312	 1.9147269166	 0.5079460892	 0.114782
H	-0.8544189872	-0.4870875667	-0.4059074469	 0.077534
H	 1.3473696269	-1.6039583899	-0.7922974562	 0.104242
H	 2.221734644	-0.0641592012	-0.3629376481	 0.105544
H	 1.7127855935	 0.672114056	 2.791337716	 0.06865
H	-0.2467674556	-0.9936996512	 4.1224552396	 0.081358
H	-1.0757202989	-0.1279636666	 2.7657636569	 0.088713
H	-1.451121397	-2.8705433467	 1.2551649859	 0.118309
H	 0.0969038102	-3.6868665224	 0.9771791532	 0.118688
H	-0.6502687018	-3.726289574	 2.581047291	 0.119604
H	 2.5222520253	-2.027412016	 2.1185976233	 0.08969
H	 1.760854653	-2.0541167172	 3.7618208116	 0.081018
130.3577	147.9964	174.5359	201.0438	220.4335	265.8076	316.4285	406.9418	427.3562	482.0458	605.0554	614.7105	643.6645	761.0935	788.1651	819.6543	885.43	894.5796	899.1715	934.7537	960.9288	989.4212	1012.5922	1023.7309	1029.3166	1053.6946	1077.7357	1102.892	1108.8392	1130.3489	1157.4137	1175.5371	1180.3368	1185.4248	1210.9367	1224.3607	1228.8573	1323.7838	1344.3534	1409.128	1413.3171	1435.493	1489.2475	1489.856	1490.8582	1492.5132	1495.2659	1509.1583	1541.1202	3023.8544	3024.0205	3040.9121	3046.3212	3084.1314	3089.4316	3091.2304	3093.2117	3108.8839	3110.0212	3110.7686	3113.8221	3116.7865	3190.9704
CC1CC11C2CC1(C)C2	C[C@H]1C[C@]21[C@H]1C[C@]2(C)C1	
InChI=1S/C9H14/c1-6-3-9(6)7-4-8(9,2)5-7/h6-7H,3-5H2,1-2H3	InChI=1S/C9H14/c1-6-3-9(6)7-4-8(9,2)5-7/h6-7H,3-5H2,1-2H3/t6-,7-,8+,9-/m0/s1
