24
gdb 59937	2.17985	1.12125	0.92039	3.871	89.31	-0.3026	0.0431	0.3457	1444.88	0.214864	-368.447403	-368.436157	-368.435213	-368.483432	41.604	
C	-0.5231494713	 1.0344179198	-0.4511112783	-0.387957
C	-0.0476698637	-0.3886105905	-0.125560536	 0.017029
C	 0.7961203159	-0.9437382962	-1.2842976528	-0.386864
C	 0.7654540749	-0.4933181597	 1.1801763122	-0.188813
C	 0.060140606	-0.2224078465	 2.5420670028	 0.070905
C	-1.2574941678	-1.0160939205	 2.6800613974	-0.405792
C	 1.0285420917	-0.6277446144	 3.6808789373	-0.40114
C	-0.2276297927	 1.2123781133	 2.7144596429	 0.281473
N	-0.4441249024	 2.3345389897	 2.8911477794	-0.354711
H	 0.3274685774	 1.7212689374	-0.5310255645	 0.117843
H	-1.0513152931	 1.0469441716	-1.4102464669	 0.107718
H	-1.1975247838	 1.4388492261	 0.306412752	 0.136263
H	-0.9323105949	-1.0321616439	-0.0313485654	 0.075787
H	 1.7036169737	-0.3457062085	-1.4299638378	 0.115735
H	 1.1044848911	-1.9784467392	-1.1003012728	 0.108404
H	 0.2326984722	-0.9225379178	-2.2224637746	 0.113667
H	 1.159162814	-1.5155105286	 1.2509113365	 0.096799
H	 1.6404730798	 0.1657271365	 1.110921124	 0.106941
H	-1.0612969718	-2.0806827453	 2.517567032	 0.121067
H	-1.6776110995	-0.8926554918	 3.6818548652	 0.130813
H	-2.007825316	-0.6888937972	 1.9575322861	 0.1384
H	 1.9822531798	-0.1006082379	 3.5916506105	 0.133072
H	 0.6004719229	-0.3973552438	 4.6600088126	 0.132632
H	 1.2216881875	-1.7036828328	 3.6312732683	 0.120727
42.7143	104.9769	164.789	187.143	196.1828	225.0735	238.6355	248.9592	273.5737	302.1517	331.3532	367.9395	386.6317	431.7692	443.1855	586.2582	612.4863	710.0418	820.3909	856.4108	907.9715	931.8255	942.9136	949.432	970.7177	998.8903	1032.1753	1098.661	1117.4185	1189.2705	1193.7949	1218.5218	1229.2237	1309.5285	1334.2487	1377.0432	1386.1487	1400.7271	1404.0134	1422.5064	1429.039	1472.0335	1482.1335	1486.927	1488.8726	1494.788	1498.0321	1506.1227	1508.715	1513.5188	2347.1622	3013.3211	3017.4679	3025.72	3034.7788	3040.9346	3045.4117	3057.3172	3090.8259	3095.942	3102.0928	3115.2058	3119.0167	3123.9533	3127.8136	3131.7032
CC(C)CC(C)(C)C#N	CC(C)CC(C)(C)C#N	
InChI=1S/C8H15N/c1-7(2)5-8(3,4)6-9/h7H,5H2,1-4H3	InChI=1S/C8H15N/c1-7(2)5-8(3,4)6-9/h7H,5H2,1-4H3
