18
gdb 86022	2.9611	1.20553	1.16147	4.4604	78.43	-0.265	-0.013	0.252	1169.9025	0.146157	-401.973655	-401.964696	-401.963752	-402.007272	33.373	
C	 0.2303724665	 1.6071624133	-0.0814470684	-0.393776
C	-0.0042420915	 0.1083296556	 0.079479883	 0.072137
O	 0.5555026695	-0.5824130991	-1.0516958462	-0.293301
C	 1.3249937457	-1.705381258	-0.630067155	 0.187663
C	 2.6724854518	-1.7035965157	-1.3625061522	-0.413963
C	 1.4271703664	-1.5453445479	 0.876575258	-0.121261
C	 0.6753283527	-0.5250154778	 1.2643738634	-0.089413
C	 0.5879686406	-2.9587239574	-0.9534533951	 0.257466
N	 0.0230504978	-3.937667939	-1.1948951534	-0.338532
H	 1.301084538	 1.8294306244	-0.0919868423	 0.12327
H	-0.2086766308	 1.9562902875	-1.0197992892	 0.135423
H	-0.2367045776	 2.1570475552	 0.7418626047	 0.119108
H	-1.0890224064	-0.0841117372	 0.1132674103	 0.099518
H	 3.2182446508	-0.7952070701	-1.0975212188	 0.129774
H	 3.2668255259	-2.5781237353	-1.0836361991	 0.133396
H	 2.509481804	-1.721159393	-2.4426271531	 0.147055
H	 2.0205961526	-2.2102765184	 1.4893593959	 0.125243
H	 0.5359092742	-0.1728301271	 2.2786115976	 0.120193
63.4392	137.2779	178.8273	222.3564	228.3759	251.452	299.7081	356.7222	420.139	510.6996	521.8629	587.5551	638.6588	719.9721	782.8226	819.2857	866.2922	883.4306	924.981	960.5048	971.4246	1049.8742	1086.3176	1123.7463	1131.6852	1155.6373	1173.6389	1207.7154	1325.8064	1351.1741	1377.902	1401.4041	1404.0895	1479.5217	1486.409	1486.7448	1495.839	1691.4839	2348.4644	2971.3151	3042.0928	3050.4716	3116.9989	3126.4888	3131.5903	3139.7704	3213.3172	3240.0328
CC1OC(C)(C=C1)C#N	C[C@H]1O[C@@](C)(C=C1)C#N	
InChI=1S/C7H9NO/c1-6-3-4-7(2,5-8)9-6/h3-4,6H,1-2H3	InChI=1S/C7H9NO/c1-6-3-4-7(2,5-8)9-6/h3-4,6H,1-2H3/t6-,7+/m1/s1
