22
gdb 70615	2.36279	1.79712	1.30441	1.3664	85.13	-0.2219	0.0862	0.3081	1078.6804	0.195566	-367.189809	-367.181556	-367.180612	-367.222012	33.753	
C	-0.3289515849	 1.417863007	 0.1043094111	-0.489748
C	-0.1102507865	-0.0729664539	 0.0199847535	 0.277269
C	-0.4451194847	-0.9524133568	 1.1771986865	-0.297891
N	 0.9611899568	-0.6495284375	 0.8642789322	-0.138986
C	 1.6260058967	-1.7023301146	 0.0731887936	-0.152337
C	 0.7135011156	-2.0505471995	-1.126346111	-0.337559
C	-0.0962175755	-0.7689353865	-1.3284444391	 0.350279
C	-1.2587756601	-0.7177295829	-2.2830149469	-0.324789
C	 0.0189090319	 0.0154265789	-2.6149451176	-0.320293
H	 0.4488810145	 1.9656089577	-0.4371006925	 0.123089
H	-1.3014488692	 1.7025185004	-0.3142877212	 0.114523
H	-0.3031290086	 1.7443814034	 1.1465402037	 0.125603
H	-0.8045323487	-0.5079004482	 2.1016587558	 0.10766
H	-0.826600825	-1.9525939481	 0.9866361599	 0.104779
H	 2.579070055	-1.2897840228	-0.275151925	 0.106501
H	 1.8505982556	-2.5665489813	 0.7061572197	 0.102334
H	 1.284773272	-2.3312323978	-2.0151616298	 0.100612
H	 0.055416813	-2.8941037374	-0.8917700239	 0.105025
H	-1.4993008184	-1.6168030597	-2.8413558694	 0.109661
H	-2.1246396018	-0.1245343996	-2.0065164139	 0.112078
H	 0.005254605	 1.098604147	-2.5752472639	 0.113268
H	 0.6548889373	-0.3906761777	-3.3948852819	 0.108923
105.8508	197.8979	228.2829	240.0599	286.264	357.229	377.024	437.5054	455.2469	541.4048	614.1006	654.9004	768.6302	780.5655	800.6809	818.5474	900.6221	907.4018	937.3512	945.3924	967.2239	976.5396	990.0427	1042.0497	1057.9428	1080.2218	1101.9686	1107.2669	1111.3863	1166.605	1177.9269	1189.6669	1210.7087	1251.2294	1297.6626	1317.3007	1341.9291	1362.4738	1387.2277	1417.2009	1465.3919	1485.7312	1490.8406	1498.3079	1499.5701	1505.4676	1518.8938	3031.4824	3041.4094	3042.7858	3081.3811	3094.1672	3095.2635	3101.6249	3120.2924	3123.4358	3132.6113	3182.8845	3202.159	3220.3964
CC12CN1CCC21CC1	C[C@]12CN1CCC12CC1	
InChI=1S/C8H13N/c1-7-6-9(7)5-4-8(7)2-3-8/h2-6H2,1H3	InChI=1S/C8H13N/c1-7-6-9(7)5-4-8(7)2-3-8/h2-6H2,1H3/t7-,9?/m1/s1
