18
gdb 64698	4.51738	0.81583	0.78845	2.8652	79.99	-0.2501	-0.031	0.2192	1460.617	0.144326	-401.900407	-401.890699	-401.889755	-401.935339	35.229	
C	-0.1357326055	 1.7024895053	 0.2414353902	-0.451978
C	 0.0099983186	 0.2062340958	 0.0507051942	 0.319952
C	-1.2691493392	-0.5050731338	-0.407066472	-0.427662
C	-1.6974587932	-0.0971120141	-1.7419299803	 0.309489
C	-2.0318396589	 0.2448693591	-2.8444053489	-0.440909
N	 1.2835275669	-0.2538113374	-0.4828482358	-0.353017
C	 0.9337462748	-0.6239462426	 0.9071218484	-0.174339
C	 1.7859434675	-0.0351315099	 1.9777647666	 0.168397
O	 1.8661726305	-0.4948478037	 3.0897153144	-0.25891
H	 0.8288385273	 2.1697100673	 0.4438414799	 0.13306
H	-0.545749081	 2.1516574219	-0.6682888676	 0.141019
H	-0.8173040893	 1.926838403	 1.068759298	 0.124645
H	-1.1098737355	-1.5905467477	-0.3899791709	 0.131341
H	-2.0712541222	-0.3020568079	 0.3144093111	 0.14403
H	-2.3351266936	 0.5418648835	-3.8179121109	 0.203626
H	 1.1664905469	-1.0524154629	-1.1020193174	 0.242705
H	 0.607368934	-1.6386247138	 1.1250176191	 0.100732
H	 2.3577059419	 0.866342018	 1.6700095818	 0.087818
52.0824	97.6017	104.5184	184.2272	194.0436	265.3004	329.9956	353.2153	375.1058	401.7897	410.5877	509.6665	571.5862	629.7974	652.7518	731.1208	817.193	907.8361	923.472	961.5745	971.3165	1018.7208	1041.6222	1080.8633	1084.6973	1116.1908	1206.8925	1221.1281	1255.8011	1336.7101	1347.6889	1394.6434	1418.0849	1448.4353	1463.5953	1488.4463	1503.2779	1819.7954	2238.6264	2906.9148	3019.9561	3043.8547	3054.8249	3108.3551	3138.5673	3143.0044	3501.5772	3504.5958
CC1(CC#C)NC1C=O	C[C@@]1(CC#C)N[C@H]1C=O	
InChI=1S/C7H9NO/c1-3-4-7(2)6(5-9)8-7/h1,5-6,8H,4H2,2H3	InChI=1S/C7H9NO/c1-3-4-7(2)6(5-9)8-7/h1,5-6,8H,4H2,2H3/t6-,7-/m0/s1
