18
gdb 74780	3.12133	1.4355	1.40027	3.2762	78.23	-0.2423	-0.0053	0.237	1027.5175	0.149958	-401.970615	-401.963314	-401.96237	-402.002178	29.291	
C	-0.0076370323	 1.4942400476	 0.0490635886	-0.517826
C	-0.0600516706	 0.0063741089	-0.0260179134	 0.350028
C	-0.0627260669	-0.8122666368	-1.0848792303	-0.196761
C	 0.0156330802	-2.2499171914	-0.567026963	-0.144538
C	-0.8249668197	-2.11284271	 0.7349260805	-0.234087
C	 0.0272973787	-0.9201626986	 1.188523914	 0.001341
O	 1.3758469391	-1.5191874193	 1.1705374188	-0.266515
C	 1.3978388015	-2.3459929882	 0.0749319415	 0.445132
N	 2.37637419	-3.0398919569	-0.3157435478	-0.567787
H	 0.9225185655	 1.8281087671	 0.5263172852	 0.140371
H	-0.0600582595	 1.9472851022	-0.9445433308	 0.130896
H	-0.8315765254	 1.8964707873	 0.6517272891	 0.128303
H	-0.0134027577	-0.5406148683	-2.1312992672	 0.110097
H	-0.2046283565	-3.0522963304	-1.2652086812	 0.093132
H	-1.8678716787	-1.8594226305	 0.5416463323	 0.111546
H	-0.7502156909	-2.9695573139	 1.4106744187	 0.1136
H	-0.1259503563	-0.4915099332	 2.1770348877	 0.08337
H	 3.1808406593	-2.9006141855	 0.2993187472	 0.219698
121.9671	177.8917	205.3833	296.147	392.1353	444.2712	491.9279	524.6108	594.6184	697.7319	732.8908	766.8734	823.2168	869.2399	883.1494	890.1697	915.8986	931.3652	953.6928	967.8169	1007.4727	1015.9943	1053.4927	1072.5637	1129.4723	1151.7634	1224.3446	1249.1188	1257.6129	1264.0274	1286.5785	1331.168	1357.5489	1413.1248	1478.7889	1485.8493	1491.4929	1693.4318	1785.1882	3018.5078	3065.844	3068.4059	3112.7619	3139.0893	3144.0185	3166.8128	3217.6662	3460.8805
CC1=CC2CC1OC2=N	CC1=C[C@@H]2C[C@H]1O[C]2[NH]	
InChI=1S/C7H9NO/c1-4-2-5-3-6(4)9-7(5)8/h2,5-6,8H,3H2,1H3	InChI=1S/C7H9NO/c1-4-2-5-3-6(4)9-7(5)8/h2,5-6,8H,3H2,1H3/t5-,6-/m1/s1
