20
gdb 13812	2.81481	1.62716	1.14029	3.1931	71.28	-0.2451	0.0619	0.307	1088.5731	0.176658	-386.126363	-386.117502	-386.116558	-386.159383	33.629	
C	 0.0853369336	 1.3384194689	-0.1741367028	-0.399858
C	 0.1112698524	-0.1854660192	-0.0739115192	 0.105082
O	 0.7948800256	-0.7545050896	-1.2093473107	-0.424344
C	 0.7102504882	-0.6648918409	 1.2323049908	-0.013593
C	-0.1641643806	-1.0500849714	 2.403791871	-0.317022
C	 0.6146839958	-2.1117513968	 1.6698092816	-0.035487
C	-0.0849568024	-3.1448146981	 0.8074930233	-0.076615
O	 0.6783440262	-3.5226232917	-0.3192993467	-0.432173
H	 1.0994953441	 1.7493482904	-0.0953730931	 0.108869
H	-0.3392179936	 1.6535948504	-1.1307641435	 0.126238
H	-0.5108441532	 1.7686170714	 0.6363804515	 0.126126
H	-0.9104300075	-0.5655876836	-0.1718061586	 0.096085
H	 1.715429978	-0.4698594346	-1.1688798825	 0.28241
H	 1.6429071372	-0.1625374295	 1.4862849336	 0.07593
H	 0.1443186316	-0.7609297091	 3.4021674893	 0.113537
H	-1.2394454066	-1.0270221928	 2.2501426733	 0.112592
H	 1.4999929968	-2.4935721515	 2.1710579071	 0.089603
H	-0.2492043617	-4.0570208324	 1.3925803368	 0.102418
H	-1.0834648014	-2.7767337971	 0.5175088777	 0.074688
H	 0.8122606675	-2.7115568828	-0.834371829	 0.285516
91.1682	154.8502	190.1892	194.0215	246.6743	306.903	313.528	331.025	383.5478	467.2871	509.2547	582.8108	651.8514	781.3791	809.7954	853.4871	891.2244	946.2651	987.1104	1008.8962	1020.1795	1064.1007	1080.4989	1087.6642	1102.2167	1136.7942	1164.9441	1185.2464	1227.6186	1256.8732	1282.547	1330.0937	1365.8189	1403.5992	1413.0256	1417.4445	1436.1246	1480.7917	1490.5516	1492.0434	1495.1167	1509.2643	2959.686	3027.9825	3055.9519	3063.426	3099.0879	3110.6367	3123.8114	3124.7947	3145.4426	3210.0623	3683.1838	3795.8162
CC(O)C1CC1CO	C[C@@H](O)[C@H]1C[C@H]1CO	
InChI=1S/C6H12O2/c1-4(8)6-2-5(6)3-7/h4-8H,2-3H2,1H3	InChI=1S/C6H12O2/c1-4(8)6-2-5(6)3-7/h4-8H,2-3H2,1H3/t4-,5+,6-/m1/s1
