15
gdb 35005	3.1011	1.30252	1.10638	3.0567	78.33	-0.2568	-0.0116	0.2452	1097.7915	0.112093	-379.599935	-379.59196	-379.591016	-379.632422	30.077	
C	 0.0890181867	-1.1869129868	-0.0166714625	-0.357325
C	 0.0361936958	 0.0143525246	 0.0052264477	 0.184097
C	-0.0682088951	 1.434967178	 0.0115799144	 0.156543
C	-0.8366451871	 2.2821288953	-1.0100334228	-0.314738
C	 0.3557578398	 3.2689138279	-0.9560321126	-0.16559
N	 1.1296030689	 2.3933842756	 0.0025561476	-0.16921
C	 0.296020078	 2.2470521091	 1.2166977526	-0.203365
C	-0.5533776806	 3.3026553778	 1.7081375092	 0.316202
N	-1.2340680132	 4.1528552119	 2.0979799505	-0.340979
H	 0.1442802416	-2.2475917674	-0.0326157703	 0.202066
H	-0.9290107461	 1.7762839712	-1.9708875879	 0.134212
H	-1.8174540689	 2.6404733568	-0.6909793128	 0.135334
H	 0.9130162431	 3.3389081059	-1.8901479188	 0.129305
H	 0.1609135797	 4.2721551915	-0.5702791719	 0.140818
H	 0.8228736075	 1.7071963685	 1.9974967077	 0.152629
108.3229	135.3792	173.1686	194.5671	311.4863	384.7651	470.7563	500.249	531.7391	578.2066	614.2741	631.2236	671.9978	770.217	787.4027	793.3065	868.8614	966.0264	977.5823	1001.9308	1072.4591	1096.9261	1171.5946	1216.9265	1218.7319	1256.5119	1288.6644	1310.6901	1400.88	1486.5432	1507.5147	2237.1559	2349.8672	3078.7389	3084.	3134.207	3150.9184	3169.173	3500.39
C#CC12CCN1C2C#N	C#C[C@]12CCN1[C@H]2C#N	
InChI=1S/C7H6N2/c1-2-7-3-4-9(7)6(7)5-8/h1,6H,3-4H2	InChI=1S/C7H6N2/c1-2-7-3-4-9(7)6(7)5-8/h1,6H,3-4H2/t6-,7+,9?/m0/s1
