18
gdb 68624	2.43133	1.67456	1.37521	5.194	75.46	-0.2444	0.0111	0.2555	1005.4667	0.150499	-398.102171	-398.094459	-398.093515	-398.134024	30.681	
N	-0.0547880888	 1.4358866429	 0.1184629981	-0.612034
C	 0.011555421	 0.016778483	 0.0021840966	 0.322604
C	 0.3245101549	-0.8359846982	-1.2737280226	-0.22928
N	-0.4036106928	-1.9620379036	-0.5719574797	-0.128826
C	 0.5319582685	-2.1813874229	 0.5806554735	-0.177096
C	 0.860463213	-0.7272189461	 1.046429579	-0.267594
C	-1.289747591	-0.8627031479	-0.0034821604	-0.147277
C	-2.0071790855	-1.1327490208	 1.2322902828	 0.293894
N	-2.5608075309	-1.3315034811	 2.2277150472	-0.33754
H	 0.8547315296	 1.8428158707	 0.3050677587	 0.237436
H	-0.4292147092	 1.8726799768	-0.7167299343	 0.233849
H	-0.22739976	-0.5198333193	-2.1630242153	 0.106275
H	 1.3656388582	-1.0540885167	-1.5255919469	 0.104453
H	 0.0367074042	-2.7768324054	 1.3491744129	 0.135571
H	 1.4040642632	-2.7317418679	 0.2223578908	 0.112395
H	 1.9208090103	-0.4716867266	 0.9575473917	 0.098656
H	 0.535485657	-0.5139404704	 2.0672938421	 0.13312
H	-1.9982436018	-0.5446636366	-0.7727745842	 0.121391
135.0383	149.865	233.0248	287.6691	331.5223	374.1915	419.0765	489.9276	525.7104	580.5173	618.7004	746.7664	774.4082	823.4833	843.5638	857.1878	866.4152	923.5308	942.7361	969.8221	994.7078	1051.6437	1075.6418	1099.9746	1154.9196	1178.7973	1214.3953	1225.9385	1239.641	1255.7172	1307.5846	1347.6519	1356.0265	1385.3511	1497.2361	1502.1389	1525.1852	1656.7286	2351.9779	3054.6076	3057.2936	3080.6757	3083.6213	3109.43	3119.5458	3135.1329	3512.1947	3594.6567
NC12CN(CC1)C2C#N	N[C@@]12CN(CC1)[C@H]2C#N	
InChI=1S/C6H9N3/c7-3-5-6(8)1-2-9(5)4-6/h5H,1-2,4,8H2	InChI=1S/C6H9N3/c7-3-5-6(8)1-2-9(5)4-6/h5H,1-2,4,8H2/t5-,6+/m0/s1
