20
gdb 40116	2.1576	2.04012	1.27227	1.6619	84.09	-0.2243	0.0208	0.2451	1047.9183	0.17254	-365.981363	-365.973636	-365.972692	-366.013327	31.59	
C	-0.4345769121	 1.3985599132	 0.2516386014	-0.300732
C	 0.9863417436	 1.1034027577	-0.1608729286	-0.329763
C	 0.0068995451	-0.0247900552	 0.0022233275	 0.285516
C	 0.0706725388	-1.0015843886	 1.1863125755	-0.352476
C	-0.8077122631	-2.1427141037	 0.7278889935	-0.09433
C	-1.1378188129	-2.0376344681	-0.5584501298	-0.102228
C	-0.5390355753	-0.8230868984	-1.1776153971	 0.257352
C	-0.9871924363	-0.2103603816	-2.4512816832	-0.301043
N	 0.2269513666	-1.0435623045	-2.4328696605	-0.36473
H	-0.6195700178	 1.6960054299	 1.2790725753	 0.110385
H	-1.0878102372	 1.871355232	-0.4733411736	 0.113846
H	 1.2882270513	 1.3871081479	-1.1657891546	 0.104397
H	 1.7760845236	 1.2049715765	 0.5762733715	 0.115084
H	 1.0939957597	-1.3551113712	 1.3804955367	 0.11019
H	-0.2804615766	-0.5417013185	 2.1174840494	 0.105101
H	-1.0884746715	-2.9594055976	 1.3831444653	 0.095494
H	-1.7191235473	-2.7478486286	-1.1339594849	 0.100288
H	-1.8280161395	-0.6330530073	-2.9960884201	 0.11509
H	-0.8809030158	 0.8661524522	-2.5687045913	 0.106401
H	 1.0517085568	-0.4466190859	-2.4288194924	 0.226159
79.1493	224.2683	246.4299	267.4259	323.6345	371.1066	436.843	512.8888	556.3865	573.7922	734.5584	768.3853	780.5601	847.4618	849.6633	876.6426	922.4867	936.0429	950.0994	967.0522	973.9734	984.4562	987.9543	1030.2418	1055.6008	1070.9632	1082.9656	1105.3312	1141.2128	1179.8608	1190.2548	1219.2909	1265.8097	1280.0846	1300.4064	1331.074	1382.9716	1413.9835	1466.7016	1486.6198	1500.7027	1514.6561	1681.7324	2999.3157	3047.6063	3094.9852	3114.7066	3128.5298	3175.2723	3190.6316	3195.1474	3216.9556	3217.1732	3484.4493
C1CC11CC=CC11CN1	C1CC21CC=C[C@]12CN1	
InChI=1S/C8H11N/c1-2-7(4-5-7)8(3-1)6-9-8/h1,3,9H,2,4-6H2	InChI=1S/C8H11N/c1-2-7(4-5-7)8(3-1)6-9-8/h1,3,9H,2,4-6H2/t8-/m1/s1
