13
gdb 47994	6.44141	0.62049	0.61172	1.6287	71.62	-0.2837	-0.0811	0.2026	1713.0599	0.087272	-456.557551	-456.549142	-456.548198	-456.592439	28.266	
O	 0.0353852884	-0.2921349977	 0.3151584439	-0.219117
C	-0.0133992496	 0.913309629	 0.2494986255	 0.025235
C	 1.1465695026	 1.762123202	 0.1133730491	 0.014804
C	 2.0978687857	 2.4972670926	 0.0014944901	 0.15835
C	 3.2603999543	 3.3437383446	-0.1326911989	-0.064823
C	 3.922567009	 3.4379761978	-1.531612538	-0.422393
C	 3.5275364744	 4.9111303349	-1.4346747837	 0.456239
O	 3.6337310396	 5.8965753499	-2.0840022798	-0.297431
O	 2.9314856101	 4.7783215241	-0.1998359633	-0.233779
H	-0.9735274266	 1.464639118	 0.2899885354	 0.114206
H	 3.9631701875	 3.1717791972	 0.6869868771	 0.143213
H	 4.996155814	 3.2507489245	-1.5627785834	 0.16032
H	 3.4212518106	 2.8878995531	-2.328075494	 0.165177
43.5721	63.4756	96.5747	153.5009	220.2346	281.9482	449.2273	459.4642	520.5346	561.4458	617.1815	743.6358	793.8371	894.0778	927.0076	971.9632	1018.2969	1020.7941	1104.4672	1125.1107	1178.2519	1222.1415	1266.7507	1362.681	1418.8899	1453.1871	1770.7325	1955.68	2329.2361	2935.1076	3080.6726	3102.7751	3165.3512
O=CC#CC1CC(=O)O1	O=CC#C[C@H]1CC(=O)O1	
InChI=1S/C6H4O3/c7-3-1-2-5-4-6(8)9-5/h3,5H,4H2	InChI=1S/C6H4O3/c7-3-1-2-5-4-6(8)9-5/h3,5H,4H2/t5-/m0/s1
