16
gdb 71455	4.14633	1.40073	1.25672	2.4899	69.16	-0.242	0.0235	0.2655	989.6332	0.125644	-437.861664	-437.854696	-437.853751	-437.892769	28.164	
O	-0.0188366768	 1.3721504054	-0.0352648508	-0.45434
C	 0.0669842165	-0.0039614134	-0.041159108	 0.340691
C	 0.7979301677	-0.8499312617	-1.0787949061	-0.301175
C	-0.2011760225	-2.0202002062	-0.7395046902	-0.142157
C	-1.1004794668	-0.9891655181	 0.0007275845	-0.165009
C	-0.2250567679	-0.8339989214	 1.1995219435	 0.004714
O	 0.5213207357	-2.0136954725	 1.4702168151	-0.245281
C	 0.4174825671	-2.8352002539	 0.3673556633	 0.432417
N	 0.826972841	-4.0257030158	 0.3049180312	-0.552179
H	 0.7426804854	 1.7267157519	 0.4380211503	 0.291801
H	 0.6061282818	-0.468430374	-2.0838152457	 0.122026
H	 1.8678123131	-1.043183369	-0.9499610353	 0.109352
H	-0.5894728129	-2.6052332635	-1.566588488	 0.106862
H	-2.1733317192	-0.8641374045	-0.0467293665	 0.110092
H	-0.5602055315	-0.3256028607	 2.0938428655	 0.118558
H	 1.2375076591	-4.3124369027	 1.1954956373	 0.223627
134.6273	225.1032	283.1469	325.7785	364.0698	433.2655	481.5854	555.7408	676.5182	703.9175	735.4166	789.4706	815.2068	868.5433	892.2219	904.7861	913.8011	926.0319	996.401	1005.2947	1040.7661	1052.869	1092.2636	1122.1477	1176.259	1183.4592	1231.9788	1239.1505	1262.1111	1300.2766	1311.7288	1344.9817	1439.6719	1500.6835	1787.7362	3050.2316	3118.9964	3177.6531	3209.2132	3218.1519	3470.1922	3790.0233
OC12CC3C1C2OC3=N	O[C@]12C[C@@H]3[C@H]1[C@H]2O[C]3[NH]	
InChI=1S/C6H7NO2/c7-5-2-1-6(8)3(2)4(6)9-5/h2-4,7-8H,1H2	InChI=1S/C6H7NO2/c7-5-2-1-6(8)3(2)4(6)9-5/h2-4,7-8H,1H2/t2-,3+,4-,6-/m1/s1
