13
gdb 42553	4.65673	1.24551	1.11867	0.9459	66.14	-0.2731	-0.0325	0.2406	1019.2232	0.089909	-415.5685	-415.561768	-415.560824	-415.59992	25.351	
O	-0.0868908062	 0.0792583372	 0.1987813768	-0.294667
C	-0.1019653303	 1.261415316	 0.104360618	 0.438199
C	-1.1332859005	 2.3424421665	-0.2095375401	-0.210563
C	 0.1190674173	 3.0871396252	-0.8117366634	-0.03514
C	 0.457639897	 3.491959544	 0.5553366059	-0.035655
C	-0.9822629588	 3.248302123	 1.06366087	-0.190404
C	-1.7925724131	 4.4555080321	 1.0173823203	 0.27581
N	-2.4327029587	 5.4172155581	 0.9802604586	-0.308708
N	 1.0237414562	 2.1984217929	 0.0383786772	-0.201629
H	-2.1030246179	 2.1418840656	-0.6533078887	 0.130892
H	 0.3992471994	 3.4030666682	-1.8043395096	 0.145578
H	 1.1724920826	 4.2145724159	 0.9237985426	 0.142321
H	-1.107523477	 2.7493766453	 2.0303750425	 0.143966
116.1426	147.994	181.3743	364.6731	450.5657	492.0934	559.4107	622.8282	719.7904	771.6298	793.2869	843.1431	875.2783	899.2587	912.8023	955.0328	1005.8723	1017.1864	1046.1367	1066.5787	1138.2585	1157.2934	1183.5979	1216.8227	1232.4145	1327.1557	1349.1808	1935.1174	2359.0991	3064.1061	3185.162	3221.4498	3254.8875
O=C1C2C3C(C2C#N)N13	O=C1[C@@H]2[C@H]3[C@@H]([C@H]2C#N)N13	
InChI=1S/C6H4N2O/c7-1-2-3-5-4(2)8(5)6(3)9/h2-5H	InChI=1S/C6H4N2O/c7-1-2-3-5-4(2)8(5)6(3)9/h2-5H/t2-,3-,4+,5-,8?/m0/s1
