18
gdb 128126	3.15509	1.22646	0.90484	2.5346	76.91	-0.1806	0.059	0.2397	1277.749	0.149703	-431.44953	-431.439789	-431.438845	-431.483985	35.342	
C	-0.0072026387	 1.3866676154	 0.2851118865	-0.333813
N	-0.0567563884	 0.0626730999	-0.3164319539	-0.385154
C	-1.1810211818	-0.7200987632	-0.1409110519	 0.45616
C	-1.2582397131	-2.1013190658	-0.0267701778	-0.040593
N	-0.1217719941	-2.9578734852	 0.0027310671	-0.633578
C	-2.6531390862	-2.368633507	 0.0405729269	 0.329474
N	-3.2489714899	-3.6313510802	 0.0872043032	-0.592174
N	-3.3838855394	-1.2643960592	-0.0034098012	-0.335126
N	-2.4498462514	-0.2562631081	-0.1098021169	-0.297212
H	 0.984345877	 1.8129602216	 0.1170538501	 0.131522
H	-0.7278066608	 2.0541111885	-0.2009611259	 0.124602
H	-0.2139984713	 1.3908862423	 1.3665442292	 0.117395
H	 0.7693948255	-0.4999004782	-0.1554667612	 0.24723
H	-0.0571262969	-3.4889569081	 0.8660970174	 0.228852
H	-0.1303596926	-3.628384985	-0.7600232203	 0.239485
H	-2.7595719426	-4.2740637875	 0.6967512469	 0.232469
H	-4.22278665	-3.5668728569	 0.3571017996	 0.247213
H	-2.7709526053	 0.6818322066	-0.2614760377	 0.26325
60.625	130.9648	177.5298	197.1664	211.0433	237.5704	252.6896	279.6681	325.368	339.423	436.9057	562.4976	572.1928	668.6196	698.8726	719.9462	766.906	776.2964	809.1292	841.4013	1018.7666	1065.8538	1121.2897	1155.1473	1169.2475	1191.784	1211.6962	1270.272	1340.0368	1427.8847	1462.9426	1488.0947	1496.4761	1517.5959	1540.7439	1591.0719	1634.7292	1644.9457	1683.8187	2982.7413	3058.9701	3119.1948	3480.4974	3531.0489	3542.9506	3567.9397	3626.806	3704.5012
CNC1=C(N)C(N)=NN1	CNc1c(N)c(N)n[nH]1	
InChI=1S/C4H9N5/c1-7-4-2(5)3(6)8-9-4/h5H2,1H3,(H4,6,7,8,9)	InChI=1S/C4H9N5/c1-7-4-2(5)3(6)8-9-4/h5H2,1H3,(H4,6,7,8,9)
