23
gdb 123196	9.7765	0.41139	0.40067	1.3878	90.5	-0.2529	0.0574	0.3103	2724.2567	0.202405	-388.257385	-388.245884	-388.24494	-388.295608	39.817	
C	-0.0555803194	 1.4924849362	 0.0792923537	-0.382422
C	 0.015894335	-0.0334193706	-0.0152397153	-0.182491
C	 0.7275603353	-0.5060472365	-1.2753132674	-0.032009
O	 0.7504054652	-1.9177045413	-1.2848606127	-0.248165
C	 1.3898672712	-2.4605494194	-2.4161612513	-0.052493
C	 1.3516185398	-3.9796235242	-2.3122383577	-0.190822
C	 2.0335639384	-4.6559043334	-3.5171982487	-0.35575
C	 2.0095315701	-6.1112946235	-3.4398768623	 0.292237
C	 1.9781461769	-7.3098125457	-3.355605257	-0.433419
H	 0.9446095517	 1.9396623592	 0.0929772575	 0.115991
H	-0.597778015	 1.9209505615	-0.7709866715	 0.115988
H	-0.5705789335	 1.8058023607	 0.9918960657	 0.117633
H	 0.5403059878	-0.4446553235	 0.854896957	 0.106948
H	-0.9922524304	-0.4632557575	-0.0036538342	 0.106937
H	 0.2101578705	-0.125352494	-2.1739618982	 0.081347
H	 1.7567749692	-0.1062002861	-1.3076448378	 0.081355
H	 0.8872263408	-2.1263614893	-3.3416562694	 0.082476
H	 2.4346686782	-2.1061630593	-2.4766885894	 0.082473
H	 1.8453270998	-4.2896919077	-1.3859141662	 0.120121
H	 0.3103224251	-4.3096786338	-2.2434217883	 0.120129
H	 1.5437858338	-4.3337540425	-4.4459418408	 0.130291
H	 3.0745493021	-4.3136401698	-3.590905036	 0.130284
H	 1.9554236975	-8.3691313193	-3.2903928698	 0.19336
37.9259	62.8462	65.0893	98.2537	138.6282	149.6269	159.4213	241.3046	256.3202	287.1983	346.9673	419.3107	488.9581	550.8846	615.711	635.3302	757.2438	764.2246	868.855	901.2181	910.2044	948.0197	1011.5675	1042.7954	1060.6017	1078.2804	1119.2568	1156.0969	1164.6979	1189.6063	1224.3732	1269.398	1275.131	1301.7307	1311.0076	1313.5688	1332.0895	1370.5386	1404.8483	1414.3957	1455.9413	1475.9583	1491.1775	1498.7987	1501.9559	1506.8378	1518.0793	1538.0946	2240.5893	2931.8964	2945.4748	2960.0556	2963.8723	3013.3879	3031.8729	3038.8559	3041.3233	3057.1108	3071.5374	3099.9579	3102.9885	3108.5559	3507.8465
CCCOCCCC#C	CCCOCCCC#C	
InChI=1S/C8H14O/c1-3-5-6-8-9-7-4-2/h1H,4-8H2,2H3	InChI=1S/C8H14O/c1-3-5-6-8-9-7-4-2/h1H,4-8H2,2H3
