17
gdb 17697	4.98471	2.05346	2.02134	1.6534	70.99	-0.2179	0.0938	0.3117	753.6827	0.143918	-326.643194	-326.637105	-326.636161	-326.672948	25.074	
C	 0.0219141671	 1.5106389558	 0.0398872346	-0.522273
C	 0.0249690937	 0.0219032936	 0.0155303752	 0.385949
C	 0.9199891827	-1.0244643334	-0.5830814205	-0.147385
C	 0.5569616451	-1.0498059196	 0.9225724128	-0.147383
C	-0.7602357829	-1.8297234065	 0.8388727952	-0.004272
C	-0.6048056131	-2.9661121344	-0.1866796905	-0.243677
C	-0.2846993575	-1.7964370054	-1.1335994376	-0.00427
N	-1.1859372872	-0.8639966162	-0.2912983658	-0.220389
H	 1.0193620302	 1.8913063668	 0.2848192717	 0.121527
H	-0.2685425763	 1.9197370704	-0.9340664684	 0.127262
H	-0.6807837201	 1.8908914565	 0.7895120499	 0.127218
H	 1.9402536698	-0.9520281802	-0.9378996465	 0.085317
H	 1.3029343154	-0.9965088971	 1.7053640725	 0.08532
H	-1.3979838349	-1.9100076786	 1.719344223	 0.074458
H	 0.1521930682	-3.735670842	-0.0171673217	 0.097095
H	-1.5707142672	-3.4188496233	-0.4272031559	 0.111042
H	-0.4506672931	-1.8436827563	-2.2099922878	 0.074461
200.5603	226.1606	250.8141	421.8454	560.8204	575.611	745.1887	770.8104	784.9772	835.3026	851.3818	863.5977	864.2696	906.7643	923.5086	944.4509	953.6415	1005.3591	1037.1167	1038.6251	1047.9204	1088.6051	1124.4848	1157.4746	1161.3401	1209.8353	1220.951	1232.8807	1234.9571	1301.6753	1306.1585	1402.7348	1468.8723	1475.7011	1475.9691	1497.1135	3025.8813	3059.1532	3090.9684	3099.1616	3110.5995	3113.2204	3121.7051	3187.4369	3196.9384
CC12C3C1C1CC3N21	C[C@@]12[C@H]3[C@@H]1[C@@H]1C[C@H]3N21	
InChI=1S/C7H9N/c1-7-5-3-2-4(6(5)7)8(3)7/h3-6H,2H2,1H3	InChI=1S/C7H9N/c1-7-5-3-2-4(6(5)7)8(3)7/h3-6H,2H2,1H3/t3-,4+,5-,6+,7-
