23
gdb 63164	2.24047	1.58045	1.27356	1.4402	85.15	-0.2326	0.0736	0.3061	1148.0511	0.205557	-388.296206	-388.286637	-388.285693	-388.329669	37.372	
C	 0.0203636901	 1.5541379038	 0.0798668706	-0.466446
C	 0.065078261	 0.0361130272	 0.0720021582	 0.283182
C	-1.2459564833	-0.5670378206	-0.4134743445	-0.43819
C	 1.3134837685	-0.7560254918	-0.3264121083	-0.166164
C	 2.6821932156	-0.0936991729	-0.3761089256	-0.233294
C	 2.9339059501	 0.5133880208	 1.0361197161	-0.221327
C	 1.8714162415	-0.0962752487	 1.9854467687	-0.278215
C	 0.8132751275	-0.7645233017	 1.1091100621	 0.360751
O	 0.1218802857	-1.8389894373	 1.6812912364	-0.469833
H	 0.938263495	 2.021934181	 0.4356457568	 0.115727
H	-0.17126799	 1.9334573905	-0.9309157881	 0.114178
H	-0.7980240527	 1.906927965	 0.7185655092	 0.116544
H	-1.4632694885	-0.2294622287	-1.4336376486	 0.103966
H	-1.2198888512	-1.6572496648	-0.4038813791	 0.123433
H	-2.0791313296	-0.2537328707	 0.2259183495	 0.113148
H	 1.1390327673	-1.6161221538	-0.965836069	 0.075387
H	 3.4354342155	-0.8554689341	-0.6070320103	 0.096682
H	 2.7637405981	 0.6686049847	-1.1591917747	 0.09842
H	 3.9477335964	 0.2973370444	 1.3846649907	 0.096684
H	 2.8530911915	 1.6026576727	 1.0095723509	 0.109981
H	 2.3158960626	-0.8800162838	 2.6121137797	 0.0863
H	 1.45010004	 0.6450146896	 2.6727440613	 0.103522
H	 0.7596569688	-2.5385624708	 1.862202618	 0.275563
140.8709	150.8463	165.0357	199.9281	203.7493	250.2164	288.2345	314.4255	376.4916	399.4116	431.8132	507.972	602.3728	666.1301	681.0311	700.3001	800.4295	861.2163	901.1101	917.0383	959.0253	967.0095	982.436	1011.2688	1021.5832	1067.3604	1094.6029	1141.1922	1156.6651	1169.7917	1178.7676	1231.5115	1245.8779	1260.0636	1293.8569	1306.2267	1326.7347	1338.7221	1349.0708	1406.8223	1419.8389	1453.4293	1481.6065	1486.8624	1493.0726	1494.7924	1505.3411	1519.0083	1523.1021	3022.5656	3025.9437	3030.0479	3032.0925	3058.1849	3062.7016	3066.9068	3077.7291	3083.6968	3100.1395	3138.3926	3143.966	3154.1592	3788.0964
CC1(C)C2CCCC12O	CC1(C)[C@H]2CCC[C@@]12O	
InChI=1S/C8H14O/c1-7(2)6-4-3-5-8(6,7)9/h6,9H,3-5H2,1-2H3	InChI=1S/C8H14O/c1-7(2)6-4-3-5-8(6,7)9/h6,9H,3-5H2,1-2H3/t6-,8+/m1/s1
