21
gdb 26212	3.61329	1.02673	0.85957	3.5344	86.23	-0.2131	0.0357	0.2489	1426.3496	0.182971	-383.321255	-383.311608	-383.310664	-383.356275	35.152	
C	-0.0873723024	 1.5585999249	 0.6921605214	-0.393622
C	-0.1007296723	 0.1863254807	 0.0086514304	-0.066354
C	 1.0463504639	-0.7060935332	 0.5171869423	-0.378972
C	-1.4236891357	-0.513143182	 0.157056476	 0.286581
C	-2.5265094572	-0.1535399313	 0.8930451165	-0.222816
N	-3.4659440116	-1.1444391983	 0.6891690157	 0.015899
C	-4.7965304712	-1.2073067018	 1.2554391367	-0.338031
C	-2.8908910299	-2.0475475791	-0.1532312515	-0.006388
N	-1.6708226908	-1.7056986274	-0.4938625481	-0.328898
H	 0.8720467078	 2.0597989292	 0.5316975465	 0.108994
H	-0.8772627782	 2.2096213288	 0.3037786207	 0.110382
H	-0.230874631	 1.4605971692	 1.7746825743	 0.110591
H	 0.0610643937	 0.3390947203	-1.067616479	 0.087146
H	 2.0186352775	-0.2437814851	 0.3153176996	 0.100338
H	 0.9630956394	-0.8645780927	 1.5985302884	 0.10599
H	 1.0149715869	-1.6828231138	 0.0288821273	 0.135345
H	-2.7356259977	 0.6926189865	 1.5260918231	 0.121495
H	-5.3953174162	-0.343578502	 0.9492407857	 0.143077
H	-5.2901729956	-2.1144852254	 0.901346946	 0.14451
H	-4.7572965435	-1.2372740926	 2.3489928472	 0.14307
H	-3.4193606257	-2.9319055449	-0.480504639	 0.121664
45.4258	84.6236	128.1214	168.3175	219.837	242.0603	273.2264	320.7197	341.1762	435.8303	479.7906	589.9262	636.7319	713.1754	720.9916	750.3095	820.1238	886.2718	929.2706	966.7512	986.8115	1060.5931	1079.752	1099.1225	1125.1849	1151.532	1168.7356	1207.4905	1245.0779	1279.7375	1338.4075	1364.9875	1390.6072	1393.4088	1413.1164	1424.7232	1456.69	1482.1461	1488.6586	1492.2187	1501.076	1513.3274	1519.6312	1541.9575	1591.1019	3004.1527	3025.6331	3030.01	3036.3888	3090.0283	3095.3749	3095.672	3103.8257	3125.0624	3133.6455	3235.6732	3270.7467
CC(C)C1=CN(C)C=N1	CC(C)c1cn(C)cn1	
InChI=1S/C7H12N2/c1-6(2)7-4-9(3)5-8-7/h4-6H,1-3H3	InChI=1S/C7H12N2/c1-6(2)7-4-9(3)5-8-7/h4-6H,1-3H3
