20
gdb 108634	2.41913	1.22571	0.86588	3.7671	83.81	-0.2024	0.0072	0.2096	1371.3418	0.170087	-403.215888	-403.206226	-403.205282	-403.250714	35.393	
C	-0.2982317732	 1.6060807739	-0.0935214328	-0.369143
C	 0.0541715948	 0.1108440562	 0.014899784	-0.292496
C	 0.7781321222	-0.4277377372	-1.1806752268	 0.184721
C	 2.039860984	-0.8849897276	-1.2608442856	 0.26234
C	 3.1107506413	-1.0109482842	-0.2295113289	-0.505778
N	 2.3302149705	-1.3051001601	-2.5788434284	-0.366762
C	 1.2558125941	-1.1458695605	-3.4296780828	 0.413112
O	 1.2259902031	-1.4272629698	-4.605905051	-0.374099
C	 0.1486974913	-0.5439375781	-2.5520697533	-0.448803
H	 0.6059049865	 2.2137820439	-0.1994609092	 0.117597
H	-0.9356975535	 1.8038576165	-0.961155281	 0.119888
H	-0.8360795007	 1.9454410087	 0.7973189484	 0.112762
H	 0.6529881109	-0.0518849418	 0.9176212945	 0.098681
H	-0.8757328293	-0.456655261	 0.1644815128	 0.102261
H	 3.433735229	-2.0537695665	-0.1199047161	 0.134808
H	 3.9964816344	-0.4259928635	-0.5068358216	 0.135275
H	 2.7663904603	-0.659448776	 0.7439365233	 0.141511
H	 3.2077807065	-1.6926965503	-2.8841874894	 0.253932
H	-0.731997056	-1.197856081	-2.5731243828	 0.138645
H	-0.1685209763	 0.4147915686	-2.9790986233	 0.141549
55.8272	96.52	149.8561	178.75	199.5159	214.0303	288.8658	313.5475	378.6925	449.6357	526.4122	551.1811	569.9039	612.6635	620.2795	770.7528	784.5336	874.0986	943.4614	965.7468	984.1054	1025.976	1062.0628	1078.6122	1125.0722	1150.7145	1200.2114	1211.2479	1279.8054	1299.3177	1322.4396	1358.8007	1405.595	1410.6883	1427.4022	1440.1741	1478.0133	1478.5971	1493.3219	1497.1464	1506.8572	1734.3509	1836.7908	3002.2343	3023.0285	3034.7443	3037.6052	3060.9503	3068.364	3068.8756	3105.7341	3108.9555	3139.9019	3657.4082
CCC1=C(C)NC(=O)C1	CCC1=C(C)NC(=O)C1	
InChI=1S/C7H11NO/c1-3-6-4-7(9)8-5(6)2/h3-4H2,1-2H3,(H,8,9)	InChI=1S/C7H11NO/c1-3-6-4-7(9)8-5(6)2/h3-4H2,1-2H3,(H,8,9)
