20
gdb 74218	2.17278	1.51966	0.94285	4.4982	84.28	-0.2339	-0.0216	0.2123	1265.5337	0.172813	-403.202272	-403.193463	-403.192519	-403.235978	33.265	
C	-0.2475995953	 1.4984638195	 0.0795392451	-0.458523
C	-0.0038879954	 0.0096648489	 0.0019053417	 0.263572
C	-0.1650976683	-0.6149494075	-1.1748176517	-0.201712
C	-0.0052371275	-2.0215177527	-1.6348688956	 0.36364
O	 0.0293892272	-2.2476015045	-2.8380405403	-0.385334
N	 0.0834048753	-3.0549515017	-0.7422174027	-0.327669
C	-0.0302284283	-3.0291052923	 0.702523919	-0.158086
C	 0.917550952	-2.0217751439	 1.3586178886	-0.212758
C	 0.397445711	-0.5853692145	 1.3292364781	-0.277494
H	 0.6719026944	 2.0303744527	 0.3552024087	 0.129639
H	-0.6078409646	 1.9041348551	-0.8677824939	 0.130503
H	-0.9851192664	 1.7320326986	 0.8581028788	 0.125914
H	-0.4390534813	-0.0037696427	-2.0301921977	 0.102785
H	 0.1395349924	-3.9514881232	-1.2006743836	 0.243477
H	-1.0645921408	-2.8266565585	 1.0215295036	 0.107195
H	 0.2111909177	-4.0376172844	 1.0496446367	 0.111965
H	 1.0699935165	-2.3057093259	 2.4061082397	 0.101006
H	 1.8924502397	-2.08886911	 0.8634996445	 0.114815
H	 1.1512895274	 0.0750602865	 1.7795306507	 0.111167
H	-0.4732134558	-0.5037294095	 1.9986849802	 0.115897
62.9959	125.3642	147.4544	209.1989	279.7342	297.4791	356.061	405.196	444.0741	490.6794	530.7723	552.7587	644.3613	715.9256	791.0533	852.2725	871.1823	901.2053	923.8222	976.3746	1045.6025	1054.8286	1065.9818	1103.1231	1142.3539	1162.5527	1220.9846	1271.224	1307.8517	1351.2623	1362.7877	1390.7441	1408.5156	1413.0481	1420.5247	1463.2217	1470.4183	1480.2174	1484.7184	1488.1703	1509.5828	1703.9282	1747.5056	2982.1751	2991.3942	3018.9006	3024.6963	3039.969	3065.7798	3082.0375	3083.8715	3127.0765	3168.9471	3624.2761
CC1=CC(=O)NCCC1	CC1=CC(=O)NCCC1	
InChI=1S/C7H11NO/c1-6-3-2-4-8-7(9)5-6/h5H,2-4H2,1H3,(H,8,9)	InChI=1S/C7H11NO/c1-6-3-2-4-8-7(9)5-6/h5H,2-4H2,1H3,(H,8,9)
