21
gdb 58743	3.56472	1.05861	0.97174	1.228	78.88	-0.2592	0.0703	0.3295	1290.0358	0.181225	-424.180607	-424.171328	-424.170384	-424.214329	36.135	
C	 0.0227609607	 1.5119101027	 0.0931488674	-0.408581
C	 0.0531035768	-0.0133275672	-0.019331128	-0.013926
O	-1.2566567647	-0.5695978705	 0.0861123639	-0.427271
C	 0.7369725768	-0.4957852067	-1.2770642938	 0.359833
C	 2.195412118	-0.1994617952	-1.7547904402	-0.306996
C	 1.5706031547	-1.1152491778	-2.8288260411	 0.395039
O	 2.2582607242	-1.5261134652	-3.9543532822	-0.468679
C	 0.9815783659	-1.9822342389	-1.676024983	-0.329692
C	 0.2800645041	-0.2387712858	-2.7519180647	-0.344983
H	 1.0341802305	 1.9295159002	 0.1095340742	 0.1212
H	-0.5089249743	 1.9538512686	-0.7581853738	 0.108997
H	-0.4928603729	 1.8082368315	 1.0103525638	 0.123697
H	 0.592192723	-0.4239398555	 0.8439364977	 0.089573
H	-1.7736855005	-0.2243144319	-0.6505163321	 0.277096
H	 2.4164846986	 0.8275849567	-2.0571705896	 0.093292
H	 3.001895664	-0.6303396659	-1.1552558193	 0.093713
H	 1.6920602654	-2.1212726139	-4.4574780968	 0.281611
H	 1.6987257185	-2.5386670167	-1.0662607517	 0.091623
H	 0.0902850263	-2.5748107173	-1.8990715525	 0.089202
H	-0.6552248943	-0.7146158401	-3.0644539503	 0.081614
H	 0.3625903092	 0.7849235091	-3.1268367178	 0.093638
66.1532	143.1492	162.4988	245.9409	253.888	281.5935	319.9109	342.4133	396.6199	458.1502	490.1886	551.8929	559.7668	634.704	653.5802	778.1398	803.4593	895.6869	933.369	958.0273	982.6292	996.7932	1038.4404	1045.1518	1066.0154	1100.4829	1107.7202	1121.6164	1130.8059	1140.0456	1157.1306	1160.3761	1186.0478	1288.719	1297.7634	1322.0414	1360.3126	1382.8911	1401.0854	1419.4333	1490.6531	1492.3106	1494.9136	1496.8445	1563.1213	3027.8736	3033.7258	3037.6225	3047.5565	3056.2503	3099.9906	3108.4925	3117.0363	3119.869	3122.0388	3796.3282	3809.2235
CC(O)C12CC(O)(C1)C2	C[C@@H](O)[C@@]12C[C@@](O)(C1)C2	
InChI=1S/C7H12O2/c1-5(8)6-2-7(9,3-6)4-6/h5,8-9H,2-4H2,1H3	InChI=1S/C7H12O2/c1-5(8)6-2-7(9,3-6)4-6/h5,8-9H,2-4H2,1H3/t5-,6-,7+/m1/s1
