19
gdb 68316	3.56459	1.05282	0.94043	1.8847	82.01	-0.2366	0.057	0.2936	1301.5235	0.156826	-385.796221	-385.787355	-385.786411	-385.829921	33.959	
C	 0.0633776165	 1.4726344868	 0.105842266	-0.516525
C	-0.0110784993	-0.0135884333	-0.055649834	 0.393783
C	 0.6405424055	-0.935161078	-1.121509618	-0.265336
C	 0.0465755246	-1.8107516648	 0.0013049691	 0.04612
O	 0.6161552256	-0.870017025	 0.9946336782	-0.346893
C	-1.2511304151	-0.965241838	-0.036330236	-0.0102
C	-2.1525901872	-0.9557379381	 1.1971557051	-0.395907
C	-3.0055424064	-2.1365230569	 1.2694459909	 0.29869
C	-3.6960974649	-3.120084236	 1.3029197703	-0.451008
H	 1.1061914626	 1.7978808549	 0.1671570226	 0.137182
H	-0.4050853692	 1.9696710996	-0.7495057241	 0.128679
H	-0.4520530862	 1.7925388863	 1.0167821759	 0.1343
H	 0.1847798881	-0.9804006765	-2.1141421031	 0.094327
H	 1.7302655907	-0.9013144403	-1.1488786282	 0.106515
H	 0.1695395088	-2.8759367869	 0.1931094229	 0.100425
H	-1.8255541311	-1.018567655	-0.9659514783	 0.078807
H	-1.5163090922	-0.8925013419	 2.0862855947	 0.148987
H	-2.7796951032	-0.0542726214	 1.1859438412	 0.124823
H	-4.3110768977	-3.9841971556	 1.3482815848	 0.193232
58.228	105.6062	180.9834	196.6057	271.969	318.4725	353.221	359.1727	453.0964	564.3668	613.5871	633.5901	637.3045	657.9849	727.9108	765.4777	832.6755	886.0051	915.4389	943.2817	966.6773	999.8552	1023.3692	1044.6153	1096.2783	1123.6563	1136.0096	1164.0979	1197.6081	1217.5817	1242.1746	1246.809	1314.5535	1327.3482	1400.0192	1415.0024	1473.0687	1477.2154	1488.6957	1494.7746	2237.3578	3020.0523	3038.6836	3058.1083	3067.7271	3080.8007	3111.741	3115.4213	3130.3771	3146.7355	3507.0718
CC12CC(O1)C2CC#C	C[C@@]12C[C@@H](O1)[C@H]2CC#C	
InChI=1S/C8H10O/c1-3-4-6-7-5-8(6,2)9-7/h1,6-7H,4-5H2,2H3	InChI=1S/C8H10O/c1-3-4-6-7-5-8(6,2)9-7/h1,6-7H,4-5H2,2H3/t6-,7-,8+/m1/s1
