17
gdb 9929	3.04632	1.54085	1.39749	3.9382	70.11	-0.2704	0.0159	0.2863	984.5389	0.140223	-363.865813	-363.856801	-363.855857	-363.898985	32.445	
C	-0.0393331339	 1.5542519113	 0.1406170264	-0.424467
C	 0.0185660558	 0.0520988309	-0.0268747077	-0.081624
C	 0.6910367208	-0.6236840246	-1.2001787919	-0.062292
C	 1.3564992069	 0.1306300331	-2.3305221485	-0.412343
C	 1.3475978339	-0.6836336796	 0.1685386037	 0.220395
O	 2.5222240602	 0.0596734255	 0.3105932073	-0.446116
C	 1.3392494091	-1.9344008469	 0.8950285144	 0.249702
N	 1.3275888486	-2.9217664193	 1.4985368003	-0.347493
H	 0.9094629113	 2.0292599344	-0.115217201	 0.135039
H	-0.8178465873	 1.9837953014	-0.4981734705	 0.129976
H	-0.2798907603	 1.8179604484	 1.1759799797	 0.124929
H	-0.8453442757	-0.4762750832	 0.3665200739	 0.108639
H	 0.2279918813	-1.5578781862	-1.5044997366	 0.111568
H	 1.9270369885	 0.9878581951	-1.9722325318	 0.14038
H	 2.0473119321	-0.5243561343	-2.8701472262	 0.132043
H	 0.6053532444	 0.4861287848	-3.0434640307	 0.123221
H	 2.5816592644	 0.3631508493	 1.2240325293	 0.298442
129.5089	134.2861	153.2799	160.6904	216.1953	216.7551	290.2558	327.4137	421.1904	445.7751	546.7682	575.0191	599.8611	686.9518	789.3082	809.2615	954.0837	1015.7942	1035.6778	1039.088	1063.1173	1131.566	1138.7275	1183.0931	1237.3379	1264.3294	1342.5732	1372.7338	1411.8031	1418.3893	1441.672	1485.8009	1494.3771	1502.1256	1512.8933	2342.5331	3040.2745	3045.5376	3097.1419	3103.6311	3129.6987	3142.1007	3149.0839	3160.1499	3793.0598
CC1C(C)C1(O)C#N	C[C@H]1[C@@H](C)[C@]1(O)C#N	
InChI=1S/C6H9NO/c1-4-5(2)6(4,8)3-7/h4-5,8H,1-2H3	InChI=1S/C6H9NO/c1-4-5(2)6(4,8)3-7/h4-5,8H,1-2H3/t4-,5+,6-
