25
gdb 60128	2.59546	0.95787	0.82345	1.3274	89.37	-0.25	0.0686	0.3186	1561.2065	0.226706	-389.485785	-389.474562	-389.473617	-389.522119	41.539	
C	-0.6696784751	 0.3180780029	 3.3649574675	-0.403643
C	-0.6802451662	-1.0157249573	 2.6157412182	 0.141279
O	-0.7708251629	-2.1106579557	 3.525430081	-0.425831
C	-1.7749826063	-1.0658312596	 1.5370954749	-0.219319
C	-1.7107375116	-2.3074244538	 0.6694834356	-0.012601
C	-2.448909203	-3.594840833	 0.9749669422	 0.002707
C	-3.3247229259	-3.7855257933	 2.1945129343	-0.415238
C	-2.8569734327	-2.7553800798	-0.2197102319	-0.049591
C	-4.1747079683	-2.0119381947	-0.2993530721	-0.402973
H	 0.1019685905	 0.310882097	 4.1394549886	 0.122508
H	-0.4758702088	 1.1557978028	 2.6871672734	 0.114104
H	-1.6378052	 0.4999568595	 3.8492415601	 0.104081
H	 0.2937093208	-1.1551513811	 2.1288890283	 0.085867
H	-1.6023932589	-2.0212962758	 4.0039224414	 0.274356
H	-2.7506116213	-0.9663298433	 2.0292881863	 0.081223
H	-1.6703340451	-0.1745567875	 0.9026997417	 0.094424
H	-0.7218504234	-2.4477262312	 0.2363050398	 0.074543
H	-1.892925564	-4.4953784068	 0.724667982	 0.078182
H	-3.9048505215	-2.8937202451	 2.4466475359	 0.10428
H	-4.0409455736	-4.5999700545	 2.0368747475	 0.111492
H	-2.7114645566	-4.0405997444	 3.0647911193	 0.123217
H	-2.5488850151	-3.1568460772	-1.1827253653	 0.076289
H	-4.4980461908	-1.6134425733	 0.665177837	 0.112452
H	-4.1050503699	-1.1661783238	-0.9930771294	 0.114018
H	-4.9718373706	-2.6701134013	-0.6632032164	 0.114175
49.8322	92.1196	115.0391	166.128	176.9004	210.7056	235.2371	242.1085	275.2007	294.167	344.8466	410.6438	453.8136	477.5325	528.8041	535.325	745.1609	772.1023	838.673	854.7053	895.9122	942.2578	954.2537	960.1346	1032.9256	1043.3661	1051.2694	1083.7453	1117.2816	1121.3208	1141.6168	1159.3266	1178.3137	1190.4136	1222.6493	1275.4197	1303.8527	1336.4237	1370.4591	1378.4789	1400.5026	1404.4395	1413.9891	1421.3994	1422.6015	1457.849	1472.9025	1490.9243	1493.1277	1495.6684	1496.5689	1507.7046	1517.0613	3009.6329	3021.2462	3027.4846	3028.7283	3033.2456	3050.8965	3082.2036	3089.9212	3091.7899	3102.2298	3108.6275	3114.5606	3117.7718	3122.3254	3137.2943	3801.2187
CC(O)CC1C(C)C1C	C[C@@H](O)C[C@H]1[C@@H](C)[C@H]1C	
InChI=1S/C8H16O/c1-5(9)4-8-6(2)7(8)3/h5-9H,4H2,1-3H3	InChI=1S/C8H16O/c1-5(9)4-8-6(2)7(8)3/h5-9H,4H2,1-3H3/t5-,6-,7+,8-/m1/s1
