27
gdb 100115	3.32489	0.80757	0.79806	0.0826	96.1	-0.2672	0.0769	0.3441	1667.0003	0.250406	-353.555348	-353.544188	-353.543244	-353.591535	42.443	
C	-0.0723535051	 1.4946508607	 0.2313129788	-0.405213
C	-0.0122869746	-0.0070758198	-0.07059472	-0.174307
C	 0.7459178163	-0.4443159483	-1.352536917	 0.271319
C	 0.0842506065	 0.174644947	-2.5983680611	-0.411707
C	 2.2198775013	-0.0050157865	-1.2817854772	-0.407769
C	 0.6435664877	-1.9934769775	-1.412885532	-0.213495
C	 1.3184347766	-2.6917219435	-2.5775343701	 0.01315
C	 2.7428355502	-3.1838692047	-2.4798298777	-0.250759
C	 1.603684486	-4.1714923019	-2.4916040641	-0.279542
H	 0.9233551714	 1.9292385325	 0.3623602651	 0.116754
H	-0.5797074553	 2.0548945631	-0.5599331623	 0.116406
H	-0.6271302542	 1.6699325965	 1.1587505469	 0.111142
H	 0.446945347	-0.5180538706	 0.7864319806	 0.087197
H	-1.038716183	-0.3931180896	-0.1335418441	 0.08746
H	 0.1199246678	 1.2676985856	-2.5682475511	 0.110565
H	 0.5920557256	-0.1358047034	-3.5165270875	 0.111431
H	-0.9673313416	-0.1242786319	-2.6791548958	 0.104746
H	 2.710613097	-0.4060388929	-0.3873059001	 0.101609
H	 2.7781510712	-0.3570146233	-2.1533834731	 0.119063
H	 2.3104424885	 1.0850831991	-1.2512435728	 0.107709
H	 1.0530603376	-2.4053443644	-0.4798845615	 0.082265
H	-0.4231003888	-2.2603472243	-1.4151609001	 0.088837
H	 1.0122284829	-2.3447825811	-3.5603932954	 0.081597
H	 3.3784469119	-3.1178258794	-3.3564014374	 0.107237
H	 3.267317307	-3.0290825458	-1.5425992794	 0.109445
H	 1.363406129	-4.677942929	-1.5620227502	 0.107707
H	 1.456240341	-4.7799280265	-3.3771330513	 0.107151
50.2976	82.4659	102.429	145.6043	210.7856	245.4897	273.6241	282.6738	308.7516	322.6398	344.9679	380.1241	405.7107	424.1028	544.9658	726.4986	775.1671	783.4558	805.279	834.4197	865.0769	891.9628	926.4569	939.6267	970.2831	990.0549	997.8963	1031.702	1049.0298	1065.3896	1078.1436	1084.5158	1133.637	1145.5239	1199.3939	1208.6465	1223.6461	1236.039	1256.1106	1282.7163	1338.1558	1355.6798	1371.6891	1398.2249	1411.1479	1418.4821	1425.6518	1467.2129	1474.1371	1482.7671	1484.348	1491.5564	1505.6939	1508.4581	1509.4143	1513.0994	1517.1973	2993.5102	3007.3955	3026.8914	3029.2551	3033.2659	3040.2502	3040.7499	3094.1761	3095.9059	3099.9233	3103.9078	3111.4035	3114.3434	3126.1142	3131.3626	3146.3986	3203.3388	3219.011
CCC(C)(C)CC1CC1	CCC(C)(C)CC1CC1	
InChI=1S/C9H18/c1-4-9(2,3)7-8-5-6-8/h8H,4-7H2,1-3H3	InChI=1S/C9H18/c1-4-9(2,3)7-8-5-6-8/h8H,4-7H2,1-3H3
