18
gdb 81149	2.47379	1.66607	1.23687	5.6409	76.34	-0.2367	0.0234	0.2601	1043.8408	0.150547	-398.103957	-398.096039	-398.095095	-398.136156	31.089	
N	 0.2795277472	 1.4236526341	 0.1424627993	-0.531866
C	 0.0832916953	-0.0005746431	 0.026484206	 0.047503
C	-1.3667359953	-0.6201385415	-0.0404994011	-0.091131
C	-1.384972066	-0.2023796572	-1.5404471171	-0.287696
C	 0.125742198	-0.5911550548	-1.426863102	 0.217972
N	 0.1211600485	-2.0421545937	-1.127288689	-0.335895
C	-1.0159446296	-2.1112505556	-0.1463867184	-0.175497
C	 1.1058451781	-0.1793739682	-2.4079898834	 0.191091
N	 1.8634872515	 0.1679829047	-3.2085656537	-0.342861
H	-0.4259301245	 1.9587207442	-0.3521744821	 0.232788
H	 0.2336128622	 1.7012287501	 1.1168248915	 0.238091
H	 0.7766121528	-0.5027726574	 0.7057047159	 0.099718
H	-2.1516105429	-0.3265891837	 0.6558426108	 0.074302
H	-1.9905878092	-0.78838064	-2.2368811388	 0.103781
H	-1.5591005867	 0.8614896487	-1.7052219514	 0.113765
H	-0.1050996212	-2.5613095336	-1.9699463571	 0.229044
H	-0.677184155	-2.5351685978	 0.8045685424	 0.112187
H	-1.8468953131	-2.7197543751	-0.5181611716	 0.104702
124.2061	147.5502	172.8429	278.6335	311.6936	340.192	461.3408	490.7145	539.3475	551.8649	605.5073	643.5801	789.1297	810.9365	850.0759	867.6129	908.8159	920.5714	950.4882	981.6608	999.0468	1037.9737	1068.4066	1087.1429	1156.149	1160.6542	1202.4029	1207.8516	1226.2973	1256.7256	1260.451	1291.7188	1342.353	1409.8428	1436.1785	1500.0237	1524.8628	1662.6019	2360.5204	3037.004	3068.5242	3076.4536	3085.3176	3124.7472	3134.1507	3511.3181	3516.0932	3590.9935
NC1C2CC1(NC2)C#N	N[C@H]1[C@H]2C[C@@]1(NC2)C#N	
InChI=1S/C6H9N3/c7-3-6-1-4(2-9-6)5(6)8/h4-5,9H,1-2,8H2	InChI=1S/C6H9N3/c7-3-6-1-4(2-9-6)5(6)8/h4-5,9H,1-2,8H2/t4-,5-,6+/m0/s1
