15
gdb 26934	2.52417	1.65099	0.99964	4.1321	71.91	-0.1881	-0.0253	0.1628	1101.5663	0.113812	-454.002034	-453.994007	-453.993063	-454.034241	30.55	
N	 0.0212397806	 1.4188244033	 0.1842740017	-0.606448
C	-0.0053501231	 0.0254251445	 0.0426178235	 0.132989
C	-1.0947029002	-0.7989185052	 0.0331602628	-0.165252
N	-0.635354341	-2.1348185794	-0.0315319993	-0.343901
C	 0.7040982862	-2.1404170295	-0.0757372331	 0.418259
O	 1.4298986992	-3.242275092	-0.1444145351	-0.413075
C	 1.1707771801	-0.8155352986	-0.0262762421	 0.015275
C	 2.5711678043	-0.5775015729	-0.0140600697	 0.05487
O	 3.404331983	-1.4954753768	-0.0779821303	-0.384271
H	 0.7075734104	 1.8639269607	-0.411789301	 0.246997
H	-0.8820759011	 1.8461046906	 0.0257854403	 0.243745
H	-2.1491996044	-0.5861653809	 0.0722673936	 0.116822
H	-1.2128923828	-2.95752288	-0.0536884976	 0.272151
H	 2.3664481262	-2.8976650508	-0.1430505032	 0.328683
H	 2.9245820228	 0.4680882769	 0.0622762195	 0.083155
151.6985	204.9917	210.9123	240.3961	282.7849	303.1088	332.703	475.3561	484.1793	538.9876	586.1284	624.1047	649.3469	725.1528	755.1593	778.108	832.484	860.6686	1027.5543	1057.1882	1077.8094	1148.9873	1238.3891	1317.3467	1319.8813	1374.0061	1415.3422	1489.2587	1586.4194	1601.3977	1637.2356	1665.7921	1706.3215	2946.6378	3193.2823	3279.1469	3534.8776	3624.1608	3680.3319
NC1=CNC(O)=C1C=O	Nc1c[nH]c(O)c1C=O	
InChI=1S/C5H6N2O2/c6-4-1-7-5(9)3(4)2-8/h1-2,7,9H,6H2	InChI=1S/C5H6N2O2/c6-4-1-7-5(9)3(4)2-8/h1-2,7,9H,6H2
