22
gdb 113164	2.96109	0.98367	0.85649	3.3861	83.94	-0.2408	0.0357	0.2764	1463.071	0.192513	-404.386492	-404.375758	-404.374813	-404.422588	39.083	
C	-0.0279885703	 1.5264561276	-0.1837933538	-0.370349
C	-0.0555515573	 0.0518400301	 0.238671719	-0.216126
C	-1.4298950042	-0.5593103747	 0.0603592057	 0.012514
C	-1.8740877647	-1.1673441821	-1.2327415175	-0.312823
C	-1.6738670131	-2.0673709903	-0.018457031	 0.189177
C	-0.5122484971	-3.0433979807	-0.0132773718	-0.506345
C	-2.9661807458	-2.488085996	 0.6386045316	 0.373174
N	-2.9704631521	-3.7138099335	 1.2417420246	-0.549246
O	-3.9547420366	-1.7722238597	 0.6502278513	-0.38398
H	 0.9671416497	 1.9597470995	-0.0430051907	 0.108929
H	-0.3003317247	 1.6374319266	-1.2384439492	 0.119734
H	-0.7375031784	 2.1181183655	 0.4044162434	 0.119548
H	 0.6903107875	-0.501000808	-0.3434473488	 0.092096
H	 0.2510187453	-0.0317958518	 1.2895719852	 0.098575
H	-2.2222168147	-0.0459205279	 0.5984509896	 0.109837
H	-2.8963124509	-1.0021203814	-1.5511850089	 0.133613
H	-1.1431417892	-1.2679067071	-2.0297781524	 0.102577
H	 0.3490144714	-2.6381271521	-0.547837425	 0.125566
H	-0.1777280287	-3.2802040051	 1.0039806792	 0.120557
H	-0.7787015773	-3.9820998833	-0.5143670631	 0.118489
H	-2.2041786116	-4.3582397061	 1.1815637045	 0.256417
H	-3.838891767	-4.0277304493	 1.6419212182	 0.258066
59.164	72.375	96.3955	147.8158	153.8969	239.3135	249.2966	283.6877	294.5649	347.0061	398.2702	428.7696	489.2087	569.8799	589.9475	689.6907	755.2154	785.1451	823.5035	857.3221	911.5914	948.6853	959.9713	1004.1504	1060.6982	1069.7226	1086.2464	1105.4844	1125.216	1139.1004	1202.5581	1230.8955	1290.983	1311.5574	1341.5462	1371.25	1406.4098	1415.1902	1423.7836	1474.0782	1485.6661	1497.6917	1500.9031	1506.0272	1512.4222	1614.5679	1768.9574	3017.8688	3021.4712	3033.5802	3055.8927	3073.4306	3102.9422	3105.9918	3121.9247	3127.6865	3151.3406	3227.0531	3614.9252	3753.3521
CCC1CC1(C)C(N)=O	CC[C@H]1C[C@]1(C)C(=O)N	
InChI=1S/C7H13NO/c1-3-5-4-7(5,2)6(8)9/h5H,3-4H2,1-2H3,(H2,8,9)	InChI=1S/C7H13NO/c1-3-5-4-7(5,2)6(8)9/h5H,3-4H2,1-2H3,(H2,8,9)/t5-,7-/m0/s1
