18
gdb 33156	5.03472	0.78429	0.71756	2.6601	75.57	-0.1833	0.0365	0.2198	1554.1006	0.148999	-435.290359	-435.281143	-435.280199	-435.325077	33.24	
N	 0.0234977119	 1.3941597883	-0.1789566001	-0.59542
C	-0.030697603	 0.002081267	-0.0607191197	 0.286363
C	-1.1206241586	-0.8358728735	-0.1142486145	-0.217697
N	-0.6000703022	-2.1207161517	-0.0040243967	 0.027054
C	-1.3450018745	-3.3604994338	-0.0619659149	-0.169516
C	-1.7904319074	-3.7119384527	-1.4830791261	-0.069915
O	-2.5006182429	-4.9331975314	-1.3910027452	-0.414074
C	 0.7453936141	-1.9835737012	 0.0962118499	-0.0018
N	 1.1268979181	-0.7225693749	 0.0720924225	-0.323737
H	 0.9037851683	 1.7433088459	 0.1781928724	 0.247359
H	-0.7483090778	 1.8680717911	 0.2707138685	 0.239243
H	-2.1783778147	-0.6576286142	-0.2082663579	 0.112255
H	-0.7124867658	-4.1642086623	 0.3245971099	 0.130612
H	-2.2247078002	-3.2947144462	 0.5863100902	 0.129426
H	-2.4169694853	-2.9009834651	-1.8838797178	 0.100389
H	-0.9033422472	-3.795702967	-2.1291326336	 0.10185
H	-2.7956744719	-5.1809480349	-2.2716422001	 0.294186
H	 1.3987627794	-2.8381698333	 0.1955625932	 0.123421
62.012	84.1731	86.992	220.6646	233.5246	261.0239	297.1876	333.8496	391.573	440.0775	631.2394	637.3199	663.2102	698.322	777.1075	800.3953	804.4056	807.9661	1005.5386	1010.2834	1051.3867	1088.5084	1096.9627	1109.5497	1207.8121	1213.1713	1245.3981	1265.0873	1300.8244	1361.6748	1370.0933	1410.7882	1449.4418	1461.5659	1490.685	1528.4821	1543.0146	1616.2107	1647.8722	2982.6546	3015.6296	3055.9585	3109.4049	3242.9558	3273.364	3541.5134	3637.0482	3839.052
NC1=CN(CCO)C=N1	Nc1cn(CCO)cn1	
InChI=1S/C5H9N3O/c6-5-3-8(1-2-9)4-7-5/h3-4,9H,1-2,6H2	InChI=1S/C5H9N3O/c6-5-3-8(1-2-9)4-7-5/h3-4,9H,1-2,6H2
