14
gdb 30007	3.46227	1.75592	1.17369	5.256	68.77	-0.2163	0.0007	0.217	969.8771	0.103875	-432.890867	-432.883925	-432.882981	-432.922619	25.478	
C	 0.0055369724	 1.4751302465	 0.0369978717	-0.349122
N	-0.0128725173	 0.0270637968	 0.0504753812	-0.168039
C	-0.0957598388	-0.8329533577	-1.0498570704	-0.020617
N	-0.094204936	-2.1135643906	-0.747727422	-0.34205
C	-0.0060117258	-2.1085951452	 0.6217693669	 0.253808
C	 0.0427378951	-0.8354714668	 1.1003844675	 0.392598
O	 0.1285150662	-0.8229404618	 2.4442343592	-0.224945
C	 0.1265720298	-2.1985759064	 2.7181848554	 0.033657
N	 0.0502670677	-2.9864465947	 1.6975662954	-0.321212
H	 0.9310722284	 1.8583222092	 0.4771693487	 0.153315
H	-0.0568634539	 1.8138485623	-0.998552026	 0.152677
H	-0.8451903589	 1.8819668412	 0.5919380345	 0.153326
H	-0.1538517185	-0.4206871914	-2.0466612043	 0.133987
H	 0.1900662096	-2.4479886412	 3.7645804122	 0.152618
86.8438	148.377	210.4067	247.7851	368.0431	546.4861	594.8696	621.2266	647.7777	715.2058	752.8696	777.0518	798.248	816.5693	903.2779	1003.9893	1053.0844	1118.8328	1153.3745	1228.9122	1258.8167	1301.0231	1359.3725	1399.9658	1461.3761	1481.0923	1482.4144	1511.8591	1534.4829	1581.0798	1603.4199	3042.5947	3105.0391	3142.086	3248.4685	3289.7268
CN1C=NC2=C1OC=N2	Cn1cnc2c1ocn2	
InChI=1S/C5H5N3O/c1-8-2-6-4-5(8)9-3-7-4/h2-3H,1H3	InChI=1S/C5H5N3O/c1-8-2-6-4-5(8)9-3-7-4/h2-3H,1H3
