19
gdb 72648	2.08199	1.90597	1.63401	2.7303	75.1	-0.2424	0.0187	0.2611	966.0772	0.158849	-423.026085	-423.017758	-423.016814	-423.058363	33.226	
O	-0.2256388836	 1.3226655774	-0.2178583421	-0.505006
C	-0.0064903358	-0.0649961483	-0.052157949	 0.342949
C	 0.2742511165	-0.5005404857	 1.4174360172	-0.282318
C	-1.2036073613	-0.9593615776	 1.5724693159	-0.282854
C	-1.3873780379	-0.8088312817	 0.0315877796	 0.369499
O	-2.5272875773	-0.1233916756	-0.4175540223	-0.491985
C	-1.1328056867	-2.0504044169	-0.7791148852	-0.11743
C	 0.0443978885	-2.0184789528	-1.405140119	-0.060218
C	 0.8224442084	-0.7439678957	-1.1567121173	-0.345673
H	 0.5394545361	 1.8035071971	 0.1127161166	 0.283783
H	 0.9975377795	-1.3165389864	 1.4847019144	 0.104191
H	 0.5951254862	 0.3080806241	 2.0800491412	 0.091907
H	-1.3749713415	-1.9502569231	 1.9995751649	 0.097889
H	-1.8192085104	-0.2308566393	 2.1064114504	 0.101688
H	-2.3272475876	 0.8170321407	-0.3168425043	 0.287873
H	-1.8574820479	-2.8550714038	-0.8362951613	 0.098569
H	 0.4247364541	-2.8081692228	-2.0449518663	 0.095472
H	 0.8638232373	-0.115876251	-2.0560762519	 0.114334
H	 1.8586208233	-0.9347483185	-0.8488837915	 0.097331
102.1573	182.3377	231.9381	248.3977	288.642	337.4136	378.9902	390.0478	470.3585	531.4667	555.8173	653.5022	677.9412	750.186	753.5122	783.0036	890.2186	903.546	944.2798	954.5085	978.8076	994.7963	1013.4026	1047.596	1117.7826	1133.2959	1150.0426	1177.7912	1203.0561	1204.7439	1236.3677	1257.4736	1279.1572	1287.5649	1348.1459	1371.3507	1417.0185	1462.9242	1478.704	1483.9227	1677.7656	3016.7235	3050.0989	3055.1268	3063.0141	3105.407	3123.5172	3178.2307	3204.6697	3758.8868	3821.1431
OC12CCC1(O)C=CC2	O[C@@]12CC[C@]1(O)C=CC2	
InChI=1S/C7H10O2/c8-6-2-1-3-7(6,9)5-4-6/h1-2,8-9H,3-5H2	InChI=1S/C7H10O2/c8-6-2-1-3-7(6,9)5-4-6/h1-2,8-9H,3-5H2/t6-,7+/m1/s1
