18
gdb 123738	4.96373	0.96465	0.92568	0.5569	77.69	-0.2536	-0.0001	0.2535	1299.3426	0.151268	-398.12658	-398.119007	-398.118063	-398.159712	28.4	
C	-0.1432066951	 1.4919825963	 0.0166367169	-0.212943
C	 1.391757185	 1.5067659399	-0.2074085684	-0.227198
C	 1.4764087308	 0.1361644571	 0.536055062	-0.073465
C	-0.0504801049	-0.0374989167	 0.2587469855	-0.227199
C	 2.4344444323	-0.9001383089	 0.0672449053	 0.308248
N	 3.317583714	-1.4766640841	 0.8911281532	-0.278424
N	 3.970470998	-2.3227431138	 0.1045052893	-0.074729
N	 3.599858798	-2.3603500266	-1.1674265	-0.193634
C	 2.6188394747	-1.4598936966	-1.2153611776	-0.134718
H	-0.4235907373	 2.0287737236	 0.9274181126	 0.105219
H	-0.7793656081	 1.8395652576	-0.8000978438	 0.098417
H	 1.645546386	 1.3967559904	-1.2661522641	 0.103163
H	 1.971131768	 2.3362032661	 0.2046520726	 0.103063
H	 1.6457168321	 0.3001812752	 1.6032464409	 0.088103
H	-0.6566475941	-0.4774708419	 1.053996025	 0.103063
H	-0.221576667	-0.6024548387	-0.6626652625	 0.103161
H	 4.7108845122	-2.9074605148	 0.4565246747	 0.291173
H	 2.1034461054	-1.258122724	-2.1409191816	 0.118699
41.65	114.8655	141.7128	237.5449	388.6624	403.4958	516.3793	557.5547	715.2958	723.0195	734.5989	792.9587	867.714	881.3204	913.8006	935.2728	945.6878	991.4925	1006.9259	1030.5316	1038.4538	1116.9707	1168.0109	1203.8249	1204.3664	1230.713	1247.943	1254.1299	1261.8865	1274.0728	1286.7358	1320.1644	1382.4474	1424.3121	1477.5989	1481.5279	1487.5476	1508.7453	1567.4338	3053.5799	3056.3112	3061.6358	3076.8507	3103.3996	3109.575	3123.4989	3266.7593	3670.0444
C1CC(C1)C1=NNN=C1	C1CC(C1)c1n[nH]nc1	
InChI=1S/C6H9N3/c1-2-5(3-1)6-4-7-9-8-6/h4-5H,1-3H2,(H,7,8,9)	InChI=1S/C6H9N3/c1-2-5(3-1)6-4-7-9-8-6/h4-5H,1-3H2,(H,7,8,9)
