19
gdb 86315	1.9824	1.65844	1.15885	1.8938	71.45	-0.2573	-0.0351	0.2222	1134.2243	0.157582	-460.170699	-460.161336	-460.160392	-460.205875	34.697	
C	-0.0273783677	 1.4919246179	 0.2637219162	-0.490923
C	-0.0272611902	 0.0214923053	-0.0750142624	 0.437076
O	 1.0051405921	-0.5703978736	-0.3579432295	-0.373888
C	-1.3371763299	-0.7139600742	-0.0583018974	-0.241314
C	-1.5531778511	-1.5889560668	-1.3627474819	 0.159741
O	-0.827750735	-1.2629684531	-2.512240161	-0.431421
C	-1.1636562764	-2.8661313691	-0.5787335719	-0.303942
C	-1.2530090568	-2.0755634377	 0.749651353	 0.159744
O	-0.2305976638	-2.2309971041	 1.6900566518	-0.431425
H	 0.9846977792	 1.8950251169	 0.2128427148	 0.143507
H	-0.6813211133	 2.0326920151	-0.4302343634	 0.150408
H	-0.4401255016	 1.6414738863	 1.2681714181	 0.150411
H	-2.165348806	-0.0558085681	 0.2109893736	 0.072932
H	-2.6065852881	-1.5709804603	-1.6513349481	 0.09831
H	 0.1073038025	-1.2693284095	-2.2686502224	 0.293891
H	-1.7963269385	-3.7492502331	-0.6922652367	 0.105409
H	-0.1264395066	-3.1438082274	-0.7900863572	 0.10928
H	-2.1892652063	-2.2475030985	 1.2855009038	 0.098309
H	 0.6043774575	-2.0751014059	 1.2293850607	 0.293894
23.808	79.409	153.0929	168.7706	200.3348	293.2172	385.8758	427.7317	443.7464	463.554	484.4511	535.2919	565.6512	654.4796	676.4284	773.8781	780.1374	895.9524	924.2589	985.8976	1013.1801	1030.9889	1051.2885	1073.129	1108.7879	1160.8613	1161.1485	1189.3476	1239.8254	1250.8893	1260.7596	1325.1371	1329.418	1371.1878	1394.2932	1438.8811	1458.5465	1460.4389	1468.8701	1472.2873	1747.3445	3034.1583	3057.9777	3079.0225	3084.7041	3095.2642	3095.2713	3120.6564	3153.0182	3762.4485	3765.2326
CC(=O)C1C(O)CC1O	CC(=O)[C@H]1[C@@H](O)C[C@H]1O	
InChI=1S/C6H10O3/c1-3(7)6-4(8)2-5(6)9/h4-6,8-9H,2H2,1H3	InChI=1S/C6H10O3/c1-3(7)6-4(8)2-5(6)9/h4-6,8-9H,2H2,1H3/t4-,5+,6-
