23
gdb 114068	2.74901	1.19572	0.99602	1.0535	87.39	-0.2362	0.0845	0.3207	1334.4543	0.203753	-388.266728	-388.256635	-388.255691	-388.301293	37.765	
C	-0.2287251853	 1.3204138339	 0.0969610197	-0.234608
O	 0.3320858608	 0.0476746941	-0.1256597038	-0.24625
C	 0.7876488329	-0.5742441115	 1.051535173	 0.090947
C	-0.2640682674	-1.2040224798	 2.0314572181	-0.32999
C	 0.4151391555	-2.5649516991	 1.8258221215	 0.311912
C	 0.6331753427	-3.5857863842	 2.9051740489	-0.495443
C	 0.3513067967	-2.9021154953	 0.3607020323	-0.370275
C	 1.4176635826	-1.9435721933	 0.8304645723	 0.287326
C	 2.8868704777	-2.1802530463	 0.6231894111	-0.506964
H	 0.4963624119	 2.0099567773	 0.5587339708	 0.100728
H	-0.5258573321	 1.721982362	-0.8750985832	 0.124566
H	-1.1167649825	 1.2746728505	 0.7457782513	 0.105863
H	 1.4687122039	 0.1024635715	 1.5916605971	 0.058657
H	-0.1779543543	-0.8156902367	 3.0500275271	 0.094597
H	-1.3101741635	-1.1405726277	 1.7126460879	 0.094033
H	-0.3079430913	-4.0748627891	 3.1856293397	 0.119829
H	 1.323834582	-4.3701888078	 2.5775292487	 0.115891
H	 1.0498289842	-3.1300211371	 3.8111613436	 0.112588
H	 0.7217928503	-3.888343233	 0.0953451428	 0.10183
H	-0.4701457671	-2.5525984574	-0.2592291132	 0.11127
H	 3.20065872	-1.8629830155	-0.3783924776	 0.127573
H	 3.4906912236	-1.6259193227	 1.3514265632	 0.111133
H	 3.1362095487	-3.2418707027	 0.7237002488	 0.11479
92.8388	119.1568	165.8291	176.6514	180.9328	207.1781	230.401	289.218	329.3911	352.1179	442.1648	465.9371	539.5772	582.2996	703.4365	722.3167	826.806	848.8063	950.0524	958.4092	980.1041	995.0974	1012.8484	1033.8974	1062.7425	1082.2069	1109.7748	1147.0168	1157.3317	1184.3156	1199.8654	1226.1899	1238.0578	1246.0177	1275.9306	1350.7746	1380.6375	1406.202	1413.376	1432.1621	1475.8517	1480.4889	1484.3502	1487.4998	1488.6957	1496.645	1500.9	1508.7939	1516.8228	2966.418	2974.8272	3015.9766	3016.8708	3020.1942	3038.1135	3073.6944	3077.9821	3090.513	3093.4945	3095.4851	3110.5311	3110.8216	3194.2105
COC1CC2(C)CC12C	CO[C@H]1C[C@@]2(C)C[C@@]12C	
InChI=1S/C8H14O/c1-7-4-6(9-3)8(7,2)5-7/h6H,4-5H2,1-3H3	InChI=1S/C8H14O/c1-7-4-6(9-3)8(7,2)5-7/h6H,4-5H2,1-3H3/t6-,7-,8-/m0/s1
