23
gdb 95495	2.03928	1.5039	0.91885	0.4095	96.19	-0.2073	-0.0131	0.1942	1358.5945	0.20671	-351.182393	-351.173116	-351.172172	-351.216248	36.081	
C	-0.336513296	 1.4759325625	 0.0498143004	-0.403061
C	-0.0070388048	-0.0233665091	-0.0138611106	-0.023052
C	 0.7411598918	-0.3701862582	-1.321317685	-0.198591
C	 0.6136913363	-1.8334312253	-1.7497930931	-0.266427
C	 1.0139914847	-2.8883671608	-0.7596297657	-0.064269
C	 1.3327401964	-2.7859721071	 0.53889772	-0.109252
C	 1.3593395476	-1.6257809584	 1.4402356517	 0.28154
C	 2.0962784017	-1.867360331	 2.739662782	-0.47997
C	 0.769002917	-0.4418032047	 1.2120476764	-0.148995
H	 0.5789389079	 2.0785880248	 0.0216638386	 0.115622
H	-0.9632635561	 1.7794845552	-0.7944513229	 0.107419
H	-0.8698529626	 1.7248278561	 0.9731382453	 0.111794
H	-0.9606662413	-0.5742617318	-0.025806314	 0.08458
H	 0.3523569258	 0.2532433423	-2.1357380013	 0.087837
H	 1.7981995028	-0.105283457	-1.2040066532	 0.101799
H	-0.422835089	-2.0348291315	-2.0617116352	 0.108864
H	 1.2074810356	-1.9850624501	-2.6631884407	 0.104286
H	 1.0554782519	-3.889974533	-1.1862286832	 0.084558
H	 1.6256413045	-3.7160278115	 1.0254231019	 0.074333
H	 1.660997185	-2.7122999399	 3.2885445087	 0.12129
H	 3.1479174729	-2.1220520563	 2.5581344792	 0.123246
H	 2.0670340888	-0.9898203898	 3.3900016028	 0.116559
H	 0.8613758291	 0.3183033447	 1.9863391581	 0.069887
56.183	157.2777	194.4461	212.3922	240.0541	283.3892	314.2512	356.4535	384.9736	402.9239	481.0301	553.7369	562.5379	717.1421	762.4049	800.1135	826.4427	860.5193	898.7629	931.4698	963.658	980.0394	1017.7968	1047.8952	1068.8246	1069.9719	1093.6125	1101.3297	1142.3664	1189.4595	1209.5363	1256.4791	1296.3339	1322.1035	1334.7314	1360.8707	1387.058	1399.4585	1410.8195	1413.6702	1456.6026	1465.4117	1479.6786	1488.2706	1495.9208	1498.8236	1503.1496	1687.5988	1721.2487	2974.9014	2988.9257	3009.9096	3016.8447	3025.3158	3030.0639	3064.1109	3068.3117	3093.734	3103.4125	3112.9104	3116.3987	3131.615	3139.5233
CC1CCC=CC(C)=C1	C[C@H]1CCC=CC(=C1)C	
InChI=1S/C9H14/c1-8-5-3-4-6-9(2)7-8/h3,5,7,9H,4,6H2,1-2H3	InChI=1S/C9H14/c1-8-5-3-4-6-9(2)7-8/h3,5,7,9H,4,6H2,1-2H3/t9-/m0/s1
