18
gdb 30459	4.66393	1.04357	0.86188	3.083	88.42	-0.2017	-0.04	0.1617	1352.5924	0.1473	-401.985182	-401.976373	-401.975429	-402.018861	32.25	
C	-0.0101535645	 1.4511390534	 0.026686087	-0.317912
N	-0.0154118763	 0.0008466592	-0.0305372939	-0.322202
C	 0.5461438032	-0.6476618051	 0.9041769621	 0.402044
O	 1.1574977231	 0.0264661114	 1.9675108188	-0.249773
C	 1.7624839503	-0.6453221295	 2.9756486259	 0.000192
C	 1.8355705214	-1.9860221432	 3.0556548783	 0.180461
C	 2.5195235166	-2.6852034205	 4.1970249058	-0.490953
C	 1.2180386503	-2.7309232852	 1.9792536818	-0.126058
C	 0.6073699121	-2.093556712	 0.9604061201	-0.17176
H	 1.0093574313	 1.8619598839	 0.034198893	 0.115915
H	-0.5325715114	 1.8455265529	-0.8482492103	 0.11553
H	-0.5102551861	 1.8322918364	 0.9282642687	 0.115902
H	 2.1789450115	 0.037326876	 3.7076505649	 0.125543
H	 2.9261676428	-1.9695411061	 4.9165809253	 0.126989
H	 1.8263181728	-3.3436258365	 4.7338021503	 0.133056
H	 3.3468058731	-3.3114023729	 3.842499392	 0.133084
H	 1.2540239171	-3.8160509322	 2.004591362	 0.106681
H	 0.1350534128	-2.6163703599	 0.1387725484	 0.123261
73.339	105.2303	162.2678	193.9865	203.1281	305.9746	312.3487	382.8628	417.4646	533.4228	559.041	621.2266	728.238	753.8823	774.8927	836.848	882.1507	942.6603	1002.0007	1022.3276	1052.0027	1068.8464	1106.8999	1128.4072	1173.121	1179.4738	1236.5325	1265.2779	1373.6935	1419.6311	1434.1811	1450.2886	1478.2948	1485.6087	1496.8894	1497.1496	1608.653	1702.7642	1741.1066	2992.0262	3024.7044	3038.2051	3074.9441	3102.8642	3112.7734	3174.6282	3200.8615	3224.2233
CN=C1OC=C(C)C=C1	C[N]C1=CCC(=CO1)C	
InChI=1S/C7H9NO/c1-6-3-4-7(8-2)9-5-6/h3-5H,1-2H3	InChI=1S/C7H10NO/c1-6-3-4-7(8-2)9-5-6/h4-5H,3H2,1-2H3
