12
gdb 133219	2.53608	1.75732	1.04471	1.9182	61.23	-0.2768	-0.104	0.1728	1023.0811	0.07484	-513.851766	-513.844255	-513.843311	-513.884075	27.178	
C	 0.1049124269	 1.4699386569	 0.0613033193	-0.463859
C	-0.0078992462	-0.0212940465	 0.0017262425	 0.273004
N	-0.0620249674	-0.581439524	-1.1618905546	-0.101129
O	-0.1654726932	-1.9469643562	-1.2490036986	-0.209284
N	-0.2156134036	-2.7699289706	-0.152471967	-0.120284
C	-0.1623158836	-2.2204413477	 1.004327198	 0.309772
F	-0.21223023	-3.0266122159	 2.0398861531	-0.022457
C	-0.0522351987	-0.7814929163	 1.261755837	 0.178116
O	-0.0025906228	-0.2807555472	 2.3674932962	-0.321221
H	 1.013072206	 1.7532523738	 0.6025710339	 0.161306
H	 0.1250648016	 1.8898350446	-0.944482706	 0.154735
H	-0.7381022291	 1.884924469	 0.6226118962	 0.161301
86.0676	150.6949	260.5297	274.3002	303.9532	328.7003	467.291	474.9199	539.5412	541.3735	569.7562	686.2912	804.5	853.6422	877.0025	981.2245	1037.2585	1054.8086	1092.8846	1340.1981	1409.8293	1435.0347	1462.9071	1467.598	1620.4454	1638.165	1770.67	3050.881	3110.0818	3160.6173
CC1=NON=C(F)C1=O	Cc1nonc(F)c1=O	
InChI=1S/C4H3FN2O2/c1-2-3(8)4(5)7-9-6-2/h1H3	InChI=1S/C4H3FN2O2/c1-2-3(8)4(5)7-9-6-2/h1H3
