17
gdb 37279	4.50816	1.59681	1.54712	1.8051	73.94	-0.2261	0.0002	0.2263	883.1966	0.13883	-384.626754	-384.621005	-384.620061	-384.656436	25.486	
O	-0.0393157661	 1.4326825035	-0.1190297524	-0.253121
C	 1.2598841679	 0.8209803528	-0.0169708831	 0.019603
C	 0.0504821131	-0.0015970979	-0.0335093685	 0.019604
C	 0.1888230415	-0.7200135268	-1.3758148809	-0.059756
C	 1.7248386901	-1.1348646641	-1.4248156649	-0.08005
C	 1.9558633139	-1.4449036691	-2.8993863551	-0.103361
C	 1.297433105	-0.4642995333	-3.5207133508	-0.115479
C	 0.7147898368	 0.3694685556	-2.383225127	-0.049692
C	 1.9022594367	 0.4453643269	-1.3523817521	-0.059757
H	 1.8370205602	 1.0630200593	 0.8690431359	 0.100057
H	-0.4031214809	-0.4605984404	 0.8384139153	 0.100058
H	-0.5805850367	-1.4271813216	-1.6876450749	 0.066296
H	 2.1563489909	-1.7846562189	-0.6616674604	 0.061664
H	 2.5233018225	-2.2711005744	-3.3033057635	 0.103147
H	 1.1763477687	-0.2650377831	-4.5759551281	 0.104068
H	 0.1194598091	 1.2493578603	-2.6111560123	 0.080424
H	 2.8482812474	 0.9049282112	-1.6407507171	 0.066296
285.6614	326.397	381.352	514.3389	541.9437	648.2566	652.481	719.7052	737.8151	797.1797	851.084	863.4892	905.3157	909.5824	913.9526	926.2908	934.6088	952.2388	964.7018	983.9008	1004.8463	1031.1572	1059.9302	1093.1911	1135.3085	1180.9347	1183.0182	1209.7252	1215.9369	1232.2274	1244.3253	1262.9637	1295.3554	1311.853	1318.4598	1410.9548	1634.5915	3103.5137	3111.993	3115.511	3158.7815	3166.8544	3178.7889	3220.7893	3247.9059
O1C2C1C1C3C=CC1C23	O1[C@H]2[C@@H]1[C@@H]1[C@H]3C=C[C@@H]1[C@@H]23	
InChI=1S/C8H8O/c1-2-4-5-3(1)6(4)8-7(5)9-8/h1-8H	InChI=1S/C8H8O/c1-2-4-5-3(1)6(4)8-7(5)9-8/h1-8H/t3-,4+,5-,6+,7-,8+
