15
gdb 27999	2.59692	1.39673	0.90929	4.4706	73.66	-0.1864	-0.0175	0.1689	1196.7364	0.113069	-453.990407	-453.981994	-453.98105	-454.023184	31.502	
N	 0.0647107139	 1.4181355204	 0.1664028223	-0.60111
C	 0.0134600433	 0.0282928844	 0.0348993054	 0.270726
C	-1.0873483545	-0.7769761279	 0.0456065274	-0.18769
N	-0.6380474409	-2.1109319029	-0.0180051544	-0.100503
C	-1.4488226848	-3.2337772079	-0.0324736304	 0.163334
O	-2.6537463797	-3.1857917979	 0.0167454582	-0.311564
C	 0.7468175787	-2.0995175004	-0.077407638	 0.434922
O	 1.3822702272	-3.2909629846	-0.1507342122	-0.433871
C	 1.189659788	-0.8127995324	-0.0460679178	-0.389233
H	 0.7975224454	 1.8452311683	-0.3846426786	 0.244659
H	-0.8183842424	 1.8708015505	-0.0284770181	 0.247231
H	-2.1421066963	-0.5766710961	 0.0981681114	 0.137491
H	-0.8658805457	-4.165408273	-0.0938230256	 0.114926
H	 2.331189262	-3.1320124874	-0.1615347995	 0.313843
H	 2.2177948459	-0.4839436031	-0.0594898801	 0.09684
120.6163	193.5119	211.044	225.2915	249.5887	261.3381	310.8444	407.6684	426.7707	577.7014	609.1753	619.2133	644.9236	685.5293	696.11	715.7245	761.1702	902.1484	986.4771	1026.3824	1102.9062	1127.4895	1193.7845	1213.6861	1271.3173	1379.5895	1408.1481	1453.5612	1517.1756	1606.4629	1650.5131	1678.9496	1804.8181	3027.8918	3241.6762	3302.5719	3541.8322	3634.0994	3843.7979
NC1=CN(C=O)C(O)=C1	Nc1cn(C=O)c(O)c1	
InChI=1S/C5H6N2O2/c6-4-1-5(9)7(2-4)3-8/h1-3,9H,6H2	InChI=1S/C5H6N2O2/c6-4-1-5(9)7(2-4)3-8/h1-3,9H,6H2
