18
gdb 33038	4.46786	0.83704	0.73847	3.8601	76.39	-0.216	0.0211	0.2372	1550.8737	0.147287	-439.115113	-439.106341	-439.105396	-439.14939	32.015	
C	 0.0322268222	 1.5130775366	-0.1630570816	-0.384098
C	 0.0105622924	-0.0142742724	-0.0819447049	-0.164582
C	-1.4107592515	-0.569004598	 0.1376871492	-0.309177
C	-1.4657224473	-2.0501326962	 0.1830083334	 0.332519
C	-1.8023768131	-2.9435202185	 1.1093245799	-0.163065
O	-1.6501282081	-4.2222948385	 0.5949052835	-0.218637
C	-1.2000328774	-4.0755866575	-0.6943613116	 0.496593
N	-0.9256268103	-4.9696164141	-1.53300211	-0.581198
O	-1.0834518318	-2.7427688097	-0.96010225	-0.230296
H	 1.0492842557	 1.8842408576	-0.3191929419	 0.12009
H	-0.5853741651	 1.8749793434	-0.9924365398	 0.11995
H	-0.3506315836	 1.9672599098	 0.7578000768	 0.115304
H	 0.4197657698	-0.4455438985	-1.0017292114	 0.126001
H	 0.655316639	-0.3579783524	 0.735537595	 0.104894
H	-1.8259731547	-0.1850084885	 1.0761267055	 0.116707
H	-2.0657710691	-0.2108636706	-0.6680379817	 0.126027
H	-2.1536979004	-2.8587497745	 2.1219925736	 0.157802
H	-1.0815243767	-5.8915752481	-1.1343410638	 0.235163
70.5917	85.6229	97.2235	197.3547	241.6781	292.8956	309.9365	378.2402	498.1041	607.0904	691.4219	726.4763	745.3723	749.9095	775.3364	780.1496	869.212	896.7964	918.2849	995.305	1010.8892	1044.0053	1087.3288	1110.8153	1118.8828	1207.4725	1248.7942	1263.1216	1314.8228	1325.6876	1364.8803	1388.2811	1413.8273	1469.7039	1493.0366	1499.1304	1509.7763	1740.3436	1812.0191	3018.8993	3030.8225	3040.6754	3065.0524	3082.0445	3103.0109	3108.8322	3304.8483	3547.4669
CCCC1=COC(=N)O1	CCCC1=CO[C@@H]([NH])O1	
InChI=1S/C6H9NO2/c1-2-3-5-4-8-6(7)9-5/h4,7H,2-3H2,1H3	InChI=1S/C6H10NO2/c1-2-3-5-4-8-6(7)9-5/h4,6-7H,2-3H2,1H3/t6-/m1/s1
