18
gdb 83667	2.33076	1.67841	1.3047	5.2764	75.02	-0.2611	0.0239	0.2849	1036.6586	0.148344	-401.927772	-401.919608	-401.918664	-401.961051	30.457	
C	-0.6047737166	 1.3933139019	 0.128916781	-0.42403
C	-0.0833123217	-0.0253942976	-0.0363445668	 0.003102
C	 0.7621889469	-0.4024934483	-1.2895073496	-0.101741
C	 1.7912597035	 0.6381233228	-1.7675015318	-0.08508
O	 2.781533172	 0.1590598568	-0.8203134799	-0.272308
C	 1.9196847103	-0.8901194425	-0.3771585981	 0.117262
C	 1.094297088	-0.5246010523	 0.9007791238	-0.21928
C	 1.6963890479	 0.4397494644	 1.8024186464	 0.303377
N	 2.1504460667	 1.2196941905	 2.5251997028	-0.33729
H	 0.2004672455	 2.132891352	 0.1248550751	 0.145569
H	-1.3032371049	 1.64100291	-0.6774836632	 0.119476
H	-1.1365882563	 1.500476069	 1.0793754804	 0.133264
H	-0.9156142193	-0.7279096244	 0.0603598791	 0.092436
H	 0.2770060304	-1.0118133286	-2.0503252979	 0.085375
H	 2.1326920195	 0.4897707961	-2.7987464606	 0.110943
H	 1.552102378	 1.696127008	-1.6192214547	 0.116115
H	 2.3954144704	-1.8735050616	-0.3955867906	 0.0902
H	 0.8078850399	-1.4116898062	 1.4728710746	 0.122609
45.1118	134.6622	162.747	215.0494	274.1115	338.6724	365.6439	472.5367	520.8439	609.1183	686.287	740.6229	782.2983	845.5807	887.689	913.7525	953.2578	992.1227	1010.652	1014.1133	1057.3603	1105.6951	1121.3621	1134.366	1155.1125	1184.3288	1206.4149	1235.1489	1271.8797	1296.1791	1325.2832	1334.6916	1347.1839	1377.9143	1416.72	1491.1147	1495.9048	1527.6565	2354.6095	3027.9924	3039.2774	3058.9153	3072.8785	3078.5136	3084.3477	3105.7715	3119.2022	3124.6656
CC1C2COC2C1C#N	C[C@H]1[C@H]2CO[C@H]2[C@H]1C#N	
InChI=1S/C7H9NO/c1-4-5(2-8)7-6(4)3-9-7/h4-7H,3H2,1H3	InChI=1S/C7H9NO/c1-4-5(2-8)7-6(4)3-9-7/h4-7H,3H2,1H3/t4-,5+,6-,7+/m1/s1
