19
gdb 57963	3.83492	0.80174	0.71864	1.1996	71.99	-0.2645	-0.0331	0.2315	1576.2175	0.156138	-460.156411	-460.146567	-460.145623	-460.19254	34.93	
C	 0.1208649265	 1.3334836361	-0.5388931774	-0.405266
C	-0.0935398915	 0.0395040817	 0.2588737436	 0.068649
O	 0.2021325923	 0.2493441097	 1.6124786034	-0.438449
C	-1.5185015369	-0.505146619	 0.11997174	 0.350791
O	-2.1769766842	-0.6964660506	 1.1221141522	-0.325151
C	-2.0533617313	-0.808610859	-1.2663625233	-0.352998
C	-3.3456072757	-1.5897611751	-1.2410425836	 0.116153
C	-4.6505313032	-0.9326463099	-1.3467680118	-0.166188
O	-4.0784033857	-1.6169374675	-2.465628527	-0.245005
H	 1.1302402787	 1.7030073008	-0.3435856322	 0.140784
H	 0.0165406335	 1.1700750862	-1.6155114747	 0.118594
H	-0.5898522775	 2.1027374014	-0.2217512676	 0.128177
H	 0.5729613701	-0.7378342229	-0.1584517358	 0.090692
H	-0.5841419327	-0.0514415003	 2.0965022722	 0.292797
H	-2.203448783	 0.137475172	-1.8015257053	 0.145464
H	-1.2861643516	-1.3495844125	-1.8360667	 0.136129
H	-3.2998972741	-2.5461372549	-0.7210249567	 0.107846
H	-5.529015514	-1.402009649	-0.9081188935	 0.123383
H	-4.7000380097	 0.1517196429	-1.4380394422	 0.113598
42.0983	54.4802	79.5535	133.8123	221.789	244.9172	307.9812	340.3122	382.4658	404.7214	438.192	469.8193	578.7606	696.7896	785.1182	849.107	877.1014	881.2069	931.8394	977.4992	1012.1069	1065.2855	1077.3461	1111.2	1129.2846	1156.6234	1173.888	1192.5897	1214.4214	1281.3102	1297.8167	1350.3865	1358.8106	1400.3724	1429.8895	1438.5405	1458.4131	1490.2166	1499.2855	1533.0286	1785.1695	2936.4444	3030.1723	3043.5455	3064.3406	3087.6714	3119.2526	3120.0087	3129.2992	3176.0457	3676.4421
CC(O)C(=O)CC1CO1	C[C@@H](O)C(=O)C[C@H]1CO1	
InChI=1S/C6H10O3/c1-4(7)6(8)2-5-3-9-5/h4-5,7H,2-3H2,1H3	InChI=1S/C6H10O3/c1-4(7)6(8)2-5-3-9-5/h4-5,7H,2-3H2,1H3/t4-,5+/m1/s1
