17
gdb 124869	3.64947	1.22301	1.19846	5.9248	72.65	-0.276	-0.013	0.2629	1099.4653	0.136668	-414.15959	-414.151686	-414.150741	-414.192775	29.321	
C	-0.2238333772	 1.4567522177	 0.471817229	-0.443695
C	 0.0046475641	 0.0246126347	 0.0359027664	 0.331768
C	 1.3332527748	-0.4100909643	-0.5327344044	-0.310136
C	 0.8997052255	-0.8839497154	 0.8326688272	-0.279384
N	-1.1652122282	-0.5943990371	-0.5439367798	-0.011095
C	-1.5698971991	-0.672559383	-1.8259167552	 0.055681
N	-2.7474067907	-1.2528853596	-1.8761399656	-0.227774
N	-3.0700992449	-1.5262579404	-0.5817784561	-0.095492
N	-2.1404613117	-1.1362517951	 0.2231665753	-0.127987
H	 0.6878256633	 1.8677190018	 0.9131996967	 0.127517
H	-0.5067547821	 2.0880888014	-0.3769347827	 0.12975
H	-1.0216769037	 1.5064441947	 1.2185346318	 0.151265
H	 1.3342665019	-1.134456635	-1.3389640115	 0.131844
H	 2.1088053751	 0.3439373915	-0.6041009579	 0.12971
H	 1.3778926534	-0.460090746	 1.7081560084	 0.130379
H	 0.594909379	-1.9175377106	 0.9389408364	 0.144826
H	-0.9933027795	-0.3143196753	-2.662524258	 0.162823
39.441	125.698	191.5353	227.5435	297.2024	320.2025	407.5	505.0446	541.9583	693.4249	739.7144	779.106	831.1235	872.9093	885.6559	945.3876	955.411	984.7234	1034.1671	1049.7493	1074.9838	1089.8477	1110.4402	1134.6578	1147.3358	1188.6189	1211.0866	1268.5597	1329.5267	1355.0899	1418.8635	1443.0503	1465.4534	1484.6874	1495.3447	1506.6922	1510.5936	3040.3991	3109.8993	3125.1377	3142.4176	3151.7454	3226.8789	3243.7609	3287.5809
CC1(CC1)N1C=NN=N1	CC1(CC1)n1cnnn1	
InChI=1S/C5H8N4/c1-5(2-3-5)9-4-6-7-8-9/h4H,2-3H2,1H3	InChI=1S/C5H8N4/c1-5(2-3-5)9-4-6-7-8-9/h4H,2-3H2,1H3
