17
gdb 67168	2.99191	1.58465	1.55304	4.8026	71.55	-0.2276	0.0271	0.2547	947.4761	0.137464	-417.997209	-417.989845	-417.988901	-418.028706	29.129	
C	-0.0348858606	 1.5637370453	-0.0183588657	-0.505994
C	-0.0287461507	 0.0702268242	-0.0302556976	 0.346231
C	 0.4371300949	-1.0001094598	-1.0068731988	-0.157826
C	 1.2531892625	-1.6065048874	 0.118868004	-0.197388
N	 0.5178230187	-0.7228568672	 1.1341829255	-0.238772
C	-0.5755233131	-1.5826984929	 1.596396392	 0.392439
O	-0.6049507242	-2.1777757835	 2.6398911171	-0.36468
N	-1.496609229	-1.651158936	 0.5671581402	-0.322032
C	-1.0357968035	-0.8853559608	-0.5539152045	-0.06056
H	 0.9715714778	 1.9593895983	 0.1497075813	 0.134798
H	-0.4044924584	 1.953263416	-0.9721238474	 0.122141
H	-0.6832823116	 1.9428773267	 0.7791358027	 0.136736
H	 0.716151923	-0.9033019734	-2.0495858878	 0.095145
H	 1.1788227667	-2.681800368	 0.3136055844	 0.121775
H	 2.304948655	-1.314823242	 0.0918801996	 0.126356
H	-2.1422447462	-2.4218386673	 0.5137519251	 0.258027
H	-1.7699007711	-0.5697606723	-1.2846553	 0.113605
131.5846	191.7668	222.6677	274.4502	333.7003	388.3993	476.8219	523.1614	582.9535	657.4317	739.061	764.723	823.2447	846.0857	853.4681	881.7401	928.7999	952.7963	985.1344	993.122	1020.1215	1074.3349	1095.1816	1133.1491	1144.8054	1181.4075	1207.4072	1245.0772	1303.8647	1331.5177	1374.6745	1412.0355	1473.0564	1476.8745	1498.5147	1515.7569	1867.3917	3033.076	3046.7106	3099.8332	3109.8998	3110.5308	3181.8225	3199.913	3651.8482
CC12C3CN1C(=O)NC23	C[C@@]12[C@H]3CN1C(=O)N[C@@H]23	
InChI=1S/C6H8N2O/c1-6-3-2-8(6)5(9)7-4(3)6/h3-4H,2H2,1H3,(H,7,9)	InChI=1S/C6H8N2O/c1-6-3-2-8(6)5(9)7-4(3)6/h3-4H,2H2,1H3,(H,7,9)/t3-,4+,6-/m0/s1
