16
gdb 70161	2.67268	1.69512	1.18501	5.8228	70.1	-0.2358	-0.0641	0.1718	1028.6617	0.124541	-437.927726	-437.919744	-437.9188	-437.960136	30.217	
C	-0.0741648976	 1.5350752836	 0.0133994258	-0.474896
C	 0.0672603968	 0.0334787099	 0.0132883987	 0.199716
C	-0.7892097569	-0.8295461371	 0.9552648022	-0.331645
C	 0.7019654455	-0.7795331235	 1.1165959509	-0.052941
N	 1.4406137751	-1.8484017951	 0.4934634784	-0.320967
C	 1.2790640101	-1.9226403644	-0.8692802531	 0.308329
O	 1.6609485963	-2.7942981335	-1.61032954	-0.341931
C	 0.4850367689	-0.6408471663	-1.2580340956	 0.258618
O	 0.3083588511	-0.2593546763	-2.3832287015	-0.295611
H	 0.8550041397	 2.017153422	-0.3056011053	 0.136413
H	-0.8609418682	 1.8390216592	-0.6830519611	 0.14783
H	-0.3306714536	 1.9096175309	 1.0084804793	 0.118415
H	-1.4090414904	-0.2687634304	 1.6470706702	 0.132706
H	-1.2292611877	-1.7499589136	 0.5863971232	 0.13631
H	 1.1671872422	-0.3016164015	 1.9712508927	 0.119139
H	 1.7187461287	-2.6719767837	 1.0068462651	 0.260515
97.8637	155.8241	184.7891	266.4538	277.9158	322.3481	425.8394	465.6991	524.4965	557.2811	575.1766	672.0787	707.7932	797.5663	842.9913	852.9366	904.3434	971.3598	997.9491	1031.8961	1055.9666	1096.3567	1112.5956	1125.8194	1222.6578	1292.5088	1332.5412	1387.1624	1413.7961	1419.5298	1481.978	1484.7803	1498.199	1843.3357	1852.5386	3041.5372	3111.2333	3117.0939	3130.8085	3176.7942	3223.822	3613.4114
CC12CC1NC(=O)C2=O	C[C@]12C[C@H]1NC(=O)C2=O	
InChI=1S/C6H7NO2/c1-6-2-3(6)7-5(9)4(6)8/h3H,2H2,1H3,(H,7,9)	InChI=1S/C6H7NO2/c1-6-2-3(6)7-5(9)4(6)8/h3H,2H2,1H3,(H,7,9)/t3-,6+/m1/s1
