21
gdb 106181	2.5879	1.50693	1.34518	1.4156	81.72	-0.244	0.0724	0.3164	1080.652	0.184802	-387.069969	-387.061933	-387.060989	-387.102562	31.821	
O	 0.021622258	 1.3619026599	-0.3209562979	-0.421281
C	 0.008271253	-0.0192156044	 0.0358007947	-0.233774
C	-1.4053712019	-0.4879240438	 0.0392948289	 0.395989
C	-2.0117783872	-1.8787707324	-0.0736282369	-0.140855
C	-2.92258498	-1.6170369038	 1.1272257242	-0.234646
C	-2.5416447347	-0.1019098955	 1.0336605738	-0.089376
C	-3.5599746268	 0.6809193961	 0.1957612848	-0.205495
C	-3.5569103324	-0.0575960309	-1.1723876428	-0.234141
C	-2.2425281306	-0.8370925239	-1.1606003218	-0.074476
H	 0.9174586055	 1.6914237234	-0.2004009031	 0.284481
H	 0.5925188702	-0.6224789002	-0.679016349	 0.082709
H	 0.4614211947	-0.1660359554	 1.0300934639	 0.08283
H	-1.5119023029	-2.8145348613	-0.3012739643	 0.075823
H	-3.9852126045	-1.8719709343	 1.0357338008	 0.085604
H	-2.5278839731	-2.0800563426	 2.0355433265	 0.096005
H	-2.2548362432	 0.3779052883	 1.9699739397	 0.063112
H	-4.5520752239	 0.7116735227	 0.6585663889	 0.087233
H	-3.2141314976	 1.712424205	 0.0697898292	 0.10762
H	-4.4217672151	-0.7215938734	-1.27998457	 0.096285
H	-3.5889359344	 0.6446589134	-2.0104926773	 0.099008
H	-1.729238673	-1.032423767	-2.0964781224	 0.077346
81.5763	117.3289	219.8873	245.8974	292.1015	365.5882	370.9158	463.5186	590.4566	632.5519	715.6273	743.5993	813.7471	845.9435	860.4516	898.0682	919.1629	944.4574	956.2722	984.4768	1010.3505	1038.0988	1051.1866	1057.1892	1074.8361	1102.4201	1122.7054	1150.3945	1181.0005	1202.6363	1234.9467	1238.6324	1261.9849	1271.1974	1289.498	1299.31	1307.2481	1333.1545	1350.3968	1432.014	1479.7147	1486.2601	1498.6228	1512.6433	1512.7255	2954.7068	2980.252	3029.1592	3036.6049	3044.4593	3074.7941	3088.3671	3092.6763	3107.2569	3157.7407	3171.1042	3820.959
OCC12C3CC1CCC23	OC[C@@]12[C@H]3C[C@@H]1CC[C@@H]23	
InChI=1S/C8H12O/c9-4-8-5-1-2-6(8)7(8)3-5/h5-7,9H,1-4H2	InChI=1S/C8H12O/c9-4-8-5-1-2-6(8)7(8)3-5/h5-7,9H,1-4H2/t5-,6+,7-,8+/m0/s1
