20
gdb 79886	2.49888	1.71726	1.40555	1.6677	78.83	-0.2162	0.0576	0.2738	1029.7223	0.170421	-403.060672	-403.05237	-403.051425	-403.092971	32.527	
C	-0.3641398147	 1.4508225992	-0.1172946919	-0.335535
N	 0.1109067093	 0.0810083863	 0.0787506561	-0.108211
C	 1.3641394965	-0.4945559608	-0.3020304348	-0.136601
C	 2.6234491673	 0.2814642966	 0.1875877122	 0.111412
O	 2.5934613733	 1.7331611127	 0.1823640944	-0.299073
C	 2.2207476908	 1.7642694743	 1.5878166878	-0.112049
C	 2.1252382184	 0.2276745928	 1.636080693	-0.133805
C	 0.8438741233	-0.5310392425	 1.1447636879	 0.293927
C	 0.2064962377	-1.6315095655	 1.9450476417	-0.478914
H	 0.4252076168	 2.1806583787	-0.3003113764	 0.149049
H	-1.0408606652	 1.447909357	-0.9789651466	 0.116457
H	-0.951770316	 1.7497541358	 0.756366365	 0.116534
H	 1.3825229611	-1.2676629967	-1.0667907241	 0.083612
H	 3.5826664169	-0.127311724	-0.1408063947	 0.08087
H	 3.0383051439	 2.1730378764	 2.193858872	 0.103605
H	 1.3124543476	 2.346195379	 1.7700387526	 0.103474
H	 2.6785547959	-0.3001113186	 2.4116020948	 0.078155
H	-0.3653135423	-1.220289248	 2.7865600472	 0.11996
H	-0.4821269622	-2.2034895316	 1.3183721439	 0.131544
H	 0.9593856215	-2.3109540012	 2.3591422499	 0.115589
150.1077	184.7854	190.9483	232.9493	263.7476	279.8153	301.6368	346.0077	513.6969	583.431	648.4935	699.8824	724.5582	825.9245	856.9242	861.5828	900.8409	942.7194	960.8259	988.3579	994.7168	1010.0418	1049.328	1106.8403	1135.9809	1148.5287	1165.0754	1181.2734	1188.6092	1193.8957	1226.8819	1270.0588	1289.3982	1305.2258	1348.0083	1401.3249	1424.9284	1469.556	1482.2401	1486.0859	1494.4274	1517.7887	1534.7556	3023.4058	3024.8219	3032.2516	3074.3569	3080.1671	3081.565	3090.8023	3121.8791	3123.8028	3133.2643	3137.439
CN1C2C3OCC3C12C	CN1[C@H]2[C@H]3OC[C@H]3[C@@]12C	
InChI=1S/C7H11NO/c1-7-4-3-9-5(4)6(7)8(7)2/h4-6H,3H2,1-2H3	InChI=1S/C7H11NO/c1-7-4-3-9-5(4)6(7)8(7)2/h4-6H,3H2,1-2H3/t4-,5+,6+,7-,8?/m1/s1
