20
gdb 9558	2.83919	1.7182	1.50409	2.0936	71.03	-0.2435	0.0736	0.3171	981.987	0.174514	-386.117602	-386.108317	-386.107373	-386.151535	33.539	
C	-0.0478195432	 1.4203924777	-0.0325582543	-0.253014
O	 0.2969339254	 0.0535033089	-0.1042545415	-0.279649
C	 0.7696056692	-0.5252924224	 1.0934959066	 0.351094
C	 2.0896120666	 0.0760799667	 1.5633141791	-0.459998
C	-0.2932844613	-0.7409127653	 2.2035493863	-0.120818
O	-0.1301065852	-2.1689587628	 2.1383301601	-0.293693
C	 0.7684037362	-2.0788495604	 1.0028174877	 0.102496
C	 0.1991012455	-2.7250017855	-0.2440853543	-0.391561
H	 0.827611463	 2.06979499	 0.1047327345	 0.111614
H	-0.5222862513	 1.6755456325	-0.9831779072	 0.130618
H	-0.7620049598	 1.6241449642	 0.7792575892	 0.10786
H	 1.9799138894	 1.1232147483	 1.8622111527	 0.117864
H	 2.4664541602	-0.4756765662	 2.4292453896	 0.129012
H	 2.836135894	 0.0208786108	 0.7643150103	 0.124533
H	-0.0547686261	-0.3422404506	 3.1971760052	 0.094937
H	-1.3064539586	-0.4273637978	 1.92018234	 0.096883
H	 1.74057922	-2.52545203	 1.2522775183	 0.069474
H	-0.7456089111	-2.2602925067	-0.5319136895	 0.126558
H	 0.8987670478	-2.6278017885	-1.0803212115	 0.117209
H	 0.0300260593	-3.7897879829	-0.0555584311	 0.11858
51.6564	105.6758	177.4527	195.9825	210.154	235.1725	290.7257	311.334	364.3433	409.5939	473.5267	522.0019	657.504	786.7717	875.3354	895.5933	929.0307	938.0337	1017.8805	1034.1196	1084.8573	1105.8812	1130.7076	1162.9773	1180.128	1182.2745	1212.7127	1241.5896	1248.4701	1297.8963	1363.0677	1386.123	1401.1157	1406.0267	1477.7701	1482.7318	1485.9126	1487.3298	1489.4936	1504.8615	1510.1963	1515.7801	2987.4117	3003.4709	3010.3163	3035.0845	3041.7528	3043.9949	3054.5576	3106.6041	3110.8665	3114.3705	3115.3981	3139.2621
COC1(C)COC1C	CO[C@@]1(C)CO[C@H]1C	
InChI=1S/C6H12O2/c1-5-6(2,7-3)4-8-5/h5H,4H2,1-3H3	InChI=1S/C6H12O2/c1-5-6(2,7-3)4-8-5/h5H,4H2,1-3H3/t5-,6-/m0/s1
