19
gdb 97777	2.77855	0.81448	0.69094	0.6419	92.3	-0.2292	0.0347	0.2639	1700.4338	0.156796	-348.687375	-348.677265	-348.676321	-348.724828	36.231	
C	 0.3391789519	 1.3828226425	 0.3050109338	-0.363354
C	-0.4091260769	 0.2158509826	-0.3650935903	-0.315436
C	 0.3279789894	-0.3828173656	-1.4724911146	 0.099148
C	 0.9585566202	-0.867031047	-2.3784185917	 0.064842
C	 1.6862074264	-1.4380304159	-3.4718393626	-0.195029
C	 3.1417801654	-1.8212501701	-3.3233323306	-0.291896
C	 2.1099920192	-2.9201646263	-3.4592217311	-0.191455
C	 1.7930952594	-3.7688724546	-2.3513993252	 0.346281
C	 1.5250100951	-4.499773606	-1.4348109771	-0.464709
H	 1.2992279968	 1.0481324157	 0.7072308598	 0.127192
H	 0.5360448383	 2.1823454695	-0.4144200918	 0.126518
H	-0.2540698961	 1.79589664	 1.126480439	 0.112515
H	-0.6272299723	-0.5573924706	 0.3828770889	 0.130768
H	-1.3850108884	 0.5658858082	-0.7260888086	 0.127672
H	 1.3951776672	-1.0791751195	-4.4553756701	 0.114473
H	 3.803756584	-1.6439347609	-4.1632926035	 0.121815
H	 3.5861182415	-1.6860351576	-2.3452217493	 0.13859
H	 2.0594716327	-3.4034786761	-4.4306425198	 0.117783
H	 1.2869257162	-5.1389696282	-0.6215097353	 0.194282
8.8928	63.1707	91.0309	155.827	191.1216	228.6461	233.5333	328.8002	415.2245	440.739	510.8586	559.2865	583.9589	614.1403	648.4593	704.016	763.9132	783.8545	827.1494	885.2774	941.7511	984.684	1039.2305	1075.7251	1084.4828	1102.9349	1117.288	1136.9124	1170.6519	1233.1586	1286.2334	1350.3374	1376.4563	1394.4993	1408.1345	1473.2396	1478.808	1494.5366	1505.4849	2240.0332	2364.8439	3018.4454	3043.1323	3045.4166	3116.0939	3122.8558	3137.8844	3144.1327	3150.2922	3243.1529	3506.8463
CCC#CC1CC1C#C	CCC#C[C@H]1C[C@H]1C#C	
InChI=1S/C9H10/c1-3-5-6-9-7-8(9)4-2/h2,8-9H,3,7H2,1H3	InChI=1S/C9H10/c1-3-5-6-9-7-8(9)4-2/h2,8-9H,3,7H2,1H3/t8-,9+/m1/s1
