16
gdb 67335	2.99334	1.54717	1.30976	2.3141	69.14	-0.2376	-0.0301	0.2075	982.8033	0.123486	-437.790507	-437.782939	-437.781995	-437.822818	28.88	
O	-0.1105943051	 1.3739149501	 0.0418503542	-0.470639
C	 0.0253900009	 0.0134346011	-0.0152088504	 0.43354
C	 0.3962691968	-0.9968099139	 1.12633052	-0.110706
N	-1.0413198276	-1.1206208448	 1.5313913708	-0.367227
C	-1.0803527743	-1.1028121704	 0.0303029234	-0.096533
C	 0.2756741406	-1.8553985162	-0.1742593484	-0.06062
C	 0.8801836505	-0.7381242972	-1.0642534431	-0.175376
C	 0.426331238	-0.6424742624	-2.4955578373	 0.134708
O	-0.5555410022	-1.1942772777	-2.9304592361	-0.255103
H	-0.7074251341	 1.5745795358	 0.7745998856	 0.301363
H	 1.2271203158	-0.9453211014	 1.8310890769	 0.086065
H	-1.2363080948	-2.0615886491	 1.8833262482	 0.211658
H	-1.9926478829	-1.1877748772	-0.555039048	 0.10833
H	 0.4127269719	-2.9305040442	-0.2653426131	 0.091359
H	 1.9582055466	-0.565666417	-0.973176795	 0.084852
H	 1.0547187899	 0.0006884446	-3.1516593078	 0.084328
67.6005	158.4831	195.2833	281.968	312.421	351.406	435.0078	525.8782	654.1485	697.2044	748.4135	799.8482	849.8129	872.2986	900.0993	902.8572	928.2073	937.6474	1011.1615	1034.6165	1065.4451	1069.84	1097.9125	1123.3261	1149.2313	1155.0189	1209.293	1215.669	1271.8105	1284.3402	1344.6556	1355.6503	1412.3214	1426.9485	1815.3841	2881.0519	3056.8193	3110.8855	3147.1676	3158.5835	3408.5594	3779.7629
OC12C3NC1C3C2C=O	O[C@@]12[C@H]3N[C@@H]1[C@H]3[C@H]2C=O	
InChI=1S/C6H7NO2/c8-1-2-3-4-6(2,9)5(3)7-4/h1-5,7,9H	InChI=1S/C6H7NO2/c8-1-2-3-4-6(2,9)5(3)7-4/h1-5,7,9H/t2-,3-,4-,5+,6-/m1/s1
