19
gdb 95329	3.12648	1.45629	1.14808	3.9282	77.01	-0.2348	0.0226	0.2574	1105.0376	0.162144	-419.188837	-419.181166	-419.180222	-419.220897	30.18	
C	-0.0248381324	 1.5025641182	 0.0842611689	-0.372956
C	 0.0075749993	-0.0288701579	-0.0021917494	 0.059962
C	 0.5917955241	-0.5090179373	-1.3622819125	-0.19311
N	 2.0722867342	-0.5412353549	-1.3481037029	-0.319023
C	 2.4227311825	-1.547045235	-0.3694804074	-0.113294
C	 3.6869341324	-1.5370754171	 0.5259907178	-0.129343
O	 2.8273428495	-1.4990840205	 1.7230135938	-0.270202
C	 1.7564301818	-1.1742105769	 0.9229771916	 0.451918
N	 0.7299120539	-0.5128698276	 1.1937991083	-0.310318
H	 0.9802577348	 1.9084252091	-0.065285521	 0.127024
H	-0.6870955224	 1.9209537812	-0.6810727046	 0.102629
H	-0.380238631	 1.8175366291	 1.0679769578	 0.128176
H	-1.0228921067	-0.4000133294	 0.0562158517	 0.085382
H	 0.1754000443	-1.5041350961	-1.6006180022	 0.083732
H	 0.2672434318	 0.1767469642	-2.1498001536	 0.10527
H	 2.411311637	-0.781455857	-2.2738447489	 0.22427
H	 2.1894707964	-2.5804489286	-0.6762874547	 0.08911
H	 4.3184028885	-2.4271006139	 0.5179572337	 0.120198
H	 4.2793056322	-0.6214465096	 0.4567950637	 0.130573
93.8692	193.5274	225.4387	253.5926	337.7042	380.0875	435.871	446.875	502.1805	612.1487	709.7804	730.1777	771.913	839.0203	882.2835	916.4357	938.7252	959.3353	980.8422	1041.2856	1065.09	1077.1785	1140.3047	1153.5027	1156.2837	1165.5953	1197.3298	1219.7723	1277.0174	1312.2279	1332.9536	1342.2318	1365.5592	1399.7902	1427.2033	1458.4494	1486.9198	1499.9471	1503.8211	1505.3663	1830.8503	2935.8075	2957.2534	3028.8266	3038.0304	3067.2448	3084.773	3110.3368	3129.7426	3137.7558	3514.6956
CC1CNC2COC2=N1	C[C@H]1CN[C@H]2CO[C]2[N]1	
InChI=1S/C6H10N2O/c1-4-2-7-5-3-9-6(5)8-4/h4-5,7H,2-3H2,1H3	InChI=1S/C6H10N2O/c1-4-2-7-5-3-9-6(5)8-4/h4-5,7H,2-3H2,1H3/t4-,5-/m0/s1
