19
gdb 113731	2.61141	1.13635	0.89293	3.0411	76.21	-0.2741	0.0213	0.2953	1353.1563	0.158293	-419.191491	-419.181533	-419.180589	-419.227574	35.243	
C	 0.4420146705	 1.544751042	 0.0642805121	-0.37604
C	-0.2724295769	 0.1958293257	-0.0919996973	-0.243378
C	 0.1988648697	-0.5356193821	-1.3255896232	 0.071583
O	 1.4984222547	-1.1559881765	-1.3084377679	-0.252163
C	 0.3580297838	-1.9867777944	-1.5045970529	 0.06124
C	 0.0880885145	-3.0996406972	-0.4953299007	-0.170234
N	 0.7230956512	-4.3270496563	-0.9937753107	-0.500392
C	 0.508398224	-2.7817594374	 0.8842943112	 0.282627
N	 0.8465325126	-2.6342037225	 1.9800803349	-0.335378
H	 1.5202234297	 1.3969185761	 0.1741115747	 0.138844
H	 0.2766081111	 2.1877489562	-0.8072714461	 0.114093
H	 0.0797921948	 2.077149628	 0.9480087599	 0.11958
H	-0.1159091442	-0.4092200447	 0.8022516226	 0.141493
H	-1.3543801452	 0.3554695027	-0.1908005782	 0.10248
H	 0.0181496052	 0.0185885149	-2.2511554633	 0.094163
H	 0.2553432007	-2.385829895	-2.5152815822	 0.111101
H	-0.9950726399	-3.2778945538	-0.4766777558	 0.140121
H	 1.7326554068	-4.2031906907	-0.9983768029	 0.252829
H	 0.529787257	-5.0985224049	-0.3617868141	 0.247429
30.7479	52.1305	136.1605	165.0995	194.4015	227.0259	254.037	286.6526	338.2635	376.9337	454.1109	545.8128	613.3854	668.605	752.15	774.0921	837.0216	859.9309	917.8056	956.9471	1002.0191	1035.5471	1085.3444	1101.4956	1112.1944	1167.2779	1180.1677	1210.6018	1290.3459	1301.4809	1342.1428	1349.968	1382.5247	1405.6997	1409.9329	1476.9718	1491.4058	1498.0904	1508.4434	1663.3365	2347.7692	3028.874	3033.168	3036.9046	3066.1514	3100.0965	3100.9724	3119.8469	3131.3303	3489.911	3571.1534
CCC1OC1C(N)C#N	CC[C@H]1O[C@H]1[C@@H](N)C#N	
InChI=1S/C6H10N2O/c1-2-5-6(9-5)4(8)3-7/h4-6H,2,8H2,1H3	InChI=1S/C6H10N2O/c1-2-5-6(9-5)4(8)3-7/h4-6H,2,8H2,1H3/t4-,5+,6-/m0/s1
