12
gdb 21864	3.51964	2.29671	1.38981	5.0222	58.93	-0.23	-0.0269	0.2031	796.8605	0.085132	-414.675937	-414.66954	-414.668596	-414.706257	24.354	
O	 0.0800031336	 1.3691173165	-0.0994930702	-0.431543
C	 0.0603223461	 0.0217488748	-0.0355249514	 0.305451
C	-0.032086829	-0.7512402691	-1.1918716199	-0.039429
N	-0.0560590962	-2.0838147493	-1.1960649779	-0.203911
N	 0.0102930921	-2.7465794012	-0.0468733807	-0.205135
C	 0.1000695931	-2.0633870736	 1.0948317707	-0.078119
C	 0.1296680753	-0.674750123	 1.1668043692	 0.24026
O	 0.220240049	 0.0609002007	 2.3084784085	-0.456968
H	 0.1474882815	 1.7151574357	 0.7999834018	 0.31656
H	-0.089141402	-0.2629324111	-2.1598879414	 0.131132
H	 0.1510036902	-2.6638762297	 2.0017483746	 0.108561
H	 0.2628971763	-0.5199706506	 3.0756566666	 0.313142
182.0171	283.5849	289.255	320.1342	432.3942	449.93	467.5348	568.707	618.9196	622.9508	781.5619	809.1748	904.4982	907.624	946.876	1062.9412	1162.4171	1198.0247	1255.2	1290.9659	1319.1839	1351.2477	1425.0902	1526.6645	1613.4307	1646.0601	3141.5857	3184.7755	3783.0828	3822.6846
OC1=CN=NC=C1O	Oc1cnncc1O	
InChI=1S/C4H4N2O2/c7-3-1-5-6-2-4(3)8/h1-2H,(H,5,8)(H,6,7)	InChI=1S/C4H4N2O2/c7-3-1-5-6-2-4(3)8/h1-2H,(H,5,8)(H,6,7)
