18
gdb 31344	3.42744	1.13717	0.90988	6.3721	84.82	-0.2043	-0.0132	0.1911	1297.8348	0.150023	-398.177549	-398.169101	-398.168157	-398.211061	31.537	
C	 0.0403527489	 1.5449771542	-0.1201933244	-0.374515
C	-0.0369591158	 0.016753142	 0.0486598624	-0.295364
C	 0.6512165837	-0.4833063263	 1.2867212633	 0.365358
C	 0.0425139332	-1.0084715773	 2.3666423514	-0.213134
C	 0.8032363868	-1.4483680448	 3.5348001627	 0.329389
N	 0.2071483021	-1.9426636761	 4.5561454184	-0.542483
N	 2.2134044112	-1.3002009337	 3.4746914952	-0.317257
C	 2.7332801311	-0.7962122094	 2.4178643109	 0.088132
N	 2.038580132	-0.3730572411	 1.3169000166	-0.36197
H	 1.0752614691	 1.8973897837	-0.1840650541	 0.112373
H	-0.471591701	 1.855395271	-1.0352852318	 0.127036
H	-0.430471189	 2.051635333	 0.7268974789	 0.13789
H	-1.0827929715	-0.2980623851	 0.0912675478	 0.129879
H	 0.4019623195	-0.4719043242	-0.8324045617	 0.11186
H	-1.0343258615	-1.1167417863	 2.3941219886	 0.109461
H	 0.9124526645	-2.1844957301	 5.2554853278	 0.208468
H	 3.8139111202	-0.6764256418	 2.3484704255	 0.124616
H	 2.5354607466	-0.0044413776	 0.5228652926	 0.26026
59.0027	120.8935	141.1662	201.3765	290.9591	326.6231	389.3425	461.3629	492.2164	519.6735	569.009	655.1264	754.0182	772.7409	789.5923	873.735	887.4244	911.9563	966.4086	975.1418	997.4948	1068.2712	1083.3197	1111.1809	1178.7167	1194.8772	1269.6415	1322.7369	1353.6409	1382.6056	1414.0912	1427.1511	1477.5287	1496.4343	1502.697	1506.1786	1657.4415	1680.6056	1728.6843	3015.8124	3039.7862	3091.0209	3111.8434	3123.0356	3138.575	3215.5988	3456.2747	3649.5253
CCC1=CC(=N)N=CN1	CC[C@@H]1C=C([NH])N=CN1	
InChI=1S/C6H9N3/c1-2-5-3-6(7)9-4-8-5/h3-4H,2H2,1H3,(H2,7,8,9)	InChI=1S/C6H10N3/c1-2-5-3-6(7)9-4-8-5/h3-5,7H,2H2,1H3,(H,8,9)/t5-/m1/s1
