20
gdb 64308	2.26871	1.73476	1.26055	5.0291	82.23	-0.2157	-0.0259	0.1898	1076.5406	0.171694	-403.195926	-403.187029	-403.186084	-403.228819	34.502	
C	-0.0538389458	 1.5381538684	-0.0362405889	-0.417585
C	-0.0121507759	 0.0068816927	 0.0054272663	 0.135343
C	-1.4448446559	-0.5631843301	 0.0910200105	-0.412239
C	 0.709410777	-0.5219025282	-1.2465397657	-0.199242
N	 0.9418789119	-1.9587018961	-1.1583982365	-0.291847
C	 1.4437169677	-2.4430880433	 0.0105613136	 0.018991
C	 1.4088159	-1.7542963293	 1.1791557749	-0.224864
C	 0.7394449023	-0.4663076569	 1.2798093614	 0.363074
O	 0.6842459683	 0.183412512	 2.3111609557	-0.374764
H	 0.9499097084	 1.9601049124	-0.1542531364	 0.111931
H	-0.6739092822	 1.8900015769	-0.8679321798	 0.09981
H	-0.4631678679	 1.9215764969	 0.8996934999	 0.142793
H	-2.0419727114	-0.2243296661	-0.7633900724	 0.1064
H	-1.4449654368	-1.6566611636	 0.0923818269	 0.126442
H	-1.9315446724	-0.2183224823	 1.0072680686	 0.133747
H	 0.1151097645	-0.3152110657	-2.1426603418	 0.108818
H	 1.6723758487	 0.005293723	-1.3514324337	 0.103997
H	 1.2130784801	-2.4305684607	-2.0056109135	 0.250774
H	 1.8634969557	-3.4437421135	-0.0438494049	 0.120279
H	 1.8211416337	-2.1837649366	 2.0830435257	 0.098141
100.11	184.1728	206.5642	233.4937	240.0759	295.3989	336.9979	348.5502	398.8583	461.2888	482.4783	539.873	559.4812	673.3323	740.2484	826.9775	833.0385	863.1541	921.7586	959.6238	978.4408	999.6009	1017.9485	1038.8438	1097.1746	1182.2021	1184.1731	1227.3592	1241.4522	1282.0855	1313.542	1367.985	1393.1375	1411.8003	1430.1432	1476.878	1486.6871	1490.8691	1499.8906	1508.1251	1531.794	1663.5918	1747.8713	2965.7604	3031.0831	3035.4685	3067.5052	3096.2368	3102.6729	3123.3177	3139.8426	3171.927	3218.0305	3636.0047
CC1(C)CNC=CC1=O	CC1(C)CNC=CC1=O	
InChI=1S/C7H11NO/c1-7(2)5-8-4-3-6(7)9/h3-4,8H,5H2,1-2H3	InChI=1S/C7H11NO/c1-7(2)5-8-4-3-6(7)9/h3-4,8H,5H2,1-2H3
