17
gdb 14067	3.58872	1.63705	1.37033	3.6359	70.1	-0.2443	0.0358	0.2801	952.8322	0.142026	-363.874857	-363.86674	-363.865796	-363.907734	29.385	
C	-0.0665383632	 1.5293206499	-0.0402747424	-0.407857
C	 0.0190151221	 0.020355332	 0.0118604938	-0.051257
C	 1.3294344658	-0.6855173137	-0.2227543196	-0.346976
C	 0.7189407554	-0.670385773	 1.1506135804	 0.1787
C	 1.2568201227	-0.1164784343	 2.4833739659	-0.240765
N	 0.7246281648	-1.3420169293	 3.0954810701	-0.34835
C	 0.209017486	-1.8712877599	 1.930316392	 0.396127
O	-0.3986300233	-2.8782069235	 1.6780987979	-0.376051
H	 0.8511216569	 1.9933731455	 0.3363600248	 0.114845
H	-0.2145410328	 1.8760296056	-1.0685890135	 0.125153
H	-0.9019651089	 1.9039038453	 0.5611305772	 0.12277
H	-0.8640557975	-0.5037887198	-0.3457870927	 0.108026
H	 1.3267191124	-1.6319271843	-0.7532479356	 0.132868
H	 2.2120991412	-0.073681867	-0.3835312099	 0.114601
H	 2.3454285358	-0.0193482746	 2.5524937212	 0.113578
H	 0.7797560842	 0.8041889266	 2.8367162226	 0.113598
H	 0.6740229485	-1.6488366355	 4.0543366778	 0.250991
55.0549	138.2312	154.6803	195.6387	238.2558	302.6378	393.3207	450.1222	533.3025	621.364	716.7735	780.6559	809.6525	869.1874	905.5869	919.2339	986.6798	1017.2087	1051.2526	1079.9762	1115.4647	1123.1986	1153.9886	1156.6398	1184.7208	1195.3576	1292.2411	1327.7901	1384.8139	1414.1458	1434.6389	1487.7032	1491.7151	1508.2982	1525.868	1889.9425	3028.7813	3032.4975	3076.854	3093.89	3097.0645	3124.1065	3142.1892	3213.2235	3628.336
CC1CC11CNC1=O	C[C@H]1C[C@]21CNC2=O	
InChI=1S/C6H9NO/c1-4-2-6(4)3-7-5(6)8/h4H,2-3H2,1H3,(H,7,8)	InChI=1S/C6H9NO/c1-4-2-6(4)3-7-5(6)8/h4H,2-3H2,1H3,(H,7,8)/t4-,6+/m0/s1
