18
gdb 50645	3.18129	1.11496	0.86482	2.5843	73.52	-0.2432	-0.0312	0.2121	1287.6869	0.148899	-439.144803	-439.136371	-439.135427	-439.178506	30.92	
O	-0.6999586256	 0.8505964146	-0.624258469	-0.240583
C	 0.1239226737	 1.0004652971	 0.241362824	 0.141324
C	 1.3459636555	 1.8871745223	 0.1244285384	-0.102378
C	 1.4342496005	 2.6167216167	-1.2142923757	-0.195156
C	 2.7465840837	 3.3925320813	-1.2990450064	-0.174891
N	 2.9761126441	 4.1813373029	-0.0938203425	-0.302252
C	 2.4867933179	 3.9502922171	 1.1615386215	 0.383682
O	 2.875619142	 4.5748720453	 2.130288564	-0.368897
C	 1.3741041426	 2.9087921352	 1.2788208895	-0.320877
H	 0.0253626773	 0.48158859	 1.2230114881	 0.083191
H	 2.2171188018	 1.2219432498	 0.2431453168	 0.10218
H	 1.3667780685	 1.9129148788	-2.0475199412	 0.121619
H	 0.5828196896	 3.2998184788	-1.3076099248	 0.120813
H	 3.5792093279	 2.6898607314	-1.458141006	 0.109803
H	 2.7313148394	 4.0674973891	-2.1616884445	 0.11802
H	 3.7218803365	 4.862720282	-0.1100921405	 0.248062
H	 0.4274140998	 3.4643055286	 1.3051702566	 0.140711
H	 1.4854206447	 2.432190129	 2.2556530418	 0.135629
69.6303	106.9968	128.8294	202.3989	227.7533	335.0046	394.9199	450.1778	483.5182	545.2183	638.0534	667.4398	712.6512	797.641	829.4467	880.6623	933.4915	957.3152	977.8055	1059.595	1100.384	1110.7671	1156.9781	1176.7298	1253.5193	1263.5168	1286.2617	1319.1258	1335.4897	1348.1542	1391.8296	1400.688	1428.6662	1462.6567	1485.4796	1492.0405	1529.8947	1791.7218	1828.3746	2866.8515	2980.2931	2982.6618	3035.3001	3049.9268	3063.1445	3107.8372	3108.7144	3603.354
O=CC1CCNC(=O)C1	O=C[C@H]1CCNC(=O)C1	
InChI=1S/C6H9NO2/c8-4-5-1-2-7-6(9)3-5/h4-5H,1-3H2,(H,7,9)	InChI=1S/C6H9NO2/c8-4-5-1-2-7-6(9)3-5/h4-5H,1-3H2,(H,7,9)/t5-/m0/s1
