15
gdb 25224	3.40545	1.62487	1.10769	5.3753	75.3	-0.2167	0.0076	0.2243	1020.5089	0.116499	-416.854354	-416.847627	-416.846683	-416.885418	26.525	
N	-0.014489156	 1.3181298011	 0.01118958	-0.557247
C	-0.0677723754	 0.0549985509	 0.0040127355	 0.326491
O	 1.0657129052	-0.7641560951	-0.0069329791	-0.272462
C	 0.7203350259	-2.1601495631	-0.0132635592	-0.196476
C	-0.7699321903	-2.1193261351	-0.0049958267	 0.271919
C	-1.2230449473	-0.8283191976	 0.005059079	 0.224765
C	-2.6459551055	-0.8617168127	 0.0126085667	-0.34329
C	-2.9920489728	-2.1926020728	 0.0066297952	-0.058394
N	-1.8344563772	-2.9623165325	-0.0041745956	-0.384914
H	 0.9564083487	 1.6338789128	 0.0078133942	 0.218705
H	 1.1533672655	-2.6288853419	-0.9070227269	 0.127283
H	 1.1629253733	-2.6393213412	 0.8702218341	 0.127285
H	-3.3266390245	-0.0259693597	 0.0212396551	 0.120115
H	-3.9597530701	-2.6684250473	 0.0090655467	 0.128743
H	-1.8111457895	-3.967220316	-0.010285369	 0.267476
160.5094	194.9128	229.8287	302.9836	468.5163	528.3893	605.669	628.2244	629.7327	640.0477	721.3146	756.3164	776.9724	844.0879	862.7875	931.191	959.57	1029.5116	1031.7058	1057.701	1079.3797	1154.7354	1185.5525	1219.7691	1293.5739	1318.0954	1394.4388	1470.9378	1493.0005	1509.8778	1540.2073	1602.7423	1777.4348	3007.5959	3035.5873	3258.	3276.8462	3480.7171	3678.7494
N=C1OCC2=C1C=CN2	[NH][C]1OCc2c1cc[nH]2	
InChI=1S/C6H6N2O/c7-6-4-1-2-8-5(4)3-9-6/h1-2,7-8H,3H2	InChI=1S/C6H6N2O/c7-6-4-1-2-8-5(4)3-9-6/h1-2,7-8H,3H2
