14
gdb 12191	4.19558	1.43078	1.18887	1.9333	64.86	-0.2472	-0.036	0.2112	980.3952	0.104501	-382.502775	-382.494625	-382.493681	-382.535621	29.133	
O	 0.2493134879	 1.4119917922	 0.2436647629	-0.426083
C	 0.1143031004	 0.0392974725	 0.0667534985	 0.063098
C	-1.2879466615	-0.6657356077	 0.0617924902	-0.286203
C	-0.7947312221	-1.6273776042	-1.0776268807	-0.308739
C	-1.6833306848	-1.9937639249	-2.1525996995	 0.320032
C	-2.4212039531	-2.2719482596	-3.0596874998	-0.418374
C	 0.2936869718	-0.5427038893	-1.3411850877	 0.336376
O	 0.8023585864	-0.1043293465	-2.3288547706	-0.288322
H	 0.1588703305	 1.83346732	-0.6194147538	 0.297047
H	 0.7709240741	-0.4691114275	 0.783917703	 0.119447
H	-1.6039658164	-1.1349482908	 0.9926342668	 0.124706
H	-2.0649678136	 0.0067489872	-0.3061463496	 0.131756
H	-0.3184611465	-2.5122624379	-0.6385242026	 0.133793
H	-3.0708792232	-2.5222985237	-3.8614783971	 0.201466
77.7516	106.36	129.3458	212.9923	262.2147	347.8912	385.6274	483.5061	513.2784	607.2296	629.5753	637.9023	691.3267	799.5676	827.6809	930.3568	980.5816	1012.5931	1038.9001	1090.3276	1161.877	1167.9988	1210.081	1253.2207	1311.971	1348.2399	1421.3511	1483.3219	1885.5928	2240.1016	3036.5334	3043.3495	3089.4344	3158.5724	3503.712	3790.3079
OC1CC(C#C)C1=O	O[C@H]1C[C@@H](C#C)C1=O	
InChI=1S/C6H6O2/c1-2-4-3-5(7)6(4)8/h1,4-5,7H,3H2	InChI=1S/C6H6O2/c1-2-4-3-5(7)6(4)8/h1,4-5,7H,3H2/t4-,5+/m1/s1
