17
gdb 70054	3.72394	1.10991	0.95492	3.3086	78.2	-0.2464	-0.0558	0.1906	1217.9321	0.135381	-421.835395	-421.827378	-421.826434	-421.867872	30.919	
O	-0.0631421678	 1.3905860019	 0.0123551713	-0.466008
C	 0.0013464853	 0.0000406971	 0.0488004958	 0.394473
C	-0.3600298589	-0.785179094	-1.1767439198	-0.336492
C	-1.2955994442	-0.7945722643	 0.0392890759	-0.127151
C	-1.0803199223	-1.9083159998	 0.9881414923	-0.148778
C	 0.1542793444	-1.8772362127	 1.5274965406	 0.217741
C	 0.9346105086	-0.6628378401	 1.0667850797	-0.396799
C	 0.6733344006	-2.867245829	 2.4657442195	 0.073216
O	 1.7856137744	-2.8364668329	 2.9486260174	-0.27872
H	 0.6692146137	 1.7119822231	-0.5250137302	 0.286629
H	-0.7109389585	-0.205591576	-2.0239798583	 0.121173
H	 0.1786260289	-1.6953461349	-1.4202320087	 0.119122
H	-2.2628886565	-0.3182268018	-0.0646895834	 0.108601
H	-1.8277296005	-2.6649798921	 1.20437141	 0.114184
H	 1.9088305862	-0.933097726	 0.6455852623	 0.123322
H	 1.1278164583	 0.0206698576	 1.9021584823	 0.13139
H	-0.0439951717	-3.6793250861	 2.7230284834	 0.064097
98.9686	169.105	183.9885	263.2801	303.638	384.5957	394.6272	419.0264	457.2333	527.8097	593.8831	719.8573	740.6438	842.5448	865.2591	885.4661	898.5179	929.3643	979.3233	983.7552	1039.7102	1053.8685	1064.0738	1081.2852	1146.5235	1204.0041	1238.3458	1252.0194	1303.3681	1321.5856	1366.4667	1397.5768	1419.1664	1463.2374	1481.4573	1657.5601	1778.2545	2872.7597	3041.8243	3078.3872	3125.1857	3184.5736	3194.9406	3222.2726	3796.0164
OC12CC1C=C(C2)C=O	O[C@]12C[C@H]1C=C(C2)C=O	
InChI=1S/C7H8O2/c8-4-5-1-6-3-7(6,9)2-5/h1,4,6,9H,2-3H2	InChI=1S/C7H8O2/c8-4-5-1-6-3-7(6,9)2-5/h1,4,6,9H,2-3H2/t6-,7-/m1/s1
