16
gdb 84581	2.85389	1.86758	1.32742	0.6327	68.29	-0.2574	-0.0028	0.2546	935.7853	0.127161	-437.904376	-437.897514	-437.89657	-437.935705	27.058	
O	 0.0215682931	 1.4544821818	 0.0397809051	-0.427236
C	 0.0420954727	 0.0440141201	 0.0030350513	 0.081592
C	 0.7269126748	-0.6189162784	 1.1806579774	-0.116263
C	 0.016953315	-1.6152084558	 1.7041268227	-0.067761
C	-1.3228084891	-1.7875727746	 1.0223528985	-0.055849
N	-2.4409316977	-1.5407491907	 1.9607506344	-0.260605
C	-2.8752046581	-0.3907692687	 1.663500263	 0.113597
O	-2.3369164533	 0.2929526282	 0.6155816624	-0.243053
C	-1.3695759822	-0.6079503456	 0.0110451469	 0.029809
H	-0.6883757432	 1.7032321951	 0.6444588928	 0.28649
H	 0.5572152049	-0.2147427784	-0.9309773257	 0.097613
H	 1.7072220085	-0.2939402816	 1.51016117	 0.108951
H	 0.3074775828	-2.2406601999	 2.5398673906	 0.113019
H	-1.4419803564	-2.7741353874	 0.5645293899	 0.096172
H	-3.6699266654	 0.1407246207	 2.1753992707	 0.146263
H	-1.7367179464	-0.8539462848	-0.98704219	 0.09726
93.342	215.4166	266.919	333.5639	375.6045	488.6431	506.3907	570.5449	641.3543	745.4062	814.1499	829.2824	856.2863	873.3679	914.7748	954.9206	983.8037	991.4412	1000.5545	1036.552	1071.3089	1099.7835	1108.5263	1143.5254	1244.1966	1275.5493	1284.9235	1296.8505	1319.5321	1329.696	1357.1939	1374.4714	1439.0691	1679.5861	1704.5274	3026.2333	3061.6455	3095.3155	3194.323	3215.8104	3218.7632	3784.2075
OC1C=CC2N=COC12	O[C@H]1C=C[C@H]2N=CO[C@@H]12	
InChI=1S/C6H7NO2/c8-5-2-1-4-6(5)9-3-7-4/h1-6,8H	InChI=1S/C6H7NO2/c8-5-2-1-4-6(5)9-3-7-4/h1-6,8H/t4-,5+,6-/m1/s1
