20
gdb 70091	2.1476	1.88357	1.45515	0.4025	79.57	-0.23	0.0083	0.2383	1019.7187	0.16995	-403.13447	-403.125535	-403.124591	-403.167139	35.27	
C	-0.0569787305	 1.4920397123	 0.0047322363	-0.490941
C	 0.1020721857	-0.0058430566	 0.0125576624	 0.291903
N	-0.7424092727	-0.8361739054	 0.8972922696	-0.373021
C	 0.7377729662	-0.7729480781	 1.1166692767	-0.142221
C	 1.4408185428	-1.9293362983	 0.4932334309	-0.058404
C	 1.2451300746	-1.9362404622	-0.8255935635	-0.13375
C	 0.4370125033	-0.7388664529	-1.3075715459	 0.314865
C	-0.8045725222	-1.1323176864	-2.1113878324	-0.43825
O	 1.2571866223	 0.1596354942	-2.069737337	-0.475754
H	 0.8104722197	 1.9734551278	-0.4508994051	 0.147626
H	-0.943266158	 1.7922393569	-0.5664559142	 0.121019
H	-0.1718070517	 1.8703811311	 1.0261035838	 0.104023
H	-1.1977729745	-0.2153739737	 1.5665077006	 0.221466
H	 1.107644176	-0.298958541	 2.0199200194	 0.086942
H	 1.9878861968	-2.6735756139	 1.0599238708	 0.100742
H	 1.5904397747	-2.7004511952	-1.5150354122	 0.088389
H	-1.479547608	-1.734988905	-1.5008812077	 0.146041
H	-1.3314859827	-0.2350401533	-2.4514463147	 0.116909
H	-0.5226403329	-1.7150489514	-2.9968852851	 0.09735
H	 1.4894230711	-0.283547199	-2.8923060028	 0.275065
127.0481	193.4603	204.4568	240.3122	244.3988	271.6193	298.5725	361.5981	411.4795	446.774	474.5778	583.8628	610.4774	652.749	761.1031	772.8726	841.4509	855.7481	915.6772	936.7358	942.5588	960.8467	982.5561	1044.7368	1050.7251	1085.9399	1119.8243	1135.7828	1142.2107	1167.5254	1199.8148	1285.2114	1297.4132	1372.6757	1388.9816	1398.8624	1411.2393	1433.6408	1480.4588	1489.337	1498.4381	1503.6793	1668.4442	3027.8339	3029.816	3087.7109	3092.9392	3131.6211	3138.8723	3165.7666	3175.778	3207.8397	3460.2935	3814.889
CC12NC1C=CC2(C)O	C[C@]12N[C@H]1C=C[C@]2(C)O	
InChI=1S/C7H11NO/c1-6(9)4-3-5-7(6,2)8-5/h3-5,8-9H,1-2H3	InChI=1S/C7H11NO/c1-6(9)4-3-5-7(6,2)8-5/h3-5,8-9H,1-2H3/t5-,6-,7-/m0/s1
