15
gdb 54068	2.33311	1.25042	0.85112	5.8209	70.13	-0.2666	-0.0424	0.2242	1295.2344	0.107455	-457.756466	-457.746739	-457.745795	-457.791956	33.435	
C	 0.1904012121	 1.2512033814	 0.5589692782	-0.486737
C	 0.0775098458	-0.0984128076	-0.1036355149	 0.385575
O	 0.9617916495	-0.618412063	-0.731845734	-0.270896
C	-1.3046522361	-0.8218472378	-0.012702541	-0.189036
O	-1.1523100674	-2.2079608313	-0.2915341168	-0.174273
C	-0.9492941317	-2.5560043997	-1.5880046278	 0.196918
O	-0.7258595781	-3.6797146716	-1.9114279549	-0.267134
C	-1.9637080448	-0.6670651565	 1.2743475512	 0.299082
C	-2.4936042983	-0.5183881558	 2.3412926739	-0.402072
H	 1.1143921542	 1.7362909672	 0.2437331435	 0.153959
H	-0.6727382772	 1.8805075786	 0.3174194812	 0.147225
H	 0.1895578154	 1.1232748439	 1.6462677751	 0.169547
H	-1.9263241691	-0.3468280898	-0.791919058	 0.137877
H	-1.051535894	-1.7053311886	-2.2860517819	 0.085368
H	-2.9692874304	-0.3983683092	 3.2839438963	 0.214595
49.4868	82.5498	130.1862	142.4316	150.1679	198.9658	290.0466	317.8494	377.0391	438.5284	483.0203	519.8654	598.1287	632.2318	692.4822	714.7816	776.4417	963.9454	1022.5366	1035.5895	1044.6245	1088.0164	1157.6305	1195.6858	1269.6731	1333.8625	1387.229	1438.6778	1456.4409	1470.0121	1835.1204	1880.2175	2246.589	2956.9196	2974.0302	3046.6662	3109.5959	3160.1646	3499.8952
CC(=O)C(OC=O)C#C	CC(=O)[C@@H](OC=O)C#C	
InChI=1S/C6H6O3/c1-3-6(5(2)8)9-4-7/h1,4,6H,2H3	InChI=1S/C6H6O3/c1-3-6(5(2)8)9-4-7/h1,4,6H,2H3/t6-/m0/s1
