18
gdb 117476	3.02392	0.76944	0.67174	3.5365	71.08	-0.2513	-0.033	0.2183	1663.9993	0.144864	-476.245257	-476.235008	-476.234064	-476.282327	34.484	
C	 0.8768657712	 0.3234887836	 0.3718320415	-0.248263
O	 1.0905996689	 0.1527060264	-1.0196119034	-0.235686
C	-0.0203743908	-0.4024592476	-1.6923034298	-0.183331
C	-0.0819913593	-1.9351361625	-1.6534570501	 0.361407
O	-1.1004812869	-2.5418557015	-1.9258294441	-0.366759
N	 1.1026047631	-2.5281390001	-1.3303025351	-0.311917
C	 1.2594398489	-3.9628466228	-1.2765989937	-0.243325
C	 2.1285904344	-4.4973289534	-2.4064542129	 0.152912
O	 2.8714414524	-5.435717405	-2.2981978531	-0.228938
H	 0.0333978965	 1.0016845609	 0.5623138412	 0.123403
H	 0.6789285618	-0.6320585988	 0.8778743397	 0.117655
H	 1.7876300773	 0.763354572	 0.7839145686	 0.136567
H	-0.9740896601	-0.0202124419	-1.3073773208	 0.127707
H	 0.0575521199	-0.1029897118	-2.7434959771	 0.142197
H	 1.8807099668	-1.9145737106	-1.1399889531	 0.26381
H	 1.6689410292	-4.3013582914	-0.3196597534	 0.133165
H	 0.253828422	-4.3868463896	-1.3969409159	 0.173504
H	 2.0132270148	-3.939885146	-3.3642361386	 0.08589
44.7095	63.7722	81.1907	99.961	121.002	172.0461	231.388	288.7233	364.3221	394.7027	492.5143	513.6534	552.0974	628.5074	670.4482	778.2107	893.4479	953.5048	1029.2755	1052.3858	1101.4161	1126.4807	1135.0693	1181.9656	1218.0768	1237.8935	1274.2409	1300.3876	1339.8768	1365.3417	1412.8894	1445.5458	1462.8492	1485.4462	1489.2374	1505.5724	1538.6472	1790.1665	1841.2396	2877.0783	2992.7854	3030.9734	3036.5323	3048.4491	3082.1967	3094.0186	3125.1344	3622.4535
COCC(=O)NCC=O	COCC(=O)NCC=O	
InChI=1S/C5H9NO3/c1-9-4-5(8)6-2-3-7/h3H,2,4H2,1H3,(H,6,8)	InChI=1S/C5H9NO3/c1-9-4-5(8)6-2-3-7/h3H,2,4H2,1H3,(H,6,8)
