21
gdb 93244	2.71184	1.28551	0.92064	4.378	78.95	-0.2564	0.0118	0.2682	1306.2904	0.182808	-424.284331	-424.275126	-424.274182	-424.318356	34.508	
C	-0.1664428251	 1.5430380643	-0.0155454905	-0.408984
C	 0.0179347458	 0.023433089	 0.0074063714	-0.011769
C	 0.8047661789	-0.4377826913	-1.2140756324	-0.059281
O	 1.096455378	-1.8434840441	-1.2394837967	-0.237957
C	 1.3408629339	-2.5634809334	-0.1166012437	 0.417937
O	 1.83541207	-3.6530517563	-0.2308215698	-0.325936
C	 0.8773570011	-2.0021808555	 1.2318420243	-0.134737
C	 1.7395467986	-2.5542250116	 2.3709416194	-0.396873
C	 0.7542898085	-0.4731206453	 1.2524014747	-0.206868
H	 0.8001101558	 2.0585415064	 0.0203960301	 0.120678
H	-0.6875474112	 1.8708561416	-0.9211447886	 0.119672
H	-0.7527878488	 1.8752747729	 0.8463787975	 0.122419
H	-0.9720691699	-0.4529655279	-0.0247888884	 0.084208
H	 0.2583189844	-0.2434803228	-2.1412236466	 0.119963
H	 1.7585022869	 0.1063652472	-1.2683055349	 0.109132
H	-0.1381933894	-2.413526358	 1.3426807911	 0.11343
H	 2.7600728757	-2.1612609155	 2.3138675821	 0.120152
H	 1.3191749221	-2.2656087654	 3.3391870521	 0.108735
H	 1.7966673412	-3.6420075104	 2.316713957	 0.145105
H	 1.755113842	-0.0189088301	 1.2881848476	 0.10022
H	 0.2379203216	-0.1588799538	 2.1665491145	 0.100753
61.6695	119.6484	186.7349	212.4534	222.6297	251.034	306.793	371.7419	410.508	414.4788	432.912	553.9337	599.3864	718.314	768.3243	866.5321	888.5341	918.7588	956.2044	974.5466	1022.7076	1050.0282	1070.2852	1128.8362	1140.0246	1166.5956	1174.714	1208.3911	1223.7859	1291.3689	1299.1565	1339.1737	1352.7387	1370.6347	1388.8114	1409.1528	1410.3767	1433.5862	1488.749	1493.3901	1497.8038	1501.3516	1503.1831	1515.0609	1831.8673	2990.1997	3001.8058	3006.0878	3018.7406	3031.5177	3042.7046	3061.2749	3087.2207	3098.2106	3106.0198	3106.8927	3145.8287
CC1COC(=O)C(C)C1	C[C@H]1COC(=O)[C@@H](C)C1	
InChI=1S/C7H12O2/c1-5-3-6(2)7(8)9-4-5/h5-6H,3-4H2,1-2H3	InChI=1S/C7H12O2/c1-5-3-6(2)7(8)9-4-5/h5-6H,3-4H2,1-2H3/t5-,6+/m1/s1
