23
gdb 101897	5.74781	0.48437	0.4665	3.4079	84.41	-0.2468	-0.0184	0.2284	2353.0991	0.20237	-425.444486	-425.433093	-425.432149	-425.482517	39.652	
C	 0.0712728996	 1.5861883122	 0.0392479155	-0.381069
C	 0.0188213503	 0.0569567414	 0.0113426819	-0.189438
C	-1.4092111176	-0.5008416531	 0.0543466276	 0.133233
O	-2.1993418813	-0.0017813069	-1.02622071	-0.427846
C	-1.4356173676	-2.034553808	 0.0996898155	-0.200713
C	-2.8508124339	-2.6086640932	 0.2201432111	-0.191559
C	-2.8800189072	-4.1459300403	 0.1867145951	-0.276017
C	-4.2924449035	-4.6825198896	 0.2118471383	 0.16023
O	-4.7210611407	-5.472584549	 1.0127813421	-0.238182
H	 1.0994645359	 1.9494876099	-0.0481408606	 0.110275
H	-0.5156675169	 2.0075537846	-0.780963343	 0.126858
H	-0.3428518461	 1.975763828	 0.9756949609	 0.115836
H	 0.5132868823	-0.3194721746	-0.8968786404	 0.084468
H	 0.5843090151	-0.3560633448	 0.8559610971	 0.098104
H	-1.9118148606	-0.1130591107	 0.9510618674	 0.087008
H	-1.769960198	-0.2708998249	-1.846730399	 0.275788
H	-0.9550588649	-2.4234861306	-0.8111918774	 0.083919
H	-0.8191126297	-2.3789295536	 0.93986272	 0.100197
H	-3.30608794	-2.2584107272	 1.1554358081	 0.109633
H	-3.4660365497	-2.2033470938	-0.5909493492	 0.116427
H	-2.4141324732	-4.4934445973	-0.7478639815	 0.114355
H	-2.3254861906	-4.5839018596	 1.0222711479	 0.119091
H	-4.9474706218	-4.2747545489	-0.5950568875	 0.069403
46.0579	54.0251	81.6932	94.9933	135.2783	145.6622	218.3317	235.1819	270.2417	306.2298	316.3191	424.0638	476.7122	504.1511	554.3255	743.561	778.4502	811.032	854.0348	910.7723	957.2915	993.7752	1018.7093	1032.2019	1064.0762	1077.034	1103.81	1126.6538	1151.3827	1178.0677	1245.5921	1260.1954	1279.0551	1305.6797	1323.0666	1350.9739	1365.5628	1388.4766	1396.3358	1407.4636	1422.0261	1431.1062	1464.1089	1473.6788	1485.5555	1495.5122	1505.4794	1509.213	1836.5016	2847.6535	2992.9713	2998.4903	3004.264	3023.1291	3031.2304	3038.5344	3043.0232	3055.8952	3074.5033	3096.5332	3103.3519	3122.6532	3788.2574
CCC(O)CCCC=O	CC[C@@H](O)CCCC=O	
InChI=1S/C7H14O2/c1-2-7(9)5-3-4-6-8/h6-7,9H,2-5H2,1H3	InChI=1S/C7H14O2/c1-2-7(9)5-3-4-6-8/h6-7,9H,2-5H2,1H3/t7-/m1/s1
