15
gdb 5544	3.28847	1.97282	1.29609	2.3581	64.07	-0.2169	0.0134	0.2303	926.8295	0.118495	-399.8243	-399.816395	-399.815451	-399.857231	27.376	
C	 0.1496048656	 1.3416471771	 0.0629530664	-0.255596
O	-0.4352045202	 0.1296099867	-0.4305763021	-0.265622
C	 0.3276391992	-0.5872733848	-1.2581652588	 0.337197
C	 0.6717284449	-1.8991978726	-1.2843006705	 0.142058
C	 0.3536378761	-2.9756309273	-0.304465031	-0.495659
N	 1.4112649126	-2.1235555538	-2.4496508154	-0.301923
C	 1.475945867	-0.9746490711	-3.0299720576	 0.066054
O	 0.834867173	 0.028778721	-2.3764675669	-0.186507
H	 1.0810527495	 1.1295980777	 0.6004551543	 0.128179
H	 0.3493835889	 2.0405451102	-0.7546788416	 0.141756
H	-0.5819045201	 1.7741071947	 0.7463864673	 0.141461
H	-0.2545497566	-3.7623805801	-0.7639592239	 0.137204
H	 1.2672703615	-3.4490572826	 0.0702150143	 0.135202
H	-0.199991141	-2.566078116	 0.5439806661	 0.129721
H	 1.9744761497	-0.7098482291	-3.9490230206	 0.146474
52.4302	133.701	151.0172	183.128	250.897	265.892	391.1925	506.3197	627.3938	667.6092	703.0361	745.4623	809.1618	949.1233	973.9955	1031.479	1068.7687	1087.5388	1151.5442	1176.2813	1204.597	1256.6543	1308.0714	1372.3454	1422.4239	1478.2106	1480.3583	1487.0012	1495.8632	1503.6901	1564.7116	1711.6788	3027.2758	3035.4326	3088.95	3102.8717	3124.8137	3148.9316	3273.4032
COC1=C(C)N=CO1	COc1c(C)nco1	
InChI=1S/C5H7NO2/c1-4-5(7-2)8-3-6-4/h3H,1-2H3	InChI=1S/C5H7NO2/c1-4-5(7-2)8-3-6-4/h3H,1-2H3
