18
gdb 84147	2.28615	1.54362	1.10462	2.1856	73.79	-0.2451	-0.0323	0.2128	1151.8182	0.146001	-439.120106	-439.110995	-439.110051	-439.154718	32.488	
C	 0.0454134654	 1.5386252217	-0.0661498569	-0.404869
C	 0.0709614511	 0.0120876248	 0.0128873201	 0.002043
N	 0.7432927472	-0.5722744469	-1.1539039083	-0.304955
C	 1.5922847396	-1.4129789945	-0.726644187	 0.410634
C	 2.5007934279	-2.263314426	-1.5430226475	-0.477712
O	 1.7051833625	-1.5906806162	 0.6240222911	-0.237619
C	 0.8587863076	-0.6122665247	 1.2309660953	-0.024076
C	 1.6936754172	 0.3896388757	 2.010247713	 0.142529
O	 2.8839887788	 0.5153859689	 1.907482535	-0.235237
H	 1.0587196132	 1.9505893005	-0.0860470279	 0.139317
H	-0.4583895955	 1.8405631135	-0.9873939433	 0.13712
H	-0.495668098	 1.9760842266	 0.7792094497	 0.114128
H	-0.963941918	-0.3516494511	 0.031677036	 0.095798
H	 3.5426195297	-2.0544991805	-1.2817261199	 0.156214
H	 2.3173860432	-3.3215839872	-1.3323753897	 0.146863
H	 2.3376772794	-2.065922265	-2.6017067786	 0.152847
H	 0.1824515613	-1.1128931599	 1.9333908515	 0.106336
H	 1.0934770673	 1.0259509404	 2.7004069972	 0.080639
42.4714	94.9475	131.0677	164.6564	255.2866	260.5484	277.7137	313.6036	415.2369	454.7385	609.018	634.0772	692.4331	748.3753	801.9922	891.4363	919.7771	951.0269	990.1839	1025.8995	1066.9919	1089.4924	1094.2156	1124.8275	1147.5536	1250.1504	1254.4845	1327.8929	1352.7422	1378.2512	1408.7058	1413.6043	1422.2374	1473.9821	1475.9592	1489.3173	1502.0098	1749.0356	1840.7011	2868.6966	3018.2299	3040.8963	3048.6456	3053.0467	3111.8611	3113.1163	3127.588	3168.1307
CC1N=C(C)OC1C=O	C[C@H]1N=C(C)O[C@H]1C=O	
InChI=1S/C6H9NO2/c1-4-6(3-8)9-5(2)7-4/h3-4,6H,1-2H3	InChI=1S/C6H9NO2/c1-4-6(3-8)9-5(2)7-4/h3-4,6H,1-2H3/t4-,6+/m1/s1
