15
gdb 11122	6.49875	1.07689	0.98803	3.5396	62.08	-0.2746	-0.0081	0.2665	1130.0999	0.118736	-399.783042	-399.775184	-399.77424	-399.816189	27.655	
O	 0.248752448	 1.3065996095	 0.3573948342	-0.415201
C	 0.1722575906	-0.0825168301	 0.1233681496	-0.067123
C	-1.217693988	-0.4741789817	-0.3427415731	 0.13225
C	-1.6146247768	-1.9626113245	-0.262756497	-0.328389
C	-2.621916993	-1.4907705498	 0.8185099669	 0.010333
O	-2.2009226604	-0.1204564891	 0.6796380219	-0.305288
C	-4.0415809528	-1.6788084997	 0.505507439	 0.274538
N	-5.1570825614	-1.8457875594	 0.2546956927	-0.311053
H	-0.4559274726	 1.5189901594	 0.981458698	 0.297097
H	 0.9082534312	-0.3217077045	-0.6528410001	 0.116857
H	 0.4318491031	-0.6641109768	 1.0240360732	 0.085746
H	-1.4585855906	 0.0297087291	-1.2849484021	 0.105701
H	-2.0662342239	-2.382546034	-1.1600074101	 0.143417
H	-0.8395296972	-2.6337776586	 0.1103208009	 0.128737
H	-2.4340618763	-1.8724422801	 1.828707726	 0.132379
44.0325	99.7874	147.4825	229.2821	250.3404	379.3163	439.9387	477.8787	537.9665	575.3311	754.2268	790.6034	889.678	914.9682	993.5809	1003.5819	1027.3414	1078.8105	1093.8861	1114.1644	1168.6811	1222.8475	1255.0908	1258.9925	1309.9359	1340.8132	1367.3819	1400.1837	1434.6019	1488.2264	1495.1189	2358.0244	2964.6414	3042.7005	3054.3477	3071.9147	3093.7757	3158.9504	3790.7226
OCC1CC(O1)C#N	OC[C@H]1C[C@@H](O1)C#N	
InChI=1S/C5H7NO2/c6-2-4-1-5(3-7)8-4/h4-5,7H,1,3H2	InChI=1S/C5H7NO2/c6-2-4-1-5(3-7)8-4/h4-5,7H,1,3H2/t4-,5-/m1/s1
