21
gdb 79339	3.16899	1.49179	1.40949	1.3182	80.88	-0.224	0.0944	0.3184	1053.3386	0.184152	-387.10375	-387.095928	-387.094984	-387.135481	31.974	
C	-0.1529407696	 1.5546423595	-0.01279216	-0.419597
C	 0.0432561584	 0.040281977	-0.0275021472	 0.030101
C	 0.9763584524	-0.5153468765	-1.1014939714	-0.160337
C	 2.3847806057	-0.5902390799	-0.4895427776	-0.152621
C	 2.2783786016	-0.0869973339	 0.9440331927	-0.235128
C	 0.8316070317	-0.581913744	 1.1556748545	 0.036667
O	 0.9189742529	-1.9639772241	 0.7700519868	-0.296186
C	 1.4927830753	-1.8133469544	-0.5252582094	 0.458638
C	 1.7437745505	-3.0932541146	-1.2553019563	-0.500223
H	 0.7971797163	 2.0962513756	-0.0342805558	 0.119352
H	-0.7287380955	 1.8750794949	-0.8872160249	 0.11693
H	-0.7055584023	 1.8731431527	 0.8784152754	 0.112804
H	-0.9339330546	-0.454317468	-0.081835558	 0.075511
H	 0.8117072804	-0.3728674795	-2.161939176	 0.080312
H	 3.2822737357	-0.5093830853	-1.0883467633	 0.082926
H	 2.9747355906	-0.58991619	 1.6211228465	 0.103436
H	 2.390664539	 0.9941399016	 1.0523607647	 0.100229
H	 0.399148823	-0.5007783115	 2.1514916927	 0.073898
H	 0.8106566637	-3.6453779422	-1.4084075682	 0.126754
H	 2.1873093123	-2.8925106251	-2.2344979134	 0.119518
H	 2.4300403524	-3.7350987723	-0.6930686919	 0.127017
165.7356	195.0235	211.3002	225.2165	283.7617	326.5039	450.9781	498.6549	593.7628	605.5695	678.4869	716.533	765.2742	847.1268	854.716	888.5504	904.1109	915.417	949.0498	965.2742	993.4937	994.7335	1022.4456	1038.404	1069.7723	1104.0095	1122.4984	1124.9115	1154.8978	1183.3672	1210.5294	1213.3573	1265.8655	1304.5571	1315.4476	1329.9354	1375.7101	1406.3922	1409.6502	1452.8412	1477.4511	1484.3187	1494.6956	1503.6458	1506.3009	3031.1483	3035.4352	3037.5831	3062.8664	3093.0843	3098.5565	3105.0301	3115.2876	3115.9516	3140.1444	3193.3533	3204.7746
CC1C2C3CC1OC23C	C[C@H]1[C@H]2[C@H]3C[C@@H]1O[C@@]23C	
InChI=1S/C8H12O/c1-4-6-3-5-7(4)8(5,2)9-6/h4-7H,3H2,1-2H3	InChI=1S/C8H12O/c1-4-6-3-5-7(4)8(5,2)9-6/h4-7H,3H2,1-2H3/t4-,5-,6+,7+,8-/m1/s1
