17
gdb 106540	2.12614	1.67295	1.1495	1.4814	68.96	-0.2508	-0.0251	0.2257	1101.1981	0.133697	-458.907401	-458.898766	-458.897821	-458.940919	32.086	
C	 0.1598237163	 1.4770060632	 0.0814921392	-0.3892
C	 0.007344152	-0.0423989727	-0.0651371772	-0.332765
C	 0.5765545922	-0.5638638984	-1.3429645307	 0.219894
O	 2.0276010484	-0.2633505456	-1.6760744452	-0.365863
C	 1.6019291191	-1.1122385762	-2.8299618519	-0.139304
C	 0.8828175739	-2.0349732151	-1.7997424899	 0.147932
O	 1.6822740084	-2.7917015614	-0.9554097881	-0.446142
C	 0.3462605799	-0.2167386011	-2.8318327567	 0.458754
O	-0.3238570908	 0.4622528938	-3.5397722525	-0.315158
H	 1.2141136312	 1.7647856798	 0.0541179974	 0.138613
H	-0.3533575522	 2.0003764964	-0.730426484	 0.141
H	-0.2644550143	 1.816614168	 1.0301069118	 0.119059
H	 0.4869891863	-0.5666975665	 0.770770364	 0.119078
H	-1.0523289462	-0.3261978877	-0.041196328	 0.123879
H	 2.3490832391	-1.3408519112	-3.586294922	 0.117601
H	 0.0498901686	-2.650355537	-2.1470911785	 0.108865
H	 2.4108525482	-2.2106097683	-0.6925872075	 0.293758
67.3332	134.1831	152.387	196.0962	256.2717	270.5349	312.3429	417.5195	539.0425	566.268	573.0054	645.7125	716.2534	749.6997	783.782	795.7605	847.525	883.7577	928.7989	984.6435	1020.3829	1086.3028	1106.4956	1136.6245	1165.3768	1175.5958	1208.1708	1286.0497	1297.4863	1323.2356	1393.0475	1413.8172	1450.0918	1471.2345	1498.3103	1508.3793	1931.5134	3029.049	3048.3761	3063.9038	3100.3268	3121.5329	3126.145	3160.9395	3743.1029
CCC12OC(C1O)C2=O	CC[C@@]12O[C@@H]([C@H]1O)C2=O	
InChI=1S/C6H8O3/c1-2-6-4(7)3(9-6)5(6)8/h3-4,7H,2H2,1H3	InChI=1S/C6H8O3/c1-2-6-4(7)3(9-6)5(6)8/h3-4,7H,2H2,1H3/t3-,4+,6+/m0/s1
