20
gdb 83793	2.59672	1.71011	1.45362	2.66	78.47	-0.2285	0.0682	0.2967	1006.6671	0.173305	-403.106091	-403.098408	-403.097464	-403.137896	30.922	
C	-0.2680356648	 1.5107481032	-0.2344091081	-0.406508
C	-0.0143178706	 0.0360656328	-0.0156600125	-0.051026
C	 1.3503574807	-0.5812924749	-0.1850266484	 0.060388
O	 2.4209698882	 0.2981082167	-0.374175899	-0.245587
C	 3.4241619283	 0.2329540569	 0.6296508664	-0.078752
C	 2.8758633828	 0.5197018524	 2.0143677952	-0.043419
N	 1.8592843071	 1.5780498288	 2.0783043551	-0.327085
C	 1.4519430441	 0.1688505909	 2.2658571728	-0.047071
C	 0.7060293454	-0.5639424859	 1.1837131735	-0.067225
H	 0.6085894625	 2.1032159668	 0.0196729353	 0.160566
H	-0.5288327538	 1.6910902153	-1.2834213888	 0.105142
H	-1.1057628136	 1.8563884754	 0.3810832379	 0.103585
H	-0.8201670082	-0.6040595411	-0.369310229	 0.080238
H	 1.4567331407	-1.5226910953	-0.724151593	 0.078644
H	 3.9144316376	-0.7550459444	 0.6354711161	 0.08721
H	 4.1707923127	 0.9806700965	 0.3438476088	 0.112881
H	 3.5941983378	 0.426730194	 2.8259989592	 0.083009
H	 1.8906944587	 2.042246123	 2.9818122921	 0.231197
H	 1.1820101754	-0.1275524621	 3.2761158134	 0.082135
H	 0.3040887489	-1.509425559	 1.537104213	 0.081677
147.1261	149.9632	205.4396	280.7372	306.188	355.5782	457.4426	488.5457	574.2198	650.2019	726.2957	750.2687	781.937	801.566	842.7093	877.5234	903.1833	950.9006	987.0075	994.9338	1038.8497	1060.3815	1076.396	1108.1267	1112.0732	1139.8282	1150.6761	1162.3996	1182.7001	1194.9545	1248.5776	1263.3312	1297.9695	1348.1205	1372.3841	1402.6687	1406.2091	1420.4799	1441.9959	1460.1814	1489.9664	1495.5687	1500.9182	2968.6156	3033.3091	3075.8039	3085.4314	3091.9601	3119.3978	3126.9437	3134.6466	3147.9378	3174.1456	3507.3798
CC1C2OCC3NC3C12	C[C@H]1[C@H]2OC[C@H]3N[C@H]3[C@@H]12	
InChI=1S/C7H11NO/c1-3-5-6-4(8-6)2-9-7(3)5/h3-8H,2H2,1H3	InChI=1S/C7H11NO/c1-3-5-6-4(8-6)2-9-7(3)5/h3-8H,2H2,1H3/t3-,4-,5-,6-,7-/m1/s1
