17
gdb 50536	2.2671	1.59589	1.09926	3.5009	67.75	-0.2452	-0.0328	0.2123	1104.6231	0.134221	-458.915666	-458.907126	-458.906181	-458.950056	30.027	
O	-0.797089536	 1.1199232453	 0.4494506353	-0.248899
C	 0.1439206919	 0.7815810325	-0.2216388109	 0.13277
C	 1.4473377515	 1.5585417018	-0.2620011827	 0.040147
O	 2.4116983691	 0.9802194294	-1.1524013028	-0.285223
C	 2.435572602	 2.1580702325	-1.9883774151	-0.091431
C	 1.4407558111	 2.8990902078	-1.0667283436	-0.100609
C	 0.1303911875	 3.3575429995	-1.6480856006	 0.066092
C	 0.0249152523	 3.9107351801	-3.0029874185	-0.187747
O	-0.4029381213	 2.5756577338	-2.7207779882	-0.23049
H	 0.1335826221	-0.1236941405	-0.8669425357	 0.100392
H	 1.8271548831	 1.6499440554	 0.7642830015	 0.109357
H	 3.4390768921	 2.5912400481	-2.0544285561	 0.107754
H	 2.0534438731	 1.9426511284	-2.9916048952	 0.124241
H	 1.8892464016	 3.7182868447	-0.4993042635	 0.099946
H	-0.6146094	 3.6595421776	-0.9122081909	 0.120095
H	-0.7706204089	 4.6154847572	-3.2377069682	 0.126401
H	 0.9156332287	 3.9932511464	-3.6248818048	 0.117207
62.9861	71.6199	92.5569	163.0737	239.2152	242.6768	360.5235	444.3216	508.8015	611.1297	719.4306	806.6123	846.4667	897.627	921.2837	948.2355	980.4016	1013.6775	1056.3602	1066.077	1093.2013	1109.2071	1127.9969	1166.9663	1168.7434	1181.2948	1215.8008	1256.6952	1291.1083	1321.3886	1345.8437	1376.1682	1394.5967	1431.4479	1515.2392	1531.226	1824.3049	2905.1437	3020.599	3036.2982	3077.1669	3086.853	3091.6189	3119.7928	3174.3006
O=CC1OCC1C1CO1	O=C[C@H]1OC[C@H]1[C@H]1CO1	
InChI=1S/C6H8O3/c7-1-5-4(2-8-5)6-3-9-6/h1,4-6H,2-3H2	InChI=1S/C6H8O3/c7-1-5-4(2-8-5)6-3-9-6/h1,4-6H,2-3H2/t4-,5-,6-/m1/s1
