12
gdb 130658	3.32354	1.82288	1.18608	4.7246	62.15	-0.2606	-0.0691	0.1916	921.0962	0.079569	-468.808257	-468.802017	-468.801073	-468.839164	23.286	
O	 0.0021601336	-0.0294333594	 0.0029896648	-0.296991
C	-0.0086782287	 1.1633761228	 0.009520832	 0.416418
C	-1.2220611178	 2.1169599161	 0.0318934794	-0.23129
O	-0.7038207323	 3.4666982262	 0.0310570721	-0.265526
C	 0.6329190306	 3.3568510499	 0.0108081699	 0.435963
C	 1.7587604929	 4.1260124087	-0.0019511511	-0.201742
N	 2.827856521	 3.2512795076	-0.022257073	-0.148608
N	 2.4467794912	 2.0182184299	-0.0229011638	-0.138763
N	 1.0669677655	 2.066287206	-0.0020159911	-0.067913
H	-1.8474611233	 1.9685540014	-0.8523675915	 0.17583
H	-1.8214474825	 1.9596657936	 0.932480804	 0.175803
H	 1.8916531199	 5.1927950872	 0.0014509483	 0.146819
140.6896	165.6716	299.3033	315.2563	548.3622	553.1649	628.8638	676.3078	697.4746	714.6098	743.7868	806.404	974.5271	1001.6546	1007.6719	1036.9285	1088.0884	1114.4012	1198.4407	1259.5942	1283.5867	1321.3107	1376.7129	1458.1429	1475.5101	1643.4376	1895.9287	3072.9757	3126.3889	3301.5207
O=C1COC2=CN=NN12	O=C1COc2cnnn12	
InChI=1S/C4H3N3O2/c8-3-2-9-4-1-5-6-7(3)4/h1H,2H2	InChI=1S/C4H3N3O2/c8-3-2-9-4-1-5-6-7(3)4/h1H,2H2
