15
gdb 127010	5.41493	0.96417	0.8269	5.3541	71.13	-0.2562	-0.082	0.1743	1337.2753	0.111615	-450.076847	-450.068786	-450.067842	-450.110268	28.512	
C	 0.0187842766	 1.5172575821	-0.0563618794	-0.394971
C	-0.0105819758	 0.0048558951	 0.0249292013	-0.052274
O	 0.6621836297	-0.5000056983	-1.1567209844	-0.257786
C	 0.7581443256	-1.8125660376	-1.3005257342	 0.468862
C	 1.4068119832	-2.3256191076	-2.4396010324	-0.029377
N	 1.5119337415	-3.6221427967	-2.60017303	-0.161886
N	 0.9900473518	-4.4362050338	-1.6595128666	-0.067964
N	 0.392147995	-3.9564438775	-0.609940307	-0.06299
N	 0.258966491	-2.6404298235	-0.4000217502	-0.275391
H	 1.0469227064	 1.8885184252	-0.0781129581	 0.136539
H	-0.4974325349	 1.8713001909	-0.9527800898	 0.136552
H	-0.4820865138	 1.9391059294	 0.8196656505	 0.133517
H	 0.5071570375	-0.3744930209	 0.9108668264	 0.137814
H	-1.0302130578	-0.3912391479	 0.0427598578	 0.137796
H	 1.8288251041	-1.6750251488	-3.2001920638	 0.15156
58.7441	113.2746	156.5599	174.2101	258.4615	338.6683	361.1945	433.6411	565.0764	650.8055	673.4026	810.5561	827.1623	838.9301	905.6645	959.9526	984.9029	1045.503	1062.7916	1111.0247	1126.0444	1178.2979	1223.5447	1292.636	1318.8345	1382.7936	1416.8187	1457.2887	1485.6761	1495.0572	1514.4593	1531.2314	1594.848	3050.282	3058.5431	3099.7994	3126.5443	3132.4303	3177.4745
CCOC1=CN=NN=N1	CCOc1cnnnn1	
InChI=1S/C4H6N4O/c1-2-9-4-3-5-7-8-6-4/h3H,2H2,1H3	InChI=1S/C4H6N4O/c1-2-9-4-3-5-7-8-6-4/h3H,2H2,1H3
