20
gdb 40167	3.06227	1.62743	1.42141	0.2925	78.28	-0.2138	0.0886	0.3023	996.1436	0.173208	-403.090428	-403.083247	-403.082303	-403.121661	29.999	
C	-0.0769471804	 1.499944603	 0.05379074	-0.329401
C	 1.2918456344	 0.8690113094	-0.088094736	-0.313808
C	 0.0655550995	 0.0055906081	 0.0081477263	 0.348578
C	-0.244617794	-0.801859639	 1.2787335306	-0.153719
O	-0.2803023539	-2.2119281852	 1.0387306329	-0.274115
C	-0.6397377991	-2.5464869405	-0.2944803969	 0.119779
C	 0.4159250986	-1.9824864069	-1.2652142469	-0.189153
N	-0.3315765414	-0.6634000186	-1.2284436613	-0.168467
C	-1.5688616268	-1.4815981203	-0.9218225021	-0.219806
H	-0.3344700024	 1.962370867	 1.0018482868	 0.108288
H	-0.5012681293	 1.9770641071	-0.8218184663	 0.122186
H	 1.7737360809	 0.9372200658	-1.0568745496	 0.12058
H	 1.9648366173	 0.902553573	 0.7622712275	 0.110908
H	 0.5057574772	-0.6322036157	 2.0571104317	 0.110328
H	-1.2160523263	-0.4866031683	 1.6873709512	 0.098555
H	-0.9053994307	-3.6066647343	-0.2942772672	 0.075872
H	 1.4488011143	-1.9411674939	-0.9126363749	 0.110045
H	 0.3705445456	-2.4070524244	-2.2726372026	 0.101072
H	-2.0275399761	-1.819288944	-1.8548178471	 0.109628
H	-2.3226569974	-0.9934433022	-0.3001917361	 0.11265
120.6774	226.2681	286.2068	329.4663	413.4798	423.3876	445.7542	513.0418	543.8628	732.9947	775.525	817.8841	825.4357	864.462	888.3261	909.0627	912.3593	945.6584	957.7049	979.887	1013.2169	1026.875	1051.9379	1073.1972	1084.627	1086.2806	1127.0459	1169.835	1190.5267	1208.6049	1238.9168	1246.2587	1254.1509	1291.2687	1310.2293	1337.468	1354.688	1406.6836	1452.7703	1480.7734	1492.6497	1507.7944	1524.753	2985.0211	3048.9564	3061.2754	3069.3865	3080.2834	3119.9033	3120.3962	3127.3156	3132.3675	3214.6843	3228.043
C1CC11COC2CN1C2	C1CC21CO[C@@H]1CN2C1	
InChI=1S/C7H11NO/c1-2-7(1)5-9-6-3-8(7)4-6/h6H,1-5H2	InChI=1S/C7H11NO/c1-2-7(1)5-9-6-3-8(7)4-6/h6H,1-5H2
