18
gdb 43373	3.01378	1.421	1.01882	3.1956	78.8	-0.231	-0.047	0.1839	1156.1528	0.148303	-401.94676	-401.938799	-401.937855	-401.980036	29.966	
O	 0.3611458589	-0.0404615868	 0.0528048728	-0.335064
C	 0.1020120155	 1.1400750431	 0.0411937528	 0.392379
C	-1.2307920305	 1.7754776038	 0.0059842498	-0.16797
C	-1.1087991053	 3.1079120102	 0.0452868454	-0.051374
C	 0.3218790451	 3.5771036321	 0.1225328591	-0.285865
C	 1.1543154283	 2.2810231215	 0.0484617846	-0.080501
N	 2.0475570241	 2.1334688802	 1.1864386355	-0.070334
C	 3.1025910522	 1.1334519416	 1.0516570722	-0.204206
C	 3.4280736533	 2.5845944581	 1.0015147926	-0.233022
H	-2.1481699757	 1.2026527144	-0.034556262	 0.117771
H	-1.9373398934	 3.8087024225	 0.0318225887	 0.116734
H	 0.5550931257	 4.2854393739	-0.6807337801	 0.115491
H	 0.5125254076	 4.0961542979	 1.0690575819	 0.135841
H	 1.695432392	 2.2223426663	-0.9135249697	 0.079326
H	 3.3096335563	 0.5516540888	 1.9444515779	 0.120258
H	 3.1513399393	 0.5698864807	 0.1240912411	 0.126078
H	 3.7021055715	 3.0030595039	 0.0342223282	 0.107686
H	 3.8769266452	 3.0827523378	 1.8557189692	 0.116771
50.3216	90.1041	171.404	254.2172	306.821	344.9655	407.5063	518.9877	595.1235	658.3466	758.3945	765.2835	799.7278	837.0557	869.7019	905.1625	943.1224	970.9275	1000.2351	1025.7872	1051.3912	1074.3111	1112.7557	1113.4229	1117.2975	1169.0537	1171.7046	1180.932	1210.1769	1257.833	1312.9519	1322.1943	1353.8336	1373.2945	1464.8526	1493.4109	1521.2225	1649.1036	1815.0361	2930.4181	3037.8582	3071.7166	3096.0185	3119.1826	3183.3295	3187.4917	3205.2064	3228.1649
O=C1C=CCC1N1CC1	O=C1C=CC[C@H]1N1CC1	
InChI=1S/C7H9NO/c9-7-3-1-2-6(7)8-4-5-8/h1,3,6H,2,4-5H2	InChI=1S/C7H9NO/c9-7-3-1-2-6(7)8-4-5-8/h1,3,6H,2,4-5H2/t6-/m1/s1
