18
gdb 52080	2.37016	1.29998	0.96816	2.0887	73.82	-0.2514	-0.0288	0.2225	1230.8646	0.146868	-439.114899	-439.105774	-439.10483	-439.149416	32.856	
O	 0.6902991749	 0.3654536986	 1.224649333	-0.335566
C	 0.3306635249	 1.2222973268	 0.4399907611	 0.15836
N	 1.0609423288	 1.6765885934	-0.6089688019	-0.263505
C	 2.4207674338	 1.2250840743	-0.8569685283	-0.260107
C	 3.4717475657	 2.1264568701	-0.2355153956	 0.254814
C	 3.8018123004	 1.9696416328	 1.2497186687	-0.298287
C	 4.7911152202	 1.5209928901	 0.232020704	-0.315391
C	 3.5217366895	 3.5048127385	-0.7652852096	 0.110216
O	 2.7551895213	 3.945363025	-1.5923524202	-0.285973
H	-0.6609861607	 1.711813599	 0.4979115487	 0.081148
H	 0.7438625652	 2.483607748	-1.1232822194	 0.263642
H	 2.5033187776	 0.2174290111	-0.4448012716	 0.138114
H	 2.5754251649	 1.1734098112	-1.9390403353	 0.123172
H	 4.0181264741	 2.8707958417	 1.8141373789	 0.125157
H	 3.2051331091	 1.2320268947	 1.7734808071	 0.167523
H	 4.9150888328	 0.4583927857	 0.0552467247	 0.135535
H	 5.692640326	 2.1076408072	 0.0889859218	 0.126193
H	 4.3294532714	 4.1417868018	-0.3361802961	 0.074955
62.2426	76.7396	142.6296	175.3189	223.7904	270.7057	315.8723	334.6015	351.3861	508.859	537.1771	589.5784	746.3568	789.7105	798.6386	859.1107	925.8764	953.0858	970.3829	1000.2288	1033.8519	1051.0381	1056.58	1078.6263	1097.1146	1198.3733	1210.0625	1262.0376	1320.211	1365.1002	1389.1405	1426.1091	1437.3904	1462.5608	1472.0335	1498.7897	1525.1846	1790.0995	1797.0826	2867.3155	2945.6822	3060.4781	3124.3779	3134.9778	3138.7761	3218.3805	3235.7719	3638.1185
O=CNCC1(CC1)C=O	O=CNCC1(CC1)C=O	
InChI=1S/C6H9NO2/c8-4-6(1-2-6)3-7-5-9/h4-5H,1-3H2,(H,7,9)	InChI=1S/C6H9NO2/c8-4-6(1-2-6)3-7-5-9/h4-5H,1-3H2,(H,7,9)
