16
gdb 9650	4.53482	1.22118	1.13891	4.377	67.22	-0.2285	0.0108	0.2393	1080.0237	0.129367	-379.897444	-379.888859	-379.887915	-379.930467	31.029	
C	 0.1546959292	 1.2277584201	-0.4428836926	-0.311854
N	-0.1826488799	 0.187227982	 0.5206498264	-0.290603
C	-1.4574852323	-0.4162030929	 0.308106572	 0.008688
C	-1.7517837659	-1.3733239047	-0.8371086928	-0.356205
C	-1.5992668374	-1.8949113284	 0.5874094699	 0.20719
O	-0.413206668	-2.5481690927	 0.9335596859	-0.444744
C	-2.7761517059	-2.3705434572	 1.2832347398	 0.254552
N	-3.7163446422	-2.770666634	 1.8252249339	-0.341726
H	 1.1518422559	 1.6152016257	-0.2176024228	 0.125431
H	 0.1385889432	 0.8930650894	-1.4943394008	 0.098183
H	-0.5537088288	 2.0583658017	-0.3496494002	 0.126676
H	 0.5339142104	-0.527525946	 0.5649127965	 0.237895
H	-2.2951814105	 0.1997556548	 0.626491143	 0.12351
H	-2.7381060797	-1.3840691835	-1.2870002147	 0.136305
H	-0.9287460614	-1.6264172903	-1.4972263276	 0.125836
H	-0.4286258466	-3.4329537339	 0.550882614	 0.300866
80.1787	133.0574	151.8876	212.6666	229.1576	299.887	327.929	365.188	445.3057	491.1679	577.0993	611.4912	705.129	733.0141	835.7559	899.3542	926.9877	1004.2002	1026.532	1043.2924	1097.4343	1157.2453	1165.936	1226.7401	1250.118	1281.2504	1340.8578	1390.8749	1456.2609	1462.9166	1486.4955	1506.1549	1525.0667	2349.5131	2957.905	3061.4424	3112.1762	3134.2751	3138.2764	3232.2699	3555.3584	3797.6912
CNC1CC1(O)C#N	CN[C@H]1C[C@]1(O)C#N	
InChI=1S/C5H8N2O/c1-7-4-2-5(4,8)3-6/h4,7-8H,2H2,1H3	InChI=1S/C5H8N2O/c1-7-4-2-5(4,8)3-6/h4,7-8H,2H2,1H3/t4-,5-/m0/s1
