20
gdb 8187	2.66566	2.17369	1.60991	1.3113	75.15	-0.2268	0.075	0.3017	911.1867	0.17592	-348.979411	-348.970972	-348.970027	-349.011269	33.178	
C	-0.0264688626	 1.5252297919	 0.0333318152	-0.463071
C	 0.0600392073	 0.0091427224	 0.0669325316	 0.295254
C	-1.1819488601	-0.6648577751	-0.4992465448	-0.443634
C	 1.3457917966	-0.7575030798	-0.2316098637	-0.182242
C	 2.5777412894	-0.0344821013	 0.3203983797	-0.240227
C	 1.9493219848	-0.0559108917	 1.7527041893	-0.302011
C	 0.7131448504	-0.7566114731	 1.1797085775	 0.356407
O	-0.0199719364	-1.7041340431	 1.8736581125	-0.45502
H	 0.8604336485	 2.014774426	 0.4413851203	 0.115203
H	-0.1548675379	 1.8795879407	-0.9961426343	 0.112367
H	-0.8906218301	 1.8736052773	 0.6108861198	 0.115471
H	-1.3519736938	-0.3429941528	-1.5328988199	 0.106357
H	-1.0948462844	-1.7531825383	-0.4854128839	 0.11998
H	-2.0697119947	-0.4003583947	 0.0853851875	 0.117277
H	 1.359364919	-1.5265377563	-0.995982936	 0.079252
H	 3.4878833965	-0.6354814794	 0.2583429282	 0.098796
H	 2.7918659835	 0.9532555522	-0.0994077136	 0.098459
H	 2.5080951604	-0.7145581866	 2.4252612514	 0.091231
H	 1.7925894373	 0.8994446788	 2.2638766181	 0.098672
H	 0.5856899064	-2.385943407	 2.1850223654	 0.28148
172.6567	196.204	199.0441	241.2913	270.6656	300.2266	324.932	367.4395	413.7833	455.4689	510.9863	648.4779	677.1327	703.5504	802.0612	899.6922	925.0996	942.9726	964.497	969.0053	997.1324	1020.0897	1062.7863	1096.3623	1117.2997	1158.9729	1203.5987	1211.5991	1217.8482	1259.2835	1280.4889	1305.954	1317.3239	1408.2895	1423.0655	1453.0142	1474.8748	1485.6327	1488.8035	1504.5666	1510.9571	1520.1002	3026.6446	3032.4111	3040.5093	3051.5183	3081.2758	3081.9396	3089.465	3103.833	3120.3623	3126.5466	3171.0442	3791.1852
CC1(C)C2CCC12O	CC1(C)[C@H]2CC[C@@]12O	
InChI=1S/C7H12O/c1-6(2)5-3-4-7(5,6)8/h5,8H,3-4H2,1-2H3	InChI=1S/C7H12O/c1-6(2)5-3-4-7(5,6)8/h5,8H,3-4H2,1-2H3/t5-,7+/m1/s1
