15
gdb 116991	4.83277	0.61558	0.54977	2.0265	88.49	-0.2625	-0.0675	0.1951	1933.1432	0.109278	-420.602244	-420.592509	-420.591565	-420.638014	33.467	
C	 0.0576980174	 1.5224733928	-0.1325716066	-0.394884
C	 0.0201846546	 0.011056681	-0.0251559263	-0.045653
O	 0.6845796595	-0.523930639	-1.1924656721	-0.226342
C	 0.739290417	-1.8630290951	-1.2623701351	 0.171932
O	 0.2845867992	-2.6203834198	-0.43990202	-0.350174
C	 1.4203386861	-2.2910062271	-2.4626359754	 0.238966
C	 1.9764683298	-2.7359945021	-3.4417953353	 0.026643
C	 2.6035624227	-3.2176150999	-4.5458265517	 0.263491
C	 3.1608318092	-3.647002877	-5.5271454601	-0.541084
H	 1.0882081031	 1.8863044751	-0.1662734743	 0.13452
H	-0.4583905129	 1.8630461826	-1.0343081664	 0.134501
H	-0.4369572544	 1.9652615219	 0.7369051699	 0.126536
H	 0.5356107225	-0.3531709933	 0.8689657742	 0.1287
H	-1.0028058634	-0.3766383847	 0.0042444481	 0.128844
H	 3.6514978197	-4.0228907054	-6.3909905389	 0.204004
61.2798	63.0951	78.8362	161.771	183.6822	255.1702	261.6762	323.6119	368.7431	423.5669	497.3892	562.4188	567.7681	601.9136	631.4667	770.7015	810.2496	840.8161	882.2247	1033.4615	1108.093	1136.5874	1180.7293	1282.4428	1292.238	1398.4069	1424.3368	1486.0796	1495.9381	1517.5675	1782.5771	2181.2749	2350.0102	3048.9356	3054.1715	3093.5251	3123.3997	3130.3584	3501.1693
CCOC(=O)C#CC#C	CCOC(=O)C#CC#C	
InChI=1S/C7H6O2/c1-3-5-6-7(8)9-4-2/h1H,4H2,2H3	InChI=1S/C7H6O2/c1-3-5-6-7(8)9-4-2/h1H,4H2,2H3
