17
gdb 19951	3.8772	1.50301	1.149	2.4827	69.62	-0.2407	-0.0234	0.2173	1035.8099	0.142108	-363.837603	-363.829956	-363.829011	-363.870204	28.282	
O	-0.8493214638	 0.1465893911	 0.698394845	-0.28213
C	-0.4601598998	 1.2296064694	 0.3840792703	 0.380903
C	-1.1105000859	 2.6013419192	 0.1396643913	-0.285797
N	 0.2533000739	 3.1888049936	 0.1546050823	-0.328411
C	 0.9256097355	 1.8565677617	 0.1005854215	-0.100034
C	 2.042907672	 1.6306171366	 1.0782877454	 0.043221
C	 2.9659351425	 0.4516246887	 0.8961598193	-0.261609
C	 3.4789210539	 1.847962901	 0.6616933985	-0.276945
H	-1.6404992773	 2.6325389454	-0.8234510363	 0.120172
H	-1.7819072378	 2.97423711	 0.9207632544	 0.133082
H	 0.4585970415	 3.7929815372	-0.6318821593	 0.223706
H	 1.2522282772	 1.5633453375	-0.9117070326	 0.0842
H	 1.7901650632	 1.9022861829	 2.098534278	 0.090321
H	 3.2909842928	-0.0801361377	 1.7827993171	 0.118419
H	 2.8088187704	-0.1862366563	 0.0328384409	 0.11653
H	 3.6703715232	 2.1552881484	-0.3614495418	 0.107676
H	 4.1587149084	 2.2789296711	 1.387913326	 0.116696
64.2415	108.1702	134.9851	252.2583	298.8828	403.5462	458.9059	561.7314	638.99	729.8947	769.7698	810.6305	839.3262	904.8493	934.9609	947.4738	996.1002	1010.5612	1033.456	1060.3901	1077.7664	1086.7199	1101.3869	1132.3763	1195.3177	1201.2504	1208.6434	1229.8973	1276.1027	1309.0616	1363.6645	1420.7993	1470.9045	1477.2616	1505.2421	1915.7103	2960.728	3003.4971	3067.881	3130.9052	3138.7041	3157.2275	3210.7018	3226.3373	3551.0437
O=C1CNC1C1CC1	O=C1CN[C@H]1C1CC1	
InChI=1S/C6H9NO/c8-5-3-7-6(5)4-1-2-4/h4,6-7H,1-3H2	InChI=1S/C6H9NO/c8-5-3-7-6(5)4-1-2-4/h4,6-7H,1-3H2/t6-/m0/s1
