20
gdb 53013	4.18546	0.87996	0.81862	1.6972	89.57	-0.2275	0.0507	0.2782	1502.0359	0.171937	-365.984631	-365.975642	-365.974697	-366.019587	33.302	
C	 0.0211932653	 1.4994121254	 0.2522824789	-0.507581
C	-0.0082636589	 0.0529682885	 0.0938747192	 0.245787
C	-0.0398967755	-1.1457700534	-0.0214761628	-0.102113
C	-0.051102447	-2.5704664876	-0.204971919	 0.132294
C	 0.8503304701	-3.1758691938	-1.2841689445	-0.280185
C	 0.3141594998	-4.6091862076	-1.5031605279	-0.24753
C	-1.1874220069	-4.5412347683	-1.1339521426	-0.225641
C	-1.2805198481	-3.4272308201	-0.106602592	-0.055839
N	-0.3139814634	-3.4040903119	 0.9946221984	-0.365502
H	 0.913301313	 1.9332694324	-0.2132051929	 0.145936
H	-0.8545785927	 1.9718232945	-0.2069607129	 0.145615
H	 0.0315394465	 1.7805388284	 1.3112746406	 0.150634
H	 0.7474744774	-2.5747943795	-2.1943015609	 0.113182
H	 1.908447171	-3.1554230387	-1.0031719885	 0.106525
H	 0.4747804254	-4.9581171325	-2.5259484465	 0.105805
H	 0.8361708168	-5.3188782904	-0.8532117232	 0.105261
H	-1.7930153854	-4.2692647311	-2.0069276791	 0.108086
H	-1.5715592336	-5.4976350098	-0.7620282661	 0.103983
H	-2.2496180483	-2.999787694	 0.1319750261	 0.096287
H	 0.2758091544	-4.2336804103	 0.9893737958	 0.224997
25.1261	93.0953	96.1604	226.7204	244.8508	296.8237	341.8489	395.4995	444.3073	519.4491	555.5481	646.162	670.1532	793.7351	843.7385	869.0001	893.561	919.5177	950.8472	970.1367	1023.3698	1044.2203	1052.8372	1054.2385	1109.0184	1114.5126	1155.6644	1180.3052	1211.6352	1258.9021	1270.4493	1307.8565	1319.1743	1340.0681	1343.0156	1412.9555	1430.9268	1477.5336	1478.9487	1487.366	1495.1209	1512.0101	2371.	3024.5997	3032.9504	3043.3719	3049.2766	3072.033	3082.2195	3083.4018	3086.4873	3103.7764	3160.0122	3485.8667
CC#CC12CCCC1N2	CC#C[C@]12CCC[C@H]1N2	
InChI=1S/C8H11N/c1-2-5-8-6-3-4-7(8)9-8/h7,9H,3-4,6H2,1H3	InChI=1S/C8H11N/c1-2-5-8-6-3-4-7(8)9-8/h7,9H,3-4,6H2,1H3/t7-,8+/m1/s1
