20
gdb 120272	3.18808	1.05544	0.9211	1.9923	75.66	-0.2365	0.062	0.2985	1341.5437	0.169917	-440.21275	-440.20336	-440.202416	-440.247548	34.015	
C	 0.7556682505	 1.3037575466	-2.5849781147	-0.225193
O	 0.7706497939	-0.0796940558	-2.3322869967	-0.235949
C	-0.2123984357	-0.4783535503	-1.3995313976	-0.065626
C	-0.0171238085	-1.9607013277	-1.1365927128	 0.001625
C	 0.9266846894	-2.4424175689	-0.0004550041	 0.081822
O	 1.4858047609	-1.3961640165	 0.7630693801	-0.424744
C	-0.2887099542	-3.1754550885	 0.5745167098	-0.067091
C	-1.3866510363	-2.2223784121	 0.8201431009	-0.243149
N	-1.192816803	-2.7095024829	-0.5600468916	-0.147435
H	-0.209357753	 1.6337180766	-3.002498475	 0.10167
H	 0.9512772582	 1.8886309589	-1.6723116414	 0.105969
H	 1.5435373689	 1.5120808953	-3.3131799317	 0.125009
H	-0.1201421518	 0.112715911	-0.4774993247	 0.102084
H	-1.2279889926	-0.3218431661	-1.8037449777	 0.092858
H	 0.2423040367	-2.4325209379	-2.0870407729	 0.098006
H	 1.7017908806	-3.1261300224	-0.3662715385	 0.077293
H	 1.9879475697	-1.7808053803	 1.4888715109	 0.284325
H	-0.3071878684	-4.2027316908	 0.9239981007	 0.090996
H	-2.2941283261	-2.6135735859	 1.268910847	 0.120749
H	-1.1535483494	-1.1946672524	 1.08036035	 0.126781
57.4669	87.916	119.1099	188.623	216.3496	225.1839	254.0835	319.9824	377.9347	429.2196	568.4525	598.1075	739.6315	772.9388	785.95	846.6817	940.6439	963.4386	987.5705	1028.9756	1047.5117	1058.8064	1107.7653	1114.8463	1142.3598	1160.512	1166.3509	1183.5936	1205.8674	1223.0794	1237.5205	1267.2828	1291.6694	1313.4269	1342.6527	1373.4646	1419.3069	1429.5669	1478.8607	1485.8181	1499.4459	1502.8011	1524.172	2953.8001	2969.6945	3011.7705	3018.968	3029.893	3087.591	3111.6181	3126.4053	3163.2162	3213.6585	3813.5594
COCC1C(O)C2CN12	COC[C@H]1[C@@H](O)[C@H]2CN12	
InChI=1S/C6H11NO2/c1-9-3-5-6(8)4-2-7(4)5/h4-6,8H,2-3H2,1H3	InChI=1S/C6H11NO2/c1-9-3-5-6(8)4-2-7(4)5/h4-6,8H,2-3H2,1H3/t4-,5+,6+,7?/m1/s1
