16
gdb 126092	3.11602	1.60379	1.128	1.8834	70.82	-0.2457	-0.0163	0.2294	1043.7707	0.125707	-437.869185	-437.861829	-437.860884	-437.901355	27.511	
C	 0.1083163299	 1.564279611	-0.073417291	-0.392886
C	-0.0447297989	 0.0537561341	 0.0799135199	 0.016653
O	 0.5065604156	-0.6249487517	-1.0683480287	-0.297029
C	 1.4750293718	-1.639813242	-0.7202987556	-0.190478
C	 1.6028711944	-1.5121120581	 0.7632205595	 0.132652
C	 0.7414330012	-0.5656491158	 1.189057117	 0.352046
O	 0.784971121	-0.3959037159	 2.5061715914	-0.22833
N	 1.749397886	-1.2960542632	 3.009617709	-0.139709
C	 2.2181156941	-1.9446864626	 1.9634087696	-0.128734
H	 1.1645554752	 1.8382671649	-0.1389317476	 0.127769
H	-0.3977740209	 1.8953595935	-0.9837028225	 0.133728
H	-0.3389363796	 2.0794841814	 0.7824093357	 0.129922
H	-1.1134332713	-0.1985923505	 0.1610087313	 0.104719
H	 1.1021650951	-2.6224243765	-1.0413024191	 0.118975
H	 2.4051792571	-1.4395311372	-1.26726849	 0.121813
H	 2.9795947892	-2.6936163515	 2.1303776511	 0.138889
79.7142	147.8546	228.5792	236.6801	289.6638	438.779	454.8179	590.4136	635.4292	664.6366	730.4525	791.2956	853.2492	864.4434	905.1841	964.61	1000.2279	1039.488	1049.6089	1085.1099	1111.3946	1158.6536	1192.4991	1204.3473	1290.969	1334.1571	1364.4126	1393.8971	1402.7839	1431.5583	1483.5959	1494.1497	1518.2564	1528.0441	1658.384	2981.48	3003.5702	3034.1689	3045.0787	3122.3326	3131.7781	3243.2736
CC1OCC2=C1ON=C2	C[C@H]1OCc2c1onc2	
InChI=1S/C6H7NO2/c1-4-6-5(3-8-4)2-7-9-6/h2,4H,3H2,1H3	InChI=1S/C6H7NO2/c1-4-6-5(3-8-4)2-7-9-6/h2,4H,3H2,1H3/t4-/m1/s1
