18
gdb 49148	4.4604	0.97152	0.85678	3.2369	85.95	-0.2409	-0.0606	0.1802	1335.2731	0.14829	-401.95212	-401.94391	-401.942965	-401.985654	30.613	
O	-0.1194512554	 0.0288630693	 0.1908624756	-0.271302
C	-0.0059254836	 1.2134994266	-0.0400910496	 0.07764
C	 1.2667974726	 1.9340472107	-0.0272226049	 0.215964
C	 1.3981767317	 3.2491052628	-0.2690649288	-0.23382
C	 2.8029412061	 3.6898882769	-0.153120525	 0.342775
C	 3.2990932189	 4.9225180618	-0.8265283331	-0.288533
N	 3.1403034167	 4.9043369183	 0.6311616264	-0.344952
C	 3.6329685567	 2.4147720049	 0.0565244552	-0.31222
C	 2.5946177333	 1.2810851944	 0.2887184641	-0.323629
H	-0.8935703478	 1.8404098686	-0.2827226133	 0.064362
H	 0.582261961	 3.9286957717	-0.4985013428	 0.10883
H	 4.3296342059	 4.9488374711	-1.1722532147	 0.126248
H	 2.6041228056	 5.5011979021	-1.4307869581	 0.114623
H	 2.2914132704	 5.3976335674	 0.9011276042	 0.23276
H	 4.2352440149	 2.2076065173	-0.8329876136	 0.112459
H	 4.3192641732	 2.5415386992	 0.8960180963	 0.125649
H	 2.5994607625	 0.9071848417	 1.3188072044	 0.12672
H	 2.7723697575	 0.4094954851	-0.3481183223	 0.126425
48.9968	96.9675	170.7551	209.3163	305.5072	345.2747	391.4806	444.8457	515.0097	548.398	717.0364	751.7999	825.8763	846.7799	887.2021	889.6395	921.3333	943.3135	975.2138	993.5862	1023.5387	1059.3411	1078.069	1134.1516	1172.0659	1174.6025	1229.1182	1260.6647	1269.8327	1288.5837	1336.4288	1363.3803	1387.6472	1424.3628	1478.6744	1497.4707	1508.2455	1670.4617	1779.4247	2874.3559	3047.1163	3059.6689	3083.8796	3099.2088	3116.9774	3176.3392	3185.2682	3484.4893
O=CC1=CC2(CN2)CC1	O=CC1=C[C@]2(CN2)CC1	
InChI=1S/C7H9NO/c9-4-6-1-2-7(3-6)5-8-7/h3-4,8H,1-2,5H2	InChI=1S/C7H9NO/c9-4-6-1-2-7(3-6)5-8-7/h3-4,8H,1-2,5H2/t7-/m0/s1
