20
gdb 82957	2.50937	1.62092	1.55045	1.1217	77.72	-0.2135	0.0861	0.2997	1001.9843	0.172734	-403.109087	-403.101275	-403.100331	-403.141077	31.039	
C	 0.1467368535	 1.7411290043	-0.1565896824	-0.444095
C	 0.0603874226	 0.2355519792	-0.066936804	 0.0118
C	 0.499154423	-0.693639607	-1.1548206116	-0.042959
C	 1.1322294105	-0.2307691833	-2.4673931097	-0.272595
C	 2.5818438383	 0.2022052639	-2.3788613294	 0.044715
O	 2.8563961137	 1.4587274174	-1.7480373327	-0.241463
C	 3.2793588436	 0.2583122265	-1.087730589	 0.049273
C	 2.5877059689	-0.1416263171	 0.2019719133	-0.193217
N	 1.2163713463	-0.646626763	 0.1233647663	-0.116678
H	 0.9718653827	 2.0767546744	-0.7850947745	 0.158176
H	-0.7906326651	 2.1408570625	-0.5601560504	 0.113841
H	 0.2782690659	 2.1751756153	 0.8418674992	 0.116206
H	-0.7919692726	-0.100442867	 0.5257108591	 0.081875
H	-0.0760436875	-1.61113192	-1.2749055404	 0.085777
H	 1.087986398	-1.0671191378	-3.1734731929	 0.109855
H	 0.5486988635	 0.5798534187	-2.9210851692	 0.123151
H	 3.1693414282	 0.0366724658	-3.2818302478	 0.095163
H	 4.3624262504	 0.1324733932	-1.0728521981	 0.091828
H	 3.1953661155	-0.9429784788	 0.6437208899	 0.110033
H	 2.6265223807	 0.6981934427	 0.9064355543	 0.119313
119.8954	155.2539	224.832	240.4572	316.3697	356.8885	435.005	501.0263	530.5176	560.7211	675.7658	739.6972	774.7399	791.607	842.1212	895.2469	912.5517	949.9852	968.8154	1024.6184	1039.2206	1050.9284	1075.1332	1124.1574	1139.9229	1166.9784	1185.212	1196.7001	1251.2348	1286.2081	1303.7565	1343.4503	1359.4458	1370.0185	1381.9709	1392.1654	1424.4972	1440.2799	1473.4862	1476.8838	1485.0936	1505.2981	1516.1188	3010.1461	3028.6207	3030.9088	3052.5599	3065.8523	3080.6198	3081.5005	3099.0605	3100.9136	3114.3782	3152.6325
CC1C2CC3OC3CN12	C[C@H]1[C@H]2C[C@H]3O[C@H]3CN12	
InChI=1S/C7H11NO/c1-4-5-2-6-7(9-6)3-8(4)5/h4-7H,2-3H2,1H3	InChI=1S/C7H11NO/c1-4-5-2-6-7(9-6)3-8(4)5/h4-7H,2-3H2,1H3/t4-,5+,6+,7-,8?/m0/s1
