15
gdb 130345	2.97885	1.04051	0.93966	7.3722	71.22	-0.2601	-0.0988	0.1613	1299.3308	0.110218	-450.070438	-450.06089	-450.059946	-450.107492	31.772	
N	-0.2266850092	 0.0857915407	-1.0212468088	-0.707759
H	-0.2356167319	-0.7573324043	-0.4524893784	 0.258528
H	 0.7514110767	 0.2839501467	-1.2149376009	 0.249425
H	-0.6444715434	-0.169934466	-1.9118995377	 0.248028
C	-0.9610884065	 2.3781860979	 2.3655359918	-0.22857
C	-1.7330177167	 1.3792919969	 1.5416014413	-0.149594
O	-1.499698001	 0.0739541105	 2.1475918208	-0.244075
C	-0.6701821923	 0.291554436	 3.1646262881	 0.437801
C	-0.3300542913	 1.6832909522	 3.3226613355	 0.32169
N	 0.534525504	 1.7318529903	 4.4142196646	-0.266568
N	 0.6607749595	 0.5197916821	 4.8120599218	-0.079066
N	-0.0873633118	-0.4495954393	 4.0462009553	-0.346706
H	-0.9553311411	 3.438251714	 2.1498919632	 0.154021
H	-2.81338445	 1.5639147935	 1.5450208157	 0.153296
H	-1.3723853049	 1.3129113887	 0.5032062575	 0.199549
23.5904	32.625	63.2724	133.4052	197.2663	225.6612	247.0098	313.4862	377.1795	489.2673	616.9747	682.9232	742.2615	779.7286	798.42	842.2807	852.9872	931.7194	988.2325	1017.8422	1038.0379	1115.3201	1174.0314	1209.8089	1242.0327	1320.2243	1367.8418	1453.7576	1476.4035	1641.5109	1675.6067	1682.0635	1696.3793	2985.0953	3074.4681	3235.6081	3467.1134	3582.9748	3585.6209
[NH3+]C1COC2=C1N=N[N-]2	N.[CH]1COc2c1nnn2	
InChI=1S/C4H5N4O/c5-2-1-9-4-3(2)6-8-7-4/h2H,1,5H2/q-1/p+1	InChI=1S/C4H4N3O.H3N/c1-2-8-4-3(1)5-7-6-4;/h1H,2H2,(H,5,6,7);1H3
