16
gdb 16116	3.9948	1.73106	1.47733	5.2403	69.01	-0.245	0.0305	0.2755	878.028	0.13312	-342.784442	-342.777526	-342.776582	-342.815517	26.553	
N	 0.0393541358	-1.1368095493	-0.0510447926	-0.351757
C	 0.0112595097	 0.0184486868	 0.0043676209	 0.257566
C	-0.0143313306	 1.4590947325	 0.0518487905	 0.17321
C	 0.3819424345	 2.2440257756	-1.1923109914	-0.3139
C	 1.2797221039	 2.2743337442	 0.0091011104	-0.060353
C	 1.1073141788	 3.4154489077	 1.0119461157	-0.244363
C	-0.1355972504	 2.9923804171	 1.8368576315	-0.164761
N	-0.9228026161	 2.0730413852	 0.9937540633	-0.352817
H	 0.70675672	 1.6768854291	-2.0578452507	 0.138024
H	-0.2181295682	 3.1206781651	-1.4177074191	 0.117793
H	 2.2296665177	 1.7579574469	-0.0527601102	 0.118854
H	 1.9938330992	 3.5328627083	 1.6407355219	 0.114474
H	 0.9422149379	 4.3683713509	 0.497427177	 0.108319
H	 0.1851455827	 2.4590836228	 2.7396489913	 0.122234
H	-0.7542549572	 3.8345520189	 2.1580997731	 0.10878
H	-1.6744042778	 2.5542159083	 0.5151922684	 0.228697
126.1814	152.5204	188.8703	317.6108	412.5047	502.7395	566.5662	586.4552	624.8463	683.5516	798.9214	828.5889	833.9518	907.2344	937.5706	940.0961	962.8307	1016.2976	1061.6759	1078.683	1086.8042	1141.3836	1220.2009	1240.1843	1251.9424	1276.1444	1320.2291	1357.2546	1381.3086	1444.9423	1471.2663	1495.3589	1511.8794	2350.4331	3034.0592	3044.1639	3092.3061	3103.6464	3124.6233	3192.5653	3219.7607	3544.9558
N#CC12CC1CCN2	N#C[C@]12C[C@H]1CCN2	
InChI=1S/C6H8N2/c7-4-6-3-5(6)1-2-8-6/h5,8H,1-3H2	InChI=1S/C6H8N2/c7-4-6-3-5(6)1-2-8-6/h5,8H,1-3H2/t5-,6-/m1/s1
