19
gdb 22362	2.25856	1.34383	0.88681	3.4839	86.39	-0.1854	0.0045	0.1898	1310.3696	0.159419	-419.19868	-419.189381	-419.188437	-419.232917	35.297	
C	-0.0584347248	 1.5368391968	 0.0452173864	-0.389046
C	 0.0459530193	 0.0081477146	 0.0254673235	-0.06122
C	 0.8297295324	-0.5489566799	-1.194150013	-0.328181
C	 1.9476444454	-1.3655351118	-0.5910500495	 0.363159
N	 2.8010452373	-2.0553692139	-1.4122811919	-0.579486
C	 1.9207708955	-1.3479645372	 0.7626124147	-0.300888
C	 0.8104166679	-0.5470521807	 1.2273066918	 0.406488
N	 0.4245339661	-0.2649757067	 2.4160899778	-0.280457
O	 1.2701398486	-0.8744957925	 3.3788175868	-0.408652
H	 0.9373358792	 1.9933915119	 0.0235472807	 0.112695
H	-0.621623631	 1.9049101586	-0.8192543804	 0.103296
H	-0.5592779712	 1.8693841814	 0.9574212118	 0.136988
H	-0.967028017	-0.4082654558	 0.0317789247	 0.094486
H	 0.205666752	-1.1667410541	-1.8509438039	 0.117434
H	 1.2339835462	 0.2589775459	-1.8200050916	 0.105216
H	 2.9114592626	-1.713176121	-2.3537676888	 0.254126
H	 3.6533468471	-2.4079952632	-1.0046142359	 0.257618
H	 2.6145273477	-1.846933206	 1.4235129107	 0.099251
H	 0.8651313266	-0.5881381366	 4.2030512962	 0.297172
39.3745	148.3783	188.9488	211.0966	248.9261	289.0601	346.022	367.7738	402.9933	421.8114	466.1517	524.3448	548.6805	593.2734	639.6739	700.8768	831.7276	857.1683	900.4669	917.4027	929.7643	963.1976	1038.3589	1090.5211	1101.02	1123.5791	1208.4165	1237.0783	1253.354	1288.9417	1319.6775	1349.286	1390.5564	1406.8205	1411.5308	1483.08	1492.2139	1501.1596	1641.0113	1685.9287	1724.1413	3010.5047	3030.6951	3039.1004	3056.1925	3096.1703	3125.6549	3238.6073	3579.2779	3686.3697	3830.3073
CC1CC(N)=CC1=NO	C[C@H]1CC(=CC1=NO)N	
InChI=1S/C6H10N2O/c1-4-2-5(7)3-6(4)8-9/h3-4,9H,2,7H2,1H3	InChI=1S/C6H10N2O/c1-4-2-5(7)3-6(4)8-9/h3-4,9H,2,7H2,1H3/t4-/m0/s1
