15
gdb 15280	4.71314	1.14204	0.99704	3.8512	71.81	-0.2714	0.0198	0.2912	1134.1544	0.117887	-325.495498	-325.48744	-325.486496	-325.528447	29.161	
C	 0.0158298863	-1.1336567389	-0.3792467036	-0.432044
C	 0.0130765475	 0.0189622483	-0.0400303045	 0.299964
C	 0.0377736405	 1.418380638	 0.3725224505	-0.38933
C	 1.4130831194	 2.0435411722	 0.1893328472	 0.006451
C	 1.8208007103	 2.6258955396	-1.1260597739	-0.272991
C	 1.5662865597	 3.5547697361	 0.0554577804	-0.190148
C	 0.4066210066	 4.4010558664	 0.0545792324	 0.288457
N	-0.5321848328	 5.0779785932	 0.0586207533	-0.341497
H	 0.0040881328	-2.1519924629	-0.6799494145	 0.200029
H	-0.7066254119	 1.9887275218	-0.1960054334	 0.152918
H	-0.262948475	 1.4987182502	 1.424885436	 0.145232
H	 2.1969498933	 1.5678454421	 0.7701515091	 0.115998
H	 2.847561714	 2.523446689	-1.4565138038	 0.134039
H	 1.0856274961	 2.6375721281	-1.9227365381	 0.145505
H	 2.4336959633	 4.000421737	 0.5301371231	 0.137416
60.5069	96.51	160.1445	211.312	329.9538	344.9662	361.0591	489.5127	555.9346	621.6109	624.3066	650.5044	774.343	816.0307	877.7496	883.4997	933.4704	988.0939	1027.1982	1078.0836	1109.5856	1120.9861	1160.8392	1226.6778	1256.012	1327.3183	1372.4015	1417.9605	1466.8808	1492.2942	2242.1678	2350.6268	3028.1469	3062.6923	3146.5064	3163.1163	3174.0797	3237.2197	3506.1372
C#CCC1CC1C#N	C#CC[C@H]1C[C@H]1C#N	
InChI=1S/C7H7N/c1-2-3-6-4-7(6)5-8/h1,6-7H,3-4H2	InChI=1S/C7H7N/c1-2-3-6-4-7(6)5-8/h1,6-7H,3-4H2/t6-,7-/m0/s1
