22
gdb 114124	4.09991	0.85965	0.801	2.9004	83.58	-0.2228	0.0641	0.2869	1530.5161	0.193563	-404.301656	-404.291927	-404.290983	-404.336484	36.245	
C	-0.1063532659	 1.5045034183	-0.0490395591	-0.379262
C	 0.1225334325	-0.0097372981	-0.0828611637	-0.188509
C	 0.7420317231	-0.5479761992	 1.2017096053	 0.046713
C	-0.111379428	-0.5418396079	 2.5284468672	-0.29259
C	 0.1020317386	-2.0585167044	 2.6300309133	 0.38416
C	 0.2782554447	-2.8767725614	 3.864007016	-0.215942
O	-0.9882623115	-3.0445512357	 4.4896943538	-0.414022
N	-0.5009689648	-2.6217286333	 1.3966406114	-0.359167
C	 0.875881886	-2.0725847815	 1.3564399603	-0.155778
H	 0.8350975795	 2.047682886	 0.0938267496	 0.107224
H	-0.5562966725	 1.8598007471	-0.9813951645	 0.110148
H	-0.7764981743	 1.7865239977	 0.7704285586	 0.117787
H	-0.8238008498	-0.5322791931	-0.257659621	 0.118566
H	 0.7788323783	-0.2620206214	-0.926964261	 0.085935
H	 1.7094593969	-0.0674383375	 1.3863208782	 0.065453
H	 0.3621668842	 0.0207312886	 3.3364526074	 0.096085
H	-1.1556561483	-0.2360506273	 2.4325438842	 0.109009
H	 0.7233228799	-3.8496766786	 3.591626594	 0.078721
H	 0.9876286279	-2.3703276686	 4.5381792648	 0.089848
H	-0.8459083098	-3.463844834	 5.3437292673	 0.287584
H	-0.4221026417	-3.6370384996	 1.4585204128	 0.224799
H	 1.7092468849	-2.6988684663	 1.0565947851	 0.083239
72.8502	85.5333	127.0161	146.6384	219.9285	251.3268	271.0894	327.0064	340.9844	420.1536	436.0998	579.2515	667.5086	699.0675	773.3365	815.9716	887.0113	911.841	925.157	940.4309	962.7745	983.4706	1019.4992	1047.7991	1065.694	1068.8043	1110.752	1129.7299	1131.7132	1195.9992	1218.6505	1225.6928	1252.6521	1262.9029	1279.3457	1308.179	1327.6171	1364.0473	1391.2163	1411.0095	1412.677	1470.3926	1488.3168	1492.4685	1500.5575	1506.5221	1507.8484	2947.717	2984.492	3016.1534	3027.4404	3039.516	3064.864	3072.4525	3096.4976	3100.6693	3121.4578	3169.8589	3464.3396	3824.3826
CCC1CC2(CO)NC12	CC[C@H]1C[C@@]2(CO)N[C@@H]12	
InChI=1S/C7H13NO/c1-2-5-3-7(4-9)6(5)8-7/h5-6,8-9H,2-4H2,1H3	InChI=1S/C7H13NO/c1-2-5-3-7(4-9)6(5)8-7/h5-6,8-9H,2-4H2,1H3/t5-,6-,7-/m0/s1
