18
gdb 62463	3.58077	1.18586	1.17343	4.0144	76.6	-0.2712	0.0157	0.2869	1123.4068	0.148979	-401.961118	-401.952954	-401.95201	-401.993641	31.321	
O	-0.2206430642	 1.3981409035	 0.0542160145	-0.449384
C	-0.0817815025	 0.0070913714	 0.0539152685	 0.237541
C	 1.0448368429	-0.466488078	-0.7244470647	 0.248446
N	 1.9634522857	-0.8280595591	-1.3278180825	-0.343287
C	-0.4679391572	-0.8470069677	 1.2603459166	-0.112333
C	-1.2312854531	-0.1656039201	 2.3888857906	-0.232093
C	-2.4397679609	 0.5440908433	 1.7269605258	-0.210034
C	-2.6565308094	-0.1580899433	 0.362832639	-0.22502
C	-1.3369785603	-0.8405106027	 0.023065044	-0.088585
H	 0.5238463205	 1.7771521034	 0.535817056	 0.297266
H	 0.1825785433	-1.6818324282	 1.495484928	 0.108194
H	-1.564083452	-0.943846523	 3.0844730824	 0.110919
H	-0.6111590845	 0.5283299122	 2.9659003935	 0.101644
H	-3.3323232053	 0.4934597707	 2.3559196805	 0.098011
H	-2.2093180347	 1.5968391469	 1.564599392	 0.120953
H	-3.4234825263	-0.9368931349	 0.4378635168	 0.107735
H	-2.9809583043	 0.5413140916	-0.4125834961	 0.119035
H	-1.3443154077	-1.6723029061	-0.671674025	 0.110991
126.142	149.59	176.2691	192.1506	253.3381	316.5307	418.5524	427.2194	564.5987	580.1461	646.5019	690.1821	700.0951	804.7876	841.048	868.0308	897.8257	900.4588	973.7152	998.6275	1044.5868	1067.4197	1078.2752	1093.7824	1160.0805	1186.5796	1215.0929	1250.0871	1263.3872	1306.5536	1315.6221	1326.253	1344.0974	1358.2113	1421.8291	1483.1752	1487.522	1506.4939	2344.8545	3041.4367	3045.7745	3074.7908	3075.1615	3091.5209	3132.7713	3174.3593	3184.2974	3794.2544
OC1(C#N)C2CCCC12	O[C@@]1(C#N)[C@H]2CCC[C@@H]12	
InChI=1S/C7H9NO/c8-4-7(9)5-2-1-3-6(5)7/h5-6,9H,1-3H2	InChI=1S/C7H9NO/c8-4-7(9)5-2-1-3-6(5)7/h5-6,9H,1-3H2/t5-,6+,7-
