17
gdb 23592	3.10999	1.48352	1.15061	1.883	76.18	-0.2327	-0.0009	0.2317	1060.5465	0.137754	-417.928339	-417.921107	-417.920162	-417.959812	29.354	
O	-0.1383929961	 1.3421890644	 0.0336671544	-0.395682
N	 0.0134399534	-0.0566692957	 0.0430103904	-0.245456
C	-1.1152843667	-0.6499634765	 0.04387808	 0.448611
C	-1.207158124	-2.1389448381	-0.0256507224	-0.128558
C	-2.0355418321	-2.8808972585	 1.0091029775	-0.294052
C	-2.6687508131	-2.476697998	-0.2927133628	-0.041184
C	-3.4330846953	-1.1601070698	-0.3080429675	-0.051126
N	-3.4357867279	-0.4437420303	 0.9805270506	-0.337542
C	-2.4768133032	-0.0392576971	-0.0850688742	-0.144647
H	 0.7756196774	 1.642624995	-0.0044772304	 0.306395
H	-0.3882237076	-2.6669627986	-0.4983217192	 0.09996
H	-1.7904199092	-3.9291473752	 1.1400910548	 0.110412
H	-2.3473514899	-2.3562485875	 1.9024855462	 0.149041
H	-2.9485150589	-3.2300903065	-1.0187689696	 0.088325
H	-4.2857512576	-1.0570599437	-0.9697675127	 0.090414
H	-4.1972521593	 0.2312208792	 0.9939019653	 0.235886
H	-2.56834822	 0.9425786668	-0.5309657304	 0.109203
122.3964	211.6749	247.0991	320.9996	358.9083	426.6908	471.3183	536.4915	631.4696	682.1268	702.6267	758.2045	795.2929	829.1211	865.9398	871.1029	908.6705	941.0866	952.3727	986.6733	1022.6396	1052.401	1073.9598	1089.2366	1101.3182	1137.2084	1152.9681	1197.034	1228.0782	1249.554	1326.213	1357.6352	1364.8187	1394.7851	1421.9719	1475.0454	1745.4933	3145.1197	3171.1604	3184.7379	3191.7786	3202.1548	3245.6102	3494.1562	3821.4996
ON=C1C2CC2C2NC12	ON=C1[C@H]2C[C@H]2[C@H]2N[C@@H]12	
InChI=1S/C6H8N2O/c9-8-5-3-1-2(3)4-6(5)7-4/h2-4,6-7,9H,1H2	InChI=1S/C6H8N2O/c9-8-5-3-1-2(3)4-6(5)7-4/h2-4,6-7,9H,1H2/t2-,3+,4-,6-/m1/s1
