12
gdb 132225	2.04647	1.93333	0.99415	5.178	60.56	-0.2398	-0.0189	0.2209	1050.4418	0.078982	-510.141105	-510.133991	-510.133047	-510.173117	26.466	
O	-0.1118453002	 1.2944713061	 0.0101377992	-0.405063
C	 0.0465738127	-0.0322086615	 0.0024972463	 0.504454
N	 1.1834774511	-0.6006272168	-0.0068535338	-0.356438
C	 1.2300147014	-2.0093901355	-0.0142510958	 0.368769
N	 2.3593866647	-2.591685758	-0.0236153543	-0.507353
N	-0.0001211989	-2.736734305	-0.0109946879	-0.374672
C	-1.0680428369	-2.071914696	-0.0015444648	 0.404566
F	-2.2539158777	-2.6502081322	 0.0022422278	-0.054835
N	-1.1600603428	-0.7031229259	 0.005949725	-0.42161
H	 0.7807644578	 1.6710659837	 0.0069868023	 0.324238
H	 2.2034073484	-3.5999586092	-0.0278585788	 0.225194
H	-2.0440634397	-0.2194879597	 0.0134555249	 0.292748
84.4638	174.6758	241.6184	348.2083	378.5243	397.9432	527.968	545.9579	554.4402	613.646	658.709	696.3362	723.5862	782.38	905.7026	927.2205	995.0748	1072.953	1145.3944	1195.7975	1276.9889	1331.9887	1441.7962	1522.6138	1691.3944	1721.6808	1806.3452	3492.2294	3649.7248	3763.7501
OC1=NC(=N)N=C(F)N1	O[C@H]1N=C([NH])N=C(F)N1	
InChI=1S/C3H3FN4O/c4-1-6-2(5)8-3(9)7-1/h(H3,5,6,7,8,9)	InChI=1S/C3H4FN4O/c4-1-6-2(5)8-3(9)7-1/h3,5,9H,(H,6,7,8)/t3-/m1/s1
