16
gdb 45151	2.93144	1.55933	1.18512	2.8192	69.53	-0.2458	-0.0362	0.2096	1030.2947	0.123395	-437.82274	-437.815326	-437.814382	-437.855142	28.254	
O	 0.3362940125	 0.0696939311	-0.563847032	-0.274931
C	 0.1507261311	 1.1679384148	-0.1392698053	 0.410036
C	-1.0495590134	 1.9354137695	 0.445980853	-0.307076
N	-0.2256802798	 3.1858735359	 0.5146916705	-0.127487
C	 0.4588199253	 3.3505326669	 1.8429137461	-0.271004
C	 1.7197589962	 2.6738960523	 1.2982046989	 0.433433
C	 3.1370065388	 2.9113064436	 1.5677780838	-0.259936
O	 2.479495546	 1.7004541802	 1.9755802497	-0.250311
C	 0.9951487893	 2.4513345406	-0.0348574952	-0.23616
H	-1.8894308784	 2.0257924445	-0.2515139637	 0.143116
H	-1.4307368523	 1.5678935796	 1.4053816108	 0.135371
H	 0.574126615	 4.402332227	 2.119274196	 0.121706
H	-0.0214705399	 2.8154853549	 2.6694296641	 0.120995
H	 3.8668063433	 2.7974294726	 0.767715748	 0.127018
H	 3.4265466044	 3.5796374632	 2.3775664809	 0.124452
H	 1.4711238319	 2.8109806032	-0.9508188656	 0.110778
64.3207	103.8186	250.4393	333.5273	373.159	402.2386	430.1305	513.3579	561.9251	668.7774	753.7008	840.7437	844.4819	879.3849	909.9722	919.3467	943.6279	989.1549	1039.8156	1061.9232	1097.4345	1124.5671	1153.1344	1161.5661	1176.1834	1179.9388	1196.2349	1225.7313	1257.4555	1285.4301	1434.8172	1452.0587	1493.1192	1532.4065	1907.6794	3036.8989	3042.2042	3083.0403	3083.9045	3087.6575	3094.7906	3174.0355
O=C1CN2CC3(CO3)C12	O=C1CN2C[C@]3(CO3)[C@@H]12	
InChI=1S/C6H7NO2/c8-4-1-7-2-6(3-9-6)5(4)7/h5H,1-3H2	InChI=1S/C6H7NO2/c8-4-1-7-2-6(3-9-6)5(4)7/h5H,1-3H2/t5-,6+/m1/s1
