14
gdb 19676	4.91386	1.85986	1.73757	4.2904	64.4	-0.2516	0.005	0.2566	761.6028	0.109124	-341.512672	-341.506726	-341.505782	-341.542681	23.267	
N	 0.0228433947	-1.2022035271	-0.0852687661	-0.3283
C	 0.0239171577	-0.0480527312	-0.0202121857	 0.286951
C	 0.0119180062	 1.4107871863	 0.0761627767	-0.107377
C	-0.1752526517	 2.1016853823	 1.4192310488	-0.091543
C	 1.2285956408	 2.188733111	 2.0495990044	-0.078039
C	 2.1686427998	 1.5288964658	 1.0577305725	-0.188496
N	 1.3491022547	 2.1326919218	-0.0737011985	-0.17659
C	 0.8082892191	 3.1414250774	 0.9726517686	-0.033633
H	-0.6684872028	 1.8098555314	-0.6807691997	 0.132764
H	-1.0784025306	 2.2220248276	 2.0024784321	 0.111247
H	 1.3469397254	 2.3793696713	 3.108449622	 0.104219
H	 3.1578582044	 1.9913511463	 1.0462430218	 0.121735
H	 2.2645656837	 0.4395844903	 1.0271353522	 0.132712
H	 0.7769459586	 4.2140175668	 0.853536501	 0.11435
146.5993	169.6999	390.0254	428.5468	541.2872	565.7933	734.428	778.4401	810.6644	817.3425	825.8968	861.6233	930.2529	968.5716	980.9412	1007.51	1020.4582	1033.1313	1049.6319	1090.7218	1117.3582	1167.2275	1180.6751	1216.6697	1268.85	1299.3484	1353.2557	1372.0137	1514.428	2352.8457	3061.1306	3080.0646	3120.5414	3199.8682	3207.7925	3236.3671
N#CC1C2C3CN1C23	N#C[C@H]1[C@H]2[C@H]3CN1[C@@H]23	
InChI=1S/C6H6N2/c7-1-4-5-3-2-8(4)6(3)5/h3-6H,2H2	InChI=1S/C6H6N2/c7-1-4-5-3-2-8(4)6(3)5/h3-6H,2H2/t3-,4+,5-,6-/m1/s1
