14
gdb 29355	2.05343	1.90006	0.98864	3.6589	72.29	-0.1956	0.0005	0.1961	1104.3534	0.102304	-432.910077	-432.901708	-432.900764	-432.94279	31.298	
N	 0.0533937895	 1.3797516195	 0.1804705413	-0.614829
C	 0.0121565885	-0.0011983768	 0.0354657454	 0.147566
C	-1.0524974872	-0.8398698244	 0.0007422139	-0.116089
O	-0.6088764915	-2.1651839909	-0.0655366468	-0.176807
C	 0.7230167027	-2.1419543067	-0.0780275395	 0.330062
N	 1.368748201	-3.3378279443	-0.2130162234	-0.598748
C	 1.1933871049	-0.8459873707	-0.0150632157	 0.039757
C	 2.5396773608	-0.4423078289	-0.0028098708	 0.164369
N	 3.6512719757	-0.105766885	 0.0039298443	-0.371032
H	 0.8773427157	 1.8041129421	-0.2238636897	 0.261962
H	-0.7831954711	 1.8560241865	-0.1252633299	 0.25173
H	-2.1186307086	-0.709969551	 0.0279399118	 0.132346
H	 0.8578120874	-4.1417813165	 0.1211578493	 0.270051
H	 2.3423339622	-3.330832883	 0.0525892596	 0.27966
112.8014	136.3703	206.8273	250.8347	278.9565	307.1204	365.0947	427.3927	525.0884	544.1639	556.9105	575.9175	602.9124	622.4137	670.6397	692.0577	750.74	786.1219	1003.6473	1071.9547	1140.3001	1142.5814	1247.8245	1298.7408	1398.3088	1501.0199	1604.6632	1645.6563	1669.9622	1680.0485	2320.7389	3306.9975	3553.9357	3574.3156	3650.1033	3683.1449
NC1=COC(N)=C1C#N	Nc1coc(N)c1C#N	
InChI=1S/C5H5N3O/c6-1-3-4(7)2-9-5(3)8/h2H,7-8H2	InChI=1S/C5H5N3O/c6-1-3-4(7)2-9-5(3)8/h2H,7-8H2
