17
gdb 22752	2.47356	1.59336	1.26286	0.9348	71.86	-0.2361	-0.0011	0.235	1038.0185	0.134157	-455.046487	-455.037819	-455.036875	-455.079213	33.504	
C	-0.0265990713	 1.6187399194	-0.0964817897	-0.45241
C	 0.037912174	 0.1062620523	 0.0244376174	 0.335297
O	-1.210675742	-0.4716225698	 0.3554487596	-0.485628
C	 0.6685262188	-0.6887824184	-1.1475269441	-0.083094
N	 2.0425826173	-0.1890918469	-1.2972991156	-0.338342
C	 1.7558585788	-1.2383437874	-0.2666465855	-0.170783
C	 1.1506399874	-0.534493071	 0.8929345807	 0.418182
N	 1.2928702207	-0.7158057031	 2.1376964456	-0.267691
O	 0.3131881771	 0.0395140221	 2.841891877	-0.410931
H	 0.9288172184	 2.0167342184	-0.4449098523	 0.141751
H	-0.8138666066	 1.895021389	-0.8051416751	 0.118761
H	-0.2611861114	 2.0636287837	 0.8748018863	 0.126174
H	-1.3427124996	-0.3088439815	 1.2982338709	 0.294492
H	 0.1244083112	-1.1759607295	-1.9458253023	 0.111337
H	 2.4599263776	-0.6781528543	-2.0894606716	 0.239279
H	 2.2644025201	-2.1926869831	-0.2802766256	 0.112769
H	 0.4913081297	-0.1994308	 3.7575454143	 0.310839
109.4833	171.8697	215.9019	227.8114	250.6155	332.5415	358.0041	383.9555	425.1048	431.5791	488.7621	535.1997	671.7976	695.6976	729.3016	822.7524	847.9446	854.7479	918.8121	939.1596	969.0456	1003.2433	1078.0172	1091.5686	1112.806	1127.3022	1192.9779	1224.0724	1261.3246	1306.5887	1354.2703	1394.5708	1397.2748	1403.7844	1487.2572	1496.3078	1783.4685	3042.9478	3115.0819	3136.9531	3207.0812	3218.224	3470.5238	3778.3883	3823.868
CC1(O)C2NC2C1=NO	C[C@@]1(O)[C@H]2N[C@H]2[C]1[N]O	
InChI=1S/C5H8N2O2/c1-5(8)3-2(6-3)4(5)7-9/h2-3,6,8-9H,1H3	InChI=1S/C5H8N2O2/c1-5(8)3-2(6-3)4(5)7-9/h2-3,6,8-9H,1H3/t2-,3+,5-/m1/s1
