17
gdb 75045	2.56025	1.65973	1.11495	4.2044	79.31	-0.2433	-0.0598	0.1835	1089.3116	0.136677	-421.87177	-421.863766	-421.862822	-421.904322	30.302	
C	 0.0011064417	 1.5118317284	 0.2611146064	-0.468574
C	-0.0369836362	 0.0151821131	 0.0998030328	 0.09278
C	-1.1910618447	-0.631020007	-0.17996153	-0.138202
C	-1.4076872472	-2.0538744961	-0.3759489494	-0.063014
C	-0.6570048565	-3.0021392804	 0.1999392105	-0.089085
C	 0.4863430036	-2.6123401135	 1.0841933368	-0.149712
O	 1.5105054324	-1.9063660583	 0.3634907362	-0.216532
C	 1.3283387026	-0.6078350518	 0.0297674757	 0.38164
O	 2.2779203594	 0.0282407588	-0.3565050577	-0.330896
H	 0.6404499355	 1.9565345344	-0.5067579617	 0.159661
H	-1.0009893685	 1.941957512	 0.1975854163	 0.116278
H	 0.4389107774	 1.7917780304	 1.2259785189	 0.135924
H	-2.0767558599	-0.0082552178	-0.297254135	 0.103172
H	-2.2620930968	-2.3351854762	-0.9858664465	 0.105058
H	-0.865509097	-4.0546917773	 0.0410435627	 0.110441
H	 0.1327213616	-1.9793862419	 1.9103877751	 0.122772
H	 0.9949204327	-3.4807895667	 1.504680639	 0.128289
86.6239	149.3392	182.435	294.0951	300.6679	325.6124	376.4919	426.998	500.8828	555.726	614.9385	694.9144	765.6838	782.596	801.517	922.9532	951.1185	963.1645	1000.123	1053.2903	1066.954	1070.5749	1101.0486	1127.855	1227.7363	1244.1152	1296.6427	1382.3831	1403.1555	1408.6972	1434.0405	1467.1852	1487.5459	1490.7016	1652.9917	1694.1954	1796.3983	3010.0518	3038.5689	3097.8279	3122.3715	3129.5527	3136.5004	3163.6619	3194.4734
CC1=CC=CCOC1=O	CC1=CC=CCOC1=O	
InChI=1S/C7H8O2/c1-6-4-2-3-5-9-7(6)8/h2-4H,5H2,1H3	InChI=1S/C7H8O2/c1-6-4-2-3-5-9-7(6)8/h2-4H,5H2,1H3
