20
gdb 69964	2.48693	1.85721	1.3801	2.4227	78.03	-0.209	0.0711	0.2801	1008.9233	0.170497	-403.078379	-403.07017	-403.069226	-403.110327	33.325	
C	 0.0562060121	 1.4797917542	-0.0006433299	-0.453695
C	 0.0306469124	-0.0306516917	-0.041231833	 0.287422
C	-1.3527562034	-0.7477963849	-0.082765142	-0.317542
C	-0.9132136912	-1.5009899603	 1.2030997094	-0.170743
N	 0.3931492212	-0.7553252613	 1.2382923526	-0.147601
C	 1.5462789961	-1.3863734607	 0.5656650812	-0.069975
C	 1.2074237124	-2.1795681303	-0.6866370354	-0.378224
C	 1.2481953977	-0.6795501173	-0.7442252987	 0.32736
O	 2.1184816376	 0.0203699918	-1.5614732195	-0.456312
H	 1.0552032639	 1.8454352605	 0.2515747382	 0.132775
H	-0.2175797042	 1.8954019115	-0.9772423193	 0.110168
H	-0.651296692	 1.8535476979	 0.745612829	 0.113857
H	-2.2007663562	-0.0729919474	 0.0550949225	 0.102462
H	-1.5425804089	-1.3673854506	-0.9630409242	 0.100332
H	-1.5145804585	-1.2857623464	 2.0903466353	 0.104714
H	-0.811598738	-2.5865257585	 1.1127087675	 0.104288
H	 2.4772130223	-1.5456956599	 1.0983765447	 0.099231
H	 2.0787443708	-2.6482347486	-1.1349456526	 0.115178
H	 0.2906494263	-2.7510008012	-0.7917083983	 0.109346
H	 1.9093989694	-0.1883701867	-2.4784037774	 0.286959
155.9971	204.5963	223.7435	266.6208	278.5815	302.3176	350.6259	436.9305	461.6586	513.5492	594.2869	632.0397	752.6851	764.2973	787.3861	844.641	891.9769	903.3063	934.6589	951.648	965.1825	982.5605	1005.4808	1026.704	1064.157	1108.3021	1132.2328	1171.8097	1174.7471	1211.5548	1219.2046	1243.0957	1258.9487	1292.1775	1302.6448	1318.182	1394.5536	1408.5742	1476.6799	1479.1836	1486.2242	1492.3105	1512.2654	3033.2341	3048.4685	3060.7955	3089.6804	3101.0389	3115.0097	3121.1277	3121.8883	3169.2657	3204.4631	3796.2971
CC12CCN1C1CC21O	C[C@]12CCN1[C@H]1C[C@@]21O	
InChI=1S/C7H11NO/c1-6-2-3-8(6)5-4-7(5,6)9/h5,9H,2-4H2,1H3	InChI=1S/C7H11NO/c1-6-2-3-8(6)5-4-7(5,6)9/h5,9H,2-4H2,1H3/t5-,6+,7-/m0/s1
