19
gdb 36717	5.0804	0.74749	0.70176	1.9857	84.2	-0.2352	0.0117	0.2469	1611.9372	0.15805	-385.860353	-385.851286	-385.850341	-385.895058	33.257	
C	-0.0028638273	-1.1936885764	 0.1658670006	-0.439806
C	-0.0130527777	 0.0064115575	 0.0947040979	 0.291708
C	 0.0091795969	 1.4605121366	 0.0064525631	-0.354678
C	 1.4366939659	 2.033667638	-0.0922183869	-0.185193
C	 1.433793961	 3.564549425	-0.1774931303	 0.085049
O	 0.7897206108	 4.1238307742	 0.9746795079	-0.278361
C	 1.659238018	 5.0326915498	 1.6449806206	-0.114857
C	 2.9372603819	 5.0051068475	 0.8554893446	-0.094829
C	 2.8062420439	 4.1840331255	-0.1791700316	-0.099254
H	-0.0091624145	-2.2531797259	 0.2308212689	 0.190578
H	-0.5746798319	 1.7837175986	-0.8660894479	 0.124774
H	-0.4823557725	 1.8986401211	 0.8821837376	 0.150199
H	 2.0189637059	 1.7246232815	 0.7821403487	 0.11198
H	 1.9372409994	 1.6253683301	-0.9780719708	 0.103895
H	 0.8622494451	 3.8618641156	-1.0749153063	 0.079057
H	 1.2050687458	 6.0362943593	 1.6703814698	 0.10624
H	 1.7997974021	 4.7165251989	 2.690337618	 0.108017
H	 3.8105754284	 5.5871983869	 1.1208520308	 0.108265
H	 3.5501198187	 3.9583241962	-0.9325524147	 0.107215
54.2186	89.7657	104.4582	125.3037	217.4177	302.2183	349.2086	407.8072	449.5184	560.8336	611.9523	632.2542	711.4841	743.6462	778.4423	815.8794	867.4527	926.9558	956.4904	960.3685	1009.7336	1020.7732	1041.8	1050.0134	1089.2193	1112.5576	1133.6841	1186.7962	1207.426	1254.3037	1306.7421	1315.7834	1359.4894	1360.6309	1388.9883	1390.784	1471.4476	1486.6295	1522.6125	1691.7699	2238.2536	2939.2045	2973.7833	2992.0299	3018.6598	3040.0074	3066.785	3092.3505	3207.5686	3232.0259	3508.2252
C#CCCC1OCC=C1	C#CCC[C@H]1OCC=C1	
InChI=1S/C8H10O/c1-2-3-5-8-6-4-7-9-8/h1,4,6,8H,3,5,7H2	InChI=1S/C8H10O/c1-2-3-5-8-6-4-7-9-8/h1,4,6,8H,3,5,7H2/t8-/m1/s1
