16
gdb 133064	2.94682	1.26036	0.93864	3.6673	73.29	-0.2631	-0.0476	0.2156	1217.3842	0.125269	-442.106343	-442.098548	-442.097603	-442.139623	28.561	
C	 0.0813110268	 1.4997346903	 0.2103379732	-0.374007
C	-0.1375161739	 0.0077210657	-0.0931835786	-0.271761
C	 0.6955914115	-0.461391798	-1.256800306	 0.326405
C	 1.7605207576	-1.3522505195	-1.1150062329	-0.188134
C	 2.4590814456	-1.6940151415	-2.2652893684	 0.02093
N	 2.1488240383	-1.2065315749	-3.4695750185	-0.309307
C	 1.1228478468	-0.3728560868	-3.4700581748	 0.340702
F	 0.7979074344	 0.1212772308	-4.6506571884	-0.057558
N	 0.3766035369	 0.0341542604	-2.4626971112	-0.345775
H	 1.1172772624	 1.6949456586	 0.504926284	 0.12004
H	-0.1411834639	 2.1024747683	-0.6736390597	 0.146338
H	-0.5709105529	 1.8241948799	 1.0258762613	 0.120084
H	 0.0911858485	-0.5978976884	 0.7893202322	 0.105249
H	-1.1916268027	-0.1568024198	-0.3426854673	 0.129535
H	 2.0299595032	-1.7620187792	-0.1496564439	 0.109736
H	 3.2984236515	-2.3842427861	-2.2292865612	 0.127523
41.0174	134.0649	201.2431	215.9973	293.3137	346.933	472.017	509.3568	548.7795	594.4548	708.0363	760.8429	794.1298	825.4307	865.5038	949.0089	1004.4211	1010.1906	1016.5861	1085.1844	1100.0527	1126.8122	1249.3694	1263.66	1299.2889	1347.1798	1369.0731	1404.2442	1454.9678	1479.5621	1483.497	1496.6369	1510.6018	1604.6606	1624.8571	3042.7946	3045.0451	3087.1791	3114.6861	3131.3266	3163.3209	3211.4185
CCC1=CC=NC(F)=N1	CCc1ccnc(F)n1	
InChI=1S/C6H7FN2/c1-2-5-3-4-8-6(7)9-5/h3-4H,2H2,1H3	InChI=1S/C6H7FN2/c1-2-5-3-4-8-6(7)9-5/h3-4H,2H2,1H3
