27
gdb 122970	5.03339	0.49023	0.46491	0.8607	94.88	-0.2474	0.0831	0.3306	2511.114	0.249334	-390.699634	-390.687377	-390.686433	-390.738555	43.011	
C	-0.15976241	 1.5777472926	-0.1505854922	-0.383969
C	-0.0355300323	 0.0699294318	-0.0076287864	-0.02598
O	-1.3305913791	-0.4906505691	 0.00235779	-0.242726
C	-1.3311177315	-1.8979448096	 0.1208553056	-0.063456
C	-2.7791565316	-2.3747125131	 0.1428312431	-0.195775
C	-2.9573378474	-3.9028822742	 0.0960197337	 0.040454
C	-2.3638690607	-4.5902551637	 1.3358351394	-0.390854
C	-4.4473939573	-4.2492257627	-0.0939609899	-0.165073
C	-4.7383075174	-5.7271985333	-0.3738577878	-0.392276
H	 0.8299044447	 2.0443404614	-0.1584369223	 0.112202
H	-0.6722336591	 1.8334333656	-1.08240415	 0.125247
H	-0.7346642744	 1.995241894	 0.6809617642	 0.125487
H	 0.5556309301	-0.349351658	-0.8403559541	 0.081618
H	 0.4995165807	-0.1873951364	 0.9230819174	 0.081867
H	-0.7921545024	-2.3535347578	-0.7295632203	 0.079311
H	-0.7952727481	-2.1980143678	 1.0363167235	 0.08375
H	-3.2716605361	-1.9689899973	 1.0362156573	 0.098385
H	-3.2830486014	-1.9233489388	-0.7201653071	 0.100823
H	-2.4180216537	-4.2757517854	-0.7886178325	 0.066708
H	-2.4818801017	-5.6765232189	 1.2909016986	 0.11383
H	-1.2942242182	-4.3871353216	 1.4412423108	 0.113869
H	-2.8602681414	-4.2385028022	 2.2487375417	 0.111496
H	-5.0042609738	-3.9276132184	 0.7972389741	 0.091897
H	-4.8382994879	-3.6497934293	-0.9258896076	 0.091941
H	-5.8034496841	-5.8831627459	-0.5720795354	 0.111781
H	-4.1834195605	-6.0796825915	-1.2509258938	 0.112023
H	-4.4673167853	-6.3691832102	 0.4697148403	 0.117421
42.4999	51.8183	81.4214	96.0381	114.9406	137.6763	204.0225	217.2759	247.7597	256.0495	268.5575	322.9978	388.9642	419.3614	499.1408	518.1363	772.6112	790.3292	821.4459	832.3915	894.8096	924.85	961.2163	984.6188	1028.5284	1035.9968	1041.6828	1073.876	1128.137	1159.4812	1174.6051	1175.3064	1184.4541	1200.7653	1245.4081	1284.3986	1294.6522	1302.3902	1314.5874	1351.1495	1376.8912	1384.5707	1391.8229	1408.4206	1413.955	1417.7189	1452.3021	1479.1642	1483.7115	1490.6253	1496.5822	1499.3214	1499.9689	1508.267	1515.0554	1518.05	1539.6869	2937.1049	2950.7615	2969.4529	2978.1442	2982.6004	3010.4315	3024.1718	3030.7119	3032.9454	3044.2591	3045.739	3068.2446	3096.5683	3097.0307	3104.6681	3112.4068	3118.4085	3120.6878
CCOCCC(C)CC	CCOCC[C@@H](C)CC	
InChI=1S/C8H18O/c1-4-8(3)6-7-9-5-2/h8H,4-7H2,1-3H3	InChI=1S/C8H18O/c1-4-8(3)6-7-9-5-2/h8H,4-7H2,1-3H3/t8-/m0/s1
