18
gdb 77290	3.27324	0.94587	0.81423	3.3326	74.96	-0.2424	-0.028	0.2143	1401.3969	0.145866	-439.122297	-439.112889	-439.111945	-439.1578	33.375	
C	-0.4215167828	 1.2443452082	-0.2484236084	-0.410836
C	 0.173090826	-0.1190657721	 0.0688826397	-0.111151
C	 1.0551495969	-0.8714489672	-0.9846365516	 0.030045
C	 2.0870477603	-1.236808932	 0.1275882148	-0.379954
C	 1.3787086451	-0.2059627727	 1.0213396665	 0.394841
O	 1.6856610051	 0.386189552	 2.0146596808	-0.292181
N	 0.4526202423	-1.944161559	-1.7347299329	-0.287101
C	 0.4328904709	-1.9865539468	-3.0976028317	 0.153905
O	 0.9082076297	-1.1467639092	-3.8303390879	-0.317591
H	 0.3458052467	 1.92799777	-0.6245993345	 0.129312
H	-1.206218802	 1.1654160277	-1.0069097031	 0.129464
H	-0.8553869173	 1.6912957808	 0.6508169592	 0.137417
H	-0.6040425154	-0.8023935018	 0.4423356508	 0.09631
H	 1.4757011479	-0.1825221348	-1.7181841646	 0.135997
H	 1.9531885761	-2.255504101	 0.510425641	 0.125421
H	 3.1477321736	-1.0771992209	-0.0769538513	 0.142205
H	 0.0216384145	-2.7057345423	-1.2330995366	 0.245665
H	-0.0780485876	-2.896450019	-3.4694644503	 0.078231
31.1159	63.3397	160.1791	180.5266	188.0786	209.3226	291.0888	356.535	381.4174	475.7133	528.6806	575.8057	628.7543	751.0673	757.8383	817.0679	890.3711	925.8497	1008.2329	1029.6622	1050.215	1059.7971	1117.4755	1140.0884	1160.5277	1197.0764	1209.4571	1249.7809	1266.6793	1329.2716	1369.0574	1409.1568	1432.0138	1440.3455	1493.3167	1493.9405	1532.0471	1807.3462	1895.1596	2940.9081	3006.0923	3040.3016	3048.0044	3110.9194	3114.9595	3116.145	3127.3073	3619.7308
CC1C(CC1=O)NC=O	C[C@H]1[C@@H](CC1=O)NC=O	
InChI=1S/C6H9NO2/c1-4-5(7-3-8)2-6(4)9/h3-5H,2H2,1H3,(H,7,8)	InChI=1S/C6H9NO2/c1-4-5(7-3-8)2-6(4)9/h3-5H,2H2,1H3,(H,7,8)/t4-,5+/m0/s1
