14
gdb 25294	3.27338	1.32524	0.94333	2.8371	75.8	-0.2364	-0.0919	0.1445	1146.7842	0.101891	-436.749909	-436.742304	-436.74136	-436.782591	27.561	
O	-0.9097865395	 1.2212455398	-0.0118247784	-0.236752
C	 0.2340080374	 0.9437558809	-0.260370339	 0.097002
C	 1.4050968811	 1.927773423	-0.3191864202	 0.182495
O	 2.5082064941	 1.4657032854	-0.589664868	-0.355985
C	 1.1809686259	 3.3285192136	-0.0617297517	 0.241635
C	 0.0620063421	 4.0983201838	 0.2581820827	-0.226643
C	 0.4911049712	 5.4311147458	 0.3870885893	-0.145699
C	 1.8592420052	 5.4508638479	 0.1443384288	-0.058643
N	 2.259873215	 4.1868961308	-0.1229688964	-0.278213
H	 0.5750642523	-0.0901804627	-0.4814629088	 0.108411
H	-0.9355960332	 3.7105671051	 0.3774523145	 0.141149
H	-0.1167163991	 6.2888969998	 0.628870393	 0.112976
H	 2.5587315431	 6.2722574276	 0.1457493692	 0.137418
H	 3.1889545143	 3.8626222691	-0.339927505	 0.280849
83.6352	143.5962	165.5413	173.3071	262.0467	448.7686	540.6841	569.2944	592.3383	651.3307	669.6083	708.531	771.136	847.2177	893.6528	906.3566	950.2699	1028.6376	1058.4943	1086.2613	1138.5371	1153.2818	1274.5721	1348.0808	1372.7217	1430.2631	1456.564	1491.5998	1581.8554	1713.6	1825.0295	2920.7619	3252.0683	3269.3201	3289.5273	3656.5253
O=CC(=O)C1=CC=CN1	O=CC(=O)c1ccc[nH]1	
InChI=1S/C6H5NO2/c8-4-6(9)5-2-1-3-7-5/h1-4,7H	InChI=1S/C6H5NO2/c8-4-6(9)5-2-1-3-7-5/h1-4,7H
