18
gdb 41482	3.18466	1.69022	1.35667	1.0784	70.55	-0.2284	0.0646	0.293	965.6038	0.150038	-439.031553	-439.024574	-439.023629	-439.06288	27.907	
C	 0.1822055761	 1.576764372	 0.3135779026	-0.086741
O	 1.5301634352	 1.484254746	-0.2446461495	-0.347144
C	 1.3415162955	 0.1077581689	-0.5409522673	 0.449258
C	 1.8526840441	-0.4995833651	-1.8262202683	-0.18384
O	 1.6938268126	-1.8983220395	-1.617610856	-0.255851
C	 2.0505072857	-2.1739140964	-0.2573019921	-0.101121
C	 1.6217009384	-0.9623719568	 0.5734219034	-0.064889
N	 0.2025089218	-0.860278604	 1.0309821808	-0.336528
C	-0.1149779842	 0.1008788403	-0.050358927	-0.109975
H	 0.1923865109	 1.7866404785	 1.3876066455	 0.114913
H	-0.4040201401	 2.3329005959	-0.2197318753	 0.107155
H	 1.2745065352	-0.2241903741	-2.7118301062	 0.115641
H	 2.9074234804	-0.2198692699	-1.9900760213	 0.101286
H	 1.5621274084	-3.1112015968	 0.0276057428	 0.108945
H	 3.1397867739	-2.3115379407	-0.170328331	 0.098546
H	 2.3413129377	-0.7093816518	 1.3557924531	 0.086859
H	-0.307844775	-1.7331584607	 0.9438612928	 0.219951
H	-0.9868632166	-0.109673186	-0.6711243671	 0.083534
115.7418	187.4417	251.8435	347.0998	358.4108	435.8683	468.6587	600.6402	695.4555	738.9216	784.2145	841.2796	866.9416	891.6423	918.0996	931.1229	973.2104	1006.8429	1028.5219	1043.2909	1089.4598	1114.3963	1125.9318	1140.7427	1147.6974	1164.1203	1209.7821	1227.4578	1261.7955	1292.0336	1314.6606	1324.3675	1340.3932	1357.9456	1393.697	1405.9441	1494.7307	1503.9745	1507.954	2966.9401	2982.5654	3033.7451	3075.6447	3081.2272	3093.429	3097.0045	3104.3424	3521.7534
C1OC23COCC2NC13	C1O[C@@]23COC[C@@H]2N[C@@H]13	
InChI=1S/C6H9NO2/c1-4-6(3-8-1)5(7-4)2-9-6/h4-5,7H,1-3H2	InChI=1S/C6H9NO2/c1-4-6(3-8-1)5(7-4)2-9-6/h4-5,7H,1-3H2/t4-,5-,6-/m0/s1
