19
gdb 63063	3.21445	1.64255	1.40894	2.4362	73.45	-0.2383	0.0689	0.3072	971.1882	0.159999	-422.979422	-422.972065	-422.971121	-423.01062	30.681	
C	-0.2106173963	 1.630360781	-0.0383286892	-0.476338
C	 0.0179297941	 0.1267211126	-0.0074003109	 0.427628
O	-1.2352432665	-0.5551893051	-0.0896310977	-0.486779
C	 1.0817369817	-0.5698014771	-0.9140873592	-0.163601
C	 2.3935328362	 0.1322851594	-0.5261686469	-0.227451
C	 2.3378539549	-0.3785069187	 0.9320894531	 0.054576
O	 2.4837175544	-1.813592128	 0.7123758013	-0.296652
C	 1.1462498624	-1.7272060949	 0.2090721535	 0.112878
C	 0.7816450619	-0.5548045384	 1.1412477907	-0.098251
H	 0.6925008917	 2.2060805533	 0.1758898872	 0.120255
H	-0.5839857172	 1.9498182606	-1.0196596592	 0.107795
H	-0.9659726489	 1.892953311	 0.7084210074	 0.128953
H	-1.6240129645	-0.3457568003	-0.9458728223	 0.275588
H	 0.8713694115	-0.7714191091	-1.9642687228	 0.058916
H	 3.2781757197	-0.2707392791	-1.0231161213	 0.110194
H	 2.3700165877	 1.2159163988	-0.6503532011	 0.096827
H	 3.011125604	 0.023564054	 1.6877007017	 0.080497
H	 0.6201444729	-2.6682869721	 0.083093388	 0.095507
H	 0.3871131103	-0.6710878079	 2.148743188	 0.079458
180.7203	207.2077	252.51	298.0397	361.464	393.9484	466.8998	527.4254	548.0774	601.2458	713.1404	745.7162	817.4254	849.3355	856.7185	901.9738	923.2104	929.3653	954.7478	959.4632	980.2669	1007.5489	1027.3181	1066.3661	1114.9793	1121.4355	1151.3897	1166.1149	1168.2437	1200.4143	1217.9318	1229.2164	1257.4904	1283.1283	1315.3468	1328.7437	1387.2088	1410.4541	1482.4553	1489.5968	1507.2802	3027.1399	3080.6486	3095.5942	3118.9463	3122.9992	3130.4138	3136.6882	3142.6196	3173.7975	3801.1044
CC1(O)C2CC3OC2C13	C[C@@]1(O)[C@H]2C[C@@H]3O[C@H]2[C@H]13	
InChI=1S/C7H10O2/c1-7(8)3-2-4-5(7)6(3)9-4/h3-6,8H,2H2,1H3	InChI=1S/C7H10O2/c1-7(8)3-2-4-5(7)6(3)9-4/h3-6,8H,2H2,1H3/t3-,4-,5+,6+,7+/m0/s1
