20
gdb 108343	2.72367	1.58678	1.29689	1.4593	78.34	-0.225	0.0713	0.2963	1063.4283	0.171187	-403.06536	-403.057285	-403.056341	-403.097664	31.983	
C	-0.0343848269	 1.3910335284	 0.0072250473	-0.262525
O	 0.0131533758	-0.0226818179	-0.0004065279	-0.294252
C	 0.6447738248	-0.5528432549	-1.1242092744	 0.456424
C	-0.0678741586	-0.4653094806	-2.5107646491	-0.28916
C	 0.0385833513	-2.0187218744	-2.647238808	-0.227151
C	 0.7346192698	-2.0976444489	-1.2560571248	-0.097496
C	 2.2763182129	-1.9769836108	-1.2137575856	-0.056485
N	 2.6945857536	-1.1121630445	-2.3469147998	-0.335909
C	 2.2042696962	-0.494605995	-1.0944671621	-0.13541
H	 0.9704836586	 1.8381336938	-0.0053512105	 0.105055
H	-0.5967060677	 1.785208047	-0.8511604948	 0.112971
H	-0.5400223042	 1.6897932535	 0.9282778047	 0.126679
H	-1.0967033499	-0.1104841514	-2.4077664172	 0.097918
H	 0.4470483904	 0.1116299501	-3.2798789724	 0.105783
H	-0.9280664181	-2.5260603362	-2.6764077486	 0.094037
H	 0.6522071814	-2.3600132085	-3.4810538012	 0.113095
H	 0.2999103061	-2.7281780639	-0.4814056738	 0.077152
H	 2.977735794	-2.6804205042	-0.7812437119	 0.089518
H	 3.7127038502	-1.0644168129	-2.3306693545	 0.23004
H	 2.8200452703	 0.1974915916	-0.5319372854	 0.089714
121.7804	163.6755	187.8115	200.4773	292.2113	347.0787	375.0659	445.516	546.9094	624.3885	694.0871	732.6383	793.9258	799.7842	829.7312	873.5137	925.2305	932.0823	943.9356	972.4943	1004.8386	1051.4623	1071.0144	1088.8868	1101.497	1130.4838	1139.7673	1151.4492	1183.3456	1214.1149	1223.5223	1235.5112	1250.5133	1268.8322	1285.5572	1316.4995	1329.4943	1374.6302	1452.6196	1474.8667	1483.8162	1488.4648	1508.1447	2988.8488	3037.7681	3064.71	3074.8135	3118.0546	3122.5218	3127.518	3142.8994	3172.942	3186.3288	3474.2078
COC12CCC1C1NC21	CO[C@]12CC[C@H]1[C@H]1N[C@@H]21	
InChI=1S/C7H11NO/c1-9-7-3-2-4(7)5-6(7)8-5/h4-6,8H,2-3H2,1H3	InChI=1S/C7H11NO/c1-9-7-3-2-4(7)5-6(7)8-5/h4-6,8H,2-3H2,1H3/t4-,5+,6+,7+/m0/s1
