13
gdb 123703	4.18045	1.65549	1.29488	4.8778	64.14	-0.2314	-0.0458	0.1855	897.6785	0.090332	-452.679213	-452.673123	-452.672179	-452.709568	24.238	
C	 0.0025371791	 1.4771340134	 0.0998375977	-0.315227
C	 1.2971882704	 0.7350866858	 0.0323858869	 0.086062
O	 1.9993307107	 0.4360552888	 1.2444792775	-0.255423
C	 1.1506440085	-0.3866453083	 1.9112072551	 0.333162
C	 0.0194029239	-0.7391000172	 1.2527690178	 0.326146
O	-0.6779913827	-1.5690389577	 1.997836609	-0.240267
N	 0.1445640407	-1.716442762	 3.2436932425	-0.040778
N	 1.1743877164	-0.9949572017	 3.1144252356	-0.209582
C	-0.0438073691	-0.0446587343	-0.0404395976	-0.227714
H	-0.3134597959	 1.9149995857	 1.0396486484	 0.146518
H	-0.2583912019	 2.0481057954	-0.7844159728	 0.138117
H	 1.9740753158	 0.8511423939	-0.8033174993	 0.129971
H	-0.4240028858	-0.5111892118	-0.9401287307	 0.129014
158.207	278.4333	387.9178	403.2431	457.9189	479.6447	616.0514	657.6664	704.3751	739.5924	763.8038	792.0161	824.6024	934.7732	960.7665	990.8634	1036.1432	1057.59	1080.1347	1129.1186	1178.1933	1198.8619	1284.0603	1342.1936	1381.0442	1438.8804	1463.0177	1504.5747	1623.6574	3141.1622	3196.1132	3211.8782	3234.4786
C1C2OC3=C(ON=N3)C12	C1[C@H]2Oc3c(onn3)[C@@H]12	
InChI=1S/C5H4N2O2/c1-2-3(1)8-5-4(2)9-7-6-5/h2-3H,1H2	InChI=1S/C5H4N2O2/c1-2-3(1)8-5-4(2)9-7-6-5/h2-3H,1H2/t2-,3+/m0/s1
