17
gdb 51961	5.43784	0.7047	0.65597	2.2351	72.47	-0.2558	-0.0439	0.2119	1653.3682	0.135516	-455.159814	-455.150637	-455.149693	-455.19571	31.662	
O	-0.1904965603	 0.1504792162	 0.8205119245	-0.326419
C	-0.0840737069	 1.2593757488	 0.338696726	 0.15533
N	 1.0975207171	 1.85504669	 0.0445748613	-0.285232
C	 2.3591914112	 1.1995885612	 0.2609991609	-0.235926
C	 3.488793625	 2.046338524	-0.2928380271	 0.36922
O	 3.2831120019	 3.139689788	-0.7852697408	-0.345471
C	 4.8622483784	 1.4776243671	-0.1971390449	-0.105082
C	 5.7038058086	 1.5667323126	-1.4380582617	-0.215705
N	 5.9927486608	 2.4140253484	-0.293423807	-0.298845
H	-0.9496953168	 1.9032252705	 0.0888623132	 0.081955
H	 1.1410310174	 2.7716421803	-0.3778999852	 0.264754
H	 2.5485381612	 1.0193076512	 1.3299513335	 0.152585
H	 2.3815401976	 0.2063695666	-0.2090779805	 0.155194
H	 5.0006287047	 0.6373246305	 0.4766006485	 0.110008
H	 6.4221492126	 0.7755644825	-1.6310352152	 0.135055
H	 5.2386871971	 2.0101815471	-2.3139015907	 0.137045
H	 5.5978530904	 3.3396859949	-0.4637937848	 0.251535
22.3616	74.8996	107.1522	119.5067	225.8932	269.8651	298.0527	309.5282	374.1321	568.7101	577.9499	663.8533	782.0342	836.0581	865.5754	911.5587	955.4177	991.7414	1023.9226	1036.0415	1043.9876	1111.0971	1125.9947	1144.6685	1181.9022	1229.3396	1231.1028	1286.9913	1318.9326	1348.54	1414.4708	1423.6699	1476.7599	1495.6596	1517.4227	1774.0878	1803.5412	2947.413	3005.8948	3031.5005	3115.3352	3159.0452	3210.3164	3467.6191	3605.0652
O=CNCC(=O)C1CN1	O=CNCC(=O)[C@H]1CN1	
InChI=1S/C5H8N2O2/c8-3-6-2-5(9)4-1-7-4/h3-4,7H,1-2H2,(H,6,8)	InChI=1S/C5H8N2O2/c8-3-6-2-5(9)4-1-7-4/h3-4,7H,1-2H2,(H,6,8)/t4-/m1/s1
