24
gdb 6984	2.29397	2.10914	1.50792	0.0658	83.8	-0.2896	0.072	0.3616	1016.99	0.223818	-314.301233	-314.292034	-314.29109	-314.334217	35.853	
C	-0.3571378157	 1.4605157881	-0.014181963	-0.423435
C	-0.006939935	-0.0272449619	 0.0035323165	 0.050186
C	 0.8773166179	-0.4752231801	-1.183755929	-0.221002
C	 1.6264867631	-1.749309073	-0.7036073443	-0.218622
C	 1.1949505562	-1.9518089398	 0.7675653593	-0.220564
C	 0.7315908165	-0.5625034799	 1.2669632905	 0.298064
C	 1.9506775436	 0.3024090049	 1.6399473881	-0.422585
C	-0.1991773511	-0.6759004543	 2.4800505056	-0.440571
H	 0.5414375127	 2.0863792023	-0.0079004998	 0.114256
H	-0.9237103041	 1.7134978436	-0.9169431268	 0.110353
H	-0.9712999384	 1.7455799471	 0.8468871912	 0.110618
H	-0.9493784404	-0.5913669536	-0.0520871874	 0.06114
H	 0.2782889475	-0.6537542971	-2.0817874666	 0.092233
H	 1.587858619	 0.3179122644	-1.4426313543	 0.093278
H	 1.386796185	-2.624369128	-1.3139822814	 0.094166
H	 2.7092938153	-1.6104980905	-0.777615453	 0.097648
H	 0.3477408873	-2.6467181027	 0.8160917802	 0.087353
H	 1.9891429064	-2.3766990695	 1.3902055501	 0.085383
H	 2.6449951419	 0.4254325186	 0.8026773616	 0.110837
H	 1.6496376232	 1.3016903657	 1.9698842174	 0.111417
H	 2.5065106151	-0.1608525516	 2.4625529543	 0.107899
H	 0.3152319606	-1.1383260749	 3.330171087	 0.107318
H	-0.5537926311	 0.3068960918	 2.8102210079	 0.108943
H	-1.0778139953	-1.2887359597	 2.2492224759	 0.105686
85.1074	143.0146	214.4451	227.7789	246.6199	267.9247	281.5322	343.4603	356.2381	410.6856	500.0408	546.6315	623.5558	692.0876	777.7549	833.6774	882.0309	899.2861	934.3846	948.6697	961.0934	985.6121	1005.8977	1027.6819	1072.7589	1086.7578	1111.9285	1145.9336	1195.2862	1231.2231	1249.9265	1256.4855	1276.4949	1309.6244	1330.4075	1336.021	1359.5879	1378.1173	1399.8438	1407.8227	1423.1589	1480.9646	1482.8077	1489.5422	1495.5607	1498.5548	1503.1997	1508.8553	1512.2027	1516.4235	2989.3195	3019.6956	3025.9668	3028.3334	3032.8991	3036.505	3053.5702	3067.5676	3075.4733	3085.3508	3088.5036	3091.3583	3094.6274	3095.9228	3100.9151	3103.9665
CC1CCCC1(C)C	C[C@H]1CCCC1(C)C	
InChI=1S/C8H16/c1-7-5-4-6-8(7,2)3/h7H,4-6H2,1-3H3	InChI=1S/C8H16/c1-7-5-4-6-8(7,2)3/h7H,4-6H2,1-3H3/t7-/m0/s1
