19
gdb 103694	2.26292	1.33544	0.98587	0.9719	78.91	-0.2406	0.0317	0.2723	1242.7825	0.15514	-422.968553	-422.958214	-422.95727	-423.003366	38.494	
C	-0.0663361382	 1.5643818094	 0.1218625858	-0.472326
C	-0.0673955574	 0.0499939302	 0.0375076971	 0.266079
C	-1.3453129388	-0.5479342077	-0.5310807337	-0.141226
O	-1.5453308132	-0.2140183832	-1.8974343931	-0.41662
C	 1.2276940115	-0.6599371721	-0.2750301916	-0.373789
C	 0.6515962937	-0.7230066301	 1.1347563432	 0.155818
O	 1.2557024276	 0.0762292256	 2.1209716732	-0.451085
C	 0.1271535411	-1.9709899348	 1.6301982024	 0.317315
C	-0.2655706401	-3.0157663315	 2.0800890288	-0.479629
H	 0.8356958268	 1.9374126495	 0.6069677214	 0.141197
H	-0.1162863882	 2.0000010961	-0.8828066539	 0.110531
H	-0.9281780165	 1.9254769334	 0.6950153424	 0.119146
H	-1.3026465381	-1.6388987567	-0.4938696183	 0.117849
H	-2.2026880302	-0.2340045146	 0.0850259491	 0.092459
H	-1.7430458932	 0.7258059358	-1.9493880613	 0.285157
H	 1.193011958	-1.5545878068	-0.8867291795	 0.125922
H	 2.122980423	-0.0565954928	-0.3829525945	 0.116504
H	 1.9934713645	-0.4248740917	 2.4865258708	 0.288517
H	-0.6270111323	-3.933684728	 2.473211512	 0.198181
72.301	122.3055	125.5327	188.3255	208.9737	259.2235	289.0269	302.1045	321.4104	358.9411	375.5885	423.1675	472.5855	557.1975	587.9667	633.8395	677.528	708.9639	733.5436	883.8859	906.8373	935.3174	970.7529	991.4902	1044.1165	1062.8806	1101.8077	1114.9638	1187.858	1227.6197	1306.0256	1310.2395	1379.7891	1393.674	1409.6402	1426.446	1472.3175	1493.8283	1499.7239	1506.2984	2226.9605	2982.4655	3028.0583	3084.1997	3103.3224	3130.572	3146.6625	3224.4926	3501.3013	3798.301	3828.3747
CC1(CO)CC1(O)C#C	C[C@@]1(CO)C[C@]1(O)C#C	
InChI=1S/C7H10O2/c1-3-7(9)4-6(7,2)5-8/h1,8-9H,4-5H2,2H3	InChI=1S/C7H10O2/c1-3-7(9)4-6(7,2)5-8/h1,8-9H,4-5H2,2H3/t6-,7+/m0/s1
