15
gdb 47625	3.0027	1.38972	0.97496	3.1922	77.91	-0.2431	-0.0679	0.1752	1146.3513	0.111616	-420.612051	-420.604007	-420.603063	-420.644823	29.916	
O	-0.00417881	-0.0086753046	 0.1915507344	-0.297908
C	-0.0022536791	 1.1855456693	 0.0052963132	 0.295352
C	-1.3039120307	 1.9771527052	-0.1181675191	-0.188585
O	-1.174078998	 3.1461574188	-0.9008193088	-0.237359
C	-0.1825196161	 4.0223158118	-0.417253156	-0.126565
C	 1.1306919201	 3.3472967779	-0.1694211578	-0.159094
C	 1.2458637092	 2.0104157516	-0.031525872	 0.01716
C	 2.4941227596	 1.3557047409	 0.1539493915	 0.252325
C	 3.5465212432	 0.7921074229	 0.3044334793	-0.389031
H	-2.0557117913	 1.3450121766	-0.5944637617	 0.144755
H	-1.6550781667	 2.2132851545	 0.9033076005	 0.115502
H	-0.0640103128	 4.8056148786	-1.1743898528	 0.135761
H	-0.5152614172	 4.5285325975	 0.5108318007	 0.11439
H	 2.0098948892	 3.9821093283	-0.1006573708	 0.123401
H	 4.4711149508	 0.2876603307	 0.4397724295	 0.199895
80.3563	139.8956	159.0397	260.7396	304.0364	361.0278	429.5636	440.2749	506.4894	575.679	611.0914	649.4726	651.7465	689.9798	767.0035	858.9975	922.134	999.531	1016.7819	1034.4886	1112.0005	1178.5212	1225.2648	1249.4668	1298.1445	1352.5041	1355.8722	1405.1098	1465.5631	1477.5786	1664.7354	1800.76	2232.2314	2913.986	2945.2004	3062.4315	3119.1808	3173.6165	3503.1904
O=C1COCC=C1C#C	O=C1COCC=C1C#C	
InChI=1S/C7H6O2/c1-2-6-3-4-9-5-7(6)8/h1,3H,4-5H2	InChI=1S/C7H6O2/c1-2-6-3-4-9-5-7(6)8/h1,3H,4-5H2
