17
gdb 16115	4.22529	1.63273	1.43154	4.4897	72.62	-0.2754	0.0352	0.3106	909.2038	0.144996	-326.752831	-326.745962	-326.745018	-326.78369	26.926	
N	 0.0379235479	-1.1377548795	-0.3527205178	-0.351233
C	 0.0305835758	 0.0037489325	-0.1607223018	 0.197307
C	 0.0122247287	 1.4157512769	 0.0885824306	 0.20951
C	 0.252578536	 2.365384495	-1.0765749	-0.323737
C	 1.2885558	 2.2563147492	 0.0035614626	-0.059319
C	 1.2513615788	 3.2612508322	 1.1439032903	-0.216955
C	-0.2355025999	 3.3396871117	 1.5616807614	-0.237057
C	-0.8212771079	 1.9415810585	 1.2599836239	-0.271695
H	 0.4819339179	 1.9074409023	-2.0313729382	 0.137488
H	-0.3707602539	 3.2507353793	-1.1436429163	 0.124022
H	 2.2279773657	 1.7762294826	-0.244212954	 0.109494
H	 1.8644589222	 2.8846437244	 1.9705209725	 0.112433
H	 1.6545711201	 4.2388975886	 0.8603847215	 0.10882
H	-0.3588500291	 3.6172876807	 2.6109775401	 0.110612
H	-0.7548138783	 4.1023319979	 0.9737800144	 0.11251
H	-1.8915492311	 1.9718863635	 1.0354444228	 0.115546
H	-0.6855652828	 1.2698997842	 2.114111468	 0.122254
142.6164	164.5557	247.0408	305.108	387.069	487.6545	556.3341	575.2815	622.9819	672.1776	810.9219	818.5411	883.7277	890.7768	929.2942	945.2954	981.2623	1000.0253	1055.5375	1078.8692	1083.9137	1113.8478	1181.4375	1201.5063	1249.2938	1254.6869	1275.4463	1322.8525	1339.1759	1345.364	1400.2053	1481.9892	1491.2183	1496.9654	1519.1277	2347.3126	3040.8837	3050.5591	3059.1521	3081.3267	3091.5485	3110.6015	3139.4179	3184.3582	3228.7641
N#CC12CC1CCC2	N#C[C@]12C[C@H]1CCC2	
InChI=1S/C7H9N/c8-5-7-3-1-2-6(7)4-7/h6H,1-4H2	InChI=1S/C7H9N/c8-5-7-3-1-2-6(7)4-7/h6H,1-4H2/t6-,7+/m1/s1
