21
gdb 100008	2.48056	1.19074	0.99992	2.5608	75.28	-0.2581	-0.0335	0.2247	1288.3099	0.177877	-461.366006	-461.355175	-461.354231	-461.401693	39.211	
C	-0.0978251261	 1.3176552481	 0.1758714252	-0.247043
O	 0.0520180391	-0.0700811042	-0.0340892903	-0.288994
C	 0.7179400567	-0.4903025147	-1.2306260757	 0.332752
C	-0.0464076464	-0.067200611	-2.4905021793	-0.435655
C	 2.1764054446	-0.0160611519	-1.2810721279	-0.435134
C	 0.658538857	-2.0432470818	-1.1094297843	 0.030633
O	 1.2136603551	-2.6679173047	-2.2327544486	-0.43892
C	 1.3456639468	-2.5368277274	 0.1501178594	 0.130544
O	 2.2205753741	-3.3706560658	 0.0946270927	-0.275797
H	 0.8663996878	 1.8395523326	 0.2430547302	 0.111097
H	-0.7010134235	 1.7977823841	-0.6060902529	 0.11267
H	-0.6180974914	 1.4305693965	 1.1303246405	 0.129887
H	 0.041729373	 1.007221962	-2.6747854828	 0.112605
H	 0.3585538202	-0.5946898117	-3.3568635621	 0.148266
H	-1.106857733	-0.3192907828	-2.3933433068	 0.118942
H	 2.6809157003	-0.1950984419	-0.3263226887	 0.121745
H	 2.7059147976	-0.5670601909	-2.0620744669	 0.139771
H	 2.2478243296	 1.0500470799	-1.5123111014	 0.116449
H	-0.4099546762	-2.3002935052	-1.0006708508	 0.099102
H	 1.8853849416	-3.2754398688	-1.8806610414	 0.295337
H	 1.000101673	-2.1051866704	 1.1044197121	 0.121742
71.1133	83.0305	112.3802	180.4824	184.9756	240.3406	253.0685	276.2655	309.0285	317.095	347.4529	383.3049	424.8006	459.455	507.263	578.7965	713.0799	773.1369	839.5435	899.5978	921.4808	979.103	999.9111	1032.1222	1102.327	1165.9254	1179.862	1185.0753	1200.4586	1215.575	1267.7453	1295.8922	1327.7864	1378.4571	1387.7648	1407.217	1440.4054	1477.8574	1479.612	1483.9798	1499.9551	1500.3425	1510.0253	1514.99	1800.3415	2956.9055	2999.7355	3003.3146	3040.0725	3046.1328	3054.6189	3111.0581	3111.5054	3115.7631	3129.2584	3136.3394	3665.7763
COC(C)(C)C(O)C=O	COC(C)(C)[C@@H](O)C=O	
InChI=1S/C6H12O3/c1-6(2,9-3)5(8)4-7/h4-5,8H,1-3H3	InChI=1S/C6H12O3/c1-6(2,9-3)5(8)4-7/h4-5,8H,1-3H3/t5-/m0/s1
