18
gdb 8298	7.23202	0.92184	0.86948	3.0691	69.89	-0.2411	-0.02	0.2211	1329.8643	0.151249	-384.944034	-384.93541	-384.934466	-384.97798	30.865	
C	-0.2355322311	 1.4240433407	-0.142364479	-0.3854
C	 0.1818928918	-0.0355146341	-0.0922086137	-0.042153
O	 0.3816824025	-0.3991890388	 1.2634708367	-0.250134
C	 0.7509936046	-1.7367754873	 1.4403880267	 0.141836
C	 2.2343979607	-2.1259471931	 1.1144728979	-0.372343
C	 2.3098649387	-2.7345493129	 2.5242220334	 0.396064
O	 3.0717274153	-3.4824760678	 3.0637148766	-0.287319
C	 0.9712419114	-2.100745178	 2.9306387751	-0.371224
H	 0.5401886823	 2.0604736136	 0.2926969687	 0.127942
H	-0.4016070767	 1.7370004036	-1.1773482513	 0.117461
H	-1.1602869158	 1.577920092	 0.4207397382	 0.129024
H	-0.5933294734	-0.6780492203	-0.5420431558	 0.089883
H	 1.1070631946	-0.1935686894	-0.6697359721	 0.091882
H	 0.0377411302	-2.4097659869	 0.9427434304	 0.076084
H	 2.4424393247	-2.7973992709	 0.2783529481	 0.126465
H	 2.8684903143	-1.235965414	 1.0323237951	 0.137135
H	 1.1207375895	-1.1955210407	 3.5290693665	 0.14455
H	 0.2441860064	-2.7452665657	 3.4287652386	 0.130244
51.1152	86.252	98.1774	177.4475	245.8596	330.6363	368.2071	422.0544	457.3946	497.8762	654.3158	671.9898	763.8127	821.4962	892.8584	907.8359	945.6004	996.9767	1041.5117	1075.7267	1105.3592	1144.1933	1159.2948	1175.9057	1188.0914	1221.3719	1238.1127	1279.5014	1296.9929	1367.5347	1403.7191	1415.4383	1430.1231	1448.2426	1483.4366	1499.8865	1528.3867	1896.4257	2962.3685	2990.5772	2998.27	3046.1076	3052.3189	3061.3289	3120.2336	3121.2178	3122.8646	3126.108
CCOC1CC(=O)C1	CCOC1CC(=O)C1	
InChI=1S/C6H10O2/c1-2-8-6-3-5(7)4-6/h6H,2-4H2,1H3	InChI=1S/C6H10O2/c1-2-8-6-3-5(7)4-6/h6H,2-4H2,1H3
