18
gdb 35755	3.10103	1.47793	1.32185	2.6293	76.24	-0.2166	0.0419	0.2585	1022.7927	0.149336	-401.881449	-401.873907	-401.872963	-401.913301	30.292	
C	-0.0196389049	-1.229148561	-0.3339477118	-0.45699
C	-0.0172697294	-0.0467195441	-0.1221388271	 0.389858
C	-0.0008509291	 1.4020709769	 0.0956812875	-0.214966
N	-0.6547569047	 1.7783848924	 1.3734365742	-0.299913
C	 0.2870627432	 1.9641818529	 2.4939105289	-0.169227
C	 1.6620985732	 2.4146247676	 1.9972256317	 0.096309
C	 1.5445237282	 3.3088381504	 0.7440463825	-0.266442
C	 1.4514595041	 1.9346899067	 0.0512097281	 0.094292
O	 2.1714800107	 1.3327809599	 1.1583247104	-0.287541
H	-0.0242548637	-2.2767897092	-0.5065674027	 0.194001
H	-0.5734037541	 1.8771785965	-0.7119001579	 0.102604
H	-1.1617718598	 2.6406148421	 1.222719479	 0.223404
H	-0.1481782163	 2.6862703492	 3.193181271	 0.099354
H	 0.4198003799	 1.0164145435	 3.0296133631	 0.124583
H	 2.3564637738	 2.6821833767	 2.7984704065	 0.077979
H	 0.7018656764	 3.9998774981	 0.6645838326	 0.089966
H	 2.4801270107	 3.8182986459	 0.5121226808	 0.115551
H	 1.937839192	 1.7616939855	-0.9118757467	 0.087178
98.2136	140.2602	264.985	300.5972	386.1092	415.0671	443.3666	548.7943	593.4441	621.7871	652.2322	687.2079	729.1628	813.6924	836.3272	857.5731	905.0293	906.8478	949.3943	971.8652	1009.2967	1028.7902	1070.4294	1093.7066	1103.8688	1160.6258	1204.2436	1240.9035	1251.0295	1274.5006	1315.3378	1332.6479	1341.9727	1359.3166	1389.4063	1477.5909	1483.9575	1489.591	2239.331	3020.1852	3030.7423	3068.3029	3075.0335	3080.0454	3085.5883	3138.8458	3504.992	3558.5022
C#CC1NCC2CC1O2	C#C[C@H]1NC[C@@H]2C[C@H]1O2	
InChI=1S/C7H9NO/c1-2-6-7-3-5(9-7)4-8-6/h1,5-8H,3-4H2	InChI=1S/C7H9NO/c1-2-6-7-3-5(9-7)4-8-6/h1,5-8H,3-4H2/t5-,6+,7+/m0/s1
