22
gdb 122555	5.13512	0.70347	0.67955	1.7379	83.1	-0.2321	0.0754	0.3075	1756.2536	0.193715	-404.29484	-404.28539	-404.284446	-404.330157	34.582	
C	 0.1546744802	 1.4208466185	 0.1945416602	-0.382929
C	-0.1555527996	-0.0371737428	-0.1525768847	-0.182377
C	 0.7571541403	-0.5833774628	-1.2414275889	-0.041976
O	 0.408202313	-1.9325169512	-1.4938389541	-0.259611
C	 1.1799683564	-2.5343242176	-2.4986602191	 0.1329
C	 2.6203559016	-3.0349941947	-2.1718300071	-0.203522
N	 2.2674918118	-4.4460865066	-2.5647152888	-0.128989
C	 1.1983765376	-4.8450954409	-1.6353224347	-0.229617
C	 0.8275161827	-3.984040212	-2.7745636662	-0.06663
H	 1.1815738539	 1.5354397564	 0.5588572338	 0.116564
H	 0.0382190041	 2.0734402762	-0.6778183596	 0.116797
H	-0.5165266363	 1.7894824134	 0.9754046258	 0.118483
H	-0.0527630122	-0.670045143	 0.7363700337	 0.106423
H	-1.1942961388	-0.1367782003	-0.4876538275	 0.107945
H	 0.655539553	 0.013774889	-2.1644297086	 0.084696
H	 1.8122115589	-0.5102860256	-0.9272519473	 0.087019
H	 1.1688472515	-1.9203552644	-3.410738688	 0.073106
H	 3.3945199104	-2.638991425	-2.8318052496	 0.110144
H	 2.9389655438	-2.935725053	-1.1287602971	 0.10539
H	 0.9433023749	-5.8975655212	-1.7102930778	 0.12069
H	 1.1879361983	-4.438406374	-0.627052318	 0.120896
H	 0.2277599646	-4.3380208683	-3.6061711965	 0.094596
54.0463	69.0591	99.5921	138.3152	195.6606	234.4628	302.9904	338.5994	419.3608	473.744	568.7367	720.1821	759.7163	765.2933	791.1199	872.6105	901.1031	908.8814	962.1848	990.0418	997.4164	1031.7124	1056.745	1064.6314	1088.0111	1110.5422	1121.2366	1147.9893	1172.2391	1192.5068	1207.3791	1228.4837	1267.5979	1272.6886	1299.3829	1315.3976	1332.7788	1373.0448	1385.4539	1413.0957	1446.8865	1482.8972	1492.1021	1500.8217	1504.1669	1507.4608	1526.4957	2949.016	2976.7658	2998.8822	3032.214	3039.5468	3047.1801	3072.1588	3100.3778	3109.1233	3111.2304	3116.2175	3169.732	3203.8035
CCCOC1CN2CC12	CCCO[C@H]1CN2C[C@@H]12	
InChI=1S/C7H13NO/c1-2-3-9-7-5-8-4-6(7)8/h6-7H,2-5H2,1H3	InChI=1S/C7H13NO/c1-2-3-9-7-5-8-4-6(7)8/h6-7H,2-5H2,1H3/t6-,7-,8?/m0/s1
