19
gdb 36445	3.41699	1.00215	0.84704	1.5508	81.36	-0.2557	0.0515	0.3072	1371.3816	0.157538	-385.824412	-385.81551	-385.814566	-385.858428	33.563	
C	 0.0569170138	-1.2414838304	-0.1283289998	-0.437068
C	-0.0134655838	-0.0474963259	-0.0087405775	 0.301456
C	-0.0626124878	 1.4033336593	 0.1322707231	-0.395968
C	 1.3239967705	 2.0521118801	 0.0733699857	-0.050852
C	 2.1054571761	 2.0699986027	-1.275331938	-0.231265
C	 2.5383691653	 3.5390243832	-0.9863455109	-0.323932
C	 1.4364393964	 3.5826082734	 0.0737570921	 0.446256
C	 0.3848246886	 4.5862100733	 0.2559582075	-0.266638
O	 1.4300957757	 4.4034592184	 1.2236193126	-0.272704
H	 0.1064508425	-2.2970167546	-0.2310440073	 0.194928
H	-0.6961454193	 1.827450513	-0.6579114447	 0.12564
H	-0.5430149884	 1.6615475716	 1.0855423795	 0.137143
H	 1.9535048573	 1.6438356025	 0.8711700666	 0.098126
H	 2.8984289138	 1.3311816799	-1.3934997849	 0.111833
H	 1.4302744761	 2.0020078194	-2.1327819292	 0.107527
H	 3.530177008	 3.5978901103	-0.5287885496	 0.11832
H	 2.4825397834	 4.2591581182	-1.8056644703	 0.10698
H	 0.4274406247	 5.5177651821	-0.3076369395	 0.114542
H	-0.6106052829	 4.2918874436	 0.5863188846	 0.115676
65.0021	102.0486	108.7924	203.6739	262.9215	336.4587	355.2212	369.1149	480.0868	508.3102	551.6889	620.8778	638.0467	744.1863	795.0906	849.4713	876.9536	893.797	904.2999	940.0812	964.4158	991.0035	1084.2598	1096.2613	1121.6851	1131.1927	1158.6688	1168.775	1214.2938	1226.7748	1250.9192	1266.2384	1277.4715	1322.0761	1378.2631	1426.6447	1471.1641	1478.3234	1498.5641	1537.1966	2238.4196	3013.1465	3042.1132	3059.212	3062.9535	3069.1719	3078.2055	3113.1669	3133.7165	3163.3179	3507.238
C#CCC1CCC11CO1	C#CC[C@H]1CC[C@]21CO2	
InChI=1S/C8H10O/c1-2-3-7-4-5-8(7)6-9-8/h1,7H,3-6H2	InChI=1S/C8H10O/c1-2-3-7-4-5-8(7)6-9-8/h1,7H,3-6H2/t7-,8+/m0/s1
