21
gdb 104647	2.55897	1.21888	0.98356	2.8099	79.24	-0.2413	-0.0301	0.2112	1301.9451	0.179354	-424.232586	-424.222459	-424.221515	-424.268194	36.463	
C	-0.539854798	 1.4087812682	-0.2564023122	-0.394792
C	-0.0413948649	-0.0341847793	-0.1238826796	-0.23445
C	 0.8919276908	-0.4472157014	-1.2546206287	 0.338219
C	 1.0954653277	-1.9737804164	-1.4883671916	-0.367994
C	 0.4843420067	-1.7088442844	-2.8810208364	 0.162829
C	-0.8151067068	-2.4005906808	-3.2390190115	-0.39918
O	 0.2989863665	-0.3020624763	-2.5697369848	-0.339306
C	 2.2284524054	 0.2835168807	-1.2114417551	 0.123416
O	 2.7593329746	 0.6852231981	-0.208589322	-0.254463
H	 0.2851128873	 2.1225656857	-0.1760235032	 0.131178
H	-1.0308236782	 1.5572274033	-1.222300765	 0.133213
H	-1.2600262567	 1.6418686863	 0.5329765019	 0.113298
H	 0.5020162644	-0.1655169082	 0.8185917797	 0.119482
H	-0.8929368717	-0.7234470306	-0.1119111309	 0.093254
H	 2.1273309632	-2.3299329379	-1.4795397517	 0.118298
H	 0.4941123668	-2.5998830593	-0.8258581457	 0.118157
H	 1.2080111569	-1.8196736625	-3.6993977202	 0.080601
H	-1.5409099542	-2.3141816864	-2.4247073603	 0.121972
H	-1.2510884829	-1.9515857969	-4.1368848984	 0.131376
H	-0.6384168013	-3.4632744777	-3.4390762028	 0.119056
H	 2.6968538144	 0.3973485359	-2.2162284717	 0.085836
52.7311	70.9882	96.6163	188.0608	199.9928	230.413	236.6252	278.1392	341.7229	364.8568	414.1773	471.1108	528.3647	696.8717	775.8176	794.406	879.745	894.1383	903.0766	940.0161	963.5133	977.9337	1043.7293	1051.4244	1081.4	1107.2425	1140.5395	1183.9343	1193.9647	1251.0722	1263.6279	1310.2508	1325.6942	1359.1748	1387.9657	1401.2516	1405.0717	1410.5818	1467.2939	1481.8491	1488.8128	1494.3532	1498.8071	1509.094	1827.3852	2872.7454	3012.2793	3033.4182	3038.7152	3045.2719	3073.0426	3080.8082	3106.2042	3114.3513	3114.9812	3122.9829	3128.7261
CCC1(CC(C)O1)C=O	CC[C@]1(C[C@@H](C)O1)C=O	
InChI=1S/C7H12O2/c1-3-7(5-8)4-6(2)9-7/h5-6H,3-4H2,1-2H3	InChI=1S/C7H12O2/c1-3-7(5-8)4-6(2)9-7/h5-6H,3-4H2,1-2H3/t6-,7+/m1/s1
