17
gdb 83859	2.1379	1.86173	1.32962	2.8112	68.03	-0.2303	-0.0215	0.2088	997.2677	0.136821	-458.956759	-458.949014	-458.94807	-458.989118	29.856	
O	 0.0713494409	 1.354550126	 0.0569915896	-0.40847
C	 0.0052829182	-0.0358394887	-0.0133021613	 0.079752
C	-1.3501101388	-0.6567818618	 0.0578862735	-0.106932
C	-2.5900028752	 0.2359603864	 0.0728091204	-0.104959
O	-3.1549603608	 0.4209717669	-1.2153574066	-0.24023
C	-2.2483496922	 1.0166410857	-2.1217818323	-0.186551
C	-1.031606054	 0.13148192	-2.3909100815	 0.376177
O	-0.4823013366	 0.1172323538	-3.4702235902	-0.322593
C	-0.5713930352	-0.7198013553	-1.254180669	-0.191013
H	 0.8200341856	 1.6507534784	-0.4722561479	 0.301823
H	 0.8271318128	-0.5591602836	 0.4733021267	 0.103839
H	-1.4274809981	-1.5847021973	 0.6140898771	 0.104978
H	-3.3721879303	-0.2357433665	 0.6715441193	 0.114896
H	-2.3494583042	 1.2096962704	 0.5223687398	 0.116839
H	-2.7757974498	 1.1700650546	-3.0657824105	 0.133792
H	-1.8958616811	 1.9945472972	-1.7524457949	 0.115504
H	-0.0980667112	-1.6467438862	-1.5585497722	 0.113148
77.7827	143.5412	209.5523	314.8107	349.3328	386.2871	424.3401	461.3826	487.364	569.6604	635.4177	721.8027	747.2499	787.4808	862.8108	939.0758	944.6874	971.6613	1004.4562	1036.6361	1086.3435	1119.7005	1124.6835	1160.844	1225.7295	1228.1465	1260.0583	1288.1964	1328.5897	1344.8418	1359.9158	1371.5142	1410.7016	1452.9707	1462.3678	1497.3394	1802.6886	2971.99	3009.7677	3102.053	3111.8137	3113.52	3165.3341	3178.4749	3804.745
OC1C2COCC(=O)C12	O[C@H]1[C@H]2COCC(=O)[C@@H]12	
InChI=1S/C6H8O3/c7-4-2-9-1-3-5(4)6(3)8/h3,5-6,8H,1-2H2	InChI=1S/C6H8O3/c7-4-2-9-1-3-5(4)6(3)8/h3,5-6,8H,1-2H2/t3-,5-,6-/m0/s1
