15
gdb 132989	2.51481	1.81639	1.06157	3.4365	73.22	-0.2079	-0.0455	0.1624	1049.1011	0.11393	-458.128442	-458.120858	-458.119914	-458.160609	28.577	
C	-0.4223781123	 1.3717890157	 0.0256115969	-0.329223
N	 0.0113100081	-0.0183360817	-0.0045852937	-0.096773
C	 0.2290532487	-0.6831906149	-1.1820740395	 0.001481
C	 0.6323135888	-1.9756640166	-1.1906643507	-0.102892
N	 0.8381101466	-2.6683879262	-0.0163381264	-0.304071
C	 0.6323186524	-2.0390099356	 1.0705642775	 0.282551
F	 0.8202310192	-2.6736943846	 2.2251157535	-0.066491
C	 0.1969774782	-0.6471990305	 1.2294505642	 0.25398
N	-0.0128709253	-0.0033867789	 2.3189661757	-0.575276
H	 0.3073159717	 1.9781903023	 0.5687294905	 0.160363
H	-0.5285776022	 1.7340439351	-0.9971983189	 0.129137
H	-1.3738827285	 1.4536803361	 0.557604201	 0.1605
H	 0.0595744707	-0.1146733008	-2.087021482	 0.134625
H	 0.8065583774	-2.5083487062	-2.1150493997	 0.122925
H	 0.1700240266	-0.6119211431	 3.1137017716	 0.229162
100.7995	151.8719	208.4952	289.7645	327.7718	349.176	489.6328	499.3272	549.9689	575.8977	581.3999	724.6242	765.245	787.325	823.4153	872.6134	899.8877	967.4129	1062.2346	1150.4312	1154.6565	1202.5052	1253.0216	1307.1001	1364.0982	1391.6749	1446.6482	1463.7071	1469.5275	1515.8005	1612.5423	1657.4359	1694.7889	3053.4455	3117.1096	3154.9768	3215.2261	3234.0974	3523.9579
CN1C=CN=C(F)C1=N	CN1C=CN=C(F)[C@H]1[NH]	
InChI=1S/C5H6FN3/c1-9-3-2-8-4(6)5(9)7/h2-3,7H,1H3	InChI=1S/C5H7FN3/c1-9-3-2-8-4(6)5(9)7/h2-3,5,7H,1H3/t5-/m0/s1
