19
gdb 68962	2.53598	1.61097	1.21635	0.9647	87.74	-0.2224	0.0142	0.2366	1088.3477	0.158351	-348.727815	-348.719328	-348.718383	-348.760261	33.804	
C	-0.0376295276	 1.5116635528	-0.0133107822	-0.477796
C	 0.049353601	 0.005308882	-0.0170361399	 0.27861
C	-0.785855235	-0.7879274045	 0.9446896387	-0.352976
C	 0.73645315	-0.7782279108	 1.1274797617	 0.144642
C	 1.4305636299	-1.9212899531	 0.4510433953	-0.150816
C	 1.247060199	-1.902848439	-0.869184952	-0.084061
C	 0.4456643249	-0.7016674157	-1.3186311457	-0.332779
C	 1.3136818767	-0.1500679578	 2.2758161951	 0.193317
C	 1.8052218255	 0.3738712941	 3.2418207272	-0.424264
H	 0.878703022	 1.9600102971	-0.4126834123	 0.120845
H	-0.8756663016	 1.8559015163	-0.630646167	 0.11731
H	-0.1825622594	 1.8977432078	 0.9993081565	 0.128464
H	-1.3627071901	-0.2247842049	 1.670992496	 0.119115
H	-1.2316206228	-1.7257243187	 0.6285439538	 0.114371
H	 1.9814851847	-2.6661371305	 1.0124281462	 0.103674
H	 1.606566114	-2.6561415897	-1.560625135	 0.097714
H	-0.4338316726	-0.9867117381	-1.9107241881	 0.111525
H	 1.0452865542	-0.0397162358	-1.9590273953	 0.108307
H	 2.240242277	 0.8348500684	 4.0933477368	 0.184797
131.0912	137.9259	188.6169	216.7025	304.356	363.3029	379.5039	464.7667	500.0811	526.3795	559.0694	574.1518	649.1034	650.1395	732.2983	739.7968	775.1909	893.6568	915.5537	950.5026	958.3709	968.0146	979.2923	997.59	1068.7523	1081.8208	1098.6732	1154.6583	1188.5749	1241.9395	1255.8131	1317.0547	1369.3711	1380.359	1419.2515	1470.5368	1481.5503	1491.965	1499.6969	1673.332	2230.7312	3008.1109	3027.7849	3040.1543	3087.0369	3113.2461	3122.5587	3192.5771	3215.4744	3218.1613	3503.4876
CC12CC1(C=CC2)C#C	C[C@]12C[C@]1(C=CC2)C#C	
InChI=1S/C9H10/c1-3-9-6-4-5-8(9,2)7-9/h1,4,6H,5,7H2,2H3	InChI=1S/C9H10/c1-3-9-6-4-5-8(9,2)7-9/h1,4,6H,5,7H2,2H3/t8-,9+/m0/s1
