19
gdb 39640	4.59838	1.08318	0.91247	1.6574	79.1	-0.2073	0.0588	0.2661	1297.8158	0.161845	-419.209859	-419.201581	-419.200637	-419.243744	29.588	
C	 0.0199372125	 1.4837756432	-0.1613214389	-0.23931
C	 1.5414996036	 1.4565803226	 0.1554096469	-0.156418
N	 1.4201725854	 0.0180430634	 0.4269640577	-0.146075
C	-0.0520399133	 0.0264497705	 0.374722425	-0.166338
C	 2.1964970589	-0.6620179514	 1.3076102082	 0.490741
N	 3.3314900784	-0.2922389754	 1.7635491452	-0.373509
C	 3.8132301928	-1.405362694	 2.5858218767	-0.176311
C	 2.6217312507	-2.4003110202	 2.6420971695	-0.106399
O	 1.6797342664	-1.8679332601	 1.6873981222	-0.265178
H	-0.5664768652	 2.2195869753	 0.3887165412	 0.114824
H	-0.2053496088	 1.5693285196	-1.225170576	 0.117096
H	 2.2233115973	 1.6994520248	-0.6643822385	 0.117654
H	 1.8375586652	 2.0302172592	 1.0410101836	 0.120469
H	-0.523190478	-0.0692272959	 1.3598782506	 0.113105
H	-0.4795302706	-0.7257612829	-0.2942823628	 0.117883
H	 4.704101553	-1.8611160454	 2.134133144	 0.104924
H	 4.1027809545	-1.057720488	 3.5835883028	 0.105901
H	 2.8767883799	-3.4191377672	 2.3398570517	 0.116041
H	 2.1362238173	-2.433346378	 3.6233040008	 0.110901
80.6437	86.9352	103.7523	155.8905	165.7698	270.9537	443.4028	510.3918	724.2197	741.444	754.8579	841.9325	845.6697	859.0507	912.2298	938.7547	947.4964	970.1236	1011.7626	1034.3144	1112.7882	1124.3343	1142.3728	1147.5407	1173.718	1201.9712	1219.7298	1231.0849	1240.8882	1268.6162	1296.7035	1311.2038	1345.9719	1366.9824	1454.625	1492.3061	1511.6697	1512.6287	1530.0479	1535.7488	1734.7911	3013.6024	3031.3468	3039.8626	3040.5505	3054.9452	3081.329	3085.8883	3092.9371	3099.2981	3146.6967
C1CN(C1)C1=NCCO1	C1CN(C1)C1=NCCO1	
InChI=1S/C6H10N2O/c1-3-8(4-1)6-7-2-5-9-6/h1-5H2	InChI=1S/C6H10N2O/c1-3-8(4-1)6-7-2-5-9-6/h1-5H2
