21
gdb 126716	4.80397	0.83088	0.77801	2.16	87.14	-0.2245	0.0279	0.2524	1582.6743	0.18346	-383.306018	-383.296414	-383.29547	-383.342187	34.406	
C	-0.0643962981	 1.5837071842	-0.2305139205	-0.371394
C	-0.0212684491	 0.0911113038	 0.0993812453	-0.140172
N	-1.3330529135	-0.5319455452	 0.0467518859	 0.062964
C	-1.8467622016	-1.3237930609	-0.9288907226	-0.134384
C	-3.1520445307	-1.6200436297	-0.5810388414	 0.183347
C	-4.1323433065	-2.4926572666	-1.3098859729	-0.302388
C	-4.2417252486	-3.9111065513	-0.7233912331	-0.360694
C	-3.325202779	-0.9374400815	 0.6450450013	-0.076001
N	-2.2298039477	-0.2803734265	 1.0194152928	-0.272933
H	 0.9370315097	 2.0175467505	-0.1498999925	 0.117191
H	-0.4325584906	 1.749706195	-1.247356665	 0.123381
H	-0.727413458	 2.1021835708	 0.4659818296	 0.148686
H	 0.6219750724	-0.4474212484	-0.6025775252	 0.11612
H	 0.3779622117	-0.0648042921	 1.1057768181	 0.131115
H	-1.256273763	-1.614623325	-1.7845223213	 0.12371
H	-5.1230406341	-2.0220580539	-1.2939268817	 0.105481
H	-3.8464525446	-2.5597770916	-2.366022345	 0.098647
H	-3.2763971804	-4.4254921431	-0.7638380642	 0.115992
H	-4.5540595577	-3.8784623361	 0.3251209916	 0.119914
H	-4.9721237862	-4.51061288	-1.2766933584	 0.107728
H	-4.2075038743	-0.9028827922	 1.2692430592	 0.10369
29.0981	35.8569	110.3796	159.3944	189.7995	223.6466	294.9943	360.7446	405.864	426.258	599.8653	659.0457	694.3583	718.5188	782.9037	791.9624	797.1432	879.8185	958.1884	963.7493	1013.3835	1034.7179	1065.5172	1086.2633	1095.993	1115.0236	1187.8034	1222.4695	1273.3331	1286.1342	1344.1486	1369.8925	1387.9857	1400.7694	1407.9119	1411.1726	1423.6004	1475.0735	1483.9144	1486.7095	1488.5912	1495.6247	1507.1862	1508.4309	1606.9816	3026.6549	3033.3835	3044.2488	3058.3845	3059.6604	3100.1405	3104.2717	3109.8456	3117.5542	3136.248	3231.0374	3247.8751
CCN1C=C(CC)C=N1	CCn1cc(CC)cn1	
InChI=1S/C7H12N2/c1-3-7-5-8-9(4-2)6-7/h5-6H,3-4H2,1-2H3	InChI=1S/C7H12N2/c1-3-7-5-8-9(4-2)6-7/h5-6H,3-4H2,1-2H3
