21
gdb 95405	2.98876	1.17068	0.8809	1.1804	88.57	-0.2125	-0.0184	0.1942	1351.7756	0.18306	-387.105811	-387.09677	-387.095826	-387.139577	34.94	
C	 0.022767759	 1.5523426463	 0.2550177652	-0.478607
C	-0.0037461241	 0.0557694237	 0.0201678272	 0.286022
C	-1.1675695927	-0.609039066	 0.1292547188	-0.140621
C	-1.5081996094	-2.0596790962	-0.0763458051	-0.267164
C	-0.4622095163	-2.9872008963	-0.6972878075	-0.206723
C	 0.8773156508	-2.9885857089	 0.0504467476	 0.08283
O	 1.5440660871	-4.1989755562	-0.3001444885	-0.440565
C	 1.715621721	-1.7846667775	-0.295629346	-0.122904
C	 1.3114767567	-0.5095787854	-0.3134960678	-0.10974
H	 0.7128955681	 1.8146300067	 1.0665643934	 0.123244
H	 0.3749904756	 2.0834793591	-0.6384097665	 0.123382
H	-0.965819332	 1.940654839	 0.5109167881	 0.117544
H	-2.0344329209	-0.0117643369	 0.4108997529	 0.077765
H	-1.8304767187	-2.4714400679	 0.8926859389	 0.110733
H	-2.4109792228	-2.1023885062	-0.7021394747	 0.109129
H	-0.8483443825	-4.0114752401	-0.6883007836	 0.106967
H	-0.2817629289	-2.7192450175	-1.743010004	 0.108664
H	 0.6633763079	-2.9811202312	 1.1344055832	 0.07607
H	 2.3830281751	-4.2233185502	 0.1709060057	 0.279932
H	 2.7411147906	-2.0072285243	-0.5843518883	 0.083376
H	 2.0591151764	 0.235351716	-0.5810202994	 0.080666
45.1122	167.383	200.4619	266.0269	278.5468	281.7553	313.3672	335.929	361.4698	434.3964	469.5449	598.5244	627.2449	691.8085	747.4595	792.9491	854.2062	895.4918	911.7803	922.3388	994.049	1024.3696	1055.5064	1070.3312	1077.767	1086.0846	1121.346	1162.6304	1181.33	1243.573	1262.2383	1288.0577	1339.6973	1354.5676	1377.3638	1398.1074	1411.8214	1414.2523	1446.7023	1468.6857	1480.1159	1492.5026	1498.0479	1686.1752	1721.5564	2931.0288	2988.7026	3016.7607	3017.8934	3050.7958	3065.4908	3093.9719	3115.0241	3125.6082	3127.6629	3151.8367	3816.4429
CC1=CCCC(O)C=C1	CC1=CCC[C@@H](O)C=C1	
InChI=1S/C8H12O/c1-7-3-2-4-8(9)6-5-7/h3,5-6,8-9H,2,4H2,1H3	InChI=1S/C8H12O/c1-7-3-2-4-8(9)6-5-7/h3,5-6,8-9H,2,4H2,1H3/t8-/m1/s1
