16
gdb 54481	3.34694	1.44636	1.16428	4.4094	69.9	-0.2345	0.0068	0.2412	1035.5061	0.12642	-434.091186	-434.083579	-434.082635	-434.123316	29.677	
N	-0.0021133173	 1.1708100014	-0.5996287466	-0.55525
C	-0.0435061977	 0.0503842983	 0.2072188748	 0.308203
O	 0.8780712662	-0.2703892567	 0.9316409766	-0.357308
C	-1.2848818295	-0.7639652241	 0.1045449629	 0.241463
C	-1.9060391159	-1.3100319735	 1.3719652155	-0.311585
C	-1.3363478843	-2.2930495545	 0.3954284048	-0.034305
N	-2.2317641393	-2.8519629562	-0.5756572875	-0.223152
C	-2.6578883665	-1.8914507098	-1.3065912813	 0.03599
N	-2.2113951877	-0.6004309349	-1.0005765925	-0.386699
H	 0.785936256	 1.7777544196	-0.4223458188	 0.262995
H	-0.8668074512	 1.6450985833	-0.8127918823	 0.25907
H	-1.3255651044	-1.1359541668	 2.2702923491	 0.142627
H	-2.9845774879	-1.2433985058	 1.470375004	 0.12399
H	-0.4604688167	-2.8705687127	 0.6655317061	 0.120655
H	-3.3610782165	-2.0225429648	-2.1227243857	 0.130337
H	-1.8781559874	-0.059845043	-1.790087799	 0.242968
79.8081	156.5603	195.7492	344.4297	369.4464	410.2186	475.1619	507.9026	568.4305	581.0254	640.7877	647.0574	718.2609	761.3169	815.2792	870.5495	914.1493	926.5011	956.2078	1036.6105	1064.2511	1080.5695	1102.8187	1119.024	1130.312	1194.556	1251.8574	1330.0536	1349.6658	1373.5096	1434.7661	1460.7657	1622.7219	1654.4391	1791.7552	3133.0696	3190.3626	3197.4246	3236.3048	3554.3638	3562.622	3681.5067
NC(=O)C12CC1N=CN2	NC(=O)[C@]12C[C@H]1N=CN2	
InChI=1S/C5H7N3O/c6-4(9)5-1-3(5)7-2-8-5/h2-3H,1H2,(H2,6,9)(H,7,8)	InChI=1S/C5H7N3O/c6-4(9)5-1-3(5)7-2-8-5/h2-3H,1H2,(H2,6,9)(H,7,8)/t3-,5+/m1/s1
