19
gdb 50520	2.29473	1.48204	1.08523	1.4301	75.83	-0.248	-0.0332	0.2147	1160.9193	0.158357	-423.005431	-422.996889	-422.995945	-423.039753	31.41	
O	 0.1406476043	-0.136908967	-0.089223669	-0.25625
C	 0.0873028514	 1.0611690603	 0.0213654709	 0.163955
C	 1.2699439201	 1.985377424	-0.0708566552	-0.217588
C	 0.9810829989	 3.3210720598	-0.7933137104	-0.105429
O	 1.0901170525	 4.0707245807	 0.4285210099	-0.307198
C	 1.4957335479	 2.9110312671	 1.1697976185	 0.443996
C	 0.8477622085	 2.6276218081	 2.5445535385	-0.295414
C	 2.2376406773	 2.1572849143	 3.0532537907	-0.21454
C	 2.8830132997	 2.9031921809	 1.8531569719	-0.286259
H	-0.8832446837	 1.5785274741	 0.2066020192	 0.082099
H	 2.1473901755	 1.4273975151	-0.3991620296	 0.098859
H	 1.737720763	 3.6105032841	-1.5315012635	 0.114079
H	-0.0144570869	 3.4145826643	-1.2450530483	 0.108882
H	 0.5472384424	 3.5760061219	 2.9995527266	 0.120314
H	 0.0078163753	 1.9310568407	 2.5975527025	 0.10645
H	 2.5351900744	 2.4709666608	 4.0548476212	 0.107259
H	 2.356718664	 1.0737608161	 2.9759059177	 0.115837
H	 3.7122123529	 2.4275844905	 1.3233060175	 0.102444
H	 3.1645737525	 3.9279266343	 2.1127219209	 0.118507
46.05	62.4081	120.8064	201.6125	281.3199	320.1162	386.835	449.6381	456.7149	515.4972	688.477	778.6753	841.424	860.1953	872.8607	912.2516	926.134	967.4334	977.6275	1009.4376	1031.8621	1047.6934	1091.177	1151.717	1157.1328	1177.5544	1181.4952	1201.9059	1230.0794	1246.0824	1257.6945	1272.3026	1295.5172	1307.681	1356.4556	1430.5317	1464.9362	1483.0702	1504.3052	1523.6647	1828.0494	2857.8955	3017.3183	3056.1873	3061.8531	3062.334	3072.0933	3108.4719	3112.1432	3114.6905	3131.3003
O=CC1COC11CCC1	O=C[C@H]1COC21CCC2	
InChI=1S/C7H10O2/c8-4-6-5-9-7(6)2-1-3-7/h4,6H,1-3,5H2	InChI=1S/C7H10O2/c8-4-6-5-9-7(6)2-1-3-7/h4,6H,1-3,5H2/t6-/m0/s1
