23
gdb 92331	1.97157	1.87246	1.21751	1.5454	83.98	-0.2471	0.0576	0.3047	1136.7963	0.207478	-388.296631	-388.287905	-388.286961	-388.329789	34.826	
C	-0.0739015731	 1.5526759371	-0.2192307737	-0.415224
C	 0.1461179072	 0.041920168	-0.108384066	 0.044248
C	 0.9866309304	-0.6086392488	-1.2256539921	-0.223102
C	 1.2481914979	-2.0321202814	-0.6968532892	-0.22072
C	 1.4649279914	-1.8512486868	 0.8170949741	-0.00267
C	 2.8511367718	-1.2768966875	 1.2239208496	-0.277174
C	 2.1816364199	 0.0446978235	 1.6833530351	 0.142642
O	 2.7171556123	 1.2567464774	 1.1953015468	-0.425381
C	 0.7832070444	-0.4852203765	 1.1955840583	-0.068177
H	 0.8624234068	 2.1092538073	-0.1550902741	 0.123278
H	-0.5646113894	 1.8021041289	-1.1665736322	 0.103938
H	-0.7188520658	 1.91188596	 0.5900073642	 0.111114
H	-0.8442447849	-0.4353778885	-0.158423294	 0.072751
H	 0.4801912794	-0.5986147827	-2.1957002137	 0.095228
H	 1.9325042155	-0.0653776851	-1.3642727572	 0.074518
H	 0.362614599	-2.6532870552	-0.8761544231	 0.09576
H	 2.0938936586	-2.5280259697	-1.1851911923	 0.092261
H	 1.1592034971	-2.7258231098	 1.3937609386	 0.061948
H	 3.3940614238	-1.8252537745	 1.9977294641	 0.100912
H	 3.5320388836	-1.1348989634	 0.3759170422	 0.087018
H	 2.1870390157	 0.1574437674	 2.7711681715	 0.087822
H	 2.9314119359	 1.1382471946	 0.2644554353	 0.279904
H	 0.0501271523	-0.5100470543	 2.006181128	 0.059107
59.5469	178.8886	202.7995	214.7993	274.1636	303.1386	352.7942	401.2092	419.7497	507.3007	565.0621	627.3825	716.5202	733.6716	812.878	838.5019	874.0126	911.0976	936.928	948.3665	953.2944	998.5924	1012.3	1030.7532	1061.6637	1085.8776	1106.2305	1150.9011	1163.9456	1168.2052	1190.7048	1224.7372	1252.4281	1262.0193	1274.6353	1293.4062	1302.4593	1322.4591	1338.6751	1345.7913	1360.2413	1378.9338	1412.7764	1437.0105	1476.5718	1486.7707	1493.6417	1502.1165	1504.9302	2981.0951	3007.3864	3031.1229	3032.8393	3035.5308	3056.0171	3070.8661	3074.373	3080.3359	3086.1714	3091.1469	3103.5052	3138.4614	3812.3994
CC1CCC2CC(O)C12	C[C@H]1CC[C@H]2C[C@@H](O)[C@@H]12	
InChI=1S/C8H14O/c1-5-2-3-6-4-7(9)8(5)6/h5-9H,2-4H2,1H3	InChI=1S/C8H14O/c1-5-2-3-6-4-7(9)8(5)6/h5-9H,2-4H2,1H3/t5-,6-,7+,8-/m0/s1
