18
gdb 6508	2.97799	1.79119	1.38658	1.0578	75.27	-0.2375	0.0364	0.2739	964.6419	0.149973	-347.760482	-347.751256	-347.750312	-347.793299	34.949	
C	-0.0289259734	 1.5195392949	 0.0746612259	-0.443813
C	-0.008195101	 0.0036300637	 0.0086803598	 0.282515
C	-1.2495248329	-0.6089865727	-0.6104623871	-0.451841
C	 1.3176873809	-0.6832132287	-0.2306810098	-0.382064
C	 0.6748533309	-0.736771751	 1.1520069217	 0.172575
O	 1.2198129447	 0.0859584259	 2.1532539785	-0.451253
C	 0.1530827628	-1.9891486136	 1.6367039743	 0.319329
C	-0.2442977915	-3.0365421604	 2.0766066612	-0.484635
H	 0.858212091	 1.9151023962	 0.5698384954	 0.132933
H	-0.0812894694	 1.936752876	-0.9374808852	 0.111649
H	-0.9071724976	 1.8718153027	 0.6267831979	 0.119144
H	-1.3600095444	-0.2703411161	-1.6469751912	 0.114227
H	-1.2096244843	-1.7005647454	-0.6112453488	 0.126016
H	-2.1490103395	-0.3079201737	-0.0620704306	 0.120582
H	 1.3371446215	-1.5933932377	-0.8202795587	 0.117039
H	 2.2042427842	-0.0620429882	-0.3046600179	 0.115198
H	 1.9490437466	-0.3963997699	 2.5586913791	 0.286928
H	-0.6086271787	-3.9560526219	 2.4630215655	 0.195471
123.145	146.3464	185.9703	201.2715	252.459	277.9336	291.0385	349.9316	378.4517	423.0357	455.798	554.8593	567.8367	584.642	669.9635	674.4252	731.8673	880.7711	908.1799	925.5795	976.5183	995.8096	1038.9991	1049.1	1145.0138	1153.5731	1215.1359	1297.2725	1315.0597	1390.1751	1408.6952	1422.453	1470.9845	1481.6748	1488.8696	1502.7633	1510.9165	2226.4251	3028.9946	3034.1997	3087.7156	3091.0143	3121.7536	3127.4022	3145.3859	3221.4149	3501.2339	3798.6716
CC1(C)CC1(O)C#C	CC1(C)C[C@]1(O)C#C	
InChI=1S/C7H10O/c1-4-7(8)5-6(7,2)3/h1,8H,5H2,2-3H3	InChI=1S/C7H10O/c1-4-7(8)5-6(7,2)3/h1,8H,5H2,2-3H3/t7-/m1/s1
