13
gdb 130810	8.00361	0.66918	0.61754	6.5167	84.65	-0.2519	-0.0693	0.1826	1660.91	0.090392	-415.605959	-415.598159	-415.597215	-415.639591	27.017	
O	-0.0965709895	-0.0334780369	-0.0003553586	-0.232592
C	 0.0041720386	 1.1734154465	 0.0075060633	-0.002433
C	 1.246376093	 1.8928904002	-0.0010606058	 0.175237
C	 2.2754716552	 2.5305754963	-0.007789695	-0.012171
C	 3.4594184513	 3.2980804817	-0.0143863276	 0.183261
N	 4.6710619403	 2.7150724937	-0.0318671539	-0.270009
N	 5.5247086224	 3.740293921	-0.03312713	-0.180532
C	 4.922262913	 4.9586054364	-0.0171549126	-0.023648
C	 3.5706955891	 4.7152966583	-0.0042998544	-0.292142
H	-0.8918255899	 1.8278822918	 0.0224601372	 0.095498
H	 6.5122674895	 3.5434897337	-0.0453583021	 0.287657
H	 5.4919645322	 5.8738810277	-0.0162021171	 0.147453
H	 2.7697052949	 5.4348106495	 0.0100379166	 0.124421
61.7578	75.5952	113.3534	205.3721	260.1389	415.4669	516.1115	518.318	572.0043	669.2136	704.3497	734.6445	779.494	862.1681	940.8942	953.9563	1017.8966	1041.2965	1085.2742	1119.1795	1216.1419	1313.8697	1369.5178	1421.6466	1466.6722	1484.182	1556.0712	1758.0745	2314.6737	2911.271	3267.1764	3289.2882	3662.5965
O=CC#CC1=NNC=C1	O=CC#Cc1n[nH]cc1	
InChI=1S/C6H4N2O/c9-5-1-2-6-3-4-7-8-6/h3-5H,(H,7,8)	InChI=1S/C6H4N2O/c9-5-1-2-6-3-4-7-8-6/h3-5H,(H,7,8)
