24
gdb 120746	3.17485	0.74816	0.67853	1.2822	87.52	-0.2447	0.079	0.3237	1804.0022	0.215454	-405.517198	-405.506176	-405.505232	-405.554076	39.462	
C	-0.8808733053	 1.3322719438	 0.3968591929	-0.224269
O	-0.5242014839	-0.0244061404	 0.3016553806	-0.234182
C	 0.0560452273	-0.5222679969	 1.4902499375	-0.059205
C	 0.3999334501	-1.9708069777	 1.2662185906	-0.037963
N	 1.749790353	-2.2731191023	 0.7607970466	-0.342856
C	 1.3600952812	-2.7481473591	 2.0968023675	-0.008178
C	 2.13244503	-2.2077416072	 3.2872893306	 0.035859
C	 1.3293132107	-2.3870840555	 4.5832747868	-0.391969
C	 3.5050429167	-2.8893658831	 3.3737865861	-0.389991
H	-0.0069969765	 1.9735079246	 0.5946139359	 0.10414
H	-1.3218713203	 1.6236355623	-0.5596836557	 0.125481
H	-1.6195029778	 1.5077639683	 1.1962683439	 0.099548
H	 0.95970691	 0.0496340246	 1.7480709592	 0.095864
H	-0.6562192196	-0.4236443487	 2.3292564924	 0.080808
H	-0.4299538117	-2.5321566815	 0.838942427	 0.087479
H	 1.718081641	-3.0251814463	 0.0786471566	 0.230207
H	 1.1256760781	-3.810754118	 2.1907509379	 0.073108
H	 2.3005579303	-1.1371323787	 3.1239563643	 0.07779
H	 0.3627157526	-1.8755641957	 4.5318653805	 0.113876
H	 1.1332628586	-3.4478919057	 4.7809942825	 0.111156
H	 1.8774079686	-1.988221189	 5.4428991377	 0.112468
H	 4.0648899253	-2.7455523178	 2.445261423	 0.127387
H	 4.0973629685	-2.4823112707	 4.1997783542	 0.107799
H	 3.3975689633	-3.9679804095	 3.5430703515	 0.105642
52.6001	76.349	87.2749	104.1202	186.5657	226.3819	227.1357	248.1079	260.9746	325.9775	343.4218	387.6787	459.1103	502.2339	575.8958	783.4228	842.092	887.0393	915.7942	928.9543	959.6395	967.8135	996.9815	1010.4484	1038.3082	1090.5454	1134.6252	1157.1785	1160.2971	1182.5672	1191.4775	1210.6031	1234.0494	1260.5856	1273.403	1284.0195	1322.0342	1344.6237	1378.5457	1395.8169	1414.5907	1436.9484	1475.5068	1484.0656	1487.8159	1490.8473	1492.3302	1498.9715	1504.8909	1514.6432	1523.2226	2942.3935	2965.431	3005.6074	3008.4156	3023.8064	3027.3867	3042.0745	3079.0172	3088.1775	3095.9762	3102.9982	3111.5495	3112.2769	3118.9425	3510.5851
COCC1NC1C(C)C	COC[C@H]1N[C@H]1C(C)C	
InChI=1S/C7H15NO/c1-5(2)7-6(8-7)4-9-3/h5-8H,4H2,1-3H3	InChI=1S/C7H15NO/c1-5(2)7-6(8-7)4-9-3/h5-8H,4H2,1-3H3/t6-,7+/m1/s1
