17
gdb 37237	4.11977	1.4065	1.25017	0.6401	71.12	-0.2313	0.0537	0.285	1010.8971	0.135376	-421.713629	-421.706557	-421.705613	-421.74516	28.23	
C	 0.0742745903	 1.3402520502	-0.2755103334	-0.093517
C	 1.5181456921	 1.5585957108	 0.2214792705	-0.333727
C	 1.3538723931	 0.1704375539	 0.828984805	 0.496436
O	 0.0211765977	 0.027779537	 0.3415899522	-0.326448
C	 2.1867977395	-1.0770104024	 0.8642880864	-0.206201
C	 3.6250345449	-0.8058877512	 1.3865060881	 0.018811
O	 3.7835720968	 0.6034367896	 1.633479781	-0.251935
C	 3.1119315057	-0.208014207	 2.6146712524	 0.018876
C	 1.6420689652	-0.442010218	 2.1680151843	-0.206212
H	-0.6861179732	 2.0091024219	 0.1425620493	 0.106531
H	-0.0577102511	 1.2766067321	-1.3612692161	 0.106529
H	 2.2821775045	 1.6337240887	-0.5518796535	 0.120328
H	 1.6570700212	 2.3623678268	 0.944061879	 0.120333
H	 1.8637732339	-1.9860783655	 0.3743936862	 0.10289
H	 4.5198907541	-1.3784389004	 1.174337457	 0.112214
H	 3.4948904529	-0.1840883521	 3.6277677169	 0.112211
H	 0.8468687923	-0.8006521146	 2.8081537348	 0.102881
96.1116	177.6686	198.6404	351.2513	377.1949	477.4977	495.3524	668.0629	752.1793	760.2729	771.9334	791.8874	847.0706	871.2703	874.33	910.8885	921.3563	964.8173	979.0107	985.8813	1015.9186	1018.6315	1045.514	1109.6861	1111.1848	1162.643	1199.0733	1205.6398	1209.2914	1245.2679	1253.7622	1261.7427	1350.3152	1364.0677	1437.6771	1486.0681	1530.9342	3029.0384	3072.9223	3097.9922	3152.2883	3181.3868	3195.8208	3202.3985	3211.2073
C1CC2(O1)C1C3OC3C21	C1C[C@@]2(O1)[C@H]1[C@H]3O[C@H]3[C@@H]21	
InChI=1S/C7H8O2/c1-2-8-7(1)3-4(7)6-5(3)9-6/h3-6H,1-2H2	InChI=1S/C7H8O2/c1-2-8-7(1)3-4(7)6-5(3)9-6/h3-6H,1-2H2/t3-,4+,5-,6+,7-
