15
gdb 69393	3.31547	1.32698	1.04775	4.8878	70.05	-0.2406	-0.0219	0.2186	1108.9319	0.111531	-453.920939	-453.912627	-453.911683	-453.954089	30.269	
O	-0.0251860941	 1.3959320025	-0.2176685668	-0.441845
C	 0.0162564363	 0.0501759949	 0.0366053473	 0.24354
C	-0.2928703164	-1.0182964671	-1.020124245	-0.352891
C	-1.1551159678	-0.8883408459	 0.2052891646	-0.079181
N	-0.4843552024	-1.50492971	 1.3557220377	-0.099893
C	-0.6404879075	-2.7967332478	 1.83367702	 0.060263
N	 0.1634606693	-3.3241697732	 2.6611172052	-0.414751
C	 0.6339705733	-0.622358392	 1.2696275891	 0.368162
O	 1.6175500595	-0.4879576697	 1.9269609626	-0.320989
H	 0.7958949004	 1.6509807014	-0.6535426863	 0.304296
H	-0.7035000786	-0.5951114856	-1.9328992326	 0.134427
H	 0.341186844	-1.8900380339	-1.1495618822	 0.134884
H	-2.2094147931	-0.6495161528	 0.2290406908	 0.136508
H	-1.5456199673	-3.2636931621	 1.4228860475	 0.097418
H	-0.1447638955	-4.2661553187	 2.8952868379	 0.230053
73.7195	159.8345	168.2492	181.9594	223.0631	294.1124	350.3557	452.7835	492.0521	542.3739	644.1331	690.7802	760.4263	815.0893	859.09	910.8246	936.0913	956.6987	972.1533	1044.0331	1060.4326	1064.013	1098.6481	1187.2674	1227.4537	1256.8751	1301.106	1378.911	1417.3885	1430.468	1493.1347	1717.0567	1913.2298	3029.1288	3117.8508	3211.8602	3219.9663	3504.5465	3799.1094
OC12CC1N(C=N)C2=O	O[C@]12C[C@H]1N([CH][NH])C2=O	
InChI=1S/C5H6N2O2/c6-2-7-3-1-5(3,9)4(7)8/h2-3,6,9H,1H2	InChI=1S/C5H6N2O2/c6-2-7-3-1-5(3,9)4(7)8/h2-3,6,9H,1H2/t3-,5-/m1/s1
