17
gdb 96715	2.82691	0.87645	0.67462	5.9588	86.09	-0.2361	-0.0359	0.2002	1634.3986	0.132914	-418.007002	-417.996287	-417.995343	-418.046011	35.118	
C	-0.0476241655	 1.6073273215	 0.169716318	-0.331442
N	 0.0310288622	 0.1657383679	 0.1767646975	-0.246164
C	 0.5500506839	-0.4531896097	-0.8017543095	 0.254008
N	 0.6382059676	-1.86174414	-0.8180573236	-0.34676
C	 0.2237442752	-2.7853178096	 0.1245453277	 0.156919
O	-0.3108056113	-2.570067638	 1.1788000384	-0.26577
C	 1.108419442	 0.1299414497	-1.9980304213	 0.024686
C	 1.57677106	 0.6110125667	-3.0003353666	 0.070173
C	 2.1388813485	 1.2017512401	-4.2041514935	-0.50316
H	 0.4732737522	 1.9934099665	 1.0538312569	 0.133445
H	 0.3693131765	 2.0888223996	-0.7252732734	 0.108675
H	-1.0980110375	 1.9039348006	 0.2736390354	 0.133445
H	 1.0693282322	-2.2467499613	-1.6443116083	 0.257134
H	 0.4615078281	-3.8079980291	-0.2380433667	 0.071911
H	 2.4546070094	 0.4302658698	-4.9141249743	 0.157751
H	 1.4052999205	 1.8412295015	-4.706664724	 0.162635
H	 3.0126927058	 1.8182631139	-3.9672630826	 0.162514
10.7656	29.3251	79.9094	115.712	159.9416	170.4769	192.1693	282.9424	301.4651	306.3999	384.8607	446.9656	579.3402	596.9043	618.0607	711.378	868.7548	987.9782	1021.8959	1047.5512	1052.5508	1071.5625	1128.3184	1165.273	1196.2022	1254.2268	1412.0309	1436.1188	1452.361	1473.1157	1473.4108	1484.3902	1493.903	1521.8422	1720.2895	1842.6082	2347.3674	2904.4899	2999.0033	3032.064	3070.1918	3073.8128	3095.6445	3098.2492	3630.7655
CN=C(NC=O)C#CC	CN=C(NC=O)C#CC	
InChI=1S/C6H8N2O/c1-3-4-6(7-2)8-5-9/h5H,1-2H3,(H,7,8,9)	InChI=1S/C6H8N2O/c1-3-4-6(7-2)8-5-9/h5H,1-2H3,(H,7,8,9)
