18
gdb 51802	3.87633	1.02653	0.93032	2.5038	73.09	-0.2493	0.0297	0.279	1272.4255	0.149116	-439.106962	-439.09887	-439.097926	-439.14079	30.032	
O	-0.1126238377	 0.0667140754	 0.6244404327	-0.325702
C	-0.0129623803	 1.1886994305	 0.1735487006	 0.151858
N	 1.1427462515	 1.764680672	-0.2519140476	-0.284948
C	 2.4328772124	 1.1014013898	-0.2080077288	 0.02907
C	 3.0608333168	 0.8660983027	-1.6106052736	-0.241651
C	 4.5910797362	 0.9130716874	-1.4015217741	-0.245409
C	 4.7622443081	 1.8069279163	-0.1877588874	 0.053569
O	 3.9809777547	 3.012283056	-0.2439511763	-0.271504
C	 3.4901350059	 1.9044503411	 0.5311657378	 0.022106
H	-0.877023287	 1.872817695	 0.0594419374	 0.075844
H	 1.1152394726	 2.711046346	-0.600149515	 0.255264
H	 2.2632435981	 0.1551372857	 0.3133032509	 0.126014
H	 2.7178963927	-0.0702831354	-2.0548628858	 0.115586
H	 2.7522189296	 1.6774632908	-2.2742523721	 0.112662
H	 4.9958121217	-0.0787219112	-1.166624768	 0.111368
H	 5.1257989546	 1.2847967596	-2.2808485803	 0.113943
H	 5.7237597856	 1.9035739599	 0.3095215427	 0.099185
H	 3.4089749142	 2.0764023786	 1.6011016769	 0.102746
35.4573	85.6892	189.0123	216.0346	257.7393	374.7473	420.0137	497.4435	562.692	631.0732	668.0327	780.2783	822.5206	834.5418	878.3862	911.5688	935.0618	966.2597	1016.9939	1031.2909	1041.7498	1081.6183	1100.2546	1117.159	1182.003	1216.8166	1224.9467	1262.1904	1303.7978	1319.5596	1330.3043	1335.3238	1370.3023	1430.0133	1438.3911	1481.0634	1493.248	1526.1414	1801.893	2938.0481	3040.8874	3071.52	3088.1071	3089.1845	3123.2996	3147.7589	3160.3426	3623.4712
O=CNC1CCC2OC12	O=CN[C@H]1CC[C@H]2O[C@@H]12	
InChI=1S/C6H9NO2/c8-3-7-4-1-2-5-6(4)9-5/h3-6H,1-2H2,(H,7,8)	InChI=1S/C6H9NO2/c8-3-7-4-1-2-5-6(4)9-5/h3-6H,1-2H2,(H,7,8)/t4-,5+,6-/m0/s1
