15
gdb 50971	1.96265	1.08668	0.72371	2.1455	69.61	-0.2729	-0.0507	0.2222	1465.5785	0.109453	-453.947746	-453.938011	-453.937067	-453.984658	31.853	
N	 0.1414172742	 1.2702976501	-0.1269593737	-0.421944
C	 0.0804044257	 0.0179850144	-0.2019108618	 0.132029
O	-1.0969449737	-0.6021727772	 0.093866011	-0.190864
C	-1.1025291902	-2.0253362323	 0.057956835	-0.064019
C	-2.4174095971	-2.4876469443	 0.7028833404	-0.294211
C	-2.517009913	-2.0917210363	 2.1691346924	 0.142145
O	-2.9015959719	-2.8414994148	 3.0268518897	-0.224412
C	-0.9877226786	-2.5275006271	-1.3248417013	 0.288404
N	-0.8910318448	-2.9234481369	-2.4056472271	-0.299277
H	 1.0724847751	 1.5976338092	-0.3757414889	 0.244214
H	 0.8820815134	-0.6733533346	-0.4894489708	 0.112647
H	-0.2490213368	-2.4207692029	 0.6269193311	 0.144137
H	-3.2421108716	-2.0099052529	 0.1594391612	 0.163069
H	-2.5271510119	-3.5708133369	 0.6181102929	 0.152142
H	-2.2226188688	-1.0462246974	 2.3943310699	 0.115939
39.4375	63.7824	74.471	84.3708	135.3157	189.6198	252.3328	298.8905	414.0637	457.8952	516.2055	569.7254	664.3643	807.9088	823.2338	883.9472	965.8338	1018.2866	1039.2445	1070.8855	1108.3778	1125.4824	1227.2986	1270.2571	1283.7032	1350.0353	1366.1791	1422.5786	1427.3394	1446.4984	1756.9342	1835.936	2360.0643	2931.1433	3011.3568	3048.1579	3049.5379	3127.7547	3525.8462
N=COC(CC=O)C#N	[NH][CH]O[C@@H](CC=O)C#N	
InChI=1S/C5H6N2O2/c6-3-5(1-2-8)9-4-7/h2,4-5,7H,1H2	InChI=1S/C5H6N2O2/c6-3-5(1-2-8)9-4-7/h2,4-5,7H,1H2/t5-/m0/s1
