20
gdb 56831	3.01445	1.1586	0.98787	4.0614	83.61	-0.3051	0.0389	0.344	1265.1626	0.172089	-365.979309	-365.970919	-365.969975	-366.012892	32.058	
C	 0.0792769608	 1.4955888282	-0.1065621021	-0.393249
C	 0.0421778977	-0.0464216056	-0.1297020325	-0.202712
C	 0.7138255187	-0.5597763819	-1.3299502105	 0.274717
N	 1.2555923745	-0.9639528759	-2.2678717709	-0.329949
C	 0.7033351578	-0.6432742845	 1.1226923517	 0.079512
C	-0.031185167	-0.641710461	 2.5031926066	-0.06934
C	-0.9152361241	-1.8174925932	 1.9910180287	-0.228735
C	 0.5320459233	-2.1445390156	 1.51564544	-0.058094
C	 0.9996947411	-1.7241969625	 2.940372134	-0.221389
H	 1.1095417993	 1.8586268136	-0.0527915881	 0.136776
H	-0.3839847532	 1.9149538503	-1.0029431648	 0.136222
H	-0.4622404352	 1.862999092	 0.7692922541	 0.128167
H	-1.0034148297	-0.3644525547	-0.1964179079	 0.124005
H	 1.7402733384	-0.2914897499	 1.1709683939	 0.078466
H	-0.3527574991	 0.2284886898	 3.0776695333	 0.074179
H	-1.3264355755	-2.4758831774	 2.7603158838	 0.09733
H	-1.6706250805	-1.6043223037	 1.2327045282	 0.094859
H	 0.8624401556	-3.0099151763	 0.9407586339	 0.088153
H	 2.0394438708	-1.4026744683	 3.0436687821	 0.095365
H	 0.6952007062	-2.3766529135	 3.7620330965	 0.09572
45.4663	114.509	196.0577	211.167	226.9729	325.9613	380.7093	462.6267	558.242	575.6662	600.2099	774.9735	804.6188	848.191	873.4658	888.1614	901.0123	904.985	986.0002	1005.9846	1013.814	1033.3235	1059.1475	1096.9679	1099.5483	1111.0784	1129.3473	1146.3431	1164.937	1192.1284	1216.4127	1244.1512	1250.6959	1266.5884	1291.5258	1324.9656	1407.1666	1425.1969	1493.9737	1499.7811	1506.4366	1545.1287	2353.5697	3038.5234	3048.0463	3054.694	3058.8819	3067.7829	3099.4333	3114.8585	3121.2727	3123.8514	3125.2362	3128.5484
CC(C#N)C1C2CC1C2	C[C@@H](C#N)[C@H]1[C@H]2C[C@@H]1C2	
InChI=1S/C8H11N/c1-5(4-9)8-6-2-7(8)3-6/h5-8H,2-3H2,1H3	InChI=1S/C8H11N/c1-5(4-9)8-6-2-7(8)3-6/h5-8H,2-3H2,1H3/t5-,6-,7+,8-/m0/s1
