20
gdb 68054	1.94181	1.81581	1.1266	4.1015	84.64	-0.2943	0.0268	0.3212	1155.1316	0.170484	-365.999392	-365.990533	-365.989589	-366.032434	34.17	
C	-0.0163712361	 1.4679112397	 0.0363721655	-0.513791
C	 0.0313430921	-0.0345191796	 0.011585708	 0.328439
C	 0.6066647011	-0.9637153889	-1.1001239892	-0.304894
C	 0.0571966336	-1.9367869201	-0.0131497326	 0.328438
C	 0.0503383539	-3.4400948654	-0.0274528898	-0.513792
C	 0.7070765309	-0.9902061991	 1.0421413442	-0.313257
C	-1.208525833	-1.0030859504	 0.030365394	-0.208705
C	-2.0627611753	-1.0300029098	 1.2055416049	 0.262369
N	-2.7501526161	-1.0512862255	 2.1360446313	-0.344283
H	 0.9954370458	 1.8867174515	 0.0208092651	 0.125774
H	-0.5572397641	 1.8614159634	-0.8308778282	 0.123292
H	-0.5173090276	 1.8283259374	 0.9408388071	 0.137436
H	 0.0933998154	-0.958123414	-2.0669136347	 0.091479
H	 1.6925808918	-0.9473559327	-1.2234427693	 0.096257
H	 1.0731552149	-3.8307016509	-0.0533066197	 0.125774
H	-0.4405038451	-3.8373823659	 0.867049066	 0.137434
H	-0.4797423662	-3.8254723297	-0.9049530218	 0.123291
H	 1.8002093476	-0.9756340304	 1.0641105795	 0.093283
H	 0.2874296108	-1.0090297136	 2.050747791	 0.120251
H	-1.8192045843	-0.9995713862	-0.8775839011	 0.105206
111.0127	162.3302	207.0633	211.0834	214.8138	228.055	349.8167	365.2376	449.1184	509.6072	539.7795	580.4827	601.3784	675.5573	748.5777	808.7294	881.5044	915.3587	922.9072	1009.2001	1009.642	1015.4983	1053.8352	1058.6094	1099.5504	1121.1506	1138.2401	1179.7017	1189.7443	1202.4235	1212.9161	1298.1102	1332.162	1380.8208	1411.9539	1416.6139	1487.3383	1488.1623	1490.2129	1490.6476	1500.0038	1546.5133	2344.9891	3031.0465	3031.0794	3044.5115	3056.396	3067.9421	3099.6946	3099.965	3103.3748	3103.4936	3113.223	3122.488
CC12CC(C)(C1)C2C#N	C[C@@]12C[C@@](C)(C1)[C@H]2C#N	
InChI=1S/C8H11N/c1-7-4-8(2,5-7)6(7)3-9/h6H,4-5H2,1-2H3	InChI=1S/C8H11N/c1-7-4-8(2,5-7)6(7)3-9/h6H,4-5H2,1-2H3/t6-,7-,8+
