16
gdb 45908	2.48609	1.71357	1.20577	3.0617	72.22	-0.2676	-0.039	0.2287	1025.0244	0.125437	-437.91442	-437.906851	-437.905906	-437.946795	28.525	
O	-0.0681988109	 0.268015455	-1.1547609456	-0.305328
C	-0.0279011013	 1.136507416	-0.3311883244	 0.381445
O	-1.2232514171	 1.5594718462	 0.2129996285	-0.217906
C	-1.362638227	 2.4327277679	 1.2709249132	 0.125926
N	-0.8831862041	 2.3320872712	 2.4265450288	-0.206612
C	 0.0216327614	 1.238972993	 2.7420587207	-0.193654
C	 1.4696320727	 1.7003235639	 2.560472904	-0.253686
C	 1.8702826112	 2.049037771	 1.1582380087	-0.023173
C	 1.2425098221	 1.8468726824	-0.0028062873	-0.187193
H	-2.0538561037	 3.2328652293	 1.0149006183	 0.136254
H	-0.1326310331	 0.9729041645	 3.7917108493	 0.117639
H	-0.1699521483	 0.3382319208	 2.1425015758	 0.123595
H	 1.6446975698	 2.5768478912	 3.1973170282	 0.133041
H	 2.1510300816	 0.9224344526	 2.9330257124	 0.126166
H	 2.8564884178	 2.5053208412	 1.0861818543	 0.111653
H	 1.7722601588	 2.0963038236	-0.9179914349	 0.131832
73.0009	131.751	246.2082	262.2262	309.4077	351.9623	503.3452	528.4533	558.4718	597.4435	686.7201	760.4791	807.1634	835.6784	857.4499	897.798	955.4909	992.9761	1022.6725	1042.8438	1082.8586	1113.7765	1154.7908	1232.9966	1253.8668	1292.282	1368.4304	1395.4685	1412.2199	1419.9468	1456.2756	1517.891	1709.6093	1749.4942	1839.7283	3010.8983	3016.5373	3052.1691	3081.2532	3138.8559	3165.4805	3174.1306
O=C1OC=NCCC=C1	O=C1OC=NCCC=C1	
InChI=1S/C6H7NO2/c8-6-3-1-2-4-7-5-9-6/h1,3,5H,2,4H2/b3-1-,7-5-	InChI=1S/C6H7NO2/c8-6-3-1-2-4-7-5-9-6/h1,3,5H,2,4H2/b3-1-,7-5-
