16
gdb 52067	2.74806	1.0861	0.87488	5.7865	71.11	-0.2861	-0.0033	0.2828	1307.6462	0.122988	-437.904131	-437.895162	-437.894218	-437.93915	31.243	
O	 0.3001063317	 0.0099607098	-0.1107753382	-0.263412
C	 0.5334683101	 1.0883310748	 0.3376758966	 0.179876
O	 0.6516363271	 2.1875311602	-0.4453918677	-0.179133
C	 0.9389633547	 3.434898925	 0.184584137	-0.167497
C	 2.3857833258	 3.8396374059	-0.0289351722	 0.174998
C	 2.7960123351	 4.3673451422	-1.3952056235	-0.277522
C	 2.7017151436	 5.3155496572	-0.241638154	-0.299288
C	 3.3418948125	 3.0478625708	 0.7029425376	 0.234394
N	 4.0862561722	 2.4004902304	 1.3073207475	-0.336284
H	 0.667434122	 1.3119287574	 1.4131480631	 0.092287
H	 0.280771638	 4.1764696351	-0.2761656566	 0.128701
H	 0.7064369419	 3.3841466665	 1.2552967404	 0.130834
H	 3.778646545	 4.0921046997	-1.7574027534	 0.151948
H	 2.0202743071	 4.3832286646	-2.1520708132	 0.144487
H	 1.8628897729	 6.0014250356	-0.1952776923	 0.135074
H	 3.6180013003	 5.6914355349	 0.196386729	 0.15054
48.6061	53.4273	144.3623	159.8523	217.5506	258.0816	273.7371	388.1696	409.16	564.536	576.5993	674.5339	708.0459	786.1449	887.1557	937.9991	943.9755	968.8427	1028.649	1039.1639	1060.6823	1077.5125	1097.8761	1147.3671	1193.5918	1284.0201	1296.1098	1359.8619	1402.1037	1431.0289	1470.2969	1491.3057	1502.0036	1876.3547	2351.7144	2961.2648	3035.0782	3099.1396	3146.2858	3152.1267	3233.5349	3247.4768
O=COCC1(CC1)C#N	O=COCC1(CC1)C#N	
InChI=1S/C6H7NO2/c7-3-6(1-2-6)4-9-5-8/h5H,1-2,4H2	InChI=1S/C6H7NO2/c7-3-6(1-2-6)4-9-5-8/h5H,1-2,4H2
