17
gdb 9133	3.86462	0.89642	0.77092	4.1325	77.94	-0.2659	0.0209	0.2867	1496.202	0.14046	-326.7219	-326.712344	-326.7114	-326.75824	32.521	
C	 0.0470076506	 1.5516915991	-0.1603115562	-0.366871
C	-0.0090600145	 0.0458713997	 0.1559176941	-0.316043
C	-1.3670442617	-0.4880157976	 0.1550550117	 0.083091
C	-2.4980625123	-0.8991499412	 0.1545497746	 0.08287
C	-3.8613345046	-1.433556931	 0.1427741151	-0.298674
C	-3.8902928559	-2.9612063451	-0.1127508409	-0.379636
C	-4.5648434869	-1.1108924092	 1.3975359302	 0.289003
N	-5.1327662722	-0.8747690588	 2.375300585	-0.323253
H	 1.0826228812	 1.9033170905	-0.146037342	 0.118766
H	-0.373793653	 1.7579732977	-1.1480432979	 0.129063
H	-0.5224764481	 2.1243940293	 0.5762576643	 0.13501
H	 0.5966113214	-0.5076350619	-0.5728197112	 0.132888
H	 0.4494788562	-0.1428477889	 1.1347176393	 0.137496
H	-4.4263670953	-0.9439915361	-0.6626942774	 0.153996
H	-3.3527913026	-3.4886877075	 0.6776643525	 0.148161
H	-4.9214670183	-3.3213478319	-0.1415885335	 0.137653
H	-3.4076438041	-3.1752051472	-1.0686389876	 0.13648
11.5502	78.1897	104.9968	186.7606	196.2489	222.4065	234.7842	303.9048	388.3871	461.243	488.5192	552.8511	583.5864	727.6871	785.0641	839.2531	948.1291	1003.1634	1069.8973	1079.3233	1096.8539	1105.5315	1185.472	1285.7907	1297.9957	1326.1043	1350.1259	1406.94	1409.9626	1473.1628	1488.8878	1495.163	1496.7907	1505.7334	2361.7359	2374.2199	3014.3648	3024.626	3046.9398	3053.2727	3056.742	3121.2502	3127.0819	3138.8497	3145.4876
CCC#CC(C)C#N	CCC#C[C@@H](C)C#N	
InChI=1S/C7H9N/c1-3-4-5-7(2)6-8/h7H,3H2,1-2H3	InChI=1S/C7H9N/c1-3-4-5-7(2)6-8/h7H,3H2,1-2H3/t7-/m1/s1
