14
gdb 29169	3.11528	1.45788	0.99312	2.2	71.87	-0.1815	-0.0403	0.1412	1093.1052	0.102974	-470.048735	-470.041201	-470.040256	-470.080552	29.452	
O	 0.0424561246	 1.3658424678	 0.2798103011	-0.436029
C	-0.0081878457	 0.0278992781	 0.0468913544	 0.368598
C	-1.1826774431	-0.6332251985	-0.0600341294	-0.108425
N	-1.1471971771	-1.9945009134	-0.2976613426	-0.334677
C	 0.0058767988	-2.7415665874	-0.4361050963	 0.31362
N	-0.0465177194	-4.0054601997	-0.6561054804	-0.567387
C	 1.201929825	-1.8900683673	-0.2961376202	 0.355314
O	 2.365104947	-2.5492192748	-0.4193368779	-0.400193
N	 1.1962435532	-0.6189662125	-0.0744612676	-0.427637
H	 0.9780224639	 1.5976862922	 0.3136721202	 0.296853
H	-2.1504228158	-0.163817197	 0.0286918165	 0.137498
H	-2.0072321324	-2.515041688	-0.3822862427	 0.268318
H	 0.8951612378	-4.381829007	-0.728427203	 0.22881
H	 3.0713822833	-1.8969932125	-0.3106261921	 0.305338
102.2035	231.9778	299.649	327.5573	347.3217	355.6556	421.6508	491.6458	540.3882	561.3672	596.9772	620.9399	645.8978	711.2187	758.0897	788.5304	803.9568	825.3387	1001.0447	1065.4054	1182.4561	1218.0199	1225.2236	1316.4883	1378.4543	1414.5951	1456.6408	1481.2761	1618.582	1689.6148	1726.3947	3250.2455	3533.8807	3630.6984	3770.9383	3810.1778
OC1=CNC(=N)C(O)=N1	OC1=NC(=C(NC1)[NH])O	
InChI=1S/C4H5N3O2/c5-3-4(9)7-2(8)1-6-3/h1H,(H2,5,6)(H2,7,8,9)	InChI=1S/C4H6N3O2/c5-3-4(9)7-2(8)1-6-3/h5-6H,1H2,(H2,7,8,9)
