20
gdb 62696	3.11135	1.67415	1.42925	0.6305	85.68	-0.205	-0.0321	0.1729	1000.5197	0.170251	-365.900342	-365.892399	-365.891454	-365.931955	32.563	
C	 0.1882003273	 1.4022850402	 0.2814836697	-0.443361
C	-0.0211404757	-0.0969374167	 0.159221001	 0.321711
C	-1.5046405437	-0.451365271	 0.1358639677	-0.414391
N	 0.6111458443	-0.7606631128	-1.1019903893	-0.176347
C	 2.0777903622	-1.283515714	-0.9790247086	-0.024353
C	 3.0965958991	-0.8880635778	 0.1079255595	-0.26777
C	 2.1368537039	-0.5875870558	 1.2520560728	-0.134239
C	 0.9120670794	-1.0612494179	 0.9311980444	-0.022414
C	 0.9662391028	-1.9587828641	-0.3065160002	-0.077558
H	 1.2382378654	 1.6771925618	 0.164161359	 0.118411
H	-0.3930601814	 1.9185569903	-0.4895900861	 0.123495
H	-0.1549111213	 1.7636878772	 1.2566868913	 0.123252
H	-2.0036029102	 0.0360593475	-0.7073099816	 0.121366
H	-1.6574986382	-1.5295134435	 0.0498592034	 0.120218
H	-1.9799777452	-0.1114561415	 1.0615723211	 0.117438
H	 2.4131755157	-1.571831929	-1.9716360687	 0.098281
H	 3.8178418637	-1.7104084637	 0.2240121079	 0.115659
H	 3.6791444771	 0.0151781223	-0.1084722401	 0.114362
H	 2.2594490207	 0.3344648778	 1.8122429614	 0.094706
H	 0.5397727443	-2.9415873693	-0.4729701145	 0.091533
171.7675	192.0708	233.3733	237.4374	333.9088	352.0146	375.0663	448.801	495.741	587.5358	623.9337	682.1675	726.8624	780.0144	821.3577	862.3252	872.7722	898.4933	925.1829	942.1588	969.0922	995.1301	1003.7943	1008.2952	1047.2128	1072.3131	1137.8422	1147.3333	1204.0133	1219.4556	1236.9684	1265.5573	1276.5212	1310.4956	1361.896	1400.7626	1415.4317	1470.2221	1476.7458	1479.5274	1496.1342	1502.551	1572.258	2998.6075	3037.5934	3043.3036	3057.9535	3101.9224	3110.5481	3125.6599	3129.9606	3156.4171	3165.5835	3171.5875
CC1(C)N2C3CC=C1C23	CC1(C)N2[C@H]3C[CH][C]1[C@@H]23	
InChI=1S/C8H11N/c1-8(2)5-3-4-6-7(5)9(6)8/h3,6-7H,4H2,1-2H3	InChI=1S/C8H11N/c1-8(2)5-3-4-6-7(5)9(6)8/h3,6-7H,4H2,1-2H3/t6-,7+,9?/m0/s1
