23
gdb 92364	2.08466	1.85586	1.47108	1.3285	83.41	-0.2466	0.0753	0.3219	1067.4265	0.207823	-388.323522	-388.315104	-388.314159	-388.355942	34.246	
C	-0.2561141183	 1.563079406	-0.0319655513	-0.4226
C	 0.025360767	 0.061413153	-0.006672772	 0.027743
C	 0.7932873539	-0.4899269936	-1.2480328524	-0.250047
C	 1.9190097752	-1.3014475559	-0.5697755435	 0.079799
C	 3.0029593196	-0.3416845533	-0.0311989283	-0.218706
C	 2.2723351015	 0.2569525448	 1.2052448487	-0.257142
C	 0.9095236755	-0.4834125257	 1.1579152811	 0.385202
C	 0.2055933107	-0.6484571027	 2.4869103396	-0.483483
O	 1.294759566	-1.7704115145	 0.6321656532	-0.293635
H	 0.652191947	 2.1494381481	-0.2052270308	 0.116047
H	-0.9574828982	 1.8087021185	-0.8362428577	 0.115906
H	-0.7040018423	 1.9069315042	 0.907121806	 0.11346
H	-0.9328773524	-0.4634187425	 0.0740931372	 0.073082
H	 0.1568659244	-1.132427907	-1.8614473978	 0.099632
H	 1.1824397126	 0.306088318	-1.8907787943	 0.091447
H	 2.2933320228	-2.1503571346	-1.1427721254	 0.069777
H	 3.8960222058	-0.8968856629	 0.2655811433	 0.101352
H	 3.3033722939	 0.4101503464	-0.7660153461	 0.093252
H	 2.7933116712	 0.0086528063	 2.1335510255	 0.099295
H	 2.1728390759	 1.3436689081	 1.165901191	 0.098119
H	-0.0900383676	 0.3249996896	 2.8909264528	 0.117477
H	-0.6938908657	-1.2613557613	 2.3751287932	 0.121987
H	 0.8638305916	-1.1329113591	 3.214052308	 0.122035
96.2265	194.0908	217.0179	235.506	292.9387	317.0442	373.1613	393.3155	486.6987	540.4757	578.0423	606.1523	723.4987	804.7912	827.1941	848.7859	854.7571	887.6888	912.0933	931.2839	955.1152	987.0956	1006.5141	1018.9244	1069.7775	1090.7922	1108.6109	1128.2018	1154.9275	1194.5736	1208.0695	1219.7952	1247.9081	1276.6004	1304.9348	1315.5602	1328.3182	1336.9253	1355.2292	1375.8344	1407.6524	1412.946	1479.0426	1486.6652	1492.9449	1494.9923	1496.9432	1505.0754	1515.4317	3028.4023	3034.1969	3039.0371	3052.9959	3058.6893	3069.4144	3091.4226	3095.0817	3099.7167	3100.8947	3109.7223	3113.0572	3114.9749	3120.1792
CC1CC2CCC1(C)O2	C[C@H]1C[C@H]2CC[C@]1(C)O2	
InChI=1S/C8H14O/c1-6-5-7-3-4-8(6,2)9-7/h6-7H,3-5H2,1-2H3	InChI=1S/C8H14O/c1-6-5-7-3-4-8(6,2)9-7/h6-7H,3-5H2,1-2H3/t6-,7+,8-/m0/s1
