17
gdb 89885	3.98247	0.8681	0.80562	1.7785	70.89	-0.2603	-0.0421	0.2183	1408.2256	0.133056	-458.931561	-458.922842	-458.921897	-458.965591	32.111	
O	 0.4498966159	 1.2155377236	-0.0952108709	-0.427162
C	 0.091249227	-0.1370987061	-0.1036614792	 0.163284
C	 0.5001047263	-1.05058193	 1.0959138035	-0.352296
C	-0.8947381046	-1.6794836443	 1.0028547343	 0.417756
C	-1.4028478189	-0.5401532321	 0.1161802258	-0.348208
O	-1.0809821462	-3.0344227813	 0.6559295228	-0.270017
C	-1.6403619114	-2.5836137597	 1.9036981982	-0.156968
C	-0.9724137179	-3.1131813146	 3.1273474191	 0.151494
O	-1.504921487	-3.1771484753	 4.2060562519	-0.249153
H	 0.1357080567	 1.611109727	 0.7252514285	 0.28054
H	 0.4691552183	-0.538463173	-1.0471046046	 0.111382
H	 1.3523458858	-1.7196022953	 0.9626830629	 0.126884
H	 0.6368408097	-0.4698169004	 2.014765029	 0.110393
H	-1.9443526977	 0.2206617318	 0.6890445661	 0.109023
H	-1.9943983777	-0.8240890594	-0.7562462833	 0.127748
H	-2.7263916496	-2.515478213	 1.945904274	 0.116638
H	 0.0767846713	-3.4410029878	 2.956102332	 0.088662
50.2995	107.8056	143.7423	213.0817	289.4843	339.0123	348.8903	389.2322	426.5982	458.8537	496.7009	563.1361	726.6573	796.3018	829.8892	906.8055	951.7757	962.4686	985.6842	1033.5615	1050.2208	1080.7243	1115.5484	1131.4166	1172.9189	1178.5391	1204.3595	1234.7976	1275.3931	1290.6707	1333.6646	1390.9774	1433.8725	1451.1566	1458.265	1492.0999	1823.8311	2894.9585	3047.3172	3052.5206	3087.4054	3122.7664	3125.3162	3134.9853	3801.1649
OC1CC2(C1)OC2C=O	O[C@H]1C[C@@]2(C1)O[C@H]2C=O	
InChI=1S/C6H8O3/c7-3-5-6(9-5)1-4(8)2-6/h3-5,8H,1-2H2	InChI=1S/C6H8O3/c7-3-5-6(9-5)1-4(8)2-6/h3-5,8H,1-2H2/t4-,5-,6-/m0/s1
