18
gdb 15622	3.32077	1.70616	1.24132	3.1281	75.3	-0.2346	-0.0377	0.1969	1016.8851	0.154126	-347.856779	-347.848693	-347.847749	-347.889692	29.501	
C	-0.1781664137	 1.5502492733	-0.0224808178	-0.378671
C	 0.0784209147	 0.0335863911	 0.0368991187	-0.292147
C	 0.7872300407	-0.4796710553	-1.1794223927	 0.226548
C	 2.0411902796	-0.9380698553	-1.3036165579	-0.163426
C	 2.4038013152	-1.3673195016	-2.7035739019	-0.264469
C	 1.1220748638	-1.1048109914	-3.5170467878	-0.324783
C	 0.1118578463	-0.5476874418	-2.5046102252	 0.334631
O	-1.0322074729	-0.2277838255	-2.7405859589	-0.337052
H	 0.7630668132	 2.1061795381	-0.0816809598	 0.111753
H	-0.7813787586	 1.7999622664	-0.8985566675	 0.146376
H	-0.714727623	 1.8849157071	 0.8703809556	 0.112972
H	 0.6543557965	-0.216273679	 0.9346834285	 0.098107
H	-0.887298395	-0.4799992393	 0.1172309449	 0.120393
H	 2.753478753	-1.0097068588	-0.4867166614	 0.104949
H	 3.2650083359	-0.8006091163	-3.0783805657	 0.119064
H	 2.7064191574	-2.4214898433	-2.7246452423	 0.119365
H	 1.2655491657	-0.3773865957	-4.3215107109	 0.133226
H	 0.7129173014	-2.0074974026	-3.9798178179	 0.133164
69.1814	91.6735	157.2474	203.8088	267.9618	294.6378	419.5754	480.6957	591.3053	653.4299	678.3818	759.56	797.7439	809.3689	893.3695	925.7172	945.5336	1012.9088	1026.0089	1051.7586	1094.4733	1107.0914	1151.3669	1213.1087	1231.3449	1273.9644	1278.1205	1321.3462	1354.5504	1364.7304	1404.0266	1450.7674	1476.536	1484.5685	1497.6347	1511.1217	1694.1469	1801.825	3028.6015	3031.2199	3040.7459	3052.2765	3066.2475	3071.5626	3105.9183	3108.1758	3131.291	3176.754
CCC1=CCCC1=O	CCC1=CCCC1=O	
InChI=1S/C7H10O/c1-2-6-4-3-5-7(6)8/h4H,2-3,5H2,1H3	InChI=1S/C7H10O/c1-2-6-4-3-5-7(6)8/h4H,2-3,5H2,1H3
