14
gdb 128378	2.79891	1.58463	1.01823	2.4547	68.07	-0.2448	-0.0616	0.1832	1091.1279	0.101359	-470.007121	-469.999053	-469.998109	-470.040532	28.381	
C	-0.0285401596	 1.4278609483	 0.0841956332	-0.319868
N	 0.0366155942	-0.0087332144	-0.07508448	-0.324854
C	 0.6370678154	-0.61800483	-1.1069361646	 0.32676
N	 1.2093949486	 0.0882965724	-2.045697275	-0.223972
O	 1.800562717	-0.6877630202	-3.0676233082	-0.192622
C	 1.7449940201	-2.0080229484	-3.019943724	 0.173143
N	 1.2010927355	-2.762912494	-2.130778097	-0.331401
C	 0.5868170423	-2.1178671759	-1.0745189619	 0.376014
O	 0.0295997274	-2.683815861	-0.1564059424	-0.351072
H	 0.9756542454	 1.862641226	 0.1415094695	 0.148201
H	-0.5456986628	 1.8938569063	-0.7620461368	 0.148184
H	-0.5696037545	 1.6563285915	 1.0031047149	 0.136485
H	-0.3740167186	-0.6432763504	 0.5937488235	 0.275861
H	 2.2502963298	-2.4333796402	-3.8851709213	 0.159141
65.5283	100.7228	130.138	188.4204	276.3396	367.6757	457.3947	481.9983	513.8495	553.2347	594.9495	617.6407	746.6134	833.0333	933.6182	951.1606	980.6765	1050.3877	1147.9902	1160.7887	1196.5028	1280.8516	1338.012	1424.1532	1458.332	1476.2957	1512.5521	1574.1936	1606.6444	1641.2576	1785.6768	3031.0508	3082.5081	3144.7808	3166.2838	3620.1677
CNC1=NOC=NC1=O	CNc1nocnc1=O	
InChI=1S/C4H5N3O2/c1-5-3-4(8)6-2-9-7-3/h2H,1H3,(H,5,7)	InChI=1S/C4H5N3O2/c1-5-3-4(8)6-2-9-7-3/h2H,1H3,(H,5,7)
