18
gdb 50728	2.57154	1.5347	0.99411	3.4335	76.21	-0.2388	0.0134	0.2521	1166.0329	0.151337	-435.329074	-435.320877	-435.319933	-435.362239	30.609	
N	 0.9522162888	-0.1110883154	-0.2956995845	-0.489909
C	-0.1893862644	 0.3465192597	 0.0361113988	 0.092709
N	-1.3108986021	-0.4688823954	 0.0551116122	-0.144606
C	-1.1688886469	-1.8750318174	-0.333125878	-0.1456
C	-2.2431289114	-2.7258126511	 0.33240248	-0.226876
C	-3.6187259626	-2.1449650754	 0.0228804876	-0.152688
N	-3.6202283253	-0.7331665342	 0.3659157528	-0.369314
C	-2.5488122528	 0.1174341486	 0.3642597609	 0.495977
O	-2.6645993131	 1.3015878056	 0.6283180574	-0.414752
H	 1.6495342371	 0.6279524227	-0.2361619353	 0.226725
H	-0.4313363147	 1.3674726705	 0.3305196184	 0.143995
H	-1.2292330009	-1.9648906094	-1.4264465059	 0.11541
H	-0.1629827194	-2.1862553904	-0.0473631537	 0.151091
H	-2.1765302586	-3.7547509215	-0.0316573326	 0.113562
H	-2.0862476167	-2.7406886801	 1.4164090189	 0.121456
H	-3.8595494213	-2.2969818143	-1.040483807	 0.110641
H	-4.3964817503	-2.6485530051	 0.6060263989	 0.116301
H	-4.4927629154	-0.2592935972	 0.5339710211	 0.255877
67.9461	116.7008	168.3531	254.4321	270.5734	326.3901	392.0733	464.8748	509.9595	532.1635	612.031	672.8427	755.6156	761.9632	827.3614	894.5763	911.4872	954.2319	1006.9428	1081.2247	1102.9734	1140.7365	1159.455	1182.9164	1227.1557	1256.5308	1301.8602	1332.3745	1365.8383	1379.8988	1399.2695	1400.5305	1444.8019	1472.6396	1484.7887	1521.6045	1528.8798	1709.2384	1790.966	2984.73	3014.5878	3049.9281	3069.1098	3104.2859	3119.192	3143.3902	3508.937	3650.9051
N=CN1CCCNC1=O	[NH][CH]N1CCCNC1=O	
InChI=1S/C5H9N3O/c6-4-8-3-1-2-7-5(8)9/h4,6H,1-3H2,(H,7,9)	InChI=1S/C5H9N3O/c6-4-8-3-1-2-7-5(8)9/h4,6H,1-3H2,(H,7,9)
