20
gdb 103243	2.64627	1.69061	1.27394	2.2858	78.63	-0.1982	0.065	0.2632	1059.8901	0.169258	-403.036109	-403.02744	-403.026495	-403.068942	33.787	
C	 0.2233424501	 1.090823594	-0.3909435214	-0.23562
O	-0.1013991461	 0.0008357684	 0.4458869015	-0.264506
C	-1.3065214383	-0.6327832564	 0.1474409184	 0.3989
C	-2.4551572645	-0.0151660486	 0.9392009739	-0.435742
C	-1.7539747494	-1.1812174587	-1.1951424861	-0.144151
C	-0.7035459611	-1.950210026	-2.0404540067	-0.07364
N	 0.6348994266	-1.8470828398	-1.4089837889	-0.322218
C	-0.3711660543	-2.8210515815	-0.9004093554	-0.068097
C	-1.4258737968	-2.1188830977	-0.0028838486	-0.119931
H	 1.1051729464	 1.5678857771	 0.0442062484	 0.11764
H	 0.4658673146	 0.7504272219	-1.4046859627	 0.116034
H	-0.5858394614	 1.8343074328	-0.4413696413	 0.092958
H	-2.581285575	 1.0385782788	 0.670140517	 0.119176
H	-3.4042248129	-0.5272305157	 0.7569561849	 0.11133
H	-2.2282210316	-0.0665679934	 2.0080366392	 0.126565
H	-2.7308304263	-0.9348212778	-1.5953098207	 0.083396
H	-0.8205799258	-2.1812064856	-3.0914628484	 0.092556
H	 1.269328911	-2.3881363265	-1.9987815405	 0.225595
H	-0.1549816022	-3.8808454793	-0.8689761395	 0.094499
H	-2.119070953	-2.693902006	 0.6005790969	 0.085256
109.6907	147.8036	170.242	222.1249	242.9944	281.1675	351.2856	379.2531	394.7571	584.4042	613.1923	671.0182	732.6075	750.6798	766.5554	846.3652	876.1725	893.4541	905.5179	967.4555	987.2948	1003.3276	1023.656	1040.9634	1084.4121	1091.5065	1126.324	1141.3986	1147.744	1177.5151	1225.0196	1245.6559	1251.9734	1290.5723	1310.9379	1363.5115	1399.5684	1415.2391	1475.5312	1483.8102	1490.254	1499.6166	1502.6362	2991.1714	3038.0367	3060.5656	3106.0141	3113.2703	3117.3086	3166.677	3175.7408	3189.5603	3203.2017	3448.9882
COC1(C)C2C3NC3C12	CO[C@@]1(C)[C@H]2[C@H]3N[C@H]3[C@@H]12	
InChI=1S/C7H11NO/c1-7(9-2)3-4(7)6-5(3)8-6/h3-6,8H,1-2H3	InChI=1S/C7H11NO/c1-7(9-2)3-4(7)6-5(3)8-6/h3-6,8H,1-2H3/t3-,4+,5-,6+,7+
