17
gdb 113531	3.73332	0.99139	0.87686	4.0204	71.82	-0.2416	0.0092	0.2508	1320.4142	0.135292	-455.100163	-455.09139	-455.090446	-455.134064	32.145	
O	 0.0100519486	 1.3366648885	-0.5663841238	-0.413481
C	 0.0131101716	 0.1713080608	 0.2373648547	-0.080084
C	-1.353022358	-0.4630383037	 0.2924054043	-0.071713
O	-1.7416058596	-1.1749347479	-0.904656669	-0.286108
C	-1.5492454299	-1.9127919865	 0.2793600788	 0.351547
C	-0.5743749315	-3.0966836592	 0.4514016517	-0.251185
N	-1.7207259737	-3.8352327701	 1.0179797292	-0.354777
C	-2.602585419	-2.7493362781	 0.9794403794	 0.317488
N	-3.7752697132	-2.4903703714	 1.3680674892	-0.547185
H	-0.3038274342	 1.0749347219	-1.4394710158	 0.29499
H	 0.7469454468	-0.5672137275	-0.1202142637	 0.091658
H	 0.3159938086	 0.490253861	 1.2408022848	 0.117464
H	-2.1511570209	 0.1495586718	 0.710980122	 0.127593
H	-0.1890905045	-3.5220579793	-0.4794376319	 0.127547
H	 0.2497645161	-2.9172266601	 1.1507517757	 0.116794
H	-1.6721939365	-4.5340215114	 1.7446526745	 0.244958
H	-4.2056441306	-3.2804955089	 1.85102989	 0.214494
66.7907	112.6665	147.4539	158.8574	263.2698	286.3411	352.6773	402.0871	441.1658	481.3056	544.9164	633.6038	695.6026	783.3087	826.2171	841.5254	898.1286	983.2197	1004.2506	1009.3821	1047.4619	1085.0298	1098.2498	1102.2176	1149.5259	1169.5177	1225.2385	1232.8831	1315.8478	1323.2653	1361.6055	1388.2497	1423.7161	1489.7573	1513.7237	1522.4121	1801.7144	2989.1187	3037.2961	3072.6269	3093.5448	3129.3328	3467.3036	3611.9051	3801.8115
OCC1OC11CNC1=N	OC[C@H]1O[C@]21CN[C]2[NH]	
InChI=1S/C5H8N2O2/c6-4-5(2-7-4)3(1-8)9-5/h3,8H,1-2H2,(H2,6,7)	InChI=1S/C5H8N2O2/c6-4-5(2-7-4)3(1-8)9-5/h3,8H,1-2H2,(H2,6,7)/t3-,5+/m1/s1
