21
gdb 113701	3.00503	0.96911	0.90798	2.5153	75.09	-0.2587	0.0569	0.3156	1402.8461	0.179088	-461.335665	-461.325165	-461.324221	-461.371244	38.845	
C	 1.7285236815	 0.7618136464	 0.8265980128	-0.432559
C	 2.0248878357	-0.7434686942	 0.7519874525	 0.286153
C	 3.3757238913	-1.0796006773	 1.3915179202	-0.388064
O	 1.0564217839	-1.4643231884	 1.514724601	-0.44569
C	 2.067782626	-1.162703802	-0.7214030376	 0.057181
O	 2.3660151364	-2.5190743821	-1.0476032137	-0.272832
C	 1.1021108053	-1.9834420333	-1.477765175	 0.017797
C	-0.1301249812	-2.6873082321	-0.9577189548	-0.117074
O	-0.4458692182	-3.801303237	-1.7814163134	-0.417978
H	 2.4973689363	 1.3515695785	 0.3188635482	 0.124149
H	 0.7658308464	 0.9959628227	 0.3551882816	 0.111114
H	 1.6865769346	 1.0772841343	 1.8726571005	 0.128848
H	 3.3841881138	-0.7595880075	 2.4367277448	 0.118862
H	 3.5401227617	-2.1585223933	 1.3502412465	 0.142133
H	 4.1940717517	-0.5821950069	 0.862913529	 0.112789
H	 0.1905509439	-1.0823308101	 1.3368650302	 0.28072
H	 2.6413744334	-0.4495459283	-1.3215600784	 0.08351
H	 1.0519211231	-1.8041556143	-2.5549854035	 0.095554
H	 0.0214363005	-2.9782565834	 0.0853305033	 0.123175
H	-0.9975077928	-2.0186190059	-1.0185216545	 0.100952
H	 0.2775041768	-4.431152576	-1.6917138798	 0.291259
41.9795	82.586	159.7813	190.3005	228.5726	244.3422	266.4562	286.7391	346.9638	358.6457	377.8531	391.75	429.4666	465.6735	547.8185	630.9934	738.1916	812.7574	869.3701	933.5093	936.9896	962.3085	973.9713	1014.6529	1057.7134	1072.2179	1118.0366	1135.661	1169.796	1205.8247	1225.4391	1257.1265	1317.5535	1351.8895	1363.4509	1395.433	1403.302	1414.3862	1424.6087	1480.4905	1482.2349	1484.1975	1498.9124	1505.9508	1509.7699	3025.8676	3035.3036	3047.7596	3055.634	3078.9347	3096.5227	3102.8003	3119.706	3124.9609	3137.1331	3809.2226	3811.0548
CC(C)(O)C1OC1CO	CC(C)(O)[C@H]1O[C@H]1CO	
InChI=1S/C6H12O3/c1-6(2,8)5-4(3-7)9-5/h4-5,7-8H,3H2,1-2H3	InChI=1S/C6H12O3/c1-6(2,8)5-4(3-7)9-5/h4-5,7-8H,3H2,1-2H3/t4-,5-/m0/s1
