15
gdb 62290	2.97409	1.71416	1.37081	3.5997	68.04	-0.2592	0.0044	0.2636	928.2394	0.112964	-416.736236	-416.729049	-416.728105	-416.767658	28.115	
O	-0.031726073	 1.3618113528	 0.0763459345	-0.472637
C	 0.0104686765	-0.0442259832	-0.0291088094	 0.304021
C	 0.8560982495	-0.6150770683	 1.0324002894	 0.219201
N	 1.5509930253	-1.0494917407	 1.8478577677	-0.339227
C	-1.4266714354	-0.5432480931	-0.2040657944	-0.064471
C	-1.3185639098	-0.4365626987	-1.6775818337	-0.05793
C	 0.2419869416	-0.5549792406	-1.4893738208	-0.14867
C	-0.0110357346	-2.0633550745	-1.3712916245	-0.172887
N	-1.4542055355	-1.776983216	-1.0501901607	-0.143347
H	 0.8728358632	 1.6958034877	 0.0680998965	 0.295174
H	-2.2597583432	-0.362127608	 0.4603558165	 0.122872
H	-1.9713295424	-0.0315975689	-2.4370993087	 0.113966
H	 1.0383067303	-0.1099154498	-2.0829677763	 0.089637
H	 0.0278569926	-2.5849020719	-2.329933708	 0.122641
H	 0.5384880751	-2.6298124669	-0.612434208	 0.131657
136.0562	154.7557	260.8362	309.9294	329.4124	436.0221	481.4762	533.733	568.1574	645.2605	762.6285	791.5859	811.9137	843.0696	920.035	925.1904	961.6241	990.0605	1003.093	1023.7033	1069.6599	1100.1852	1138.3562	1157.8829	1177.8168	1189.9708	1207.1182	1234.6599	1298.6776	1329.401	1372.927	1510.0533	2347.3017	3054.1013	3118.696	3138.4895	3219.5097	3232.8878	3799.1456
OC1(C#N)C2C3C1CN23	O[C@@]1(C#N)[C@H]2[C@H]3[C@@H]1CN23	
InChI=1S/C6H6N2O/c7-2-6(9)3-1-8-4(3)5(6)8/h3-5,9H,1H2	InChI=1S/C6H6N2O/c7-2-6(9)3-1-8-4(3)5(6)8/h3-5,9H,1H2/t3-,4+,5+,6+,8?/m0/s1
