16
gdb 108710	3.45967	1.09644	0.84134	8.4166	78.91	-0.2134	-0.0603	0.1531	1310.5533	0.123956	-437.937985	-437.929223	-437.928279	-437.971924	31.342	
C	-0.0619239207	 1.4323768676	 0.0943069598	-0.329055
N	 0.0257799177	-0.0089347528	-0.0421358808	-0.353747
C	 0.6200361992	-0.6233192762	-1.0796226595	 0.397932
C	 1.2275436574	-0.0369424497	-2.1575100451	-0.341315
C	 1.7546166345	-1.0285673809	-3.0721974795	 0.304957
O	 2.3487833774	-0.8925836294	-4.120411042	-0.345501
C	 1.4076324441	-2.406975857	-2.4421268723	 0.310473
O	 1.6736363477	-3.4849190519	-2.8956803519	-0.284306
C	 0.660946779	-2.1313417757	-1.13091454	-0.449478
H	 0.9348080333	 1.8868898862	 0.1346129729	 0.148012
H	-0.6083113754	 1.8758746265	-0.7461442874	 0.14816
H	-0.5908554718	 1.6715186501	 1.0178284379	 0.139286
H	-0.3778111466	-0.5811267983	 0.6798878152	 0.258078
H	 1.3170016629	 1.0265088644	-2.3294215646	 0.106103
H	 1.195824708	-2.5674032454	-0.278628984	 0.145178
H	-0.3398074566	-2.5793728874	-1.1505970186	 0.145224
67.4104	112.9699	136.9917	188.381	190.8083	315.1649	361.0166	398.181	400.8214	553.859	555.4696	600.113	657.8202	721.0789	734.3383	850.4835	902.1035	959.1054	1055.4299	1068.2997	1145.5162	1156.0313	1170.8964	1213.8044	1247.0085	1308.2129	1341.0685	1443.7865	1460.7669	1480.9712	1514.6893	1557.6384	1643.6432	1798.6559	1859.9199	3025.3759	3035.1225	3072.8699	3078.3032	3141.4811	3229.78	3655.0402
CNC1=CC(=O)C(=O)C1	CNC1=CC(=O)C(=O)C1	
InChI=1S/C6H7NO2/c1-7-4-2-5(8)6(9)3-4/h2,7H,3H2,1H3	InChI=1S/C6H7NO2/c1-7-4-2-5(8)6(9)3-4/h2,7H,3H2,1H3
