18
gdb 50350	3.57195	1.29934	1.22039	3.7958	72.77	-0.2415	0.0288	0.2703	1062.8373	0.150639	-439.114695	-439.107518	-439.106574	-439.146941	27.926	
O	-0.0154970666	-0.012788085	 0.2064474315	-0.340312
C	 0.039687694	 1.1962358098	 0.1067885141	 0.131903
N	 1.1863164803	 1.9038349325	-0.0208980313	-0.023175
C	 2.5299812954	 1.3022985925	 0.0261102787	-0.167487
C	 3.3887135774	 2.5818939903	 0.0216369724	 0.078531
C	 2.5542811991	 3.5409356645	 0.8864188616	-0.234114
C	 1.3358386005	 3.3625805922	-0.0444174184	-0.052377
C	 1.9790394959	 3.7319007023	-1.3932294009	-0.06797
O	 3.3029413736	 3.170542795	-1.2867221485	-0.280426
H	-0.8564531421	 1.8499159318	 0.1109487308	 0.066983
H	 2.6552634425	 0.6899727686	 0.926043374	 0.12353
H	 2.7272737523	 0.6816825742	-0.8517187415	 0.132958
H	 4.4387126335	 2.437677878	 0.2706304388	 0.091931
H	 2.368406712	 3.1858194221	 1.9015087302	 0.115537
H	 2.9582674599	 4.5546247166	 0.8989387025	 0.116153
H	 0.4087011642	 3.8798241737	 0.1987143782	 0.091005
H	 1.4497803243	 3.2840758218	-2.2404178029	 0.113259
H	 2.0447996436	 4.817528079	-1.5419354593	 0.104072
44.3552	201.3529	228.8538	321.1328	386.7425	407.8658	478.2936	531.6305	647.0673	769.9781	811.9874	841.2548	871.152	889.6151	926.583	952.3643	960.0743	985.834	1019.8407	1030.2012	1055.0228	1091.8928	1139.2639	1176.1926	1184.5296	1199.9389	1228.7615	1271.1929	1291.7652	1296.1608	1318.8487	1348.5287	1378.9796	1415.1824	1452.3874	1482.9715	1506.4828	1522.9178	1789.376	2922.5401	3017.9934	3046.09	3076.4551	3082.1056	3100.5053	3135.0665	3141.238	3144.4729
O=CN1CC2CC1CO2	O=CN1C[C@@H]2C[C@H]1CO2	
InChI=1S/C6H9NO2/c8-4-7-2-6-1-5(7)3-9-6/h4-6H,1-3H2	InChI=1S/C6H9NO2/c8-4-7-2-6-1-5(7)3-9-6/h4-6H,1-3H2/t5-,6-/m0/s1
