19
gdb 102392	1.9263	1.30708	1.23642	1.6099	71.75	-0.2485	0.011	0.2595	1190.0512	0.157329	-456.328681	-456.317985	-456.317041	-456.364308	37.7	
C	 0.5524921599	 0.8109838134	-0.5219829833	-0.261912
O	-0.5032795393	 0.6363472535	 0.4206608722	-0.276263
C	-1.4844515707	-0.3437197092	 0.1512731471	 0.174503
C	-2.3359987618	-0.423631797	 1.453008978	-0.17354
N	-1.6012707467	-0.7131265744	 2.6685411092	-0.506102
C	-2.3914796998	 0.0102211337	-1.0536658636	-0.09568
O	-1.7633613341	-0.0929803459	-2.3136799112	-0.414573
C	-0.8642135189	-1.6677133418	-0.1048836103	 0.232639
N	-0.4101955427	-2.7070374421	-0.3311269248	-0.347049
H	 1.2181869099	 1.5571548548	-0.083423539	 0.131278
H	 1.1102615852	-0.1226200866	-0.6708542551	 0.129994
H	 0.1832175446	 1.1614682405	-1.4889746797	 0.144001
H	-2.8226956871	 0.5530299683	 1.5562336688	 0.122695
H	-3.1211574443	-1.1734572884	 1.316313973	 0.119927
H	-1.2161557294	-1.6527236589	 2.6323387034	 0.239374
H	-0.8134239008	-0.0757269427	 2.7368261949	 0.2413
H	-3.3001502361	-0.6082887301	-1.0024242154	 0.107382
H	-2.6826956404	 1.0580211809	-0.9363977312	 0.132347
H	-1.5658597977	-1.0220708479	-2.479696063	 0.299679
88.8675	101.2226	107.972	142.6601	160.8605	187.1836	232.5834	248.0196	335.1082	354.3358	365.8154	397.6677	417.1379	463.9425	601.7823	660.1937	695.524	822.2909	901.5702	911.0147	1019.8776	1047.7358	1077.709	1111.7356	1143.8303	1171.7275	1188.736	1197.3916	1229.0532	1277.9101	1369.8469	1392.418	1405.5001	1420.5842	1470.2122	1481.8299	1485.3224	1488.3703	1515.2381	1670.2443	2339.7545	2994.2451	3020.8491	3043.0702	3093.0385	3100.0606	3101.367	3137.0286	3494.9041	3575.6981	3798.3161
COC(CN)(CO)C#N	CO[C@@](CN)(CO)C#N	
InChI=1S/C5H10N2O2/c1-9-5(2-6,3-7)4-8/h8H,2,4,6H2,1H3	InChI=1S/C5H10N2O2/c1-9-5(2-6,3-7)4-8/h8H,2,4,6H2,1H3/t5-/m1/s1
