14
gdb 25382	3.01692	1.40215	0.95725	2.1997	79.32	-0.2243	-0.0999	0.1244	1132.1175	0.103051	-432.910612	-432.903344	-432.902399	-432.942656	27.15	
N	-0.1025416641	 1.2927884485	-0.3287489651	-0.547981
C	 0.0074725278	 0.0657121442	 0.0193703853	 0.350182
N	-1.1260659215	-0.6650536515	 0.3595460324	-0.392985
C	-1.0787087659	-1.9724003454	 0.7382005383	 0.283374
C	-2.3609881491	-2.6172782876	 1.0696463267	 0.101882
O	-3.418821276	-2.0312434246	 1.0147696925	-0.278604
C	 0.1170256894	-2.6220198656	 0.7964672717	-0.108447
N	 1.2971117836	-1.9875006049	 0.4793883953	-0.231148
C	 1.2339780314	-0.7459307314	 0.1218078326	-0.041151
H	 0.8124832534	 1.6844304342	-0.5451326202	 0.219984
H	-2.0313446568	-0.2104361592	 0.32636981	 0.280239
H	-2.2840539447	-3.6791822296	 1.3729776698	 0.104059
H	 0.1764904953	-3.6613057172	 1.0950607379	 0.130438
H	 2.1663395474	-0.2411001097	-0.1297467371	 0.130156
119.7151	133.9103	181.1437	271.0068	411.3095	445.0886	460.3607	555.6808	568.2206	663.8942	710.293	738.2317	748.2707	797.3075	849.1326	955.2389	969.0814	1014.2951	1050.041	1107.095	1146.81	1222.3708	1343.9504	1377.9257	1391.4677	1413.4951	1520.2031	1563.1336	1650.826	1699.2411	1780.8799	2952.3845	3139.052	3209.6154	3500.9958	3572.288
N=C1NC(C=O)=CN=C1	[NH]c1[nH]c(C=O)cnc1	
InChI=1S/C5H5N3O/c6-5-2-7-1-4(3-9)8-5/h1-3H,(H2,6,8)	InChI=1S/C5H10N3O/c6-5-2-7-1-4(3-9)8-5/h3-8H,1-2H2
