16
gdb 83504	3.05882	1.51688	1.47996	3.4215	63.83	-0.2408	0.011	0.2519	936.8372	0.126789	-475.047316	-475.040318	-475.039374	-475.078467	28.097	
O	 0.0477509455	 1.3938234645	 0.0981864071	-0.450669
C	 0.008612686	-0.0014759459	 0.0124065778	 0.16996
C	-1.3652938215	-0.6188914987	-0.4079699767	-0.086806
C	-1.4941584842	-0.0159252359	-1.818309422	-0.092301
O	-0.127992767	-0.0104295542	-2.2925871	-0.297322
C	 0.67944072	-0.5941073845	-1.2333068018	-0.08825
C	 0.2878296948	-2.0809256788	-1.1328152786	 0.434248
O	 0.8794306061	-3.065368116	-1.5021129644	-0.379373
N	-0.9600340846	-2.0160900595	-0.5394258993	-0.306053
H	 0.1354268213	 1.7347256296	-0.8009775808	 0.298828
H	 0.360897405	-0.4236012088	 0.9551444252	 0.11016
H	-2.2056572679	-0.4664453394	 0.2663198746	 0.098535
H	-2.1154708381	-0.6270982688	-2.4800785973	 0.114223
H	-1.8802026166	 1.0096112677	-1.7992009794	 0.112417
H	 1.7279485741	-0.3913257437	-1.4345156042	 0.105998
H	-1.6044462828	-2.7912172776	-0.5842679804	 0.256404
144.3283	243.3284	270.2254	311.0889	416.1474	450.0893	464.1021	475.9335	559.4893	635.1835	716.3337	785.1139	830.4819	872.3491	883.702	897.8701	950.6221	996.6929	1012.919	1026.2194	1066.662	1119.6011	1161.0888	1204.9522	1212.6424	1220.5555	1275.585	1291.456	1310.0952	1333.166	1363.7517	1397.2199	1428.68	1516.9733	1856.6858	3035.9731	3087.128	3111.3419	3146.5233	3170.2277	3623.2353	3778.1386
OC1C2COC1C(=O)N2	O[C@H]1[C@H]2CO[C@@H]1C(=O)N2	
InChI=1S/C5H7NO3/c7-3-2-1-9-4(3)5(8)6-2/h2-4,7H,1H2,(H,6,8)	InChI=1S/C5H7NO3/c7-3-2-1-9-4(3)5(8)6-2/h2-4,7H,1H2,(H,6,8)/t2-,3+,4+/m1/s1
