20
gdb 79819	2.08681	1.93383	1.63309	2.1868	76.88	-0.2311	0.0654	0.2965	976.969	0.171914	-403.111634	-403.103685	-403.102741	-403.143417	32.184	
C	-0.2677611406	 1.5912651409	 0.0431289242	-0.433016
C	 0.0363126302	 0.0964837583	 0.0136857813	-0.038822
C	 0.5844944965	-0.5999450383	-1.2449187973	-0.067131
C	 1.4752002101	-1.4745861988	-0.4234471475	-0.099194
N	 2.0503087777	-0.5564903816	-1.3878702473	-0.100742
C	 2.7838483872	 0.5176174996	-0.6775248124	-0.163969
C	 2.4547755767	 0.371486188	 0.8297520809	-0.286753
C	 1.232412156	-0.5538716753	 0.8076414149	 0.373698
O	 0.9321374759	-1.2186911811	 2.0037617971	-0.496332
H	 0.591153002	 2.2072073358	-0.2353786816	 0.118765
H	-1.0781001636	 1.8273950339	-0.6556747602	 0.12024
H	-0.5977892344	 1.9085972654	 1.0393592375	 0.109133
H	-0.8569834773	-0.4613401283	 0.3186195598	 0.084782
H	 0.0156493197	-0.8334780505	-2.1392240079	 0.088338
H	 1.6766835355	-2.5388565819	-0.4318792086	 0.094056
H	 3.8510354909	 0.3760998855	-0.8711012825	 0.110469
H	 2.5047422778	 1.4913997576	-1.0887663013	 0.108996
H	 3.268282327	-0.1174121714	 1.3758882849	 0.10494
H	 2.2498756275	 1.332020958	 1.3147448989	 0.093261
H	 0.7723823053	-0.5591273957	 2.6867645471	 0.279281
188.2884	197.7561	216.8004	235.7168	253.1599	331.9397	369.0343	463.5418	541.4699	587.4269	644.1514	711.73	727.4754	786.0328	856.1247	860.1182	876.6726	920.2071	937.279	963.3441	1002.9071	1036.4066	1045.1768	1088.8076	1101.4453	1125.1446	1155.7179	1179.4778	1197.0835	1214.7106	1225.7429	1258.324	1270.6804	1297.607	1327.3008	1370.0267	1378.0045	1395.1725	1412.8269	1484.5588	1496.4654	1503.1793	1514.5487	3029.1356	3038.8899	3040.4417	3057.691	3079.3766	3085.6701	3101.0747	3118.3904	3158.5452	3190.8148	3811.8666
CC1C2C3N2CCC13O	C[C@H]1[C@@H]2[C@H]3N2CC[C@@]13O	
InChI=1S/C7H11NO/c1-4-5-6-7(4,9)2-3-8(5)6/h4-6,9H,2-3H2,1H3	InChI=1S/C7H11NO/c1-4-5-6-7(4,9)2-3-8(5)6/h4-6,9H,2-3H2,1H3/t4-,5+,6+,7+,8?/m0/s1
