18
gdb 11251	5.2117	1.2816	1.13084	0.8818	79.53	-0.2439	0.0174	0.2613	1085.5396	0.153493	-310.650187	-310.642132	-310.641188	-310.682642	30.626	
C	 0.5972088114	 1.640948656	-0.0826451058	-0.389656
C	-0.1151841695	 0.2923096204	 0.1237551799	-0.024733
C	 0.0927022039	-0.7070932434	-1.0471998035	-0.233953
C	 1.2064034511	-1.6950871454	-0.5742843542	-0.18946
C	 1.1648863627	-1.529862864	 0.9390617635	-0.07023
C	 0.4483355468	-0.4710519761	 1.3032421134	-0.073721
C	 1.0111701468	-3.0659110689	-1.0339128619	 0.315053
C	 0.8452928676	-4.1959347638	-1.4099644531	-0.470168
H	 1.6678200975	 1.4956703083	-0.2633684736	 0.117179
H	 0.176737286	 2.1785864044	-0.9390109182	 0.114004
H	 0.4938902843	 2.2819585882	 0.7992557661	 0.113513
H	-1.1842922016	 0.4963605996	 0.2632640877	 0.075988
H	-0.8240791465	-1.2764822729	-1.2183803097	 0.115695
H	 0.354913835	-0.2129242651	-1.9862235654	 0.101636
H	 2.1887172483	-1.3594688903	-0.9405047962	 0.10873
H	 1.6979990132	-2.2039610173	 1.5988673573	 0.103585
H	 0.3140202939	-0.1343155653	 2.3261416952	 0.093976
H	 0.7003697389	-5.1937283643	-1.7423713515	 0.192563
60.1829	135.681	183.2006	240.0929	285.6124	339.5103	454.1226	502.5195	524.1736	612.9902	629.8746	659.3399	735.332	779.5326	830.55	860.5879	920.5579	937.5386	977.2281	1004.3834	1044.8736	1058.5222	1096.1853	1123.861	1138.3691	1207.4635	1273.4389	1277.0308	1314.2404	1323.9449	1353.5303	1374.9295	1407.5361	1488.3887	1496.9673	1498.3382	1687.9403	2234.1362	2981.4453	3018.3959	3027.59	3066.2688	3097.9414	3100.2156	3112.4431	3180.1224	3213.1486	3505.5129
CC1CC(C=C1)C#C	C[C@H]1C[C@@H](C=C1)C#C	
InChI=1S/C8H10/c1-3-8-5-4-7(2)6-8/h1,4-5,7-8H,6H2,2H3	InChI=1S/C8H10/c1-3-8-5-4-7(2)6-8/h1,4-5,7-8H,6H2,2H3/t7-,8-/m1/s1
