14
gdb 132032	2.35521	1.83441	1.03122	5.6943	70.82	-0.1881	-0.0054	0.1827	1048.7232	0.101244	-477.9912	-477.983259	-477.982315	-478.023565	29.815	
O	-0.0741967335	 1.3447049509	 0.1561959011	-0.417177
C	-0.0260039971	-0.0064981721	 0.0349384408	 0.165983
C	 1.1389148722	-0.6846478578	-0.0414011375	 0.248828
F	 2.3238238345	-0.0605644487	-0.0018301917	-0.079965
N	 1.2279577279	-2.0486525288	-0.1644394059	-0.403445
C	 0.0729699391	-2.7847204249	-0.2143672751	 0.007748
C	-1.1344174025	-2.1820885765	-0.1441685208	-0.213148
C	-1.2999091078	-0.7347862093	-0.012751652	 0.233794
N	-2.4067342591	-0.0778100902	 0.0609358706	-0.547467
H	 0.8285061026	 1.6833378805	 0.1738172205	 0.297515
H	 2.1390802863	-2.4710611949	-0.214176024	 0.273089
H	 0.2033917073	-3.8545428241	-0.3116099459	 0.13516
H	-2.0285622206	-2.7932200178	-0.1865652419	 0.100619
H	-3.1943433493	-0.7279587066	 0.0136170918	 0.198467
120.4513	140.101	210.6281	290.762	293.9969	335.9992	388.5232	490.0495	507.7549	527.745	562.7906	563.4419	698.1693	711.7423	788.1778	860.8898	864.9974	924.1231	1003.7998	1087.3973	1157.7102	1211.8992	1270.2787	1297.447	1339.1358	1424.6896	1439.9104	1551.956	1622.7634	1679.7559	1733.8112	3195.7293	3223.5137	3439.2436	3675.2268	3806.3174
OC1=C(F)NC=CC1=N	OC1=C(F)NCC=C1[NH]	
InChI=1S/C5H5FN2O/c6-5-4(9)3(7)1-2-8-5/h1-2,9H,(H2,7,8)	InChI=1S/C5H6FN2O/c6-5-4(9)3(7)1-2-8-5/h1,7-9H,2H2
