23
gdb 58588	2.50534	1.35266	1.19018	1.6256	80.77	-0.2471	0.0747	0.3218	1199.7224	0.205378	-425.4456	-425.43593	-425.434986	-425.479713	37.447	
C	-0.0253933886	 1.5947580474	-0.1267261871	-0.416088
C	-0.0225633814	 0.0810090064	 0.1014644079	 0.098109
O	 0.5465806036	-0.2267925858	 1.3676470266	-0.441366
C	-1.4223018232	-0.5762612165	 0.0004245291	 0.400134
C	-2.18501137	-0.1553799744	-1.2585421685	-0.441405
C	-1.3445453661	-2.1118415903	 0.1418596385	-0.270122
C	-2.5912423611	-2.4505705201	 0.9704225354	-0.231985
C	-2.6748836548	-1.2412270909	 1.9039110516	-0.071028
O	-2.1659120809	-0.1296569412	 1.1629510941	-0.325511
H	 0.9708081693	 1.9904255107	 0.0869311933	 0.12015
H	-0.2849672589	 1.8558306114	-1.1565544143	 0.112742
H	-0.7430463099	 2.0814094019	 0.5420592271	 0.125075
H	 0.6314906875	-0.3977508665	-0.6381013946	 0.081536
H	-0.1068705757	 0.0768053446	 2.0115127251	 0.282422
H	-1.5778671303	-0.3164837428	-2.1563350058	 0.112498
H	-3.1051547372	-0.7382542618	-1.3633852815	 0.11175
H	-2.4611245226	 0.9000934835	-1.2103802047	 0.12806
H	-1.3220639192	-2.6125755596	-0.8291537914	 0.097529
H	-0.4392315285	-2.3776138174	 0.693864577	 0.122
H	-3.4817367258	-2.5078213427	 0.335810325	 0.106341
H	-2.5064297729	-3.3951315843	 1.513315935	 0.103852
H	-3.6945104008	-1.0052679586	 2.2261053276	 0.104551
H	-2.0626887525	-1.4014455631	 2.8041358845	 0.090757
72.0237	93.6783	188.0461	223.1995	247.4613	263.6302	294.5844	348.7721	357.8236	383.2795	464.3562	503.9437	537.5516	607.2377	638.8512	750.5724	857.2827	863.5834	885.0787	916.3178	935.8672	941.1916	1000.7016	1015.0025	1028.5555	1069.8784	1083.0032	1106.6713	1149.6837	1192.404	1196.7038	1237.5572	1238.3195	1269.354	1299.8674	1331.0273	1347.0934	1357.6853	1390.2027	1400.7896	1406.1603	1428.0329	1479.2248	1488.9758	1490.7251	1498.5679	1500.487	1507.0027	1527.1017	2986.6766	3032.9551	3037.1764	3041.2587	3049.3505	3064.5256	3068.5286	3100.8402	3103.7381	3114.4522	3118.3671	3121.5878	3128.549	3767.4934
CC(O)C1(C)CCCO1	C[C@@H](O)[C@@]1(C)CCCO1	
InChI=1S/C7H14O2/c1-6(8)7(2)4-3-5-9-7/h6,8H,3-5H2,1-2H3	InChI=1S/C7H14O2/c1-6(8)7(2)4-3-5-9-7/h6,8H,3-5H2,1-2H3/t6-,7-/m1/s1
