18
gdb 86531	3.48709	0.96336	0.84374	0.8535	74.93	-0.2231	-0.0978	0.1253	1385.782	0.145463	-439.072349	-439.063051	-439.062106	-439.107946	32.422	
C	 0.2117699403	 1.3255661987	-0.0848335758	-0.3205
N	-0.0783455603	-0.0788695254	 0.1000444222	-0.063172
C	-1.3782633991	-0.4561098994	 0.6919707015	-0.197567
C	-0.6704182715	-1.5798542973	 1.478173293	-0.100277
C	 0.6528390007	-0.8100819416	 1.1471533474	-0.179024
C	-0.9849729869	-1.7344213534	 2.9358141605	 0.270107
O	-1.6389631907	-0.9601911703	 3.5984120701	-0.281877
C	-0.3926196744	-2.9607593545	 3.646820206	 0.088758
O	 0.2778784998	-3.7910363252	 3.0920328792	-0.216541
H	 1.2364826235	 1.4475682444	-0.4516002963	 0.123064
H	-0.4647351875	 1.7450354661	-0.8368617986	 0.124847
H	 0.104209664	 1.9191017677	 0.8429535537	 0.095196
H	-1.7906428947	 0.2996451721	 1.3772720044	 0.109849
H	-2.1454973508	-0.748833376	-0.0315143485	 0.108189
H	-0.6809671561	-2.5526544831	 0.9851913614	 0.114208
H	 1.5006507905	-1.4083002732	 0.8012095968	 0.121306
H	 0.9779563473	-0.1703137734	 1.9848943458	 0.094416
H	-0.6473289343	-2.9969298562	 4.7271617472	 0.109019
26.3267	74.5097	123.4035	149.4595	211.5475	237.3714	287.5389	346.9036	349.1861	504.5942	548.448	615.941	665.18	751.964	894.9355	916.8146	959.2471	997.9247	1006.1266	1043.7106	1093.7335	1129.6311	1139.7371	1175.0835	1193.674	1229.8043	1233.0104	1240.6194	1300.0439	1341.596	1362.1934	1385.8978	1450.1262	1484.3602	1498.7826	1504.4504	1528.7775	1795.1581	1822.5366	2924.7011	2928.2384	2962.2512	2997.0267	3058.2251	3069.8934	3075.9352	3100.145	3114.0102
CN1CC(C1)C(=O)C=O	CN1CC(C1)C(=O)C=O	
InChI=1S/C6H9NO2/c1-7-2-5(3-7)6(9)4-8/h4-5H,2-3H2,1H3	InChI=1S/C6H9NO2/c1-7-2-5(3-7)6(9)4-8/h4-5H,2-3H2,1H3
