23
gdb 100652	2.42323	1.12564	1.00159	4.0747	86.58	-0.2242	0.0375	0.2617	1359.1558	0.203	-384.473766	-384.462546	-384.461602	-384.510038	40.929	
C	-0.1204775958	 1.6015316764	-0.0810670377	-0.389084
C	 0.0678955755	 0.0867496735	 0.0410297988	-0.123524
N	 0.7550365498	-0.4907249904	-1.1176274395	-0.081861
C	 2.1605196755	-0.0961823735	-1.1619955534	-0.351766
C	 0.5306619979	-1.9407183268	-1.3150321855	 0.115364
C	 1.128381842	-2.8453404688	-0.2053190376	-0.412345
C	-0.9760185807	-2.250614343	-1.4864214696	-0.419264
C	 1.1692039833	-2.314107228	-2.5995995517	 0.290888
N	 1.6520502621	-2.6488181298	-3.5946888441	-0.355007
H	 0.8269315948	 2.1453510003	-0.0406540434	 0.122978
H	-0.6170854809	 1.8490803257	-1.0235579674	 0.127405
H	-0.7393240591	 1.9645159244	 0.7454455483	 0.115244
H	 0.598756997	-0.1378798121	 0.9850693958	 0.082119
H	-0.9207664828	-0.3676210416	 0.1230958227	 0.103913
H	 2.7268098639	-0.3787783667	-0.2565290149	 0.09619
H	 2.6506973153	-0.5427047073	-2.0293303705	 0.150549
H	 2.2313885464	 0.9881447846	-1.2709145678	 0.128393
H	 0.6621960693	-2.6068691377	 0.7546253064	 0.124862
H	 0.9398790683	-3.8994742219	-0.4253498244	 0.133909
H	 2.2078247807	-2.7060949798	-0.1139283433	 0.13505
H	-1.4332023395	-1.5293800964	-2.1672665284	 0.141466
H	-1.1011606166	-3.2538949026	-1.8999510664	 0.137947
H	-1.4974112865	-2.2220326484	-0.5273430364	 0.126574
43.5244	64.1317	156.1982	187.9615	198.7511	219.5578	232.586	259.2686	273.9853	317.4982	341.5994	363.0935	416.1996	435.5071	465.7984	582.2605	602.7368	686.3805	803.8455	808.7	915.7791	928.8936	946.2223	1017.2068	1033.9518	1075.3125	1117.2748	1145.1135	1161.963	1182.9716	1206.5892	1253.7631	1284.0911	1341.3225	1391.1417	1396.4945	1407.5047	1416.7769	1463.5575	1480.0558	1483.4238	1487.0807	1490.0068	1500.1249	1503.212	1506.5995	1514.9621	1520.4738	2354.7673	2926.7054	2947.5784	3044.2354	3049.1174	3056.2933	3090.3163	3101.0695	3115.5265	3122.7948	3124.9102	3131.3239	3133.6002	3134.4489	3142.3984
CCN(C)C(C)(C)C#N	CCN(C)C(C)(C)C#N	
InChI=1S/C7H14N2/c1-5-9(4)7(2,3)6-8/h5H2,1-4H3	InChI=1S/C7H14N2/c1-5-9(4)7(2,3)6-8/h5H2,1-4H3
