20
gdb 32225	2.45714	1.51153	0.94843	1.8289	92.27	-0.1887	0.0147	0.2034	1258.6465	0.172799	-366.083225	-366.07451	-366.073566	-366.116176	33.751	
C	-0.021125174	 1.4466474002	-0.043736824	-0.323186
N	-0.1133235761	 0.0081777259	 0.09229017	-0.366818
C	 0.5899302382	-0.6770018648	 1.0775552494	 0.267725
C	 1.2027340108	-0.006051007	 2.1454378603	-0.200035
C	 1.8614847389	-0.7153388179	 3.1461346995	-0.109383
C	 1.932086766	-2.1018389647	 3.0985485471	-0.134274
C	 1.3275341635	-2.770192841	 2.0343834585	-0.177206
C	 0.6562776322	-2.090468125	 1.023469955	 0.248316
C	-0.0029218324	-2.8367185497	-0.1081921145	-0.520377
H	 1.0123664065	 1.8133655976	-0.1484932199	 0.115709
H	-0.5868766194	 1.7528094142	-0.9267318	 0.121718
H	-0.4672034234	 1.9466392179	 0.8231323921	 0.134357
H	-0.1921594354	-0.4848907253	-0.7818613666	 0.23481
H	 1.1649582311	 1.0750946035	 2.1976109883	 0.08441
H	 2.3252816015	-0.1715186283	 3.9630711445	 0.086888
H	 2.4460706288	-2.6585930347	 3.8739501569	 0.083434
H	 1.3732491252	-3.8547531846	 1.9857446347	 0.080457
H	-1.0709003708	-2.596176999	-0.1845439822	 0.13026
H	 0.4479706955	-2.5982520558	-1.0827405203	 0.118596
H	 0.0885251732	-3.9166294814	 0.0303506012	 0.1246
105.4783	164.1395	202.8009	216.7734	238.0507	293.7307	314.6489	421.1739	455.3515	493.3116	532.1686	560.3094	613.3698	737.3429	767.8878	770.0604	835.03	854.9273	916.9387	952.5784	1001.969	1059.5711	1069.744	1085.2571	1125.21	1152.2032	1182.3627	1193.7053	1212.481	1298.0398	1328.5636	1355.8563	1411.457	1460.6936	1472.013	1482.8255	1484.0159	1487.1363	1515.0007	1526.2293	1550.2405	1623.6432	1649.6025	2977.3257	2998.1778	3048.9232	3058.9369	3113.5612	3117.104	3159.7612	3171.3166	3194.081	3204.2808	3632.6221
CNC1=CC=CC=C1C	CNc1ccccc1C	
InChI=1S/C8H11N/c1-7-5-3-4-6-8(7)9-2/h3-6,9H,1-2H3	InChI=1S/C8H11N/c1-7-5-3-4-6-8(7)9-2/h3-6,9H,1-2H3
