22
gdb 94199	2.71235	1.26609	1.1713	2.8007	81.1	-0.237	0.0754	0.3123	1206.1144	0.193752	-404.311304	-404.301829	-404.300885	-404.345603	35.708	
C	 0.1328876746	 1.6679635038	-0.147555589	-0.417645
C	-0.020779942	 0.1657307811	 0.0409185805	-0.070558
C	 0.8375612433	-0.7640794563	-0.8399711451	-0.08504
O	 1.385430372	-1.4432252239	 0.3106700358	-0.330879
C	 0.6852933053	-0.5606572816	 1.2343746501	 0.373644
C	 1.6786479167	 0.2443328058	 2.0638410615	-0.437878
C	-0.2363328229	-1.3618542294	 2.1346279176	-0.015863
C	-0.8830287391	-2.6053852239	 1.658697412	-0.252277
N	 0.2155998344	-2.6650569291	 2.644881723	-0.333866
H	 1.1825646123	 1.9763469353	-0.1542272073	 0.121004
H	-0.3074491266	 1.9785698848	-1.1013566256	 0.119893
H	-0.3771812164	 2.2257405027	 0.6449636252	 0.121401
H	-1.0799489636	-0.1026072487	 0.0062656375	 0.082755
H	 0.2983885975	-1.4501264363	-1.5034012537	 0.10229
H	 1.621902028	-0.256218454	-1.4169402498	 0.099301
H	 2.3941893582	 0.7716791024	 1.4287500186	 0.117816
H	 1.1603978999	 0.9780024761	 2.6903970122	 0.117379
H	 2.2372785937	-0.4272892157	 2.72283112	 0.132568
H	-0.7586371986	-0.7575321984	 2.8757535826	 0.084844
H	-1.859523413	-2.8895662699	 2.0405321333	 0.111983
H	-0.6668967314	-2.9333622901	 0.6463973919	 0.116792
H	 1.0642811579	-2.9169756547	 2.1388076385	 0.242336
59.9216	93.6408	168.1622	213.1134	223.7897	246.2077	285.647	298.9189	375.9073	408.5462	471.2491	574.2381	632.4966	753.0187	836.8374	862.2241	889.152	903.6587	919.5975	943.0427	973.9413	995.3409	1018.4344	1029.9144	1099.0294	1110.0381	1132.3026	1149.2343	1157.8171	1175.9704	1200.4896	1220.3204	1235.8101	1279.9574	1290.1944	1310.1282	1340.8532	1382.64	1405.2922	1414.6223	1417.8168	1480.6861	1487.0562	1498.8413	1499.9978	1506.5333	1526.0716	3008.8226	3033.6076	3040.5671	3051.6379	3071.2833	3095.4339	3106.5841	3110.2223	3111.7881	3115.6283	3125.6858	3202.3059	3475.0595
CC1COC1(C)C1CN1	C[C@H]1CO[C@]1(C)[C@H]1CN1	
InChI=1S/C7H13NO/c1-5-4-9-7(5,2)6-3-8-6/h5-6,8H,3-4H2,1-2H3	InChI=1S/C7H13NO/c1-5-4-9-7(5,2)6-3-8-6/h5-6,8H,3-4H2,1-2H3/t5-,6+,7-/m0/s1
