13
gdb 20772	3.34332	2.42332	1.41716	0.7571	63.84	-0.2643	-0.0586	0.2057	814.4401	0.096259	-394.769008	-394.762272	-394.761328	-394.800081	24.74	
C	 0.0695952244	 1.4957908993	 0.0392602185	-0.457366
C	-0.0119069068	 0.0018950996	 0.0108319379	 0.35917
N	-0.1302638785	-0.5448230525	-1.1476205798	-0.15271
O	-0.2068406814	-1.9585404342	-1.1681545611	-0.217015
C	-0.1529034721	-2.6270181111	-0.0088050582	 0.164365
N	-0.0369951795	-2.1557603644	 1.1694402291	-0.320343
C	 0.0453246276	-0.760288457	 1.2773343299	 0.279963
N	 0.1639303835	-0.1300337241	 2.3803500042	-0.502951
H	 1.0030024792	 1.804277606	 0.5187448358	 0.158964
H	 0.0128362879	 1.8985730985	-0.9726050449	 0.142887
H	-0.7416610099	 1.8968933958	 0.653500895	 0.158964
H	-0.2238465329	-3.6971593225	-0.1935947007	 0.155518
H	 0.1874491785	-0.8050163633	 3.1489867843	 0.230553
85.323	179.5772	285.5766	302.9074	412.8395	482.965	485.2838	511.8445	604.1428	727.9569	787.1684	855.575	924.046	932.0189	986.0278	1024.5097	1050.1128	1060.4216	1172.339	1246.1564	1379.1387	1406.8029	1440.8769	1461.3485	1465.0113	1646.6394	1678.0051	1706.0801	3055.4498	3118.3875	3156.8498	3168.099	3453.1877
CC1=NOC=NC1=N	CC1=NOC=N[C]1[NH]	
InChI=1S/C4H5N3O/c1-3-4(5)6-2-8-7-3/h2,5H,1H3	InChI=1S/C4H5N3O/c1-3-4(5)6-2-8-7-3/h2,5H,1H3
