17
gdb 75695	2.18971	2.08877	1.17547	0.7404	75.38	-0.2525	-0.015	0.2375	1032.923	0.137882	-418.055442	-418.047606	-418.046662	-418.087717	29.801	
C	-0.0201058179	 1.4404191656	-0.0983387199	-0.368227
N	-0.0198375897	-0.0050426156	-0.0402438907	-0.133472
C	-1.1807099331	-0.7885475195	 0.0311962118	 0.378057
N	-2.3899743446	-0.4105237211	 0.1171648068	-0.550811
C	-0.7444422198	-2.2183160204	 0.0048171389	-0.095126
C	 0.0363707595	-2.6349210752	-1.2173961503	-0.288068
C	 0.7677693432	-2.1976184031	 0.0330251454	-0.168402
C	 1.1608365703	-0.7493610911	 0.0557909328	 0.418671
O	 2.2683011744	-0.2749373318	 0.1437079134	-0.373084
H	 1.0208359791	 1.7633206682	-0.1399154592	 0.17137
H	-0.5521949562	 1.7958978941	-0.9870358293	 0.138178
H	-0.4920042335	 1.8707035768	 0.7920484908	 0.139274
H	-2.4720994224	 0.6069314539	 0.1230960366	 0.216692
H	-1.3454691194	-2.941173442	 0.5381912814	 0.123519
H	 0.0586278401	-3.6952332687	-1.4417190192	 0.133618
H	 0.0445862739	-1.9857819869	-2.0861176904	 0.134714
H	 1.379379596	-2.8986489132	 0.5837847311	 0.123097
121.6135	156.5629	174.184	210.9954	297.6777	336.4113	374.6911	513.2994	596.981	627.1013	701.288	732.7313	764.9547	827.9249	843.8623	866.6788	950.1867	966.6953	982.9548	990.2457	1075.0453	1096.6994	1104.7326	1153.6665	1156.8738	1190.7912	1244.1889	1291.7947	1333.5762	1343.3949	1413.3814	1455.2159	1488.9051	1493.9571	1514.4566	1742.2985	1835.8105	3030.8122	3088.3254	3138.6376	3152.2507	3215.9237	3220.5089	3231.807	3472.9516
CN1C(=N)C2CC2C1=O	CN1[C]([NH])[C@H]2C[C@H]2C1=O	
InChI=1S/C6H8N2O/c1-8-5(7)3-2-4(3)6(8)9/h3-4,7H,2H2,1H3	InChI=1S/C6H8N2O/c1-8-5(7)3-2-4(3)6(8)9/h3-4,7H,2H2,1H3/t3-,4+/m0/s1
