21
gdb 75359	2.12868	1.77788	1.37099	1.3333	83.61	-0.2337	0.0269	0.2606	1075.781	0.182545	-387.101514	-387.092714	-387.09177	-387.134473	34.318	
C	 0.4333192793	 1.3649996411	-0.0401843623	-0.516374
C	 0.0901870514	-0.0923373637	-0.0269164199	 0.281278
C	-0.1520857549	-0.8812018607	-1.0771556919	-0.16204
C	-0.5173494714	-2.2993920134	-0.7009971287	-0.284764
C	-0.2544071769	-2.3221683302	 0.8133671078	-0.036212
C	 1.2112714579	-2.5942016652	 1.2709665059	-0.224977
C	 1.2348290539	-1.2313728289	 2.017201976	-0.296503
C	-0.0817676196	-0.8481981797	 1.2800528188	 0.318621
O	-1.1350383856	-0.338570516	 2.0799030069	-0.480546
H	 1.38634135	 1.5605554551	 0.4682794935	 0.124186
H	 0.5089832671	 1.7535932345	-1.0590291607	 0.127107
H	-0.3317293693	 1.9534212883	 0.4831750844	 0.122078
H	-0.1131274321	-0.5483117209	-2.1105855639	 0.083658
H	-1.5626949953	-2.5201227233	-0.9568719363	 0.105662
H	 0.0920281488	-3.0437759783	-1.2298936888	 0.099966
H	-0.9929394371	-2.8786171669	 1.3918439786	 0.074434
H	 1.3683240287	-3.4822766088	 1.8862673795	 0.099248
H	 1.9068934609	-2.6298539392	 0.4283387971	 0.100797
H	 1.0511982744	-1.3410186814	 3.0897548575	 0.100744
H	 2.1075187221	-0.5892124815	 1.8672532155	 0.089252
H	-0.8559107622	 0.5110424292	 2.4381912812	 0.274384
103.691	165.1998	175.8826	209.902	245.5865	251.9827	291.4853	398.6393	441.5749	526.4245	589.9435	638.7869	698.3336	722.2098	802.7436	826.2106	849.0604	889.159	938.3796	949.3601	991.4335	1004.1914	1037.2191	1056.9377	1066.9153	1093.2463	1105.048	1127.8837	1200.8155	1205.2059	1229.8726	1236.0856	1262.6528	1271.1483	1309.7024	1318.4075	1354.8656	1357.709	1409.1955	1472.036	1481.1203	1483.4483	1491.8622	1492.4031	1715.8914	3010.642	3013.2569	3038.9451	3048.0203	3058.2744	3062.72	3096.8576	3103.7938	3110.801	3121.746	3169.7566	3803.3781
CC1=CCC2CCC12O	CC1=CC[C@H]2CC[C@@]12O	
InChI=1S/C8H12O/c1-6-2-3-7-4-5-8(6,7)9/h2,7,9H,3-5H2,1H3	InChI=1S/C8H12O/c1-6-2-3-7-4-5-8(6,7)9/h2,7,9H,3-5H2,1H3/t7-,8+/m0/s1
