23
gdb 122149	3.36216	0.62682	0.55438	2.3574	79.86	-0.247	0.06	0.307	2021.8321	0.203706	-462.540716	-462.529393	-462.528449	-462.578284	39.59	
C	-0.1951473566	 1.3623231409	 0.0294879332	-0.228918
O	 0.0077804607	-0.0295818805	 0.038385467	-0.230463
C	 0.6085551468	-0.5046271268	-1.1465648623	-0.056317
C	 0.7868444961	-2.013325344	-1.0188412936	-0.221336
C	 1.4597009948	-2.6608816033	-2.2426021985	-0.013627
C	 2.9862015818	-2.4435638382	-2.2366888944	-0.049891
O	 3.6038816225	-2.7218102094	-3.4740240283	-0.432535
C	 1.1137844883	-4.1508162944	-2.2834279708	-0.0962
O	 1.7196782429	-4.7451724041	-3.4343346066	-0.426072
H	 0.7531768237	 1.9142557162	-0.071645204	 0.103889
H	-0.8598347209	 1.6747327061	-0.7920036296	 0.102741
H	-0.6601196231	 1.6324819465	 0.9808309643	 0.125951
H	-0.0247773234	-0.2698096027	-2.0201689562	 0.086707
H	 1.5762822719	-0.0016045985	-1.3106492913	 0.091451
H	 1.3701701089	-2.2215816402	-0.1129845093	 0.107816
H	-0.20441799	-2.4523653063	-0.8538324521	 0.102009
H	 1.0688586617	-2.2035150384	-3.1618519475	 0.088332
H	 3.2140960768	-1.3966921449	-2.0089581592	 0.100469
H	 3.4204853619	-3.0464654067	-1.4171113373	 0.07366
H	 3.272542908	-3.5875595911	-3.7474138625	 0.288079
H	 1.4780593432	-4.6342269116	-1.3630827487	 0.094251
H	 0.0221096691	-4.2816498692	-2.3189717864	 0.095736
H	 1.6423349147	-5.7009395493	-3.3662162159	 0.294267
52.7883	64.0037	93.1442	108.1531	133.4871	195.7669	231.3406	246.9877	269.1728	292.2224	315.9016	367.9086	420.765	477.4692	556.4977	599.5208	786.4191	864.8018	911.5871	984.4881	992.2181	1029.6931	1066.4675	1079.8964	1100.2485	1123.4952	1156.5045	1164.1236	1184.0578	1212.5705	1228.1869	1237.0675	1254.7018	1288.7598	1302.2417	1314.8442	1347.9363	1377.4777	1395.7062	1430.4009	1456.878	1472.1069	1482.2066	1485.646	1492.9748	1504.9961	1508.2472	1522.3122	1531.7581	2927.9513	2946.6738	2968.5135	2974.8314	2976.9706	3006.9624	3009.917	3025.1446	3030.5993	3065.7536	3068.0451	3112.4884	3749.3317	3837.1013
COCCC(CO)CO	COCCC(CO)CO	
InChI=1S/C6H14O3/c1-9-3-2-6(4-7)5-8/h6-8H,2-5H2,1H3	InChI=1S/C6H14O3/c1-9-3-2-6(4-7)5-8/h6-8H,2-5H2,1H3
