18
gdb 105737	2.20165	1.5282	1.15837	1.8617	72.31	-0.2474	-0.0343	0.2132	1126.4364	0.146892	-439.110184	-439.101267	-439.100323	-439.144626	31.841	
C	 0.0687069292	 1.5107528946	 0.103563509	-0.399178
C	 0.0137641823	-0.0073993951	-0.0934712421	-0.224906
C	 0.7468349181	-0.5336528118	-1.3493997231	 0.174171
C	 0.5873561816	-2.064874583	-1.5317100401	-0.162234
O	 0.0403405649	-2.2051048625	-2.8680828759	-0.216869
C	-0.1548712765	-0.9470658719	-3.3089331706	 0.124699
N	 0.1713796436	 0.0436774617	-2.5851640349	-0.30836
C	 2.2213492691	-0.1215011333	-1.2988651133	 0.14388
O	 3.1153313043	-0.8521909847	-0.95703048	-0.258845
H	 1.0824654358	 1.8611770441	 0.321579645	 0.121187
H	-0.2849828488	 2.0289365408	-0.7911357126	 0.146674
H	-0.5648831037	 1.8046554794	 0.9453136008	 0.118741
H	 0.4303810328	-0.5213416124	 0.7819356555	 0.113325
H	-1.0311754552	-0.328101883	-0.181975238	 0.108621
H	 1.5401350696	-2.5937863285	-1.4787348923	 0.148401
H	-0.1227234854	-2.5072983398	-0.8275260825	 0.117969
H	-0.5951205392	-0.8808119902	-4.2980723144	 0.147578
H	 2.4089016475	 0.9245386457	-1.6150168704	 0.105147
58.3028	73.7157	106.7385	202.5246	250.6498	253.5143	311.3513	357.4272	390.82	537.2849	591.1355	658.8959	774.8426	810.6636	883.9442	912.2747	948.6606	963.0389	972.0534	999.5798	1037.3539	1051.9807	1127.6679	1160.0509	1180.0924	1194.7726	1241.5568	1317.0191	1320.5383	1367.4414	1374.5212	1404.7316	1413.4287	1479.2441	1499.4879	1508.5657	1518.4362	1690.4263	1825.1532	2930.0279	3024.2847	3044.5296	3063.2759	3064.425	3108.3423	3129.3882	3129.7831	3213.9956
CCC1(COC=N1)C=O	CC[C@]1(COC=N1)C=O	
InChI=1S/C6H9NO2/c1-2-6(3-8)4-9-5-7-6/h3,5H,2,4H2,1H3	InChI=1S/C6H9NO2/c1-2-6(3-8)4-9-5-7-6/h3,5H,2,4H2,1H3/t6-/m1/s1
