21
gdb 109274	2.96841	1.12062	0.86231	1.5067	86.69	-0.2215	0.0315	0.2529	1372.7281	0.183174	-387.093825	-387.084579	-387.083635	-387.129155	34.366	
O	 0.0980460287	 1.341274835	-0.706684454	-0.412986
C	 0.0117742676	-0.0200820446	-0.3383407235	-0.150819
C	-1.3768282071	-0.3820513512	 0.1283079367	 0.261852
C	-2.3541742251	 0.5222223595	 0.153080341	-0.123784
C	-3.7800335812	 0.3575364672	 0.6089592731	-0.314438
C	-4.4800684322	-0.9729597688	 0.5225167188	-0.031739
C	-4.0304957769	-2.1807834064	 0.1830659002	-0.060392
C	-2.6271941569	-2.6062930929	-0.1623749877	-0.236554
C	-1.5143108355	-1.8261032123	 0.5563939528	-0.302652
H	 0.997459327	 1.5158044974	-0.9962066744	 0.288672
H	 0.2792120758	-0.6797450816	-1.1847220843	 0.090678
H	 0.7271914425	-0.2602166031	 0.469551862	 0.091757
H	-2.0970384794	 1.52932051	-0.1610880103	 0.10371
H	-3.8637278923	 0.7254668216	 1.647198998	 0.119381
H	-4.3951055701	 1.0721933942	 0.0418920191	 0.114753
H	-5.5407185762	-0.8979898563	 0.7615762633	 0.079804
H	-4.7650065275	-2.9841653921	 0.1573212213	 0.077711
H	-2.5223828641	-3.670175951	 0.0853285623	 0.094396
H	-2.4695974402	-2.5410253186	-1.248402691	 0.109789
H	-0.5619181535	-2.3431654303	 0.382931819	 0.088106
H	-1.6930550533	-1.8791529757	 1.6381627175	 0.112753
15.927	101.718	167.3066	197.5803	228.0467	246.5958	324.8797	336.8285	403.7029	491.8076	507.968	623.3193	690.9027	734.8354	807.9131	832.7784	877.0359	883.8134	945.858	976.2794	996.9138	1017.5932	1046.7547	1071.2036	1088.8594	1099.783	1147.7812	1200.059	1226.5103	1238.7067	1261.4184	1274.4631	1293.3481	1342.6997	1368.543	1390.8458	1411.1402	1435.9723	1455.0484	1457.6303	1478.065	1487.3185	1507.0393	1743.0664	1761.0834	2926.7398	2939.7723	2953.1798	3001.6039	3004.683	3013.6826	3039.8296	3050.2513	3115.4107	3142.6829	3176.3851	3843.1016
OCC1=CCC=CCC1	OCC1=CCC=CCC1	
InChI=1S/C8H12O/c9-7-8-5-3-1-2-4-6-8/h1-2,5,9H,3-4,6-7H2	InChI=1S/C8H12O/c9-7-8-5-3-1-2-4-6-8/h1-2,5,9H,3-4,6-7H2
