14
gdb 45949	2.32203	2.00384	1.17417	2.9222	63.38	-0.2643	-0.0636	0.2007	980.3913	0.101397	-473.84951	-473.842087	-473.841143	-473.881761	27.176	
O	 0.0465067914	 0.0301262419	-0.1508095413	-0.320749
C	 0.0265750352	 1.2303751309	-0.0387261965	 0.319138
C	-1.2053615166	 2.1265854664	 0.0552829561	-0.200788
O	-0.724388826	 3.4763889384	 0.0520700782	-0.234365
C	 0.6429973715	 3.5486262636	-0.0251142129	 0.421766
O	 1.2292696213	 4.5867898575	-0.0538218317	-0.328258
C	 1.1871877224	 2.1539010037	-0.0130081993	 0.031639
C	 2.4429800278	 1.7862249837	 0.7307418339	-0.250959
N	 2.4401467973	 1.8184372289	-0.714245074	-0.320526
H	-1.8742617028	 1.9688812146	-0.7967479489	 0.159158
H	-1.7629239201	 1.9362152941	 0.9786087928	 0.157445
H	 2.9785021995	 2.6016580581	 1.2076418099	 0.161243
H	 2.4358435937	 0.8297430382	 1.2465737508	 0.147105
H	 2.3277435454	 0.8685365399	-1.0739084473	 0.258153
80.9653	175.4985	217.1174	230.8802	248.6853	348.7332	530.0008	577.9151	597.7895	638.4433	705.238	728.4794	861.2127	881.7379	945.0954	998.637	1003.9263	1046.4524	1074.9368	1116.1668	1129.2093	1160.6124	1205.227	1288.8804	1314.4281	1350.0912	1403.1573	1478.6047	1489.7768	1841.9526	1905.4503	3050.2991	3097.07	3114.7114	3218.2271	3452.3999
O=C1COC(=O)C11CN1	O=C1COC(=O)[C@]21CN2	
InChI=1S/C5H5NO3/c7-3-1-9-4(8)5(3)2-6-5/h6H,1-2H2	InChI=1S/C5H5NO3/c7-3-1-9-4(8)5(3)2-6-5/h6H,1-2H2/t5-/m1/s1
