18
gdb 47571	2.58235	1.62523	1.09889	3.6802	72.5	-0.2373	-0.0306	0.2067	1088.8372	0.148705	-439.055577	-439.047863	-439.046919	-439.087963	29.744	
O	-0.0721148138	-0.0687278711	 0.3254505019	-0.28087
C	 0.0112515117	 1.1036684272	 0.0499032027	 0.377426
C	-1.2668532752	 1.9556877462	-0.0699591208	-0.173908
O	-1.381657756	 2.825061384	-1.1767958495	-0.234862
C	-0.3696489204	 3.8150052593	-1.2793601132	-0.112254
C	 0.8332861228	 3.2729237063	-2.0184722073	 0.007811
C	 2.2256213099	 3.5801985143	-1.5908671048	-0.258973
N	 1.6750230775	 2.2377619777	-1.4120661494	-0.082923
C	 1.3692303828	 1.8078808138	-0.046359657	-0.263609
H	-2.1114110951	 1.2662744321	-0.1211404016	 0.137785
H	-1.345389373	 2.5265907649	 0.8752284004	 0.105164
H	-0.8063731704	 4.6420467856	-1.8486413195	 0.118194
H	-0.1009711497	 4.2027741578	-0.2857222073	 0.091748
H	 0.6424411623	 3.0907899354	-3.074628	 0.105444
H	 3.0212938869	 3.6744092871	-2.3245071713	 0.124914
H	 2.3523319156	 4.1977139968	-0.7018404557	 0.111063
H	 1.363515444	 2.6416728785	 0.6775640111	 0.096303
H	 2.1330683502	 1.0937289143	 0.2711703514	 0.13155
76.8498	145.071	239.2539	312.0471	333.2409	344.3377	433.0306	448.8881	491.7799	584.4626	611.4396	776.1561	797.0193	853.9589	882.4958	934.1734	956.6429	995.7167	1048.1281	1067.2716	1095.5694	1117.7177	1142.443	1153.3073	1173.9942	1213.4128	1257.2985	1274.2764	1318.3693	1326.9262	1345.2949	1372.9547	1381.6873	1430.6839	1467.942	1485.1411	1496.9686	1514.411	1814.8243	2927.183	2947.3477	2999.6706	3074.98	3088.6718	3094.7223	3121.3908	3124.0271	3180.6603
O=C1COCC2CN2C1	O=C1COC[C@H]2CN2C1	
InChI=1S/C6H9NO2/c8-6-2-7-1-5(7)3-9-4-6/h5H,1-4H2	InChI=1S/C6H9NO2/c8-6-2-7-1-5(7)3-9-4-6/h5H,1-4H2/t5-,7?/m1/s1
