19
gdb 107217	3.7233	1.22354	1.09159	1.1732	73.74	-0.2516	0.0751	0.3267	1138.4201	0.160216	-422.997136	-422.989329	-422.988384	-423.029419	30.991	
O	 0.0692983354	 1.3943773678	 0.3376156122	-0.415778
C	 0.0177858198	 0.0313342745	-0.0627631879	-0.148551
C	-1.390671441	-0.5056559142	-0.1161197892	 0.306526
C	-1.9794737319	-1.1140895715	 1.1374679982	-0.338281
C	-1.6799629115	-1.998792937	-0.0497781362	-0.119399
C	-2.831114516	-2.2689728147	-0.9928926039	 0.027459
O	-4.0606124858	-1.6221248671	-0.6313204093	-0.255302
C	-3.2402935168	-1.0101542236	-1.6373549679	 0.042371
C	-2.3536547916	 0.122211242	-1.1385213859	-0.315066
H	-0.377007197	 1.4586609605	 1.1889275574	 0.282228
H	 0.4774659724	 0.0071959981	-1.0578079517	 0.10639
H	 0.6304001845	-0.6052207912	 0.5967407868	 0.0821
H	-1.3215797787	-1.2076326706	 1.9968130503	 0.103316
H	-3.0221495039	-0.9368133444	 1.3698071835	 0.137352
H	-0.8839036441	-2.732080873	 0.0114311846	 0.085474
H	-2.9388924768	-3.2460271732	-1.4553307516	 0.096409
H	-3.6939845188	-0.9554628932	-2.6245963709	 0.095587
H	-2.9421944652	 0.9469819494	-0.7246047625	 0.118162
H	-1.780002923	 0.5285225615	-1.9796981859	 0.109003
89.6286	135.6467	243.8557	302.6851	328.0124	353.982	400.8464	419.749	568.7398	667.2764	698.8128	721.0304	812.4319	833.7906	874.243	898.1243	909.1962	947.9391	960.5611	988.3574	999.3391	1052.7011	1056.7766	1069.4857	1082.9826	1097.7744	1113.255	1188.0902	1201.5639	1240.1631	1271.8626	1285.6804	1313.3285	1338.8972	1373.6491	1396.7361	1420.2615	1427.2689	1469.9229	1479.841	1507.3164	2967.7406	3043.9016	3057.0789	3085.9131	3127.3593	3135.2889	3155.2437	3179.479	3227.9748	3805.0209
OCC12CC1C1OC1C2	OC[C@]12C[C@H]1[C@H]1O[C@H]1C2	
InChI=1S/C7H10O2/c8-3-7-1-4(7)6-5(2-7)9-6/h4-6,8H,1-3H2	InChI=1S/C7H10O2/c8-3-7-1-4(7)6-5(2-7)9-6/h4-6,8H,1-3H2/t4-,5-,6+,7+/m0/s1
