22
gdb 57274	2.24189	1.27175	1.16685	3.8334	85.54	-0.3001	0.042	0.3421	1242.1346	0.193544	-367.230086	-367.22027	-367.219326	-367.264466	36.865	
C	-1.5450359148	-0.2377912353	-0.199228948	-0.408678
C	-0.0399760453	 0.0141263015	 0.0430582338	 0.057742
C	 0.2351661413	 1.5285780525	 0.1776060818	-0.408678
C	 0.3488175698	-0.6462048693	 1.3015736323	 0.278811
N	 0.6563463947	-1.1664899703	 2.2875112174	-0.361732
C	 0.7878241109	-0.5716092687	-1.1219729687	 0.056027
C	 2.3406494791	-0.5934279179	-1.0512776224	-0.251918
C	 2.309451802	-1.965091461	-1.7784714002	-0.214198
C	 0.8168636546	-2.1053866138	-1.3738184483	-0.251919
H	-1.8511961047	 0.2539649005	-1.1278709579	 0.120475
H	-1.757819219	-1.3060492568	-0.2875233723	 0.137531
H	-2.14789216	 0.164975052	 0.6190831695	 0.131547
H	-0.3381100901	 1.9606772335	 1.0021878912	 0.131547
H	 1.2951535207	 1.7231955972	 0.3587128715	 0.13753
H	-0.0564242853	 2.0348092017	-0.7479419436	 0.120475
H	 0.4631213551	-0.0506137029	-2.0302036418	 0.074027
H	 2.882359159	 0.2278966643	-1.5259361602	 0.097322
H	 2.6901642297	-0.6973016768	-0.0196463394	 0.124035
H	 2.4294735164	-1.8553535376	-2.8599246328	 0.103081
H	 2.9993448884	-2.7351428658	-1.4280103425	 0.105616
H	 0.7082796617	-2.6638013005	-0.4391547396	 0.124035
H	 0.1205486857	-2.5124713665	-2.1105349998	 0.097322
82.3383	105.1917	171.9314	182.054	190.9026	232.8308	257.1946	306.609	327.6466	416.0723	416.1616	568.7973	588.3081	624.4276	710.0325	784.8777	801.2774	895.3143	934.1673	936.3233	951.1976	953.9401	961.1757	1013.7124	1046.6139	1061.2415	1125.4215	1173.3368	1208.3414	1210.1784	1240.5676	1260.0693	1261.0043	1265.0509	1290.0036	1293.3738	1366.6115	1398.5097	1421.9558	1476.2201	1482.6725	1486.684	1486.9598	1498.9585	1508.1832	1510.0894	2347.3414	3035.6115	3040.9991	3045.3754	3054.9151	3058.1391	3063.3836	3104.3371	3110.068	3114.5309	3118.9369	3124.8294	3125.8094	3127.3334
CC(C)(C#N)C1CCC1	CC(C)(C#N)C1CCC1	
InChI=1S/C8H13N/c1-8(2,6-9)7-4-3-5-7/h7H,3-5H2,1-2H3	InChI=1S/C8H13N/c1-8(2,6-9)7-4-3-5-7/h7H,3-5H2,1-2H3
