22
gdb 113787	2.8728	1.0201	1.00497	2.6551	82.85	-0.2448	0.0719	0.3167	1376.1536	0.192864	-404.309465	-404.299629	-404.298685	-404.344383	36.628	
C	-0.1989513812	 1.5064618496	 0.9908455883	-0.376672
C	-0.1491135525	-0.0244284696	 1.0540736788	-0.19885
C	-1.3994352011	-0.6481563128	 0.4745610839	 0.007858
N	-1.4633289734	-0.7947453085	-0.9924527627	-0.339334
C	-1.4773276376	-1.9986133658	-0.1562704746	-0.120583
C	-0.3364307354	-2.9768547356	-0.2813169305	 0.419867
C	-0.333985917	-4.0782314371	 0.7567703728	-0.463713
C	 0.279688821	-3.1934344574	-1.6012209882	-0.220559
O	 0.9496492537	-2.4348441443	-0.5901043173	-0.264633
H	 0.710130504	 1.9487751294	 1.4094403003	 0.110735
H	-0.2929266704	 1.8448401072	-0.0458908884	 0.126718
H	-1.0518291537	 1.9050022077	 1.5529411366	 0.103884
H	 0.7178090664	-0.3973273167	 0.5063785969	 0.141347
H	-0.0412440772	-0.3506298726	 2.0971155033	 0.087906
H	-2.3204928977	-0.32235136	 0.9619134056	 0.075813
H	-2.3959461032	-0.5927275407	-1.3407644726	 0.229532
H	-2.4324041797	-2.5123270902	-0.037199911	 0.076197
H	-1.2524276551	-4.6727868398	 0.7011577391	 0.118864
H	 0.5206324995	-4.7421531799	 0.6074764531	 0.12823
H	-0.2688588995	-3.6554659196	 1.7651194688	 0.128806
H	 0.7318957311	-4.1563646258	-1.8362541289	 0.10517
H	-0.0737050208	-2.6088998875	-2.4478398532	 0.123416
61.1624	82.0567	136.4406	192.4507	204.1799	237.7475	250.582	326.3137	352.0127	390.4161	440.9965	529.706	593.668	702.5481	767.4108	816.9163	840.6059	869.4793	920.5774	927.4353	952.6305	964.0857	1016.4539	1046.7341	1051.2656	1093.8919	1107.4726	1135.0302	1149.7204	1170.8981	1200.8872	1234.0898	1250.5681	1271.8647	1311.4082	1347.6391	1391.8983	1406.6006	1414.4528	1431.17	1475.8219	1484.879	1488.0605	1498.3962	1499.5808	1508.3369	1520.0397	3024.5075	3028.9707	3035.1251	3079.0167	3084.3234	3090.2069	3093.4002	3099.2389	3109.1878	3126.4306	3131.0901	3180.5942	3508.6497
CCC1NC1C1(C)CO1	CC[C@H]1N[C@H]1[C@@]1(C)CO1	
InChI=1S/C7H13NO/c1-3-5-6(8-5)7(2)4-9-7/h5-6,8H,3-4H2,1-2H3	InChI=1S/C7H13NO/c1-3-5-6(8-5)7(2)4-9-7/h5-6,8H,3-4H2,1-2H3/t5-,6-,7-/m1/s1
