18
gdb 61502	3.66511	0.80914	0.76004	1.6728	74.87	-0.2597	0.0052	0.2649	1497.5065	0.147015	-435.289958	-435.279844	-435.2789	-435.325899	35.005	
C	-0.1494907773	 1.4062033822	 0.0741291773	-0.358221
N	 0.022822914	-0.0340924195	-0.0465312939	-0.035701
C	 0.0127468786	-0.8448104986	 1.1487160724	-0.191469
C	-1.4275430293	-1.0570766885	 1.7131323385	-0.135367
N	-2.3750316792	-1.6980740404	 0.8082589983	-0.501234
C	-1.3304818359	-1.8276815399	 2.9608696563	 0.300302
N	-1.2000733237	-2.4401752564	 3.9315197939	-0.308715
C	 0.2371563652	-0.589157604	-1.2807033286	 0.14367
O	 0.2501410202	 0.0149210794	-2.3297355744	-0.329756
H	 0.5931816038	 1.8232177297	 0.7637213229	 0.134568
H	-0.0145275052	 1.8387190124	-0.9171383992	 0.177506
H	-1.1487301054	 1.6675321822	 0.4414050541	 0.130169
H	 0.4417499055	-1.8249474763	 0.916478851	 0.133261
H	 0.6426439731	-0.3838111112	 1.9197522947	 0.13027
H	-1.8398853536	-0.0745365984	 1.9749602418	 0.141452
H	-2.4537224713	-1.1492780542	-0.0424209435	 0.249932
H	-2.047500123	-2.6229135494	 0.5440943483	 0.242246
H	 0.4058050134	-1.6816477689	-1.2117983498	 0.077086
54.2657	64.7665	103.4989	140.0168	169.0532	240.8683	274.1723	307.2435	322.9964	348.0217	415.684	438.4649	527.5411	577.8927	714.6036	833.2354	850.9932	886.1134	927.1045	1027.1866	1035.5984	1091.074	1131.7176	1159.3103	1180.9726	1247.3392	1284.2745	1316.9432	1373.9672	1416.581	1426.5876	1438.6005	1443.2815	1480.622	1500.1569	1519.2503	1657.8847	1801.2097	2363.9627	2940.6314	3023.9118	3029.5379	3039.8956	3078.0191	3090.165	3159.2829	3494.9623	3582.7332
CN(CC(N)C#N)C=O	CN(C[C@@H](N)C#N)C=O	
InChI=1S/C5H9N3O/c1-8(4-9)3-5(7)2-6/h4-5H,3,7H2,1H3	InChI=1S/C5H9N3O/c1-8(4-9)3-5(7)2-6/h4-5H,3,7H2,1H3/t5-/m0/s1
