18
gdb 114579	2.61623	1.29455	1.00531	2.0352	81.25	-0.2246	0.0296	0.2542	1229.3072	0.145869	-401.854305	-401.845385	-401.844441	-401.888036	33.299	
C	-0.1885812751	 1.3533036948	 0.0593168405	-0.236719
O	 0.3827668031	 0.0793559988	-0.1404884402	-0.23689
C	 0.798142827	-0.5296035699	 1.0410132809	 0.086978
C	-0.264965666	-1.1859981518	 2.0066940827	-0.264207
C	 0.4804984861	-2.5102553745	 1.8351414849	-0.122551
N	 0.3848982461	-2.8416448472	 0.4069787041	-0.363274
C	 1.4560222359	-1.901827282	 0.8589172352	 0.209829
C	 2.8324748396	-2.1705962278	 0.6361665631	 0.167711
C	 4.003045502	-2.3776294711	 0.4457793729	-0.421172
H	 0.5176478679	 2.0436814939	 0.5474461628	 0.104344
H	-0.4473360235	 1.7493614502	-0.9251341034	 0.131489
H	-1.1014228837	 1.3039857455	 0.6717926438	 0.108812
H	 1.4669516136	 0.1315745217	 1.6124805366	 0.076901
H	-0.236152483	-0.7741308187	 3.016762187	 0.104285
H	-1.2892193461	-1.202479982	 1.6286426226	 0.118042
H	 0.6791947759	-3.2675369356	 2.5828113095	 0.109311
H	 0.8459031664	-3.7405302745	 0.2638546067	 0.237893
H	 5.0349356738	-2.5614380799	 0.2764873304	 0.18922
80.3114	124.9044	149.7618	164.8822	192.7535	289.9237	371.7642	416.9141	475.8568	533.382	550.1774	574.9471	635.7578	663.9253	708.3459	824.1184	860.6421	900.7451	949.835	1009.0077	1020.1882	1053.0324	1064.2321	1112.9165	1158.1713	1179.7638	1185.9095	1205.708	1231.649	1248.7996	1290.4616	1331.6784	1377.9935	1415.3666	1468.3359	1483.7989	1488.1985	1508.3566	2232.3197	2972.7991	2991.9864	3022.1314	3073.8554	3119.4851	3136.2196	3200.6577	3474.1471	3503.0982
COC1CC2NC12C#C	CO[C@H]1C[C@H]2N[C@@]12C#C	
InChI=1S/C7H9NO/c1-3-7-5(8-7)4-6(7)9-2/h1,5-6,8H,4H2,2H3	InChI=1S/C7H9NO/c1-3-7-5(8-7)4-6(7)9-2/h1,5-6,8H,4H2,2H3/t5-,6+,7-/m1/s1
