18
gdb 44963	2.56751	1.79448	1.60136	3.9781	70.64	-0.2379	0.0281	0.266	925.8376	0.151902	-439.132257	-439.125434	-439.124489	-439.163227	27.928	
O	-0.006256298	-0.019507787	 0.0524400932	-0.386152
C	-0.0032124859	 1.1861890386	-0.0220991823	 0.426132
N	-1.108597009	 2.0103368224	-0.0968447989	-0.287262
C	-0.7306279499	 3.415263852	 0.0605983848	-0.027315
C	 0.6361793798	 3.4060416248	-0.6512875187	-0.226333
C	 1.21116816	 2.1367575418	-0.0047710648	-0.156199
C	 1.5059151176	 2.454615395	 1.4763369663	-0.080558
O	 0.3198875241	 2.8055261614	 2.1827818477	-0.250165
C	-0.4974852127	 3.7714912208	 1.5442581373	-0.076148
H	-2.0032819017	 1.651009529	 0.2017340059	 0.248841
H	-1.4668352818	 4.0849868126	-0.3915698372	 0.083966
H	 0.5146335513	 3.2999952345	-1.7322816071	 0.112794
H	 1.2250848014	 4.3039919187	-0.44496257	 0.101682
H	 2.0828082105	 1.7010069605	-0.4939029591	 0.092986
H	 1.903996995	 1.5777616723	 1.9930990002	 0.131568
H	 2.2499774658	 3.2660711883	 1.5359003922	 0.091385
H	-0.0543246889	 4.779755174	 1.6087620913	 0.091159
H	-1.4379399276	 3.7794341703	 2.1045840992	 0.109618
141.0807	241.9023	270.619	378.0728	422.4077	478.5477	488.17	508.0791	592.9621	687.6875	770.6014	803.8846	826.177	853.6271	885.6678	936.852	953.0493	987.836	1013.815	1044.9473	1058.8038	1094.7582	1119.3546	1175.9332	1210.397	1229.6806	1261.4228	1267.1429	1309.3275	1322.8503	1330.5077	1357.6724	1390.5432	1407.3357	1419.2856	1493.248	1494.2966	1510.0741	1845.3981	2964.5173	2971.0996	3058.0584	3073.0919	3080.6273	3099.2044	3109.0719	3116.3097	3621.1086
O=C1NC2CC1COC2	O=C1N[C@@H]2C[C@H]1COC2	
InChI=1S/C6H9NO2/c8-6-4-1-5(7-6)3-9-2-4/h4-5H,1-3H2,(H,7,8)	InChI=1S/C6H9NO2/c8-6-4-1-5(7-6)3-9-2-4/h4-5H,1-3H2,(H,7,8)/t4-,5+/m0/s1
