18
gdb 91306	2.49986	1.54293	1.12658	2.2757	78.73	-0.2141	0.0216	0.2357	1121.7831	0.146014	-401.852683	-401.84418	-401.843236	-401.885907	31.997	
C	-0.0699140178	 1.58122569	 0.1389448964	-0.328124
N	 0.0861932406	 0.1463134586	 0.1500280179	-0.055131
C	-1.1222648821	-0.7069585483	 0.2352408334	-0.190504
C	-0.4135016417	-1.5784334824	 1.2895328181	 0.105336
O	 0.4956397136	-2.556498756	 0.746709598	-0.310323
C	 1.6455006413	-1.6731977794	 0.9277250444	-0.058833
C	 2.4943537271	-1.5361555566	-0.2378203517	 0.343296
C	 3.2319892531	-1.4248950778	-1.1800009091	-0.439068
C	 0.6974712572	-0.5050274603	 1.3173389052	-0.073186
H	 0.9133955487	 2.0618692802	 0.1587458087	 0.12688
H	-0.5697915724	 1.8874590523	-0.7860087731	 0.12615
H	-0.6631056771	 1.9717399707	 0.988656416	 0.08782
H	-1.9948910535	-0.1850504914	 0.6607421303	 0.087425
H	-1.4089754478	-1.1981805429	-0.7001151127	 0.115681
H	-0.982620494	-1.9568010553	 2.1400226097	 0.086824
H	 2.2381531548	-2.0209129131	 1.7859931723	 0.100562
H	 3.8720208173	-1.3229383547	-2.0212800967	 0.198413
H	 0.9701029527	 0.1317000763	 2.1620325129	 0.076782
85.6546	98.4582	183.4665	207.5831	272.8378	291.4964	344.5164	393.464	520.9422	545.4818	613.9603	673.2983	702.4211	736.2637	822.1759	847.2405	928.6754	962.1684	978.137	991.7535	1017.94	1046.675	1076.4557	1137.7327	1166.2407	1189.8136	1195.5045	1214.4408	1247.2306	1280.8906	1297.4334	1327.1116	1352.0125	1361.6402	1452.9123	1483.4539	1499.0246	1502.9289	2237.6748	2916.3011	2971.9869	2999.1958	3058.1465	3073.096	3081.5844	3099.5546	3102.3193	3503.4425
CN1CC2OC(C#C)C12	CN1C[C@H]2O[C@@H](C#C)[C@@H]12	
InChI=1S/C7H9NO/c1-3-5-7-6(9-5)4-8(7)2/h1,5-7H,4H2,2H3	InChI=1S/C7H9NO/c1-3-5-7-6(9-5)4-8(7)2/h1,5-7H,4H2,2H3/t5-,6+,7+/m0/s1
