21
gdb 121026	3.1577	0.98995	0.81428	1.0637	80.56	-0.2492	0.0106	0.2599	1454.5382	0.182185	-424.221672	-424.212147	-424.211203	-424.256584	34.876	
C	 0.2220691507	 1.3371211748	-0.2511168538	-0.224181
O	 0.0761631071	-0.028279856	 0.0515813302	-0.236852
C	-1.2266057228	-0.5120083006	-0.2100971516	-0.061448
C	-1.2719618259	-1.9803456696	 0.1791181875	-0.04132
C	-0.9947483418	-2.2636089901	 1.6781598921	-0.263882
C	-1.9130570174	-3.4213495963	 1.9830922311	-0.063595
C	-2.7679533655	-3.6724549109	 0.9907261653	-0.113502
C	-2.6334719576	-2.6728097739	-0.1328371524	 0.072331
O	-3.758209784	-1.7856701962	-0.1807768919	-0.430477
H	 1.2522382385	 1.6181517202	-0.0177488026	 0.123828
H	 0.0303873844	 1.5435256293	-1.3163448603	 0.102934
H	-0.4608316323	 1.964714071	 0.3441516507	 0.100731
H	-1.971778253	 0.0631410048	 0.363141586	 0.078117
H	-1.4808628486	-0.3846938706	-1.2753790744	 0.09115
H	-0.5046150689	-2.5009224848	-0.4046617418	 0.087082
H	 0.0581359047	-2.4992900391	 1.8623187685	 0.117063
H	-1.2220437055	-1.3973211039	 2.315456246	 0.105472
H	-1.8695993993	-3.967929747	 2.9198024197	 0.097124
H	-3.5374391203	-4.4363447774	 0.9889535018	 0.097295
H	-2.6201485699	-3.1325225363	-1.1262750088	 0.086861
H	-3.9833610726	-1.5623619374	 0.7292425189	 0.275268
67.2936	90.2148	108.8776	135.4518	233.3571	262.4138	280.3153	341.3717	353.8016	412.3918	505.5793	546.0399	730.1582	747.9232	798.7196	815.3845	901.6217	932.3916	966.3029	982.775	987.1582	1011.2547	1067.2584	1114.494	1122.4507	1137.1759	1163.1843	1175.3986	1193.1076	1218.9722	1242.3232	1258.5794	1283.4729	1312.2065	1318.1435	1352.9588	1382.8666	1420.2697	1429.1071	1481.4159	1483.061	1485.0911	1503.7238	1522.2038	1677.8961	2958.7361	2971.4811	2990.7181	3009.0644	3012.1755	3042.4327	3061.1883	3075.1696	3109.7607	3177.9443	3206.0068	3799.1483
COCC1CC=CC1O	COC[C@H]1CC=C[C@H]1O	
InChI=1S/C7H12O2/c1-9-5-6-3-2-4-7(6)8/h2,4,6-8H,3,5H2,1H3	InChI=1S/C7H12O2/c1-9-5-6-3-2-4-7(6)8/h2,4,6-8H,3,5H2,1H3/t6-,7-/m1/s1
