17
gdb 93392	2.38348	1.91308	1.44337	3.2995	69.38	-0.2377	0.0327	0.2704	946.5188	0.137634	-455.122326	-455.114693	-455.113749	-455.15439	29.689	
O	-0.0602407768	 1.4867801439	 0.6262905792	-0.437187
C	-0.0233856738	 0.1820123646	 0.0774294488	 0.08129
C	 0.7782793179	-0.7686568254	 0.9695845258	-0.101704
O	 0.1814898297	-0.8007127399	 2.2761792183	-0.274971
C	-1.1922772921	-0.742076162	 2.3872707416	 0.384984
N	-1.7603891495	-0.5138552381	 3.4945624852	-0.529333
N	-1.916239365	-1.0067752796	 1.2198605139	-0.108259
C	-2.6214252912	 0.0933352807	 0.5563587387	-0.237557
C	-1.3897764581	-0.4808501242	-0.0445315679	-0.030729
H	 0.033217248	 1.416995189	 1.5835317065	 0.302096
H	 0.4436570488	 0.2570980256	-0.9097007458	 0.099384
H	 0.8056875039	-1.7750240172	 0.5345514021	 0.123096
H	 1.8015953902	-0.4185288042	 1.1265730726	 0.12776
H	-1.0595216138	-0.3835583324	 4.223054275	 0.221719
H	-3.5914286949	-0.1641674063	 0.1435128482	 0.13062
H	-2.5439446146	 1.0742807454	 1.0129883145	 0.144807
H	-1.4828921487	-1.1759677601	-0.8770132967	 0.103981
84.7694	185.0983	198.0164	287.9802	327.0893	376.173	437.7959	482.4967	574.5537	587.4379	697.1683	738.3709	776.909	839.6257	866.8297	884.3727	918.5881	955.5745	1005.1089	1018.0598	1060.2583	1089.1973	1117.5692	1128.0024	1159.1391	1173.6629	1234.498	1254.1347	1269.9459	1348.6997	1359.6352	1397.5125	1412.6982	1424.7243	1502.8181	1508.0518	1744.8242	3035.2261	3065.3314	3105.7292	3123.4384	3130.8271	3226.3157	3504.0569	3796.1976
OC1COC(=N)N2CC12	O[C@H]1CO[C]([NH])N2C[C@@H]12	
InChI=1S/C5H8N2O2/c6-5-7-1-3(7)4(8)2-9-5/h3-4,6,8H,1-2H2	InChI=1S/C5H8N2O2/c6-5-7-1-3(7)4(8)2-9-5/h3-4,6,8H,1-2H2/t3-,4-,7?/m0/s1
