25
gdb 122213	2.7218	0.79756	0.69695	1.0475	89.8	-0.2445	0.0823	0.3267	1785.1342	0.226654	-389.476899	-389.465824	-389.46488	-389.513845	40.267	
C	 0.7167838587	 1.4706318702	 0.4411916287	-0.379715
C	 0.2575739657	 0.0474648599	 0.112434081	-0.166132
C	 0.9513143852	-0.5375325886	-1.1216980084	-0.149802
C	 0.498409709	-1.9647786563	-1.4545647355	-0.273289
C	 1.2180829519	-2.5538421984	-2.6544737247	 0.452469
C	 0.5611995243	-3.6319289626	-3.4824690811	-0.33452
C	 0.7416993911	-2.2314888733	-4.0384517078	-0.31141
O	 2.6183879657	-2.6119307502	-2.5465987086	-0.283703
C	 3.0989978496	-3.5954864586	-1.6516949318	-0.247445
H	 1.7944436674	 1.5025053875	 0.6366596345	 0.113782
H	 0.5137939143	 2.1541399406	-0.3908759835	 0.113152
H	 0.2058354136	 1.8629728944	 1.326198501	 0.108899
H	 0.4424498295	-0.6052036309	 0.9764064483	 0.091001
H	-0.8299005145	 0.0399811843	-0.0426604955	 0.090848
H	 0.7648818683	 0.1101906692	-1.9888476401	 0.093493
H	 2.0378619052	-0.5339704681	-0.9731408371	 0.105897
H	 0.6455459206	-2.6113737753	-0.5786140885	 0.092458
H	-0.5797559336	-1.9776479019	-1.6564844722	 0.093133
H	 1.2032972175	-4.4061495628	-3.8874068513	 0.115031
H	-0.4365325503	-3.9633102706	-3.2148009378	 0.10901
H	-0.1322894271	-1.5985835005	-4.1489446167	 0.108735
H	 1.5053579103	-2.0942603138	-4.7949369579	 0.121219
H	 2.8411208205	-3.3744857685	-0.6063603873	 0.107147
H	 2.7121204858	-4.5940894148	-1.8998320609	 0.105631
H	 4.187804901	-3.6025483209	-1.7451888966	 0.124112
51.112	65.3019	107.2543	116.7693	142.8054	198.4231	242.481	257.1076	286.0456	298.9966	349.0201	425.7163	453.0274	565.3041	725.1414	735.6403	781.2268	793.802	883.4653	901.0405	918.1794	926.1705	969.7227	981.7903	1026.56	1047.2081	1067.9105	1078.0501	1098.9434	1115.3764	1133.6286	1181.7295	1189.5673	1218.706	1231.8029	1274.1571	1284.9969	1312.7871	1325.6828	1350.4702	1377.682	1398.2018	1411.9082	1453.1576	1470.4667	1477.1006	1485.4973	1494.9359	1498.9816	1499.2094	1501.3034	1509.9139	1513.5931	2991.7596	3008.1952	3011.5521	3023.1501	3028.8466	3034.7376	3042.8131	3048.1321	3072.467	3095.3774	3099.8716	3113.1325	3131.1727	3136.9653	3215.3931	3230.9469
CCCCC1(CC1)OC	CCCCC1(CC1)OC	
InChI=1S/C8H16O/c1-3-4-5-8(9-2)6-7-8/h3-7H2,1-2H3	InChI=1S/C8H16O/c1-3-4-5-8(9-2)6-7-8/h3-7H2,1-2H3
