18
gdb 63098	2.70174	1.41395	1.23999	2.8132	72.18	-0.2376	0.0279	0.2655	1073.0969	0.148002	-439.116863	-439.108446	-439.107502	-439.149476	32.548	
C	-0.0931973462	 1.5781436891	 0.0384204019	-0.46717
C	 0.0305502148	 0.0742448726	-0.0386790699	 0.403063
O	-1.109204829	-0.6077750049	 0.4190480044	-0.463663
C	 0.6773433916	-0.6650716753	-1.1663945946	-0.099564
C	 1.6203659522	 0.0863856514	-2.1046998073	-0.199558
N	 2.6775758045	 0.5501414508	-1.22198435	-0.312351
C	 2.6324197345	 0.0747654837	 0.0696388323	 0.400205
O	 3.4873510878	 0.2397004088	 0.9128146018	-0.385863
C	 1.3375125878	-0.6801905328	 0.2061750928	-0.244185
H	 0.7920320964	 2.0877823762	-0.345593723	 0.137075
H	-0.9674321913	 1.9075759533	-0.5320697864	 0.127399
H	-0.2302220708	 1.8946246501	 1.0792484567	 0.118271
H	-1.2172126174	-0.4058904428	 1.3555551601	 0.284727
H	 0.1529915059	-1.5327620762	-1.5459879393	 0.109163
H	 2.008779496	-0.5902012179	-2.8774066002	 0.115506
H	 1.1231565353	 0.9221026737	-2.6140943447	 0.114083
H	 3.480999937	 1.065930792	-1.5423979787	 0.251464
H	 1.314665501	-1.5322811818	 0.8723156339	 0.111397
110.6715	180.0132	203.893	211.9522	254.4091	322.7758	396.0354	413.0882	450.6701	482.8066	509.3961	617.6762	665.8827	745.4568	778.1541	838.3888	891.2129	939.5317	968.263	987.7093	1020.4434	1029.9355	1080.8208	1086.1176	1112.6931	1170.2269	1219.276	1243.3238	1270.733	1285.8798	1309.2595	1357.9251	1418.4644	1437.6545	1451.8336	1491.6867	1500.7911	1531.2772	1823.0902	3007.6417	3032.8107	3035.1596	3093.936	3137.4938	3195.9053	3210.6377	3650.5629	3791.8127
CC1(O)C2CNC(=O)C12	C[C@@]1(O)[C@H]2CNC(=O)[C@@H]12	
InChI=1S/C6H9NO2/c1-6(9)3-2-7-5(8)4(3)6/h3-4,9H,2H2,1H3,(H,7,8)	InChI=1S/C6H9NO2/c1-6(9)3-2-7-5(8)4(3)6/h3-4,9H,2H2,1H3,(H,7,8)/t3-,4-,6+/m0/s1
