20
gdb 94191	2.76775	1.27346	1.18906	2.0915	74.43	-0.2403	0.0582	0.2985	1153.5486	0.169891	-440.236109	-440.226725	-440.225781	-440.270278	34.738	
C	-0.0869686859	 1.6740127381	 0.2692661541	-0.425546
C	-0.0482009087	 0.1659860915	 0.0690646113	 0.359099
O	 0.786323941	-0.2040103701	-1.0712920388	-0.3287
C	 1.8201010617	-0.7357761346	-0.2136274083	-0.112147
C	 0.9107090239	-0.6023515273	 1.0251218584	 0.01652
O	 1.3749811323	 0.1545072784	 2.1139406392	-0.422812
C	-1.4366215951	-0.4218139963	-0.0668625231	-0.038629
C	-2.0998544327	-0.4823712783	-1.3892534225	-0.243592
N	-1.6278418809	-1.7182853766	-0.7298516987	-0.336733
H	 0.9168985179	 2.0797156326	 0.4082707137	 0.128469
H	-0.5448788757	 2.1446074568	-0.6053065849	 0.123069
H	-0.6786255444	 1.9287849095	 1.153700407	 0.124509
H	 2.1275331698	-1.7429882766	-0.5165440698	 0.101944
H	 2.6967972053	-0.0774604093	-0.1693327299	 0.106416
H	 0.4840803871	-1.5586144949	 1.3493394352	 0.090488
H	 1.8057234343	-0.4351723332	 2.7392120373	 0.292608
H	-2.051805889	-0.2828372087	 0.8210492932	 0.092369
H	-3.1784625439	-0.3796768478	-1.4641204535	 0.11475
H	-1.538207306	-0.1242545524	-2.2472277847	 0.12544
H	-0.742994211	-1.9685971408	-1.1704569153	 0.232478
80.0092	95.9379	165.7148	185.9072	199.0541	241.7783	264.824	312.5966	372.5425	449.9214	490.6873	599.392	625.5204	769.784	841.246	864.4624	880.7917	919.1223	943.3863	987.8527	1003.3458	1015.8486	1060.6297	1096.9992	1108.4181	1135.1361	1156.0408	1166.037	1175.4263	1193.676	1240.1179	1268.9997	1289.7238	1305.3834	1310.561	1331.1276	1401.9953	1413.5007	1445.3741	1483.826	1487.8658	1504.3132	1515.7755	3017.6545	3034.7625	3048.3142	3072.849	3113.0064	3116.8667	3121.956	3136.4287	3203.1913	3472.3583	3835.5721
CC1(OCC1O)C1CN1	C[C@]1(OC[C@H]1O)[C@H]1CN1	
InChI=1S/C6H11NO2/c1-6(4-2-7-4)5(8)3-9-6/h4-5,7-8H,2-3H2,1H3	InChI=1S/C6H11NO2/c1-6(4-2-7-4)5(8)3-9-6/h4-5,7-8H,2-3H2,1H3/t4-,5-,6+/m1/s1
