23
gdb 112711	2.36947	1.24181	1.07038	2.5275	82.03	-0.2372	0.0658	0.3029	1300.2013	0.20496	-425.444516	-425.434508	-425.433564	-425.479439	37.53	
C	-0.4346574769	 1.3485938294	-0.1489480399	-0.380836
C	-0.1087390616	-0.1457000745	-0.1867716175	-0.179982
C	 0.9145002305	-0.5045213617	-1.2671100748	 0.158602
C	 1.1930387274	-2.0202000363	-1.3919670242	-0.299728
C	 0.3258425083	-2.4445529364	-2.5857825681	 0.100756
O	-1.0311169334	-2.6688855586	-2.2232019078	-0.428763
C	 0.3988065533	-1.1874642162	-3.4632776078	 0.152395
C	-0.7353815343	-0.9941254561	-4.4553999723	-0.399835
O	 0.4164468131	-0.0930651234	-2.5477334205	-0.292405
H	 0.4577001486	 1.9438279683	 0.0773752348	 0.106552
H	-0.8195995908	 1.6776446406	-1.1173931402	 0.135238
H	-1.186288001	 1.5711138732	 0.6146727083	 0.104856
H	 0.2892653768	-0.4691530576	 0.7844986848	 0.081945
H	-1.0164321972	-0.7291098373	-0.3768253775	 0.107207
H	 1.8484139707	 0.0434735622	-1.071817617	 0.063766
H	 2.2478595953	-2.207030029	-1.6178168317	 0.102491
H	 0.9467357998	-2.5723285615	-0.4799435513	 0.092751
H	 0.7347377535	-3.3191428887	-3.1109972451	 0.063716
H	-1.0519516386	-3.3882198817	-1.5849441201	 0.283931
H	 1.3589017229	-1.2243786757	-4.0074139318	 0.059482
H	-1.6962436192	-1.0074854463	-3.938965438	 0.140045
H	-0.6193785694	-0.0361360699	-4.9692134697	 0.119467
H	-0.7277179076	-1.7913377229	-5.2054405328	 0.108351
54.6536	110.861	121.7646	202.335	233.1485	240.2892	263.7527	271.536	349.859	390.2482	397.8054	446.87	527.4772	702.1105	753.7291	779.247	806.644	855.6392	876.7273	919.5358	974.594	986.5897	1000.7017	1029.1779	1060.4121	1076.1729	1104.0852	1134.2525	1153.9519	1179.4134	1209.2464	1227.8654	1276.9609	1296.5087	1324.9329	1335.4997	1353.0936	1379.8768	1387.8208	1403.1252	1408.7762	1415.4049	1424.1984	1480.6361	1483.3675	1487.1046	1497.22	1497.5634	1510.561	2942.1922	2982.9446	3003.2245	3018.8643	3033.4943	3049.2927	3051.5232	3073.5912	3093.8023	3098.8579	3116.4842	3124.8214	3148.2473	3826.2131
CCC1CC(O)C(C)O1	CC[C@H]1C[C@@H](O)[C@@H](C)O1	
InChI=1S/C7H14O2/c1-3-6-4-7(8)5(2)9-6/h5-8H,3-4H2,1-2H3	InChI=1S/C7H14O2/c1-3-6-4-7(8)5(2)9-6/h5-8H,3-4H2,1-2H3/t5-,6+,7-/m1/s1
