21
gdb 36980	5.89285	0.61311	0.58306	1.976	79.14	-0.2442	0.0777	0.3219	1887.9198	0.182014	-424.178387	-424.169048	-424.168104	-424.214517	32.965	
C	-0.0257364877	 1.5910048891	-0.2798361272	-0.224302
C	-0.0486081709	 0.0964015949	 0.0718281666	-0.203138
C	-1.451522995	-0.4959703033	 0.0821336742	-0.025516
C	-2.1444156238	-0.7371366354	-1.2810036429	-0.07466
O	-2.2638565881	-2.1503160384	-1.0259846387	-0.271473
C	-1.5753394799	-2.0292557642	 0.2353075269	-0.091209
C	 1.3724485486	 2.1587129616	-0.2769228629	 0.099116
C	 1.676171941	 3.5135152834	 0.1980578447	-0.180951
O	 1.9675585079	 2.3726515169	 1.0075524747	-0.236633
H	-0.4707516804	 1.7507969297	-1.2715234701	 0.103054
H	-0.6363489953	 2.1502545228	 0.4393140461	 0.103143
H	 0.5725422135	-0.4597723488	-0.6440568696	 0.098234
H	 0.4154261544	-0.0393985676	 1.0565691165	 0.118277
H	-2.0856629444	 0.051645726	 0.7858149191	 0.079052
H	-3.1225039816	-0.2621915072	-1.425538944	 0.099968
H	-1.5190324886	-0.5312454592	-2.1617754843	 0.092435
H	-0.619561141	-2.5713638021	 0.2355044077	 0.097009
H	-2.1858674866	-2.3883672424	 1.0726799835	 0.1003
H	 2.0564626706	 1.715947511	-1.0045856242	 0.090698
H	 2.543073101	 4.0461173518	-0.190855581	 0.114605
H	 0.8672544561	 4.1480348115	 0.5589071747	 0.111992
41.9916	56.7086	78.5853	119.6751	128.4744	239.8504	314.152	405.9044	440.5343	473.1696	738.441	781.6816	806.0829	867.0287	880.4718	893.8141	942.2098	948.4485	982.7908	1021.6166	1044.5425	1051.1893	1068.988	1107.1709	1121.3198	1155.4967	1160.7309	1165.2003	1169.3312	1191.651	1237.2333	1257.8434	1290.0177	1298.7313	1312.8048	1324.1674	1353.3477	1386.3742	1405.2039	1449.2099	1470.5384	1493.956	1512.5351	1531.4266	1538.2838	2992.1094	3003.2406	3012.4658	3018.2413	3039.8397	3045.785	3050.1426	3063.5108	3074.6416	3080.3466	3089.6413	3166.1456
C(CC1COC1)C1CO1	C(CC1COC1)[C@H]1CO1	
InChI=1S/C7H12O2/c1(2-7-5-9-7)6-3-8-4-6/h6-7H,1-5H2	InChI=1S/C7H12O2/c1(2-7-5-9-7)6-3-8-4-6/h6-7H,1-5H2/t7-/m0/s1
