16
gdb 6005	2.66293	1.90215	1.4616	0.666	65.23	-0.265	0.013	0.278	912.1952	0.128971	-379.980747	-379.971656	-379.970711	-380.014411	32.649	
C	 0.5317497422	 1.6127465204	 0.5747318193	-0.405584
C	 0.2471252387	 0.1721167962	 0.0883865476	-0.048484
C	 0.3190695121	-0.822132421	 1.2713196975	-0.405596
C	-1.083152874	 0.1124314659	-0.5263571166	 0.28805
N	-2.1169186949	 0.055627349	-1.0427979527	-0.35683
C	 1.3676257455	-0.216105721	-0.9258244077	 0.452586
N	 0.9753917032	-0.5416412041	-2.1797172727	-0.552052
O	 2.5254279197	-0.2117347654	-0.5594406983	-0.373517
H	 1.5503951872	 1.6479778428	 0.9648605311	 0.154736
H	 0.4434354733	 2.3320968737	-0.2434627701	 0.136614
H	-0.1715609071	 1.8940743688	 1.3623138685	 0.132055
H	-0.3834602996	-0.5308923343	 2.055991653	 0.132067
H	 0.0791903342	-1.8388655137	 0.9497273446	 0.136597
H	 1.3356742529	-0.8099588072	 1.6680961396	 0.154726
H	 0.0098769372	-0.5387912795	-2.4628611399	 0.285731
H	 1.6866543695	-0.7947617105	-2.846139423	 0.2689
36.6864	162.1336	190.4802	215.2714	254.0201	259.0646	301.8338	315.0941	330.2473	443.3365	503.0194	563.1064	591.5603	613.3715	690.2784	773.7279	844.8424	957.7528	958.7535	1038.5681	1107.3714	1149.1263	1197.4137	1246.1721	1345.9004	1390.638	1415.9969	1479.5653	1487.1878	1498.0868	1509.1545	1619.3666	1800.3802	2342.0382	3051.6416	3053.7986	3127.1604	3129.2156	3146.6885	3149.845	3594.6752	3727.3353
CC(C)(C#N)C(N)=O	CC(C)(C#N)C(=O)N	
InChI=1S/C5H8N2O/c1-5(2,3-6)4(7)8/h1-2H3,(H2,7,8)	InChI=1S/C5H8N2O/c1-5(2,3-6)4(7)8/h1-2H3,(H2,7,8)
