14
gdb 129652	2.35188	1.91998	1.06147	3.9156	71.16	-0.2108	-0.053	0.1578	1035.9195	0.101975	-470.002687	-469.994826	-469.993882	-470.034799	29.816	
N	 0.005547762	 1.3834610902	 0.1427485558	-0.563747
C	-0.0438516029	 0.0161004513	 0.0674113027	 0.410768
C	-1.2089731215	-0.6944403479	-0.0222360525	 0.03506
N	-2.4546498273	-0.0415938471	-0.1117123869	-0.615843
C	-1.1311711198	-2.1220860065	-0.1198134954	 0.317298
O	-2.1030694585	-2.8641992003	-0.2579774464	-0.408385
C	 0.2522278234	-2.6230090341	-0.0319130581	-0.050529
N	 1.3306480237	-1.9340242735	 0.1044572718	-0.071468
O	 1.1753880714	-0.5502939195	 0.1450911891	-0.266018
H	 0.904745905	 1.7900681618	-0.0731931489	 0.271418
H	-0.7784770926	 1.8342844343	-0.311889673	 0.276354
H	-2.6811337079	 0.4839209853	 0.7273791094	 0.249219
H	-3.1660537233	-0.7559673192	-0.2487944091	 0.262944
H	 0.4110903682	-3.6978227548	-0.0585521184	 0.152929
130.2073	185.9786	208.2147	262.5157	301.3005	327.0882	435.7591	486.1763	503.1438	524.974	568.2418	605.821	678.2752	688.1353	753.6369	851.9844	894.3789	919.7186	949.7019	1026.7602	1110.432	1218.7443	1274.9967	1303.889	1364.2838	1459.6596	1617.5784	1624.2757	1641.114	1684.0722	1727.6283	3181.43	3481.1381	3544.6144	3563.6462	3662.3059
NC1=C(N)C(=O)C=NO1	Nc1c(N)c(=O)cno1	
InChI=1S/C4H5N3O2/c5-3-2(8)1-7-9-4(3)6/h1H,5-6H2	InChI=1S/C4H5N3O2/c5-3-2(8)1-7-9-4(3)6/h1H,5-6H2
