15
gdb 77333	2.57577	1.49649	1.1398	4.2411	65.82	-0.2754	-0.0022	0.2732	1063.4912	0.113572	-454.000821	-453.992499	-453.991554	-454.034382	29.009	
C	-0.0909719607	 1.4068026189	-0.0199175746	-0.353631
N	-0.0527269761	-0.0392114015	-0.1108789006	-0.126787
C	-1.217307145	-0.8765249747	 0.058670609	-0.16032
C	-0.5724284833	-2.280600904	-0.0951387929	-0.102393
O	 0.8104668668	-2.0804585406	 0.1798389847	-0.237702
C	 1.1159237973	-0.749256663	 0.0955978552	 0.50451
O	 2.2278883891	-0.3139983441	 0.1797901268	-0.386022
C	-1.8799097535	-0.6795067323	 1.3661374014	 0.27942
N	-2.4007164371	-0.5104502834	 2.3834974971	-0.309439
H	 0.9393880155	 1.7604698563	-0.0697737331	 0.177343
H	-0.6620057743	 1.8304963553	-0.8522318113	 0.133222
H	-0.5395748411	 1.7377841807	 0.9246429135	 0.148978
H	-1.9655805422	-0.698784817	-0.7218943896	 0.142884
H	-0.9747136961	-3.0141113721	 0.6036600931	 0.154482
H	-0.6931651094	-2.6410211085	-1.1216385688	 0.135454
68.8824	112.1883	158.5754	179.4718	211.7418	268.114	306.3542	465.8338	497.6831	590.4265	671.0866	742.4841	762.0086	807.2631	851.6121	1001.9491	1023.5411	1086.0562	1093.48	1127.0937	1165.0654	1228.5472	1244.7315	1291.2562	1359.4004	1378.4834	1420.0807	1454.9671	1492.1181	1515.6049	1520.512	1888.8002	2355.4284	3026.8194	3044.0261	3059.6365	3087.7899	3137.7596	3155.6058
CN1C(COC1=O)C#N	CN1[C@@H](COC1=O)C#N	
InChI=1S/C5H6N2O2/c1-7-4(2-6)3-9-5(7)8/h4H,3H2,1H3	InChI=1S/C5H6N2O2/c1-7-4(2-6)3-9-5(7)8/h4H,3H2,1H3/t4-/m1/s1
