19
gdb 81191	3.09345	1.54642	1.41272	2.2361	80.68	-0.2299	-0.0005	0.2295	1012.5164	0.159853	-385.797377	-385.790122	-385.789178	-385.828536	30.145	
C	-0.0166602255	 1.6097867691	 0.0862388171	-0.435456
C	 0.0059129906	 0.0985035994	-0.0345356283	 0.004253
C	 1.2312871963	-0.5994787903	-0.6444029565	-0.03051
O	 2.0330938495	-0.2122207595	 0.5725698187	-0.377174
C	 0.7357926581	-0.7609353954	 1.0645870866	 0.413639
C	 0.1318701316	-1.3200753488	 2.3055617576	-0.246824
C	-0.5288936935	-2.4266880499	 1.9203954023	-0.041783
C	-0.3635645204	-2.7721734097	 0.4244072046	-0.351292
C	 0.8865681567	-1.9308611857	 0.1078916981	 0.008181
H	 0.9558024919	 1.9831285042	 0.4122825915	 0.138587
H	-0.2640757573	 2.0730254677	-0.8755643296	 0.112458
H	-0.7763347938	 1.9310361555	 0.8071621523	 0.113722
H	-0.9615441309	-0.3030661394	-0.351316904	 0.068453
H	 1.7312120445	-0.4399889149	-1.6013412618	 0.087759
H	 0.1013760039	-0.8672652943	 3.2881226043	 0.111852
H	-1.1792946216	-3.0056344789	 2.5681579009	 0.102724
H	-0.2263370063	-3.8441813306	 0.2532597728	 0.109293
H	-1.2639166636	-2.4763790537	-0.1270818408	 0.122002
H	 1.7993861298	-2.4914283348	 0.3198408243	 0.090115
184.6535	216.1266	225.855	293.9343	348.716	431.5916	495.7749	554.7029	609.9601	654.4714	702.5017	733.6898	776.9915	811.9048	838.5928	884.6745	916.0896	933.6417	951.6197	980.6463	1010.268	1051.9318	1068.3786	1082.9888	1117.9885	1128.8356	1141.2443	1174.6425	1195.6353	1200.7235	1223.9269	1259.1303	1293.7812	1354.217	1375.1084	1396.7494	1415.437	1481.0822	1494.1498	1506.0196	1607.0245	3033.3356	3037.9415	3062.6603	3076.1543	3088.6644	3094.7197	3104.9779	3136.7828	3185.7863	3221.0576
CC1C2OC11C=CCC21	C[C@H]1[C@H]2O[C@]31C=CC[C@@H]23	
InChI=1S/C8H10O/c1-5-7-6-3-2-4-8(5,6)9-7/h2,4-7H,3H2,1H3	InChI=1S/C8H10O/c1-5-7-6-3-2-4-8(5,6)9-7/h2,4-7H,3H2,1H3/t5-,6-,7+,8-/m0/s1
