25
gdb 113918	3.41855	0.69502	0.63597	1.3313	90.05	-0.2567	0.0788	0.3354	1877.6161	0.227092	-389.479526	-389.468373	-389.467429	-389.516507	40.78	
C	 0.1489941594	 1.5335716084	 0.0443342355	-0.392285
C	 0.0701488547	 0.0028193131	 0.1134063007	 0.045
C	 0.6011970821	-0.5099509649	 1.4588678025	-0.377388
C	-1.366520035	-0.4777778604	-0.1752402193	-0.195983
C	-1.4972188205	-1.9841970016	-0.3153228406	-0.014935
C	-1.9228945343	-2.8690265057	 0.8329647277	-0.277851
C	-2.8294523442	-2.7021969107	-0.3603941086	-0.00816
C	-4.1455032778	-1.9821101375	-0.232374811	-0.096814
O	-5.1103042513	-2.9178028291	 0.2367916194	-0.421194
H	 1.1733540791	 1.8860406842	 0.2044956053	 0.108393
H	-0.1872932205	 1.9089641131	-0.9281298189	 0.107418
H	-0.4824571951	 1.9934183759	 0.8144462432	 0.109749
H	 0.7161851221	-0.402105881	-0.6797808756	 0.069383
H	-0.0095776495	-0.1317420936	 2.2879975464	 0.106685
H	 0.5909959921	-1.6017943417	 1.5096631971	 0.122235
H	 1.6296712072	-0.1730241489	 1.6269765623	 0.106232
H	-2.0273913104	-0.1109331839	 0.6209356716	 0.089445
H	-1.7096136127	 0.002611229	-1.1021684283	 0.089189
H	-0.7454478882	-2.4126983351	-0.9757563936	 0.079242
H	-1.4261165091	-3.8212535163	 0.9834758474	 0.107959
H	-2.2254086472	-2.3775238335	 1.7527996856	 0.11016
H	-2.8837511207	-3.5493223172	-1.0390353588	 0.086588
H	-4.0525983493	-1.132554446	 0.4610223319	 0.080801
H	-4.4440013949	-1.5714573059	-1.2110563385	 0.083322
H	-5.967679556	-2.4818089006	 0.2419623867	 0.282806
42.7187	71.0462	98.7364	106.2983	204.7356	222.6092	247.7601	252.5447	273.6897	299.4699	379.5368	388.1946	434.9181	451.0541	559.2768	792.6886	818.7513	838.4698	860.5245	893.8238	924.404	930.873	952.3433	968.588	989.3358	1049.606	1059.621	1070.1854	1094.2942	1134.8749	1148.1495	1176.2002	1193.9876	1199.7667	1237.5647	1257.4768	1266.7436	1284.4331	1312.7279	1368.4571	1370.0588	1386.4867	1399.986	1418.3257	1426.3793	1472.2685	1480.2847	1487.515	1495.3966	1496.9588	1503.6451	1510.1775	1521.0722	2962.2474	2991.6759	2996.1086	3005.1632	3021.4903	3027.4496	3045.0654	3084.6155	3090.5016	3096.751	3115.3186	3117.5341	3125.7267	3143.4234	3209.7628	3823.9962
CC(C)CC1CC1CO	CC(C)C[C@H]1C[C@H]1CO	
InChI=1S/C8H16O/c1-6(2)3-7-4-8(7)5-9/h6-9H,3-5H2,1-2H3	InChI=1S/C8H16O/c1-6(2)3-7-4-8(7)5-9/h6-9H,3-5H2,1-2H3/t7-,8-/m0/s1
