17
gdb 50689	2.40309	1.47524	1.13419	3.3424	69.06	-0.2486	-0.0436	0.205	1100.3937	0.134408	-458.976646	-458.967857	-458.966913	-459.011641	30.468	
O	 0.4556479072	-0.2044353629	 0.2587731392	-0.263631
C	 0.1515656294	 0.9143776789	-0.0666193691	 0.139709
C	 1.1490893003	 2.0667160433	-0.0685972853	-0.083276
C	 0.7576660204	 3.3058289027	-0.886104297	-0.276317
C	 1.6590939694	 4.394754344	-0.2877258983	-0.0729
O	 1.966884245	 3.9910782509	 1.0574694413	-0.276433
C	 1.421790874	 2.6993903569	 1.3140643791	 0.01717
C	 0.1725044029	 2.9041376575	 2.167239007	 0.142005
O	-0.901711324	 2.4052598132	 1.9469790166	-0.235585
H	-0.8691783402	 1.161688949	-0.4211818904	 0.092054
H	 2.0988860367	 1.6535618012	-0.4240412754	 0.114499
H	 0.9163613021	 3.1802416105	-1.9593467069	 0.118788
H	-0.3006176136	 3.5383043591	-0.725591811	 0.128866
H	 2.6018206606	 4.4842848727	-0.841992445	 0.11169
H	 1.1818217828	 5.3798255625	-0.2640537041	 0.115823
H	 2.1506480908	 2.1240772531	 1.8995123351	 0.119894
H	 0.3307053362	 3.6057821174	 3.013991634	 0.107644
35.7182	73.1578	107.8182	132.7848	204.6313	270.1843	345.1104	399.2182	448.7431	621.3103	682.6863	698.1951	770.3044	864.0094	928.1435	942.0527	971.8075	992.4711	1027.5789	1062.0923	1102.3236	1104.5894	1143.2866	1196.1861	1225.3381	1275.8187	1285.9107	1292.3432	1355.1632	1356.8394	1384.9347	1403.9406	1426.5939	1494.9281	1529.3375	1817.6465	1827.3607	2914.9687	2925.947	3023.2443	3030.3306	3052.214	3062.4781	3073.6993	3115.0396
O=CC1CCOC1C=O	O=C[C@H]1CCO[C@H]1C=O	
InChI=1S/C6H8O3/c7-3-5-1-2-9-6(5)4-8/h3-6H,1-2H2	InChI=1S/C6H8O3/c7-3-5-1-2-9-6(5)4-8/h3-6H,1-2H2/t5-,6+/m1/s1
