19
gdb 104520	2.66772	1.13521	0.92219	3.0969	76.99	-0.256	0.0503	0.3063	1298.2281	0.156562	-422.967582	-422.95765	-422.956706	-423.002413	36.939	
O	 0.3541503985	-1.1831473066	 1.5863249113	-0.430276
C	 0.1016376266	-0.4319195605	 0.4095552717	-0.127194
C	-1.3628442381	-0.5040432062	 0.0075660005	 0.310053
C	-2.3110090976	 0.2479698728	 0.9394188914	-0.437024
C	-2.1896928045	 1.6990288698	 0.8311708979	 0.32258
C	-2.0728503003	 2.890928345	 0.7268714327	-0.460447
C	-1.694373906	-0.6161795662	-1.4672349352	-0.374223
C	-1.8331017147	-1.8131190228	-0.5576716881	 0.04016
O	-0.8859698608	-2.8479186157	-0.5892524723	-0.428675
H	 0.2065748428	-2.1056120191	 1.3457948073	 0.294505
H	 0.3688714795	 0.6047718722	 0.6383768218	 0.119509
H	 0.7360616979	-0.768059692	-0.4201238085	 0.088921
H	-3.3486788311	-0.0446253483	 0.7360254203	 0.120691
H	-2.0928731031	-0.0648332429	 1.9684764005	 0.148977
H	-1.976794221	 3.945038464	 0.6449794135	 0.195055
H	-2.5977559424	-0.1437437386	-1.8388939983	 0.118392
H	-0.8606954181	-0.6108651085	-2.1620453628	 0.115679
H	-2.8424168695	-2.1385957634	-0.3047596612	 0.088908
H	-0.9990724084	-3.347503663	-1.4041923825	 0.29441
60.0073	100.9533	117.017	187.9092	229.2335	264.8719	299.9201	333.3505	347.8907	401.3965	433.821	478.1495	495.4564	616.5943	636.9254	649.8572	754.5954	827.3294	885.8745	921.497	945.3506	961.4175	995.8658	1032.0502	1044.5623	1066.4909	1098.6068	1167.9064	1205.7473	1213.1986	1276.545	1297.1125	1331.1886	1352.6105	1403.2334	1425.1456	1432.6003	1465.8451	1488.0492	1504.1613	2236.8147	3020.484	3021.9909	3057.972	3083.4847	3095.2448	3127.8311	3215.6792	3507.3142	3793.9148	3811.6781
OCC1(CC#C)CC1O	OC[C@@]1(CC#C)C[C@H]1O	
InChI=1S/C7H10O2/c1-2-3-7(5-8)4-6(7)9/h1,6,8-9H,3-5H2	InChI=1S/C7H10O2/c1-2-3-7(5-8)4-6(7)9/h1,6,8-9H,3-5H2/t6-,7-/m1/s1
