17
gdb 100168	2.09584	1.35391	1.20206	3.2046	65.84	-0.2431	-0.0518	0.1913	1141.1215	0.130558	-496.114296	-496.103818	-496.102874	-496.150456	36.333	
C	 0.0658366891	 1.5437197999	-0.0601295999	-0.474327
C	-0.1416230923	 0.0522540315	 0.0433680396	 0.34783
O	-0.3726892252	-0.5226756162	 1.079304886	-0.293187
C	-0.0649992232	-0.7502149998	-1.2753829443	 0.167717
O	 0.6917829145	-0.0271340345	-2.2244799863	-0.472257
C	 0.5400644447	-2.132408328	-1.0074680031	-0.117116
O	 0.8042209066	-2.6765376548	-2.2980172928	-0.445758
C	-1.5088543773	-0.9132238848	-1.8065657871	 0.120272
O	-2.3105459485	-1.6915724711	-1.3707761592	-0.229364
H	 1.0624619149	 1.7529578566	-0.4589523933	 0.162007
H	-0.644242665	 1.9764843649	-0.7739883816	 0.145885
H	-0.0607196735	 1.9972244918	 0.9230880598	 0.141276
H	 1.0358963912	-0.6907087984	-2.8392299924	 0.299629
H	 1.4609896357	-2.0280459499	-0.4199114906	 0.105663
H	-0.1836345109	-2.72825116	-0.4435324394	 0.144785
H	 1.2960317115	-3.4958597803	-2.1965111612	 0.30234
H	-1.7286008523	-0.2184783569	-2.6474800143	 0.094608
35.5852	83.0573	109.7557	150.2726	182.4999	215.0478	229.0038	258.3496	315.3841	350.6162	394.042	450.0073	498.7805	550.7228	585.3759	633.2193	755.3813	849.2029	948.2724	958.1572	1014.5293	1065.0696	1088.9968	1126.4063	1169.7924	1200.3813	1247.6908	1262.2373	1372.7156	1381.3885	1402.4607	1433.1195	1455.4276	1463.5859	1503.0864	1799.0503	1847.2978	2892.3247	3024.4398	3044.9533	3096.1104	3110.7603	3162.1519	3743.5378	3848.0176
CC(=O)C(O)(CO)C=O	CC(=O)[C@@](O)(CO)C=O	
InChI=1S/C5H8O4/c1-4(8)5(9,2-6)3-7/h2,7,9H,3H2,1H3	InChI=1S/C5H8O4/c1-4(8)5(9,2-6)3-7/h2,7,9H,3H2,1H3/t5-/m0/s1
