17
gdb 38468	3.01234	2.23383	1.83574	1.0837	71.84	-0.2334	0.0195	0.2529	800.9402	0.136843	-421.649928	-421.644045	-421.643101	-421.67963	26.304	
C	-0.0191494175	 1.5391500296	 0.2170351336	-0.377475
C	 1.5559075872	 1.3964331083	-0.1834293733	 0.067308
O	 2.4763271198	 0.4896881759	 0.5465789772	-0.325363
C	 2.1186488283	-0.7084496978	-0.2999236783	 0.048612
C	 0.9845253187	-1.6701183308	 0.352623901	 0.029947
C	 0.4587801159	-0.6869493838	 1.3589576702	-0.207311
C	 0.0415076008	-0.006009016	 0.0193162152	 0.343041
O	-0.2821637887	-1.4351566609	-0.4327861996	-0.395296
C	 1.1744804838	 0.1994767407	-1.0092476996	-0.009528
H	-0.3533640911	 1.8938370923	 1.1944525406	 0.120549
H	-0.4596350279	 2.1424212606	-0.5837678955	 0.123207
H	 2.0765458778	 2.3075196556	-0.4789906893	 0.096317
H	 3.0224459463	-1.1655337621	-0.7022704812	 0.081682
H	 1.1744333207	-2.731632869	 0.5086238455	 0.084043
H	-0.4599554319	-1.0449131602	 1.8266844006	 0.103644
H	 1.1190589919	-0.1895297861	 2.0614942305	 0.122567
H	 0.8397697357	 0.1719043637	-2.0415028176	 0.094055
305.4991	337.1308	406.7805	457.8322	547.0915	574.2572	630.1847	690.8397	739.7594	744.9082	784.656	787.3868	817.0245	826.9244	877.4195	907.7225	927.9432	952.3768	973.0238	981.2708	1032.8085	1062.1764	1086.0355	1113.7973	1143.7068	1166.9224	1190.0261	1198.4652	1220.628	1224.3998	1254.6021	1263.2563	1287.6876	1297.5242	1330.2311	1467.3666	1484.2137	3050.7406	3090.965	3111.0751	3116.0035	3125.9966	3132.6876	3162.5563	3183.0762
C1C2OC3C4CC1(O4)C23	C1[C@H]2O[C@H]3[C@H]4C[C@]1(O4)[C@@H]23	
InChI=1S/C7H8O2/c1-3-5-6(8-3)4-2-7(1,5)9-4/h3-6H,1-2H2	InChI=1S/C7H8O2/c1-3-5-6(8-3)4-2-7(1,5)9-4/h3-6H,1-2H2/t3-,4-,5+,6+,7+/m1/s1
