19
gdb 68311	3.25923	1.25199	1.12099	2.3823	75.68	-0.2396	0.0609	0.3004	1147.8709	0.160547	-419.091818	-419.083769	-419.082825	-419.125023	31.163	
O	-0.1673093122	 1.3733628807	-0.017251748	-0.46676
C	 0.0266573787	 0.0048509064	 0.0134771819	 0.337346
C	 0.5473392035	-0.9707957237	-1.0751042742	-0.237356
N	 0.1555273991	-1.9071439994	 0.076457336	-0.157454
C	 0.8387752611	-0.8767070711	 0.9956826892	-0.253308
C	-1.1092257944	-1.0171096399	 0.1984313215	 0.006366
C	-1.8880010809	-1.125780341	 1.4916378385	-0.060051
C	-2.9313811965	-2.1719206333	 1.6308402545	-0.24071
N	-1.6746213299	-2.2809695645	 2.387076408	-0.316885
H	 0.6890076959	 1.8102372289	-0.0839433045	 0.284651
H	-0.0530974729	-1.1087483059	-1.9777066602	 0.106342
H	 1.6186891663	-0.9849622537	-1.2909418929	 0.099733
H	 1.9282075183	-0.8806410192	 0.9020399487	 0.097121
H	 0.5242303498	-0.9331783782	 2.0375301684	 0.136325
H	-1.7585948019	-1.1415774289	-0.6745176934	 0.081703
H	-2.0299053835	-0.1854347595	 2.0203021875	 0.106386
H	-3.817156836	-1.984247435	 2.2313126452	 0.11651
H	-3.088047707	-2.8404289562	 0.7871230183	 0.113158
H	-1.0572742176	-2.9364300166	 1.9096669254	 0.246885
38.3232	143.2453	204.5679	239.301	278.1312	357.9079	415.0755	482.7306	567.9409	623.5699	654.9212	777.5901	812.4856	830.6529	853.105	901.5755	917.7044	961.8843	981.5829	983.9243	1016.0513	1065.4812	1075.6676	1102.5673	1108.8331	1142.7522	1153.148	1171.0577	1179.2012	1190.0094	1214.0198	1252.7705	1273.112	1297.0545	1313.0222	1357.1189	1381.0262	1432.5121	1507.0717	1511.1424	1551.6576	3047.9714	3056.2596	3066.5368	3101.9266	3126.7396	3127.8309	3150.0095	3188.1589	3478.9743	3805.9639
OC12CN(C1)C2C1CN1	O[C@@]12CN(C1)[C@H]2[C@H]1CN1	
InChI=1S/C6H10N2O/c9-6-2-8(3-6)5(6)4-1-7-4/h4-5,7,9H,1-3H2	InChI=1S/C6H10N2O/c9-6-2-8(3-6)5(6)4-1-7-4/h4-5,7,9H,1-3H2/t4-,5+/m1/s1
