16
gdb 44124	2.47445	1.64646	1.31734	3.525	74.14	-0.2371	0.0189	0.256	1000.1445	0.12494	-400.746595	-400.73889	-400.737946	-400.778878	30.013	
O	 0.0056066279	-0.0153350968	-0.0976035186	-0.362629
C	-0.0384463337	 1.1862547916	 0.0082758024	 0.399473
C	-1.2958323908	 2.0726191578	 0.0814154254	-0.359661
C	-0.7760293109	 3.4970272525	 0.0403012644	-0.075372
C	 0.7252284607	 3.4163743386	 0.0382049837	-0.020269
N	 1.0544166581	 2.0305613322	 0.0728824242	-0.299061
C	-0.001724454	 3.9581169778	-1.1997886738	-0.250851
C	-0.040073171	 3.2212122882	-2.42470168	 0.319393
C	-0.0758272989	 2.5883518462	-3.4473443903	-0.426656
H	-1.9521975533	 1.8143202828	-0.7537222689	 0.14873
H	-1.8380142133	 1.8639970585	 1.0084215598	 0.133615
H	-1.2842716278	 4.2651550766	 0.6092344856	 0.105541
H	 1.3519970234	 4.0873017226	 0.6144574592	 0.112302
H	 1.9596182954	 1.6787229946	-0.1984358225	 0.255561
H	 0.0497252392	 5.0382067507	-1.309032331	 0.117651
H	-0.1037350509	 2.0313928261	-4.3510441896	 0.202233
81.4515	131.9353	169.2759	322.2447	366.8748	461.4422	477.4727	552.1522	595.6409	601.2629	632.343	658.7985	664.4423	737.2106	762.3127	796.0361	851.2944	934.7937	952.2964	1003.3833	1022.7947	1055.6704	1086.1493	1126.8444	1187.614	1201.1453	1240.368	1283.3092	1349.3901	1372.8394	1380.9942	1427.7689	1457.4777	1841.3584	2235.185	3066.7917	3110.5776	3142.7379	3172.387	3191.3797	3503.1127	3633.8384
O=C1CC2C(N1)C2C#C	O=C1C[C@H]2[C@@H](N1)[C@H]2C#C	
InChI=1S/C7H7NO/c1-2-4-5-3-6(9)8-7(4)5/h1,4-5,7H,3H2,(H,8,9)	InChI=1S/C7H7NO/c1-2-4-5-3-6(9)8-7(4)5/h1,4-5,7H,3H2,(H,8,9)/t4-,5+,7-/m0/s1
