23
gdb 101023	2.13584	1.28626	0.92006	1.6809	81.47	-0.2597	0.0761	0.3358	1381.5044	0.203718	-425.413742	-425.403286	-425.402342	-425.44911	38.975	
C	-0.4434893186	 1.2036722444	-0.1180074036	-0.384068
C	-0.1207777889	-0.286875958	 0.0142909689	-0.191277
C	 0.8361542859	-0.5729583035	 1.1836649339	 0.054339
O	 0.3050448721	-0.0710814104	 2.4000679112	-0.43477
C	 1.1990664337	-2.0579003022	 1.3466169521	 0.386839
C	 1.6743297734	-2.8336975027	 0.1210516774	-0.28224
C	 0.5584066272	-3.5671985344	-0.636553958	-0.373686
C	 1.6042642583	-2.5084996799	 2.6869594483	-0.225111
O	 0.2741835431	-2.76327867	 2.2016098013	-0.293965
H	 0.4605712898	 1.7844397511	-0.334264801	 0.110503
H	-1.156194571	 1.3818576589	-0.9287089799	 0.10762
H	-0.8701513011	 1.5872435679	 0.8115371748	 0.133914
H	-1.0452498198	-0.8582131759	 0.170007165	 0.100658
H	 0.3227411549	-0.6521878437	-0.9187321808	 0.098571
H	 1.7708005179	-0.0198321584	 1.0132212294	 0.087483
H	-0.3272447367	-0.7411052135	 2.6974127344	 0.28809
H	 2.2005382768	-2.1423707114	-0.548375719	 0.104823
H	 2.4192476165	-3.5706864029	 0.4391390651	 0.102755
H	 0.9821832996	-4.1657938256	-1.4483273147	 0.111748
H	 0.0210902536	-4.2356122834	 0.0407891805	 0.136328
H	-0.1690382785	-2.8787675536	-1.073403803	 0.121999
H	 2.2317883123	-3.3932560518	 2.7808239636	 0.111918
H	 1.6636086796	-1.7925424708	 3.5019275342	 0.127526
66.851	93.3519	122.6747	172.0543	199.9656	218.2445	257.6437	290.0084	305.4392	370.1715	387.0075	457.5342	516.5497	544.9854	568.8205	727.0652	781.2444	792.0901	857.9676	880.9258	931.1386	961.2621	993.0844	1009.1553	1059.4868	1068.851	1089.6827	1119.2326	1132.9798	1142.913	1179.5075	1221.6406	1263.4477	1292.7743	1312.0118	1341.1675	1359.1634	1381.4516	1399.7974	1406.3547	1410.8005	1433.636	1479.6574	1488.1014	1495.8114	1497.062	1509.7863	1512.9772	1516.4781	3010.073	3024.8423	3035.0626	3036.3786	3050.3211	3067.1577	3070.9749	3095.3245	3100.5078	3118.7536	3129.4461	3131.1993	3193.7423	3737.9505
CCC(O)C1(CC)CO1	CC[C@@H](O)[C@@]1(CC)CO1	
InChI=1S/C7H14O2/c1-3-6(8)7(4-2)5-9-7/h6,8H,3-5H2,1-2H3	InChI=1S/C7H14O2/c1-3-6(8)7(4-2)5-9-7/h6,8H,3-5H2,1-2H3/t6-,7-/m1/s1
