16
gdb 60725	3.35395	1.11754	0.85845	4.295	70.09	-0.2589	-0.0608	0.1982	1279.8179	0.123911	-471.258163	-471.248854	-471.24791	-471.293011	33.182	
C	-0.2222429115	 1.5369966653	 0.1606750322	-0.325377
N	-0.0725602357	 0.0845958697	-0.0120946121	-0.167403
C	 0.1514445071	-0.6741051134	 1.149627514	 0.172827
O	 0.2187957534	-0.1931005431	 2.2526805235	-0.308072
C	-0.1707933547	-0.6102015683	-1.2103033837	 0.447813
O	-0.2250559845	-1.8279865705	-1.2493101236	-0.370119
C	-0.1777893853	 0.1508067719	-2.5371627948	 0.246998
N	-0.6519347163	-0.6502480439	-3.5391082465	-0.52304
N	 0.242743714	 1.3559759045	-2.6043503903	-0.519921
H	 0.6861205087	 2.0615779076	-0.1327817812	 0.158346
H	-1.0436080214	 1.905474073	-0.4499746567	 0.144901
H	-0.4251680111	 1.6975867424	 1.219047136	 0.157102
H	 0.2624033348	-1.7418829788	 0.9288582823	 0.141197
H	-0.6768267547	-1.637308178	-3.3262468254	 0.277205
H	-0.4624782324	-0.3873826812	-4.4922177904	 0.255005
H	 0.2324148696	 1.7020696427	-3.5660827232	 0.21254
45.4424	61.0777	166.4297	183.7976	231.0185	306.0738	338.649	361.606	390.8759	417.6215	470.5611	515.0594	553.5615	607.6979	668.3924	804.6937	819.7285	879.8938	960.1251	1054.8115	1094.213	1122.8735	1147.6509	1155.5465	1276.3212	1327.2989	1420.6454	1431.1097	1465.3662	1484.8674	1504.7232	1601.8384	1720.5048	1748.1947	1814.0236	3083.6203	3086.6726	3167.5725	3180.2699	3447.7365	3571.4602	3701.0936
CN(C=O)C(=O)C(N)=N	CN(C=O)C(=O)C(=N)N	
InChI=1S/C4H7N3O2/c1-7(2-8)4(9)3(5)6/h2H,1H3,(H3,5,6)	InChI=1S/C4H7N3O2/c1-7(2-8)4(9)3(5)6/h2H,1H3,(H3,5,6)
