21
gdb 86033	2.87279	1.07362	0.94117	1.0887	84.26	-0.2509	0.0409	0.2918	1346.7264	0.179822	-387.053633	-387.043777	-387.042833	-387.088362	37.647	
C	 0.65859599	 1.46074823	 0.2891462216	-0.398741
C	 0.0044944484	 0.1078366358	 0.0292007957	 0.046282
C	 0.7329855957	-0.8115983542	-0.9987179838	-0.293007
C	 1.1315789567	-1.7834515639	 0.1394397712	 0.43255
O	 0.7141568787	-3.1008922524	-0.1439878089	-0.481689
C	 2.6368414023	-1.7648043827	 0.4850338505	-0.405729
C	 2.9296988757	-2.6117771847	 1.6358443317	 0.266758
C	 3.1017913835	-3.3414122643	 2.5770502614	-0.430668
C	 0.2293387332	-0.9771776353	 1.1270182258	-0.298308
H	 1.7220728419	 1.3569767881	 0.5350964486	 0.11164
H	 0.587082443	 2.1099208409	-0.5907119102	 0.114673
H	 0.1773590705	 1.9772319237	 1.127026338	 0.115443
H	-1.0510605405	 0.2620294108	-0.2103688503	 0.073662
H	 0.0605803737	-1.3013561154	-1.7054744895	 0.112568
H	 1.5596718321	-0.3574784226	-1.5541046494	 0.091621
H	 0.9864805835	-3.6565066374	 0.5980227384	 0.278648
H	 3.195293792	-2.1204595773	-0.3898450128	 0.135844
H	 2.965641705	-0.7377824917	 0.6808825078	 0.130053
H	 3.2872534739	-3.9696466937	 3.4130047885	 0.199756
H	 0.7047688031	-0.6395756849	 2.0527387142	 0.096307
H	-0.6745063124	-1.5368305089	 1.3763099014	 0.102336
53.0469	82.2371	130.5453	230.6513	247.5461	305.5649	330.1677	331.7498	368.783	400.6124	411.5839	451.9015	515.7095	624.8825	652.8163	690.8215	783.7413	824.0828	831.5918	901.1547	903.5565	921.7641	936.3871	973.3663	1040.2104	1050.9331	1064.3648	1131.195	1144.4322	1205.609	1224.3292	1244.2832	1269.0008	1279.4798	1300.5071	1309.4313	1367.5837	1395.2348	1412.4994	1456.8203	1464.8494	1482.8111	1495.1162	1497.5478	2228.5536	3021.3017	3028.1151	3050.7846	3053.4682	3058.2941	3069.0507	3088.5586	3091.8885	3117.188	3120.6951	3504.4429	3760.0676
CC1CC(O)(CC#C)C1	C[C@H]1C[C@@](O)(CC#C)C1	
InChI=1S/C8H12O/c1-3-4-8(9)5-7(2)6-8/h1,7,9H,4-6H2,2H3	InChI=1S/C8H12O/c1-3-4-8(9)5-7(2)6-8/h1,7,9H,4-6H2,2H3/t7-,8-
