22
gdb 86444	1.80488	1.5977	0.89498	3.9353	83.57	-0.2331	0.0345	0.2676	1349.5065	0.195451	-404.415617	-404.406348	-404.405403	-404.449504	35.568	
C	-0.0266279973	 1.5712310053	 0.0255394446	-0.405813
C	 0.015463247	 0.0413516401	-0.0130147447	 0.003007
C	 0.7237045741	-0.4897971325	-1.264309644	-0.182462
C	 0.6445215597	-2.0155807011	-1.3438180871	 0.048995
C	 1.5107018411	-2.5877077157	-2.4671779251	-0.402395
N	 1.04410713	-2.6021673119	-0.0656427227	-0.310049
C	 0.9747240846	-2.0374574583	 1.1803493501	 0.375185
O	 1.1685325763	-2.6925551365	 2.1883576552	-0.377812
C	 0.7077580626	-0.5369199615	 1.2284795113	-0.297927
H	 0.9862753594	 1.9910626903	 0.0197537566	 0.115224
H	-0.5613460997	 1.976051416	-0.8401536676	 0.112167
H	-0.529249697	 1.9306380815	 0.9294265059	 0.117622
H	-1.0203038437	-0.328604294	-0.0320911572	 0.077925
H	 0.2784194452	-0.0679280811	-2.1721020958	 0.097566
H	 1.7777800575	-0.1792496482	-1.2476781792	 0.097898
H	-0.40451519	-2.2850796534	-1.5525806028	 0.080941
H	 2.5633840086	-2.3305782039	-2.3127986334	 0.126565
H	 1.4294250962	-3.6793026829	-2.5120352276	 0.115551
H	 1.1920393447	-2.1907844165	-3.4358800629	 0.120801
H	 1.1923672696	-3.6020775279	-0.039864652	 0.238166
H	 1.683862324	-0.0500547056	 1.3643350892	 0.123351
H	 0.1402781569	-0.3439418421	 2.1427427091	 0.125495
96.9774	101.5033	153.4212	234.5651	251.9234	259.3659	303.6693	410.1592	417.9643	441.3721	466.6612	514.5478	542.7661	630.0053	666.2842	834.4737	861.5376	884.9828	893.6564	954.3894	975.3483	1000.7753	1026.6719	1058.5469	1112.7103	1131.6838	1168.5035	1183.5689	1214.7165	1280.7262	1296.7113	1308.1339	1341.1878	1369.0604	1374.9808	1393.2209	1398.5433	1411.9162	1414.0639	1456.5737	1472.0836	1486.939	1497.1971	1498.6554	1499.5639	1500.5722	1786.1293	2951.2789	2993.8649	3015.8266	3022.5147	3027.8474	3033.2599	3071.2576	3091.8406	3098.735	3100.9136	3101.3106	3115.4542	3589.9743
CC1CC(C)NC(=O)C1	C[C@H]1C[C@@H](C)NC(=O)C1	
InChI=1S/C7H13NO/c1-5-3-6(2)8-7(9)4-5/h5-6H,3-4H2,1-2H3,(H,8,9)	InChI=1S/C7H13NO/c1-5-3-6(2)8-7(9)4-5/h5-6H,3-4H2,1-2H3,(H,8,9)/t5-,6+/m0/s1
