23
gdb 40956	3.14658	1.29315	1.15276	1.1665	85.06	-0.2369	0.0812	0.3181	1193.8983	0.208282	-388.300175	-388.292042	-388.291098	-388.332502	33.217	
C	 0.153665797	 1.3883659671	-0.5522329583	-0.219198
C	 1.4328231879	 1.6028614442	 0.3011312507	-0.280234
C	 1.3185883531	 0.1440225963	 0.7995582563	 0.443071
C	-0.1636603083	 0.1255805791	 0.2934945732	-0.274235
C	 2.2428987501	-0.8387441246	 0.0723964307	-0.238964
C	 2.0572311308	-2.2707138909	 0.59437504	-0.213183
C	 2.1890339927	-2.2887354362	 2.1229259744	-0.193102
C	 1.2592393696	-1.2384557116	 2.7320689736	-0.079166
O	 1.5044304262	 0.0560884432	 2.2028211262	-0.300394
H	-0.5883448811	 2.189003425	-0.5441840013	 0.099834
H	 0.3826600901	 1.1443245119	-1.5928427564	 0.102151
H	 2.3562651358	 1.8811593468	-0.2137947392	 0.091839
H	 1.2637084838	 2.291597609	 1.1323147985	 0.109609
H	-0.8470957134	 0.3482715849	 1.1172340324	 0.105468
H	-0.5182759269	-0.7635217961	-0.2343233926	 0.091061
H	 2.0658661137	-0.7904915984	-1.0081679367	 0.091234
H	 3.2785380799	-0.5173676979	 0.2439813664	 0.096987
H	 1.0625852983	-2.6413266577	 0.3116653712	 0.096648
H	 2.7844864792	-2.9451573035	 0.1300143853	 0.093549
H	 1.9497590332	-3.2776067442	 2.5307925996	 0.09049
H	 3.2223292769	-2.0567775921	 2.4098082355	 0.101186
H	 0.2082529548	-1.5261528579	 2.5580018885	 0.084097
H	 1.4041797764	-1.1534435966	 3.8131752323	 0.101252
127.122	132.1563	196.1079	283.59	304.4734	363.0111	411.3631	460.3226	469.7003	550.5709	640.9709	705.0736	793.154	830.8357	838.2085	857.9786	881.059	912.3638	928.246	937.2353	976.1566	986.0881	1007.0475	1043.6594	1060.8364	1103.7059	1129.61	1168.067	1191.5402	1206.4432	1214.0985	1232.086	1249.6746	1270.3678	1279.8658	1283.1953	1308.0671	1316.8716	1368.3932	1371.4132	1379.2333	1412.6304	1466.2459	1472.7679	1480.3314	1483.4548	1491.3689	1503.149	1506.9623	2961.6085	3017.3606	3020.4035	3026.4994	3055.0402	3058.8123	3064.4462	3067.1655	3068.005	3074.9108	3080.7753	3102.6672	3113.972	3126.7775
C1CC2(C1)CCCCO2	C1CC2(C1)CCCCO2	
InChI=1S/C8H14O/c1-2-7-9-8(4-1)5-3-6-8/h1-7H2	InChI=1S/C8H14O/c1-2-7-9-8(4-1)5-3-6-8/h1-7H2
