15
gdb 13827	4.55143	1.57337	1.19521	2.9018	63.7	-0.2578	-0.0603	0.1975	976.8798	0.118507	-399.832273	-399.824396	-399.823452	-399.865597	26.907	
C	 0.0015633335	 1.4486331342	-0.0739615086	-0.474094
C	 0.0464694592	-0.0521293419	-0.2377604634	 0.320196
O	 1.0633190547	-0.6857242539	-0.3846012015	-0.278563
C	-1.2898293856	-0.7540462273	-0.2087853172	 0.318441
N	-2.4059122593	-0.1599449835	-0.0581855341	-0.300045
C	-3.4365602597	-1.2092118259	-0.0915893241	-0.1918
C	-2.6434692551	-2.5281787267	-0.2901509425	-0.111984
O	-1.263540185	-2.0970635233	-0.354891004	-0.238342
H	 1.017251541	 1.843261	-0.1094088056	 0.139279
H	-0.6106597459	 1.8964069214	-0.8624698122	 0.154679
H	-0.4784723994	 1.7112211494	 0.8734495668	 0.154705
H	-4.0095184781	-1.1934203554	 0.8412391011	 0.126959
H	-4.1398479262	-1.0086972531	-0.9064914317	 0.126957
H	-2.7422207089	-3.2290618354	 0.5429229306	 0.126745
H	-2.8816381053	-3.0481465586	-1.2216515335	 0.126866
49.1512	93.4882	120.8338	176.136	196.2453	366.0707	491.6673	494.5464	624.3867	698.8548	755.6251	825.0242	913.6835	951.1159	977.0966	997.0309	1024.9923	1043.7599	1116.2277	1141.9024	1213.0059	1246.1747	1281.7508	1350.6933	1383.3894	1406.1923	1456.2221	1464.3467	1495.9148	1526.2138	1700.7476	1811.5626	3045.7417	3053.1697	3061.7405	3074.8204	3110.4453	3117.3465	3161.3781
CC(=O)C1=NCCO1	CC(=O)C1=NCCO1	
InChI=1S/C5H7NO2/c1-4(7)5-6-2-3-8-5/h2-3H2,1H3	InChI=1S/C5H7NO2/c1-4(7)5-6-2-3-8-5/h2-3H2,1H3
