18
gdb 41554	3.30448	1.8556	1.68985	1.1632	72.54	-0.2388	0.0654	0.3042	866.6524	0.151586	-401.886645	-401.880561	-401.879617	-401.916841	25.796	
C	-0.008854847	 1.5729973662	-0.0300019703	-0.103831
O	 1.4187794542	 1.5907438391	-0.2540776079	-0.300081
C	 1.4262640537	 0.1560400753	-0.4955538773	 0.12134
C	 2.2629295005	-0.7332423543	 0.3979094	-0.059926
C	 2.2505300004	-0.5990124298	 1.8770204777	-0.023835
C	 1.0677832981	 0.1933030062	 2.401431679	-0.257412
C	 0.2076639993	-0.6314956721	 1.4017443408	-0.022856
C	-0.0164608286	 0.0334401582	 0.0405539878	-0.06065
N	 1.3712460873	-1.6248990525	 1.201180048	-0.160398
H	-0.3013039832	 2.1308867696	 0.8659832879	 0.10522
H	-0.5533051585	 1.9726382906	-0.895008384	 0.102904
H	 1.5985852453	-0.0555049619	-1.5568027836	 0.079646
H	 3.1155131732	-1.2493466507	-0.0314863267	 0.091514
H	 3.1165024228	-0.8970472556	 2.461317113	 0.092181
H	 0.8375053267	-0.0877788386	 3.4315288671	 0.109914
H	 1.0976535455	 1.2808536129	 2.3219690173	 0.119677
H	-0.6748867487	-1.1164905634	 1.8170935259	 0.082233
H	-0.7524525509	-0.4952925093	-0.5668265047	 0.08436
175.2102	259.018	323.8965	441.0929	520.1598	605.2194	706.2332	730.0749	769.6211	782.8835	819.9725	853.9	882.0115	904.1952	936.1746	949.7782	983.967	1002.5672	1013.7753	1048.7233	1060.7545	1067.0926	1095.6939	1116.0543	1149.7418	1171.0419	1183.0384	1207.1051	1241.7238	1252.4223	1279.3059	1309.0803	1333.9215	1345.491	1352.1336	1377.6887	1409.8264	1490.4127	1525.2783	3017.3935	3042.3819	3067.0368	3073.6215	3098.7769	3118.5837	3127.2729	3147.8262	3169.4312
C1OC2C3C4CC(C12)N34	C1O[C@H]2[C@H]3[C@H]4C[C@@H]([C@@H]12)N34	
InChI=1S/C7H9NO/c1-4-3-2-9-7(3)6-5(1)8(4)6/h3-7H,1-2H2	InChI=1S/C7H9NO/c1-4-3-2-9-7(3)6-5(1)8(4)6/h3-7H,1-2H2/t3-,4+,5-,6-,7-,8?/m1/s1
