16
gdb 31859	5.09914	1.06665	0.88787	3.2509	77.25	-0.2083	-0.0333	0.175	1267.8434	0.126043	-434.118197	-434.110037	-434.109093	-434.150929	30.183	
C	 0.0016341077	 1.3896143352	-0.0057848485	-0.223484
O	-0.0273224905	-0.0337170626	-0.0095382994	-0.245556
C	-1.2357402959	-0.6207901211	 0.0139594276	 0.457034
N	-2.329040122	 0.1357789896	 0.0339130253	-0.338375
C	-3.4970079626	-0.5084175343	 0.0591655062	-0.047534
C	-3.5967291676	-1.8988268222	 0.0657145601	 0.235366
N	-4.8181640475	-2.5733836292	 0.1622690981	-0.597423
C	-2.3673910376	-2.5732689338	 0.0373713024	-0.036639
N	-1.1953329042	-1.9553175521	 0.0104625385	-0.299379
H	 1.0587342665	 1.6591022314	-0.0238791065	 0.127599
H	-0.5079149422	 1.8002299202	-0.882875779	 0.129541
H	-0.4762306513	 1.7947824224	 0.8913947673	 0.130518
H	-4.3933632528	 0.1106548351	 0.0750901721	 0.10296
H	-5.6069410131	-2.0527195873	-0.1961477308	 0.2495
H	-4.8057220539	-3.5059510408	-0.2275922928	 0.250197
H	-2.3425493532	-3.6630129306	 0.0356861492	 0.105674
90.6658	147.7164	196.603	222.6787	229.4461	357.0972	388.8909	433.6932	474.8975	537.7492	576.9727	655.6508	666.9396	785.124	819.5516	876.4635	942.8017	970.3759	1042.5384	1089.2042	1107.907	1180.3857	1203.283	1271.8547	1310.6052	1322.9478	1373.2104	1455.1559	1456.4006	1480.4412	1497.6987	1520.848	1594.0168	1647.1539	1662.3633	3036.8167	3104.7193	3127.0323	3132.5953	3143.0193	3549.9235	3643.1653
COC1=NC=C(N)C=N1	COc1ncc(N)cn1	
InChI=1S/C5H7N3O/c1-9-5-7-2-4(6)3-8-5/h2-3H,6H2,1H3	InChI=1S/C5H7N3O/c1-9-5-7-2-4(6)3-8-5/h2-3H,6H2,1H3
