14
gdb 129456	4.64942	1.04942	0.85679	2.9031	66.56	-0.2263	-0.0286	0.1977	1251.5386	0.101591	-470.038013	-470.029664	-470.02872	-470.07124	30.57	
N	-0.1063021743	 1.3219414313	 0.0215292285	-0.537533
C	 0.050810797	-0.0258223784	 0.0102423061	 0.341666
O	 1.1263804165	-0.5953136857	 0.0140850111	-0.360451
C	-1.2330849524	-0.796312252	-0.0072358863	 0.325548
N	-2.3946601982	-0.1821081725	 0.0036117763	-0.234056
O	-3.3464403154	-1.2116602136	-0.017122586	-0.216597
C	-2.7078079451	-2.3952505792	-0.0392122387	 0.499097
N	-3.5093333786	-3.5035178659	-0.1227860445	-0.59522
C	-1.3534309804	-2.2057708003	-0.0325787356	-0.441684
H	 0.7129046638	 1.9051257693	 0.0321085528	 0.26362
H	-1.0254682227	 1.7321281842	 0.0150346461	 0.279649
H	-4.4518998801	-3.3688213205	 0.2138702319	 0.27034
H	-3.088702468	-4.3598761974	 0.2035832641	 0.271089
H	-0.5596688922	-2.9307638893	-0.0474438158	 0.134533
60.9818	144.1594	169.143	228.9449	274.1704	335.2071	360.0118	397.1529	524.2871	558.8761	559.9211	639.4792	659.9214	713.9731	748.9353	774.4774	824.8903	941.3786	1011.1573	1018.584	1073.7571	1097.6774	1148.175	1316.4743	1385.4794	1496.87	1530.7648	1611.3609	1619.1735	1672.2898	1795.0722	3300.3002	3577.1049	3598.9081	3683.6338	3740.6877
NC(=O)C1=NOC(N)=C1	NC(=O)c1noc(N)c1	
InChI=1S/C4H5N3O2/c5-3-1-2(4(6)8)7-9-3/h1H,5H2,(H2,6,8)	InChI=1S/C4H5N3O2/c5-3-1-2(4(6)8)7-9-3/h1H,5H2,(H2,6,8)
