23
gdb 93852	1.73913	1.70104	1.43881	1.6006	80.64	-0.2425	0.0701	0.3127	1136.1407	0.204202	-425.440516	-425.430559	-425.429615	-425.474558	38.636	
C	 0.5553790106	 1.6129893926	-0.1574723936	-0.420629
C	 0.0870916762	 0.1732407459	 0.0760419457	-0.002361
C	 0.575571739	-0.7724442434	-1.028847517	-0.088536
O	 1.9157172397	-1.088373119	-0.6682471374	-0.277694
C	 1.9997328372	-1.1819402446	 0.7538840221	 0.122167
C	 3.3366077344	-0.5923829806	 1.1874797391	-0.411535
C	 0.6872775899	-0.5323855237	 1.3191459142	 0.341169
C	 0.867399306	 0.3379614442	 2.5604201412	-0.464655
O	-0.2618385831	-1.5709803509	 1.610908898	-0.478303
H	 1.6377007337	 1.6642040366	-0.3104837174	 0.129089
H	 0.0785818278	 2.0178471304	-1.0561452032	 0.115404
H	 0.2944074146	 2.2708442129	 0.6761503667	 0.115015
H	-1.0022550389	 0.1480593457	 0.1695052484	 0.084063
H	-0.0457255638	-1.6780726682	-1.0664314683	 0.098825
H	 0.599132451	-0.3155197541	-2.0226002994	 0.097695
H	 1.974441314	-2.2456813328	 1.0445545047	 0.056554
H	 3.3993195009	 0.4754234867	 0.9611048356	 0.122098
H	 3.5043792113	-0.7331898776	 2.2596538713	 0.109326
H	 4.1428268539	-1.0974760306	 0.6482020737	 0.127656
H	 1.5587497886	 1.1675351433	 2.3973991537	 0.123105
H	-0.1000814867	 0.7439535867	 2.8692546475	 0.124683
H	 1.2587895973	-0.2588752257	 3.3929638782	 0.104387
H	 0.1171986764	-2.1352254539	 2.2933908961	 0.272477
60.7063	167.146	220.724	238.4582	251.0256	258.725	282.5556	293.152	331.9083	344.6166	389.3557	423.8602	464.5547	522.4438	609.993	693.9145	722.9651	835.9035	876.6183	894.8498	934.4368	967.5781	1016.8609	1025.6171	1035.9514	1079.4456	1111.6055	1118.1535	1126.6247	1169.6457	1187.8346	1208.6123	1255.9399	1290.8188	1322.9594	1350.5971	1353.7372	1375.5323	1392.89	1404.2016	1408.633	1417.3686	1476.6352	1487.8166	1495.5048	1497.4582	1505.9731	1506.9779	1515.1917	2950.0424	3006.4928	3031.3074	3039.0442	3043.9144	3071.7258	3083.7537	3096.9082	3103.0703	3114.7903	3115.7492	3121.5819	3129.2455	3802.7873
CC1COC(C)C1(C)O	C[C@H]1CO[C@@H](C)[C@]1(C)O	
InChI=1S/C7H14O2/c1-5-4-9-6(2)7(5,3)8/h5-6,8H,4H2,1-3H3	InChI=1S/C7H14O2/c1-5-4-9-6(2)7(5,3)8/h5-6,8H,4H2,1-3H3/t5-,6-,7+/m0/s1
