18
gdb 57130	2.74782	0.90682	0.74042	1.4554	93.36	-0.2453	-0.0202	0.2252	1542.0011	0.145935	-364.732489	-364.722883	-364.721938	-364.767405	35.096	
C	-0.128120617	 1.5433628635	 0.1270712567	-0.382867
C	 0.0265948376	 0.0078545482	 0.0289306656	-0.2167
C	 0.7559746045	-0.5133898677	 1.1798934287	 0.415195
C	 1.3549564345	-0.9289632417	 2.1474511235	-0.289296
C	 2.033255444	-1.3896743433	 3.2340030466	 0.293806
C	 2.6343426185	-1.7990567847	 4.1978575788	-0.554993
C	-1.3399299877	-0.6608735985	-0.1506996431	 0.034523
C	-1.5914075381	-2.073166548	 0.2135267131	-0.25525
N	-2.2009301761	-0.9771961054	 0.9944039927	-0.318253
H	 0.846852551	 2.0295972821	 0.209048917	 0.129068
H	-0.6330139935	 1.9233498543	-0.7660682264	 0.122108
H	-0.7251260274	 1.8150686295	 1.0017041226	 0.136693
H	 0.6164923285	-0.2142210382	-0.8727830555	 0.119622
H	 3.162577585	-2.1569800204	 5.0464526501	 0.194195
H	-1.8849304269	-0.2450968818	-0.9967944017	 0.094745
H	-2.2905338115	-2.6669438288	-0.3681922189	 0.117622
H	-0.7769545914	-2.6324026536	 0.6651685527	 0.124652
H	-1.6714930042	-0.8574159055	 1.8569697475	 0.235129
68.2624	78.5254	110.8709	200.5959	219.7547	239.2721	253.7446	359.8729	408.2239	501.2898	525.5157	537.2968	568.3946	596.1309	608.8353	694.7196	780.7177	855.657	907.8874	955.1435	988.8719	1000.9498	1076.6983	1096.3837	1115.6633	1155.1163	1182.8502	1199.0546	1265.3232	1296.0139	1316.6374	1338.4889	1399.3126	1415.3736	1492.236	1498.2969	1507.458	2179.9355	2356.9675	2996.9937	3045.191	3112.8248	3117.4004	3121.8816	3129.9008	3200.8932	3475.9991	3504.8472
CC(C#CC#C)C1CN1	C[C@@H](C#CC#C)[C@H]1CN1	
InChI=1S/C8H9N/c1-3-4-5-7(2)8-6-9-8/h1,7-9H,6H2,2H3	InChI=1S/C8H9N/c1-3-4-5-7(2)8-6-9-8/h1,7-9H,6H2,2H3/t7-,8+/m0/s1
