20
gdb 68160	3.46755	1.41369	1.20691	3.5312	80.62	-0.2508	0.0361	0.287	1089.085	0.172951	-403.164107	-403.156205	-403.155261	-403.196168	31.566	
C	-0.0483150539	 1.5548975099	-0.0288599961	-0.482441
C	 0.0403892339	 0.0396403081	-0.0001118055	 0.28642
C	 1.0895707973	-0.6966239736	-0.8824669892	-0.265492
C	 1.081158776	-1.7985004612	 0.2170886942	-0.089212
C	 0.6783091747	-0.6807176125	 1.2228179789	-0.265492
C	-0.1024439756	-2.6931911062	-0.0073561584	 0.419386
N	-0.0231829658	-3.9560563175	 0.0175618434	-0.53922
O	-1.285290736	-2.0471024567	-0.2431774597	-0.270678
C	-1.3192838366	-0.6084711721	-0.2608379617	-0.100709
H	 0.9332217065	 2.0011292749	 0.1592694955	 0.119728
H	-0.3993520043	 1.9171885238	-1.0021022591	 0.120401
H	-0.7383893448	 1.9302826694	 0.7357084597	 0.120406
H	 0.8065427276	-0.9798306776	-1.9001951345	 0.106261
H	 2.0433527961	-0.1629215349	-0.9011102161	 0.102162
H	 1.9711488455	-2.3976189027	 0.3954642942	 0.094251
H	 1.5564808243	-0.144091572	 1.5912376211	 0.102163
H	 0.0322959017	-0.9498802794	 2.0632337913	 0.106264
H	-0.9423375712	-4.3680112638	-0.1588755801	 0.215217
H	-2.0459135983	-0.2956567793	 0.4996978053	 0.110293
H	-1.7052808773	-0.3089714066	-1.2434723334	 0.110292
105.8602	177.3454	215.5168	268.4952	316.0038	382.2075	409.0929	434.1276	452.5758	618.6026	669.2118	698.3523	768.3153	858.2519	863.4832	897.8779	904.4128	923.6989	950.2786	952.4396	1009.6439	1027.6234	1028.0519	1085.3569	1088.215	1153.023	1155.6246	1204.3626	1215.4127	1249.4063	1274.6336	1287.0763	1299.2961	1307.2395	1355.8114	1414.8796	1430.6961	1477.5509	1492.7321	1495.628	1507.3162	1516.9218	1757.3143	3014.6721	3025.5018	3050.7729	3054.4481	3056.2568	3088.5832	3101.223	3110.1937	3111.9115	3144.8586	3458.3205
CC12CC(C1)C(=N)OC2	C[C@@]12C[C@@H](C1)[C]([NH])OC2	
InChI=1S/C7H11NO/c1-7-2-5(3-7)6(8)9-4-7/h5,8H,2-4H2,1H3	InChI=1S/C7H11NO/c1-7-2-5(3-7)6(8)9-4-7/h5,8H,2-4H2,1H3/t5-,7+
