18
gdb 54157	2.15089	1.44947	1.11591	2.4509	79.57	-0.2386	-0.0194	0.2191	1169.8793	0.144003	-401.911536	-401.901706	-401.900762	-401.94623	35.992	
C	 0.4298881584	 0.8615029592	-0.8259705418	-0.487154
C	-0.1025797726	 0.1443006731	 0.392554149	 0.351172
O	 0.3878386441	 0.276614673	 1.4923779161	-0.30483
C	-1.3235155003	-0.7482775573	 0.2341662367	 0.186541
C	-2.1533377097	-0.8884220883	 1.4936162071	-0.464949
N	-1.9783274695	-0.7161850501	-1.0800598869	-0.352914
C	-1.2664652059	-1.9471475633	-0.6925463926	-0.284109
C	-0.1178705481	-2.357078561	-1.4524121087	 0.377658
C	 0.8315682146	-2.7584734857	-2.0714860663	-0.422123
H	 1.2932707034	 1.4602874427	-0.534097085	 0.132082
H	 0.7083553842	 0.1481048625	-1.6062326192	 0.159102
H	-0.3516609931	 1.4967202034	-1.2541391149	 0.148193
H	-2.6030525752	 0.0724052343	 1.7653259606	 0.131423
H	-2.9566192179	-1.6186185214	 1.354557433	 0.10945
H	-1.5238632606	-1.2031405949	 2.3279108838	 0.157169
H	-2.981836032	-0.8510117125	-0.9779798202	 0.239989
H	-1.8741178448	-2.7819320643	-0.346485322	 0.118922
H	 1.6739967751	-3.1022174795	-2.6194672187	 0.204379
53.985	130.7579	138.9518	145.8847	191.7675	252.9418	273.3999	318.6515	356.788	455.3564	483.561	519.2238	563.5529	620.171	641.6975	659.8672	665.9453	797.3792	853.9966	926.0356	960.3446	985.1804	1031.2654	1055.9659	1079.8168	1121.3736	1177.5566	1203.4996	1287.8004	1363.4878	1390.5995	1409.6746	1427.1386	1455.6792	1471.5375	1477.7205	1499.8015	1795.3133	2238.3291	3039.8438	3053.1204	3103.7392	3117.3707	3120.7359	3138.7435	3158.8184	3494.5223	3501.0036
CC(=O)C1(C)NC1C#C	CC(=O)[C@@]1(C)N[C@H]1C#C	
InChI=1S/C7H9NO/c1-4-6-7(3,8-6)5(2)9/h1,6,8H,2-3H3	InChI=1S/C7H9NO/c1-4-6-7(3,8-6)5(2)9/h1,6,8H,2-3H3/t6-,7+/m0/s1
