18
gdb 70681	2.58731	1.69142	1.26567	1.7989	71.52	-0.2425	0.0129	0.2554	1017.6177	0.149226	-439.06859	-439.060839	-439.059895	-439.100537	30.664	
O	-0.0315106131	 1.397756874	-0.0468206088	-0.467606
C	-0.0114426618	-0.00122206	-0.0216020311	 0.42652
C	-0.4106706702	-0.6614396891	-1.3013715951	-0.350695
C	-1.3374564894	-0.7226406029	-0.0932326961	-0.098098
C	-1.4821302438	-1.9840590964	 0.7109921868	-0.105246
O	-1.4813617909	-1.7288290091	 2.1339440777	-0.229117
C	-0.427363091	-1.1077456269	 2.7222601536	 0.139207
N	 0.6588619995	-0.6193014515	 2.2971103541	-0.277359
C	 1.0457524302	-0.6115558664	 0.8839434339	-0.255926
H	-0.1587584455	 1.6989877106	 0.8608606475	 0.288037
H	-0.7130511913	-0.0079953126	-2.1111763501	 0.130118
H	 0.1047383503	-1.564959589	-1.6099639426	 0.115822
H	-2.2141080675	-0.0839725281	-0.1350773471	 0.100927
H	-2.4420582914	-2.4745567235	 0.5309735759	 0.122385
H	-0.6944421518	-2.7070889152	 0.4765911412	 0.11361
H	-0.637103811	-1.0585981692	 3.7917527889	 0.121915
H	 1.3098530097	-1.6222054093	 0.5521277732	 0.108188
H	 1.9575172588	-0.0126270055	 0.792971728	 0.117317
122.984	152.3202	240.0153	341.5432	345.8965	363.1802	409.7699	426.9568	459.7649	534.7681	580.9273	733.895	807.4165	832.0838	906.8421	909.2996	928.8329	952.7571	968.2605	988.3306	999.9448	1030.2831	1065.0521	1097.1325	1151.782	1173.2038	1217.4465	1268.3202	1278.6488	1294.8631	1336.3137	1374.6645	1394.9056	1434.3844	1439.2195	1486.8672	1496.9204	1518.0699	1733.821	3030.3462	3054.0047	3074.2308	3100.805	3131.1825	3136.104	3163.819	3229.218	3785.3708
OC12CC1COC=NC2	O[C@]12C[C@H]1COC=NC2	
InChI=1S/C6H9NO2/c8-6-1-5(6)2-9-4-7-3-6/h4-5,8H,1-3H2	InChI=1S/C6H9NO2/c8-6-1-5(6)2-9-4-7-3-6/h4-5,8H,1-3H2/t5-,6-/m0/s1
