21
gdb 81407	3.76744	1.04625	0.99296	3.1772	83.35	-0.2424	-0.0183	0.2241	1284.1281	0.183663	-387.092678	-387.084374	-387.08343	-387.125728	32.313	
C	-0.1796845471	 1.528043321	 0.0149824819	-0.439853
C	 0.0218114754	 0.0176688778	 0.0299373943	 0.05671
C	 1.1200718595	-0.5861493044	-0.904529569	-0.015152
C	 2.1475146497	-0.2365410396	 0.2072902012	-0.244219
C	 0.9490514715	-0.5824098909	 1.1403683199	-0.04477
C	 0.7382841556	-2.1021022103	 0.8904878612	-0.059494
C	 0.9277265498	-2.0979389131	-0.6756695765	-0.257045
C	 1.7072112823	-2.9962154411	 1.6181404333	 0.139847
O	 1.3890312168	-3.880293833	 2.3736482748	-0.256
H	 0.7545889862	 2.0901805301	 0.092979733	 0.11954
H	-0.6730172019	 1.8375441794	-0.9129099883	 0.118981
H	-0.8217149119	 1.8381980999	 0.8465876602	 0.119396
H	-0.9574192472	-0.4703480345	-0.0495428194	 0.063558
H	 1.2467250692	-0.2524804159	-1.9354103857	 0.061073
H	 3.056758184	-0.8397169861	 0.2702641819	 0.094296
H	 2.4171897328	 0.8185299662	 0.2379991995	 0.105509
H	 0.8997071271	-0.2425960938	 2.1758706296	 0.069172
H	-0.267571299	-2.4155227284	 1.1813524995	 0.08859
H	 0.0510448738	-2.5061601217	-1.1847254861	 0.108837
H	 1.8006571803	-2.6785757847	-0.9924343097	 0.10329
H	 2.7836283533	-2.7903327669	 1.4118462944	 0.067732
64.776	144.4508	193.0089	216.8842	285.3228	320.2413	399.8147	409.5402	468.7258	536.6816	684.2907	780.8758	824.109	834.2229	861.8642	880.9426	911.0475	948.352	963.5611	1002.1588	1018.2108	1034.7516	1057.3837	1082.6722	1084.3031	1097.7755	1131.9258	1147.364	1193.1209	1220.0596	1238.6689	1249.5465	1266.3619	1273.2484	1298.6322	1308.4089	1329.3757	1395.8585	1415.8349	1440.8318	1491.5581	1496.7327	1500.7077	1523.6068	1824.5521	2856.3832	3022.7558	3034.8729	3047.7102	3071.7216	3076.3606	3092.255	3100.4479	3104.4516	3108.2962	3112.1701	3139.0167
CC1C2CC1C(C2)C=O	C[C@H]1[C@H]2C[C@@H]1[C@@H](C2)C=O	
InChI=1S/C8H12O/c1-5-6-2-7(4-9)8(5)3-6/h4-8H,2-3H2,1H3	InChI=1S/C8H12O/c1-5-6-2-7(4-9)8(5)3-6/h4-8H,2-3H2,1H3/t5-,6+,7-,8-/m0/s1
