17
gdb 51400	4.2934	0.89059	0.86156	2.107	73.78	-0.2481	-0.0331	0.215	1342.5318	0.134905	-421.793402	-421.78525	-421.784306	-421.827484	29.798	
O	-0.4863361785	 0.7428691994	 0.7544919591	-0.232971
C	 0.1011438942	 1.0211027101	-0.2575869473	 0.167258
C	 1.4453371867	 1.721034174	-0.309593243	-0.335975
C	 1.4038126916	 2.9238520836	-1.2545598296	 0.016767
C	 0.7216460431	 4.2739574803	-0.8023130168	-0.18352
C	 2.0019638747	 4.5474477992	 0.0613954246	-0.243381
C	 2.5880580614	 3.9621759704	-1.2705301694	-0.196082
C	 1.5554000571	 4.8872668861	-1.9397784149	 0.454703
O	 1.460190734	 5.6622119871	-2.8383240774	-0.319638
H	-0.326411014	 0.769435217	-1.2566417148	 0.077259
H	 1.7414052212	 1.9610801658	 0.7122570575	 0.129726
H	 2.1725149884	 0.9993073556	-0.7101045081	 0.129315
H	 1.0972751973	 2.5857866724	-2.2502156221	 0.094763
H	-0.318610665	 4.4414950122	-0.5325650031	 0.103515
H	 2.2324358817	 5.5895215201	 0.2881507894	 0.121672
H	 2.1177975645	 3.9213615731	 0.9441366444	 0.120062
H	 3.6297623718	 3.7792686735	-1.5252366686	 0.096527
48.0215	58.8731	134.6253	183.6944	335.3176	348.508	451.2178	477.2451	558.6692	698.9561	705.6238	734.18	785.5393	826.3892	873.5962	895.6002	954.6447	1021.9886	1025.5335	1033.9368	1050.5813	1081.6703	1101.5301	1128.6844	1136.0153	1190.5799	1192.6399	1208.9832	1229.9798	1249.2311	1293.7707	1425.3007	1432.3257	1455.3454	1529.5907	1838.0318	1923.4291	2857.4291	3013.2486	3049.1762	3089.8077	3126.2464	3146.5566	3150.8831	3163.0541
O=CCC1C2CC1C2=O	O=CC[C@H]1[C@H]2C[C@@H]1C2=O	
InChI=1S/C7H8O2/c8-2-1-4-5-3-6(4)7(5)9/h2,4-6H,1,3H2	InChI=1S/C7H8O2/c8-2-1-4-5-3-6(4)7(5)9/h2,4-6H,1,3H2/t4-,5+,6-
