17
gdb 67109	2.60851	2.10153	1.75844	1.1391	70.94	-0.2341	0.0648	0.2989	858.0064	0.136017	-421.704612	-421.697819	-421.696874	-421.735363	27.891	
C	-0.0650228983	 1.5321833011	-0.0970518802	-0.533751
C	-0.1163830064	 0.0357051324	-0.1102401195	 0.29679
C	 0.8263445189	-0.9641371481	-0.8290475477	-0.065589
O	 1.8741568897	-0.9211888528	 0.261504011	-0.392115
C	 0.59130087	-0.9168923172	 0.9171399711	 0.375858
C	-0.1798604268	-0.8696727267	 2.2161358269	-0.180179
O	-1.4983689304	-0.888445674	 1.6098932208	-0.299854
C	-1.2701209129	-0.9393162121	 0.1597420774	 0.005397
C	-0.110626393	-1.913354006	-0.052766523	-0.116283
H	 0.9708034655	 1.8714564322	 0.0108355764	 0.137136
H	-0.4695670263	 1.9592171677	-1.0206711579	 0.125685
H	-0.6497061377	 1.9300729757	 0.7390546618	 0.133923
H	 1.2106564972	-1.0001103128	-1.8464354453	 0.100798
H	-0.0468710923	-1.7424815553	 2.8633288333	 0.117537
H	-0.0406645827	 0.0498999933	 2.7947350758	 0.115727
H	-2.2400148253	-0.9609246811	-0.3319459324	 0.086164
H	-0.0658482893	-2.9974116462	 0.0202990716	 0.092757
200.6949	214.2538	219.6053	327.7274	420.7372	446.7183	563.9273	665.4228	679.2693	715.3159	737.2418	764.1976	811.5542	858.3174	873.5322	911.6408	929.5261	948.8909	971.0893	1020.4111	1072.8768	1093.7229	1110.5506	1119.3422	1154.0842	1168.991	1190.9579	1224.4789	1248.02	1289.4847	1310.1841	1346.2118	1384.8376	1414.1352	1487.2822	1493.515	1523.0495	3030.6575	3035.7147	3083.3721	3097.5519	3104.2395	3137.7147	3145.3251	3158.3313
CC12C3OC11COC2C31	C[C@@]12[C@H]3O[C@]41CO[C@@H]2[C@@H]34	
InChI=1S/C7H8O2/c1-6-4-3-5(6)9-7(3,6)2-8-4/h3-5H,2H2,1H3	InChI=1S/C7H8O2/c1-6-4-3-5(6)9-7(3,6)2-8-4/h3-5H,2H2,1H3/t3-,4+,5-,6+,7+/m0/s1
