21
gdb 103459	2.4622	1.36191	1.11744	3.0882	79.01	-0.2263	0.0679	0.2942	1194.8218	0.180476	-424.177365	-424.167609	-424.166665	-424.211445	36.477	
C	-0.0503044608	 1.5789966444	 0.118714377	-0.487466
C	-0.0261527297	 0.0629343031	 0.0870042208	 0.268272
C	-1.2603290971	-0.5667184891	-0.5278510574	-0.154086
O	-1.3902097562	-0.0772260262	-1.8579066557	-0.419779
C	 1.2405105724	-0.7041114655	-0.2104315804	 0.027812
O	 2.3998492599	 0.0008534339	 0.2330011231	-0.290759
C	 1.934032127	-0.0877267666	 1.6043967294	-0.138123
C	 0.6366202789	-0.7817078257	 1.1804973556	 0.186444
C	-0.0049079151	-1.863638263	 2.005603819	-0.50393
H	 0.9530175427	 1.9846500715	 0.26062271	 0.134214
H	-0.4357558718	 1.9576310499	-0.8309589968	 0.137385
H	-0.6963883621	 1.9514349601	 0.9225625647	 0.103161
H	-1.17104578	-1.6635981811	-0.5308450615	 0.082696
H	-2.1480874171	-0.3120080623	 0.0737382498	 0.088075
H	-2.2431441812	-0.3621490378	-2.1984343927	 0.286705
H	 1.3584054427	-1.4162485082	-1.0204544834	 0.103162
H	 2.5894109013	-0.7468322701	 2.1868065383	 0.104439
H	 1.8689780258	 0.8913309416	 2.0931860018	 0.103172
H	-0.4816877915	-1.4417031285	 2.8992811457	 0.122542
H	-0.7733908444	-2.41355808	 1.4573270597	 0.124487
H	 0.7419904665	-2.5908931104	 2.344038163	 0.121578
93.888	154.4964	168.8882	180.2321	200.1505	237.512	282.3318	289.0176	318.3173	341.6335	401.5937	501.1955	536.1973	671.4056	705.4241	763.4865	891.3242	923.2694	964.446	980.7175	990.5658	997.9528	1010.7732	1039.8033	1064.3333	1105.4742	1130.5865	1162.1006	1189.1171	1211.0827	1224.3171	1252.4059	1285.6504	1309.5059	1342.5923	1403.577	1418.4321	1450.4442	1460.0373	1487.3499	1490.3334	1499.5801	1510.7305	1516.4748	1523.2983	2964.4063	2997.5627	3017.3046	3023.2559	3034.4676	3066.269	3075.9786	3108.2795	3113.6861	3136.696	3169.5293	3830.5336
CC1(CO)C2OCC12C	C[C@@]1(CO)[C@H]2OC[C@@]12C	
InChI=1S/C7H12O2/c1-6(3-8)5-7(6,2)4-9-5/h5,8H,3-4H2,1-2H3	InChI=1S/C7H12O2/c1-6(3-8)5-7(6,2)4-9-5/h5,8H,3-4H2,1-2H3/t5-,6-,7-/m1/s1
