20
gdb 112771	2.15106	1.34605	0.98672	2.9446	79.61	-0.2646	0.0201	0.2846	1287.6455	0.169685	-403.160031	-403.150309	-403.149365	-403.195265	34.923	
C	-0.1241280491	 1.5072146354	-0.3301951833	-0.389281
C	 0.0085269508	 0.0026695051	-0.074112425	-0.196589
C	-1.3409221991	-0.6479423539	 0.1563613546	 0.15545
O	-2.2130794182	-0.5635282505	-0.99159169	-0.300785
C	-2.5198643597	-1.9723995567	-0.9541212741	 0.156712
C	-2.3530747869	-2.6502460071	-2.2951796967	-0.407886
C	-1.4625075567	-2.2059183186	 0.1753754661	-0.281784
C	-0.2758460795	-2.9594235502	-0.1892735066	 0.302249
N	 0.6669301172	-3.5603424721	-0.4853354655	-0.34102
H	 0.8534740234	 1.9574864679	-0.5227962442	 0.119175
H	-0.763472463	 1.6930609212	-1.1976317726	 0.139948
H	-0.5664825894	 2.0201344957	 0.5309366123	 0.114903
H	 0.5001533551	-0.4846872506	-0.9227953549	 0.120411
H	 0.636576468	-0.1839968671	 0.806452051	 0.10761
H	-1.8280246861	-0.2102369962	 1.0399765865	 0.082622
H	-3.5353801941	-2.1340632778	-0.566890476	 0.087159
H	-1.3318442048	-2.544375988	-2.6693079652	 0.142258
H	-2.588482468	-3.7166771989	-2.2181271662	 0.128232
H	-3.0386601601	-2.1978036037	-3.0180243313	 0.133344
H	-1.8734083498	-2.6155312239	 1.099843971	 0.127273
44.9462	97.1647	116.1596	150.0948	202.495	224.9965	249.8927	331.8572	376.2161	421.34	448.6065	513.5035	630.7978	745.991	781.4171	802.8829	856.1248	904.88	954.3759	968.8089	995.0926	1042.4477	1092.8138	1123.3705	1129.9169	1143.3747	1176.2804	1197.1882	1271.2153	1291.1584	1301.0766	1339.6549	1358.7079	1379.0046	1407.7982	1410.5376	1427.6496	1474.3166	1481.6122	1491.8554	1497.2486	1508.589	2351.7889	2994.243	3006.0148	3032.6136	3038.7796	3043.3577	3077.9374	3098.2536	3108.2509	3115.1943	3122.8256	3130.5483
CCC1OC(C)C1C#N	CC[C@H]1O[C@@H](C)[C@H]1C#N	
InChI=1S/C7H11NO/c1-3-7-6(4-8)5(2)9-7/h5-7H,3H2,1-2H3	InChI=1S/C7H11NO/c1-3-7-6(4-8)5(2)9-7/h5-7H,3H2,1-2H3/t5-,6+,7+/m0/s1
