22
gdb 11376	4.23519	1.19047	1.01744	0.2114	84.79	-0.2238	0.0341	0.2579	1258.764	0.200609	-313.099899	-313.090984	-313.09004	-313.133577	33.373	
C	 0.1258898058	 1.5456745293	-0.1605446712	-0.371516
C	-0.0940162933	 0.0431552786	 0.0911830206	-0.289421
C	 0.6410164839	-0.4797532583	 1.2909474397	 0.347806
C	 0.1022067362	-0.9746482082	 2.4082593006	-0.17877
C	 1.1385879992	-1.4600641131	 3.3907264019	-0.258882
C	 2.4591951014	-0.8560084532	 2.8404270481	 0.053442
C	 3.7013780839	-1.7120414597	 3.0811418674	-0.403228
C	 2.1554919238	-0.5625322749	 1.3480180923	-0.313745
H	 1.1825387574	 1.7744396112	-0.3311532122	 0.118031
H	-0.4320083148	 1.8782599668	-1.0414504444	 0.1112
H	-0.2090503825	 2.136887142	 0.6975146595	 0.118772
H	-1.1659895208	-0.1515617919	 0.2103208893	 0.098875
H	 0.2255074158	-0.5125435196	-0.8022462823	 0.098747
H	-0.9648609012	-1.067997629	 2.5859879609	 0.0784
H	 0.9389691695	-1.1508331191	 4.423675842	 0.096061
H	 1.1785558497	-2.5605560943	 3.4048153734	 0.096472
H	 2.6028617384	 0.1118611608	 3.3371099509	 0.073755
H	 3.601224628	-2.6917823737	 2.5993291783	 0.111379
H	 4.6010488391	-1.234129298	 2.6782060972	 0.10986
H	 3.8676402007	-1.8831703236	 4.1503564634	 0.110494
H	 2.5119025206	-1.377919627	 0.6985132341	 0.095413
H	 2.6568820095	 0.345936355	 0.9946646107	 0.096856
65.0465	78.4118	168.5799	188.4931	247.9406	270.4749	328.6717	377.4729	420.7935	510.2109	534.5583	655.1519	784.5126	829.9229	841.1561	866.3858	907.408	938.6375	943.8489	966.0634	999.0677	1056.0639	1070.4418	1085.8161	1116.1021	1147.9559	1154.8258	1202.9506	1237.0113	1264.0334	1296.483	1305.9182	1334.0412	1354.7047	1362.744	1374.4485	1406.21	1410.5299	1479.2409	1484.8495	1492.7688	1497.3696	1497.9913	1500.9169	1507.4606	1717.2135	2983.3017	2985.4969	3003.9319	3016.089	3023.5384	3035.7894	3045.2069	3052.5549	3056.98	3090.5265	3092.3849	3105.9643	3109.0014	3175.6057
CCC1=CCC(C)C1	CCC1=CC[C@@H](C)C1	
InChI=1S/C8H14/c1-3-8-5-4-7(2)6-8/h5,7H,3-4,6H2,1-2H3	InChI=1S/C8H14/c1-3-8-5-4-7(2)6-8/h5,7H,3-4,6H2,1-2H3/t7-/m1/s1
