15
gdb 127041	6.65646	0.82997	0.74485	5.7686	64.4	-0.2472	0.0237	0.2709	1462.7031	0.112213	-491.105562	-491.097183	-491.096239	-491.139401	29.692	
C	 0.0374143937	 1.5327264874	-0.093428676	-0.395742
C	 0.0018211128	 0.0224897811	 0.0058734049	-0.054991
O	 0.6676436941	-0.5050767155	-1.1705451112	-0.270903
C	 0.7281240691	-1.8211749042	-1.2482788181	 0.553744
N	 0.2610845001	-2.674532079	-0.3949282877	-0.243789
O	 0.5947534894	-3.9465438901	-0.9622535818	-0.240352
C	 1.2567903255	-3.7866454229	-2.1468034604	 0.518272
O	 1.6602639567	-4.6669557321	-2.8489329259	-0.387771
N	 1.3362064291	-2.4087731496	-2.3210934548	-0.459021
H	 1.0672423275	 1.898716315	-0.1236357916	 0.136822
H	-0.4820909078	 1.878173034	-0.9913088841	 0.136821
H	-0.4574406412	 1.9666271768	 0.7799281121	 0.134799
H	 0.5247055213	-0.3490359288	 0.892588598	 0.13971
H	-1.0197208699	-0.3695235941	 0.0276824384	 0.139731
H	 1.7687396797	-1.9518324979	-3.1048621019	 0.292667
54.0539	92.8834	141.5593	192.4523	253.9296	343.9548	379.3245	387.7396	442.633	561.0509	697.1779	708.99	772.2659	775.721	813.263	899.314	933.6218	975.4236	1032.6232	1073.9397	1132.6322	1182.5134	1213.1253	1294.0255	1297.8176	1393.8209	1420.2288	1484.695	1497.6436	1516.2512	1551.3682	1676.5511	1910.1576	3050.6327	3054.8729	3096.8647	3127.6723	3131.9507	3691.1748
CCOC1=NOC(=O)N1	CCOc1noc(=O)[nH]1	
InChI=1S/C4H6N2O3/c1-2-8-3-5-4(7)9-6-3/h2H2,1H3,(H,5,6,7)	InChI=1S/C4H6N2O3/c1-2-8-3-5-4(7)9-6-3/h2H2,1H3,(H,5,6,7)
