20
gdb 31143	1.85271	1.80323	0.98118	1.4326	83.14	-0.1926	0.0314	0.224	1253.0207	0.169943	-403.177786	-403.167768	-403.166824	-403.213311	35.628	
C	 0.1835506729	 1.46572421	 0.2675053049	-0.32688
N	-0.1136507084	 0.0701071228	-0.0702787249	-0.385742
C	 0.5879314861	-0.4521214101	-1.1836862374	-0.00125
C	 0.2378223802	-0.2817822698	-2.4922905512	 0.357542
C	-0.8980408508	 0.4187156608	-3.1416595056	-0.497473
O	 1.1484443367	-0.9052104579	-3.2954979035	-0.190823
C	 2.0694659914	-1.4937812612	-2.4830691275	-0.135747
C	 1.7936601207	-1.2523818644	-1.1759983269	 0.213896
C	 2.5528400428	-1.7200932016	 0.025719438	-0.515186
H	 1.2484743247	 1.6629876937	 0.4714373766	 0.102883
H	-0.1217461392	 2.1136620622	-0.5589224075	 0.128871
H	-0.3975111606	 1.7514457174	 1.1497218027	 0.115697
H	 0.0345318438	-0.5162602323	 0.7423377137	 0.223237
H	-0.5979912043	 1.3620692759	-3.61541499	 0.128487
H	-1.3535746764	-0.205676411	-3.9176824438	 0.133374
H	-1.654213307	 0.6414584564	-2.3844500791	 0.144487
H	 2.850655424	-2.0453185807	-2.981045272	 0.125448
H	 2.8760066929	-0.8818087028	 0.6543517246	 0.126977
H	 1.9490085028	-2.3816884758	 0.6596322965	 0.124592
H	 3.4466466175	-2.2781580615	-0.2663474877	 0.127612
34.9054	121.7198	144.1018	148.7789	166.6905	183.4803	239.18	257.1809	313.4261	416.3391	477.413	560.5096	620.4747	671.4286	710.4332	727.2792	750.8467	802.1123	947.209	1005.4062	1033.2809	1046.1927	1063.3888	1065.5498	1150.5289	1168.5701	1177.5881	1210.011	1274.3801	1307.5505	1389.0213	1417.3681	1421.7355	1453.1741	1476.0082	1481.026	1485.656	1490.4461	1491.6269	1502.0874	1521.2715	1608.5727	1687.6911	2970.7207	3019.0451	3020.5462	3065.3217	3070.9609	3075.2096	3108.6396	3111.8001	3123.2455	3266.0002	3543.1319
CNC1=C(C)OC=C1C	CNc1c(C)occ1C	
InChI=1S/C7H11NO/c1-5-4-9-6(2)7(5)8-3/h4,8H,1-3H3	InChI=1S/C7H11NO/c1-5-4-9-6(2)7(5)8-3/h4,8H,1-3H3
