21
gdb 59577	2.95737	1.28333	1.0826	1.0079	78.08	-0.2456	0.0571	0.3026	1213.5216	0.181763	-424.189298	-424.180392	-424.179448	-424.223118	33.592	
C	-0.0412790648	 1.3674450067	-0.2936086432	-0.398107
C	-0.0180751067	-0.1388133046	-0.0048518036	 0.022847
C	 0.8101245641	-0.4756640328	 1.2426562859	-0.401199
C	-1.4332823525	-0.6713222548	 0.1509855273	 0.126126
O	-2.282993095	-0.4549137648	-1.0212416065	-0.321881
C	-2.6455213629	-1.8432077823	-1.0813377262	 0.068487
C	-1.696118176	-2.6815103091	-1.9496368362	-0.093777
O	-0.8016557632	-2.8906625172	-0.8225425173	-0.291474
C	-1.6880438125	-2.1923052499	 0.0717585237	 0.03371
H	 0.9704323089	 1.7431111079	-0.4774772944	 0.109146
H	-0.6546610179	 1.5853575114	-1.1717973836	 0.13278
H	-0.4549188137	 1.9257979011	 0.5550293315	 0.107998
H	 0.4260565202	-0.6567309691	-0.8624707186	 0.088125
H	 0.3808559755	-0.0159587806	 2.1410804368	 0.110465
H	 0.8655473198	-1.5565054533	 1.4065481266	 0.124738
H	 1.8334615898	-0.1021167653	 1.1383572781	 0.116232
H	-1.9164599415	-0.2255307027	 1.0346975537	 0.071567
H	-3.7227585574	-2.009020421	-1.1323185512	 0.088938
H	-2.107956016	-3.6348451983	-2.3043621	 0.104499
H	-1.2216909719	-2.1421086125	-2.7757640378	 0.115085
H	-1.905002956	-2.7534670689	 0.9820428148	 0.085695
64.7585	101.1008	157.6192	228.4793	239.5907	259.7796	313.4324	386.3494	398.5465	462.1387	542.9722	721.3731	797.4552	812.7539	869.1904	907.8799	929.3377	938.1636	949.0314	971.401	997.1464	1003.7121	1027.1343	1073.7774	1082.5208	1132.9244	1159.9103	1171.93	1199.6845	1205.2017	1229.5097	1288.7562	1294.2188	1305.557	1335.7803	1349.3935	1356.5441	1395.9818	1402.4376	1419.9517	1489.1934	1493.4463	1501.168	1504.5297	1513.3872	2981.2898	3018.7378	3026.0519	3029.0229	3047.3628	3084.2218	3090.7653	3093.162	3097.5577	3105.436	3106.6798	3119.2984
CC(C)C1OC2COC12	CC(C)[C@H]1O[C@H]2CO[C@@H]12	
InChI=1S/C7H12O2/c1-4(2)6-7-5(9-6)3-8-7/h4-7H,3H2,1-2H3	InChI=1S/C7H12O2/c1-4(2)6-7-5(9-6)3-8-7/h4-7H,3H2,1-2H3/t5-,6+,7+/m0/s1
