21
gdb 116807	5.42704	0.60958	0.57891	3.161	84.08	-0.2436	0.0199	0.2636	1977.4137	0.18161	-420.369941	-420.359796	-420.358852	-420.407081	35.524	
C	 0.2139063598	 0.8608307595	-0.1233811263	-0.397304
C	-0.3027056681	-0.3937770097	-0.8350066716	-0.111274
N	 0.6524700325	-1.2829970784	-1.4748644108	-0.225015
C	 1.8822778628	-1.0362604372	-1.4438915197	 0.131461
O	 2.7502736921	-1.8738273109	-2.0625656334	-0.215914
C	 4.1354582586	-1.5771504873	-1.9083163436	-0.117308
C	 4.9276740064	-2.4594333557	-2.8445126554	 0.005447
C	 4.4726239607	-3.8278599712	-3.1821111122	-0.230907
N	 4.4298674139	-2.7495409473	-4.1927688237	-0.319854
H	 0.8917923555	 0.6142561333	 0.7009812546	 0.119058
H	 0.7412865275	 1.5318350355	-0.8099788354	 0.11966
H	-0.6301138616	 1.4151758224	 0.2976461575	 0.118065
H	-0.8756743791	-1.0033017241	-0.123644537	 0.115356
H	-1.0273343878	-0.0995887815	-1.6057885035	 0.115576
H	 2.3672945924	-0.180070903	-0.9592260696	 0.08057
H	 4.3198129506	-0.5185219495	-2.1438761257	 0.111298
H	 4.4489233008	-1.7514237492	-0.8687942309	 0.113784
H	 5.996859816	-2.2595769748	-2.7986431858	 0.094808
H	 5.2035911018	-4.6079329911	-3.3741432634	 0.116146
H	 3.5322968867	-4.164039301	-2.757514673	 0.133574
H	 3.4692286482	-2.4177345689	-4.2585446612	 0.242774
16.7219	66.2452	101.3057	146.7665	157.1162	172.7955	238.7038	322.7171	344.1253	354.9709	457.0307	512.2147	666.8199	779.28	781.3197	850.7999	889.7937	923.4515	964.8555	977.4663	993.4847	1039.5507	1078.8532	1092.5402	1110.4267	1131.3317	1147.0592	1154.865	1202.701	1237.2957	1273.5477	1285.9755	1308.9943	1315.0416	1378.9886	1392.94	1405.956	1424.2511	1435.7681	1483.5468	1495.1532	1505.4337	1508.0425	1511.4416	1781.8796	2986.4498	3017.1043	3025.7034	3030.4752	3037.1066	3045.3306	3099.4744	3108.316	3118.8965	3125.4067	3211.8486	3492.0157
CCN=COCC1CN1	CCN=COC[C@H]1CN1	
InChI=1S/C6H12N2O/c1-2-7-5-9-4-6-3-8-6/h5-6,8H,2-4H2,1H3	InChI=1S/C6H12N2O/c1-2-7-5-9-4-6-3-8-6/h5-6,8H,2-4H2,1H3/t6-/m1/s1
