17
gdb 43367	2.8536	1.6543	1.25211	3.511	74.12	-0.2257	-0.0545	0.1711	1016.6681	0.136647	-421.83954	-421.831852	-421.830908	-421.872519	28.801	
O	-0.0669423453	 0.0020621242	 0.1041510922	-0.338337
C	-0.0880244768	 1.2095649269	 0.0463315034	 0.348066
C	-1.2595390318	 2.1034889789	-0.0303486408	-0.181914
C	-0.8592717852	 3.3817961282	-0.0404910153	-0.057524
C	 0.6404578263	 3.5416225642	 0.0074757852	-0.356298
C	 1.1790167095	 2.1055422118	 0.0560995112	 0.344947
C	 2.2524789005	 1.6685296007	 1.0809171106	-0.339949
C	 3.0360539148	 1.1940206929	-0.1562616242	-0.066571
O	 2.0538935201	 1.770617722	-1.0477195698	-0.312671
H	-2.277654326	 1.7375248524	-0.0614107365	 0.121039
H	-1.5227312985	 4.2399343868	-0.0740128331	 0.119577
H	 1.0232271164	 4.0517323605	-0.8838013408	 0.140244
H	 0.9511508135	 4.1403657837	 0.8724295974	 0.119819
H	 2.7117713115	 2.4950507519	 1.6259855285	 0.108907
H	 1.9381246319	 0.8890313605	 1.7754267635	 0.127742
H	 4.0285167517	 1.6313850374	-0.3121840358	 0.102444
H	 3.0922750375	 0.1064933272	-0.2699283357	 0.120478
44.8242	91.8251	217.8213	273.5893	294.8121	368.371	437.0095	551.194	671.5331	682.4547	747.2073	774.2969	834.2298	861.0367	886.2608	915.8384	957.5429	979.7417	1001.3413	1023.5939	1067.0423	1083.7099	1126.1752	1163.8586	1187.1193	1204.2521	1209.6258	1241.0309	1266.8035	1327.5443	1351.6392	1366.3108	1458.6906	1476.825	1523.0003	1645.7979	1815.1972	3031.385	3032.7922	3071.0369	3077.3255	3082.2732	3142.9063	3187.0048	3227.0809
O=C1C=CCC11CCO1	O=C1C=CC[C@]21CCO2	
InChI=1S/C7H8O2/c8-6-2-1-3-7(6)4-5-9-7/h1-2H,3-5H2	InChI=1S/C7H8O2/c8-6-2-1-3-7(6)4-5-9-7/h1-2H,3-5H2/t7-/m1/s1
