17
gdb 37660	2.82436	2.66168	2.22178	1.5778	70.69	-0.2419	0.0764	0.3183	736.0464	0.141099	-384.675672	-384.67078	-384.669835	-384.704583	23.04	
O	-0.0300942696	 1.45586089	 0.0083919843	-0.250219
C	 1.3850854066	 1.7122730444	-0.0023781208	 0.022275
C	 1.9025140268	 0.9092210571	 1.2187293053	-0.072687
C	 2.395595449	-0.4342529402	 0.73874213	-0.083421
C	 2.3826658506	-0.426761505	-0.7816921289	-0.083422
C	 1.8816071698	 0.9213362431	-1.2399621862	-0.072687
C	 0.9523328406	-0.2704680045	-1.2379337017	-0.072687
C	 0.0662519755	 0.0208511512	 0.0005019138	 0.022275
C	 0.973241077	-0.2825842364	 1.2207593517	-0.072687
H	 1.5698438086	 2.7843867361	 0.0013337631	 0.074045
H	 2.2464926518	 1.3958527226	 2.1222803525	 0.087102
H	 3.1334190749	-1.0086138755	 1.2862242764	 0.083381
H	 3.1110238285	-0.9956395982	-1.3472743744	 0.083381
H	 2.2102114686	 1.4168770766	-2.1443927864	 0.087102
H	 0.5503687494	-0.7118855843	-2.1407691727	 0.087102
H	-0.9284542095	-0.419713521	 0.006789907	 0.074045
H	 0.5866508414	-0.7329120659	 2.1259052871	 0.087102
529.6412	583.2506	597.6121	648.0524	657.9313	732.386	772.2356	779.7888	782.1774	813.9104	818.5946	835.5365	902.0878	903.6976	910.194	934.5315	943.023	970.4591	979.4393	996.5657	1004.4406	1027.9068	1075.3013	1078.4259	1080.047	1099.1022	1108.4539	1229.8376	1244.6641	1248.4862	1253.567	1257.0386	1306.7015	1316.9852	1330.9975	1355.9597	1395.6321	3145.1866	3147.9464	3174.2755	3184.1848	3188.612	3189.8256	3197.3745	3203.4431
O1C2C3C4C5C2C5C1C34	O1[C@H]2[C@@H]3[C@@H]4[C@@H]5[C@H]2[C@@H]5[C@H]1[C@H]34	
InChI=1S/C8H8O/c9-7-3-1-2-5(7)6(2)8(9)4(1)3/h1-8H	InChI=1S/C8H8O/c9-7-3-1-2-5(7)6(2)8(9)4(1)3/h1-8H/t1-,2+,3+,4-,5-,6+,7-,8+
