13
gdb 21470	7.90756	1.24753	1.08295	4.5342	63.11	-0.2353	0.0038	0.2391	1015.5345	0.097488	-394.793283	-394.786392	-394.785448	-394.825177	24.512	
N	-0.0526686471	 1.2551559519	 0.1697317643	-0.432537
C	-0.0267792369	 0.0140663321	-0.0420700745	 0.114042
O	-1.1598880734	-0.7072961212	 0.1946782424	-0.21896
C	-1.0978817493	-2.0619807075	 0.1119363667	 0.464902
N	 0.0365251234	-2.7437213779	 0.1811492808	-0.317901
N	-0.3646194571	-4.0316349807	 0.071185826	-0.193841
C	-1.7053202898	-4.1621190113	-0.0474485481	 0.002608
C	-2.231968175	-2.8885730044	-0.0278004304	-0.329926
H	 0.847883089	 1.6622358875	-0.0759781981	 0.233646
H	 0.8003520121	-0.5949610793	-0.4122013406	 0.131565
H	 0.3295045876	-4.7574119639	 0.1066397429	 0.280636
H	-2.1754713055	-5.1286476547	-0.1360849429	 0.14328
H	-3.262693878	-2.5888389607	-0.1050737985	 0.122485
60.8019	93.756	190.8001	343.3879	444.0339	452.8412	498.6774	654.6679	715.7445	770.6615	807.5252	836.015	842.4692	940.291	994.381	1052.2808	1056.8105	1077.4294	1119.0319	1224.5772	1274.3642	1318.7389	1404.1636	1411.468	1492.2154	1514.9899	1582.7833	1745.7511	3114.2944	3263.1011	3290.9309	3515.4365	3687.8357
N=COC1=NNC=C1	[NH][CH]Oc1n[nH]cc1	
InChI=1S/C4H5N3O/c5-3-8-4-1-2-6-7-4/h1-3,5H,(H,6,7)	InChI=1S/C4H5N3O/c5-3-8-4-1-2-6-7-4/h1-3,5H,(H,6,7)
