16
gdb 24691	3.78676	1.56196	1.1236	3.6651	77.85	-0.2224	-0.0197	0.2027	1030.5997	0.128453	-400.81669	-400.810109	-400.809165	-400.847908	25.704	
C	 0.0152702885	 1.3940429456	-0.1063386181	-0.095723
C	 1.4962793568	 1.8336424737	 0.0273961536	-0.362418
C	 2.1178956865	 0.6032548657	 0.6436447409	 0.223034
C	 3.3710683672	 0.3255104453	 1.1589165407	-0.261897
C	 3.6040115842	-0.9754602751	 1.6188066495	 0.004473
N	 2.6963210226	-1.952801207	 1.5823904109	-0.267483
C	 1.4841330954	-1.6846665518	 1.082621175	-0.100551
C	 1.1709820042	-0.417064852	 0.610620847	 0.319192
O	-0.0223307394	-0.0419126908	 0.0798560898	-0.28042
H	-0.6112722479	 1.8512476955	 0.6679091423	 0.119788
H	-0.4194505333	 1.6131137238	-1.0835107849	 0.125015
H	 1.9453102871	 2.0554627939	-0.9475852207	 0.131139
H	 1.6026470787	 2.7291501592	 0.6455223505	 0.128532
H	 4.152118975	 1.0768577363	 1.2103176444	 0.09838
H	 4.5722636559	-1.2376946253	 2.0371484433	 0.104471
H	 0.7560989483	-2.4903480469	 1.0605356959	 0.114469
89.4566	195.383	262.1803	393.6117	432.3255	550.1233	575.6474	609.3935	703.2919	749.6237	806.2291	848.5422	852.7084	871.3401	938.0126	959.1568	965.9216	1005.3848	1059.4739	1077.4966	1162.5599	1207.2836	1210.476	1233.7075	1269.5379	1276.5826	1309.9801	1343.1379	1393.1498	1456.1818	1483.5446	1512.5687	1526.4896	1624.7032	1636.0872	3039.201	3039.4043	3088.3785	3112.4803	3157.3941	3169.6668	3186.5076
C1CC2=CC=NC=C2O1	C1Cc2ccncc2O1	
InChI=1S/C7H7NO/c1-3-8-5-7-6(1)2-4-9-7/h1,3,5H,2,4H2	InChI=1S/C7H7NO/c1-3-8-5-7-6(1)2-4-9-7/h1,3,5H,2,4H2
