20
gdb 93754	2.06012	1.61329	0.95501	5.4388	87.47	-0.2032	-0.0255	0.1777	1253.1023	0.17081	-403.191129	-403.181671	-403.180727	-403.22539	34.726	
C	-0.2625746651	 1.5304814289	-0.0098256201	-0.402192
C	 0.0607342635	 0.0331293573	-0.0054390837	-0.077398
C	 0.9963445962	-0.3948898674	-1.169755246	-0.185441
N	 1.8744857011	-1.4028060214	-0.5585280714	-0.329899
C	 1.8451916702	-1.2770686512	 0.8079025368	 0.27495
C	 2.8479374574	-2.0402068407	 1.6130745277	-0.501838
C	 0.8215957768	-0.4714305614	 1.2168195648	 0.099334
C	 0.4146152159	-0.2415999613	 2.57627226	 0.052829
O	-0.5582148633	 0.4124892433	 2.9216116402	-0.319739
H	 0.6541960699	 2.126007467	 0.0649230462	 0.104348
H	-0.7774001203	 1.8146286719	-0.9345339326	 0.102488
H	-0.8998838741	 1.7769622682	 0.8403141129	 0.155918
H	-0.8867866701	-0.5186116785	-0.0800304731	 0.091248
H	 0.4588411946	-0.8120781115	-2.0256105094	 0.113764
H	 1.5840816019	 0.4651098608	-1.5230039696	 0.102609
H	 2.7418808894	-1.6457131757	-1.0132921771	 0.24135
H	 2.7718747794	-3.1116994904	 1.3973504416	 0.146813
H	 3.8671738966	-1.7280708342	 1.354554089	 0.135585
H	 2.7086186682	-1.8914618908	 2.6831230501	 0.153251
H	 1.0619855817	-0.714446853	 3.3497159736	 0.042019
73.9616	107.7665	160.4431	194.6358	209.0076	243.8475	265.1403	311.6275	372.1797	451.5124	483.834	523.0615	593.1269	638.4838	702.8963	745.0556	909.16	949.0432	964.1465	1006.0111	1020.5662	1054.3071	1064.3353	1099.9267	1127.7627	1140.701	1222.8871	1286.7936	1305.7081	1317.9177	1356.6456	1360.2634	1404.0677	1411.5622	1440.0253	1471.9493	1478.1733	1490.1263	1497.1141	1510.6408	1529.4622	1656.9837	1739.755	2855.7485	2991.9401	3001.8357	3030.4476	3033.2931	3080.8765	3084.6787	3091.8746	3147.0688	3157.5184	3609.085
CC1CNC(C)=C1C=O	C[C@H]1CNC(=C1C=O)C	
InChI=1S/C7H11NO/c1-5-3-8-6(2)7(5)4-9/h4-5,8H,3H2,1-2H3	InChI=1S/C7H11NO/c1-5-3-8-6(2)7(5)4-9/h4-5,8H,3H2,1-2H3/t5-/m0/s1
