18
gdb 22448	2.50217	1.03978	0.80545	1.0677	79.39	-0.2411	-0.033	0.2081	1420.7918	0.143688	-439.004234	-438.993724	-438.99278	-439.039878	37.679	
C	-0.0787404672	 1.5551594376	-0.0942484903	-0.395812
C	-0.0521485221	 0.0154540581	-0.0915277416	-0.05656
C	-1.4578880007	-0.5708867652	 0.0533064046	-0.090057
O	-1.957869068	-0.138315654	 1.3126589147	-0.428073
C	 0.6708611823	-0.5161646744	-1.3147123287	 0.150043
N	-0.0113835473	-1.1652561116	-2.1901600123	-0.172781
O	 0.7562065717	-1.5858635943	-3.2684850588	-0.386488
C	 2.0686586743	-0.2541731683	-1.4282388053	 0.350213
C	 3.2472873901	-0.0115583093	-1.4656867593	-0.449162
H	 0.9333135589	 1.9666383443	-0.1276654343	 0.123718
H	-0.6278560616	 1.9275051974	-0.9660184629	 0.116202
H	-0.5778409984	 1.9126704135	 0.8082247949	 0.138805
H	 0.5220080263	-0.3081159462	 0.7869045675	 0.103369
H	-2.0944680391	-0.2256963908	-0.7738009543	 0.098171
H	-1.4116199833	-1.6670366286	-0.0046196202	 0.096902
H	-2.8669558126	-0.4400640866	 1.391188176	 0.287386
H	 0.1100244144	-2.0479254797	-3.8141685067	 0.308903
H	 4.2881869622	 0.194068118	-1.517665413	 0.205222
48.5519	113.6167	128.9199	172.2914	186.6546	237.6531	245.5211	273.2661	292.0052	368.0066	385.4374	419.0442	453.0719	493.4314	629.6382	644.2497	670.0766	718.372	796.4073	882.9668	934.2909	997.9283	1059.9272	1082.7841	1111.3876	1147.8418	1197.6467	1255.0796	1269.9748	1341.5248	1349.7418	1393.3436	1404.533	1456.4529	1495.344	1503.1661	1517.2085	1678.2748	2219.2211	2995.6067	3019.5143	3036.2884	3043.1606	3113.3564	3140.7672	3498.9213	3809.9404	3839.1712
CC(CO)C(=NO)C#C	C[C@@H](CO)C(=NO)C#C	
InChI=1S/C6H9NO2/c1-3-6(7-9)5(2)4-8/h1,5,8-9H,4H2,2H3	InChI=1S/C6H9NO2/c1-3-6(7-9)5(2)4-8/h1,5,8-9H,4H2,2H3/t5-/m0/s1
