18
gdb 55450	3.09362	1.2039	1.03573	13.2225	78.47	-0.1759	-0.0173	0.1587	1182.1717	0.150002	-439.065732	-439.057455	-439.056511	-439.099728	30.846	
O	 0.2774417512	 0.3063887359	 0.7852891684	-0.435138
C	 0.0350482777	 1.0954803299	-0.1171661665	 0.373975
O	 0.5508357109	 1.4086635015	-1.1945043038	-0.439449
C	-1.3914239977	 1.9688155555	 0.1987213836	-0.20203
C	-1.4584709328	 3.1265078069	-0.7717735216	-0.228996
N	-2.8885407535	 3.382122428	-1.2580049846	-0.255009
H	-3.4688610421	 3.6278315041	-0.4536886241	 0.303248
H	-2.9018783024	 4.1660940856	-1.9107235874	 0.302875
C	-3.4861487996	 2.15148061	-1.9002753322	-0.236322
C	-3.4267874349	 1.0271883024	-0.9110264203	-0.123317
C	-2.4956638495	 1.0024643988	 0.0545009483	-0.010272
H	-1.275558986	 2.2865001052	 1.2367225715	 0.092817
H	-1.1071616544	 4.0710854185	-0.3516508125	 0.130857
H	-0.8570150977	 2.862977154	-1.6493799995	 0.183276
H	-4.5099904925	 2.4057296998	-2.1933442551	 0.136657
H	-2.9033173787	 1.9811994274	-2.8132374931	 0.171321
H	-4.1674860629	 0.2449730381	-1.0228987011	 0.104138
H	-2.4824522852	 0.1869754285	 0.7708408999	 0.131369
35.8194	70.1363	170.2004	262.3112	288.8358	317.4845	439.7202	458.177	537.2621	571.1802	679.896	706.4749	731.6954	781.8337	790.5762	887.2882	898.5436	944.9024	996.1284	999.446	1014.3094	1053.5774	1086.7418	1132.9389	1155.461	1212.0778	1234.6188	1268.833	1317.351	1348.849	1363.4252	1393.0345	1399.1049	1420.9765	1488.2183	1506.5179	1619.9275	1676.1648	1869.8411	3037.0558	3048.6833	3082.2179	3086.6346	3125.6973	3185.2732	3206.2423	3435.0397	3506.6368
[O-]C(=O)C1C[NH2+]CC=C1	[O]C(=O)[C@H]1C[NH2]CC=C1	
InChI=1S/C6H9NO2/c8-6(9)5-2-1-3-7-4-5/h1-2,5,7H,3-4H2,(H,8,9)	InChI=1S/C6H9NO2/c8-6(9)5-2-1-3-7-4-5/h1-2,5H,3-4,7H2/t5-/m1/s1
