17
gdb 106487	2.69973	1.67384	1.28502	4.0579	67.33	-0.2693	0.0025	0.2718	997.7169	0.137505	-458.976719	-458.969339	-458.968395	-459.008577	28.97	
O	 0.0683279967	 1.3949973883	-0.0486716126	-0.421894
C	 0.072584379	-0.0183471367	-0.0227691253	-0.184881
C	-1.3322517044	-0.5776404154	-0.0496324459	 0.126412
C	-2.3246391452	-0.5243655912	-1.2718785042	-0.267284
C	-3.0883003749	-1.5219776104	-0.3757494113	 0.092356
C	-1.7237047399	-2.096945597	 0.0592766321	-0.2898
O	-3.4547198661	-0.6862524656	 0.7754924187	-0.243938
C	-2.2828977778	-0.02845066	 1.0093892488	 0.468319
O	-2.113267513	 0.7970066758	 1.8632546962	-0.38314
H	-0.4066136792	 1.6786676776	 0.7443365646	 0.30157
H	 0.6321172067	-0.3515230561	-0.9033049519	 0.109993
H	 0.5960521246	-0.4103924389	 0.8647483875	 0.098732
H	-2.8133873121	 0.4234567903	-1.5029093558	 0.129859
H	-1.8991622226	-0.9792492954	-2.1685327453	 0.116852
H	-3.9509967966	-2.1102082047	-0.676426436	 0.104977
H	-1.2446553742	-2.7067473669	-0.7093446054	 0.118603
H	-1.669758391	-2.5801275737	 1.0372592958	 0.123263
106.6044	162.9516	202.9372	267.6344	410.6897	471.1043	474.0877	517.593	537.6467	629.0446	713.4563	757.3938	788.3434	865.741	881.4516	917.5433	934.5053	977.8441	993.4758	1024.9449	1056.0612	1077.5197	1088.9443	1117.1373	1169.9486	1181.9964	1229.9992	1240.7064	1274.0889	1316.5542	1362.7522	1389.719	1446.7923	1478.1792	1498.764	1516.0763	1878.8161	2972.7408	3069.3639	3071.2185	3079.0284	3138.5693	3146.7458	3164.9785	3755.9952
OCC12CC(C1)OC2=O	OC[C@@]12C[C@@H](C1)OC2=O	
InChI=1S/C6H8O3/c7-3-6-1-4(2-6)9-5(6)8/h4,7H,1-3H2	InChI=1S/C6H8O3/c7-3-6-1-4(2-6)9-5(6)8/h4,7H,1-3H2/t4-,6+
