17
gdb 66325	2.47773	1.47858	1.33932	4.0614	73.03	-0.2709	-0.0026	0.2683	1042.7175	0.137095	-418.037716	-418.029533	-418.028589	-418.070388	30.733	
C	-0.0393878093	 1.5460858123	 0.0167048111	-0.411639
C	 0.0262092641	 0.0094890342	-0.0038039445	 0.098242
C	 0.7296651449	-0.5115292377	-1.2781231119	-0.255397
C	 1.0330807255	-1.9929015343	-1.1129991144	-0.092527
O	 1.7868288871	-2.2303688543	 0.0890634741	-0.217328
C	 1.5078527977	-1.4285181053	 1.1327454121	 0.13951
N	 0.7301691093	-0.4295638448	 1.2146392234	-0.281956
C	-1.3497313019	-0.5295685896	 0.0409326744	 0.302555
N	-2.4219971243	-0.9611761396	 0.0464492097	-0.34912
H	 0.9780392074	 1.9459179118	 0.0036574218	 0.127718
H	-0.5864433755	 1.9274436777	-0.8499485353	 0.127503
H	-0.5317732496	 1.8849510971	 0.9300495293	 0.148458
H	 0.1152987236	-0.3478832418	-2.1676657324	 0.128699
H	 1.6625216367	 0.0484828591	-1.4024953119	 0.122122
H	 0.1076782783	-2.5779177207	-1.0586750352	 0.144322
H	 1.6450778597	-2.3817165577	-1.9290042743	 0.129716
H	 2.0827090963	-1.7390285564	 2.0033379341	 0.139125
86.1828	156.6144	190.9178	246.025	273.8228	316.3229	352.4495	423.9923	512.9405	526.3429	605.0138	615.3321	684.3576	796.1164	860.4301	887.0009	918.3814	983.8852	995.17	1020.5857	1049.5118	1127.9615	1161.3189	1192.6224	1229.0079	1275.7581	1281.4422	1357.3194	1400.433	1406.2662	1415.9709	1472.67	1483.7735	1492.3449	1509.6381	1711.7206	2351.625	3046.0147	3048.8373	3054.2726	3106.2434	3117.909	3127.3807	3142.5241	3163.477
CC1(CCOC=N1)C#N	C[C@]1(CCOC=N1)C#N	
InChI=1S/C6H8N2O/c1-6(4-7)2-3-9-5-8-6/h5H,2-3H2,1H3	InChI=1S/C6H8N2O/c1-6(4-7)2-3-9-5-8-6/h5H,2-3H2,1H3/t6-/m0/s1
