17
gdb 111556	2.70319	1.59675	1.21195	0.9577	67.51	-0.2206	0.07	0.2906	1048.3191	0.134251	-458.868474	-458.860345	-458.859401	-458.901424	30.635	
C	 0.0428252272	 1.2767985676	-0.3655351447	-0.239249
O	-0.019603495	 0.0241468893	 0.2816015552	-0.253482
C	-1.2641323277	-0.5966431354	 0.186003962	 0.099443
C	-1.7023329141	-1.2855201173	-1.15190596	-0.003935
O	-0.5821476773	-2.1437142052	-1.4970767663	-0.281233
C	-0.9620826724	-2.935839755	-0.3735382747	 0.020409
C	-2.363533617	-2.417463321	-0.289610517	-0.194223
C	-1.3635513141	-1.9904519456	 0.7777683322	 0.275495
O	-1.3880476408	-2.3607802041	 2.1011086266	-0.455518
H	 1.0360034642	 1.6907138791	-0.1774060475	 0.12967
H	-0.0997366094	 1.184520528	-1.4518353043	 0.113424
H	-0.7133364019	 1.9746747707	 0.027192573	 0.103634
H	-2.0765696719	 0.0469895036	 0.5582292389	 0.07263
H	-2.1274380195	-0.745841438	-1.9943781311	 0.089203
H	-0.5397179822	-3.9220765008	-0.2337375839	 0.115231
H	-3.3446938343	-2.8660882097	-0.2413970209	 0.111005
H	-0.4794238638	-2.3828976262	 2.4226057826	 0.297496
60.6536	163.0069	167.1242	244.2905	278.1089	296.9083	349.2209	439.7059	565.2267	578.6161	703.2379	755.2796	786.4537	829.3847	853.5127	887.8544	933.6955	962.3219	973.5358	1019.8757	1040.0292	1063.409	1124.8802	1130.2104	1161.2704	1181.4576	1194.3446	1202.6916	1242.405	1280.1304	1312.5307	1320.2751	1383.2241	1458.126	1482.947	1491.4763	1506.1845	2976.4902	2993.092	3030.2181	3118.4816	3153.26	3210.4466	3228.6091	3795.2173
COC1C2OC3C2C13O	CO[C@H]1[C@H]2O[C@@H]3[C@H]2[C@]13O	
InChI=1S/C6H8O3/c1-8-5-3-2-4(9-3)6(2,5)7/h2-5,7H,1H3	InChI=1S/C6H8O3/c1-8-5-3-2-4(9-3)6(2,5)7/h2-5,7H,1H3/t2-,3-,4+,5-,6+/m0/s1
