18
gdb 31251	1.95483	1.71822	0.95651	1.1981	76.84	-0.1751	0.0358	0.2109	1220.4136	0.148164	-439.10041	-439.091368	-439.090424	-439.134513	33.012	
C	-0.5420719749	 1.0715606972	-0.3053649936	-0.328153
N	 0.0279352044	-0.2414333994	-0.0424569456	-0.38875
C	 0.7552724354	-0.8791685502	-1.0194803366	 0.364528
C	 1.0622216961	-2.2070201801	-1.1926766049	 0.102066
C	 0.5981985829	-3.3171074551	-0.305366019	-0.198649
O	-0.7837866133	-3.1806710097	 0.0637828053	-0.416418
C	 1.9014261077	-2.2463156244	-2.3601026699	-0.277883
C	 2.0377101133	-0.9729276553	-2.7980169051	-0.043867
O	 1.325987066	-0.1187825672	-1.9797494771	-0.185284
H	 0.2541436981	 1.7765433441	-0.5546664244	 0.14624
H	-1.2710332062	 1.0789620123	-1.1301777711	 0.113553
H	-1.0373688221	 1.4233807295	 0.6022477396	 0.126622
H	-0.5891675432	-0.8983854753	 0.4183617859	 0.253207
H	 0.7820444094	-4.2892957692	-0.785143107	 0.099702
H	 1.1291973044	-3.3289417801	 0.6544864542	 0.119047
H	-1.284178964	-3.139076422	-0.759148616	 0.280293
H	 2.3442319855	-3.1248539644	-2.8054126815	 0.105335
H	 2.5526236805	-0.5032142007	-3.6173983832	 0.128412
70.4607	116.152	150.4983	155.9139	206.4004	251.4054	305.7487	381.8892	445.0166	495.355	601.7692	627.5474	651.2631	699.5224	731.2371	798.7583	819.6005	904.0595	962.8325	1015.6406	1055.8652	1063.1162	1095.749	1151.2909	1163.5648	1189.9492	1218.6982	1276.2305	1319.6023	1369.815	1409.7888	1451.3452	1461.2641	1489.2673	1503.2913	1506.8104	1516.7261	1575.0719	1666.871	2986.4501	2998.7549	3043.2111	3091.3668	3133.7644	3243.394	3297.9071	3570.0292	3796.2448
CNC1=C(CO)C=CO1	CNc1c(CO)cco1	
InChI=1S/C6H9NO2/c1-7-6-5(4-8)2-3-9-6/h2-3,7-8H,4H2,1H3	InChI=1S/C6H9NO2/c1-7-6-5(4-8)2-3-9-6/h2-3,7-8H,4H2,1H3
