19
gdb 39204	2.78767	1.90904	1.3938	1.7187	79.27	-0.2429	0.0172	0.2601	965.7182	0.162173	-385.893117	-385.886217	-385.885273	-385.924137	28.514	
C	-0.0986029184	 1.4239591927	 0.0848562609	-0.376069
C	 1.2946648866	 0.8372674908	 0.012043985	-0.086761
C	 2.0349005796	 0.5095032676	 1.2938474794	-0.096792
O	 1.1315759769	-0.2444389925	 2.1011386797	-0.278016
C	 0.1443546959	-0.8572110728	 1.2704576127	 0.045221
C	 0.4206807697	-2.253861739	 0.7504541815	-0.11019
C	 0.1901208881	-2.3413226463	-0.5604596569	-0.05936
C	-0.2309220882	-1.0161037596	-1.169553844	-0.372794
C	 0.0805159245	-0.0583351839	-0.031529795	 0.328758
H	-0.4505303975	 1.8195086462	 1.0339004991	 0.117011
H	-0.4436169558	 1.9719813465	-0.7861131983	 0.110889
H	 1.8780233393	 1.008217429	-0.8860536048	 0.087562
H	 2.9375179308	-0.0745398132	 1.0557294689	 0.093467
H	 2.3401823634	 1.3826654489	 1.8822029612	 0.103926
H	-0.780179022	-0.841847147	 1.8649727194	 0.082516
H	 0.7052900047	-3.0702642666	 1.4040615234	 0.098657
H	 0.2586591951	-3.2499642234	-1.1492578672	 0.095394
H	 0.3108616768	-0.7785867645	-2.0927888321	 0.105478
H	-1.2995789696	-1.0255897026	-1.4285990828	 0.111103
138.0195	204.0027	269.4802	359.735	374.2852	455.4448	532.4941	598.2035	696.3005	724.8806	772.3076	822.4943	836.0513	896.5716	917.7162	937.0943	940.861	968.1511	976.6401	1003.5812	1029.8995	1053.9365	1063.9973	1088.8496	1095.9911	1122.2573	1132.7917	1170.2396	1231.2479	1242.8418	1268.3266	1281.1731	1328.4491	1349.0151	1366.0315	1381.1603	1416.2072	1487.3519	1489.5326	1519.7331	1671.4223	2981.7855	3003.1119	3004.7407	3047.7157	3051.6046	3116.4408	3170.2923	3181.6211	3203.8404	3209.991
C1C2COC3C=CCC123	C1[C@H]2CO[C@@H]3C=CC[C@]123	
InChI=1S/C8H10O/c1-2-7-8(3-1)4-6(8)5-9-7/h1-2,6-7H,3-5H2	InChI=1S/C8H10O/c1-2-7-8(3-1)4-6(8)5-9-7/h1-2,6-7H,3-5H2/t6-,7+,8-/m0/s1
