21
gdb 84676	2.71582	1.67349	1.21425	0.1766	88.18	-0.234	0.0279	0.2619	1092.4214	0.185199	-349.984464	-349.976741	-349.975796	-350.016653	31.28	
C	-0.9535489963	 1.2313021809	-0.1001868853	-0.400759
C	-0.1029914328	-0.0454571185	-0.0675430265	-0.025719
C	 0.895176299	-0.1438381561	-1.1981622048	-0.062845
C	 2.0994335988	-0.5422250164	-0.7976532889	-0.081595
C	 2.1794616041	-0.7769860419	 0.690756113	-0.058692
C	 3.277984732	 0.059118926	 1.4105796101	-0.271423
C	 2.501868763	 1.1862908687	 2.0420361708	-0.069848
C	 1.1845779128	 1.0254144527	 1.9369362572	-0.054962
C	 0.7958981028	-0.2366907975	 1.2028969617	-0.082717
H	-0.3268134425	 2.1273604322	-0.0616497477	 0.122126
H	-1.5450512164	 1.2749129156	-1.020931222	 0.108388
H	-1.6523495318	 1.26829239	 0.7425632098	 0.109865
H	-0.7958864114	-0.8977689695	-0.1353180522	 0.075168
H	 0.6185329984	 0.0725623155	-2.2256166601	 0.085334
H	 2.9541816353	-0.7002313914	-1.4481583512	 0.087028
H	 2.3146410548	-1.8441244718	 0.9026111059	 0.072823
H	 3.8054946341	-0.5302553286	 2.1727919311	 0.100425
H	 4.0475465745	 0.41614516	 0.7143496152	 0.100069
H	 2.9885471818	 2.013717128	 2.5479535377	 0.08785
H	 0.4464527044	 1.7035604118	 2.3510313468	 0.089279
H	 0.3060966056	-0.9328430997	 1.8947757496	 0.070205
64.134	205.6225	222.6455	262.8633	301.7561	396.5981	457.9251	500.7341	614.5711	692.4446	726.0257	749.7816	786.9315	825.7852	842.7517	868.3665	882.5555	953.0985	966.4242	975.0552	981.3237	992.6781	1038.9188	1053.0981	1070.3888	1110.4872	1130.3354	1131.1388	1157.6379	1180.8405	1216.3915	1258.7121	1287.4573	1304.9557	1318.0285	1331.6897	1343.8748	1376.648	1385.071	1407.9882	1486.7898	1498.156	1503.3581	1688.4787	1691.0696	2979.2385	3009.0797	3019.4693	3030.1464	3033.8642	3043.0189	3093.9179	3108.0833	3165.7181	3175.3447	3191.8873	3201.4306
CC1C=CC2CC=CC12	C[C@H]1C=C[C@H]2CC=C[C@@H]12	
InChI=1S/C9H12/c1-7-5-6-8-3-2-4-9(7)8/h2,4-9H,3H2,1H3	InChI=1S/C9H12/c1-7-5-6-8-3-2-4-9(7)8/h2,4-9H,3H2,1H3/t7-,8+,9-/m0/s1
