19
gdb 41605	3.98862	1.34418	1.20239	1.2803	82.85	-0.2093	0.0169	0.2262	1086.716	0.160597	-385.860036	-385.852624	-385.85168	-385.891983	29.476	
C	-0.0268102826	 1.4662467976	-0.0114469635	-0.230142
C	 1.5182818225	 1.4918405204	-0.2468888417	-0.230139
C	 1.5707761679	-0.0254130378	-0.0286693282	-0.140839
C	 0.037204692	-0.0508105024	 0.2050447648	-0.140839
C	 0.650126507	-0.7138045306	-0.9947906856	 0.47148
O	 0.4428262459	-0.2002388199	-2.299102629	-0.322399
C	 0.3196663106	-1.2789603211	-3.2255138973	-0.132608
C	 0.4666451034	-2.5258177331	-2.3963131197	-0.118891
C	 0.6548550706	-2.1886938356	-1.1241765968	-0.162123
H	-0.315839763	 2.0079968534	 0.8914800457	 0.099519
H	-0.654645134	 1.7952364084	-0.843101305	 0.10991
H	 1.8590019663	 1.8368869136	-1.2261290336	 0.109906
H	 2.0453693485	 2.0471002917	 0.5316833453	 0.09952
H	 2.3615937821	-0.5625792487	 0.4843252577	 0.079571
H	-0.5471450893	-0.6107455752	 0.9276178074	 0.079572
H	-0.6551660272	-1.2222366128	-3.7352065719	 0.106295
H	 1.0962880274	-1.1931776848	-4.0019218998	 0.106291
H	 0.4205385084	-3.525402621	-2.8077907835	 0.106197
H	 0.7941963036	-2.8535318419	-0.2818977554	 0.109721
83.1537	178.6929	182.0579	232.9658	398.3038	423.3585	535.8311	542.9074	725.8779	744.918	772.5777	782.8676	824.2383	850.0098	887.4599	932.9782	949.4233	951.2751	979.0562	982.488	1008.5272	1018.6925	1045.2136	1056.6428	1099.3326	1100.0241	1118.9824	1192.04	1196.4506	1228.0515	1233.5351	1252.1325	1257.7261	1285.3501	1358.0499	1381.0007	1428.2589	1475.9347	1497.1565	1520.9043	1683.3361	2972.5111	2988.4859	3062.1747	3068.7127	3107.3241	3125.2153	3156.1672	3166.8983	3212.4429	3236.1379
C1CC2C1C21OCC=C1	C1C[C@H]2[C@@H]1[C@]12OCC=C1	
InChI=1S/C8H10O/c1-4-8(9-5-1)6-2-3-7(6)8/h1,4,6-7H,2-3,5H2	InChI=1S/C8H10O/c1-4-8(9-5-1)6-2-3-7(6)8/h1,4,6-7H,2-3,5H2/t6-,7+,8-
