18
gdb 14478	3.87253	2.19651	2.1694	1.3054	69.31	-0.2284	0.0858	0.3142	750.3562	0.156161	-347.813507	-347.807288	-347.806344	-347.843285	26.307	
C	-0.0776618004	 1.4595465712	 0.0221825657	-0.482065
C	 0.059474509	-0.0412669583	 0.0155577722	 0.36796
C	 0.751574995	-0.7272835119	-1.191963446	-0.248624
C	 0.445238855	-2.15440458	-0.7609602491	-0.112991
C	 0.4462283021	-2.1612015917	 0.7728502891	-0.113011
C	 0.7529439774	-0.7379357983	 1.2161638732	-0.248634
C	-0.8495471651	-2.0291952319	 0.0073581479	 0.094315
O	-1.2420097412	-0.6718906541	 0.0135293802	-0.289603
H	 0.9083850319	 1.9336815794	 0.0204889616	 0.11745
H	-0.6259222713	 1.8005792473	-0.8608408718	 0.12606
H	-0.6195723825	 1.7937069255	 0.9117280997	 0.125962
H	 0.2752130214	-0.4553544176	-2.1386979393	 0.100408
H	 1.8203815032	-0.5003364179	-1.2440300289	 0.096627
H	 0.6980290913	-3.0265356132	-1.3484581045	 0.085322
H	 0.69983222	-3.0384956145	 1.3522548666	 0.085324
H	 1.821796801	-0.5114256728	 1.2691448058	 0.096629
H	 0.2775481012	-0.474421956	 2.1657602136	 0.100415
H	-1.663692998	-2.7397491252	 0.0047405541	 0.098458
198.3435	287.1378	295.1616	432.0471	447.3567	558.6745	615.3774	677.2769	711.6613	795.2107	803.8235	807.425	861.6889	871.9334	957.3267	968.4675	975.6821	979.6718	1011.0611	1028.0007	1051.826	1058.5123	1086.5726	1126.3879	1136.8538	1186.8436	1210.3566	1211.9049	1258.9937	1294.5351	1308.1902	1352.2519	1383.6849	1420.4552	1476.2986	1483.849	1495.494	1496.9136	3042.1347	3050.011	3056.981	3101.1603	3105.6019	3115.6068	3116.122	3202.6497	3208.1698	3225.0801
CC12CC3C(C1)C3O2	C[C@@]12C[C@H]3[C@@H](C1)[C@H]3O2	
InChI=1S/C7H10O/c1-7-2-4-5(3-7)6(4)8-7/h4-6H,2-3H2,1H3	InChI=1S/C7H10O/c1-7-2-4-5(3-7)6(4)8-7/h4-6H,2-3H2,1H3/t4-,5+,6-,7+
