16
gdb 26012	4.30191	1.01318	0.87543	5.9892	71.39	-0.2192	0.0183	0.2375	1273.8212	0.126888	-434.145818	-434.137776	-434.136832	-434.179386	29.933	
N	 0.4098353759	 0.1702078589	-0.7991340525	-0.508123
C	-0.2776404057	 0.2335340646	 0.371932191	 0.379407
O	-0.0957617144	 1.0869576992	 1.219174849	-0.36638
C	-1.38254923	-0.8297896863	 0.5221935939	-0.410959
C	-0.9988229549	-2.2292223049	 0.1502029979	 0.287518
C	-1.044425335	-3.3601432162	 0.9231641188	-0.18096
N	-0.5965644595	-4.3831731573	 0.1139278073	-0.234932
C	-0.2979932283	-3.8415989745	-1.0958940948	 0.012349
N	-0.5311076873	-2.5493087378	-1.111631911	-0.313939
H	 1.1832673833	 0.8033457816	-0.9200447846	 0.250465
H	 0.3206977387	-0.645045294	-1.3921642735	 0.271483
H	-1.7130391107	-0.7862017497	 1.5607678131	 0.12832
H	-2.223435746	-0.5019788216	-0.1034528127	 0.136299
H	-1.345244347	-3.5279226708	 1.9435712647	 0.138191
H	-0.5078994081	-5.3512075203	 0.373092533	 0.272461
H	 0.078996719	-4.4295397908	-1.9190905096	 0.138799
51.8408	64.995	158.3674	296.4538	331.8337	395.1396	420.7907	523.6861	535.0947	589.9626	654.7626	681.1254	711.4602	738.7669	796.1256	818.3613	873.6309	947.7355	953.0928	985.9081	1094.8982	1122.9046	1143.3047	1189.9515	1247.3983	1290.6338	1306.0383	1355.6191	1362.9196	1458.7225	1463.2043	1529.8229	1600.1795	1627.3186	1801.6059	3027.39	3127.9799	3254.2247	3279.4916	3521.7624	3669.3802	3693.6255
NC(=O)CC1=CNC=N1	NC(=O)Cc1c[nH]cn1	
InChI=1S/C5H7N3O/c6-5(9)1-4-2-7-3-8-4/h2-3H,1H2,(H2,6,9)(H,7,8)	InChI=1S/C5H7N3O/c6-5(9)1-4-2-7-3-8-4/h2-3H,1H2,(H2,6,9)(H,7,8)
