17
gdb 48564	3.57145	1.55514	1.27155	2.7517	77.62	-0.2325	-0.0238	0.2086	988.636	0.136877	-384.672459	-384.66549	-384.664546	-384.703756	27.986	
O	-0.255491922	 0.4590134483	-0.7903987876	-0.278179
C	 0.1734297976	 1.0604919192	 0.1685290173	 0.051892
C	 1.3548321716	 1.9456602177	 0.1483579124	 0.224089
C	 1.798858681	 2.7213467046	 1.3387899964	-0.179835
C	 2.5503524738	 3.7564014365	 0.9509054775	-0.09023
C	 2.7766013984	 3.6709427149	-0.5415926136	-0.127854
C	 3.6928005953	 2.4004839111	-0.7935632713	-0.241017
C	 2.4238975241	 1.5787306428	-0.954303228	-0.078782
C	 1.5935921861	 2.8069494978	-1.0905710688	-0.074123
H	-0.3230550241	 0.978580093	 1.1619902053	 0.071197
H	 1.5606033762	 2.4352533628	 2.3561155784	 0.103312
H	 3.0692457007	 4.4534578906	 1.5971640055	 0.103181
H	 3.0570680424	 4.587449978	-1.0574179788	 0.078323
H	 4.2015459524	 2.4795321105	-1.7576470824	 0.114487
H	 4.4113410072	 2.1380427853	-0.0114739254	 0.099904
H	 2.3027703739	 0.6215103539	-1.4446598973	 0.116119
H	 0.8074790454	 3.0605882129	-1.7910448196	 0.107518
106.5063	199.639	215.3936	355.143	380.2705	476.1865	550.2855	653.699	676.8347	730.9682	752.4074	796.0084	841.068	860.3154	880.9444	907.2054	931.0778	936.9111	988.9513	1008.5993	1022.5877	1060.2192	1075.2933	1091.2904	1116.9915	1181.3141	1196.917	1225.269	1233.5276	1265.9549	1305.0476	1340.1285	1373.7949	1436.861	1484.802	1645.5342	1797.5063	2872.7873	3051.2822	3110.6796	3130.0057	3190.4963	3196.785	3207.1979	3221.3257
O=CC12C=CC3CC1C23	O=C[C@@]12C=C[C@H]3C[C@@H]1[C@@H]23	
InChI=1S/C8H8O/c9-4-8-2-1-5-3-6(8)7(5)8/h1-2,4-7H,3H2	InChI=1S/C8H8O/c9-4-8-2-1-5-3-6(8)7(5)8/h1-2,4-7H,3H2/t5-,6+,7-,8-/m0/s1
