21
gdb 110903	2.90767	1.38492	1.16255	1.8926	77.32	-0.2437	0.0767	0.3204	1149.1316	0.183789	-424.207424	-424.199153	-424.198209	-424.240058	32.905	
C	 0.1105245048	 1.5811044089	 0.1085788999	-0.38863
C	-0.0042127505	 0.0568928988	 0.0047496215	-0.189643
C	 0.6190377714	-0.51858587	-1.267199405	-0.020759
C	 0.5164236949	-2.0545130466	-1.3989738965	 0.061869
C	 1.0518539583	-2.3320928803	-2.8193106408	-0.248345
C	-0.2818093235	-1.6309925197	-3.1293889677	 0.039027
O	-0.8481308052	-2.2463366572	-1.9210407215	-0.319395
C	-0.1171212012	-0.1809256221	-2.6280576291	 0.143662
O	-1.3731664732	 0.4468781308	-2.4914982988	-0.43528
H	 1.1581376832	 1.9013936036	 0.0674546035	 0.105565
H	-0.4272744707	 2.0634846672	-0.7110201395	 0.140357
H	-0.3084758137	 1.9431516101	 1.0527703561	 0.107697
H	 0.4942502782	-0.4075243691	 0.8661133611	 0.089294
H	-1.0560823118	-0.2424387564	 0.0698560875	 0.095651
H	 1.6691622363	-0.2071793892	-1.3192698346	 0.070185
H	 0.7434203491	-2.6769212241	-0.5329191932	 0.080437
H	 1.9882973347	-1.8638760378	-3.1330660611	 0.098166
H	 1.0246763966	-3.3910047324	-3.0783456561	 0.114189
H	-0.8714047768	-1.7939860862	-4.0316274588	 0.084819
H	 0.4760156419	 0.4521567468	-3.2917258889	 0.084221
H	-1.9403857627	-0.196099405	-2.045836858	 0.286915
105.1412	134.5541	196.0129	227.0511	291.7525	330.4725	389.9114	455.3388	494.7835	545.1783	639.3289	713.0121	787.6373	820.2229	823.6259	856.4234	870.5886	889.6954	917.1452	964.2021	976.6587	1022.0199	1042.6036	1065.3825	1085.8902	1098.5009	1135.3118	1153.5341	1189.8898	1214.6695	1228.758	1254.8435	1270.1762	1286.0242	1289.1297	1317.7869	1320.7592	1355.1952	1390.6987	1406.8338	1440.5182	1488.7392	1491.8825	1498.2214	1516.0404	3019.0061	3031.7197	3033.1495	3063.1087	3068.1245	3090.6262	3095.926	3117.9106	3126.2931	3127.9065	3143.0449	3765.1871
CCC1C2CC(O2)C1O	CC[C@H]1[C@@H]2C[C@@H](O2)[C@H]1O	
InChI=1S/C7H12O2/c1-2-4-5-3-6(9-5)7(4)8/h4-8H,2-3H2,1H3	InChI=1S/C7H12O2/c1-2-4-5-3-6(9-5)7(4)8/h4-8H,2-3H2,1H3/t4-,5-,6+,7-/m0/s1
