20
gdb 78277	2.3641	1.64118	1.24043	1.0753	80.37	-0.2144	0.059	0.2734	1101.3277	0.169161	-403.042937	-403.033897	-403.032953	-403.076201	34.916	
C	-0.1275900473	 1.6459212241	 0.0111086456	-0.460859
C	 0.0615215612	 0.1506412043	 0.1007258934	-0.00192
N	 1.2259938695	-0.7026793531	-0.2764421785	-0.215856
C	 2.5493415729	-0.3538573223	 0.3600093231	-0.079491
C	 2.7732692693	 0.7171671682	 1.3937974905	 0.094376
O	 2.3765238015	 2.0555110131	 1.4755928572	-0.40968
C	 1.9840777612	-0.4689196247	 1.7976504173	-0.184938
C	 0.6247208625	-0.7717038397	 1.1155585055	 0.289553
C	-0.0929160265	-2.006712517	 1.5876271566	-0.467511
H	-0.0438241817	 1.9590283097	-1.0364060851	 0.115043
H	-1.1472363534	 1.8816286471	 0.3372470311	 0.114094
H	 0.571014091	 2.2140923403	 0.6145301546	 0.16104
H	-0.789205878	-0.3449396627	-0.3726765445	 0.09777
H	 3.3968260837	-0.858531868	-0.0914057383	 0.100558
H	 3.7967789298	 0.5863236898	 1.7601266519	 0.100302
H	 2.8850900896	 2.5498372657	 0.8223534207	 0.286648
H	 2.3078996283	-1.1117736832	 2.6081599103	 0.092619
H	-0.5768705818	-1.8239157961	 2.5550452502	 0.120522
H	-0.859836956	-2.3132328276	 0.8717397714	 0.125719
H	 0.6068078839	-2.840517298	 1.7148595668	 0.12201
88.6346	147.1859	183.7805	200.4537	234.0747	296.6398	319.1562	333.8888	405.4993	523.6463	552.106	591.5541	618.2132	655.2854	697.9878	734.9277	833.9725	876.36	891.7368	975.6564	995.2454	1003.6079	1046.1986	1060.998	1080.2523	1084.4384	1119.7486	1152.3677	1165.98	1223.5862	1263.2767	1292.4307	1307.3583	1363.7165	1377.0263	1408.1257	1410.2283	1466.2165	1469.4342	1480.8748	1492.241	1506.2144	1517.5345	3023.1827	3030.7499	3050.0557	3076.6228	3082.0536	3082.9228	3116.7706	3162.1821	3175.3341	3211.5703	3793.6586
CC1N2C3C(O)C3C12C	C[C@H]1N2[C@H]3[C@@H](O)[C@H]3[C@@]12C	
InChI=1S/C7H11NO/c1-3-7(2)4-5(6(4)9)8(3)7/h3-6,9H,1-2H3	InChI=1S/C7H11NO/c1-3-7(2)4-5(6(4)9)8(3)7/h3-6,9H,1-2H3/t3-,4+,5-,6+,7-,8?/m1/s1
