18
gdb 15658	3.61725	1.74793	1.34242	1.7642	69.34	-0.2495	0.0136	0.2631	951.072	0.15382	-384.936246	-384.928224	-384.92728	-384.968836	29.846	
C	-0.6026239386	 0.9553587416	-0.0090303662	-0.24792
O	 0.5502475086	 0.1400970298	 0.1265303713	-0.260348
C	 0.9516460522	-0.4908574119	-1.0835105442	 0.051573
C	 2.3594299972	-1.0085372233	-0.9562326748	-0.096019
C	 2.4707855339	-2.2593252558	-1.3967390948	-0.063035
C	 1.1574898911	-2.8140180414	-1.8895934625	-0.272657
C	 0.1117836702	-1.782958327	-1.392067622	 0.110123
O	-0.5279057339	-2.2408108305	-0.2163367616	-0.447397
H	-0.4489343483	 1.7332870527	-0.7706892507	 0.11309
H	-1.4894019726	 0.3657239209	-0.2756992812	 0.127304
H	-0.7709026176	 1.4340373918	 0.9584843987	 0.130845
H	 0.8652680931	 0.2369101438	-1.9068394476	 0.074862
H	 3.15750951	-0.3858036751	-0.5702315746	 0.100866
H	 3.3957240294	-2.8249287964	-1.4325763481	 0.0978
H	 1.1519532007	-2.8961901667	-2.9851238607	 0.102661
H	 0.924860745	-3.8071869913	-1.4919760416	 0.119823
H	-0.6579716436	-1.5971413518	-2.1503366277	 0.067505
H	-0.2258216767	-1.6590225995	 0.4951526786	 0.290926
66.4734	108.2852	186.5131	224.9455	309.6662	363.5228	383.0295	446.1768	475.5046	556.0537	719.9591	764.991	811.5347	845.9556	882.5488	957.0838	980.8772	1001.8909	1023.439	1050.1949	1102.4321	1118.7674	1142.4828	1179.0708	1199.0238	1217.0774	1223.2096	1306.2082	1314.7656	1347.8561	1357.6053	1395.7782	1430.9755	1472.0335	1477.1377	1488.2443	1508.3837	1689.2711	2964.0866	2995.0415	3013.697	3034.1971	3055.9366	3076.3038	3120.2913	3185.6912	3215.1535	3729.6063
COC1C=CCC1O	CO[C@H]1C=CC[C@H]1O	
InChI=1S/C6H10O2/c1-8-6-4-2-3-5(6)7/h2,4-7H,3H2,1H3	InChI=1S/C6H10O2/c1-8-6-4-2-3-5(6)7/h2,4-7H,3H2,1H3/t5-,6+/m1/s1
