20
gdb 6085	4.10342	0.82515	0.77769	1.8152	80.99	-0.2478	0.0416	0.2894	1575.3181	0.174083	-348.986018	-348.975594	-348.974649	-349.023614	36.554	
C	-0.3976319861	 1.3238526139	 0.1305636746	-0.373291
C	 0.175860812	-0.0897289039	-0.0924098209	-0.123139
C	 1.0764500319	-0.1381445887	-1.343078816	-0.373909
C	 0.8989677428	-0.557129517	 1.0912674677	 0.06683
C	 1.5067779892	-0.9130737481	 2.0699453188	 0.03542
C	 2.2644631034	-1.3936669085	 3.2304137846	-0.013501
C	 1.7140758689	-2.7289990926	 3.7522848122	-0.381567
O	 3.6620270584	-1.4802464768	 2.9516156504	-0.41549
H	 0.4092979414	 2.0447457422	 0.2937955546	 0.125934
H	-0.9721106544	 1.6422482927	-0.7452887484	 0.111758
H	-1.0553164708	 1.348619777	 1.0033210688	 0.123425
H	-0.6693294161	-0.7714905802	-0.2628603715	 0.103591
H	 1.9332199087	 0.5325768018	-1.2263918466	 0.126439
H	 1.4574390019	-1.1481772026	-1.5158703804	 0.12018
H	 0.5126420725	 0.1747768548	-2.2276478326	 0.112936
H	 2.1955368732	-0.6499449283	 4.0339498816	 0.11441
H	 2.3073093785	-3.0576288012	 4.6097475328	 0.122881
H	 0.6683730214	-2.6271605464	 4.0571564769	 0.122471
H	 1.7674345949	-3.4952081705	 2.9720275601	 0.114316
H	 3.7583939984	-1.9861795075	 2.1372089832	 0.280305
5.3785	82.8549	95.2077	192.7445	200.3591	228.3212	252.7986	268.1604	283.667	338.4588	388.1549	474.3283	519.5908	542.6598	590.2387	689.7611	845.4953	902.7608	931.3894	964.4592	995.4862	1045.0985	1090.55	1110.3025	1119.4125	1160.6231	1208.7473	1279.7966	1325.9119	1339.6723	1350.4197	1395.0662	1397.8523	1416.4905	1417.8534	1485.4227	1487.5357	1489.0759	1491.2529	1498.3001	1510.2313	2353.8448	3002.6502	3032.708	3035.7855	3038.0911	3039.1703	3107.4489	3112.3109	3112.7098	3117.459	3120.038	3124.7635	3804.6808
CC(C)C#CC(C)O	CC(C)C#C[C@@H](C)O	
InChI=1S/C7H12O/c1-6(2)4-5-7(3)8/h6-8H,1-3H3	InChI=1S/C7H12O/c1-6(2)4-5-7(3)8/h6-8H,1-3H3/t7-/m1/s1
