19
gdb 103693	2.23779	1.34848	0.99238	4.6532	76.43	-0.2499	0.0257	0.2756	1232.3397	0.157388	-419.195039	-419.184696	-419.183752	-419.23013	37.446	
C	-0.0234083581	 1.5532406751	 0.1015004985	-0.460269
C	-0.0586947895	 0.0392585307	 0.043856731	 0.266479
C	-1.3810398085	-0.5221016841	-0.458415893	-0.142638
O	-1.6792499139	-0.083212953	-1.7765494864	-0.412759
C	 1.1992977448	-0.7119439597	-0.3166724356	-0.365354
C	 0.7226833553	-0.7398265365	 1.1240228462	 0.096896
N	 1.5166796113	-0.0988294144	 2.142648134	-0.562686
C	 0.1394722056	-1.9816626003	 1.5957701992	 0.300374
N	-0.3460726565	-2.9593481217	 1.9788847971	-0.357095
H	 0.9646246373	 1.941154512	 0.3588993529	 0.103875
H	-0.3090536501	 1.9567674227	-0.8735617366	 0.145142
H	-0.7394638501	 1.9334183331	 0.8394635224	 0.123351
H	-1.3873917511	-1.6175239271	-0.3890164688	 0.115163
H	-2.2019110485	-0.1515334081	 0.1652167047	 0.120325
H	-1.0321799918	-0.4772289163	-2.3710980669	 0.284919
H	 1.1210377413	-1.6329027078	-0.8848509131	 0.134352
H	 2.1067324665	-0.1474524403	-0.5089070454	 0.123534
H	 2.2534635222	 0.4676378098	 1.7444300604	 0.241754
H	 0.9515149239	 0.486483596	 2.7482763393	 0.244636
91.9373	104.5157	133.5731	134.2347	158.671	219.0303	270.76	304.3794	316.6819	367.2919	387.8203	419.4123	479.1906	583.0646	635.13	699.391	724.0325	774.7534	867.4041	922.6153	955.7042	959.4897	985.3768	1054.7558	1079.7476	1089.6508	1103.4304	1192.3246	1230.6336	1294.388	1323.3126	1360.5643	1398.8411	1411.8644	1422.876	1477.5555	1483.3578	1504.9166	1505.3802	1651.8741	2348.0829	3022.8544	3036.5902	3077.7664	3103.6887	3124.6398	3127.9501	3212.4907	3520.7278	3620.112	3810.7126
CC1(CO)CC1(N)C#N	C[C@@]1(CO)C[C@]1(N)C#N	
InChI=1S/C6H10N2O/c1-5(4-9)2-6(5,8)3-7/h9H,2,4,8H2,1H3	InChI=1S/C6H10N2O/c1-5(4-9)2-6(5,8)3-7/h9H,2,4,8H2,1H3/t5-,6-/m0/s1
