17
gdb 53355	2.96827	0.9489	0.87394	2.2783	76.67	-0.2427	-0.0248	0.2179	1404.1617	0.134258	-421.821403	-421.812263	-421.811318	-421.857134	31.99	
C	 0.0002343718	 1.5224585105	-0.1566270125	-0.497695
C	 0.0408407362	 0.0703439422	-0.0686830202	 0.013887
C	 0.0768837343	-1.1319244768	-0.0062871036	 0.140939
C	 0.1064391315	-2.5935074603	 0.0856667569	-0.104531
C	 0.6536246936	-3.0891938286	 1.4384929307	-0.337899
C	-0.6157662659	-3.1981713591	 2.2866732349	 0.377147
O	-0.6905314814	-3.3100052797	 3.479901552	-0.295868
C	-1.7874324305	-3.1284012194	 1.3021576261	-0.18223
O	-1.2152330968	-3.1657017284	 0.0086917421	-0.244448
H	 0.8520543348	 1.9061020342	-0.7285669194	 0.153732
H	-0.9138904572	 1.8612649894	-0.6560271694	 0.155361
H	 0.0296537642	 1.9842939314	 0.8360984614	 0.15283
H	 0.6571221613	-3.0096813823	-0.7622665419	 0.116681
H	 1.0823615763	-4.091988186	 1.3313372907	 0.139232
H	 1.3939425613	-2.4381985654	 1.9029946654	 0.144333
H	-2.4665869428	-3.9771367308	 1.4220068642	 0.139304
H	-2.3518738508	-2.200358041	 1.4832222323	 0.129222
31.7104	51.2987	95.2187	139.6468	197.3628	302.2162	338.165	436.5799	449.1828	471.6436	539.3564	624.1474	690.4997	749.2215	808.6325	861.8057	913.4205	980.2885	1025.3417	1051.5623	1054.1181	1073.4424	1127.4522	1163.2637	1191.2434	1222.1853	1247.7719	1302.4087	1336.9836	1365.1537	1413.7366	1443.6005	1473.6375	1476.1715	1477.5749	1863.4655	2366.5047	2992.6755	3030.3544	3055.6624	3074.5458	3093.0354	3093.369	3093.3975	3143.2305
CC#CC1CC(=O)CO1	CC#C[C@H]1CC(=O)CO1	
InChI=1S/C7H8O2/c1-2-3-7-4-6(8)5-9-7/h7H,4-5H2,1H3	InChI=1S/C7H8O2/c1-2-3-7-4-6(8)5-9-7/h7H,4-5H2,1H3/t7-/m0/s1
