24
gdb 117164	3.35827	0.73202	0.70397	3.2603	87.94	-0.2374	0.0388	0.2762	1807.0726	0.21553	-405.59996	-405.588294	-405.58735	-405.639118	40.88	
C	-0.0196196454	 1.3632937586	 0.0030656034	-0.371766
C	 0.3328997435	-0.1064307309	-0.2370856568	-0.143919
N	 1.0265076135	-0.7150676398	 0.8869592515	-0.322387
C	 0.4437161994	-1.6375123465	 1.7087364518	 0.419084
O	-0.6938240228	-2.0471295189	 1.5420909084	-0.395326
C	 1.3271028452	-2.1568995326	 2.8463814168	-0.086204
C	 0.5835882401	-1.9800822867	 4.1784247913	-0.387001
C	 1.682330221	-3.6303952711	 2.5444164681	-0.153347
C	 2.6543895274	-4.2671325542	 3.5413462237	-0.396118
H	 0.8777386356	 1.9656970524	 0.1836874654	 0.108808
H	-0.5315409428	 1.7810040474	-0.8697611446	 0.119398
H	-0.6784185478	 1.4653777117	 0.8701600741	 0.132846
H	-0.5722110812	-0.6990691178	-0.3852494408	 0.150621
H	 0.9505697443	-0.2050138356	-1.138443938	 0.102868
H	 1.952756246	-0.3903197157	 1.1114826958	 0.239729
H	 2.2610264617	-1.5780832194	 2.8788904661	 0.05569
H	 1.1702516299	-2.3631578332	 5.0171902872	 0.11149
H	 0.373356732	-0.9235603744	 4.3736180875	 0.112034
H	-0.3719033475	-2.5098134855	 4.141409536	 0.141953
H	 0.7490404914	-4.2026318907	 2.501934678	 0.121102
H	 2.1184554041	-3.6823679267	 1.5386696744	 0.094116
H	 2.9117123419	-5.2847078702	 3.231057539	 0.115217
H	 3.5878130192	-3.6962950064	 3.6098125209	 0.109339
H	 2.2290661413	-4.3306962535	 4.5471679507	 0.121774
16.8901	30.6507	77.1998	86.3567	183.9483	195.4584	216.4391	233.6749	278.0168	294.3042	329.3789	347.5471	422.9354	476.2638	499.1747	685.4622	756.368	777.4319	791.1094	843.0836	897.8056	919.6397	970.5289	991.5396	1039.9499	1070.2441	1096.284	1115.5642	1133.9172	1172.3668	1192.9596	1218.2401	1285.6751	1318.1881	1337.5551	1357.8735	1381.5552	1396.8233	1402.1233	1410.4535	1413.4494	1482.5167	1486.0298	1492.1356	1492.8213	1499.9405	1502.0046	1506.4751	1511.1683	1540.6088	1767.792	2999.8296	3025.5743	3028.3312	3031.8648	3033.3498	3043.9251	3071.3513	3095.5623	3098.265	3106.2119	3112.6095	3116.2181	3126.9231	3130.4928	3640.4944
CCNC(=O)C(C)CC	CCNC(=O)[C@@H](C)CC	
InChI=1S/C7H15NO/c1-4-6(3)7(9)8-5-2/h6H,4-5H2,1-3H3,(H,8,9)	InChI=1S/C7H15NO/c1-4-6(3)7(9)8-5-2/h6H,4-5H2,1-3H3,(H,8,9)/t6-/m0/s1
