19
gdb 76436	3.16698	0.92213	0.87819	4.0312	72.37	-0.2409	-0.0225	0.2184	1375.8611	0.155416	-460.143478	-460.133251	-460.132307	-460.179109	36.586	
C	-0.0886187434	 1.5852589506	 0.2112942109	-0.448417
C	 0.0136161995	 0.0830973393	 0.0319751945	 0.213753
C	-1.2176989647	-0.5778088722	-0.572509246	-0.346139
C	-1.4969484957	-0.10014365	-1.9850894827	 0.16822
O	-2.580205592	 0.2218806632	-2.3994018882	-0.24326
C	 1.3683438898	-0.541463828	-0.3080595562	 0.063659
O	 2.5103549315	 0.2488859584	-0.3927197926	-0.432871
C	 0.7609891119	-0.7369534524	 1.0626783	-0.017632
O	 1.3806734953	-0.0164019495	 2.1005534225	-0.430547
H	 0.8522766174	 2.0179695904	 0.5505487567	 0.127325
H	-0.3539292111	 2.0686229978	-0.7351038281	 0.127048
H	-0.8625243954	 1.837230014	 0.943972494	 0.124725
H	-1.0618069094	-1.6652878887	-0.6346337581	 0.115397
H	-2.1129708208	-0.4105194618	 0.036087226	 0.122537
H	-0.5987066737	-0.0746886867	-2.644354177	 0.082699
H	 1.3961376115	-1.3723142339	-1.0082271214	 0.097164
H	 2.6971306109	 0.5485531606	 0.5082712697	 0.285792
H	 0.3481383824	-1.6992337842	 1.3598487062	 0.091394
H	 2.0001731061	-0.609116067	 2.5405058798	 0.299154
61.5239	74.0401	109.0652	149.8942	206.6894	220.9246	267.6366	281.6176	317.9454	335.2178	434.6229	496.6154	523.0773	583.2396	659.4982	710.8708	777.5343	854.5003	872.228	978.8823	1006.4636	1034.1322	1037.4818	1084.0694	1107.4181	1154.5515	1173.8193	1206.1315	1223.9231	1266.5916	1299.7857	1329.7269	1344.6297	1410.121	1422.2416	1426.4897	1454.1262	1468.765	1488.5865	1501.3851	1834.6868	2868.6729	3004.5295	3039.9936	3078.0562	3095.8861	3113.5961	3141.613	3149.6666	3733.4296	3803.3825
CC1(CC=O)C(O)C1O	C[C@@]1(CC=O)[C@@H](O)[C@H]1O	
InChI=1S/C6H10O3/c1-6(2-3-7)4(8)5(6)9/h3-5,8-9H,2H2,1H3	InChI=1S/C6H10O3/c1-6(2-3-7)4(8)5(6)9/h3-5,8-9H,2H2,1H3/t4-,5+,6+
