18
gdb 119027	1.7893	1.40447	0.90634	4.3569	72.59	-0.273	0.0294	0.3024	1319.7471	0.145317	-439.063628	-439.053906	-439.052962	-439.099515	33.701	
C	 0.1646362136	 0.2878892202	-3.5707011439	-0.228403
O	 0.271536966	-0.9378870701	-2.8790829895	-0.245405
C	 0.9992297123	-0.8305086035	-1.675995499	-0.135043
C	 0.9242638885	-2.1683365214	-0.97178541	 0.396101
C	-0.482051015	-2.6771210241	-0.6693946652	-0.405315
C	-1.2445836945	-1.7528359252	 0.1704479258	 0.270111
N	-1.8410973117	-1.0103248362	 0.8243617126	-0.31137
C	 2.0125618738	-3.1418511562	-1.1193517988	-0.228748
O	 1.88309394	-2.3452164514	 0.0650525068	-0.270051
H	-0.3440482907	 1.0516268367	-2.9637622774	 0.119347
H	 1.1526993077	 0.6765291013	-3.8607455338	 0.110026
H	-0.421419591	 0.1009983357	-4.4731321431	 0.132784
H	 2.0538006435	-0.5727477749	-1.8585546885	 0.101065
H	 0.5718216316	-0.0488945242	-1.0267904526	 0.120538
H	-1.0183956928	-2.8121090543	-1.6141692113	 0.173119
H	-0.4221590992	-3.6464750754	-0.1662816946	 0.155297
H	 1.8109925223	-4.2039876292	-0.989621867	 0.120577
H	 2.8625227855	-2.9021118578	-1.7553186106	 0.125369
33.9567	85.6117	95.0922	144.0542	172.0587	225.9186	311.3208	353.9142	369.9228	384.9439	421.7677	457.905	578.2532	776.8324	860.4028	899.1204	932.6031	962.0147	970.7301	1006.7974	1075.8878	1128.8493	1156.906	1163.6811	1183.7376	1215.7578	1233.5339	1234.2259	1293.0489	1317.2409	1400.5342	1441.694	1445.098	1483.2828	1486.404	1503.0712	1521.8273	1534.8615	2364.113	2971.498	2983.9161	3010.8776	3032.0825	3060.9796	3089.6863	3109.6021	3122.3531	3178.9972
COCC1(CC#N)CO1	COC[C@@]1(CC#N)CO1	
InChI=1S/C6H9NO2/c1-8-4-6(2-3-7)5-9-6/h2,4-5H2,1H3	InChI=1S/C6H9NO2/c1-8-4-6(2-3-7)5-9-6/h2,4-5H2,1H3/t6-/m0/s1
