15
gdb 16205	3.14293	2.3496	1.5321	3.24	62.35	-0.2593	0.0039	0.2631	817.9512	0.119987	-399.793754	-399.786954	-399.78601	-399.824903	25.55	
N	-0.1112864869	 1.2858667921	 0.2524973123	-0.542357
C	-0.0395277737	 0.026998948	 0.250742852	 0.374184
O	 1.1078679347	-0.7080428051	 0.3099119686	-0.245854
C	 0.8187270041	-2.1159680729	 0.177064071	-0.09228
C	-0.6588191562	-2.2739724971	 0.5663852427	-0.326808
C	-1.2134383183	-0.9129659542	 0.196181752	 0.342239
C	-2.5938534249	-0.4531181239	 0.3319190967	-0.241567
O	-2.0641032425	-0.7999118509	-0.9508336026	-0.263824
H	 0.8190624146	 1.7065506324	 0.262102653	 0.226916
H	 1.0003549746	-2.4141722345	-0.8617469122	 0.126305
H	 1.5103293995	-2.6558573908	 0.826333192	 0.125214
H	-1.1626100725	-3.0816384953	 0.0337460298	 0.131915
H	-0.7543616024	-2.4448186191	 1.6435142751	 0.125168
H	-3.3441782109	-1.1364129802	 0.728354844	 0.114714
H	-2.7724428792	 0.6083579614	 0.4876338155	 0.146033
88.8911	175.3727	267.7843	271.7765	359.4079	460.7154	559.0676	672.4452	698.3677	707.7516	805.3135	876.2096	893.7847	912.3767	948.6492	978.6944	1007.8941	1073.6243	1099.5851	1132.1165	1167.0927	1195.6181	1215.0942	1238.7074	1307.2683	1308.3717	1392.9073	1445.2065	1475.5781	1519.7167	1525.4938	1782.5414	3043.7699	3058.5942	3087.2363	3114.4185	3132.986	3187.8526	3479.7943
N=C1OCCC11CO1	[NH][C]1OCC[C@]21CO2	
InChI=1S/C5H7NO2/c6-4-5(3-8-5)1-2-7-4/h6H,1-3H2	InChI=1S/C5H7NO2/c6-4-5(3-8-5)1-2-7-4/h6H,1-3H2/t5-/m1/s1
