18
gdb 19014	4.74159	1.90646	1.72474	1.3777	71.08	-0.2344	0.1	0.3344	823.4285	0.155661	-347.765916	-347.759562	-347.758617	-347.796082	26.002	
C	-0.0931816258	 1.533977031	-0.066587384	-0.400978
C	 0.0291342851	 0.0204871926	 0.0319361602	 0.115976
O	 0.8696606307	-0.4952365403	-1.0270897304	-0.297594
C	 1.8694329625	-1.1919340139	-0.3145941403	 0.151111
C	 1.252875378	-1.9636715885	 0.890935663	-0.08986
C	 2.5547686721	-1.7239811378	 1.6862220392	-0.256466
C	 2.3116288587	-0.3904086077	 0.9450429225	-0.084807
C	 0.7769649816	-0.5151664289	 1.2513809128	-0.050129
H	 0.882303822	 2.0146868932	 0.0537327536	 0.118607
H	-0.4966490352	 1.8202950796	-1.0420153416	 0.126329
H	-0.7673588171	 1.9162662074	 0.7075090868	 0.111116
H	-0.9649678123	-0.4398696473	-0.0596754371	 0.074738
H	 2.5887161203	-1.6513272759	-0.9920608926	 0.083046
H	 0.6346782841	-2.8616060591	 0.8528437312	 0.070824
H	 2.4598667957	-1.6981137754	 2.774553883	 0.09559
H	 3.4326104354	-2.3037476211	 1.3854510053	 0.091854
H	 2.9155750531	 0.5171647043	 0.9723648814	 0.071681
H	 0.3950430412	-0.2946185823	 2.248921947	 0.068964
160.551	212.87	266.2704	411.4218	460.6897	482.4203	669.276	715.7438	780.4259	808.0479	846.5524	891.0851	893.2566	909.817	923.6213	978.3774	986.695	1024.5072	1040.121	1072.0474	1086.9748	1104.9125	1119.1982	1123.2349	1135.1476	1173.3231	1183.5277	1232.1576	1242.8755	1261.9018	1279.1737	1310.3476	1364.8845	1388.6097	1405.773	1486.6458	1494.3909	1520.5302	3001.6784	3036.3915	3049.2832	3102.778	3103.2642	3107.9482	3109.4682	3117.0505	3117.6287	3134.2626
CC1OC2C3CC2C13	C[C@H]1O[C@@H]2[C@H]3C[C@@H]2[C@@H]13	
InChI=1S/C7H10O/c1-3-6-4-2-5(6)7(4)8-3/h3-7H,2H2,1H3	InChI=1S/C7H10O/c1-3-6-4-2-5(6)7(4)8-3/h3-7H,2H2,1H3/t3-,4-,5+,6-,7+/m1/s1
