18
gdb 124647	4.33652	0.97672	0.87923	2.6595	75.06	-0.2208	0.0002	0.221	1350.7575	0.147732	-435.266968	-435.25821	-435.257265	-435.301042	32.15	
C	-0.0491504099	 1.4987653362	-0.1135343516	-0.39766
C	 0.0265656543	-0.0201933273	 0.009272481	 0.148259
C	 0.674635818	-0.4848747791	 1.3054941122	-0.394734
O	-1.3057063093	-0.5920098872	 0.0148886199	-0.296604
C	-1.925276331	-0.7258037117	-1.1645695479	 0.407669
C	-3.1911154857	-1.2380831726	-1.3650363214	-0.203243
N	-3.3322163751	-1.1721007724	-2.7140372027	-0.142303
N	-2.2529183559	-0.6614939656	-3.3119926225	-0.128825
N	-1.3882752106	-0.3862617678	-2.3652223967	-0.274626
H	 0.9581545823	 1.9268179328	-0.0919164543	 0.115521
H	-0.5212032315	 1.786437931	-1.0550564703	 0.14423
H	-0.6217463438	 1.9214777224	 0.718393416	 0.116512
H	 0.5646078131	-0.4297530188	-0.8518673117	 0.110471
H	 0.1169972354	-0.111067033	 2.1701304616	 0.1231
H	 0.6990124646	-1.5765297595	 1.3571670451	 0.122841
H	 1.700465867	-0.1105158295	 1.3689905382	 0.118265
H	-3.9454902801	-1.6194689133	-0.7009096943	 0.146882
H	-4.1192771918	-1.4508500546	-3.2775488906	 0.284245
53.7485	75.5142	160.2041	216.543	251.3189	315.0939	323.0361	387.1477	450.6186	495.8219	568.3782	685.262	715.6212	732.5421	753.3936	849.6335	934.5314	947.9873	951.7117	984.8087	1050.2329	1072.5842	1139.0944	1142.1384	1159.0746	1201.075	1276.8792	1340.9021	1346.1515	1367.2891	1384.9585	1401.9393	1417.938	1480.6634	1486.4024	1495.9326	1507.6462	1512.4401	1618.0824	3040.0748	3044.2858	3060.0257	3108.6261	3119.0688	3123.419	3136.8588	3300.1453	3659.7977
CC(C)OC1=CNN=N1	CC(C)Oc1c[nH]nn1	
InChI=1S/C5H9N3O/c1-4(2)9-5-3-6-8-7-5/h3-4H,1-2H3,(H,6,7,8)	InChI=1S/C5H9N3O/c1-4(2)9-5-3-6-8-7-5/h3-4H,1-2H3,(H,6,7,8)
