21
gdb 69523	2.36246	1.63667	1.28252	3.0876	83.53	-0.1899	0.0744	0.2643	1113.8807	0.180579	-383.179506	-383.170219	-383.169275	-383.212641	36.183	
C	-0.0849457608	 1.5677894344	 0.1065657871	-0.511146
C	 0.0788027993	 0.0813334276	 0.0415492126	 0.308342
N	-0.8414402254	-0.8594454319	 0.7240811051	-0.35025
C	 0.6164558002	-0.895112061	 1.0159790591	-0.182726
C	 1.3575858099	-1.658543583	-0.1316484768	 0.292667
C	 2.6934448047	-2.3160971214	 0.0128478422	-0.513312
N	 0.3317593857	-2.1048846942	-1.1103109808	-0.391201
C	 0.8122865478	-0.696641236	-1.1228488525	 0.238638
C	 1.4041634309	-0.0612116108	-2.3425513947	-0.514921
H	 0.8308236769	 2.0870855756	-0.1967593584	 0.122339
H	-0.8941191956	 1.911769703	-0.5489651108	 0.129218
H	-0.3230646654	 1.8867953844	 1.1273219561	 0.117069
H	-1.2667853719	-0.3310299078	 1.488506766	 0.218367
H	 1.0011032911	-0.7414573867	 2.0173279337	 0.086018
H	 2.6071285226	-3.2812936234	 0.5265763875	 0.13106
H	 3.1542887149	-2.4982724781	-0.964219459	 0.116032
H	 3.3808791585	-1.6911726278	 0.5947015555	 0.121359
H	 0.8452268907	-2.5794206237	-1.8561404413	 0.213401
H	 0.630992826	 0.1821223015	-3.08144545	 0.130547
H	 1.9334252845	 0.8663196851	-2.0982335343	 0.121839
H	 2.1224595954	-0.7341196359	-2.8237608165	 0.116659
139.0178	170.2958	187.6053	194.5069	206.6812	246.102	294.8497	335.4113	378.2354	457.0162	500.9625	553.4913	565.6331	611.0237	734.7454	784.4084	808.8191	832.9562	859.1904	910.1742	931.659	990.6936	1024.3055	1043.595	1055.7018	1081.915	1100.3221	1105.2975	1110.707	1160.0552	1246.9693	1261.8984	1325.6627	1347.529	1403.753	1410.6888	1414.3924	1434.0254	1463.0351	1477.167	1482.8693	1490.8721	1493.5036	1500.9988	1507.7702	3017.3945	3018.7914	3022.4992	3077.5281	3078.108	3081.9574	3088.9346	3090.98	3094.2693	3181.0382	3434.2499	3442.9424
CC12NC1C1(C)NC21C	C[C@]12N[C@H]1[C@@]1(C)N[C@@]21C	
InChI=1S/C7H12N2/c1-5-4(8-5)6(2)7(5,3)9-6/h4,8-9H,1-3H3	InChI=1S/C7H12N2/c1-5-4(8-5)6(2)7(5,3)9-6/h4,8-9H,1-3H3/t4-,5+,6-,7+/m1/s1
