17
gdb 16455	3.28373	2.93264	1.9069	1.6045	71.91	-0.212	-0.0045	0.2075	742.4288	0.14349	-326.645912	-326.639657	-326.638713	-326.67572	26.102	
C	-0.0113891877	 1.5161970136	 0.0022985622	-0.515902
C	 0.0867330675	 0.0104078002	 0.0232768232	 0.342788
C	 0.4720904255	-0.6984288467	-1.2674492311	-0.144015
C	 0.3549707731	-1.9906634387	-0.968756846	-0.097938
C	-0.0877960704	-1.9565751761	 0.4756161063	-0.032343
C	 0.6817303965	-0.8228070238	 1.2171524665	-0.099356
C	-0.6230835472	-0.5622080271	 1.9738070675	-0.196835
N	-1.1496457386	-0.8149648504	 0.5577945587	-0.176572
H	 0.9477142599	 1.9516976301	-0.298294305	 0.122581
H	-0.7671838706	 1.8343417895	-0.7232514171	 0.133547
H	-0.2795759298	 1.9396840269	 0.9728974631	 0.123109
H	 0.7397796401	-0.2147024053	-2.1966780709	 0.106324
H	 0.5003333953	-2.8688832402	-1.5808969868	 0.111683
H	-0.3594658609	-2.87568178	 0.9959153312	 0.071739
H	 1.7184938947	-0.8337432093	 1.5805621758	 0.057602
H	-0.9511457912	-1.3175624635	 2.6935825249	 0.096059
H	-0.8257809362	 0.4394892406	 2.3576817574	 0.097529
177.8543	266.6517	337.1375	419.0338	472.3281	494.1136	623.4462	679.1516	704.3773	738.0079	781.8896	792.8995	851.7471	892.0684	914.7045	923.0806	941.0176	988.6932	1040.3171	1066.0218	1087.4921	1096.0506	1118.1571	1150.9853	1191.1571	1206.6395	1234.1136	1244.5016	1276.9968	1318.0327	1343.2498	1414.6035	1486.3988	1491.7724	1540.0542	1644.1006	3009.1134	3038.9264	3060.3808	3100.4578	3114.9062	3116.6622	3124.0062	3221.0327	3250.3037
CC12C=CC3C1CN23	C[C@@]12C=C[C@H]3[C@@H]1CN23	
InChI=1S/C7H9N/c1-7-3-2-6-5(7)4-8(6)7/h2-3,5-6H,4H2,1H3	InChI=1S/C7H9N/c1-7-3-2-6-5(7)4-8(6)7/h2-3,5-6H,4H2,1H3/t5-,6-,7+/m0/s1
