21
gdb 61866	4.39575	0.65538	0.62695	3.596	80.31	-0.246	-0.0244	0.2216	1809.6552	0.177807	-424.265706	-424.254652	-424.253707	-424.303447	38.002	
C	 0.0582555622	 1.7157306721	 0.0120183194	-0.401342
C	 0.035866939	 0.1798767151	 0.010175679	 0.027252
C	 0.7120710289	-0.3871639013	-1.2543605085	-0.288806
C	-0.0356871654	-0.0270346647	-2.5189804063	 0.159723
O	 0.4555365885	 0.4650298254	-3.5015353525	-0.240952
C	 0.6871855841	-0.3918140274	 1.2761425878	-0.314568
C	-0.1249638535	-0.1817001618	 2.5521905455	 0.383057
C	 0.5929524542	-0.4797196812	 3.8560472931	-0.473154
O	-1.2773520538	 0.186233007	 2.5268008985	-0.294178
H	 1.0885046652	 2.0915028488	 0.0255914314	 0.113511
H	-0.4253493435	 2.1229244914	-0.8816072878	 0.125856
H	-0.4671060805	 2.1096314182	 0.8847403072	 0.137804
H	-1.0126575314	-0.1432593243	 0.016710971	 0.101266
H	 1.748313283	-0.0466579773	-1.3519691754	 0.116757
H	 0.7225257439	-1.4860944979	-1.1974714028	 0.113686
H	-1.1257572696	-0.2659459163	-2.4827674341	 0.073007
H	 0.8299817578	-1.4787728364	 1.1805836815	 0.120607
H	 1.6967627624	 0.0163719359	 1.4214318689	 0.115383
H	 1.1018715483	-1.4485724182	 3.8138333497	 0.135428
H	 1.3669954531	 0.277474479	 4.0292465668	 0.144566
H	-0.1163072429	-0.463626016	 4.684312018	 0.145097
46.5132	55.6267	62.1593	104.8599	122.7326	150.4875	235.3175	244.8483	282.2667	331.327	403.0966	468.8457	480.0193	511.951	605.798	771.6788	808.9775	832.4887	883.293	938.3899	956.5964	976.9882	1012.8007	1028.2588	1131.3555	1136.5094	1155.6056	1176.8085	1217.1688	1261.4299	1271.1135	1341.6831	1367.6378	1381.1262	1389.9767	1413.6946	1428.8135	1444.5206	1461.0053	1464.3205	1477.0058	1494.7183	1508.6778	1810.209	1835.9937	2846.668	3003.3357	3007.0256	3029.1802	3033.5322	3036.2234	3047.1672	3084.9874	3096.4471	3097.326	3128.9657	3152.805
CC(CC=O)CC(C)=O	C[C@@H](CC=O)CC(=O)C	
InChI=1S/C7H12O2/c1-6(3-4-8)5-7(2)9/h4,6H,3,5H2,1-2H3	InChI=1S/C7H12O2/c1-6(3-4-8)5-7(2)9/h4,6H,3,5H2,1-2H3/t6-/m0/s1
