18
gdb 31835	4.97567	1.02837	0.86171	0.2245	85.68	-0.207	-0.0227	0.1843	1355.0953	0.148974	-398.200748	-398.191633	-398.190689	-398.23579	32.004	
C	 0.0301503391	 1.4497912883	 0.0828291768	-0.309805
N	-0.0553515739	 0.0172790604	-0.0943162515	-0.345574
C	-1.2213105662	-0.679249927	-0.0365942465	 0.458072
N	-2.3663275075	 0.0160136144	 0.0443388956	-0.328866
C	-3.4838533798	-0.7090874939	 0.0654070947	-0.054132
C	-3.5137989247	-2.099724908	 0.0162566236	 0.224741
C	-4.7917532388	-2.894343102	 0.0376957863	-0.500757
C	-2.2502815006	-2.6985026232	-0.0509050649	-0.047421
N	-1.1099384057	-2.024596932	-0.07764233	-0.331512
H	 1.0505481405	 1.7689597078	-0.1407928887	 0.119888
H	-0.6565788998	 1.9587195012	-0.5980891298	 0.147335
H	-0.2219761407	 1.7644433749	 1.1044085919	 0.124871
H	 0.7773687113	-0.5438190142	-0.0372955429	 0.25171
H	-4.4149142538	-0.145728714	 0.1300789202	 0.101453
H	-4.9486101731	-3.4417335264	-0.8992181163	 0.13182
H	-4.7981444456	-3.6335141081	 0.8466296434	 0.130399
H	-5.6556596282	-2.2390231735	 0.1826232304	 0.125539
H	-2.1621314825	-3.7848826949	-0.0814746622	 0.102239
37.9561	74.2196	87.6873	147.3989	198.5453	318.6271	321.7878	415.3928	441.4528	458.3483	539.2448	578.0323	668.6593	767.8108	827.9274	865.6881	952.7646	1004.9976	1007.978	1050.5072	1073.0207	1099.958	1158.3275	1173.4427	1246.6666	1271.0366	1306.9668	1378.9381	1416.0299	1417.6683	1447.4443	1462.9785	1478.5916	1484.6756	1501.6708	1517.9785	1577.5262	1596.3371	1657.5552	3013.9184	3025.8632	3077.5427	3089.0898	3105.4705	3123.6918	3127.5816	3131.336	3665.7037
CNC1=NC=C(C)C=N1	CNc1ncc(C)cn1	
InChI=1S/C6H9N3/c1-5-3-8-6(7-2)9-4-5/h3-4H,1-2H3,(H,7,8,9)	InChI=1S/C6H9N3/c1-5-3-8-6(7-2)9-4-5/h3-4H,1-2H3,(H,7,8,9)
