18
gdb 107963	2.77953	1.35933	1.30135	1.5761	71.72	-0.2333	0.0494	0.2827	1075.5306	0.14613	-438.969238	-438.960779	-438.959835	-439.00236	32.073	
C	 0.0313816656	 1.4484075513	-0.0861524771	-0.533162
C	 0.0086994988	-0.0421893061	-0.0287353614	 0.442623
O	 0.640748468	-0.8298561208	-1.0876823696	-0.361029
C	 0.1223869228	-1.8437248572	-0.1794624876	 0.035228
C	 0.4197227016	-1.0261894672	 1.1126077685	-0.126683
N	-0.9810995005	-1.079394466	 1.650990713	-0.397046
C	-1.1831234828	-1.0489677054	 0.1592737766	 0.247177
C	-2.5279324617	-1.0796653766	-0.5023544468	-0.233119
O	-3.2478521782	-2.2696120588	-0.2025628416	-0.410307
H	 1.0617008799	 1.816805473	-0.0868963903	 0.137391
H	-0.4654511994	 1.8119472995	-0.9907835574	 0.134894
H	-0.4859114632	 1.8538034037	 0.7884717601	 0.144602
H	 0.2769352499	-2.8964141304	-0.4174118484	 0.098759
H	 1.3103550735	-1.0161060723	 1.74181866	 0.089474
H	-1.1727036778	-2.02054158	 2.0051914166	 0.209655
H	-3.1011070027	-0.1829036569	-0.2236859063	 0.101973
H	-2.3863678311	-1.0630972621	-1.5881673633	 0.129988
H	-3.5500739028	-2.2017927575	 0.708692095	 0.289582
72.8269	127.0726	199.2655	229.8778	249.4965	272.9392	318.0948	412.245	503.0353	581.0971	667.775	701.9372	748.9122	780.8007	803.0075	837.5676	848.0188	938.2095	952.3327	961.5819	1041.178	1043.8702	1074.9878	1095.5127	1130.0223	1159.8865	1187.4286	1213.8605	1244.86	1264.7096	1288.9467	1332.059	1369.1416	1390.8584	1407.0349	1432.5013	1475.9017	1485.2815	1490.2071	2995.5587	3041.0453	3080.6163	3111.5809	3112.7904	3121.4712	3126.1894	3399.6785	3820.3187
CC12OC3C1NC23CO	C[C@@]12O[C@H]3[C@@H]1N[C@@]23CO	
InChI=1S/C6H9NO2/c1-5-3-4(9-5)6(5,2-8)7-3/h3-4,7-8H,2H2,1H3	InChI=1S/C6H9NO2/c1-5-3-4(9-5)6(5,2-8)7-3/h3-4,7-8H,2H2,1H3/t3-,4-,5+,6+/m0/s1
