23
gdb 122437	4.42141	0.58151	0.55853	2.0195	83.44	-0.2465	0.0775	0.324	2031.8748	0.202901	-425.409165	-425.398126	-425.397182	-425.445887	40.13	
C	 0.0642551678	 1.5447721809	-0.2583501343	-0.447286
C	 0.0204930717	 0.0540894337	-0.0084329955	 0.381991
O	-1.1387176665	-0.5642989784	-0.5167066913	-0.466974
C	 1.2885301991	-0.7708066188	-0.0120359049	-0.351367
C	 0.4962150184	-0.5698082649	 1.2711787199	-0.016492
C	 1.0617619381	 0.2102002576	 2.439570767	-0.230622
C	 1.9293489717	-0.6617411496	 3.355997728	-0.15342
C	 2.5031915302	 0.1080514145	 4.5375341119	-0.076235
O	 3.2820242523	-0.7915556704	 5.3125583833	-0.422029
H	 0.960905341	 2.0060246576	 0.1627626784	 0.117416
H	 0.0664626868	 1.7509539467	-1.3361788216	 0.105419
H	-0.8147544501	 2.0334591861	 0.1744093059	 0.124754
H	-1.1009267625	-0.5100857767	-1.4784846918	 0.276786
H	 1.2512613937	-1.7456445657	-0.4853988116	 0.109278
H	 2.2377805138	-0.2513672842	-0.1086197692	 0.103075
H	-0.1033456942	-1.4295678214	 1.5600470509	 0.095131
H	 1.6590596153	 1.0547951343	 2.0739213343	 0.091087
H	 0.2388839194	 0.647587527	 3.0219800893	 0.098439
H	 1.3412165042	-1.5032033098	 3.7419983611	 0.10534
H	 2.7573025735	-1.0969052268	 2.7840803506	 0.108466
H	 3.1142837092	 0.9500928879	 4.1712192211	 0.080653
H	 1.6826015331	 0.5402945543	 5.1341757682	 0.082425
H	 3.6363666439	-0.3103238037	 6.0657428704	 0.284167
49.6486	80.3063	89.0629	134.3301	192.1383	213.1371	243.5647	264.9341	277.6041	313.0773	378.9237	406.2769	426.7107	492.2713	526.4871	703.4908	759.9737	839.7285	852.87	900.7648	925.1577	943.5149	993.4787	1022.1339	1036.0524	1046.1791	1075.1318	1085.7544	1105.1842	1130.0328	1182.9273	1217.687	1230.1706	1249.5436	1291.2551	1303.391	1306.0262	1317.6398	1354.5937	1382.7078	1414.0937	1425.1749	1463.2084	1476.2276	1486.8038	1488.6044	1501.5276	1511.1372	1528.4127	2953.6547	2978.2164	3009.1457	3024.1916	3034.4675	3046.0951	3080.1111	3085.4761	3118.5615	3122.5001	3142.2852	3213.7141	3786.114	3829.8365
CC1(O)CC1CCCO	C[C@@]1(O)C[C@H]1CCCO	
InChI=1S/C7H14O2/c1-7(9)5-6(7)3-2-4-8/h6,8-9H,2-5H2,1H3	InChI=1S/C7H14O2/c1-7(9)5-6(7)3-2-4-8/h6,8-9H,2-5H2,1H3/t6-,7-/m1/s1
