17
gdb 107087	4.72709	0.92125	0.90291	1.6368	75.04	-0.2537	0.0388	0.2925	1317.3964	0.133825	-421.74519	-421.736412	-421.735467	-421.778986	32.725	
O	 0.1049351694	 1.3754481844	-0.3011978147	-0.411904
C	 0.0984249403	 0.0067114767	 0.0711129086	-0.179698
C	-1.2926828096	-0.5091446378	 0.2546011648	 0.395339
C	-2.3155661588	-0.2001853222	 1.3577533198	-0.306831
C	-2.953694564	-1.6251086285	 1.0960593668	-0.203544
C	-4.3564103252	-1.7158757634	 0.7464042647	 0.337233
C	-5.5214394031	-1.7903337084	 0.4594200877	-0.457743
C	-1.9133672283	-1.8134904293	-0.0353677878	-0.058658
O	-2.0612896039	-0.7297721326	-0.9479515983	-0.283486
H	-0.3971169221	 1.4456597552	-1.121021614	 0.295228
H	 0.6170233792	-0.6221322795	-0.6680738519	 0.100487
H	 0.6507714553	-0.0537844843	 1.0146960896	 0.115187
H	-1.8838567376	-0.1185462056	 2.357203508	 0.11463
H	-2.9624886602	 0.6542304645	 1.1577222668	 0.126697
H	-2.7233075658	-2.2930276724	 1.9324585777	 0.1102
H	-6.5486539547	-1.8540821097	 0.1984609065	 0.197439
H	-1.5061248009	-2.7422453569	-0.4196094042	 0.109424
69.3333	86.5544	129.7161	198.6205	281.9155	307.5051	392.0769	408.837	449.241	501.4675	621.176	624.4472	634.7059	708.3918	721.8965	804.1029	894.3189	903.5417	931.1452	974.2077	998.4086	1030.8283	1074.7253	1083.9522	1135.7574	1172.8439	1194.2773	1231.6848	1243.6805	1289.1488	1336.5926	1371.5584	1419.3976	1456.9906	1482.4118	1488.215	2237.5044	2995.8048	3056.748	3077.7443	3083.1911	3147.2739	3181.5488	3504.8074	3804.2059
OCC12CC(C#C)C1O2	OC[C@]12C[C@@H](C#C)[C@H]1O2	
InChI=1S/C7H8O2/c1-2-5-3-7(4-8)6(5)9-7/h1,5-6,8H,3-4H2	InChI=1S/C7H8O2/c1-2-5-3-7(4-8)6(5)9-7/h1,5-6,8H,3-4H2/t5-,6-,7-/m1/s1
