19
gdb 112198	2.51279	1.3153	0.97467	4.31	76.53	-0.2678	0.0113	0.279	1262.1298	0.158534	-423.050172	-423.041291	-423.040347	-423.084021	32.767	
C	 0.1073969319	 1.5637109457	 0.0689496542	-0.386432
C	-0.261301406	 0.1101772715	-0.2437223531	-0.193958
C	 0.6743700728	-0.5269786845	-1.2509349	 0.068686
O	 2.0555316099	-0.6344508089	-0.7296132256	-0.279854
C	 2.0592710138	-2.0045587716	-0.8709740866	 0.437931
O	 2.9368739419	-2.7666711832	-0.6141650418	-0.345531
C	 0.6653396616	-2.0444989924	-1.4178288066	 0.106504
C	-0.3899370092	-3.0779796994	-1.1304496992	-0.315551
C	 0.1588879039	-2.9330174548	-2.5201998202	-0.318139
H	 1.1237146161	 1.624563253	 0.4675531174	 0.143379
H	 0.0606344634	 2.1875320121	-0.8303257463	 0.117215
H	-0.5762803694	 1.9901301088	 0.8082811505	 0.117958
H	-0.2524661911	-0.4912250158	 0.6726646632	 0.110641
H	-1.2808623435	 0.0563894249	-0.6481282306	 0.102095
H	 0.698991674	 0.0332207278	-2.1918206478	 0.096202
H	-0.0872733151	-3.9360233816	-0.5403782533	 0.142348
H	-1.3952953095	-2.7202965174	-0.9355824508	 0.127547
H	-0.4711548245	-2.4766560918	-3.2763824062	 0.126831
H	 0.8412487392	-3.6909195124	-2.8892505572	 0.142127
89.1419	113.2172	140.1144	196.8842	204.7381	222.3519	288.5828	359.8508	470.9525	564.4934	620.734	724.3816	744.2638	779.866	811.5267	854.8957	873.078	943.8466	957.0922	962.3884	1014.4964	1059.0405	1070.7136	1084.3171	1088.3878	1117.9011	1162.9439	1195.6977	1246.331	1267.9367	1288.9689	1343.774	1392.4317	1412.1561	1415.1153	1458.3028	1475.4209	1497.4559	1499.4963	1508.3882	1931.2273	3024.03	3039.5842	3050.643	3071.7747	3108.1364	3123.5045	3133.7744	3136.1845	3216.7941	3230.9016
CCC1OC(=O)C11CC1	CC[C@H]1OC(=O)C21CC2	
InChI=1S/C7H10O2/c1-2-5-7(3-4-7)6(8)9-5/h5H,2-4H2,1H3	InChI=1S/C7H10O2/c1-2-5-7(3-4-7)6(8)9-5/h5H,2-4H2,1H3/t5-/m1/s1
