18
gdb 10085	2.79898	1.27396	0.97104	3.3783	65.59	-0.2438	-0.0201	0.2237	1204.1892	0.150665	-422.068029	-422.058402	-422.057458	-422.103575	32.692	
C	 0.0369545733	 1.3174609756	-0.1182632925	-0.246151
O	-0.0583809785	-0.0906182123	-0.0141371536	-0.258133
C	-1.3938891524	-0.6024198354	-0.0208461922	 0.069019
C	-1.8408118569	-0.8076411016	-1.4744515529	-0.06788
O	-0.942588057	-1.6509901136	-2.1654076301	-0.41607
C	-1.3710296989	-1.9233262829	 0.7590525894	-0.275232
C	-0.9345729135	-1.7543453291	 2.1965121509	 0.148937
O	-1.5327077968	-2.198940156	 3.1438969618	-0.243517
H	 1.1000918656	 1.5676221085	-0.0938270564	 0.136095
H	-0.3922656928	 1.700652977	-1.0542823101	 0.116001
H	-0.4658282997	 1.8147620289	 0.7235976402	 0.118326
H	-2.0702191706	 0.1131325656	 0.4725688612	 0.078677
H	-2.8262648605	-1.2837012417	-1.5047387224	 0.114817
H	-1.9334330425	 0.1723306901	-1.9698378552	 0.090138
H	-0.0612726173	-1.3027987513	-1.9792618569	 0.288218
H	-2.3559297575	-2.3978732492	 0.7444729176	 0.121611
H	-0.6628567813	-2.5918907607	 0.2528691763	 0.137297
H	 0.0056592373	-1.1772991018	 2.3277466548	 0.087847
50.1245	78.6348	83.662	123.2222	162.1517	231.0015	252.5991	313.3965	366.6631	436.8752	473.4348	535.7085	662.7832	804.9129	830.7607	922.4832	946.3463	1028.4442	1079.6489	1107.8599	1116.984	1138.4791	1183.2929	1198.7076	1225.8941	1243.651	1277.6434	1344.1949	1372.1169	1396.9221	1422.6011	1427.2795	1450.4282	1480.4076	1486.1242	1505.2774	1511.1736	1828.6602	2908.4813	2972.9003	2985.7833	2996.6176	3040.0576	3045.7364	3077.9136	3109.6319	3120.5347	3775.9851
COC(CO)CC=O	CO[C@@H](CO)CC=O	
InChI=1S/C5H10O3/c1-8-5(4-7)2-3-6/h3,5,7H,2,4H2,1H3	InChI=1S/C5H10O3/c1-8-5(4-7)2-3-6/h3,5,7H,2,4H2,1H3/t5-/m1/s1
