17
gdb 29608	3.11888	1.2511	0.95891	3.8629	77.09	-0.1803	-0.0188	0.1615	1195.4573	0.136392	-418.045332	-418.03642	-418.035476	-418.079346	32.751	
N	 0.3099738797	 1.3534076556	 0.3330498354	-0.619089
C	 0.1184352134	-0.019426437	 0.1026517523	 0.170177
C	-1.0905579199	-0.6687068828	-0.0367085031	-0.143665
N	-0.8290099344	-2.0155859059	-0.1846781666	-0.238606
C	 0.514223046	-2.2388317706	-0.1291524289	-0.180317
C	 1.1441174353	-1.0208451885	 0.0338341243	 0.20829
C	 2.6247972088	-0.7648729298	 0.1036945285	-0.403614
C	 2.9764193954	-0.2350784362	 1.4810985247	 0.163316
O	 3.1489401794	 0.9330956383	 1.7304043065	-0.24764
H	 1.2831831812	 1.6208184049	 0.3964331148	 0.251762
H	-0.1803006096	 1.9517774926	-0.3174333773	 0.23822
H	-2.0988771688	-0.2892791644	-0.0295210152	 0.110388
H	-1.527849755	-2.7243953149	-0.3141888711	 0.261644
H	 0.9267120079	-3.2297671056	-0.2338822764	 0.116569
H	 3.1722229587	-1.696198786	-0.0791703	 0.111805
H	 2.9418635922	-0.0196770248	-0.635691553	 0.116645
H	 3.0115479795	-1.0039208748	 2.2846622951	 0.084117
59.6149	84.8593	150.8806	198.9261	241.7337	284.288	351.5523	423.238	429.8134	505.6648	617.	628.4103	642.0765	664.2681	721.9383	738.0962	748.9234	882.0149	904.0209	992.5573	1059.5235	1081.6704	1096.8327	1152.8241	1186.7225	1235.9113	1275.8475	1299.3427	1355.7682	1414.634	1423.418	1462.6857	1484.1503	1559.0559	1630.5238	1663.1198	1815.072	2888.2688	3026.4309	3083.8212	3257.6069	3269.7252	3542.7574	3636.61	3696.7926
NC1=CNC=C1CC=O	Nc1c[nH]cc1CC=O	
InChI=1S/C6H8N2O/c7-6-4-8-3-5(6)1-2-9/h2-4,8H,1,7H2	InChI=1S/C6H8N2O/c7-6-4-8-3-5(6)1-2-9/h2-4,8H,1,7H2
