20
gdb 57661	2.2372	1.24373	1.04207	3.8482	76.06	-0.2494	0.0007	0.2501	1256.6957	0.168668	-440.283755	-440.273893	-440.272949	-440.318429	35.985	
C	-0.0370279093	 1.5259234567	-0.0943811176	-0.41569
C	 0.0543146805	 0.0051604904	 0.0827092019	 0.295356
C	 0.8238503569	-0.3914481951	 1.3473766623	-0.41712
O	-1.2851070953	-0.5745859261	 0.0917656541	-0.235741
C	-2.1640800998	-0.2690257585	 1.0610557571	 0.166698
O	-3.268443328	-0.7272453754	 1.0841881308	-0.276692
C	 0.7288171085	-0.6111832324	-1.1402508566	 0.017587
C	 0.4602687008	-2.0011755397	-1.5738541497	-0.250312
N	-0.0116149686	-0.8559341558	-2.3801583576	-0.334995
H	 0.9662466118	 1.9452243378	-0.2143762062	 0.130469
H	-0.6180243322	 1.7710596616	-0.9872804882	 0.142301
H	-0.4986752292	 2.0121663331	 0.7696953106	 0.119941
H	 0.4338358407	 0.1026292316	 2.2418181874	 0.121066
H	 0.7801963396	-1.4735311114	 1.4941595342	 0.13926
H	 1.8739568543	-0.1018746132	 1.2439516617	 0.131023
H	-1.7734606203	 0.4309830676	 1.8183431841	 0.083769
H	 1.7258138812	-0.2036344544	-1.2995555109	 0.091592
H	 1.2536183828	-2.5880074833	-2.0275952238	 0.117759
H	-0.2801835404	-2.5696642061	-1.0204886416	 0.129462
H	-1.0052733442	-0.7311543575	-2.195214812	 0.244266
92.8774	103.9576	140.2627	146.3095	210.887	248.3375	260.5279	285.9691	325.1583	391.788	396.4556	511.1804	532.1078	580.805	764.5531	851.2208	873.6395	923.6158	932.0161	970.7178	977.0817	1005.1816	1036.7414	1048.5303	1111.6603	1152.111	1167.3943	1181.826	1208.2806	1229.3464	1262.7163	1283.2508	1312.5327	1400.8068	1410.6454	1423.7577	1435.483	1479.5651	1486.3047	1500.7662	1502.2502	1508.28	1853.7338	2996.7834	3042.8279	3047.5241	3111.2166	3115.0257	3118.8886	3122.442	3127.3355	3129.4196	3210.0184	3494.415
CC(C)(OC=O)C1CN1	CC(C)(OC=O)[C@H]1CN1	
InChI=1S/C6H11NO2/c1-6(2,9-4-8)5-3-7-5/h4-5,7H,3H2,1-2H3	InChI=1S/C6H11NO2/c1-6(2,9-4-8)5-3-7-5/h4-5,7H,3H2,1-2H3/t5-/m1/s1
