16
gdb 50400	2.84257	1.46792	1.1256	2.5231	69.37	-0.2518	-0.0375	0.2143	1060.5733	0.124909	-437.860832	-437.853326	-437.852381	-437.893525	27.796	
O	-0.0613714344	-0.0890406037	-0.2426593343	-0.249696
C	-0.0072397326	 1.1102580301	-0.1511952621	 0.160142
C	 1.2797414846	 1.9007878606	-0.043084426	-0.145788
C	 1.2658408685	 3.1105841001	-1.0807541518	-0.190792
N	 0.6319036428	 4.270915251	-0.3903249694	-0.30204
C	 0.7840442496	 3.9851786888	 0.827684748	 0.440122
O	 0.1729478621	 4.3231722354	 2.0009207034	-0.269012
C	 0.4236600994	 2.935245004	 2.4736855211	-0.13114
C	 1.3995214095	 2.7073673342	 1.2731290827	-0.161668
H	-0.934144408	 1.7279675442	-0.1559305256	 0.094544
H	 2.1106094318	 1.2111131006	-0.2004753227	 0.100819
H	 2.2845727747	 3.3444615869	-1.4128507035	 0.12219
H	 0.6795721416	 2.870255347	-1.9728613498	 0.128601
H	 0.8730371412	 2.9404462924	 3.4668834722	 0.13836
H	-0.5110991026	 2.3709159087	 2.4638718476	 0.142588
H	 2.4378329316	 2.7893462298	 1.6014850602	 0.122769
62.2507	104.2612	216.0729	257.7775	320.8392	415.4962	437.5192	473.1736	673.2358	699.412	754.3298	812.3441	856.4308	907.3006	916.4391	952.409	982.4656	1001.6365	1050.1474	1081.2295	1125.4353	1146.0675	1161.9844	1202.7355	1214.0148	1243.9307	1283.5873	1306.6533	1338.7382	1371.2873	1432.8812	1495.9901	1501.588	1777.3822	1830.7865	2875.2993	3035.0788	3077.6642	3085.1729	3087.2036	3108.5111	3151.7954
O=CC1CN=C2OCC12	O=C[C@H]1C[N][C]2OC[C@@H]12	
InChI=1S/C6H7NO2/c8-2-4-1-7-6-5(4)3-9-6/h2,4-5H,1,3H2	InChI=1S/C6H7NO2/c8-2-4-1-7-6-5(4)3-9-6/h2,4-5H,1,3H2/t4-,5+/m1/s1
