17
gdb 52828	2.67632	0.99492	0.95678	3.2896	79.19	-0.2363	0.0197	0.2559	1358.6698	0.134882	-417.994767	-417.984821	-417.983877	-418.0315	34.423	
C	-0.0012576193	 1.5003767693	 0.000040684	-0.499176
C	 0.0391905312	 0.0457283493	 0.0216312214	 0.023868
C	 0.0618980698	-1.1593791187	 0.036273036	 0.075176
C	 0.1112102506	-2.6131008029	 0.0201905286	-0.01877
N	 1.0391465632	-3.2020613023	-0.9448373483	-0.561998
C	 0.1633424985	-3.2945165933	 1.4364900615	-0.175973
N	-1.1699801976	-3.8356258193	 1.1560944568	-0.321756
C	-1.2846249076	-3.3304831563	-0.106079583	 0.411518
O	-2.0997848148	-3.4327170472	-0.9804587977	-0.36233
H	 0.6179556867	 1.9026910756	-0.8092692074	 0.150354
H	-1.0231970311	 1.8644639521	-0.1524817196	 0.15533
H	 0.3660211107	 1.9241126655	 0.9412295856	 0.148976
H	 0.6159916044	-3.1389623663	-1.8677725788	 0.248352
H	 1.8904844341	-2.6481237744	-0.981412644	 0.233261
H	 0.9497523917	-4.0502276803	 1.5077415614	 0.121824
H	 0.1975392609	-2.6069141185	 2.2849836435	 0.116898
H	-1.7366553712	-4.5121866023	 1.6455133299	 0.254446
14.2991	81.2957	88.7147	140.1018	203.6272	218.0937	271.124	299.8828	346.7215	417.9971	458.8414	520.6021	566.7598	633.0204	734.823	784.5905	876.5907	889.38	913.792	1002.9601	1033.3657	1051.1813	1053.3922	1159.1027	1171.9287	1218.6574	1248.3007	1270.2921	1313.7823	1393.4185	1414.0909	1476.6674	1477.4568	1513.3897	1652.0357	1903.6565	2358.6897	3027.2342	3055.5936	3088.5025	3089.5208	3116.639	3482.8408	3560.255	3613.3245
CC#CC1(N)CNC1=O	CC#C[C@@]1(N)CNC1=O	
InChI=1S/C6H8N2O/c1-2-3-6(7)4-8-5(6)9/h4,7H2,1H3,(H,8,9)	InChI=1S/C6H8N2O/c1-2-3-6(7)4-8-5(6)9/h4,7H2,1H3,(H,8,9)/t6-/m1/s1
