21
gdb 55850	3.30013	0.81505	0.79314	4.0437	80.25	-0.2358	-0.0083	0.2275	1553.6579	0.178592	-424.23439	-424.223747	-424.222803	-424.27147	38.371	
C	 0.0866443477	 0.691698519	 1.0155575054	-0.479848
C	 0.1433298202	-0.0571773527	-0.3034018262	 0.389357
O	 1.1282950539	-0.0517893699	-1.0041807446	-0.300259
C	-1.1035226851	-0.8509892676	-0.6982283491	-0.323071
C	-1.0507102472	-2.2463992171	-0.0939677302	-0.025913
C	-1.632770465	-2.5671293984	 1.2751518123	-0.352696
C	-2.2471657373	-3.147545723	 0.0206939219	 0.386302
C	-3.6281336208	-2.7288211439	-0.4297655152	-0.4486
O	-1.9409153657	-4.4880693382	-0.2744375469	-0.464319
H	 1.064472638	 1.1146637007	 1.2489540875	 0.14046
H	-0.653413103	 1.4984991975	 0.9509328232	 0.137337
H	-0.2387455015	 0.0259683925	 1.8219599821	 0.144583
H	-2.0055437286	-0.3247511177	-0.3684268879	 0.097075
H	-1.1169737482	-0.9177170069	-1.7905588304	 0.125779
H	-0.1406470968	-2.7883688073	-0.3348241689	 0.115996
H	-1.0717198649	-3.2377617082	 1.9162949959	 0.11603
H	-2.1807286022	-1.7872881172	 1.7963880912	 0.105315
H	-3.8315040921	-1.6770836836	-0.2134322441	 0.117344
H	-3.7461814964	-2.8926017105	-1.5056790118	 0.130466
H	-4.3933649227	-3.3215212878	 0.0867202869	 0.109259
H	-2.5230500818	-5.0463450698	 0.2537242789	 0.279403
17.8572	63.6886	116.7699	138.1575	186.8848	198.2229	233.0855	304.8584	364.3267	393.5407	403.2602	420.294	485.2044	532.928	591.7617	704.0402	797.032	832.6625	864.8301	909.0359	921.802	930.4874	988.2734	1035.2283	1039.2796	1066.0261	1085.5948	1118.2477	1146.4351	1193.3698	1236.9704	1266.1458	1290.745	1308.3308	1355.5584	1378.4136	1411.2997	1420.8339	1461.3259	1469.7819	1476.114	1483.4252	1486.7066	1507.7858	1815.9839	3026.5091	3033.6801	3043.0503	3088.6535	3095.5573	3097.4996	3119.7912	3123.3594	3151.8649	3157.2328	3215.7418	3787.2781
CC(=O)CC1CC1(C)O	CC(=O)C[C@H]1C[C@]1(C)O	
InChI=1S/C7H12O2/c1-5(8)3-6-4-7(6,2)9/h6,9H,3-4H2,1-2H3	InChI=1S/C7H12O2/c1-5(8)3-6-4-7(6,2)9/h6,9H,3-4H2,1-2H3/t6-,7-/m0/s1
