16
gdb 46005	4.75533	1.01884	0.871	2.7242	82.77	-0.2431	-0.0343	0.2088	1280.1225	0.12407	-400.73554	-400.7272	-400.726255	-400.769239	30.829	
N	-0.1215609487	 1.3324329695	-0.2635921343	-0.514734
C	-0.0082352479	 0.1191137462	 0.0777618946	 0.395675
C	-1.1742569624	-0.8350057163	-0.0682261578	-0.343242
C	-1.1462579782	-1.9580828505	 0.9246307675	-0.159428
C	 0.0213109165	-2.4129649652	 1.3945262375	 0.119434
C	 1.2988375289	-1.7525612135	 0.9219356337	-0.169232
O	 1.1503660609	-0.3675058233	 0.6008772613	-0.244451
C	 0.1523145075	-3.5087383481	 2.2856797234	 0.220346
C	 0.3261779295	-4.4347751471	 3.0367498134	-0.404878
H	 0.759918758	 1.8255998698	-0.1072736885	 0.219656
H	-2.0910624297	-0.2466600394	-0.0024696545	 0.151856
H	-1.1563390963	-1.2472040167	-1.0897216628	 0.147041
H	-2.0830988679	-2.4097825367	 1.2313861458	 0.112196
H	 2.0621165096	-1.7910967359	 1.7024421048	 0.140004
H	 1.6965072363	-2.2846500398	 0.0451942795	 0.129292
H	 0.4571261238	-5.2541657328	 3.6995044363	 0.200465
40.727	106.7972	148.7731	165.434	358.5838	397.5144	421.5165	481.7503	524.2849	545.4272	591.8475	604.0654	653.5036	708.1837	776.5261	846.03	899.5814	923.6547	974.9848	994.6648	1022.0683	1071.4431	1145.9799	1178.4156	1205.8925	1261.1916	1294.3964	1331.6797	1354.4151	1425.1711	1458.5157	1501.8607	1704.5283	1750.4359	2222.4154	2990.0702	2999.9636	3101.5598	3114.8567	3194.5362	3465.3872	3501.9441
N=C1CC=C(CO1)C#C	[NH][C]1CC=C(CO1)C#C	
InChI=1S/C7H7NO/c1-2-6-3-4-7(8)9-5-6/h1,3,8H,4-5H2	InChI=1S/C7H7NO/c1-2-6-3-4-7(8)9-5-6/h1,3,8H,4-5H2
