18
gdb 13994	3.84162	1.52094	1.28854	0.8935	79.13	-0.2374	0.0476	0.285	1001.2445	0.153075	-310.612474	-310.604588	-310.603644	-310.644684	30.345	
C	-0.0084063696	-1.1841531441	-0.0410333088	-0.470246
C	-0.0071773985	 0.0189670153	 0.0029240186	 0.337907
C	 0.0164478305	 1.4498949119	 0.0399324229	-0.254354
C	 0.5321013573	 2.1813097549	 1.27721937	-0.359296
C	 1.3430789699	 2.1968823362	 0.0278604231	 0.369608
C	 2.7045604052	 1.5518839948	-0.2555394718	-0.292513
C	 2.8786477431	 2.5511340976	-1.4385824872	-0.201102
C	 1.6631923668	 3.3695354062	-0.9089076313	-0.294723
H	-0.021886932	-2.2450704116	-0.0721665477	 0.193209
H	-0.7994259946	 1.936592351	-0.4889579693	 0.107977
H	 0.0058534169	 3.0851604205	 1.5682014508	 0.114779
H	 0.8737524502	 1.5672017407	 2.1037227282	 0.123774
H	 3.4257735167	 1.7177726311	 0.5507908137	 0.100272
H	 2.6907275244	 0.4870848334	-0.5003776864	 0.115524
H	 3.8324953229	 3.0789652342	-1.49763457	 0.098484
H	 2.6778875489	 2.0872238978	-2.4070687645	 0.108529
H	 0.8948988341	 3.647489236	-1.6358636604	 0.099562
H	 1.9654899078	 4.2693444141	-0.3631134699	 0.102608
80.3038	131.4791	143.0349	287.6978	317.9662	345.1548	504.6265	521.0393	561.5341	595.382	645.373	713.4194	776.0714	802.5374	838.5267	879.3064	904.4217	936.741	948.444	969.7104	1055.7185	1064.6949	1083.3032	1117.7198	1139.8185	1188.0163	1225.8054	1233.1604	1254.8558	1267.7012	1280.6124	1331.0738	1404.8989	1476.2299	1478.8002	1484.8669	1506.5155	2230.7034	3043.586	3051.8694	3069.4148	3090.7303	3103.8163	3125.0426	3125.5914	3133.2605	3215.2713	3506.096
C#CC1CC11CCC1	C#C[C@H]1CC21CCC2	
InChI=1S/C8H10/c1-2-7-6-8(7)4-3-5-8/h1,7H,3-6H2	InChI=1S/C8H10/c1-2-7-6-8(7)4-3-5-8/h1,7H,3-6H2/t7-/m0/s1
