25
gdb 104614	2.0999	1.26721	0.90741	1.0446	89.43	-0.2409	0.0795	0.3204	1437.7661	0.225884	-389.484275	-389.473265	-389.472321	-389.520505	41.178	
C	-1.9009941777	-0.0422428865	-0.9734017422	-0.376047
C	-0.5683572425	 0.0868732597	-0.2281860642	-0.242938
C	 0.5980401035	-0.5128770695	-0.9950319799	 0.452029
C	 1.7841785062	-1.0662194838	-0.2400605226	-0.333135
C	 0.8176204304	-1.9964821767	-0.9479627677	-0.309654
O	 0.8449079772	 0.0563148944	-2.2530537064	-0.312669
C	 1.5283682445	 1.3189009549	-2.2649048056	 0.128722
C	 2.7467546329	 1.1812317007	-3.1770984013	-0.382441
C	 0.5785403796	 2.4164373219	-2.7465605453	-0.382803
H	-1.8394113389	 0.423619045	-1.9604645682	 0.12983
H	-2.1656726521	-1.094386448	-1.1215228075	 0.11543
H	-2.7134411699	 0.4354562063	-0.4173226215	 0.105167
H	-0.3580556273	 1.1434431477	-0.0159361958	 0.093359
H	-0.6350682701	-0.4085979342	 0.7475707162	 0.092503
H	 2.7649077595	-0.9426311818	-0.6847857384	 0.11497
H	 1.7734861686	-1.0315180979	 0.8443115478	 0.108413
H	 0.1442552822	-2.6004907383	-0.3491767988	 0.107726
H	 1.1615081141	-2.4651257259	-1.8623863059	 0.11983
H	 1.8671902842	 1.550717771	-1.2462798422	 0.076248
H	 3.2932866932	 2.1272438766	-3.2480313244	 0.108769
H	 3.4299764224	 0.4145157556	-2.8013912389	 0.114869
H	 2.4302693606	 0.8892864962	-4.183676177	 0.123001
H	-0.2807936965	 2.5193194124	-2.0789032321	 0.118493
H	 1.0932312375	 3.3819629284	-2.7931283565	 0.108731
H	 0.2054697284	 2.1780051517	-3.7478656114	 0.121596
39.6674	77.3021	127.4136	182.3001	204.9201	213.5128	220.1651	255.5635	302.744	319.5571	367.495	400.2167	460.4422	472.8126	565.2563	704.1651	773.5556	792.497	824.9179	895.4653	897.6994	923.2419	933.951	936.5451	972.9961	1005.258	1029.8467	1053.7601	1074.6972	1085.1399	1116.4327	1144.1851	1146.163	1188.6251	1204.1816	1256.1821	1294.4566	1342.1629	1358.7481	1375.6546	1389.4848	1397.4878	1408.3519	1414.0306	1454.9385	1477.8357	1481.3888	1485.8488	1492.8082	1494.8827	1499.957	1505.4831	1511.4665	3013.2272	3021.1893	3034.1749	3039.2989	3039.6986	3057.843	3103.444	3104.3023	3112.3035	3114.5515	3118.9526	3121.7068	3132.3597	3137.2621	3216.2616	3231.2149
CCC1(CC1)OC(C)C	CCC1(CC1)OC(C)C	
InChI=1S/C8H16O/c1-4-8(5-6-8)9-7(2)3/h7H,4-6H2,1-3H3	InChI=1S/C8H16O/c1-4-8(5-6-8)9-7(2)3/h7H,4-6H2,1-3H3
