19
gdb 9671	4.59666	1.07975	0.99669	2.2118	68.	-0.2479	0.0572	0.3051	1207.7031	0.164192	-402.16286	-402.15342	-402.152475	-402.197478	33.857	
C	 0.0705684885	 1.6161772546	-0.128392406	-0.465669
C	-0.097543747	 0.1318014782	 0.1282077165	 0.311183
C	-1.3402075807	-0.4785900869	-0.5031909048	-0.144238
O	-1.2849252826	-0.5271957218	-1.9216034263	-0.414949
N	 1.1402820688	-0.6678868282	 0.0809745149	-0.376006
C	 0.4092644019	-0.5431751917	 1.3589609925	-0.076694
C	 1.189089716	 0.1195062178	 2.4722053075	-0.072641
O	 2.2710854423	-0.7011406618	 2.8800040635	-0.420147
H	 1.0228192989	 1.9848720005	 0.2536082734	 0.137535
H	 0.0625762738	 1.8177925238	-1.2061839045	 0.110928
H	-0.7401512965	 2.1925065193	 0.3313214014	 0.117396
H	-1.443178591	-1.5202625423	-0.1805625677	 0.105332
H	-2.2349868249	 0.0625596749	-0.1566143325	 0.09384
H	-1.349806577	 0.3714628163	-2.2583549005	 0.288143
H	 0.9610815978	-1.5672576231	-0.3593477136	 0.235883
H	-0.1506467242	-1.4184798124	 1.687527761	 0.085374
H	 1.5414498318	 1.1125658287	 2.1616363424	 0.087852
H	 0.5525790506	 0.2535827406	 3.3533951672	 0.106957
H	 2.7743286936	-0.8843596266	 2.0772839156	 0.289921
49.8275	64.6592	151.9971	181.5746	203.0061	275.32	295.9369	339.1759	375.2446	420.4137	445.5269	477.3034	640.826	717.0237	835.1566	871.6648	940.0903	953.9387	978.4157	1024.859	1051.365	1076.0961	1088.5822	1102.0098	1132.1134	1190.2593	1200.4114	1260.9677	1290.3899	1351.4148	1371.6797	1382.8551	1413.6371	1421.3403	1430.0668	1463.0879	1489.146	1495.5301	1499.2688	1509.2467	2979.8833	3010.0803	3029.8657	3068.9056	3072.5177	3086.0142	3109.7589	3142.6277	3495.7233	3786.305	3828.7547
CC1(CO)NC1CO	C[C@@]1(CO)N[C@H]1CO	
InChI=1S/C5H11NO2/c1-5(3-8)4(2-7)6-5/h4,6-8H,2-3H2,1H3	InChI=1S/C5H11NO2/c1-5(3-8)4(2-7)6-5/h4,6-8H,2-3H2,1H3/t4-,5-/m0/s1
