20
gdb 65214	3.53252	1.1816	1.13803	2.992	78.37	-0.2255	0.0599	0.2854	1170.3136	0.170558	-403.07508	-403.066396	-403.065452	-403.109141	33.132	
O	 0.1075610453	 1.3892029709	 0.3752875922	-0.470254
C	 0.0969361829	 0.0126660931	 0.0850518172	 0.408623
C	 1.0731305664	-0.543772226	-0.9186914574	-0.331767
C	 1.2389689653	-0.8483591489	 0.5625948929	-0.331102
C	-1.306021036	-0.5376517683	 0.1284202898	-0.014157
C	-2.2685357922	-0.1863943096	 1.2995070391	-0.201234
N	-3.382251627	 0.177623396	 0.3491883737	-0.131256
C	-2.8841503237	 1.3416950789	-0.4047060691	-0.235228
C	-2.3970776958	 0.0051739492	-0.7994378416	-0.060057
H	 1.0069863685	 1.7194517512	 0.292731735	 0.281597
H	 0.7503689262	-1.3392317936	-1.5822091891	 0.118523
H	 1.7782538377	 0.1464994268	-1.3722223206	 0.108131
H	 2.0514904742	-0.3552086281	 1.0876364486	 0.107917
H	 1.0323432568	-1.8536005092	 0.914826523	 0.117695
H	-1.2420001999	-1.623444262	 0.0177942	 0.078525
H	-2.5542820303	-1.0410664947	 1.9153034734	 0.105007
H	-1.9582030364	 0.6400992924	 1.9445841076	 0.115288
H	-3.6487290416	 1.7868374009	-1.0349171657	 0.112104
H	-2.214982913	 2.0457097808	 0.0787141488	 0.134155
H	-2.6965400775	-0.4626806997	-1.732708208	 0.087489
38.4592	80.2521	165.7302	180.1711	282.7755	320.0588	353.182	448.0386	491.2941	545.4532	687.6717	754.4596	762.6237	779.0772	792.3666	874.3134	886.0909	940.4173	955.4169	977.9357	982.5899	1009.2407	1042.7649	1054.7163	1062.5372	1065.2769	1077.9707	1116.981	1124.1058	1183.9847	1185.2035	1203.7115	1222.1467	1255.7254	1277.2286	1296.5343	1367.2988	1378.6114	1451.0506	1462.1907	1490.6246	1500.4652	1512.6683	3061.7735	3068.8614	3120.3746	3120.548	3121.2976	3124.8134	3150.2033	3199.4488	3213.2599	3214.3053	3831.9437
OC1(CC1)C1CN2CC12	OC1(CC1)[C@H]1CN2C[C@@H]12	
InChI=1S/C7H11NO/c9-7(1-2-7)5-3-8-4-6(5)8/h5-6,9H,1-4H2	InChI=1S/C7H11NO/c9-7(1-2-7)5-3-8-4-6(5)8/h5-6,9H,1-4H2/t5-,6-,8?/m0/s1
