21
gdb 120901	4.2685	0.84485	0.76827	0.777	80.68	-0.2167	0.062	0.2786	1524.2773	0.182599	-420.338373	-420.329111	-420.328167	-420.373233	34.436	
O	 0.363644326	 1.2871977685	-0.068828704	-0.416085
C	 0.0522086867	-0.0868854996	 0.1206930089	-0.068454
C	-1.4507438009	-0.3576570561	 0.1454356758	-0.143475
N	-2.097047522	 0.0281190381	-1.0965099025	-0.094392
C	-2.5028790123	 1.4447546725	-1.2777311249	-0.255473
C	-3.8410128113	 0.9536988941	-1.8326991567	 0.33596
C	-5.1280923494	 1.6592957032	-1.9575716803	-0.30761
N	-4.3879311051	 1.2093439605	-3.1582991197	-0.354885
C	-3.4854824352	-0.4434929122	-1.3261824334	-0.223562
H	 0.215405464	 1.4863879713	-0.9978718376	 0.290834
H	 0.5197422908	-0.7074747262	-0.6569511839	 0.094546
H	 0.4883647039	-0.3702330592	 1.0850647105	 0.104538
H	-1.6023731753	-1.4354365481	 0.2860549259	 0.100227
H	-1.8995594924	 0.1546833118	 1.0185393771	 0.080989
H	-2.5920715592	 2.0009395084	-0.3320748548	 0.103273
H	-1.870760062	 2.0243204652	-1.9639917906	 0.089067
H	-6.0629542184	 1.1349714902	-1.7762557126	 0.120262
H	-5.1536753549	 2.7211150816	-1.7225585064	 0.112421
H	-3.9111328288	 1.9977624945	-3.5907988581	 0.229519
H	-3.5754695511	-1.2629648797	-2.0468737103	 0.113332
H	-4.016868593	-0.7121703186	-0.3995959123	 0.088968
46.0954	70.8104	109.3459	219.1291	257.38	289.1176	336.6519	354.8021	391.0549	407.8629	472.7392	568.2272	722.6146	824.1235	866.7158	890.0503	901.4907	930.8393	935.9333	979.4229	993.7767	1039.8398	1062.6003	1066.2095	1103.1574	1121.4639	1131.6355	1141.7192	1177.8612	1193.256	1232.8928	1264.808	1270.2956	1281.685	1318.0645	1327.939	1396.0051	1402.027	1416.5464	1441.3078	1473.0969	1492.1976	1494.0508	1515.7604	1522.6792	2917.6576	2975.098	2985.0791	3003.8025	3022.8489	3049.0702	3065.5403	3072.8452	3099.5372	3182.744	3487.3954	3834.7595
OCCN1CC2(CN2)C1	OCCN1CC2(CN2)C1	
InChI=1S/C6H12N2O/c9-2-1-8-4-6(5-8)3-7-6/h7,9H,1-5H2	InChI=1S/C6H12N2O/c9-2-1-8-4-6(5-8)3-7-6/h7,9H,1-5H2
