19
gdb 37089	2.16307	1.97406	1.30694	1.8282	79.48	-0.2467	0.0833	0.33	1032.8833	0.158582	-385.812133	-385.804367	-385.803423	-385.844159	31.206	
C	-0.0268248603	 1.5095491277	 0.0742534282	-0.318664
C	 1.2916882646	 0.770435251	-0.0120954424	-0.333752
C	-0.0036732176	 0.0156329544	-0.0067490654	 0.29764
C	-0.454802635	-0.9885071382	 1.0426742891	-0.083714
O	-1.8670640678	-1.188563893	 0.8789199454	-0.251529
C	-0.973566044	-1.8913203355	 0.0018902199	-0.083684
C	-0.5451950783	-0.9275612393	-1.0939264748	 0.297585
C	-1.247893462	-0.6178469455	-2.3781059743	-0.31868
C	 0.1057710743	-1.2957724514	-2.3933259046	-0.333715
H	-0.3035713442	 1.9709569976	 1.0163573179	 0.118372
H	-0.3591781149	 2.0558385505	-0.8029854675	 0.114659
H	 1.8503856941	 0.8226619485	-0.9413552577	 0.112928
H	 1.9148306824	 0.7230641665	 0.8756177354	 0.114514
H	-0.0244764532	-1.1977891757	 2.0155570069	 0.103783
H	-1.0443694611	-2.9727150966	-0.0305970317	 0.103783
H	-2.1244418971	-1.2009287151	-2.6402617607	 0.118366
H	-1.2967863054	 0.4217585285	-2.686761515	 0.114653
H	 0.9661947524	-0.7184638112	-2.7170225358	 0.11294
H	 0.152686993	-2.3465550832	-2.6620983027	 0.114516
105.2947	190.9165	193.225	242.5475	287.3339	347.3384	506.2332	524.6165	588.8828	617.9961	771.0021	772.1453	820.6797	848.3217	868.5657	876.1059	898.3662	928.0187	960.4014	969.1083	981.6025	999.0933	1006.0268	1038.6894	1048.4102	1062.2789	1073.6877	1076.4597	1181.8907	1185.6726	1187.9734	1200.1817	1225.9175	1248.1632	1361.5952	1368.754	1418.868	1459.812	1468.3255	1498.2007	1512.8544	3120.9073	3122.1863	3126.8794	3126.9908	3174.5263	3188.833	3198.6155	3199.3438	3214.255	3215.2961
C1CC11C2OC2C11CC1	C1CC21[C@H]1O[C@H]1C12CC1	
InChI=1S/C8H10O/c1-2-7(1)5-6(9-5)8(7)3-4-8/h5-6H,1-4H2	InChI=1S/C8H10O/c1-2-7(1)5-6(9-5)8(7)3-4-8/h5-6H,1-4H2/t5-,6+
