19
gdb 36609	5.06517	0.78395	0.74594	1.8549	82.36	-0.2353	0.0575	0.2929	1543.45	0.157607	-385.814527	-385.805605	-385.804661	-385.848849	33.421	
C	-0.041222831	-1.1919892376	 0.0492534482	-0.439174
C	-0.0220037809	 0.0078278929	-0.0224370856	 0.295438
C	 0.0384639202	 1.4608649287	-0.1057139569	-0.356469
C	 1.4701779522	 2.012438936	 0.0926200777	-0.307773
C	 1.4914451433	 3.5060012489	 0.0340719458	 0.508194
C	 1.5910869846	 4.3707217651	-1.1876619383	-0.330886
C	 2.575720697	 4.5590600381	-0.046533397	-0.213433
C	 1.8489984192	 5.2116089681	 1.1212858684	-0.08395
O	 0.7907862455	 4.2157246728	 1.0712405692	-0.32905
H	-0.0747328211	-2.2511711676	 0.1126195028	 0.192224
H	-0.3454814204	 1.7932988435	-1.0782603806	 0.132455
H	-0.6175641657	 1.9056324699	 0.6519106782	 0.152655
H	 1.8535914975	 1.6735616191	 1.0609651867	 0.119423
H	 2.1312596585	 1.6087187538	-0.6810435046	 0.114673
H	 2.011085465	 3.8949089282	-2.0687194378	 0.115069
H	 0.8271867131	 5.1182888131	-1.3853330011	 0.113917
H	 3.6467323897	 4.4643177137	-0.1645836868	 0.102216
H	 2.3907209558	 5.1474713592	 2.0716585465	 0.109777
H	 1.4680238276	 6.2302757341	 0.9803235351	 0.104691
56.4092	82.959	101.3171	192.6379	261.7382	333.9869	359.9979	408.5612	433.518	503.2885	615.8058	638.5312	718.7534	742.3681	772.7631	838.8765	895.2028	947.2575	952.5714	969.3753	981.5075	992.2372	1015.8373	1035.0519	1044.5174	1072.4184	1123.7604	1141.1299	1173.6153	1232.8864	1262.432	1289.75	1314.5166	1342.8638	1367.7055	1412.1658	1470.283	1482.1682	1489.7844	1518.0743	2239.0842	3022.3145	3028.8871	3047.4765	3062.1589	3071.0209	3095.6613	3111.4322	3199.4177	3207.6743	3507.6491
C#CCCC12CC1CO2	C#CCC[C@]12C[C@H]1CO2	
InChI=1S/C8H10O/c1-2-3-4-8-5-7(8)6-9-8/h1,7H,3-6H2	InChI=1S/C8H10O/c1-2-3-4-8-5-7(8)6-9-8/h1,7H,3-6H2/t7-,8-/m0/s1
