18
gdb 124705	3.88427	0.95197	0.91162	5.871	72.41	-0.2476	0.0202	0.2678	1318.9163	0.1482	-435.273876	-435.264917	-435.263973	-435.308543	31.904	
C	 0.0098420368	 1.609564906	 0.0612554795	-0.394351
C	-0.0116482475	 0.0805219457	 0.061185663	 0.010858
C	 0.7679048454	-0.5194086489	 1.2395581489	-0.074359
O	 2.1115862779	-0.0985710402	 1.1039416783	-0.413262
N	-1.3748904748	-0.4501618707	 0.0502062808	-0.010288
C	-2.4020988444	-0.2004767271	 0.9193158879	 0.013395
N	-3.4671432336	-0.8918492148	 0.6006154113	-0.225337
N	-3.149990392	-1.6339661181	-0.5194374815	-0.228477
C	-1.908440919	-1.3567969544	-0.8231041807	 0.017258
H	 1.0454251022	 1.9535689418	 0.0412690047	 0.150861
H	-0.5170733846	 2.0055566084	-0.810464299	 0.132923
H	-0.4632052792	 2.0135005315	 0.9621175017	 0.123617
H	 0.462986245	-0.2802153186	-0.8569029496	 0.113954
H	 0.3242633466	-0.1729654241	 2.1867438148	 0.097114
H	 0.6747175403	-1.6150367944	 1.208093682	 0.106897
H	 2.6192357275	-0.4488386355	 1.8414059543	 0.298123
H	-2.3250116776	 0.4846272699	 1.7486220523	 0.139994
H	-1.3500571992	-1.7674582465	-1.6505579589	 0.141079
39.687	100.7749	107.5792	211.7723	229.9078	235.8613	287.7687	371.4561	396.3695	479.0646	664.1093	698.053	722.9342	818.2022	847.6834	880.8234	933.4156	959.4696	1013.9086	1031.2489	1088.1426	1093.0809	1124.1754	1161.4536	1207.4942	1230.8066	1244.0699	1260.207	1301.5533	1356.6803	1376.4725	1405.0965	1419.0675	1460.0899	1489.5207	1496.7065	1501.4	1521.5787	1544.908	2974.5291	3014.7818	3048.5909	3067.0461	3120.0357	3146.2372	3259.7376	3269.8025	3838.963
CC(CO)N1C=NN=C1	C[C@@H](CO)n1cnnc1	
InChI=1S/C5H9N3O/c1-5(2-9)8-3-6-7-4-8/h3-5,9H,2H2,1H3	InChI=1S/C5H9N3O/c1-5(2-9)8-3-6-7-4-8/h3-5,9H,2H2,1H3/t5-/m0/s1
