16
gdb 124155	6.33398	0.75886	0.68353	0.3939	86.92	-0.2273	-0.0133	0.2141	1634.432	0.124469	-396.919884	-396.910686	-396.909741	-396.957077	30.703	
C	-0.0034576284	 1.4529775541	 0.0267227987	-0.508622
C	 0.0153927578	-0.0005971237	 0.0097277567	 0.184962
C	 0.0399784161	-1.2058679555	-0.0044356595	-0.051842
C	 0.0319394561	-2.6192739211	-0.020216511	 0.198604
N	 1.1534331656	-3.3644130199	-0.0321992297	-0.308086
N	 0.7030297181	-4.6091904713	-0.0567883222	 0.127672
C	 1.5988118053	-5.7471036999	-0.0138681468	-0.312717
N	-0.6192604866	-4.7535139418	-0.0548485614	-0.209058
C	-1.0687222334	-3.5014362404	-0.03429154	-0.183145
H	 1.0140615846	 1.8583060251	 0.036467393	 0.155718
H	-0.5137675236	 1.8551074993	-0.8556861996	 0.152243
H	-0.5223324969	 1.8341936571	 0.91340517	 0.152249
H	 1.9138073896	-5.9507138247	 1.0140848898	 0.152077
H	 1.0649419312	-6.6099207933	-0.4101199097	 0.162234
H	 2.4759806838	-5.5263409826	-0.6225717172	 0.160657
H	-2.1234602294	-3.2804142116	-0.0379872609	 0.127054
9.1778	42.7066	87.1198	95.967	198.354	287.2503	305.7561	382.2688	463.1917	493.4339	547.371	674.0348	735.3978	740.0888	878.3719	970.5316	1012.7658	1051.2442	1051.8464	1054.7466	1110.0178	1146.5448	1211.5696	1342.1819	1347.8245	1399.5367	1413.2442	1436.7323	1447.5227	1474.5355	1476.0442	1483.3283	1504.186	1543.7016	2368.0419	3026.1905	3055.7173	3085.3842	3091.7406	3135.2073	3177.2898	3277.4973
CC#CC1=NN(C)N=C1	CC#Cc1nn(C)nc1	
InChI=1S/C6H7N3/c1-3-4-6-5-7-9(2)8-6/h5H,1-2H3	InChI=1S/C6H7N3/c1-3-4-6-5-7-9(2)8-6/h5H,1-2H3
