22
gdb 59833	5.04225	0.56606	0.53317	1.8756	94.38	-0.2281	0.0376	0.2657	2138.3995	0.192869	-367.168457	-367.157831	-367.156887	-367.207619	37.801	
C	-0.0400661849	 1.5591009212	-0.0210131142	-0.390998
C	 0.0346114732	 0.0290942511	 0.0419807301	 0.051049
C	 0.8091831781	-0.4438630115	 1.2765675616	-0.380398
C	-1.3931910745	-0.5726736012	 0.0001626349	-0.349509
C	-1.4181894724	-2.0275068593	-0.101371155	 0.016136
C	-1.4135485462	-3.2306999566	-0.1912398418	 0.137724
C	-1.431101835	-4.6606527678	-0.3261272619	-0.158683
C	-1.8787195429	-5.5165132544	 0.8137876635	-0.22732
N	-2.7251001956	-5.388780733	-0.3766402454	-0.30806
H	 0.9614708604	 2.0006529332	-0.0229964598	 0.113003
H	-0.5589559657	 1.9000725282	-0.9232922105	 0.111444
H	-0.5775627615	 1.9621494313	 0.8459088555	 0.112803
H	 0.5614963571	-0.328450504	-0.8521002289	 0.085313
H	 0.3288575074	-0.0900456993	 2.197154801	 0.108762
H	 0.8557753202	-1.53543088	 1.3196416494	 0.127245
H	 1.8333760964	-0.0574998572	 1.2674501876	 0.110693
H	-1.9375194389	-0.2573690029	 0.9018324097	 0.121698
H	-1.9379761355	-0.1391662925	-0.8490168634	 0.122982
H	-0.6902944098	-5.0736908617	-1.0063631347	 0.113877
H	-1.4260044089	-6.4944789411	 0.9518465855	 0.122793
H	-2.17383424	-5.011551558	 1.7287222914	 0.121181
H	-3.4745336412	-4.7262242847	-0.1908520745	 0.238264
3.1476	57.6666	71.4039	144.6913	166.9074	222.8341	247.7585	302.3428	324.733	350.2142	412.9276	483.683	515.3282	529.1158	729.6635	809.0696	816.828	873.6272	889.6811	930.8386	948.6667	961.1306	968.1505	994.4171	1083.9765	1120.9988	1126.3428	1138.8019	1156.3378	1190.9279	1217.9912	1255.6419	1257.4965	1297.4234	1309.3908	1365.5711	1368.4415	1397.6449	1401.2553	1422.1159	1468.5662	1487.6429	1492.9042	1503.022	1504.7516	1510.1919	2356.0289	3003.1046	3020.1053	3023.6387	3029.9154	3040.5193	3088.3387	3094.9283	3102.17	3112.8582	3115.472	3134.8333	3203.2491	3502.2325
CC(C)CC#CC1CN1	CC(C)CC#C[C@H]1CN1	
InChI=1S/C8H13N/c1-7(2)4-3-5-8-6-9-8/h7-9H,4,6H2,1-2H3	InChI=1S/C8H13N/c1-7(2)4-3-5-8-6-9-8/h7-9H,4,6H2,1-2H3/t8-/m0/s1
