18
gdb 33098	4.64688	0.88104	0.75102	0.6666	76.42	-0.2051	0.0112	0.2163	1524.1104	0.146533	-439.124288	-439.114976	-439.114032	-439.159668	32.552	
C	-0.0566385939	 1.4931158622	 0.0880575059	-0.38954
C	-0.0615330253	-0.023149295	 0.0401585693	-0.039903
O	 0.7410198282	-0.4865814175	 1.1343328588	-0.282543
C	 0.8653572612	-1.8149608987	 1.2697077981	 0.346236
C	 1.5717355945	-2.4726767543	 2.2257484738	-0.179117
O	 1.4174285061	-3.8193121389	 1.9763947775	-0.172579
C	 0.628249549	-3.8894380449	 0.8864194878	 0.396709
C	 0.2757837479	-5.235141423	 0.3639590841	-0.485767
N	 0.2678761865	-2.7287736588	 0.4211376842	-0.38645
H	 0.9612643617	 1.8814267653	-0.0080286561	 0.128255
H	-0.6594545367	 1.8937319801	-0.7323223928	 0.118797
H	-0.4738925409	 1.853173117	 1.0327285707	 0.128257
H	-1.0765849747	-0.4260291124	 0.1335146732	 0.114579
H	 0.3526576962	-0.3979068784	-0.9029035232	 0.114573
H	 2.1760892169	-2.1880173076	 3.0662845108	 0.141522
H	-0.256084104	-5.824000602	 1.1185224457	 0.146314
H	-0.3623474908	-5.1203053806	-0.5123761316	 0.154343
H	 1.1730045981	-5.7957520623	 0.0816065938	 0.146312
56.7885	59.3171	78.9217	139.3803	212.6592	243.7176	309.1169	354.3626	363.1535	498.379	645.3245	647.9631	677.1876	733.2011	770.6261	811.9765	914.6006	950.3713	1017.9116	1050.7414	1064.2736	1079.2485	1131.975	1133.2734	1182.6458	1229.8137	1292.9958	1342.2013	1364.9821	1394.8694	1412.8435	1419.2406	1475.6878	1481.5825	1483.1734	1497.8211	1523.3946	1609.7695	1662.1511	3032.1321	3043.4865	3045.4827	3069.0006	3097.2579	3120.4086	3123.5625	3157.0785	3314.4733
CCOC1=COC(C)=N1	CCOc1coc(C)n1	
InChI=1S/C6H9NO2/c1-3-8-6-4-9-5(2)7-6/h4H,3H2,1-2H3	InChI=1S/C6H9NO2/c1-3-8-6-4-9-5(2)7-6/h4H,3H2,1-2H3
