20
gdb 69332	3.04649	1.27644	1.0868	1.4614	85.6	-0.2466	0.0459	0.2925	1198.6581	0.169033	-365.949034	-365.939784	-365.93884	-365.982352	35.959	
C	 0.0536195943	 1.5540240831	-0.0125323839	-0.484751
C	-0.0439613198	 0.0605192931	 0.0707490524	 0.35561
C	-1.3443498652	-0.7586798019	 0.0143687263	-0.344893
C	-0.7103763737	-1.8016828981	 1.0200461218	 0.123353
C	-1.4004664143	-1.8044885127	 2.3888605951	-0.448044
C	-0.5456177284	-3.1513513747	 0.4977170817	 0.300795
C	-0.3978122723	-4.2560124017	 0.0434649264	-0.479945
C	 0.5816166505	-0.9362796719	 1.0059456323	-0.126265
N	 1.0973132119	-0.7537327895	-0.3398621914	-0.363225
H	 1.0712245347	 1.8814102908	 0.2151763	 0.133909
H	-0.1940693525	 1.9052505164	-1.0214564209	 0.122063
H	-0.6371226161	 2.0361574759	 0.6875365421	 0.114505
H	-2.2040241984	-0.2516108628	 0.4605302191	 0.107815
H	-1.6273638555	-1.1409887393	-0.9706939863	 0.103279
H	-2.4032185971	-2.2359831711	 2.3199476073	 0.127401
H	-0.8256675176	-2.39280237	 3.1106457478	 0.127469
H	-1.4871406216	-0.7822777176	 2.7712739251	 0.116885
H	-0.2684973145	-5.2350632236	-0.347053623	 0.195311
H	 1.2524419168	-0.8136992319	 1.8505036029	 0.090214
H	 0.8566360091	-1.5290079026	-0.9565478547	 0.228516
97.6995	140.9173	182.468	200.4143	249.3947	294.019	316.8468	333.2204	412.0311	455.1125	509.4643	569.5076	602.2576	619.0662	637.2024	672.776	794.8255	834.8942	892.0208	907.6293	943.0859	954.1705	992.6962	1016.1418	1058.186	1111.4198	1127.1037	1140.4317	1159.2956	1215.5079	1233.262	1255.599	1272.0683	1289.8166	1400.6627	1407.9665	1449.7311	1483.1508	1485.3661	1491.0701	1495.5099	1497.1473	2224.3063	3028.2982	3034.7668	3052.3138	3087.2166	3105.5725	3110.5233	3114.1856	3121.2314	3161.5941	3454.8017	3500.949
CC12CC(C)(C#C)C1N2	C[C@]12C[C@@](C)(C#C)[C@H]1N2	
InChI=1S/C8H11N/c1-4-7(2)5-8(3)6(7)9-8/h1,6,9H,5H2,2-3H3	InChI=1S/C8H11N/c1-4-7(2)5-8(3)6(7)9-8/h1,6,9H,5H2,2-3H3/t6-,7-,8+/m1/s1
