13
gdb 15614	3.63381	1.87513	1.25651	4.318	58.99	-0.2732	-0.0544	0.2188	907.5533	0.095297	-435.771982	-435.764557	-435.763612	-435.804598	25.024	
C	-0.069404566	 1.4665168498	-0.043365982	-0.342795
N	-0.122154284	 0.0171592934	-0.1031982702	-0.28061
C	 0.5040534163	-0.6020885965	-0.9951377243	 0.288138
O	 1.284579207	-0.0741784537	-1.9900566612	-0.247318
C	 1.8015155319	-1.1377204001	-2.7759694406	 0.027695
O	 1.317551372	-2.3541669915	-2.2389867011	-0.220174
C	 0.5230405329	-2.0991692596	-1.1550401365	 0.379741
O	-0.0141461261	-2.9442630774	-0.5136059107	-0.301411
H	 0.5445663311	 1.9334493885	-0.8211711379	 0.12851
H	-1.0914967029	 1.8544574828	-0.1117325988	 0.143807
H	 0.3130755849	 1.7599066359	 0.9402362184	 0.143806
H	 1.4556856805	-1.0309080283	-3.8097570345	 0.140305
H	 2.8958793924	-1.1278263932	-2.7313122107	 0.140305
61.3763	119.8622	155.0077	204.5625	205.0335	364.0162	530.9968	598.4004	641.8858	753.2855	790.7379	793.4261	977.2069	1047.0624	1079.6505	1102.9503	1127.546	1145.9987	1175.4462	1214.1851	1278.8475	1434.7643	1444.0105	1489.9351	1493.5493	1545.6182	1804.1009	1917.3434	3022.5113	3036.8691	3087.3984	3089.5205	3097.4415
CN=C1OCOC1=O	CN=C1OCOC1=O	
InChI=1S/C4H5NO3/c1-5-3-4(6)8-2-7-3/h2H2,1H3	InChI=1S/C4H5NO3/c1-5-3-4(6)8-2-7-3/h2H2,1H3
