17
gdb 123733	4.90904	0.98984	0.89274	3.846	74.03	-0.2633	-0.0358	0.2275	1290.1588	0.136956	-417.975802	-417.968216	-417.967272	-418.009411	28.113	
C	-0.1934517467	 1.4544476348	 0.0455323366	-0.213026
C	 1.2973235887	 1.4402733031	-0.3880281592	-0.237554
C	 1.5015816879	 0.1808263572	 0.4996416319	-0.076318
C	-0.0472917522	-0.0337759873	 0.4585350022	-0.218107
C	 2.4064314964	-0.904949258	 0.0444989899	 0.246498
C	 3.0345779679	-1.1381995191	-1.1390091937	-0.055604
O	 3.7326816603	-2.2697145794	-1.0567466392	-0.163921
N	 3.5216196917	-2.7678573939	 0.2661422193	-0.00589
N	 2.7636215106	-1.9641302425	 0.8624099053	-0.178233
H	-0.3541635559	 2.1012561741	 0.9125054847	 0.109485
H	-0.9384747892	 1.6994150103	-0.7137675909	 0.103192
H	 1.394181448	 1.2019245352	-1.4520190048	 0.100673
H	 1.9129297247	 2.3155848937	-0.1698328587	 0.1071
H	 1.7924955007	 0.4775707734	 1.5121161547	 0.099854
H	-0.5305688202	-0.3697106949	 1.3778158927	 0.11092
H	-0.3255802728	-0.709722438	-0.354992654	 0.106322
H	 3.07789169	-0.6049320386	-2.0738261468	 0.164609
24.8778	114.3949	142.3347	228.802	372.7505	415.0563	547.5037	630.2731	644.023	705.335	736.3464	788.4632	846.3363	869.5369	913.4236	934.5488	952.4135	981.9662	1009.0466	1036.2576	1062.4594	1120.6815	1150.8282	1201.1143	1220.9724	1245.9871	1257.2609	1258.2216	1282.4019	1285.3381	1316.633	1380.2263	1471.1372	1478.1888	1487.4938	1510.2433	1618.0664	3051.501	3057.5569	3063.3745	3065.2441	3106.3427	3115.3725	3128.4827	3287.7659
C1CC(C1)C1=CON=N1	C1CC(C1)c1conn1	
InChI=1S/C6H8N2O/c1-2-5(3-1)6-4-9-8-7-6/h4-5H,1-3H2	InChI=1S/C6H8N2O/c1-2-5(3-1)6-4-9-8-7-6/h4-5H,1-3H2
