15
gdb 50449	3.08504	1.38948	0.97429	5.6403	69.77	-0.2525	-0.0834	0.1691	1129.6506	0.113122	-453.994562	-453.986524	-453.985579	-454.027916	28.649	
N	 0.0443248584	 1.3459102479	-0.0717255761	-0.478941
C	 0.0265185088	 0.0791468491	-0.0497153457	 0.288933
N	-1.0956111445	-0.7528752528	 0.0106852495	-0.121471
C	-0.757965196	-2.1801401318	-0.1633118858	-0.194149
C	 0.7561340844	-2.2653754404	 0.0824887376	-0.348259
C	 1.2429143287	-0.833687014	-0.0738187195	 0.342616
O	 2.3725188261	-0.4384806437	-0.1798342188	-0.294632
C	-2.4184268716	-0.3616905489	 0.1678047499	 0.157059
O	-2.8176889538	 0.7644672429	 0.2849180758	-0.262357
H	 1.0277335314	 1.6342248351	-0.1083250808	 0.243494
H	-1.3345540735	-2.7882806047	 0.5372022838	 0.137495
H	-1.0084728422	-2.5073148875	-1.178907396	 0.137328
H	 0.9783426203	-2.5838632909	 1.1073658258	 0.15927
H	 1.2773562742	-2.9442297387	-0.5941585144	 0.153167
H	-3.0830497707	-1.2501352915	 0.1831218247	 0.080445
58.8505	98.684	190.4907	212.0615	229.0181	330.5644	413.5839	458.0716	537.6921	597.4374	667.3805	719.3858	733.9001	847.2094	910.1348	974.5021	1006.1403	1025.3123	1055.0327	1125.4291	1174.6488	1202.5867	1222.6678	1278.037	1292.9834	1352.1187	1429.6984	1448.4556	1458.7873	1526.8152	1718.9622	1836.034	1856.6138	2917.7916	3037.4489	3056.3051	3099.08	3128.4378	3426.3404
N=C1N(CCC1=O)C=O	[NH][C]1N(CCC1=O)C=O	
InChI=1S/C5H6N2O2/c6-5-4(9)1-2-7(5)3-8/h3,6H,1-2H2	InChI=1S/C5H6N2O2/c6-5-4(9)1-2-7(5)3-8/h3,6H,1-2H2
