21
gdb 87902	2.47124	1.42323	1.14283	1.6496	83.72	-0.2475	0.0151	0.2626	1177.574	0.182706	-387.090146	-387.081284	-387.08034	-387.123774	34.525	
C	-0.1508676722	 1.5216616965	 0.1252455523	-0.412553
C	-0.0495666505	 0.0128706834	 0.148073438	-0.027648
C	 1.2212203771	-0.6828288416	-0.2619836288	-0.344571
C	 0.7771430239	-0.7218735387	 1.1819430045	 0.297516
C	 1.5644324386	 0.0036110535	 2.2834427807	-0.348108
C	 1.4721560177	-0.9410432297	 3.4548681256	-0.068911
C	 0.7802421763	-2.0442161872	 3.1764779672	-0.106146
C	 0.2334506282	-2.0463948627	 1.7709539772	 0.011784
O	-1.1876127314	-2.1881973897	 1.7329527144	-0.423713
H	 0.8048968152	 1.9962897576	 0.3694359848	 0.11513
H	-0.4467694546	 1.8744758	-0.8688167988	 0.118427
H	-0.8961879715	 1.8890321155	 0.8405135206	 0.111652
H	-0.9679721437	-0.5030106524	-0.1187138009	 0.096956
H	 1.150893431	-1.5984201652	-0.8418745405	 0.107926
H	 2.0800022139	-0.0640210021	-0.5087364687	 0.100792
H	 2.6094419344	 0.1790795065	 1.9957654409	 0.1096
H	 1.1514783831	 0.9904454144	 2.533530158	 0.105926
H	 1.9390276419	-0.7204145644	 4.4093121005	 0.096648
H	 0.581558445	-2.8624839876	 3.8595383721	 0.097393
H	 0.5883068643	-2.9091782946	 1.1943456783	 0.089583
H	-1.5551848569	-1.4881272013	 2.2847298927	 0.272317
43.2888	153.4708	196.4314	222.4938	260.8641	278.979	346.9983	416.6697	440.6466	472.891	519.0557	564.8685	723.8422	768.4234	792.6098	810.1495	884.8485	906.6517	922.4511	968.9882	981.1773	993.4586	1022.2288	1038.6517	1052.5192	1070.93	1093.7008	1129.4884	1135.321	1181.5185	1194.4541	1231.8952	1258.7519	1275.0283	1289.5985	1345.3065	1371.4953	1407.6117	1427.4604	1428.9592	1486.5582	1488.5817	1493.8905	1505.9878	1688.4603	3009.322	3025.2886	3031.8311	3033.4089	3084.1324	3097.1073	3109.4056	3147.9727	3178.7007	3194.1786	3206.691	3792.9229
CC1CC11CC=CC1O	C[C@H]1C[C@]21CC=C[C@H]2O	
InChI=1S/C8H12O/c1-6-5-8(6)4-2-3-7(8)9/h2-3,6-7,9H,4-5H2,1H3	InChI=1S/C8H12O/c1-6-5-8(6)4-2-3-7(8)9/h2-3,6-7,9H,4-5H2,1H3/t6-,7+,8-/m0/s1
