17
gdb 38234	3.19401	2.08919	1.74563	0.6757	71.99	-0.228	0.0354	0.2633	818.543	0.136804	-421.658773	-421.652687	-421.651743	-421.688654	26.851	
C	 0.0057523712	 1.7869205009	-0.027050276	-0.203433
C	 1.4628166737	 1.458664999	 0.0862396451	 0.041685
O	 1.0423695231	 0.2583690255	 0.9325796181	-0.397593
C	-0.0069974616	 0.2205898068	-0.1247500136	 0.344129
C	-1.3466273637	-0.2039035639	-0.7282684378	-0.170925
O	-1.1017795873	 0.4753071143	-2.0159863956	-0.277241
C	 0.303745308	 0.3940419373	-2.3078892259	 0.04993
C	 1.6764638699	 0.9182581208	-1.3734312794	-0.144725
C	 0.9355289482	-0.3399296383	-1.2585091855	-0.08473
H	-0.4503085706	 2.0462957349	 0.9306042201	 0.102227
H	-0.3476578094	 2.4100630715	-0.8439166014	 0.1221
H	 2.2331713149	 2.0517998435	 0.5773415717	 0.087402
H	-1.4889926425	-1.2774910946	-0.8878632838	 0.116539
H	-2.2365788517	 0.2506163018	-0.2926575383	 0.12699
H	 0.4886118263	 0.3503222239	-3.3747924252	 0.111792
H	 2.5988196477	 1.0339503631	-1.9338799684	 0.087474
H	 1.2740425938	-1.3680751566	-1.1610972543	 0.088378
261.8004	337.556	380.9932	450.9898	491.8101	561.1361	582.5076	624.2134	680.5435	749.7404	755.7332	817.193	834.1751	842.1053	873.4807	887.8172	913.5439	953.0237	976.6783	992.5382	1029.4673	1068.1024	1075.9595	1113.1442	1133.4334	1176.6488	1193.0199	1212.2044	1220.7895	1236.1527	1266.0066	1272.7343	1286.4116	1307.1688	1420.7283	1500.2091	1505.5385	3051.0604	3080.9328	3130.4955	3133.2366	3140.3919	3167.686	3172.633	3188.2403
C1C2OC11COC3C2C13	C1[C@H]2O[C@]31CO[C@H]1[C@@H]2[C@@H]31	
InChI=1S/C7H8O2/c1-3-4-5-6(4)8-2-7(1,5)9-3/h3-6H,1-2H2	InChI=1S/C7H8O2/c1-3-4-5-6(4)8-2-7(1,5)9-3/h3-6H,1-2H2/t3-,4+,5-,6+,7-/m1/s1
