18
gdb 10695	2.39603	1.99858	1.56486	3.5202	72.78	-0.2367	0.0314	0.268	933.36	0.152934	-343.973198	-343.964543	-343.963599	-344.005913	31.868	
C	 0.1213690028	 1.3065846522	-0.3155763808	-0.337842
N	-0.025266411	-0.0848525005	 0.1031471468	-0.105779
C	 0.536678352	-0.3261861565	 1.4293871196	-0.337859
C	-1.3656795912	-0.580060645	-0.0411899826	 0.214023
C	-1.7869497188	-1.0491760284	-1.4222493951	-0.303451
C	-1.5301574097	-2.0586770328	-0.3434754782	-0.303447
C	-2.3825453771	 0.0481297094	 0.7891224266	 0.248293
N	-3.1395594322	 0.591158314	 1.4762625913	-0.359457
H	 1.1827709008	 1.5714321227	-0.3105467378	 0.12315
H	-0.2582559458	 1.4263401177	-1.3340267945	 0.12416
H	-0.4137551573	 2.0150328247	 0.3391737393	 0.121071
H	 0.0349884582	 0.2510634046	 2.2243988569	 0.121068
H	 0.4577762206	-1.3888743854	 1.6746708825	 0.12416
H	 1.5956709995	-0.0518683003	 1.4242079205	 0.123157
H	-2.8091697362	-0.8646080066	-1.7296417632	 0.138672
H	-1.0360638454	-0.9346395545	-2.1945857444	 0.135725
H	-0.6065798982	-2.6228116138	-0.3903667109	 0.135699
H	-2.3741392411	-2.5748001317	 0.0978860738	 0.138656
96.9928	134.7398	208.8076	236.9763	239.1474	245.8625	267.9531	367.7621	423.3836	451.8153	580.0821	618.9891	644.8431	779.6853	835.4117	929.8828	951.7146	957.9043	1029.2915	1063.4362	1069.0976	1095.0808	1125.1249	1189.0579	1197.2391	1220.0348	1249.5886	1291.0986	1337.7435	1442.6114	1452.1968	1469.0476	1480.831	1486.2573	1497.9367	1502.7432	1519.3326	2333.6563	2966.7834	2971.8961	3072.3507	3073.7803	3114.9934	3117.5043	3148.539	3151.9115	3238.0783	3251.1414
CN(C)C1(CC1)C#N	CN(C)C1(CC1)C#N	
InChI=1S/C6H10N2/c1-8(2)6(5-7)3-4-6/h3-4H2,1-2H3	InChI=1S/C6H10N2/c1-8(2)6(5-7)3-4-6/h3-4H2,1-2H3
