22
gdb 85924	2.57379	1.26124	1.06858	3.8018	82.75	-0.2346	0.037	0.2716	1265.379	0.19385	-404.418676	-404.409025	-404.40808	-404.452642	37.14	
C	-0.0876373425	 1.5889483126	 0.012911846	-0.402194
C	 0.0856139864	 0.0724922604	-0.0114418323	-0.102862
C	 0.8617304902	-0.5089090595	-1.2057974024	-0.249861
C	 1.5671270776	-1.7838057257	-0.6622693876	 0.274744
C	 0.6952543435	-3.0399479903	-0.8450144663	-0.409253
C	 2.946948615	-1.9991893565	-1.2926246884	-0.423591
N	 1.6932464452	-1.439009688	 0.7559787365	-0.327857
C	 0.8654602956	-0.4485119742	 1.2061415751	 0.413896
O	 0.7635628803	-0.0647686365	 2.3522331517	-0.393601
H	 0.8769170627	 2.0952886305	-0.1017060689	 0.116794
H	-0.7466840172	 1.928131109	-0.7920668141	 0.109471
H	-0.5146810381	 1.8966498238	 0.9708521144	 0.141536
H	-0.9069906318	-0.3946082012	 0.0520038483	 0.099687
H	 0.2308423408	-0.7349507273	-2.0691414723	 0.102072
H	 1.6212313304	 0.2110416028	-1.5305175239	 0.102182
H	 0.5963389729	-3.294551973	-1.9053851565	 0.117458
H	 1.1414433091	-3.8996573818	-0.3335938859	 0.11273
H	-0.3070704606	-2.8878776533	-0.4335097868	 0.121052
H	 3.5921841368	-1.1337816404	-1.1174946402	 0.122376
H	 3.4392180108	-2.8849833581	-0.8754007662	 0.112277
H	 2.8549353034	-2.1503659679	-2.3730059804	 0.120792
H	 2.2040067395	-2.0093817654	 1.4131449601	 0.242153
89.5713	95.0716	208.1635	231.4476	241.5572	260.2481	305.8836	318.714	341.1692	389.4925	465.3464	510.1443	532.4176	558.485	614.3781	704.9313	784.5921	814.5435	905.2471	918.0701	936.4676	964.4947	976.5828	1012.4667	1052.5729	1091.4813	1134.1248	1171.8967	1213.573	1230.5921	1252.6353	1287.2463	1311.4824	1331.2052	1369.6181	1400.8911	1408.6186	1411.6773	1423.245	1480.4952	1484.231	1492.6937	1498.4454	1500.1017	1504.1569	1506.2385	1822.1771	3013.8188	3028.6893	3033.5793	3036.5996	3044.7591	3094.3749	3099.0108	3102.5787	3104.3412	3110.2545	3116.4532	3124.0643	3623.0373
CC1CC(C)(C)NC1=O	C[C@H]1CC(C)(C)NC1=O	
InChI=1S/C7H13NO/c1-5-4-7(2,3)8-6(5)9/h5H,4H2,1-3H3,(H,8,9)	InChI=1S/C7H13NO/c1-5-4-7(2,3)8-6(5)9/h5H,4H2,1-3H3,(H,8,9)/t5-/m0/s1
