17
gdb 70830	2.36857	1.72545	1.48627	3.5095	68.22	-0.2212	0.06	0.2812	970.1615	0.132768	-458.869572	-458.860959	-458.860014	-458.902086	33.133	
C	 0.0317589694	 1.4365660851	-0.0897980703	-0.532674
C	 0.0116226324	-0.0544535813	-0.0213994103	 0.36483
O	 0.5634198635	-0.8358559363	-1.1297096863	-0.354766
C	 0.1127658832	-1.8493809279	-0.1941317285	-0.085154
C	 0.5362452959	-1.0336253155	 1.0806400828	 0.342355
O	 1.7764036538	-0.9177208631	 1.6587045802	-0.466208
C	-0.8507522185	-1.1723511624	 1.7536205552	-0.422311
C	-1.167010474	-1.0490336226	 0.2434279918	 0.342367
O	-2.383741876	-0.9553549603	-0.3861565507	-0.46621
H	 1.0603821045	 1.7992317638	-0.1729266816	 0.142909
H	-0.5360252414	 1.7848091918	-0.9574675498	 0.142909
H	-0.415457213	 1.8653955275	 0.8123286889	 0.129539
H	 0.2453786753	-2.9020817344	-0.4445468779	 0.088371
H	 1.9586574309	-1.7123040251	 2.1719198631	 0.289322
H	-1.0737638039	-2.1354038295	 2.2250399092	 0.087712
H	-1.1710519752	-0.343080228	 2.3899786791	 0.107685
H	-2.8898104969	-1.756145702	-0.2112341447	 0.289322
170.3132	178.0012	211.1638	216.5988	225.643	250.181	321.7249	324.3454	457.4329	510.9925	564.9264	612.1996	668.5132	672.499	748.6356	796.3714	834.8145	922.0622	927.2305	960.7701	1026.2413	1053.2645	1078.4371	1103.4089	1125.0535	1133.4163	1151.4552	1256.0744	1258.8616	1289.7028	1353.1523	1361.3401	1408.5069	1453.4845	1472.4747	1492.8816	1527.8358	3041.618	3043.2904	3106.8148	3116.4825	3119.4699	3119.8932	3805.0967	3805.8024
CC12OC3C1(O)CC23O	C[C@@]12O[C@H]3[C@]1(O)C[C@@]23O	
InChI=1S/C6H8O3/c1-4-5(7)2-6(4,8)3(5)9-4/h3,7-8H,2H2,1H3	InChI=1S/C6H8O3/c1-4-5(7)2-6(4,8)3(5)9-4/h3,7-8H,2H2,1H3/t3-,4+,5+,6-
