20
gdb 83801	2.58915	1.67864	1.41983	2.5845	77.6	-0.2124	0.0661	0.2785	1006.7008	0.173853	-403.103359	-403.095852	-403.094908	-403.134812	31.043	
O	 0.2160701952	 1.3871048303	-0.0331692724	-0.408271
C	 0.0726440281	-0.0024778301	-0.0033885345	 0.068133
C	-0.4398969401	-0.7046725717	 1.2348009946	-0.096593
C	-0.9127636564	 0.1030069456	 2.4321214526	-0.252709
C	-2.4505784348	 0.0689461656	 2.5717251374	-0.131616
N	-3.2303417511	 0.4252904746	 1.3858680921	-0.102091
C	-2.7681801087	 1.5452438185	 0.5680434487	-0.261161
C	-2.6142190884	 0.1459909413	 0.0729444097	-0.012866
C	-1.3095326894	-0.5985993904	-0.0169826392	-0.067942
H	 1.0320640922	 1.6079911925	 0.4291514654	 0.28992
H	 0.8168359217	-0.5361578434	-0.5946167656	 0.086475
H	-0.013017849	-1.6778161667	 1.456263539	 0.083004
H	-0.4718019171	-0.2974055357	 3.3501359215	 0.098311
H	-0.569700442	 1.1401639968	 2.3516238742	 0.099522
H	-2.7583966714	-0.9454008173	 2.8560388451	 0.100091
H	-2.7621782853	 0.736621801	 3.3828830907	 0.101568
H	-3.5594448105	 2.1683648154	 0.1578322776	 0.104456
H	-1.8679705062	 2.0808051004	 0.8433107851	 0.128979
H	-3.3409352468	-0.1951840507	-0.6610409014	 0.085936
H	-1.39154724	-1.5000462458	-0.6160752507	 0.086856
155.7641	186.3659	290.2725	306.1125	317.5734	367.8078	453.5255	475.5914	597.3916	621.6831	683.5592	700.3325	758.1467	771.3863	805.2631	870.8948	926.9756	951.1426	977.0076	1004.4845	1036.2383	1051.2295	1068.6991	1102.1967	1117.4582	1133.2883	1147.5703	1149.5599	1180.5871	1236.7944	1256.6221	1276.4066	1289.1341	1325.6354	1345.6105	1373.3373	1386.9191	1393.8925	1410.9511	1463.5696	1482.2086	1489.1251	1522.7971	3021.4488	3040.3736	3065.7963	3082.3471	3093.8812	3111.2732	3117.9387	3145.8882	3156.9157	3218.0361	3797.7855
OC1C2CCN3CC3C12	O[C@H]1[C@H]2CCN3C[C@H]3[C@@H]12	
InChI=1S/C7H11NO/c9-7-4-1-2-8-3-5(8)6(4)7/h4-7,9H,1-3H2	InChI=1S/C7H11NO/c9-7-4-1-2-8-3-5(8)6(4)7/h4-7,9H,1-3H2/t4-,5-,6-,7-,8?/m0/s1
