15
gdb 9322	6.49471	0.78402	0.70871	4.2829	63.53	-0.2799	-0.086	0.1939	1476.6082	0.116376	-399.813562	-399.804462	-399.803517	-399.848465	30.278	
O	 0.0064057301	 1.4188499285	 0.009542907	-0.416746
C	 0.0419683059	 0.0028827735	 0.0016821105	-0.081087
C	-1.3999344364	-0.4895179006	 0.0128638201	-0.175661
C	-1.4862989427	-2.0137942707	 0.0056516438	-0.313215
C	-2.9046022021	-2.5328979675	 0.0164952093	 0.287074
O	-3.8994707379	-1.8548999578	 0.0293563621	-0.257938
C	-3.0154148649	-4.011501886	 0.0093016363	 0.228481
N	-3.0855895802	-5.1656439784	 0.0034471682	-0.293899
H	 0.9106120937	 1.7461369346	 0.0024001526	 0.290033
H	 0.5612114884	-0.3814439538	-0.892283475	 0.088214
H	 0.5781799061	-0.3908596177	 0.8814224134	 0.088212
H	-1.9081625047	-0.0902315739	 0.895957773	 0.130686
H	-1.9249089828	-0.0809889686	-0.8560939823	 0.130688
H	-0.9869661701	-2.4492531862	-0.8725117479	 0.147588
H	-0.9703186825	-2.4584260655	 0.869478569	 0.147571
53.6433	79.4384	97.418	133.0995	186.8743	260.6822	275.5912	298.4344	384.2089	515.0085	571.1545	613.6503	759.9664	819.7843	873.2686	1018.4582	1044.2256	1079.0793	1099.8671	1104.5684	1207.1413	1242.6187	1292.8945	1310.4903	1311.6063	1392.8328	1442.2503	1470.246	1493.8528	1528.217	1802.689	2337.257	2955.2347	2980.1757	3010.3921	3036.6081	3062.6287	3106.4463	3831.1878
OCCCC(=O)C#N	OCCCC(=O)C#N	
InChI=1S/C5H7NO2/c6-4-5(8)2-1-3-7/h7H,1-3H2	InChI=1S/C5H7NO2/c6-4-5(8)2-1-3-7/h7H,1-3H2
