19
gdb 39976	3.62774	1.58835	1.4391	1.4529	78.14	-0.215	0.0852	0.3003	970.7859	0.161018	-385.842125	-385.835334	-385.83439	-385.873007	28.747	
C	-0.0257552323	 1.5032037963	 0.0365509258	-0.337127
C	 1.3030002651	 0.7555322171	 0.0263335655	-0.347294
C	-0.0019568222	 0.0153084667	-0.0549029091	 0.487198
O	-0.4340720854	-0.7090690707	 1.0910947518	-0.30602
C	-0.640515761	-2.0399556296	 0.6613534249	 0.099377
C	-1.712597304	-2.3247180691	-0.3743759301	-0.099294
C	-1.9901265374	-1.0494985472	-1.1702972334	-0.235822
C	-0.4442844892	-0.8057043898	-1.2441368417	-0.147287
C	-0.2228494582	-2.2664781024	-0.7469165677	-0.123723
H	-0.3467098217	 1.9322489395	 0.9790582387	 0.125092
H	-0.3075812752	 2.0748360439	-0.84168958	 0.112257
H	 1.9278594144	 0.8205184829	-0.8586277393	 0.108457
H	 1.8414924317	 0.6941736895	 0.9652170329	 0.120876
H	-0.4585323079	-2.7739291603	 1.4366308659	 0.100152
H	-2.3608256019	-3.1904716193	-0.2975516596	 0.080807
H	-2.4051108633	-1.2751046915	-2.1556654933	 0.099259
H	-2.589405641	-0.2683738508	-0.6910987674	 0.101597
H	-0.0288582774	-0.495182603	-2.2011779401	 0.073428
H	 0.4675781369	-3.0117756623	-1.1178408037	 0.088068
121.3533	235.7414	280.2537	349.8278	436.2232	506.8531	556.5211	724.9303	741.5921	754.1995	764.3091	787.2774	818.5288	864.7101	873.5526	914.8534	947.9961	965.4205	972.1828	981.713	1001.6005	1021.1515	1029.2685	1046.4106	1063.3868	1071.4601	1082.85	1128.0564	1147.3217	1186.4227	1189.4827	1218.5529	1241.0933	1249.2537	1290.8012	1324.0179	1390.6477	1402.6258	1450.2496	1492.4285	1502.2443	3045.3758	3102.8232	3128.4793	3130.2655	3133.2637	3171.0801	3192.3342	3205.505	3213.9702	3228.1262
C1CC11OC2C3CC1C23	C1CC21O[C@H]1[C@H]3C[C@@H]2[C@@H]13	
InChI=1S/C8H10O/c1-2-8(1)5-3-4-6(5)7(4)9-8/h4-7H,1-3H2	InChI=1S/C8H10O/c1-2-8(1)5-3-4-6(5)7(4)9-8/h4-7H,1-3H2/t4-,5+,6-,7-/m0/s1
