13
gdb 131625	1.99251	1.74602	0.9454	4.8737	63.75	-0.2636	-0.0666	0.197	1129.7747	0.087107	-489.857836	-489.849546	-489.848601	-489.891361	28.67	
O	 0.3620422885	 0.9332401937	-0.7758990966	-0.38775
C	-0.0358778207	 0.1092402655	 0.2955398838	-0.17415
C	-1.3931526562	-0.5117664329	 0.1056406541	 0.331481
C	-2.175647202	-0.7270909454	-1.0109016292	 0.04747
C	-1.9467069932	-0.4305371146	-2.431326001	 0.064315
O	-2.7389485582	-0.6848414074	-3.3069480423	-0.258763
N	-3.3243640499	-1.3499901777	-0.5489743492	-0.104276
N	-3.3171727913	-1.5295365562	 0.6684447425	 0.003945
O	-2.0019120817	-0.9642421651	 1.1747997871	-0.236457
H	-0.1505676944	 1.7482337974	-0.7437286423	 0.30089
H	 0.7063726525	-0.6946273559	 0.3626761685	 0.164857
H	-0.0265785295	 0.6316735205	 1.2614451251	 0.143644
H	-0.9709867139	 0.049263128	-2.6333252406	 0.104794
66.7743	135.3613	164.6446	206.2275	233.006	297.7978	328.0226	358.2265	417.5976	552.1336	642.5362	688.3161	720.9261	811.5571	971.0112	977.9523	1051.8604	1093.7611	1142.3822	1211.9353	1279.6695	1353.4631	1401.5465	1413.2716	1430.1962	1478.2157	1558.0269	1574.3923	1798.5248	2967.6511	3022.8216	3071.9052	3813.6433
OCC1=C(C=O)N=NO1	OCc1c(C=O)nno1	
InChI=1S/C4H4N2O3/c7-1-3-4(2-8)9-6-5-3/h1,8H,2H2	InChI=1S/C4H4N2O3/c7-1-3-4(2-8)9-6-5-3/h1,8H,2H2
