18
gdb 25702	4.53338	0.8173	0.70954	2.1932	86.99	-0.1946	0.0486	0.2432	1592.5653	0.148024	-364.829375	-364.820142	-364.819198	-364.865496	32.787	
C	 0.0842000929	 1.4079725716	-0.6236020919	-0.498382
C	 0.0311693828	 0.0045434745	-0.2364687133	 0.076033
C	 0.0080139606	-1.1502434049	 0.105741963	 0.043199
C	-0.0437262276	-2.5625694197	 0.4830364289	-0.471199
C	-1.4107864647	-3.1772035806	 0.3274569621	 0.325483
C	-1.9843619991	-4.2729967745	 0.9346442948	-0.236965
C	-3.2797802181	-4.4473898921	 0.3708166143	-0.142982
C	-3.4589139165	-3.4516827926	-0.5607450729	-0.097998
N	-2.3156522961	-2.6933209106	-0.5814374233	-0.274909
H	 0.8692371089	 1.9385594767	-0.0736879495	 0.152103
H	 0.2956336539	 1.5220328124	-1.6925628606	 0.147086
H	-0.863996155	 1.9160545621	-0.416162263	 0.148705
H	 0.6942652815	-3.1144286352	-0.1187389351	 0.141313
H	 0.2788800244	-2.6818734345	 1.5245063569	 0.143972
H	-1.5217688469	-4.8830076654	 1.6961396787	 0.085503
H	-3.9967567857	-5.2131903487	 0.6244125919	 0.089295
H	-4.2960696482	-3.212907989	-1.1965396572	 0.111254
H	-2.1633321672	-1.8566436397	-1.1194435238	 0.258488
27.7097	33.8163	75.6021	194.8245	217.9767	257.4654	335.5165	378.5531	460.4313	528.3976	629.2661	647.2252	706.5936	719.1969	773.6191	788.9972	844.7311	898.6908	942.8748	974.5693	1052.389	1053.3515	1055.3466	1110.4861	1143.9262	1160.1958	1210.7942	1252.7366	1282.738	1329.4677	1415.8411	1436.4739	1462.9642	1478.9206	1479.7716	1479.8131	1495.0503	1608.1412	2370.1503	2987.5661	3027.5841	3044.693	3087.6208	3089.1572	3237.3551	3250.7578	3271.1191	3664.3746
CC#CCC1=CC=CN1	CC#CCc1ccc[nH]1	
InChI=1S/C8H9N/c1-2-3-5-8-6-4-7-9-8/h4,6-7,9H,5H2,1H3	InChI=1S/C8H9N/c1-2-3-5-8-6-4-7-9-8/h4,6-7,9H,5H2,1H3
