15
gdb 126072	3.9569	1.18565	1.06689	2.3693	68.01	-0.2791	-0.0385	0.2406	1126.3912	0.11274	-453.924672	-453.917044	-453.9161	-453.957576	27.461	
C	-0.0144293625	 1.5274057117	-0.2333079793	-0.440231
C	-0.0010759097	 0.0502270935	 0.0513104701	 0.086582
O	 1.246850367	-0.6381242257	-0.0182048405	-0.238566
C	 0.6028562516	-0.5802866735	 1.251620048	-0.079443
C	 1.2742117254	 0.1671784285	 2.3302063824	 0.442052
N	 1.1033188545	-0.0159390043	 3.6086180449	-0.320162
C	 1.9440420223	 0.9295146881	 4.1386337361	 0.037456
N	 2.5994245967	 1.646841703	 3.2686756626	-0.107004
O	 2.1525019506	 1.135327252	 2.0420553022	-0.194832
H	 0.8192212019	 2.0388420809	 0.2488311215	 0.158234
H	 0.0541245483	 1.6941562188	-1.3130886575	 0.138611
H	-0.9547447026	 1.9678112189	 0.1143055923	 0.130861
H	-0.8280319115	-0.5128837575	-0.3865323888	 0.106496
H	 0.178664739	-1.5148691716	 1.6138569982	 0.128075
H	 2.0738761089	 1.0826788171	 5.2001294579	 0.15187
57.2335	132.3952	168.9592	197.0833	284.4197	381.5226	450.7898	496.0708	655.8894	709.0294	780.1613	798.1893	861.632	914.6838	932.9371	975.9824	987.2731	1020.5219	1031.5731	1086.6512	1158.5459	1169.9778	1186.1581	1255.7054	1284.3673	1350.7395	1368.1196	1414.0791	1447.0148	1489.6054	1501.4406	1521.9074	1616.5089	3045.8352	3090.2705	3106.5812	3138.1667	3156.4941	3262.6125
CC1OC1C1=NC=NO1	C[C@H]1O[C@H]1c1ncno1	
InChI=1S/C5H6N2O2/c1-3-4(8-3)5-6-2-7-9-5/h2-4H,1H3	InChI=1S/C5H6N2O2/c1-3-4(8-3)5-6-2-7-9-5/h2-4H,1H3/t3-,4-/m1/s1
