24
gdb 118110	2.54983	0.86703	0.7045	2.5274	86.4	-0.2203	0.0781	0.2984	1678.0295	0.215394	-405.510819	-405.4998	-405.498856	-405.547478	39.879	
C	-0.2167953494	 1.796069741	-0.2706981142	-0.396439
C	 0.0080088808	 0.2951523059	-0.0188834495	-0.011057
C	-1.3115831368	-0.4814210172	 0.1484213743	-0.16852
C	-2.1456407914	-0.07024751	 1.356407049	-0.086774
O	-3.2406441116	-0.9712742436	 1.4449979689	-0.420559
C	 0.8132779123	-0.2880703027	-1.1708626152	 0.032519
C	 2.29827744	-0.1635099182	-1.2285253594	-0.266928
N	 1.67131703	-1.4717023894	-1.0792435142	-0.090775
C	 1.8549737391	-2.1642408757	 0.1867466859	-0.315832
H	 0.7372636982	 2.3154093664	-0.4022443109	 0.116659
H	-0.8097195202	 1.9536943223	-1.1794828924	 0.116286
H	-0.7459304729	 2.2750567423	 0.5581278967	 0.113479
H	 0.5886320856	 0.1930068536	 0.9065362692	 0.06985
H	-1.9228041471	-0.3712385764	-0.7567095995	 0.102662
H	-1.097511646	-1.5513884503	 0.2465135193	 0.112957
H	-1.52383956	-0.109722155	 2.2671615477	 0.081109
H	-2.4996239924	 0.9661575131	 1.2491466077	 0.086934
H	-3.8015453685	-0.6913711122	 2.1740858381	 0.284613
H	 0.2739604676	-0.2487608537	-2.119119067	 0.084377
H	 2.8166513034	 0.0207000234	-2.1664537393	 0.110284
H	 2.7859396449	 0.2657689839	-0.3520397815	 0.098649
H	 1.9186528117	-1.509366296	 1.0704417819	 0.098225
H	 1.0335824341	-2.8713116658	 0.3413599145	 0.12594
H	 2.7858617586	-2.7383341856	 0.1337758998	 0.12234
57.1244	66.728	101.3878	128.5297	189.2786	224.1365	240.1568	261.1237	269.2049	323.6233	352.8465	381.4474	392.1497	530.3721	547.5743	750.1676	787.8211	823.6529	889.6123	928.2434	970.4605	978.5609	1020.6155	1035.6564	1067.0838	1088.51	1112.9028	1124.5786	1133.0471	1164.3373	1174.4096	1199.9276	1203.7659	1235.6958	1244.8249	1291.0592	1314.8825	1340.092	1344.2727	1365.7021	1410.2909	1428.294	1450.7844	1461.368	1486.3678	1491.8834	1499.2366	1502.0436	1505.2895	1512.763	1528.9404	2954.8963	2969.8791	2996.2257	3025.9776	3030.2209	3035.5844	3063.6946	3074.9583	3077.8662	3084.7712	3098.6834	3099.1444	3109.0577	3163.085	3829.9898
CC(CCO)C1CN1C	C[C@@H](CCO)[C@H]1CN1C	
InChI=1S/C7H15NO/c1-6(3-4-9)7-5-8(7)2/h6-7,9H,3-5H2,1-2H3	InChI=1S/C7H15NO/c1-6(3-4-9)7-5-8(7)2/h6-7,9H,3-5H2,1-2H3/t6-,7+,8?/m0/s1
