17
gdb 34988	2.69426	1.69662	1.44803	3.391	75.12	-0.242	0.0051	0.2471	954.9823	0.138505	-380.839897	-380.832826	-380.831882	-380.871305	28.129	
N	-0.3506834952	-1.169779082	-0.3118399226	-0.351917
C	-0.1937880435	-0.0408331779	-0.1088181831	 0.307632
C	-0.039162396	 1.3810398118	 0.0390204469	-0.168217
C	 0.5350142719	 2.0902408291	 1.234482673	-0.046709
C	 1.3413002804	 1.4415412328	 2.3318987473	-0.049041
C	 1.6827934429	-0.0304131751	 2.3302951448	-0.320286
C	 2.6239708148	 0.9490295765	 1.6846784894	-0.032948
C	 2.4925900034	 1.2339638403	 0.1841894283	-0.20303
N	 1.2744457882	 2.06595587	-0.0362777681	-0.10974
H	-0.8075369875	 1.9119418849	-0.5209495642	 0.139649
H	 0.0572386208	 3.0322704612	 1.4927470261	 0.106315
H	 1.3525418807	 1.9704634551	 3.2772688388	 0.097545
H	 1.9887371937	-0.4396119966	 3.2877353268	 0.117003
H	 1.1241383746	-0.7241921372	 1.7188988196	 0.161574
H	 3.5878778566	 1.1294185126	 2.1470908199	 0.095624
H	 3.3427563977	 1.8268292434	-0.1628348599	 0.12318
H	 2.4516869863	 0.3267247112	-0.4280377327	 0.133366
119.8198	162.5207	224.6657	314.9704	390.5647	437.2838	599.3299	617.383	667.3646	678.1055	728.7205	776.9701	808.2128	818.7229	873.7489	903.5529	947.7249	982.0111	1022.1421	1038.8935	1078.6832	1083.2489	1092.7587	1111.6623	1130.4762	1136.228	1204.5991	1240.9564	1282.032	1328.4432	1340.5293	1372.1494	1374.8431	1407.5623	1495.7478	1506.5158	2340.9077	3052.7331	3095.1328	3117.1838	3135.6666	3147.0511	3171.0371	3185.6715	3252.0829
N#CC1C2C3CC3CN12	N#C[C@H]1[C@H]2[C@H]3C[C@H]3CN12	
InChI=1S/C7H8N2/c8-2-6-7-5-1-4(5)3-9(6)7/h4-7H,1,3H2	InChI=1S/C7H8N2/c8-2-6-7-5-1-4(5)3-9(6)7/h4-7H,1,3H2/t4-,5-,6-,7+,9?/m0/s1
