22
gdb 88206	3.27382	1.19983	1.03577	2.0953	82.78	-0.2224	0.0792	0.3016	1249.7631	0.195641	-404.326133	-404.317567	-404.316623	-404.358971	33.692	
C	-0.2132732297	 1.4291255173	-0.155881016	-0.315142
N	 0.0414568185	 0.0079647064	 0.0295339145	-0.133561
C	 1.4062643345	-0.4748145499	-0.1752150547	-0.292252
C	 0.7997781746	-0.460893514	 1.187864616	 0.339412
C	 1.3413336235	 0.4682813449	 2.2635973356	-0.288362
C	 2.3100830773	-0.3106606548	 3.1713185867	-0.208305
C	 1.660933512	-1.6076489948	 3.6594833396	-0.062181
O	 1.2291086553	-2.4145783816	 2.577810245	-0.242325
C	 0.261817981	-1.7546032632	 1.7781565046	-0.131733
H	 0.6352290448	 2.085725425	 0.0910259764	 0.100123
H	-0.4743797121	 1.601843148	-1.2048771935	 0.124427
H	-1.0695403103	 1.7291930636	 0.4569539188	 0.121781
H	 1.5096762425	-1.4026006787	-0.7331179268	 0.113104
H	 2.1785641704	 0.266242676	-0.3825776042	 0.100719
H	 1.8398273765	 1.3411102752	 1.8340413396	 0.098476
H	 0.5031447886	 0.8424092192	 2.8693819595	 0.097958
H	 3.2186050617	-0.5610370704	 2.6111970177	 0.107841
H	 2.6099406426	 0.30108827	 4.0299746288	 0.093308
H	 2.3695274377	-2.2141230227	 4.2310846784	 0.104938
H	 0.8070362039	-1.372685233	 4.3203274577	 0.081209
H	-0.6395540289	-1.5320495081	 2.3773247717	 0.08067
H	-0.0244926945	-2.4471990644	 0.9835438645	 0.109893
100.9958	162.2559	198.5708	220.8013	274.1533	311.4802	373.37	404.1415	428.4507	476.8854	494.4495	584.9102	699.6111	804.6517	865.521	880.6561	908.789	920.3058	949.016	982.4555	1018.2483	1044.2366	1054.7098	1083.7117	1118.0056	1125.7071	1153.6356	1178.3307	1196.9633	1215.5629	1228.1744	1270.0322	1300.7156	1322.8195	1353.4451	1370.8837	1375.5015	1414.4467	1426.1265	1450.2625	1475.0011	1482.2393	1488.5575	1493.1423	1500.1992	1502.8473	1516.9758	2943.0887	2949.3503	2981.678	3005.8263	3031.9793	3065.8351	3076.1323	3080.0584	3083.3604	3087.7966	3099.7386	3103.3282	3166.5594
CN1CC11CCCOC1	CN1C[C@]21CCCOC2	
InChI=1S/C7H13NO/c1-8-5-7(8)3-2-4-9-6-7/h2-6H2,1H3	InChI=1S/C7H13NO/c1-8-5-7(8)3-2-4-9-6-7/h2-6H2,1H3/t7-,8?/m1/s1
