16
gdb 133125	2.48565	1.4906	0.93723	0.7561	74.68	-0.2346	-0.0011	0.2336	1174.6168	0.124684	-445.913329	-445.905364	-445.904419	-445.946443	29.73	
O	 0.0243894827	 1.431879703	 0.0076485554	-0.421731
C	 0.0181618226	 0.0157460608	 0.0013276247	-0.1665
C	-1.4078826471	-0.4765692109	 0.0123985587	 0.126226
C	-2.5064500935	 0.3806978543	 0.0234647597	-0.176121
C	-3.8055840267	-0.1254165435	 0.0332282991	-0.115702
C	-4.022171995	-1.5003021435	 0.0320248828	-0.108397
C	-2.937829849	-2.3759278638	 0.0210492246	-0.233211
C	-1.6589682936	-1.8466268763	 0.011489267	 0.239866
F	-0.6034758231	-2.68054421	 0.000816227	-0.087049
H	 0.9396722525	 1.7240635226	 0.0012631191	 0.293031
H	 0.5328643127	-0.3834456171	-0.887243327	 0.109479
H	 0.5493737965	-0.3915698287	 0.8763331302	 0.109481
H	-2.3254647451	 1.448031711	 0.0244118618	 0.124572
H	-4.6480983723	 0.5573129712	 0.0417913708	 0.096625
H	-5.0310959831	-1.8980080164	 0.0396030403	 0.101708
H	-3.0658063683	-3.4520333326	 0.019797666	 0.107724
48.5645	171.7265	199.9574	217.2676	273.2415	327.2284	452.4893	516.9456	525.5144	550.7728	596.7313	720.5796	776.2753	778.3381	844.9568	877.6811	936.3436	971.5787	1042.5568	1054.7841	1076.7824	1126.7133	1174.5758	1200.9671	1213.7054	1251.6889	1278.1591	1301.5269	1352.5142	1458.0961	1486.4714	1507.362	1527.9463	1628.9108	1655.4908	2969.3201	2987.8174	3179.3792	3194.1568	3207.1925	3221.4992	3845.9533
OCC1=CC=CC=C1F	OCc1ccccc1F	
InChI=1S/C7H7FO/c8-7-4-2-1-3-6(7)5-9/h1-4,9H,5H2	InChI=1S/C7H7FO/c8-7-4-2-1-3-6(7)5-9/h1-4,9H,5H2
