21
gdb 58051	1.70936	1.56655	0.95984	1.7483	84.49	-0.2527	0.054	0.3067	1313.0251	0.179627	-387.039388	-387.029053	-387.028109	-387.074594	38.459	
C	-0.1370725485	 1.5395576048	 0.0978810556	-0.416058
C	 0.0488316193	 0.0253598994	-0.0051268681	 0.129865
O	 0.7781100624	-0.3289919216	-1.1738134862	-0.429784
C	 0.8199302302	-0.5808860387	 1.1957248462	-0.227254
C	 0.7469145613	-2.0435977994	 1.1596880216	 0.3558
C	 0.6846194466	-3.2437596628	 1.1431471557	-0.456267
C	 2.268863503	-0.1064852572	 1.2696177878	 0.047319
C	 2.6443934973	 1.1030176549	 2.0906735493	-0.277982
C	 3.0478486725	-0.2772969097	 2.5447718449	-0.27479
H	 0.827576233	 2.0518915587	 0.1061288336	 0.137448
H	-0.7138658039	 1.9059562348	-0.7593412347	 0.103413
H	-0.6887604834	 1.8109510317	 1.0041433317	 0.113622
H	-0.9425959916	-0.4536500244	-0.0216033746	 0.073266
H	 0.3063288734	 0.0188813728	-1.9363860168	 0.283551
H	 0.3013374889	-0.2424463886	 2.1040845237	 0.094625
H	 0.6339334958	-4.3040326247	 1.123173754	 0.188507
H	 2.8119710131	-0.2563003416	 0.3436837576	 0.109453
H	 3.4093518415	 1.7688381388	 1.7058144927	 0.111202
H	 1.8608243067	 1.6076279602	 2.6467893863	 0.107636
H	 2.5308983465	-0.701057362	 3.3997263093	 0.114012
H	 4.0912181757	-0.5631584256	 2.4742101104	 0.112414
72.157	86.0148	133.1879	154.4775	185.5221	240.5289	256.7704	312.254	321.6012	352.0051	402.1627	512.5896	523.357	613.3166	622.3179	635.4824	765.4468	826.7218	836.6192	876.9946	915.6927	933.5259	975.7715	1018.766	1041.989	1059.3356	1077.8397	1114.1128	1129.513	1145.7401	1166.7198	1198.7389	1226.4648	1245.2498	1296.7378	1312.6473	1382.9401	1397.0278	1407.1066	1423.796	1472.9074	1491.3424	1498.8222	1507.4678	2235.7058	2976.1986	3005.5545	3032.3119	3092.8381	3127.5113	3131.8682	3134.0765	3180.326	3205.0697	3221.8108	3505.0953	3828.8912
CC(O)C(C#C)C1CC1	C[C@@H](O)[C@@H](C#C)C1CC1	
InChI=1S/C8H12O/c1-3-8(6(2)9)7-4-5-7/h1,6-9H,4-5H2,2H3	InChI=1S/C8H12O/c1-3-8(6(2)9)7-4-5-7/h1,6-9H,4-5H2,2H3/t6-,8-/m1/s1
