21
gdb 106599	4.54815	0.94674	0.93886	1.0552	79.89	-0.2432	0.0911	0.3342	1360.0565	0.181194	-424.160163	-424.150934	-424.14999	-424.194274	34.612	
C	 0.011377889	 1.3391768505	-0.0034532936	-0.262714
O	 0.0563303559	-0.0735188927	-0.0731710988	-0.288157
C	 0.6747053162	-0.5621155609	-1.1974017332	 0.451775
C	 2.163525476	-0.3754807246	-1.6511981248	-0.355594
C	 1.4964676952	-1.3233235082	-2.6716551331	 0.451775
C	 0.8256610293	-2.0745278694	-1.4703557147	-0.355591
C	 0.254719117	-0.3692947018	-2.6937713912	-0.368619
O	 2.1769675824	-1.854795027	-3.7391143585	-0.288159
C	 1.3939765538	-2.6947277727	-4.5661748655	-0.262713
H	 1.0194576634	 1.7766495359	 0.0060536147	 0.114705
H	-0.5487249306	 1.767842169	-0.8462713741	 0.113836
H	-0.4964153221	 1.5952341774	 0.9286894142	 0.129494
H	 2.4553869054	 0.6081877593	-2.0274551958	 0.092476
H	 2.9289711519	-0.8153644199	-1.0073450393	 0.09656
H	 1.4943730426	-2.6244397464	-0.8037437198	 0.096556
H	-0.0986070423	-2.6217326185	-1.6719750903	 0.092476
H	-0.7061997923	-0.8021045896	-2.9833555966	 0.091932
H	 0.4136159407	 0.6170357012	-3.1370047704	 0.091925
H	 2.046440858	-3.0503446977	-5.3662600697	 0.129494
H	 1.0034548712	-3.5594099986	-4.0116201549	 0.114688
H	 0.5476654596	-2.1509579653	-5.0087427647	 0.113854
72.9398	92.2947	163.6327	176.4914	206.6597	217.1599	335.9394	386.2264	461.1806	471.5029	555.0981	565.2532	611.9537	645.921	748.8303	793.5227	936.5215	955.2054	969.0409	1020.4405	1055.7766	1071.2638	1079.4474	1116.8671	1123.0094	1135.6687	1152.5038	1153.8117	1176.729	1181.5081	1182.7852	1185.1155	1232.7208	1246.0114	1306.8751	1360.7807	1483.9846	1486.6372	1488.3204	1488.5866	1491.9454	1494.4627	1506.7078	1506.7967	1569.4241	2993.432	2993.887	3045.3471	3046.5361	3053.0014	3053.4325	3063.0263	3120.3047	3123.6269	3124.2414	3126.9351	3127.8451
COC12CC(C1)(C2)OC	CO[C@@]12C[C@@](C1)(C2)OC	
InChI=1S/C7H12O2/c1-8-6-3-7(4-6,5-6)9-2/h3-5H2,1-2H3	InChI=1S/C7H12O2/c1-8-6-3-7(4-6,5-6)9-2/h3-5H2,1-2H3/t6-,7+
