14
gdb 13245	7.86118	0.8151	0.782	3.2922	70.4	-0.2677	-0.0655	0.2022	1394.0217	0.105728	-382.489299	-382.481199	-382.480255	-382.52369	26.619	
O	 0.0114750041	-0.2493173995	 0.1768535115	-0.228324
C	 0.0015159772	 0.958127446	 0.2488573816	 0.021426
C	 1.1681980872	 1.7919146164	 0.1186513458	 0.014167
C	 2.1249549719	 2.5231308119	 0.0139937924	 0.140337
C	 3.2899232943	 3.3768189262	-0.1195237128	-0.036512
C	 3.9870265166	 3.4207265467	-1.5100265196	-0.287509
C	 3.6814096886	 4.9297179932	-1.4513809116	-0.060197
O	 2.9793343757	 4.7878897066	-0.1946192265	-0.275239
H	-0.9366470948	 1.5224304573	 0.4248777408	 0.104951
H	 3.9790796903	 3.1716527054	 0.7114213238	 0.118384
H	 5.0388149022	 3.1353957684	-1.5052678002	 0.126471
H	 3.4602402266	 2.8707189351	-2.2890933937	 0.133453
H	 4.5564251408	 5.5827371307	-1.3538962769	 0.111452
H	 3.0282775593	 5.3202632955	-2.2391049447	 0.11714
46.2521	58.6356	89.6136	134.2394	215.067	278.6981	459.34	517.1187	620.9992	735.3629	802.4324	849.7519	935.0055	946.7415	1017.7295	1020.4578	1023.3078	1082.3159	1162.2376	1169.269	1213.0455	1250.8003	1257.4336	1350.1622	1359.0005	1420.1054	1488.3395	1530.6409	1767.4507	2318.5897	2922.5572	3007.5248	3029.7819	3073.5388	3097.5156	3158.0928
O=CC#CC1CCO1	O=CC#C[C@H]1CCO1	
InChI=1S/C6H6O2/c7-4-1-2-6-3-5-8-6/h4,6H,3,5H2	InChI=1S/C6H6O2/c7-4-1-2-6-3-5-8-6/h4,6H,3,5H2/t6-/m0/s1
