21
gdb 118650	1.58468	1.24857	0.73386	5.6225	80.67	-0.2319	0.0387	0.2706	1566.8574	0.181335	-420.408056	-420.39728	-420.396336	-420.444747	37.84	
C	 0.1202854059	 1.6205686872	-0.3511690056	-0.389669
C	 0.1273683502	 0.1058682041	-0.1708800313	-0.117036
N	 0.6300336996	-0.5519485211	-1.3737231561	-0.296928
C	 0.6421905067	-2.0072560117	-1.3030281431	-0.10003
C	 0.8900148004	-2.6351761873	-2.6931653171	-0.211584
C	-0.3218385398	-2.5901888657	-3.6169580305	-0.095559
O	-0.6189794309	-1.2338554994	-3.9362842886	-0.4074
C	 1.6950219672	-2.4504526498	-0.3659671244	 0.303346
N	 2.508424662	-2.8200863228	 0.3668177322	-0.335511
H	 1.1255096626	 1.984546616	-0.5806870181	 0.132001
H	-0.5423446466	 1.9171393641	-1.1724325266	 0.112794
H	-0.2330976385	 2.1168787009	 0.5572821683	 0.11664
H	 0.7849067605	-0.1638836019	 0.664523825	 0.123657
H	-0.8862637459	-0.2431744198	 0.1057158228	 0.074153
H	 0.0757074898	-0.2906482451	-2.1835838917	 0.240679
H	-0.3063568513	-2.4243665954	-0.906224827	 0.093326
H	 1.733964543	-2.1191647807	-3.1617846629	 0.137889
H	 1.173533991	-3.6840162654	-2.5631255159	 0.125104
H	-0.0950397897	-3.1623429991	-4.5285264941	 0.102845
H	-1.1808474114	-3.0750446516	-3.1267861973	 0.096184
H	-1.4225080247	-1.2095985855	-4.463871478	 0.295099
53.3735	73.992	99.3031	134.7157	145.5768	199.8479	240.2935	270.0872	276.5491	315.7615	372.5991	399.4271	489.8661	545.9128	615.9306	767.3264	818.5986	854.0582	885.4051	906.802	966.3088	1009.443	1059.2115	1090.5258	1105.0043	1136.7468	1163.1834	1186.4937	1226.2557	1251.7585	1295.0982	1303.5124	1322.9072	1358.0673	1388.2127	1394.8913	1416.48	1453.5322	1464.1177	1489.0992	1498.5605	1516.2092	1521.7702	1534.687	2357.2887	2884.2309	2914.9475	2977.2941	3012.5558	3034.7151	3047.6147	3060.3847	3102.601	3107.7225	3122.6013	3522.9643	3834.5906
CCNC(CCO)C#N	CCN[C@@H](CCO)C#N	
InChI=1S/C6H12N2O/c1-2-8-6(5-7)3-4-9/h6,8-9H,2-4H2,1H3	InChI=1S/C6H12N2O/c1-2-8-6(5-7)3-4-9/h6,8-9H,2-4H2,1H3/t6-/m0/s1
