23
gdb 105104	2.41571	1.33465	1.00127	1.6384	85.09	-0.2585	0.0817	0.3402	1297.6926	0.20553	-388.266108	-388.256679	-388.255734	-388.300716	35.765	
C	-0.049454377	 0.6248191582	 0.7734413919	-0.379643
C	-0.4854714852	 0.4177614235	-0.6829599588	-0.253976
C	 0.5028686262	-0.3718212234	-1.529120271	 0.394573
C	 0.8046954622	 0.1177126679	-2.8847438429	-0.233662
O	 1.7272255209	 0.3317766571	-1.8122931263	-0.278315
C	 0.675381197	-1.8448524277	-1.2188429086	-0.026055
C	 1.6743207625	-2.6889057213	-2.0592329353	-0.236638
C	 2.0684980176	-3.4484432623	-0.7657292604	-0.231028
C	 1.4703911476	-2.2769791733	 0.0542027103	-0.22055
H	-0.0045249741	-0.3158743589	 1.3283121133	 0.122166
H	 0.9400466159	 1.0898414885	 0.812519963	 0.132057
H	-0.7529281515	 1.2823557908	 1.2932314669	 0.109836
H	-1.4585965908	-0.0891317372	-0.7162007738	 0.096017
H	-0.627897301	 1.3977004476	-1.151347194	 0.100229
H	 1.1400073621	-0.575003674	-3.6547981077	 0.110783
H	 0.3065342013	 1.0124796836	-3.2566315431	 0.10748
H	-0.3138028204	-2.3181451761	-1.21808489	 0.068971
H	 1.2772353445	-3.2668984679	-2.8973954871	 0.090487
H	 2.4977655069	-2.0610391098	-2.4103246763	 0.119725
H	 1.4883285449	-4.3675583766	-0.6411254474	 0.098969
H	 3.1253197692	-3.6823836421	-0.6192564127	 0.097908
H	 2.2319127573	-1.533209862	 0.3036647335	 0.11631
H	 0.9031246141	-2.5210478648	 0.9554755766	 0.094356
50.7497	92.3782	137.579	178.5811	222.4183	265.1988	267.6283	348.2778	387.3266	513.7781	528.1497	588.2619	721.2516	766.7816	787.8482	818.1357	862.7419	900.4284	935.5204	943.6792	953.2539	965.6675	998.89	1032.7724	1043.8955	1076.5207	1098.84	1134.6987	1140.2397	1174.7578	1202.3146	1225.3469	1254.2695	1258.8999	1264.1829	1284.55	1286.5075	1301.8932	1352.3449	1383.8	1406.6737	1412.6977	1473.6602	1476.1909	1486.0887	1500.3399	1506.4655	1510.4645	1530.3022	3023.6253	3035.9561	3043.9588	3054.4967	3056.8387	3062.5308	3066.0674	3082.0543	3100.1379	3110.2287	3113.4059	3123.0453	3124.8072	3166.7265
CCC1(CO1)C1CCC1	CC[C@]1(CO1)C1CCC1	
InChI=1S/C8H14O/c1-2-8(6-9-8)7-4-3-5-7/h7H,2-6H2,1H3	InChI=1S/C8H14O/c1-2-8(6-9-8)7-4-3-5-7/h7H,2-6H2,1H3/t8-/m0/s1
