19
gdb 111177	2.71597	1.18193	0.94377	2.9305	80.96	-0.259	0.016	0.275	1289.6651	0.160248	-382.015876	-382.007456	-382.006512	-382.049304	31.731	
C	 0.0734535527	 1.5441083528	-0.1413232604	-0.380755
C	 0.0492026344	 0.0419609367	 0.1659929226	-0.226717
C	-1.353444851	-0.5373927095	 0.0947565126	 0.055667
C	-2.0024152631	-0.8684675374	-1.2863791689	-0.044002
N	-1.0180811904	-2.0144946554	-1.3996847796	-0.322157
C	-1.5650846719	-2.0786377102	 0.0124595028	-0.059931
C	-3.0062760919	-1.8223007061	-0.5507509993	-0.148611
C	-4.0587095564	-1.2885903384	 0.3009930336	 0.263602
N	-4.8994655054	-0.8687828421	 0.9753116907	-0.335237
H	 1.0863845492	 1.9469219239	-0.0491863627	 0.11694
H	-0.2720337121	 1.7470047786	-1.1608000576	 0.116795
H	-0.5717574666	 2.1043905098	 0.5445200243	 0.117974
H	 0.7014319905	-0.4984147418	-0.5241437234	 0.126612
H	 0.4403293739	-0.1282561025	 1.1775211846	 0.097913
H	-2.0306639689	-0.0327346763	 0.789081312	 0.099442
H	-2.2259241772	-0.2067319249	-2.1237059868	 0.098648
H	-1.4240677993	-2.7670834537	-1.9643686282	 0.211774
H	-1.2664559536	-2.853440001	 0.7195437713	 0.098071
H	-3.3949966231	-2.6316658525	-1.1749857876	 0.113972
75.1347	119.922	155.3022	199.3023	218.1358	318.717	387.5451	453.8445	528.6805	531.6861	635.117	747.7401	777.0687	834.3597	863.4517	882.2778	901.2568	910.8093	966.6484	1025.1103	1040.52	1062.1441	1066.3078	1125.8928	1126.2526	1153.1114	1165.7185	1188.9117	1206.6435	1239.5504	1285.8333	1292.7372	1300.3325	1347.4878	1372.8189	1411.8794	1439.0781	1489.8348	1500.1266	1506.0869	2347.6734	3027.0986	3031.7998	3077.2173	3077.6657	3088.6856	3106.1974	3112.5995	3113.9155	3117.1673	3387.5362
CCC1C2NC1C2C#N	CC[C@H]1[C@H]2N[C@@H]1[C@H]2C#N	
InChI=1S/C7H10N2/c1-2-4-6-5(3-8)7(4)9-6/h4-7,9H,2H2,1H3	InChI=1S/C7H10N2/c1-2-4-6-5(3-8)7(4)9-6/h4-7,9H,2H2,1H3/t4-,5-,6+,7-
