19
gdb 124626	4.23013	0.94455	0.87169	3.9512	80.16	-0.204	0.0188	0.2228	1392.3285	0.159022	-419.209064	-419.199989	-419.199044	-419.24346	33.567	
C	-0.1245720688	 1.5108599517	-0.0660185204	-0.387017
C	 0.006647684	-0.017756508	-0.0024635772	 0.055213
C	 0.78381935	-0.478989252	 1.2307159844	-0.401676
N	-1.295976415	-0.6965893518	-0.0110909478	-0.404691
C	-2.0891632967	-0.7311381492	-1.1203812718	 0.545113
C	-3.416625928	-1.0316282523	-1.3078252068	-0.391546
C	-3.5622163941	-0.9489160502	-2.7116985809	 0.054268
N	-2.4572942302	-0.627063773	-3.3373680941	-0.171249
O	-1.4999866007	-0.4836770948	-2.2991699655	-0.224272
H	 0.8638039822	 1.9802909595	-0.0997049725	 0.118792
H	-0.6762257745	 1.8157886902	-0.9586972228	 0.141015
H	-0.6507695411	 1.8937987922	 0.8161238242	 0.108082
H	 0.5325119332	-0.3594884326	-0.899077149	 0.119771
H	 0.2716111777	-0.1755505819	 2.1524352959	 0.111944
H	 0.8931244996	-1.5665592139	 1.2414521694	 0.128815
H	 1.7793450755	-0.0272924553	 1.245077303	 0.126031
H	-1.806517191	-0.6575455668	 0.8588424774	 0.244069
H	-4.1552821568	-1.2762481946	-0.5642991788	 0.102633
H	-4.4548557652	-1.115457147	-3.2999488569	 0.124703
54.8543	66.851	138.9011	230.3333	256.5922	270.9354	321.0955	364.409	430.5322	473.0148	505.6521	624.5408	714.0777	730.3099	748.6201	847.2718	892.425	920.0869	928.3676	932.6457	950.3989	965.9059	1032.2959	1064.3434	1145.7012	1169.0715	1190.144	1226.1277	1318.8294	1340.9247	1359.7257	1390.1338	1397.9042	1419.4087	1478.1663	1485.0713	1488.413	1505.7125	1509.3537	1555.0294	1652.953	3028.1832	3032.6451	3068.0125	3096.7339	3107.3487	3124.2522	3126.8056	3233.0618	3281.515	3606.8846
CC(C)NC1=CC=NO1	CC(C)Nc1ccno1	
InChI=1S/C6H10N2O/c1-5(2)8-6-3-4-7-9-6/h3-5,8H,1-2H3	InChI=1S/C6H10N2O/c1-5(2)8-6-3-4-7-9-6/h3-5,8H,1-2H3
