22
gdb 55685	3.1793	1.01482	0.98993	3.3385	83.07	-0.2358	0.0369	0.2726	1362.062	0.192638	-404.383227	-404.372971	-404.372027	-404.419289	37.518	
C	 0.0881239315	 1.5368791044	-0.2884408328	-0.48187
C	 0.1188262082	 0.0453035312	 0.0173621731	 0.406316
O	 1.1355120446	-0.5180058844	 0.3887380307	-0.387261
N	-1.0629845306	-0.6119857609	-0.1524662994	-0.375251
C	-1.2149238308	-2.049169018	 0.0489175624	 0.367768
C	-0.4943412159	-2.8397835389	-1.0460813513	-0.434339
C	-0.9012663304	-2.5779103254	 1.4825675085	-0.223766
C	-2.2304251115	-3.3789124371	 1.446203448	-0.220443
C	-2.6913992177	-2.495334582	 0.2547500292	-0.278626
H	 0.568717051	 2.0716186094	 0.5338215501	 0.1511
H	 0.6785533781	 1.7254194514	-1.1901688782	 0.149629
H	-0.9184222809	 1.9365668422	-0.4383705412	 0.108662
H	-1.8601488345	-0.1027409882	-0.497387153	 0.23826
H	 0.5723617478	-2.6059922779	-1.029247535	 0.151256
H	-0.6172998752	-3.9169276831	-0.8937613822	 0.110929
H	-0.8982372422	-2.5880758469	-2.0328657184	 0.102744
H	 0.031589442	-3.1300240227	 1.6033794519	 0.110262
H	-0.9271084717	-1.7683354092	 2.2145698264	 0.104843
H	-2.0853938741	-4.4225732207	 1.1561739838	 0.106931
H	-2.8515114558	-3.3570030488	 2.3436320714	 0.100374
H	-3.3168331964	-1.6622820134	 0.5913589093	 0.094115
H	-3.1806478655	-2.9850813211	-0.5915559732	 0.098367
34.8902	67.0182	92.5737	144.8286	163.4093	270.7888	293.1765	320.6006	375.4144	377.5657	408.8629	451.5827	564.2756	640.2325	684.0196	745.3928	793.0944	868.4134	904.0167	922.0703	937.596	958.9209	974.3382	991.7952	1034.8061	1049.813	1068.7027	1171.8028	1189.9762	1210.5631	1222.8448	1255.8594	1264.8502	1280.0693	1291.5216	1306.2123	1393.7199	1400.6729	1468.0676	1470.1078	1478.9697	1483.6957	1487.9368	1504.2311	1506.6277	1521.7677	1766.4888	3032.7119	3044.8553	3047.1313	3066.2187	3079.2218	3097.0329	3098.4145	3116.2752	3118.9035	3132.3435	3134.8909	3137.89	3638.2606
CC(=O)NC1(C)CCC1	CC(=O)NC1(C)CCC1	
InChI=1S/C7H13NO/c1-6(9)8-7(2)4-3-5-7/h3-5H2,1-2H3,(H,8,9)	InChI=1S/C7H13NO/c1-6(9)8-7(2)4-3-5-7/h3-5H2,1-2H3,(H,8,9)
