16
gdb 43890	2.79851	1.49143	1.15075	2.6521	77.6	-0.263	0.0084	0.2714	1074.1714	0.123678	-400.698296	-400.690467	-400.689523	-400.730685	30.26	
N	 0.0518256393	 1.1428450613	 0.578995864	-0.547473
C	 0.0048904652	-0.0155610097	 0.1046565541	 0.428825
O	 1.0159350767	-0.8207687509	-0.3963680649	-0.290137
C	 0.0631037375	-1.8930168812	-0.7319260846	 0.270962
C	-0.0639049485	-2.9089909284	 0.435272389	-0.284593
C	-1.2087767235	-2.0521601229	 1.0561974042	-0.232412
C	-1.0901764899	-1.028027505	-0.1131228225	-0.225219
C	 0.1635483972	-2.3387811666	-2.0926536401	 0.233548
C	 0.2237500255	-2.7378062862	-3.225003048	-0.398051
H	 1.0046282223	 1.5110865493	 0.5758227395	 0.230446
H	-0.3847093446	-3.8977916064	 0.1035363392	 0.124187
H	 0.8540863621	-3.003618152	 1.017392905	 0.126023
H	-2.1702517905	-2.5676669011	 1.0601278921	 0.119563
H	-1.0299909099	-1.6372191092	 2.0491165581	 0.127998
H	-1.9860402209	-0.7144039829	-0.6430483065	 0.113852
H	 0.284436842	-3.0826484681	-4.2279866286	 0.202481
88.5299	143.3778	180.8751	221.3551	363.4885	407.6889	479.5995	497.1351	575.1883	626.2664	627.8156	676.5213	722.813	741.2326	805.9525	863.7965	881.4856	907.4624	949.3157	991.3165	1008.535	1058.7792	1077.9253	1099.2742	1132.3809	1214.4148	1227.9841	1249.7943	1262.6549	1296.9143	1312.5488	1466.016	1490.5195	1827.0917	2239.2307	3080.2736	3085.3439	3129.9318	3146.8842	3154.8283	3476.5214	3499.5031
N=C1OC2(CCC12)C#C	[NH][C]1O[C@]2(CC[C@@H]12)C#C	
InChI=1S/C7H7NO/c1-2-7-4-3-5(7)6(8)9-7/h1,5,8H,3-4H2	InChI=1S/C7H7NO/c1-2-7-4-3-5(7)6(8)9-7/h1,5,8H,3-4H2/t5-,7-/m0/s1
