19
gdb 37894	2.95953	2.10437	1.67023	2.2245	77.11	-0.2235	0.0726	0.2961	871.932	0.162819	-385.823448	-385.81736	-385.816416	-385.853459	26.862	
C	 0.0277603591	 1.5732152707	 0.0161634036	-0.207123
C	 1.5623687682	 1.9797993893	 0.0062468977	-0.360125
C	 2.1390661713	 0.5883255489	-0.0359066755	 0.462213
O	 3.337783582	-0.1126815227	-0.5076808408	-0.390431
C	 2.334442975	-1.1724330721	-0.1463472051	-0.00022
C	 1.9688669555	-0.4194688611	 1.1481455837	-0.063777
C	 0.4705710079	-0.502039014	 1.4304556886	-0.24976
C	-0.0322109978	-0.001130168	 0.0497799552	-0.069626
C	 1.1934804351	-0.3493394564	-0.8069796591	-0.050718
H	-0.5090114197	 2.0116729964	 0.8622877502	 0.10292
H	-0.4515107086	 1.9397931182	-0.896383826	 0.10612
H	 1.8153256192	 2.564651389	-0.8822179609	 0.116846
H	 1.8531834769	 2.5546358066	 0.8893859441	 0.108393
H	 2.658046913	-2.2017630271	-0.3037839641	 0.087852
H	 2.6996663531	-0.4007441262	 1.9554621276	 0.074409
H	 0.135954837	-1.5195754272	 1.6596875053	 0.098501
H	 0.1563353687	 0.1468875744	 2.2543773433	 0.096546
H	-1.0078206016	-0.3856926306	-0.251523295	 0.06175
H	 1.1630724557	-0.2592412279	-1.8920177926	 0.076228
197.7776	342.0799	378.7124	433.2518	494.9031	571.1596	662.3365	698.6113	724.2225	784.6098	797.2834	813.3584	841.0078	891.1875	904.9471	924.4034	951.0515	965.8284	981.6692	998.8194	1011.9611	1029.0996	1046.682	1097.6296	1132.7358	1160.3989	1187.0305	1200.8596	1212.9678	1220.5294	1245.5577	1259.2621	1265.078	1274.6257	1300.3171	1328.041	1347.3077	1391.0282	1483.0126	1496.9782	1509.007	3039.2791	3051.4246	3062.2869	3080.3379	3091.4475	3097.6061	3108.8463	3111.8538	3131.7656	3136.9885
C1CC23OC4C2CC1C34	C1C[C@@]23O[C@H]4[C@@H]2C[C@@H]1[C@@H]34	
InChI=1S/C8H10O/c1-2-8-5-3-4(1)6(8)7(5)9-8/h4-7H,1-3H2	InChI=1S/C8H10O/c1-2-8-5-3-4(1)6(8)7(5)9-8/h4-7H,1-3H2/t4-,5+,6-,7+,8-/m1/s1
