20
gdb 43634	5.44538	0.85126	0.76575	2.6423	80.99	-0.2286	-0.0229	0.2057	1479.3536	0.170404	-403.1252	-403.116685	-403.115741	-403.159098	31.996	
O	-0.002046719	-0.0233721025	-0.1871492835	-0.278992
C	-0.0145538623	 1.1559256883	-0.0080533869	 0.39384
C	-1.1023927942	 2.2223454149	 0.1848981335	-0.290386
N	-0.0309045402	 3.1593792045	 0.6063463659	-0.089218
C	 1.0507436356	 2.2503435883	 0.15090036	-0.290385
C	-0.0569589352	 4.4914357686	 0.0531193114	 0.079211
C	-1.1449054633	 5.4615117156	 0.5841732816	-0.234307
C	-0.0758064327	 6.5884306351	 0.584394439	-0.217833
C	 1.0216611946	 5.4896603085	 0.5499269178	-0.234306
H	-1.5812900752	 2.4788871037	-0.7753638966	 0.115701
H	-1.8810866	 2.0259002669	 0.9287103452	 0.132033
H	 1.8573721871	 2.0745137271	 0.8696808764	 0.132033
H	 1.4922590138	 2.5188526445	-0.8238951117	 0.115701
H	-0.074226658	 4.4724661137	-1.0548498644	 0.047812
H	-2.0451772112	 5.6019802934	-0.0184161614	 0.095724
H	-1.4330189946	 5.1807105409	 1.6010709158	 0.109793
H	-0.0980028147	 7.1731098663	-0.3392749574	 0.105097
H	-0.0713941016	 7.2780931943	 1.4303895744	 0.102965
H	 1.348960569	 5.2168556855	 1.5570974549	 0.109793
H	 1.8984897222	 5.6532171922	-0.0807517038	 0.095724
69.5732	69.7419	140.2245	156.592	288.2466	349.7842	393.0378	429.6263	509.5469	567.246	691.6233	737.4259	765.5158	788.069	848.4912	907.7021	930.7367	954.8919	957.8352	1007.3467	1018.1721	1062.0952	1066.6199	1091.2521	1125.9758	1136.5836	1160.5872	1201.6396	1232.2016	1250.2667	1251.3968	1256.6088	1263.1641	1276.7848	1302.954	1308.4514	1386.0002	1455.8578	1473.9353	1482.6263	1485.749	1509.2349	1921.21	2895.0175	2965.3131	2974.3951	3058.143	3060.7246	3066.0679	3073.5213	3074.047	3106.6758	3114.5865	3127.464
O=C1CN(C1)C1CCC1	O=C1CN(C1)C1CCC1	
InChI=1S/C7H11NO/c9-7-4-8(5-7)6-2-1-3-6/h6H,1-5H2	InChI=1S/C7H11NO/c9-7-4-8(5-7)6-2-1-3-6/h6H,1-5H2
