20
gdb 11135	3.58485	1.23273	1.05082	2.5687	71.41	-0.2462	0.0716	0.3177	1195.2419	0.176536	-386.127953	-386.119076	-386.118132	-386.162097	32.257	
C	-0.1412883549	 1.3479681177	 0.5902981309	-0.380126
C	-0.1134021237	-0.1281374772	 0.1838350832	-0.189579
C	-1.4841565678	-0.6478696794	-0.2111166908	 0.180112
C	-1.6767418566	-2.1719593459	-0.3759191607	-0.345841
C	-2.7302782642	-2.0265618728	 0.7390012597	 0.141129
C	-2.4965415184	-2.7423346043	 2.0580315987	-0.065257
O	-3.2829556212	-2.1639021481	 3.0797945966	-0.421444
O	-2.437762828	-0.6117318491	 0.8882600647	-0.328844
H	 0.8476217075	 1.6909215022	 0.9079463077	 0.113473
H	-0.4647859094	 1.9823143686	-0.2423125752	 0.114856
H	-0.8387955816	 1.5019191752	 1.4186212561	 0.133286
H	 0.5666602874	-0.2792670808	-0.6653928868	 0.097465
H	 0.2705075058	-0.7385773211	 1.0105844722	 0.097485
H	-1.8750213339	-0.0649173248	-1.0574167471	 0.07429
H	-2.0463558136	-2.507351636	-1.3452525095	 0.111303
H	-0.8033754246	-2.7676861088	-0.096538564	 0.107228
H	-3.7701341015	-2.1680194819	 0.4174195783	 0.081922
H	-2.7875854677	-3.7962475125	 1.9785786774	 0.105805
H	-1.4222621594	-2.7061517928	 2.3054280849	 0.079687
H	-3.1104149642	-1.2149765382	 3.0353177039	 0.29305
46.2857	100.3328	111.3552	195.2584	228.6585	246.9514	382.7173	391.2943	454.0812	471.0796	499.0787	698.0954	786.2164	829.2926	893.063	896.199	956.5149	974.0797	1017.6196	1034.4085	1051.9443	1085.5683	1110.1699	1124.9222	1156.5703	1199.0008	1222.5922	1254.3258	1275.9063	1296.4905	1318.6166	1337.894	1356.3992	1390.6986	1406.1125	1417.2685	1437.9969	1472.9461	1491.2968	1496.838	1498.0727	1508.5917	2963.7499	2997.2732	3018.6024	3024.1061	3036.8876	3058.7757	3065.4028	3067.4958	3104.36	3118.252	3131.4433	3781.3649
CCC1CC(CO)O1	CC[C@H]1C[C@@H](CO)O1	
InChI=1S/C6H12O2/c1-2-5-3-6(4-7)8-5/h5-7H,2-4H2,1H3	InChI=1S/C6H12O2/c1-2-5-3-6(4-7)8-5/h5-7H,2-4H2,1H3/t5-,6-/m0/s1
