18
gdb 77074	2.63291	1.28292	1.17938	3.4564	72.11	-0.2704	0.0272	0.2976	1123.1075	0.145639	-439.089498	-439.080033	-439.079089	-439.123353	35.255	
C	 0.6495280903	 1.3492810131	-0.0923065843	-0.462495
C	 0.0270486063	-0.0414281314	-0.0442925448	 0.390381
O	-1.3689802734	 0.0011574908	-0.2522895785	-0.473743
C	 0.7058179722	-1.0727878038	-0.9816687037	-0.273444
C	 1.5101903792	-1.6500676555	 0.2301402894	-0.25222
C	 2.8821010467	-1.1873691212	 0.3367616592	 0.298405
N	 3.9764762284	-0.8245665657	 0.4304074115	-0.336373
C	 0.4921462678	-0.8935971419	 1.1729831179	 0.080198
O	 0.960427417	-0.1607730844	 2.2641376	-0.414466
H	 1.7362777191	 1.3138504584	 0.0119916471	 0.154062
H	 0.400639359	 1.8235592455	-1.0463853392	 0.123082
H	 0.2662991177	 1.9681435561	 0.7260415535	 0.124569
H	-1.7257556328	 0.7514401116	 0.2353735276	 0.281789
H	-0.0185908651	-1.7990113262	-1.3530492006	 0.127091
H	 1.2903374789	-0.6766685557	-1.8122994762	 0.12738
H	 1.4995729868	-2.7384060198	 0.3221616382	 0.122437
H	-0.3118007556	-1.5902003081	 1.4447042374	 0.087535
H	 1.2546153975	-0.7636068516	 2.9548862557	 0.295811
75.035	132.0881	188.4362	238.2758	242.6424	254.3417	271.4999	304.4306	356.3768	392.0201	422.8248	495.5077	538.5704	615.4967	717.3305	780.8481	812.9538	846.3732	915.8311	943.4292	975.2872	1034.2819	1103.5644	1117.514	1137.3514	1150.8371	1180.3837	1205.0862	1255.3226	1288.3093	1298.9011	1346.6589	1386.9241	1409.3369	1426.2381	1479.352	1492.6846	1494.6013	2350.4659	3020.2618	3039.2749	3083.9486	3090.8304	3109.4663	3132.7848	3151.4417	3806.6256	3815.8898
CC1(O)CC(C#N)C1O	C[C@@]1(O)C[C@@H](C#N)[C@H]1O	
InChI=1S/C6H9NO2/c1-6(9)2-4(3-7)5(6)8/h4-5,8-9H,2H2,1H3	InChI=1S/C6H9NO2/c1-6(9)2-4(3-7)5(6)8/h4-5,8-9H,2H2,1H3/t4-,5+,6+/m0/s1
