19
gdb 100829	2.42254	0.95723	0.72096	3.1694	69.67	-0.2759	0.005	0.2809	1527.3624	0.155853	-497.316004	-497.305418	-497.304473	-497.352557	36.846	
C	 0.022869719	 1.6241646787	-0.0029816264	-0.402069
C	 0.0377944464	 0.1026465002	-0.0332976	 0.100347
O	 0.7266243971	-0.3584560771	-1.2157386811	-0.193964
C	-0.0120251422	-0.691901451	-2.2891900841	 0.168792
O	 0.4702220253	-1.0478862888	-3.3222248102	-0.276562
C	 0.7655647015	-0.5034918652	 1.1684239217	 0.133484
O	 0.0591832619	-0.0830131413	 2.3206783074	-0.44862
C	 0.8243404699	-2.0297741056	 1.1222174272	-0.116144
O	 1.3640825898	-2.4260604177	 2.3805626891	-0.4335
H	 1.0434424122	 2.0135420097	-0.0651105705	 0.133245
H	-0.5506234348	 2.0241464172	-0.8442632283	 0.118741
H	-0.4285582808	 1.9670746751	 0.9302068157	 0.151974
H	-0.989708174	-0.2859458689	-0.0415316579	 0.093896
H	-1.1012769596	-0.6087409889	-2.1040040276	 0.07828
H	 1.7999477232	-0.121780159	 1.1835022425	 0.086538
H	 0.356709881	-0.6667687477	 3.0305354662	 0.296808
H	-0.1918147229	-2.4311482444	 0.9860905424	 0.090955
H	 1.4524851255	-2.3646747153	 0.2882356044	 0.119551
H	 1.2795099314	-3.3792194402	 2.4684850494	 0.298247
43.5507	69.6908	117.8252	140.2687	180.3249	218.4715	237.1951	240.4063	307.7429	343.0851	378.7398	444.1986	459.8019	490.2076	577.0654	674.6777	873.6477	919.9783	968.8029	1022.2264	1046.1411	1083.7686	1084.7472	1123.9492	1132.6048	1154.893	1197.9688	1239.7003	1259.8431	1285.9691	1342.6733	1360.1836	1377.3748	1406.7188	1433.0056	1439.3358	1463.205	1489.5027	1496.3309	1514.0334	1864.107	2942.6679	2970.6093	2987.3715	3022.4628	3047.3867	3058.313	3118.2059	3143.2185	3771.8865	3845.379
CC(OC=O)C(O)CO	C[C@@H](OC=O)[C@@H](O)CO	
InChI=1S/C5H10O4/c1-4(9-3-7)5(8)2-6/h3-6,8H,2H2,1H3	InChI=1S/C5H10O4/c1-4(9-3-7)5(8)2-6/h3-6,8H,2H2,1H3/t4-,5+/m1/s1
