18
gdb 9803	2.92703	1.54416	1.33136	3.3481	68.18	-0.2371	-0.018	0.2191	1007.4641	0.150797	-384.933577	-384.924554	-384.923609	-384.96757	32.731	
C	 0.1096140456	 1.4380983776	 0.1927780329	-0.435905
C	 0.0015147932	-0.0871888282	 0.0119388799	-0.107628
C	-1.4623891259	-0.4947799581	-0.0360070362	 0.162236
O	-2.0298913235	-1.1027479214	 0.8355501488	-0.256401
C	 0.7080973186	-0.560991696	-1.2564069642	 0.402637
O	 0.252635714	 0.0477410664	-2.4394490119	-0.469891
C	 2.1591987272	-0.9695469868	-1.1949875705	-0.333916
C	 1.0718262685	-2.0063926988	-1.4082280385	-0.301017
H	 1.1591199238	 1.7504389717	 0.1909341948	 0.124694
H	-0.4089735267	 1.970340716	-0.6120344361	 0.122921
H	-0.3375001132	 1.7517966658	 1.1398380874	 0.135786
H	 0.4433750127	-0.5907832807	 0.8775794713	 0.093103
H	-1.9923390633	-0.1782428631	-0.9613728229	 0.089252
H	 0.6232944988	 0.93602512	-2.480113329	 0.285899
H	 2.7739210179	-0.7169361533	-2.051952679	 0.117461
H	 2.6715701509	-0.9419442348	-0.2392361124	 0.116348
H	 0.8368546584	-2.6853806847	-0.5960205484	 0.12628
H	 0.9739756032	-2.4268034815	-2.4019052958	 0.12814
45.9643	74.1625	187.4546	216.1763	233.1882	277.5357	317.3481	361.4365	379.8695	434.5273	506.0946	530.5359	754.348	776.8293	871.114	913.6844	917.8575	931.0427	961.24	985.283	1045.9807	1064.5471	1082.5701	1105.7155	1157.0739	1189.752	1234.3366	1286.1493	1298.7549	1321.4318	1388.5752	1395.2126	1422.8036	1453.8928	1495.248	1499.1646	1505.8438	1830.104	2894.6369	3032.6507	3065.0128	3101.0428	3116.3037	3130.756	3142.8545	3217.8972	3236.7224	3801.3917
CC(C=O)C1(O)CC1	C[C@@H](C=O)C1(O)CC1	
InChI=1S/C6H10O2/c1-5(4-7)6(8)2-3-6/h4-5,8H,2-3H2,1H3	InChI=1S/C6H10O2/c1-5(4-7)6(8)2-3-6/h4-5,8H,2-3H2,1H3/t5-/m0/s1
