14
gdb 18179	4.9715	1.61232	1.3214	3.5137	69.57	-0.245	-0.0527	0.1923	888.6318	0.1092	-341.578687	-341.572324	-341.57138	-341.609211	24.279	
N	 0.0789569325	-1.1283728753	 0.0235427629	-0.3331
C	 0.0121316098	 0.0279860498	 0.0221840071	 0.197628
C	-0.0288323845	 1.4471577846	 0.0121881493	 0.235622
C	-1.1256171678	 2.2174708631	 0.0538532577	-0.188112
C	-0.7408543385	 3.6748892989	-0.0147643547	-0.202104
N	 0.7376709704	 3.7100973191	-0.0404455748	-0.09731
C	 1.3859214646	 3.1800401232	 1.1637124342	-0.232278
C	 1.2004803735	 2.3053491472	-0.0279457229	-0.140606
H	-2.1439021847	 1.8591746764	 0.139263145	 0.130693
H	-1.1327113724	 4.1471122387	-0.9255852816	 0.133063
H	-1.1271210707	 4.25487624	 0.8327889665	 0.130654
H	 2.3586156719	 3.6148262173	 1.3741852925	 0.12885
H	 0.7753634658	 2.9605730461	 2.0372360166	 0.119775
H	 2.0311751103	 2.0255016808	-0.6682187679	 0.117226
138.326	166.5972	290.7223	378.7383	450.432	515.2504	556.3588	654.4483	720.8123	766.1887	831.8135	846.5501	881.5803	940.3812	993.7142	1030.9811	1047.0067	1094.0879	1113.7305	1151.6253	1180.4457	1213.9476	1259.3543	1279.7218	1335.1542	1363.4581	1479.8963	1498.5351	1664.851	2341.7702	3016.2829	3051.0431	3101.8265	3162.5105	3195.2652	3219.8686
N#CC1=CCN2CC12	N#CC1=CCN2C[C@@H]12	
InChI=1S/C6H6N2/c7-3-5-1-2-8-4-6(5)8/h1,6H,2,4H2	InChI=1S/C6H6N2/c7-3-5-1-2-8-4-6(5)8/h1,6H,2,4H2/t6-,8?/m0/s1
