19
gdb 85145	2.1019	1.73651	1.14978	2.8942	76.1	-0.2335	-0.0199	0.2136	1111.787	0.158205	-423.019836	-423.011079	-423.010134	-423.05354	32.909	
O	 0.4666488009	 1.1163825456	-0.4140646873	-0.430465
C	 0.2095808413	-0.1117714582	 0.2230183133	 0.018932
C	-0.1606780411	-0.0880470194	 1.7416526479	-0.396223
C	-1.3879078305	-0.9387632503	 1.3751630262	 0.356204
O	-2.1524569747	-1.6170861855	 2.0023033125	-0.308196
C	-1.1907102405	-0.6826007124	-0.1178247043	 0.232761
C	-2.2752155404	 0.2208158765	-0.7894464239	-0.264899
C	-2.8574036671	-1.0506648519	-1.4595411327	-0.207119
C	-1.5278319795	-1.7877194601	-1.1468356068	-0.294411
H	 1.3350347211	 1.4272876034	-0.1399435571	 0.288996
H	 0.999524142	-0.8472403607	 0.014010931	 0.075859
H	 0.5382348811	-0.5096003937	 2.4679065959	 0.122829
H	-0.4556562834	 0.9181389448	 2.0591960124	 0.135227
H	-2.9270372039	 0.7967616742	-0.1286696704	 0.105822
H	-1.8011209046	 0.898986988	-1.5021716575	 0.126795
H	-3.6880459649	-1.4657839983	-0.8842802851	 0.120581
H	-3.1562847476	-0.9712634639	-2.5068133774	 0.098751
H	-0.8304025079	-1.7687872469	-1.9897152834	 0.107394
H	-1.5939768904	-2.8060424313	-0.7564560235	 0.111162
67.1113	96.9398	155.3764	206.0925	250.4438	264.5492	312.6792	460.6859	483.7094	532.7215	571.3389	677.3415	698.9586	775.9242	795.8423	841.0119	884.1889	918.2878	943.4353	963.8763	1023.038	1050.1441	1069.5482	1115.5118	1148.0709	1165.3734	1195.8246	1202.7548	1210.8791	1231.5225	1252.1263	1267.39	1279.9061	1285.8967	1324.5165	1413.779	1436.3151	1468.3308	1481.3565	1500.3233	1878.7836	2998.7385	3052.918	3053.9007	3066.265	3071.3562	3105.8192	3118.6069	3119.1146	3133.4701	3821.6728
OC1CC(=O)C11CCC1	O[C@H]1CC(=O)C21CCC2	
InChI=1S/C7H10O2/c8-5-4-6(9)7(5)2-1-3-7/h5,8H,1-4H2	InChI=1S/C7H10O2/c8-5-4-6(9)7(5)2-1-3-7/h5,8H,1-4H2/t5-/m0/s1
