17
gdb 28596	3.97553	1.11396	0.93543	2.0689	77.39	-0.1929	0.0295	0.2224	1251.788	0.137862	-418.033653	-418.02568	-418.024736	-418.066516	30.357	
N	 0.1305192136	 1.275546659	 0.3037814927	-0.588704
C	-0.0310415786	-0.0717620573	 0.0810608377	 0.443321
N	-1.1203425875	-0.7142073106	-0.1925260064	-0.335607
C	-0.7109932547	-2.0505195251	-0.2194889327	-0.222182
C	 0.6139023971	-2.1416637507	 0.031052654	 0.348054
O	 1.0718568722	-0.843803973	 0.2331403627	-0.22531
C	 1.5843866302	-3.2325871604	 0.122214155	-0.106962
C	 3.0170085423	-3.0568328389	-0.3438009687	-0.267797
C	 2.7226213587	-3.1953014297	 1.1240337233	-0.267248
H	 1.0333640133	 1.6390978848	 0.0337974045	 0.261217
H	-0.638987636	 1.8177076474	-0.0614607261	 0.269537
H	-1.4074003379	-2.8480851979	-0.424768755	 0.114358
H	 1.1332155345	-4.202057748	-0.0599547267	 0.097201
H	 3.4837281402	-3.886516711	-0.8628809168	 0.115712
H	 3.2993225191	-2.0768612298	-0.71082971	 0.122152
H	 2.806374253	-2.3081211628	 1.7409435223	 0.126337
H	 2.9854036004	-4.121252846	 1.6232047601	 0.11592
70.0349	138.6807	145.6597	266.3364	293.776	369.9964	423.831	461.2262	609.1414	626.7189	672.9821	737.8871	768.3479	793.1529	817.2079	834.7809	906.3336	907.2223	982.6622	990.0846	1059.967	1064.7893	1082.1053	1090.6988	1123.1257	1194.8457	1202.2477	1207.9355	1250.2394	1275.4076	1381.6897	1435.8377	1464.7303	1499.1851	1605.4372	1664.3549	1684.3513	3137.6261	3141.2703	3169.8576	3220.7078	3236.1134	3261.2281	3568.7195	3675.8738
NC1=NC=C(O1)C1CC1	Nc1ncc(o1)C1CC1	
InChI=1S/C6H8N2O/c7-6-8-3-5(9-6)4-1-2-4/h3-4H,1-2H2,(H2,7,8)	InChI=1S/C6H8N2O/c7-6-8-3-5(9-6)4-1-2-4/h3-4H,1-2H2,(H2,7,8)
