22
gdb 75567	2.33544	1.59798	1.20131	1.5101	87.85	-0.2121	0.0225	0.2347	1154.2438	0.196883	-367.200685	-367.192217	-367.191273	-367.233311	33.666	
C	-0.030440828	 1.4698134668	 0.1448186847	-0.489191
C	 0.0708003273	-0.0252796656	-0.0317574897	 0.371326
C	-0.0122674822	-0.5938956157	-1.2407588974	-0.184864
C	 0.106947853	-2.0691027467	-1.553188904	-0.242502
C	-0.9254403025	-3.0121422092	-0.8727004871	-0.179559
C	-1.5823673387	-2.5138097732	 0.4282308601	-0.214888
C	-0.6380494251	-2.0028289731	 1.5037573138	-0.015839
N	 0.8067016015	-2.1319463022	 1.2739494453	-0.343154
C	 0.1928175876	-0.7841197022	 1.2490231389	-0.116939
H	 0.8750575747	 1.8765553369	 0.6144774741	 0.120339
H	-0.1728500955	 1.9779247331	-0.8120590531	 0.11975
H	-0.8679575763	 1.7414409351	 0.8010163745	 0.12005
H	-0.1403010768	 0.0715522562	-2.092226208	 0.073464
H	 0.0336023617	-2.2029164049	-2.6373996969	 0.08339
H	 1.1085762305	-2.397918483	-1.2666837055	 0.133115
H	-1.740316839	-3.2253295554	-1.5746932757	 0.089282
H	-0.4321317716	-3.9696413995	-0.6770693697	 0.100753
H	-2.28651562	-1.7061224453	 0.1900407586	 0.103407
H	-2.1864028621	-3.3310887689	 0.8399881885	 0.09112
H	-0.9916520782	-2.1302544829	 2.525478601	 0.079413
H	 1.2985445828	-2.2619576696	 2.153300081	 0.229906
H	 0.387625107	-0.1561917706	 2.1163259664	 0.071621
116.3016	145.5956	193.5918	259.8388	278.2549	294.699	337.224	369.8345	477.0513	553.9153	623.7607	674.1288	726.5028	754.3905	825.9989	839.8479	850.5052	898.0815	899.4142	951.6239	978.5204	1021.7513	1047.5087	1069.8849	1074.4742	1108.8896	1125.0939	1159.673	1170.8825	1210.4222	1223.0748	1259.8039	1268.1594	1309.9973	1343.1785	1357.0091	1388.5029	1395.3525	1411.7591	1420.9904	1463.0608	1475.0337	1478.9059	1485.8394	1495.6546	1499.4528	1726.3667	3010.0253	3019.5394	3030.3611	3048.882	3052.1136	3053.4488	3072.663	3097.333	3111.645	3114.1947	3123.4673	3139.6933	3508.5149
CC1=CCCCC2NC12	CC1=CCCC[C@H]2N[C@@H]12	
InChI=1S/C8H13N/c1-6-4-2-3-5-7-8(6)9-7/h4,7-9H,2-3,5H2,1H3	InChI=1S/C8H13N/c1-6-4-2-3-5-7-8(6)9-7/h4,7-9H,2-3,5H2,1H3/t7-,8+/m1/s1
