23
gdb 63698	2.39239	1.60801	1.23875	1.4502	85.29	-0.2332	0.0825	0.3157	1152.3489	0.203887	-388.282841	-388.273362	-388.272418	-388.316346	37.314	
C	 0.8528524984	 1.4032889353	-1.0369697638	-0.438415
C	 0.31074689	 0.0131284831	-0.7387893907	 0.41409
C	-1.005085202	-0.2383859886	-1.4705673659	-0.422336
O	 1.2829664182	-1.0189348576	-1.1054047712	-0.373619
C	 1.240686475	-1.6112634442	 0.2135708359	 0.467286
C	 0.9741793496	-3.0943364543	 0.1798397688	-0.47844
C	 2.3754330133	-1.0622029258	 1.1253873068	-0.272978
C	 1.3937260034	 0.0150377202	 1.6816944156	-0.246983
C	 0.2823545992	-0.4925882178	 0.7298357683	-0.172567
H	 1.8275106062	 1.5650038027	-0.5714535441	 0.119985
H	 0.975963007	 1.5281098935	-2.1178684485	 0.121401
H	 0.1633758209	 2.1772130144	-0.6824957898	 0.112795
H	-0.8545236498	-0.1696806478	-2.5527104242	 0.120092
H	-1.3942873366	-1.2352165944	-1.244278591	 0.115264
H	-1.7607398046	 0.4995444959	-1.1783369428	 0.110016
H	 1.8041267269	-3.6129429726	-0.3144332827	 0.126484
H	 0.878371987	-3.4980971221	 1.193148486	 0.11285
H	 0.0586653121	-3.3191044045	-0.3752185621	 0.12033
H	 2.7360941462	-1.7684654834	 1.8783503733	 0.094917
H	 3.2275291398	-0.6865862717	 0.5549802528	 0.105934
H	 1.1386166517	-0.1517856188	 2.7310351753	 0.100757
H	 1.693137625	 1.0598699685	 1.5740100703	 0.09998
H	-0.7063376867	-0.6747716899	 1.1531480435	 0.063154
73.4761	183.0501	203.9816	215.3133	239.8395	256.8437	305.7918	333.2885	355.7704	393.6298	433.8129	491.4005	590.3839	659.7163	706.521	770.3067	837.2252	869.6895	903.5848	924.3799	929.2988	948.0518	960.4318	977.4413	998.6868	1027.2952	1059.2043	1133.7709	1147.3872	1172.3782	1208.1592	1214.0123	1223.429	1251.0336	1261.2966	1289.4726	1309.1399	1347.1499	1397.7874	1408.4624	1412.3921	1463.7784	1472.6706	1477.896	1481.2314	1488.3197	1492.1209	1495.5632	1510.3518	3028.7764	3029.9171	3037.3848	3056.764	3065.7519	3095.0019	3095.8655	3098.4859	3104.7219	3105.5312	3109.8297	3113.4462	3122.3503	3126.0603
CC1(C)OC2(C)CCC12	CC1(C)O[C@@]2(C)CC[C@@H]12	
InChI=1S/C8H14O/c1-7(2)6-4-5-8(6,3)9-7/h6H,4-5H2,1-3H3	InChI=1S/C8H14O/c1-7(2)6-4-5-8(6,3)9-7/h6H,4-5H2,1-3H3/t6-,8-/m0/s1
