17
gdb 64899	2.05556	1.69864	1.06964	1.792	81.47	-0.2535	0.0144	0.2679	1153.8323	0.130241	-384.605533	-384.595497	-384.594553	-384.639887	37.046	
C	-0.0295985181	 1.5249453145	-0.1027004198	-0.481193
C	-0.0416745616	 0.0166841997	 0.0588015834	 0.127203
O	 1.2173981105	-0.6542381158	-0.1217756526	-0.299504
C	 0.6456398219	-0.6810445675	 1.1974717365	 0.127208
C	 1.4060238187	 0.0675907865	 2.2756330095	-0.48119
C	 0.1452011386	-1.9669927313	 1.6309025266	 0.301951
C	-0.2438855776	-3.0225523208	 2.053077246	-0.407933
C	-1.1800323312	-0.6216945198	-0.5645688722	 0.301963
C	-2.1479196713	-1.0896875404	-1.1012283335	-0.407944
H	 0.8653762514	 1.9698368894	 0.3317627678	 0.131999
H	-0.0540659699	 1.7734680333	-1.167630824	 0.143752
H	-0.9149772476	 1.9637937925	 0.3664480462	 0.137256
H	 1.8135942013	 1.0071574714	 1.9031193014	 0.131992
H	 0.7526232764	 0.2707840761	 3.1290755999	 0.137256
H	 2.2365831659	-0.5515719975	 2.6267011341	 0.143753
H	-0.5981803613	-3.9609870045	 2.4021291291	 0.196716
H	-2.995151986	-1.5276944857	-1.5685277884	 0.196716
111.3196	112.4353	140.169	155.7286	182.9082	191.5028	301.0013	306.81	382.3053	410.3223	461.319	551.0172	579.5379	615.9674	633.6764	634.9476	647.7683	663.0261	665.1338	698.2825	866.8909	881.0208	983.2554	1067.7648	1097.1505	1111.559	1195.2919	1239.5745	1382.3523	1401.1942	1416.5196	1470.6667	1481.1211	1487.6597	1507.1846	2238.629	2239.5363	3051.7001	3055.1093	3117.784	3118.6333	3148.209	3160.9826	3501.8242	3502.3838
CC1(OC1(C)C#C)C#C	C[C@]1(O[C@]1(C)C#C)C#C	
InChI=1S/C8H8O/c1-5-7(3)8(4,6-2)9-7/h1-2H,3-4H3	InChI=1S/C8H8O/c1-5-7(3)8(4,6-2)9-7/h1-2H,3-4H3/t7-,8+
