23
gdb 103680	3.44808	0.84215	0.78425	3.1073	87.29	-0.2441	-0.0201	0.224	1565.0347	0.203774	-388.301574	-388.291457	-388.290513	-388.336842	37.722	
C	-0.0662109395	 1.6202083802	 0.0259652177	-0.394756
C	-0.1345351493	 0.0966019852	-0.1240590324	-0.221411
C	 0.7153408066	-0.4933904215	-1.2631404008	 0.360404
C	 0.3135081291	 0.0563896992	-2.6288997395	-0.462038
C	 2.2456196221	-0.4706296641	-0.9433767387	-0.289815
C	 2.1654288431	-1.9503409045	-0.4551819536	-0.055531
C	 0.7769214148	-2.0508010802	-1.1595500869	-0.29508
C	 3.2350794894	-2.8743343534	-0.9600749636	 0.159215
O	 3.9186972025	-3.5959867693	-0.2800926942	-0.255177
H	 0.9646369661	 1.9677368092	 0.1543804543	 0.117733
H	-0.4840928502	 2.1354027869	-0.8439418672	 0.12024
H	-0.6334701332	 1.9458892869	 0.9031642926	 0.11639
H	 0.1717907965	-0.3685841383	 0.8217949299	 0.096362
H	-1.1784024883	-0.2064928646	-0.2831527738	 0.094977
H	 0.5013585814	 1.1323498732	-2.7054520975	 0.119627
H	 0.8788558825	-0.4332743634	-3.4289035774	 0.108387
H	-0.7527138907	-0.1107049689	-2.8240371493	 0.113991
H	 2.8511921158	-0.3760818028	-1.8511192692	 0.100151
H	 2.6043425651	 0.2586919399	-0.2133993318	 0.108993
H	 2.1037715304	-2.0405406352	 0.6304684872	 0.090993
H	-0.0163287774	-2.5492123547	-0.5964586082	 0.106777
H	 0.8555209801	-2.5252055542	-2.143698406	 0.098678
H	 3.3614721128	-2.8453364556	-2.0709533815	 0.060891
62.7461	70.9783	123.8592	190.6628	224.5119	249.5758	293.0614	308.8947	328.7561	342.5828	399.8459	443.5297	496.3515	642.7268	739.992	789.4815	824.769	872.4494	900.27	909.2539	912.9346	989.2894	1016.3574	1025.0985	1041.0454	1070.3791	1084.4917	1099.1772	1183.4383	1194.9295	1208.7438	1243.9372	1267.8688	1277.0068	1293.2157	1325.3811	1345.7679	1372.7646	1411.1282	1414.9096	1431.0865	1468.8189	1482.3442	1486.5424	1495.8161	1499.6742	1505.162	1512.8247	1829.2876	2826.0853	3011.603	3024.0561	3037.1485	3041.8706	3044.6579	3047.7232	3088.6974	3093.4764	3097.8089	3100.8006	3104.45	3111.0939	3113.4724
CCC1(C)CC(C1)C=O	CC[C@@]1(C)C[C@@H](C1)C=O	
InChI=1S/C8H14O/c1-3-8(2)4-7(5-8)6-9/h6-7H,3-5H2,1-2H3	InChI=1S/C8H14O/c1-3-8(2)4-7(5-8)6-9/h6-7H,3-5H2,1-2H3/t7-,8-
