17
gdb 94308	3.25685	1.23583	1.05952	4.9346	68.72	-0.2702	0.0165	0.2867	1145.5147	0.135183	-458.980824	-458.972626	-458.971682	-459.013806	30.887	
O	 0.3540219515	 1.1916790312	-0.4400800932	-0.429908
C	 0.1521051151	-0.0541281523	 0.1734812039	 0.073934
C	-0.1427307041	-0.1342864328	 1.7013538116	-0.269709
C	-1.2396949066	-1.189619048	 1.3787757149	-0.304745
C	-1.2329565119	-0.6685832813	-0.0682466837	 0.424103
C	-2.3701476268	 0.2008536345	-0.6300645543	-0.48347
C	-2.4292372852	-0.8745663248	-1.712673819	 0.429596
O	-3.058345645	-1.1169786549	-2.6902455712	-0.315715
O	-1.3998682984	-1.6107776938	-1.1724246617	-0.277742
H	 1.2845786918	 1.426250278	-0.3784754644	 0.29313
H	 0.9220515598	-0.7834655911	-0.1131476825	 0.091442
H	 0.6726363744	-0.432599995	 2.3620497295	 0.106734
H	-0.5719748844	 0.8072417809	 2.0528536965	 0.118136
H	-0.8574946846	-2.2123608535	 1.4249855814	 0.126994
H	-2.1829972865	-1.1353300464	 1.9247468457	 0.113737
H	-3.2708102955	 0.2797710175	-0.0188761688	 0.138362
H	-2.0683669835	 1.1838517718	-0.9928867347	 0.165121
85.4768	114.4162	183.5866	221.4502	273.2582	316.3293	424.1257	464.6604	519.1624	526.5335	564.8804	694.5457	792.3072	805.1467	860.277	882.89	919.3468	955.8233	975.5075	1027.4401	1075.872	1095.7695	1143.37	1159.1788	1170.9552	1183.7283	1216.1611	1233.2335	1250.5937	1270.5207	1297.4746	1325.7995	1434.2661	1450.4813	1478.4214	1497.3488	1943.986	3016.3509	3071.721	3074.4256	3092.0426	3123.8904	3137.3643	3155.2405	3833.1596
OC1CCC11CC(=O)O1	O[C@H]1CC[C@]21CC(=O)O2	
InChI=1S/C6H8O3/c7-4-1-2-6(4)3-5(8)9-6/h4,7H,1-3H2	InChI=1S/C6H8O3/c7-4-1-2-6(4)3-5(8)9-6/h4,7H,1-3H2/t4-,6+/m0/s1
