18
gdb 14229	4.97525	1.70206	1.53352	1.642	71.26	-0.2229	0.0874	0.3103	896.612	0.153217	-347.746107	-347.73884	-347.737896	-347.77704	28.715	
C	-0.1340706238	 1.4639235467	 0.0600187127	-0.407257
C	 0.0389793541	-0.0485701624	 0.0059470684	 0.006489
C	 0.8584219327	-0.553280554	-1.1868872802	-0.155696
C	 2.1665324155	-0.4570860192	-0.3955967819	-0.200325
C	 1.2233006553	-0.5911514577	 0.8560111096	 0.062572
O	 1.1434123902	-2.0320963387	 0.6754693967	-0.32817
C	 1.5918495563	-1.8067797558	-0.6684290124	 0.464277
C	 2.0425775104	-2.9683337056	-1.4853482018	-0.505875
H	 0.8188172609	 1.9788181733	-0.105076297	 0.115365
H	-0.8353908371	 1.8091536829	-0.7067623624	 0.116852
H	-0.5265829911	 1.7787643436	 1.0334100675	 0.113407
H	-0.9105251109	-0.5609387466	 0.2016485282	 0.070597
H	 0.7018561608	-0.3666343606	-2.2428519607	 0.08342
H	 3.1242874883	 0.0047718171	-0.5916128112	 0.094143
H	 1.4062489357	-0.2851301486	 1.8849622417	 0.081018
H	 1.216622134	-3.6675148873	-1.6542824153	 0.1329
H	 2.4051098517	-2.6278021127	-2.4598815518	 0.125072
H	 2.8521144868	-3.5077908746	-0.9837866801	 0.131212
179.6346	200.1776	222.5337	235.3448	301.2544	338.0068	493.548	562.2217	639.3937	766.7651	770.683	790.9439	814.706	874.5103	899.9369	910.9821	927.1123	954.4679	1017.9236	1034.377	1073.6042	1087.3379	1101.8135	1121.5838	1140.3677	1155.9283	1188.9002	1245.4942	1280.9493	1284.1188	1368.0929	1400.9667	1411.7934	1457.5494	1474.3036	1495.2687	1500.5809	1501.92	3026.8448	3035.1068	3036.7658	3092.6647	3098.0699	3101.1261	3114.2161	3132.8332	3184.5088	3207.4725
CC1C2C3C1OC23C	C[C@H]1[C@H]2[C@H]3[C@@H]1O[C@@]23C	
InChI=1S/C7H10O/c1-3-4-5-6(3)8-7(4,5)2/h3-6H,1-2H3	InChI=1S/C7H10O/c1-3-4-5-6(3)8-7(4,5)2/h3-6H,1-2H3/t3-,4-,5-,6+,7-/m0/s1
