24
gdb 123023	5.45468	0.53203	0.50947	1.2879	88.36	-0.244	0.0806	0.3246	2278.8501	0.215684	-405.52082	-405.509746	-405.508802	-405.558431	38.964	
C	 0.1328456222	 1.4618171276	 0.1909999481	-0.382162
C	 0.0028938903	-0.0625147929	 0.1481797767	-0.181995
C	-1.4333841679	-0.5189298073	-0.0688896426	-0.025754
O	-1.4652578894	-1.9292768916	-0.0883209722	-0.251667
C	-2.7583264238	-2.4561419595	-0.3017269864	-0.056113
C	-2.6586254391	-3.9583350683	-0.280745205	-0.026006
N	-2.8770648567	-4.6330664812	 1.0095813187	-0.334131
C	-3.8206056607	-4.8699755289	-0.095704602	 0.00012
C	-5.2483026745	-4.413737901	 0.0992963525	-0.393712
H	 1.1721510485	 1.7637504432	 0.3494180625	 0.116231
H	-0.205951711	 1.9188578352	-0.7455007112	 0.114882
H	-0.4644753321	 1.8909538152	 1.003127863	 0.116266
H	 0.6242331614	-0.4752179362	-0.6550147796	 0.103982
H	 0.3686396999	-0.5025170004	 1.0829808779	 0.108172
H	-2.0838940824	-0.1315310679	 0.7351410953	 0.082872
H	-1.8253305713	-0.1121071945	-1.0186842291	 0.078273
H	-3.4515306135	-2.1102214727	 0.4791653749	 0.093445
H	-3.1520608583	-2.1149644454	-1.2760719709	 0.079705
H	-1.8505292798	-4.3300384649	-0.9093017646	 0.086335
H	-2.2375688721	-5.4151209001	 1.1175493325	 0.229846
H	-3.7341467567	-5.82440538	-0.6152727603	 0.079544
H	-5.29450053	-3.4772732436	 0.6589822327	 0.127495
H	-5.7479350713	-4.2691859442	-0.8649473314	 0.11453
H	-5.8145540817	-5.1644190107	 0.6610928805	 0.119843
41.1246	56.3753	84.1039	115.1017	148.278	168.7732	194.8359	233.4911	246.4164	351.724	379.0935	436.3646	483.976	545.6468	765.4675	771.84	850.4271	879.6363	901.6714	913.9427	965.7138	980.281	1020.9624	1039.3159	1057.3386	1064.6777	1102.5593	1150.6318	1156.7211	1160.6596	1191.5819	1216.9505	1253.7803	1267.7026	1277.6924	1284.3528	1314.6446	1331.5967	1366.7471	1406.9371	1412.8519	1423.9593	1449.0203	1477.5774	1491.477	1491.8433	1500.3603	1502.5752	1507.9064	1510.3627	1533.1893	2935.4762	2948.1299	2963.2047	3009.7562	3031.2335	3036.0816	3038.7077	3071.0587	3094.455	3097.7748	3099.2288	3107.2794	3119.4534	3132.903	3509.2955
CCCOCC1NC1C	CCCOC[C@H]1N[C@H]1C	
InChI=1S/C7H15NO/c1-3-4-9-5-7-6(2)8-7/h6-8H,3-5H2,1-2H3	InChI=1S/C7H15NO/c1-3-4-9-5-7-6(2)8-7/h6-8H,3-5H2,1-2H3/t6-,7+/m0/s1
