18
gdb 88413	2.05284	1.37803	0.92005	2.9369	74.26	-0.246	-0.0515	0.1945	1277.404	0.143625	-439.0626	-439.052952	-439.052008	-439.098002	33.773	
C	-0.2456679738	 1.5550763135	-0.2595485396	-0.420107
C	-0.1379922637	 0.0605279251	-0.054539893	 0.015471
C	 1.1517728127	-0.657183514	-0.2504689856	-0.232023
N	 0.5699079674	-0.5509045334	 1.0839458391	-0.09177
C	 1.2280560418	 0.2624871785	 2.0716812338	-0.152968
C	 0.3351992274	 0.4352596851	 3.3019539548	 0.135161
O	 0.6111896897	 1.1615575875	 4.2201983709	-0.245317
C	 2.5573541045	-0.3479039954	 2.5415581764	 0.157892
O	 3.1024349245	-1.2747510874	 2.0111132822	-0.227381
H	 0.7118250231	 2.0683758156	-0.1361652059	 0.12534
H	-0.5922854647	 1.758535852	-1.2778863559	 0.132953
H	-0.9683832573	 2.005975345	 0.4300182054	 0.128603
H	-1.0526400318	-0.4799391906	-0.2920584234	 0.099691
H	 1.1886169501	-1.6594097115	-0.6665736438	 0.12617
H	 2.0240100179	-0.0458385879	-0.475481362	 0.114368
H	 1.5063359024	 1.2859618579	 1.7560562903	 0.11166
H	-0.5776455511	-0.1963572732	 3.2815944375	 0.109157
H	 2.9782231209	 0.1743902732	 3.4259088288	 0.113101
43.8725	96.9328	120.341	145.9176	194.8187	196.3977	232.1009	326.2252	367.8427	423.3519	470.9344	546.0742	662.6538	768.5464	794.0739	875.0992	891.7834	916.175	984.347	1024.3741	1059.2922	1079.6784	1108.0598	1122.2792	1148.1244	1184.0271	1192.3937	1217.1933	1294.5473	1344.703	1386.8444	1402.7286	1409.3178	1422.798	1491.446	1497.3747	1511.696	1811.1877	1850.7229	2918.7865	2921.2844	2935.5955	3033.9266	3096.64	3100.995	3105.3539	3125.8025	3189.2344
CC1CN1C(C=O)C=O	C[C@H]1CN1C(C=O)C=O	
InChI=1S/C6H9NO2/c1-5-2-7(5)6(3-8)4-9/h3-6H,2H2,1H3	InChI=1S/C6H9NO2/c1-5-2-7(5)6(3-8)4-9/h3-6H,2H2,1H3/t5-,7?/m0/s1
