15
gdb 132739	2.40975	1.82451	1.04558	4.0498	70.79	-0.2385	-0.0148	0.2237	1058.8235	0.113872	-458.172008	-458.164154	-458.16321	-458.204229	29.59	
C	 0.0017953905	 1.5500335621	 0.0275764832	-0.531685
C	 0.0086106601	 0.0476040625	 0.0036176209	 0.049135
C	 0.0700924833	-0.6996177569	-1.1911849846	 0.343088
N	 0.1545649172	-0.0843025769	-2.4081346085	-0.563661
N	 0.08745239	-2.0438017184	-1.2015718651	-0.32769
C	 0.0474606886	-2.6398193124	-0.0173724391	 0.063959
N	-0.0153256542	-2.0566277827	 1.1801068011	-0.327838
C	-0.0327971876	-0.7375068942	 1.1441479664	 0.297442
F	-0.0946589151	-0.130659378	 2.3277298797	-0.06788
H	 0.8794787051	 1.9599197376	-0.4866431273	 0.137788
H	-0.8884560819	 1.9604934502	-0.4674714123	 0.128775
H	 0.0068488491	 1.9189028391	 1.0535300388	 0.15162
H	-0.1464714964	 0.8707117771	-2.4990668068	 0.260853
H	 0.0117879785	-0.6823726679	-3.2064373853	 0.265117
H	 0.0638795829	-3.7269868511	-0.0227783011	 0.120977
123.4741	151.8848	237.4259	276.6936	285.6274	347.015	370.1613	509.7058	519.7313	534.4178	540.8482	567.5548	707.6583	712.8043	817.1134	886.2338	948.2956	996.6655	1042.2803	1062.3848	1152.3429	1210.3835	1311.6967	1331.4574	1368.2291	1410.3755	1472.4796	1483.9004	1492.5221	1504.4987	1604.021	1633.8016	1654.745	3014.5946	3062.9638	3145.5394	3165.4182	3601.4324	3725.4826
CC1=C(N)N=CN=C1F	Cc1c(N)ncnc1F	
InChI=1S/C5H6FN3/c1-3-4(6)8-2-9-5(3)7/h2H,1H3,(H2,7,8,9)	InChI=1S/C5H6FN3/c1-3-4(6)8-2-9-5(3)7/h2H,1H3,(H2,7,8,9)
