19
gdb 65728	3.48304	1.19059	1.12598	3.4373	75.48	-0.2371	0.0228	0.2599	1151.3214	0.15915	-419.182811	-419.174128	-419.173184	-419.216057	32.871	
C	-0.0243624466	 1.6633366185	 0.1602361137	-0.448733
C	 0.0339027607	 0.1411607617	 0.058167494	 0.32554
C	 1.0852742526	-0.5150204884	-0.8906842777	-0.19527
N	 1.6420391475	-1.3801746282	 0.2140533352	-0.126029
C	 2.1823492507	-0.4361563872	 1.2057406891	-0.247353
C	 0.723614318	-0.6496991348	 1.17535246	-0.089099
N	-1.3009930575	-0.4162506745	-0.1640556698	-0.321456
C	-1.9870041142	-0.2708872149	-1.325759918	 0.153706
O	-1.57551982	 0.315126857	-2.3069376529	-0.333454
H	 0.9675361313	 2.0869491839	 0.3380720475	 0.113596
H	-0.4158455923	 2.0781390795	-0.7715866761	 0.156515
H	-0.6807987606	 1.9688222803	 0.981913278	 0.111639
H	 0.6390296541	-1.122504879	-1.6752325641	 0.13542
H	 1.8252747984	 0.1613204581	-1.3292116543	 0.106408
H	 2.7343358054	-0.9245382932	 2.0030681527	 0.125525
H	 2.6139530938	 0.5024102244	 0.8659412787	 0.116201
H	 0.1979828918	-1.1693218111	 1.973900859	 0.088802
H	-1.7443956146	-0.9171337236	 0.5899895947	 0.247595
H	-2.9806990885	-0.7608866082	-1.2852144495	 0.080447
73.6401	150.8404	167.4437	221.9091	238.9835	268.8193	363.1456	388.3239	445.191	492.7249	521.2672	620.4527	748.4192	778.2353	833.6513	854.2333	876.4152	957.3875	971.5058	988.3582	1027.599	1030.6635	1051.1328	1107.1962	1118.7383	1172.1384	1175.4068	1199.2537	1212.8099	1240.336	1264.6462	1290.2167	1375.6298	1407.6914	1428.0421	1479.0375	1488.8829	1501.1406	1513.7278	1515.5798	1794.4759	2931.2371	3041.3319	3062.9946	3108.6227	3113.2264	3127.5698	3134.5387	3158.7848	3199.0418	3626.2077
CC1(CN2CC12)NC=O	C[C@]1(CN2C[C@@H]12)NC=O	
InChI=1S/C6H10N2O/c1-6(7-4-9)3-8-2-5(6)8/h4-5H,2-3H2,1H3,(H,7,9)	InChI=1S/C6H10N2O/c1-6(7-4-9)3-8-2-5(6)8/h4-5H,2-3H2,1H3,(H,7,9)/t5-,6+,8?/m0/s1
