19
gdb 124519	2.54514	1.33435	0.98683	3.4936	77.23	-0.2296	0.0083	0.2379	1241.4942	0.159424	-419.212272	-419.203151	-419.202207	-419.246097	34.248	
C	 0.357210426	 1.6677986231	-0.1811935015	-0.395033
C	-0.0246250513	 0.212233457	 0.1214491839	-0.105231
C	 0.212405156	-0.6784806752	-1.1158459817	-0.382563
C	 0.6917866486	-0.3241370367	 1.3300607876	 0.121515
C	 1.8306772388	 0.0912196066	 1.941497182	-0.00841
O	 2.1258491776	-0.6682566897	 3.0051354708	-0.180862
N	 1.1482979147	-1.6624606722	 3.1301188083	-0.22884
C	 0.3057057449	-1.4422433251	 2.1456059147	 0.322294
N	-0.856848919	-2.1878286872	 2.0179407634	-0.591445
H	 1.4182849604	 1.7497807833	-0.443048578	 0.11694
H	-0.2196222874	 2.0486451232	-1.0294163015	 0.115169
H	 0.1685509908	 2.3157610521	 0.6795159894	 0.123284
H	-1.1002592662	 0.1865236508	 0.3464105638	 0.090249
H	 1.2688322254	-0.662571802	-1.4037816129	 0.123589
H	-0.0573931984	-1.723444591	-0.9292192042	 0.106234
H	-0.3799988869	-0.3272273001	-1.9670595995	 0.116117
H	 2.5151256187	 0.9020281018	 1.7445992135	 0.142808
H	-0.8509458343	-3.0158601724	 2.5993576211	 0.260252
H	-1.1063803384	-2.4081693664	 1.0643212109	 0.253935
59.8463	145.8469	166.2196	232.5446	264.2524	274.5634	296.6048	302.4172	379.988	458.6159	514.2472	591.5755	609.0767	678.4594	740.5746	775.4132	848.4516	885.3415	916.9232	928.4925	943.8601	965.899	1098.6263	1117.3855	1136.0041	1156.2913	1175.9746	1221.559	1309.697	1343.6206	1372.8565	1397.7092	1419.063	1466.3771	1483.8861	1490.6256	1501.1505	1509.4244	1543.0958	1637.7005	1674.5079	3003.2681	3028.803	3033.6085	3095.7514	3097.8341	3106.3302	3113.781	3259.6853	3553.1224	3652.2036
CC(C)C1=CON=C1N	CC(C)c1conc1N	
InChI=1S/C6H10N2O/c1-4(2)5-3-9-8-6(5)7/h3-4H,1-2H3,(H2,7,8)	InChI=1S/C6H10N2O/c1-4(2)5-3-9-8-6(5)7/h3-4H,1-2H3,(H2,7,8)
