16
gdb 45466	3.47693	1.49133	1.19788	2.4287	72.79	-0.2566	-0.0487	0.2079	1014.9084	0.126609	-437.875014	-437.867983	-437.867039	-437.906857	27.076	
N	-0.1765493643	 1.279437944	-0.1002421678	-0.494384
C	-0.0636340523	 0.0314290939	 0.1158920654	 0.380104
O	-1.1307394964	-0.5738871654	 0.7066422638	-0.244561
C	-1.2175736044	-1.9805419541	 0.7443162159	 0.070538
C	-1.6327702407	-2.7516968887	-0.5266152995	-0.112421
O	-0.5571086677	-3.6984932755	-0.3202575943	-0.288092
C	 0.0621182043	-2.8375303399	 0.6768357452	 0.022433
C	 1.2209974275	-2.0892465971	 0.1059776138	-0.087825
C	 1.1282794097	-0.7869467284	-0.1707405972	-0.143775
H	 0.685905618	 1.6402525514	-0.5050750306	 0.223769
H	-1.847961546	-2.2126899372	 1.6030110657	 0.113899
H	-2.6120863697	-3.2389079817	-0.5258441742	 0.118711
H	-1.5083560372	-2.1701647459	-1.4487736969	 0.117121
H	 0.3349547661	-3.4102059174	 1.5699475938	 0.094746
H	 2.1248058781	-2.6493807451	-0.1165862134	 0.118869
H	 1.9579835452	-0.2495452128	-0.6195729898	 0.110867
80.6851	126.1474	238.9634	378.1822	400.0386	457.0768	487.025	569.7955	674.6286	724.6928	793.6193	817.6235	859.679	872.8646	885.4464	939.9092	993.5873	1003.9704	1006.9934	1045.7804	1074.3726	1106.364	1153.5645	1176.8675	1207.9647	1269.3982	1280.0855	1329.9108	1341.9421	1377.4197	1414.1632	1438.3448	1514.6932	1677.3804	1722.9273	3026.1841	3047.0735	3088.9564	3114.5567	3166.2287	3186.7167	3503.26
N=C1OC2COC2C=C1	[NH]C1=C[CH][C@H]2[C@@H](O1)CO2	
InChI=1S/C6H7NO2/c7-6-2-1-4-5(9-6)3-8-4/h1-2,4-5,7H,3H2	InChI=1S/C6H7NO2/c7-6-2-1-4-5(9-6)3-8-4/h1-2,4-5,7H,3H2/t4-,5-/m0/s1
