19
gdb 40174	3.08346	1.5713	1.37421	1.5857	74.23	-0.244	0.0805	0.3245	997.3373	0.161076	-422.98754	-422.980434	-422.97949	-423.01884	29.166	
C	-0.3786758569	 1.4580515511	 0.0609216325	-0.250362
O	 0.9926934363	 1.0466208982	-0.0420515304	-0.291993
C	-0.0184920724	 0.0381930582	-0.0228487894	 0.426457
C	 0.0322392918	-0.8626749289	 1.2149755059	-0.153529
O	-0.7147648757	-2.066816029	 1.063343564	-0.274154
C	-0.8257209252	-2.5193535098	-0.2802139291	 0.133678
C	 0.4199863028	-2.1552530504	-1.1346996657	-0.268611
C	-0.2519048838	-0.7572666333	-1.2911110099	-0.101673
C	-1.6189432961	-1.4883973918	-1.125980733	-0.238926
H	-0.6641145569	 1.8901341979	 1.0193861078	 0.113734
H	-0.7763905967	 1.9714726613	-0.8143478381	 0.113046
H	 1.0904016116	-1.0956316749	 1.4027255666	 0.113691
H	-0.3548572204	-0.3549242261	 2.1026701848	 0.112277
H	-1.1673675269	-3.5541170185	-0.2258086178	 0.078945
H	 1.4088727664	-2.2222661227	-0.6757743469	 0.109955
H	 0.4189272774	-2.7067354186	-2.0774801227	 0.106067
H	-0.0562789438	-0.1571143996	-2.181608936	 0.070254
H	-1.9707527336	-1.9116294389	-2.0702156174	 0.100897
H	-2.433435918	-0.961145264	-0.6228753652	 0.10025
113.5451	209.0832	326.7396	344.622	398.0393	411.4173	420.4449	511.0966	548.6358	709.8834	803.9999	833.3225	851.1334	890.1106	903.1275	915.8149	918.6664	950.1746	986.2905	1021.1211	1056.4537	1074.8345	1084.7438	1106.2296	1126.0666	1135.4569	1161.8156	1187.9248	1238.238	1249.8359	1263.8639	1269.955	1281.229	1315.9047	1355.4422	1389.7386	1440.6889	1469.7384	1495.723	1515.5488	1531.8185	2998.7668	3057.5762	3068.7965	3075.3235	3083.3349	3093.8869	3101.5227	3119.2765	3125.3837	3161.7529
C1OC11COC2CC1C2	C1O[C@]21CO[C@@H]1C[C@H]2C1	
InChI=1S/C7H10O2/c1-5-2-6(1)8-3-7(5)4-9-7/h5-6H,1-4H2	InChI=1S/C7H10O2/c1-5-2-6(1)8-3-7(5)4-9-7/h5-6H,1-4H2/t5-,6+,7-/m0/s1
