23
gdb 120144	2.65034	1.13292	0.97838	1.0885	86.37	-0.2379	0.0863	0.3243	1368.5874	0.205058	-388.258512	-388.24889	-388.247946	-388.293211	36.16	
C	-0.0584458639	 1.4336732585	-0.0657038758	-0.389361
C	-0.1598898322	-0.0582192237	-0.3315662951	-0.034734
O	 1.0980516561	-0.5199753505	-0.8011158084	-0.247969
C	 1.106989523	-1.888815251	-1.071348578	 0.141518
C	 0.5777410601	-2.4724374163	-2.3464164607	-0.116761
C	 0.853086649	-1.5216511368	-3.5194100318	-0.253751
C	 2.3903363885	-1.6291787624	-3.241382392	 0.048692
C	 3.2340853852	-0.3677538086	-3.0975183079	-0.412757
C	 2.0952977614	-2.4967618873	-2.0057219591	-0.140307
H	 0.7184181555	 1.6397582006	 0.6760492056	 0.127196
H	 0.1934031611	 1.9729176036	-0.9835259549	 0.126751
H	-1.010511862	 1.8189714438	 0.3116867501	 0.114312
H	-0.4342283677	-0.5973269711	 0.5904198531	 0.086037
H	-0.9424508799	-0.2728726413	-1.0755951078	 0.093789
H	 0.9046598776	-2.5016728719	-0.1892504374	 0.080593
H	-0.1337940316	-3.2901367274	-2.3565547506	 0.081146
H	 0.5655123309	-1.9300068328	-4.4900797873	 0.097224
H	 0.4207394946	-0.5219390336	-3.4157814723	 0.098263
H	 2.8314364293	-2.2726093775	-4.010266073	 0.071614
H	 2.8137083136	 0.3011022657	-2.3445844641	 0.139494
H	 4.2585426038	-0.6170966825	-2.797654161	 0.106267
H	 3.2924453959	 0.1700369068	-4.0511035328	 0.103023
H	 2.7121086115	-3.3299697743	-1.685461749	 0.079723
69.4182	93.2031	110.4521	204.1626	208.8301	226.8093	256.471	318.8159	383.0112	393.185	529.8629	635.412	692.8401	739.3247	790.0981	820.7537	860.0957	872.2678	897.3101	945.8324	989.1311	994.7163	1009.2184	1025.0751	1074.1616	1087.7424	1104.2525	1125.4721	1142.0212	1157.4676	1188.2143	1201.9305	1224.2966	1249.3243	1277.4418	1296.1936	1302.157	1348.5489	1376.484	1392.8657	1405.3697	1413.3946	1461.1876	1483.8137	1488.0527	1493.0872	1499.7946	1507.4888	1529.2137	2966.0279	3000.2714	3026.9458	3040.2253	3044.0112	3055.8836	3072.5593	3083.5412	3112.316	3117.445	3120.6196	3138.2862	3159.7414	3175.8893
CCOC1C2CC(C)C12	CCO[C@H]1[C@H]2C[C@@H](C)[C@@H]12	
InChI=1S/C8H14O/c1-3-9-8-6-4-5(2)7(6)8/h5-8H,3-4H2,1-2H3	InChI=1S/C8H14O/c1-3-9-8-6-4-5(2)7(6)8/h5-8H,3-4H2,1-2H3/t5-,6+,7-,8+/m1/s1
