18
gdb 76242	2.48503	1.36979	1.03252	5.3629	77.09	-0.2626	-0.0408	0.2218	1188.8367	0.146006	-401.978143	-401.968813	-401.967868	-402.012478	33.696	
C	-0.2964361439	 1.4819107878	 0.1617410923	-0.401919
C	-0.0178196211	-0.008458057	 0.0076533159	-0.043208
C	 0.8704246625	-0.4069911007	-1.2292007303	-0.099188
C	 0.9843445338	 0.4700974775	-2.4672092923	-0.417634
C	 2.0622308305	-0.4865267875	-0.2718849172	 0.389836
O	 3.2433755949	-0.3911657466	-0.3899799402	-0.274916
C	 1.1098548482	-0.5543660818	 0.9663908632	-0.284109
C	 1.4576765396	 0.176973309	 2.16527329	 0.294923
N	 1.7331030705	 0.7863349931	 3.1087126086	-0.328051
H	 0.6224351736	 2.076411019	 0.1241121238	 0.137328
H	-0.9596897981	 1.8349439692	-0.6333059016	 0.125224
H	-0.7771178035	 1.6870622392	 1.1222718027	 0.142119
H	-0.9462465468	-0.5771317046	 0.0834307068	 0.092216
H	 0.6194957445	-1.4356379917	-1.5221118323	 0.114214
H	 1.2422144165	 1.50068617	-2.210659503	 0.134223
H	 1.7690863447	 0.0862626105	-3.1252033237	 0.142087
H	 0.0458226247	 0.4808610179	-3.0295688745	 0.126541
H	 0.9340914595	-1.6072328533	 1.2132348919	 0.150315
56.3053	124.4792	152.0304	170.1032	204.8429	237.829	261.1871	353.7366	389.4035	451.5701	502.3354	543.5358	601.6582	721.5409	773.6785	808.0485	845.2441	920.9481	987.347	1009.1374	1049.2199	1061.4629	1081.2465	1122.1626	1167.43	1176.6089	1230.8349	1267.2522	1295.6971	1349.7284	1368.9022	1411.9101	1422.7101	1488.5507	1489.3941	1501.5303	1502.7076	1903.5784	2353.3509	3021.6708	3040.3056	3047.2885	3059.4978	3088.9052	3112.3674	3116.1779	3118.3567	3125.5321
CC1C(C)C(=O)C1C#N	C[C@H]1[C@@H](C)C(=O)[C@H]1C#N	
InChI=1S/C7H9NO/c1-4-5(2)7(9)6(4)3-8/h4-6H,1-2H3	InChI=1S/C7H9NO/c1-4-5(2)7(9)6(4)3-8/h4-6H,1-2H3/t4-,5+,6-/m0/s1
