21
gdb 64061	2.54514	1.42093	1.14823	1.4355	85.56	-0.2374	0.0215	0.2589	1167.8111	0.182262	-387.098638	-387.089539	-387.088595	-387.132331	35.492	
C	 0.0800920863	 1.5610763102	 0.1897429818	-0.418491
C	-0.0479583119	 0.0403243607	 0.0032158402	 0.310223
O	-1.4398098699	-0.3132011149	-0.0648899471	-0.466641
C	 0.4975357206	-0.4147491784	-1.3627862239	-0.266402
C	 1.9507483095	-0.1246955673	-1.6309924498	-0.079225
C	 2.9969733923	-0.4181368468	-0.8608310571	-0.04055
C	 3.0281416944	-1.1109217273	 0.472969043	-0.309047
C	 1.8051470408	-1.1733098902	 1.3449996678	-0.057992
C	 0.5734743697	-0.6977656721	 1.1718683734	-0.081975
H	 1.125746981	 1.8756841344	 0.1563028547	 0.127582
H	-0.4761246924	 2.08017021	-0.5976504684	 0.11641
H	-0.3302746509	 1.865258357	 1.1599377499	 0.100149
H	-1.8747145046	 0.0518321482	 0.7131092861	 0.273615
H	 0.2978976817	-1.4897667605	-1.4467056313	 0.120644
H	-0.119674651	 0.0676440232	-2.1267901047	 0.104373
H	 2.1593158412	 0.3640247624	-2.5801829759	 0.084806
H	 3.9849417147	-0.1598657194	-1.2386223085	 0.084154
H	 3.3905850755	-2.1418367017	 0.3167248201	 0.124997
H	 3.8287553276	-0.6545127459	 1.0759672711	 0.11812
H	 1.9984718528	-1.6790558901	 2.290609713	 0.085175
H	-0.1307958475	-0.8499038515	 1.9897783556	 0.070073
44.2012	133.8115	232.014	249.6126	264.4271	293.0616	341.2252	375.4306	418.7425	422.2409	450.2549	508.979	640.7871	681.0266	728.3297	793.0717	822.8103	855.8796	908.1692	928.9379	961.5344	975.6158	997.5894	1006.5902	1014.709	1066.0925	1108.8116	1116.4759	1167.3535	1233.8661	1256.4357	1270.1124	1286.8772	1349.2212	1374.6279	1395.913	1403.5211	1420.8981	1444.1549	1451.6166	1479.1451	1493.54	1494.971	1736.8634	1744.9265	2964.9623	2992.532	3027.352	3035.7533	3080.1212	3094.2534	3110.5497	3127.247	3128.7436	3136.4154	3154.752	3806.6087
CC1(O)CC=CCC=C1	C[C@@]1(O)CC=CCC=C1	
InChI=1S/C8H12O/c1-8(9)6-4-2-3-5-7-8/h2,4-5,7,9H,3,6H2,1H3	InChI=1S/C8H12O/c1-8(9)6-4-2-3-5-7-8/h2,4-5,7,9H,3,6H2,1H3/t8-/m1/s1
