15
gdb 34339	3.08925	1.62213	1.33124	2.8306	71.09	-0.2494	0.0034	0.2528	958.279	0.111224	-420.509427	-420.502254	-420.50131	-420.54087	28.345	
C	-0.0384776619	-1.1898384418	-0.0261913712	-0.375373
C	 0.0062454137	 0.0119414416	-0.0353735922	 0.212272
C	 0.052539018	 1.4487952672	-0.0044741596	 0.287491
O	-0.4136372109	 2.1232729358	-1.1880612585	-0.320487
C	 0.7828921969	 2.9447759888	-1.2564197724	-0.092338
C	 1.360817177	 2.3012655232	 0.0209569375	-0.206069
C	 0.8960773251	 2.904746643	 1.3677656884	 0.02659
O	-0.3705049743	 3.5302556895	 1.1530827555	-0.22316
C	-0.35597077	 2.1238873577	 1.3568174007	-0.068087
H	-0.0772341442	-2.2513764284	-0.0327335146	 0.19805
H	 1.3524319007	 2.7279162344	-2.1665800244	 0.108609
H	 0.548171857	 4.0104184373	-1.1972650538	 0.121243
H	 2.3440754505	 1.8378399173	-0.0025200315	 0.104988
H	 1.5000071341	 3.2687990844	 2.1900759422	 0.113597
H	-0.9754408916	 1.7152221799	 2.1470294839	 0.112673
132.008	149.5525	243.528	300.3993	403.5372	475.4069	517.7826	527.6537	616.3267	649.0536	678.0308	729.0468	808.6034	822.849	854.7709	910.2265	960.064	973.3804	987.7499	1020.269	1032.2486	1055.4003	1080.4369	1103.2643	1164.0017	1192.3784	1239.1625	1277.1401	1293.2906	1338.0577	1373.8735	1504.9626	2232.8721	3039.5896	3103.9175	3150.9396	3181.9842	3198.7396	3499.4043
C#CC12OCC1C1OC21	C#C[C@]12OC[C@H]1[C@H]1O[C@@H]21	
InChI=1S/C7H6O2/c1-2-7-4(3-8-7)5-6(7)9-5/h1,4-6H,3H2	InChI=1S/C7H6O2/c1-2-7-4(3-8-7)5-6(7)9-5/h1,4-6H,3H2/t4-,5+,6+,7-/m0/s1
