23
gdb 60586	2.73564	1.15023	0.87469	1.5781	85.79	-0.2382	0.0866	0.3248	1402.4832	0.205378	-388.262053	-388.252456	-388.251512	-388.29706	35.684	
C	 0.1333249488	 1.7462340772	 0.0455206028	-0.404571
C	 0.075246597	 0.2116449928	 0.000552026	-0.018689
C	 0.6733519432	-0.3220879538	-1.2891157769	 0.041671
C	 0.2879398924	-1.6770947655	-1.8195679309	-0.256443
C	-0.1741353566	-0.4317620774	-2.5341540476	-0.285492
C	 0.7721097089	-0.3811107997	 1.2217073556	 0.175933
C	 0.1326297049	-0.1717242426	 2.6143045991	-0.298627
C	 0.1717265612	-1.7089586077	 2.7012509571	-0.065565
O	 0.6117026579	-1.8185056249	 1.3330889742	-0.292193
H	 1.1708219848	 2.1001874024	 0.0221388433	 0.11355
H	-0.3816554148	 2.1748902926	-0.818814399	 0.121004
H	-0.3344030813	 2.1456569415	 0.9513461946	 0.111733
H	-0.9766893696	-0.1051730264	 0.0465002609	 0.064548
H	 1.708518891	-0.0244299611	-1.4470181605	 0.07428
H	 1.0562410409	-2.2840788954	-2.2855561645	 0.107003
H	-0.4385491614	-2.2442381494	-1.2501720768	 0.120105
H	-1.2226920661	-0.1607902916	-2.4562805822	 0.10525
H	 0.275097307	-0.1850883809	-3.4899368996	 0.106432
H	 1.8419863915	-0.1199954541	 1.196345582	 0.06522
H	 0.7212537538	 0.3780640976	 3.3499050418	 0.107209
H	-0.8755020995	 0.2475034935	 2.5731740165	 0.107784
H	 0.9157269468	-2.1104087304	 3.4023127221	 0.097686
H	-0.7825560709	-2.2215437369	 2.8690614622	 0.10217
69.5386	79.4359	103.3549	145.414	213.0034	229.2611	244.8713	357.5829	383.5284	426.862	508.5034	734.9642	764.8989	818.6263	820.7558	830.1174	876.571	932.0669	941.4587	953.4179	964.8314	997.8864	1030.1246	1033.1894	1059.8313	1071.5991	1086.921	1098.3177	1135.3569	1165.8285	1185.1802	1196.2975	1207.1813	1222.2054	1227.5335	1257.0196	1286.3746	1293.5851	1315.072	1359.7263	1394.8875	1411.1031	1421.7068	1472.0715	1489.503	1496.3766	1499.4817	1507.8564	1532.9999	2973.0517	3005.1762	3008.7643	3029.2248	3052.9858	3072.7403	3092.6717	3109.9367	3119.13	3125.5971	3130.0158	3142.3702	3205.7069	3228.881
CC(C1CC1)C1CCO1	C[C@@H](C1CC1)[C@H]1CCO1	
InChI=1S/C8H14O/c1-6(7-2-3-7)8-4-5-9-8/h6-8H,2-5H2,1H3	InChI=1S/C8H14O/c1-6(7-2-3-7)8-4-5-9-8/h6-8H,2-5H2,1H3/t6-,8+/m0/s1
