18
gdb 33157	4.7195	0.78393	0.71413	1.8557	75.36	-0.1854	0.0448	0.2302	1553.5218	0.147373	-439.101727	-439.092367	-439.091423	-439.136795	33.794	
O	-0.0993056961	 1.435372533	 0.0178383227	-0.415031
C	 0.0205120227	 0.0243280714	 0.0536548158	-0.06802
C	-1.4002264877	-0.5387607262	-0.0309394635	-0.168684
N	-1.430864146	-1.9852518212	-0.0058395972	 0.027528
C	-1.4362671183	-2.7996967231	-1.1033219672	-0.076348
C	-1.3588670299	-4.1105997715	-0.6820470397	-0.316285
C	-1.2998314576	-4.0785186092	 0.738000653	 0.303067
O	-1.2270204383	-5.1347155708	 1.6017356833	-0.448868
C	-1.3404611946	-2.7615736524	 1.1356190109	-0.193717
H	 0.7802069345	 1.8171498343	 0.0856703629	 0.292722
H	 0.6136694144	-0.3610556633	-0.7897702874	 0.097562
H	 0.4972970102	-0.3252835881	 0.9817239721	 0.100145
H	-1.9918815576	-0.1469922089	 0.8022722854	 0.127475
H	-1.8694229945	-0.1918385936	-0.9558954717	 0.125505
H	-1.4994643429	-2.3826164615	-2.0960970263	 0.115946
H	-1.3649054517	-4.9867092609	-1.3136110062	 0.087737
H	-1.2244245151	-5.9455852315	 1.085777665	 0.294438
H	-1.3265996815	-2.3218283465	 2.118590178	 0.114828
49.4726	80.1266	82.664	206.3571	233.0037	276.0275	295.2214	329.1839	382.6507	446.9537	611.9086	622.0712	656.0244	667.1059	743.5652	762.3467	768.8957	804.0317	999.5688	1005.1329	1017.8486	1079.3711	1087.1495	1114.0884	1168.719	1211.5263	1217.1267	1244.5327	1294.1782	1314.1719	1367.6627	1383.1167	1437.3387	1454.2374	1460.0027	1489.382	1527.2771	1542.803	1643.4828	2981.0765	3014.3224	3056.9704	3107.7318	3234.1484	3260.5645	3273.4803	3837.9961	3846.6996
OCCN1C=CC(O)=C1	OCCn1ccc(O)c1	
InChI=1S/C6H9NO2/c8-4-3-7-2-1-6(9)5-7/h1-2,5,8-9H,3-4H2	InChI=1S/C6H9NO2/c8-4-3-7-2-1-6(9)5-7/h1-2,5,8-9H,3-4H2
