21
gdb 66387	3.14549	1.18012	1.06844	2.2472	78.88	-0.2653	-0.0347	0.2307	1215.6429	0.183274	-424.265395	-424.256716	-424.255772	-424.298469	34.011	
O	 0.0298535496	 1.4767806305	 0.0260718815	-0.474864
C	 0.006795587	 0.0655012638	 0.0123507364	 0.28441
C	 0.7606318523	-0.4870326908	 1.2466700025	-0.220111
C	 0.044843639	-0.0943968622	 2.546817034	-0.19824
C	-1.4142953007	-0.5699636851	 2.5500842575	-0.18695
C	-2.1677627197	-0.0468586439	 1.3197005389	-0.198256
C	-1.4567959697	-0.4393789195	 0.0168482182	-0.220131
C	 0.6936265964	-0.4276227227	-1.2457971317	 0.112834
O	 1.1626879845	 0.3272134248	-2.063896336	-0.274999
H	 0.4867130635	 1.7378046566	-0.7893628201	 0.290267
H	 0.8247142547	-1.5812164606	 1.1718941043	 0.090467
H	 1.783775728	-0.0966169567	 1.2362849367	 0.104258
H	 0.5870880027	-0.5088852828	 3.403567671	 0.091068
H	 0.0754006753	 0.9966963178	 2.643972818	 0.119384
H	-1.4408362528	-1.6691908946	 2.5553852939	 0.088489
H	-1.9159035652	-0.2426439567	 3.4672718124	 0.09396
H	-3.1947602168	-0.4275485729	 1.3061559637	 0.091069
H	-2.2303242893	 1.0462522468	 1.3650418664	 0.119377
H	-1.9766070771	-0.0158705525	-0.8490558244	 0.10425
H	-1.4631564999	-1.5320483231	-0.0970698665	 0.090487
H	 0.7428434182	-1.5286152164	-1.3766635666	 0.093231
86.0312	121.8392	200.244	296.4341	296.9604	308.2031	371.4872	390.206	413.6303	443.6386	508.1956	513.3597	670.5474	782.4071	817.2782	843.2742	862.8532	879.4356	931.6399	937.8262	994.1862	1015.8664	1051.4417	1076.2957	1079.1792	1087.6099	1162.9661	1209.667	1213.8037	1282.5967	1301.2622	1301.8246	1348.8364	1351.2039	1367.3009	1382.0337	1387.0826	1397.6413	1433.1323	1467.3744	1477.6352	1483.4967	1489.2097	1501.3888	1810.018	2920.3636	3006.6594	3012.9774	3020.2009	3037.1582	3038.1806	3065.3112	3071.356	3073.1929	3081.4265	3087.0022	3685.6856
OC1(CCCCC1)C=O	OC1(CCCCC1)C=O	
InChI=1S/C7H12O2/c8-6-7(9)4-2-1-3-5-7/h6,9H,1-5H2	InChI=1S/C7H12O2/c8-6-7(9)4-2-1-3-5-7/h6,9H,1-5H2
