19
gdb 107693	3.25215	1.33141	1.12481	1.9051	76.02	-0.2294	0.0624	0.2918	1134.0987	0.159495	-419.092033	-419.08373	-419.082785	-419.124774	32.201	
C	 0.1277976644	 1.3675129333	-0.091094039	-0.529322
C	 0.0453545408	-0.1254766706	-0.0315007946	 0.373467
N	 0.6111016689	-1.0483911602	-1.0788766689	-0.429951
C	-0.0010464601	-1.982707152	-0.0702679554	 0.325772
C	 0.1152382426	-3.4668421552	-0.2482063566	-0.195028
O	 1.4736625176	-3.8430960245	-0.3839437213	-0.416942
C	 0.4675237431	-1.0828425111	 1.1219141488	-0.098474
N	-0.8760349821	-0.9813061684	 1.7792671679	-0.34708
C	-1.1900743889	-1.0345788652	 0.3147297293	-0.156323
H	 1.1690482572	 1.6926073929	-0.1790712762	 0.133237
H	-0.4263827968	 1.7618120677	-0.9498207122	 0.120327
H	-0.3000178774	 1.7951084008	 0.8204356863	 0.146006
H	 0.0315144209	-1.0150672718	-1.9235688748	 0.203563
H	-0.287247786	-3.9915042756	 0.6269054269	 0.107103
H	-0.4813335163	-3.7840762015	-1.1211134329	 0.087412
H	 1.8897577129	-3.1566991576	-0.921359344	 0.294797
H	 1.4129359901	-1.1116181709	 1.663228802	 0.092872
H	-1.118571342	-1.8683265369	 2.228388945	 0.210778
H	-2.2043331491	-0.9947460233	-0.0900873203	 0.077785
93.5233	131.9325	220.3706	224.1769	262.3782	288.3984	383.5808	434.6288	500.4826	553.5126	630.777	694.1884	743.5971	791.3037	814.46	866.4545	877.3007	912.4146	963.5897	1023.2741	1049.8331	1054.5071	1077.6341	1098.1948	1102.166	1143.992	1154.33	1179.4019	1208.2258	1233.3934	1268.5778	1283.1651	1289.6697	1318.9618	1357.5432	1393.9078	1424.269	1452.994	1484.0588	1490.1998	1503.7049	2954.5985	3035.3372	3050.4624	3088.3207	3101.7707	3119.4959	3125.4269	3382.2136	3405.3132	3768.2365
CC12NC3(CO)C1NC23	C[C@@]12N[C@@]3(CO)[C@@H]1N[C@@H]23	
InChI=1S/C6H10N2O/c1-5-3-6(2-9,8-5)4(5)7-3/h3-4,7-9H,2H2,1H3	InChI=1S/C6H10N2O/c1-5-3-6(2-9,8-5)4(5)7-3/h3-4,7-9H,2H2,1H3/t3-,4+,5-,6+
