18
gdb 10134	2.76062	1.25471	0.90901	0.7064	79.7	-0.2602	0.0352	0.2954	1288.1294	0.150357	-310.603406	-310.593807	-310.592862	-310.637833	34.643	
C	 0.0046908466	 1.5851886245	 0.0438479129	-0.385946
C	 0.0009245896	 0.0547872675	-0.0015436423	-0.175436
C	 0.6992091292	-0.4959031691	-1.2468505954	-0.164792
C	 0.7055551266	-2.0508757491	-1.3149309853	-0.352806
C	-0.6530816339	-2.6014621506	-1.384505284	 0.353056
C	-1.7721799693	-3.0349530632	-1.4358916872	-0.471832
C	 1.5243360131	-2.5222350774	-2.4367522752	 0.321018
C	 2.2120615733	-2.8777551644	-3.3548986723	-0.436429
H	 1.0259805854	 1.9819781343	 0.0444350753	 0.115004
H	-0.5133120095	 2.0078164512	-0.8240217118	 0.117836
H	-0.4967869061	 1.9553233146	 0.9432278344	 0.114694
H	 0.495630078	-0.3408408449	 0.8957580567	 0.094616
H	-1.0299672075	-0.3154678668	 0.0274113799	 0.115538
H	 0.2190035409	-0.1137444398	-2.1542416148	 0.11562
H	 1.7426480187	-0.162622272	-1.2744239395	 0.108461
H	 1.167355746	-2.4163000732	-0.3851475262	 0.134638
H	-2.7569617387	-3.4292710113	-1.4853055313	 0.199816
H	 2.8139603677	-3.2047161504	-4.1662889037	 0.196945
81.2996	93.6121	121.6798	130.7347	210.4357	243.3489	272.3063	343.5772	362.3992	475.8483	564.5194	571.0254	630.622	633.9752	643.9303	647.585	746.6141	822.0196	905.3312	910.5436	1010.5523	1026.9738	1064.0526	1111.4406	1139.8375	1243.893	1275.9411	1318.4019	1331.2334	1340.9993	1392.9027	1414.3565	1483.1659	1494.2464	1499.7374	1510.8102	2237.8598	2244.1509	2991.2566	3018.5764	3030.7881	3041.7223	3062.6383	3087.2358	3101.5144	3104.6445	3503.8109	3504.7871
CCCC(C#C)C#C	CCCC(C#C)C#C	
InChI=1S/C8H10/c1-4-7-8(5-2)6-3/h2-3,8H,4,7H2,1H3	InChI=1S/C8H10/c1-4-7-8(5-2)6-3/h2-3,8H,4,7H2,1H3
