27
gdb 119903	2.51332	0.85578	0.79111	0.0534	97.32	-0.2487	0.0798	0.3285	1706.4146	0.249736	-353.56339	-353.551648	-353.550704	-353.60024	43.249	
C	 2.1062000097	 0.1003019117	 1.80783956	-0.38184
C	 1.2944906313	-1.1655957413	 1.5219895507	-0.156189
C	 0.0534529782	-0.9029545349	 0.6560441418	-0.199746
C	-0.7228301874	-2.1684039162	 0.3464361191	-0.053383
C	-1.8286014519	-2.7161623159	 1.235485416	-0.045312
C	-2.2798294612	-2.0457398764	 2.516734896	-0.41594
C	-2.1576562466	-2.1912750746	-0.1518435734	 0.296979
C	-2.9346075271	-0.8978829025	-0.3243881023	-0.451251
C	-2.4973080448	-3.2238352785	-1.213348748	-0.445692
H	 2.9873738602	-0.1177501916	 2.4195125196	 0.109562
H	 2.4532400445	 0.5664612351	 0.8786984334	 0.112332
H	 1.5059601867	 0.844392007	 2.343777118	 0.111784
H	 1.9324174725	-1.9052890698	 1.020282172	 0.092747
H	 0.982894244	-1.6279297359	 2.4671003543	 0.098792
H	-0.5778730144	-0.1625647449	 1.159209941	 0.089722
H	 0.3693308044	-0.4323639696	-0.2860737091	 0.090884
H	-0.0887146087	-2.934174972	-0.0996423051	 0.069061
H	-1.8444608938	-3.8019500519	 1.3119714663	 0.072151
H	-2.2315645893	-0.9555917425	 2.4686085817	 0.114658
H	-3.3152223055	-2.3152222944	 2.7550065522	 0.114351
H	-1.6572134375	-2.3619968154	 3.3614408984	 0.115027
H	-2.7029039604	-0.1483583321	 0.4342664398	 0.112588
H	-2.7238846782	-0.4493296939	-1.3026901053	 0.11188
H	-4.0139444667	-1.087539573	-0.2801621782	 0.110535
H	-3.5625304308	-3.4852456976	-1.1861015723	 0.108754
H	-2.276783542	-2.8460158988	-2.2194895318	 0.10883
H	-1.9250634753	-4.1462119999	-1.0721041749	 0.108716
61.8172	79.5223	108.1719	147.0954	171.6112	202.7061	223.9459	234.4433	249.0123	279.0252	291.857	329.0647	384.946	466.4286	484.8248	556.706	683.7212	746.3298	770.3963	825.3778	889.6485	900.2599	956.0381	968.1573	983.2138	1004.3956	1038.307	1056.0575	1062.4646	1093.286	1122.8207	1140.9641	1158.377	1183.291	1189.2823	1251.3802	1277.2199	1301.5901	1328.7678	1335.0094	1374.6034	1396.8157	1409.947	1412.3788	1415.8026	1427.4458	1459.788	1476.513	1485.3801	1489.7674	1491.5202	1497.5195	1498.7508	1501.1827	1506.5573	1510.0601	1520.6078	3005.7046	3013.8236	3018.6241	3024.2891	3027.1695	3030.2732	3045.5657	3066.2218	3070.5292	3074.9617	3080.8967	3093.0583	3094.2017	3099.1144	3100.9365	3110.0439	3122.4763	3131.5395
CCCC1C(C)C1(C)C	CCC[C@H]1[C@@H](C)C1(C)C	
InChI=1S/C9H18/c1-5-6-8-7(2)9(8,3)4/h7-8H,5-6H2,1-4H3	InChI=1S/C9H18/c1-5-6-8-7(2)9(8,3)4/h7-8H,5-6H2,1-4H3/t7-,8+/m1/s1
