23
gdb 111607	2.91115	1.21193	1.14641	0.2081	88.28	-0.2353	0.0778	0.3131	1242.2288	0.208058	-351.132871	-351.124491	-351.123546	-351.165882	33.693	
C	 0.2288024339	 1.7137937749	 0.0331542739	-0.390042
C	 0.0983413878	 0.1925077308	-0.1250080946	-0.208593
C	 0.6741525424	-0.5343099987	 1.0809741292	 0.01652
C	-0.1285562996	-1.1661975541	 2.197360073	-0.069015
C	-1.5565092904	-1.6758084704	 1.9418657309	-0.254086
C	-1.4462609263	-2.9389390159	 1.0726606933	-0.026837
C	-1.0131100636	-2.8507252416	-0.3702167586	-0.304049
C	 0.0121823321	-3.1273395356	 0.7042776996	-0.0269
C	 0.8135935084	-2.0227092269	 1.3637748486	-0.090093
H	 1.2791857597	 2.0142980099	 0.1153629083	 0.11413
H	-0.2032594528	 2.2404516069	-0.8235038438	 0.108738
H	-0.2858444399	 2.0601147264	 0.9358488015	 0.11845
H	-0.9592131268	-0.048582261	-0.2623571141	 0.106369
H	 0.6114736437	-0.1228268799	-1.0421701456	 0.10114
H	 1.5429517922	 0.001102692	 1.4651587859	 0.075516
H	 0.1134166682	-0.8865854407	 3.2180733184	 0.075889
H	-2.0119565665	-1.9404190997	 2.9013520645	 0.101235
H	-2.2073075332	-0.9143759902	 1.4941230264	 0.101229
H	-2.065835965	-3.7856921829	 1.3495132905	 0.079118
H	-1.2865210156	-3.690252534	-1.0024988194	 0.102825
H	-1.0155297673	-1.9050997179	-0.8907396815	 0.1142
H	 0.4685518764	-4.1110138136	 0.7187219322	 0.077998
H	 1.773151132	-2.3309441078	 1.7659731913	 0.07626
63.375	154.3928	172.443	240.3078	257.1233	317.0108	380.8573	466.1035	603.2509	659.7499	692.4894	697.0364	747.5927	783.5457	815.0813	826.9278	848.592	886.999	922.104	957.4476	986.6109	1001.9268	1025.1704	1044.7604	1062.0488	1069.7257	1072.9295	1102.3728	1111.2607	1120.6673	1135.6837	1147.8636	1202.9791	1225.3811	1256.6463	1292.0293	1304.1632	1319.4783	1328.8388	1364.2822	1381.5263	1392.2582	1408.6811	1446.3152	1478.9018	1497.434	1498.3535	1500.7551	1507.6666	3026.2869	3030.1444	3030.8629	3070.8314	3072.7247	3090.7482	3102.7236	3104.0273	3139.1477	3144.0558	3153.0809	3156.2633	3171.5972	3255.1654
CCC1C2CC3CC3C12	CC[C@H]1[C@H]2C[C@H]3C[C@H]3[C@@H]12	
InChI=1S/C9H14/c1-2-6-8-4-5-3-7(5)9(6)8/h5-9H,2-4H2,1H3	InChI=1S/C9H14/c1-2-6-8-4-5-3-7(5)9(6)8/h5-9H,2-4H2,1H3/t5-,6+,7-,8-,9-/m1/s1
