22
gdb 100045	3.03947	1.05017	0.98003	1.208	78.67	-0.2283	0.0535	0.2818	1325.086	0.191976	-441.439893	-441.429552	-441.428608	-441.47496	39.001	
C	 1.2447926168	 1.0191181874	-0.8992532641	-0.310787
N	 0.5395856146	-0.0749240116	-0.2440485829	-0.090869
C	 1.2971628665	-1.2385655786	 0.1809879705	-0.253797
C	 0.6667508613	-0.338093285	 1.193522801	-0.058559
C	 1.427077939	 0.516921275	 2.2088322729	 0.310627
C	 2.9505416115	 0.5491243618	 2.0854803111	-0.425013
O	 0.9996506599	 1.8972096475	 2.1141508796	-0.472888
C	 1.0395557608	 0.0379456395	 3.630776629	-0.072789
O	 1.532373883	 0.9136930245	 4.6182369254	-0.426003
H	 2.3057263994	 1.1124562953	-0.6315860597	 0.108653
H	 1.1842887881	 0.8572041543	-1.9804888855	 0.121074
H	 0.7534729567	 1.9660866866	-0.663991217	 0.124808
H	 0.8620632388	-2.2112870376	-0.0374997395	 0.113518
H	 2.381038664	-1.1979481526	 0.0855478856	 0.11074
H	-0.2875272588	-0.6764840337	 1.602547829	 0.08554
H	 3.2760878822	 1.0393081685	 1.1674375487	 0.125777
H	 3.3586669155	 1.1005172347	 2.9355037268	 0.135731
H	 3.3588677259	-0.4641196231	 2.1113710753	 0.119037
H	 0.0439844814	 1.9000297486	 1.9841819203	 0.285877
H	-0.0600870315	-0.04412455	 3.6867597379	 0.074111
H	 1.4550901232	-0.9558253491	 3.829906435	 0.111116
H	 1.3409108117	 1.8004623879	 4.2828095408	 0.284098
42.7058	125.3908	161.8563	191.6802	223.4339	254.3926	268.6769	325.018	338.5711	362.2181	383.6765	411.4162	423.0361	513.1837	550.0016	647.4381	734.078	775.2244	855.0195	908.2303	938.4471	943.9953	1019.7184	1040.4386	1081.9266	1095.4894	1125.3748	1134.9927	1147.19	1164.2052	1170.5189	1195.1396	1208.4056	1234.9305	1343.4536	1359.8242	1392.8108	1399.6179	1432.9367	1442.0638	1455.0698	1479.973	1488.2633	1496.3535	1505.1888	1510.6237	1517.8161	2947.5176	3010.9928	3061.7093	3070.7397	3073.4847	3075.8898	3088.6686	3119.0696	3133.6709	3150.7661	3169.9916	3751.2855	3793.8851
CN1CC1C(C)(O)CO	CN1C[C@H]1[C@@](C)(O)CO	
InChI=1S/C6H13NO2/c1-6(9,4-8)5-3-7(5)2/h5,8-9H,3-4H2,1-2H3	InChI=1S/C6H13NO2/c1-6(9,4-8)5-3-7(5)2/h5,8-9H,3-4H2,1-2H3/t5-,6-,7?/m0/s1
