19
gdb 102390	1.76952	1.54351	1.09519	3.6013	71.59	-0.2553	0.0205	0.2758	1196.7962	0.15793	-456.327898	-456.317516	-456.316572	-456.363278	37.128	
C	 0.0916102095	 1.489606131	-0.0748331863	-0.343546
N	-0.0661145413	 0.0560768876	 0.1878749711	-0.317456
C	-1.4320264787	-0.487518791	 0.0511776269	 0.019251
C	-2.2192540581	-0.1334758997	 1.3399791583	-0.055461
O	-1.5032321059	-0.5088095518	 2.4844307008	-0.416468
C	-2.1984691975	-0.0235405221	-1.2182631469	-0.101299
O	-1.4729627304	-0.2765967772	-2.4011231625	-0.420794
C	-1.2955110376	-1.9530768404	-0.0499061391	 0.282187
N	-1.2088966505	-3.0924697676	-0.2231402542	-0.33933
H	 1.1312010639	 1.7578602593	 0.1307513156	 0.134979
H	-0.1433461465	 1.7843762932	-1.1062213063	 0.13485
H	-0.5352297906	 2.0708193244	 0.607326165	 0.135219
H	 0.5572679679	-0.4622686368	-0.4194211217	 0.244728
H	-2.4345818476	 0.9479456007	 1.3203785829	 0.092153
H	-3.1784300468	-0.6601151396	 1.3472177471	 0.122898
H	-0.5742256492	-0.3289861446	 2.2714688298	 0.289662
H	-3.1928382195	-0.4916274821	-1.2297629823	 0.113658
H	-2.3422316015	 1.0590951327	-1.1690951379	 0.123744
H	-1.4544386597	-1.2301551163	-2.5438706501	 0.301025
72.478	106.7909	112.0197	137.6863	175.2063	213.6275	254.329	292.203	326.1127	381.7674	398.9279	440.911	473.3288	540.8285	576.4998	680.5876	706.7044	770.0615	861.0332	975.3431	1018.2934	1066.3481	1087.4065	1105.1804	1117.7921	1146.1646	1162.9935	1217.7551	1232.5636	1292.1709	1363.2593	1384.6952	1415.8198	1442.9337	1460.5381	1490.0159	1494.2264	1501.7921	1516.9875	1531.3496	2353.9778	2966.0755	3008.8785	3014.1187	3081.5314	3089.6123	3098.5521	3119.1452	3551.1178	3698.5723	3796.7412
CNC(CO)(CO)C#N	CNC(CO)(CO)C#N	
InChI=1S/C5H10N2O2/c1-7-5(2-6,3-8)4-9/h7-9H,3-4H2,1H3	InChI=1S/C5H10N2O2/c1-7-5(2-6,3-8)4-9/h7-9H,3-4H2,1H3
