18
gdb 111366	2.07712	1.68864	1.11515	4.8971	75.41	-0.2742	0.021	0.2952	1128.5779	0.147152	-401.925554	-401.917012	-401.916068	-401.95895	31.618	
C	-0.1010730833	 1.5244006609	-0.0693754455	-0.394137
C	-0.1668804827	 0.0017065577	 0.0886407619	-0.196738
C	 0.7128394107	-0.5311196083	 1.2123069175	-0.023688
C	 0.7614794607	-2.0524038745	 1.4251958029	 0.009612
O	 1.3500368904	-2.6348458818	 0.2554877124	-0.227405
C	 2.218722505	-2.1073978694	 1.2503314765	 0.02167
C	 2.3004526488	-0.5800084565	 1.0324507159	-0.217134
C	 2.8823481193	-0.1378622925	-0.2241891814	 0.305996
N	 3.3452674671	 0.2173872022	-1.2224711788	-0.3397
H	 0.9103211775	 1.8569190254	-0.3209343691	 0.139822
H	-0.7660122713	 1.8600468057	-0.8703948232	 0.12165
H	-0.4060823388	 2.0329803129	 0.8522851266	 0.109763
H	-1.2005506444	-0.3022592504	 0.3002660738	 0.099419
H	 0.1154694192	-0.4906970378	-0.8472911577	 0.132534
H	 0.4933964367	-0.0170382466	 2.1539366017	 0.089552
H	 0.0981755193	-2.6782766699	 2.010128357	 0.116259
H	 2.9771691127	-2.7594226446	 1.6656063652	 0.123062
H	 2.8003732732	-0.0740177324	 1.8620972044	 0.129461
96.9292	114.7577	138.8319	182.0609	217.8819	274.808	367.2235	396.038	504.4586	566.0244	650.3891	718.0023	773.0456	807.2458	863.0996	876.3285	898.4782	919.4807	976.185	1009.8503	1029.1389	1052.3352	1075.569	1117.83	1131.0012	1188.2221	1234.2393	1240.2981	1262.1153	1285.9416	1323.9391	1337.4635	1383.7377	1404.6059	1418.473	1487.2049	1502.0647	1508.0817	2353.7807	3025.1048	3035.5068	3055.6631	3081.9176	3088.8038	3105.9304	3117.3587	3189.6442	3205.1231
CCC1C2OC2C1C#N	CC[C@H]1[C@H]2O[C@H]2[C@H]1C#N	
InChI=1S/C7H9NO/c1-2-4-5(3-8)7-6(4)9-7/h4-7H,2H2,1H3	InChI=1S/C7H9NO/c1-2-4-5(3-8)7-6(4)9-7/h4-7H,2H2,1H3/t4-,5+,6-,7+/m1/s1
