19
gdb 64152	2.88095	1.32611	1.21884	3.3298	71.49	-0.236	-0.0122	0.2237	1110.5528	0.156861	-460.174492	-460.165184	-460.16424	-460.208764	34.146	
C	-0.3965027767	 1.3372620095	-0.2034996665	-0.449196
C	 0.2053661115	-0.0413272468	 0.0599194758	 0.346022
O	-0.827910033	-0.9824506271	 0.3692641768	-0.46021
C	 1.1059065408	-0.5516640344	-1.0907543784	-0.098439
O	 2.1942132219	-1.2665369355	-0.5126610837	-0.248175
C	 2.0064934264	-1.3502533433	 0.88489378	 0.008255
C	 1.1634539971	-0.1199622708	 1.2591581546	-0.264209
C	 1.3529022504	-2.667031238	 1.3030417647	 0.169101
O	 1.0969973196	-3.572470297	 0.5582290306	-0.24841
H	 0.3810679569	 2.0935394217	-0.3487340623	 0.117931
H	-1.0222519279	 1.3192714866	-1.1031602034	 0.11451
H	-1.0282197346	 1.637303929	 0.6367466425	 0.130395
H	-1.2256804279	-1.2921499985	-0.4508308366	 0.283725
H	 0.5409158684	-1.2092811029	-1.7658505459	 0.099108
H	 1.5103034534	 0.2780061415	-1.6838067067	 0.101202
H	 2.9935945137	-1.3278263159	 1.3693146877	 0.10115
H	 1.8003085992	 0.7667334015	 1.3143778179	 0.110012
H	 0.6132633642	-0.2237081098	 2.1969537577	 0.121804
H	 1.1642974566	-2.7349561698	 2.4016690652	 0.065425
63.5096	89.3279	129.5712	222.0599	232.1327	250.0415	292.2148	346.7117	371.2835	423.594	456.0041	603.4382	669.5384	732.0601	798.9499	817.0811	884.3147	928.6588	944.5773	976.1821	996.0233	1007.0179	1027.0246	1109.1083	1136.1049	1165.5619	1194.3466	1205.5854	1261.9679	1275.045	1315.2792	1352.4335	1357.0228	1396.2271	1408.3607	1421.0664	1475.9533	1488.5182	1495.5731	1514.9042	1848.4487	2842.1	3003.5862	3011.6454	3032.6106	3045.7398	3070.7038	3099.3386	3120.5332	3126.131	3818.6064
CC1(O)COC(C1)C=O	C[C@@]1(O)CO[C@@H](C1)C=O	
InChI=1S/C6H10O3/c1-6(8)2-5(3-7)9-4-6/h3,5,8H,2,4H2,1H3	InChI=1S/C6H10O3/c1-6(8)2-5(3-7)9-4-6/h3,5,8H,2,4H2,1H3/t5-,6-/m0/s1
