12
gdb 5707	5.1402	2.23912	1.58357	3.6108	55.37	-0.1829	0.0244	0.2073	725.7795	0.086527	-414.646401	-414.640527	-414.639582	-414.67634	22.028	
C	 0.0450304387	 1.3765325545	-0.0848149015	 0.009164
O	 1.3078323551	 1.9264982436	 0.4162966923	-0.291342
C	 1.9804716779	 0.7624997421	 0.6488371523	 0.336035
C	 1.1881295597	-0.3258109812	 0.6565291131	 0.29535
O	-0.1211079874	 0.0389303913	 0.3989041086	-0.275636
N	 1.8201787121	-1.4398585511	 1.0866093528	-0.338457
C	 3.0465210388	-1.0039324639	 1.3468473	-0.01997
N	 3.194096969	 0.3598266775	 1.1225531112	-0.383859
H	-0.7722320634	 2.0022466188	 0.274278361	 0.139752
H	 0.1052332742	 1.3638859177	-1.1832396794	 0.114498
H	 3.8813545142	-1.616056326	 1.6472986019	 0.135836
H	 4.0464541311	 0.8890633867	 1.1927167477	 0.278628
151.0946	224.2041	306.5782	450.8956	475.1817	638.3189	646.976	682.7834	706.8204	745.9248	778.6858	869.6563	966.466	1047.4801	1065.4472	1130.7495	1139.0597	1234.8478	1244.2529	1365.7632	1386.092	1439.599	1463.0756	1520.8626	1548.5221	1679.6214	2990.8638	3135.4298	3271.8874	3673.6111
C1OC2=C(O1)N=CN2	C1Oc2c(O1)nc[nH]2	
InChI=1S/C4H4N2O2/c1-5-3-4(6-1)8-2-7-3/h1H,2H2,(H,5,6)	InChI=1S/C4H4N2O2/c1-5-3-4(6-1)8-2-7-3/h1H,2H2,(H,5,6)
