21
gdb 89717	2.78829	1.18519	1.15175	2.7982	79.26	-0.2256	0.071	0.2966	1228.2172	0.179929	-424.201085	-424.191533	-424.190589	-424.235184	36.617	
C	 0.7251296945	 1.3271986074	 0.0881020989	-0.398191
C	 0.0065809668	-0.0037628245	 0.0085250994	 0.157068
C	 0.2479813716	-0.878103538	-1.2466217005	-0.393776
C	 0.9440169723	-1.8188358056	-0.2752082769	 0.378409
C	 1.0326901463	-3.3105053673	-0.1499097865	-0.424781
C	 2.2976062928	-2.4606600057	-0.2813462072	 0.370029
C	 3.1439474184	-2.5412157793	-1.5256652781	-0.440782
O	 3.0527511621	-2.2435512941	 0.8763429971	-0.479526
O	 0.6189210597	-1.0148356426	 0.8685715522	-0.33609
H	 1.777237683	 1.2191594264	-0.1942694426	 0.12447
H	 0.2570853334	 2.0535236331	-0.5853967819	 0.119936
H	 0.6802635293	 1.7267008817	 1.1059736552	 0.129538
H	-1.0498010068	 0.1090547328	 0.2769401374	 0.086107
H	-0.6581567083	-1.2763082792	-1.7073988841	 0.114613
H	 0.8821701978	-0.430994976	-2.0157893855	 0.112548
H	 0.8241431717	-3.7282366238	 0.8297910188	 0.122877
H	 0.7195815343	-3.920050736	-0.9926876056	 0.109831
H	 2.5282311756	-2.7080831908	-2.4145008741	 0.110971
H	 3.7153774699	-1.6173004586	-1.6650712201	 0.117419
H	 3.8564992385	-3.3690542334	-1.4469796728	 0.129708
H	 2.574070647	-1.5746355165	 1.3878875468	 0.289621
56.0385	137.2967	167.2667	201.3103	238.6132	261.4768	329.6514	368.0223	386.0602	408.6129	433.6276	466.7851	532.5394	603.5522	721.6559	787.4292	843.9231	866.9911	901.6337	916.3971	925.6324	935.3689	976.1692	1022.4192	1069.2026	1096.0422	1105.0702	1129.0281	1154.3074	1197.6574	1209.3666	1245.7053	1258.8611	1317.343	1362.6859	1392.8394	1400.2773	1412.5097	1428.0258	1472.601	1483.0389	1483.4886	1493.3688	1497.4755	1511.2564	3031.8265	3033.3421	3040.0331	3066.8912	3097.7421	3106.3681	3109.7518	3112.7071	3119.2912	3120.8323	3214.7351	3717.4496
CC1CC2(CC2(C)O)O1	C[C@H]1C[C@]2(C[C@]2(C)O)O1	
InChI=1S/C7H12O2/c1-5-3-7(9-5)4-6(7,2)8/h5,8H,3-4H2,1-2H3	InChI=1S/C7H12O2/c1-5-3-7(9-5)4-6(7,2)8/h5,8H,3-4H2,1-2H3/t5-,6-,7+/m0/s1
