16
gdb 27647	2.92176	1.28272	0.90142	7.6143	80.29	-0.2324	-0.01	0.2224	1253.7885	0.125023	-397.007556	-396.99874	-396.997796	-397.041352	31.319	
C	-0.0024068787	 1.4753870444	 0.0317933812	-0.504681
C	 0.0072152068	-0.0140981574	-0.0334922542	 0.334175
N	-0.0421438779	-0.7384724768	-1.122901234	-0.3437
C	-0.0093910362	-2.0541156903	-0.6925064123	 0.10356
C	-0.0452409158	-3.1603457589	-1.5805950227	 0.209661
N	-0.0723873707	-4.088931485	-2.272767351	-0.356351
C	 0.0610282627	-2.1273621624	 0.6834311888	 0.24239
C	 0.1180346402	-3.2845875722	 1.6175834539	-0.518225
N	 0.0706077204	-0.8141569332	 1.0843812587	-0.331558
H	 0.9009229313	 1.8667886086	 0.5131565001	 0.137661
H	-0.0501475866	 1.8663763645	-0.9848236898	 0.16828
H	-0.8669739073	 1.8519393295	 0.5901202614	 0.138007
H	 1.0342239751	-3.2770968456	 2.2194858112	 0.140987
H	-0.7334737075	-3.2927664904	 2.3079688745	 0.141024
H	 0.0977027824	-4.2153220172	 1.0470911028	 0.170356
H	 0.1163689018	-0.4969304377	 2.0394367711	 0.268415
89.7886	128.2053	137.3087	145.2322	197.2761	253.8748	317.2068	389.1388	522.3935	538.4506	557.975	588.9197	635.2443	679.385	734.1395	789.4681	974.5731	1019.7974	1042.0671	1059.9007	1066.9992	1164.1464	1223.9377	1294.6918	1395.6604	1413.1008	1426.8358	1429.0583	1481.9518	1482.5378	1490.158	1492.3706	1584.6975	1621.5698	2343.9861	3028.3166	3034.4824	3078.9185	3085.6066	3134.6616	3154.9066	3649.6598
CC1=NC(C#N)=C(C)N1	Cc1nc(C#N)c(C)[nH]1	
InChI=1S/C6H7N3/c1-4-6(3-7)9-5(2)8-4/h1-2H3,(H,8,9)	InChI=1S/C6H7N3/c1-4-6(3-7)9-5(2)8-4/h1-2H3,(H,8,9)
