19
gdb 52796	1.87423	1.27672	0.85684	0.7701	92.	-0.2273	0.039	0.2663	1425.8221	0.155504	-348.691798	-348.681291	-348.680347	-348.728834	37.55	
C	 0.0784465962	 1.4906455698	-0.0370417804	-0.502054
C	 0.0581357659	 0.0353748287	-0.0204572638	 0.108917
C	 0.0269359514	-1.1686639587	 0.0017088585	-0.005458
C	 0.0306365836	-2.6070907384	-0.0076933772	 0.155123
C	 1.094390903	-3.2432674265	-0.8909043133	-0.457629
C	-0.3687812708	-3.3310346886	 1.2604286598	-0.318245
C	-1.3226983585	-3.3456127558	 0.0822476662	-0.245759
C	-2.564538555	-2.6366291876	 0.1319698727	 0.355631
C	-3.6189003032	-2.0586346067	 0.1617563781	-0.46615
H	 0.7081532273	 1.8937496754	 0.7641819192	 0.145332
H	 0.467524493	 1.8722493395	-0.9876384974	 0.14673
H	-0.9291199918	 1.900287521	 0.0951003924	 0.150552
H	 2.0945316807	-2.9498967344	-0.5570151455	 0.129007
H	 1.030047679	-4.3352713317	-0.8553387782	 0.113882
H	 0.9779603059	-2.925079342	-1.931168172	 0.131328
H	 0.1480780553	-4.2546689551	 1.4982838261	 0.117992
H	-0.65189067	-2.7264143534	 2.1128171431	 0.134645
H	-1.3533675535	-4.270975353	-0.4866236701	 0.114053
H	-4.5448578585	-1.5404840725	 0.1886787021	 0.192106
14.2613	67.8484	108.4685	148.7787	171.4154	223.8041	292.1655	300.4888	316.7242	345.4635	442.5508	513.0882	547.1941	578.4879	587.5677	625.6044	646.4851	773.006	829.9319	884.3416	943.4449	1001.1309	1051.7507	1053.4042	1066.5017	1080.5474	1089.7286	1110.3481	1136.6979	1245.1059	1352.9573	1384.5152	1412.7697	1414.7243	1476.5425	1477.6011	1478.837	1486.3108	1500.8869	2238.4213	2369.4844	3024.5485	3034.6373	3083.3632	3086.7297	3106.1701	3110.0232	3137.3844	3141.706	3237.8011	3506.7907
CC#CC1(C)CC1C#C	CC#C[C@@]1(C)C[C@H]1C#C	
InChI=1S/C9H10/c1-4-6-9(3)7-8(9)5-2/h2,8H,7H2,1,3H3	InChI=1S/C9H10/c1-4-6-9(3)7-8(9)5-2/h2,8H,7H2,1,3H3/t8-,9+/m1/s1
