19
gdb 116587	4.03439	0.87074	0.72909	1.1264	81.56	-0.2475	-0.0058	0.2417	1555.8831	0.159736	-419.274729	-419.265535	-419.264591	-419.310556	32.873	
C	 0.074444176	 1.5604633839	 0.4420566226	-0.372901
C	-0.1282926365	 0.3840377913	-0.5089509701	-0.137893
N	-1.5262809558	-0.0334267086	-0.516636108	-0.31763
C	-1.8699402336	-1.0010663887	-1.254789788	 0.41607
C	-3.288071618	-1.5443200607	-1.3644578045	-0.313938
C	-3.2035759953	-2.7051449086	-2.3733549393	-0.344674
C	-1.7368133554	-2.7740848004	-2.7968650106	 0.409867
O	-1.2208937053	-3.5370878626	-3.5745494575	-0.351808
N	-1.0732093444	-1.7694526271	-2.1068862871	-0.367201
H	 1.1212672958	 1.8799218918	 0.4537049494	 0.105832
H	-0.5451860999	 2.4085044967	 0.1368050989	 0.12373
H	-0.216355202	 1.2827910969	 1.4592219343	 0.12373
H	 0.1948247828	 0.673660378	-1.5227757011	 0.094859
H	 0.5233706541	-0.450872286	-0.2017100848	 0.094854
H	-3.6311863108	-1.8630737959	-0.3775458766	 0.140825
H	-3.9577721751	-0.7453996342	-1.6908772993	 0.140823
H	-3.4906665532	-3.6717993737	-1.9515660016	 0.144426
H	-3.8174033999	-2.5540481545	-3.2650550014	 0.144424
H	-0.0828698137	-1.6283435476	-2.2330417852	 0.266605
24.4826	52.1851	130.6102	132.8967	179.3443	279.0885	333.7562	416.0016	523.157	533.4727	594.7949	633.6085	637.2243	690.1374	801.9622	822.4768	848.2586	905.6022	930.8906	1010.9238	1026.1101	1070.1551	1117.9552	1134.4322	1159.1359	1197.8503	1243.1209	1256.8307	1307.5164	1312.9023	1343.7968	1373.7343	1388.1829	1412.6468	1463.0603	1482.6156	1484.9998	1486.9358	1504.0413	1775.9766	1853.6149	2953.2079	2982.9082	3041.3974	3073.061	3080.9462	3106.6633	3114.1558	3119.4131	3123.93	3643.7303
CCN=C1CCC(=O)N1	CCN=C1CCC(=O)N1	
InChI=1S/C6H10N2O/c1-2-7-5-3-4-6(9)8-5/h2-4H2,1H3,(H,7,8,9)	InChI=1S/C6H10N2O/c1-2-7-5-3-4-6(9)8-5/h2-4H2,1H3,(H,7,8,9)
