18
gdb 46393	3.59282	0.93574	0.81061	4.1332	72.77	-0.2522	0.0288	0.281	1402.3186	0.147648	-439.080909	-439.072226	-439.071282	-439.115332	31.19	
O	 0.1519540104	 0.0735256471	-0.3993218014	-0.363777
C	 0.0927676029	 1.2622768934	-0.2230953181	 0.431676
N	-0.9209666102	 2.179385722	-0.3416154913	-0.320568
C	-0.1478096034	 3.3281606249	 0.1384516721	-0.187236
C	 1.0761326824	 2.3672615466	 0.2524934977	-0.143452
C	 1.6974918821	 2.1530009444	 1.6318153638	-0.257725
C	 2.6737536957	 0.9970849398	 1.6335783133	 0.096929
C	 4.119071477	 1.2047374737	 1.4748990605	-0.176429
O	 3.5540338115	 0.9178050365	 2.7555470058	-0.241521
H	-1.8974737133	 2.0698932581	-0.5718434617	 0.252672
H	-0.0475015429	 4.1392409871	-0.5890956386	 0.115182
H	-0.4956859153	 3.7326603357	 1.0949144737	 0.11584
H	 1.847108211	 2.5711437059	-0.4964378191	 0.10491
H	 2.2151132627	 3.060500445	 1.9633986587	 0.108466
H	 0.9046959517	 1.9516351328	 2.3641777812	 0.113379
H	 2.2575286446	 0.0423727989	 1.3137067111	 0.125693
H	 4.7381206629	 0.4171223795	 1.0480184086	 0.11852
H	 4.5074333102	 2.2160436088	 1.3536840637	 0.107441
71.3691	76.8289	99.8265	152.828	216.8845	304.9216	372.0521	417.2029	481.7372	498.2228	712.665	759.0315	814.1709	833.4092	865.0342	889.4162	928.9292	977.7366	994.9216	1062.2698	1083.7725	1122.4894	1138.4267	1156.1614	1165.4116	1175.5526	1184.5561	1193.4249	1244.7622	1281.2523	1295.6109	1316.9606	1371.2979	1396.8519	1446.6373	1488.536	1526.6704	1531.5467	1884.5562	3022.6579	3039.3262	3062.4281	3076.5038	3078.9569	3090.2464	3128.7526	3166.1089	3611.0742
O=C1NCC1CC1CO1	O=C1NC[C@H]1C[C@H]1CO1	
InChI=1S/C6H9NO2/c8-6-4(2-7-6)1-5-3-9-5/h4-5H,1-3H2,(H,7,8)	InChI=1S/C6H9NO2/c8-6-4(2-7-6)1-5-3-9-5/h4-5H,1-3H2,(H,7,8)/t4-,5+/m1/s1
