13
gdb 129418	5.08025	1.02138	0.98107	6.4329	61.93	-0.2654	-0.0321	0.2333	1170.5684	0.0886	-486.036974	-486.029063	-486.028119	-486.07061	28.388	
N	 0.003315037	 1.2587944866	 0.4403624208	-0.55319
C	 0.0653930998	-0.018364388	-0.0553894634	 0.444526
N	 0.9174839216	-0.6028327892	-0.777767482	-0.523515
O	-1.0501932481	-0.7076109022	 0.4066192039	-0.278884
C	-1.0724392064	-2.0416832317	 0.2598523314	 0.528746
C	-1.8948352744	-2.8400694132	-0.4708505226	-0.2192
N	-1.5611121285	-4.1278307907	-0.143829124	-0.104902
N	-0.6308721561	-4.1569301474	 0.7015833993	-0.002727
O	-0.275362156	-2.787567458	 1.0078166272	-0.202835
H	 0.5318124604	 1.9591524578	-0.0526564268	 0.267013
H	-0.8904025363	 1.5621920081	 0.7944463316	 0.271205
H	 1.6869482329	 0.0058382234	-1.0419647292	 0.227912
H	-2.6635372659	-2.5915624856	-1.1800865862	 0.145852
45.9434	64.0493	128.1842	325.7187	370.9165	382.7463	397.4881	451.2922	576.5674	635.0101	677.2689	700.9812	713.7005	783.5641	796.6386	829.1853	941.1075	981.6294	1062.9877	1074.6878	1114.5414	1126.4574	1292.5702	1371.8403	1391.1106	1451.5374	1624.7577	1641.4269	1781.8081	3303.1633	3541.6976	3596.7106	3713.6145
NC(=N)OC1=CN=NO1	NC(=N)Oc1cnno1	
InChI=1S/C3H4N4O2/c4-3(5)8-2-1-6-7-9-2/h1H,(H3,4,5)	InChI=1S/C3H4N4O2/c4-3(5)8-2-1-6-7-9-2/h1H,(H3,4,5)
