19
gdb 103381	2.78847	1.49775	1.26856	3.9531	70.18	-0.2416	0.0523	0.2939	1052.1018	0.159831	-460.125326	-460.117243	-460.116299	-460.157639	32.223	
O	-0.1288790253	 1.5210454532	-0.0151285228	-0.434922
C	 0.0571374967	 0.1096411758	 0.1124206676	-0.186257
C	-1.3335805271	-0.5010365456	-0.0014508343	 0.479932
O	-2.1684276116	 0.0929744748	 0.9604827598	-0.495243
C	-2.0340123864	-0.7023993873	-1.3879748236	 0.019247
C	-1.0136492273	-1.4860366007	-2.2356775668	-0.233794
C	-0.6290818859	-2.5486709037	-1.1485013082	-0.231741
C	-1.5607346772	-2.0322013844	-0.0327279619	 0.01921
O	-2.7940145484	-1.7889992668	-0.7734181194	-0.301711
H	 0.6658049016	 1.9662691604	 0.2911126399	 0.296959
H	 0.7451141568	-0.2614250743	-0.6553394487	 0.096977
H	 0.4690170685	-0.1463748019	 1.0995473765	 0.101534
H	-1.9613732204	 1.036122525	 0.9288101888	 0.284984
H	-2.6487759627	 0.0693854383	-1.8499143685	 0.081642
H	-1.4967180001	-1.9357287644	-3.1051649145	 0.111421
H	-0.1715017253	-0.8823540642	-2.5840511605	 0.100417
H	-0.9053564107	-3.5635439227	-1.4396269604	 0.112033
H	 0.4307191844	-2.5444826044	-0.8786835103	 0.096017
H	-1.6912028595	-2.6109904271	 0.8816003674	 0.083294
91.8575	184.8938	243.5857	263.8771	314.7716	327.5469	406.1509	451.0192	462.1351	485.9792	589.9681	664.7735	754.1947	837.4051	857.2688	872.0664	900.6088	911.3646	954.2575	960.067	1005.1538	1016.56	1048.8182	1076.7051	1090.1647	1147.1591	1184.2082	1189.2984	1229.5363	1232.0503	1243.5319	1253.8187	1285.5915	1296.9781	1314.1934	1331.9319	1421.8402	1456.7882	1481.1669	1502.1852	1516.2935	2999.1472	3057.4186	3063.873	3073.1114	3109.7886	3125.3655	3127.4198	3132.8075	3767.7	3843.4946
OCC1(O)C2CCC1O2	OC[C@@]1(O)[C@H]2CC[C@@H]1O2	
InChI=1S/C6H10O3/c7-3-6(8)4-1-2-5(6)9-4/h4-5,7-8H,1-3H2	InChI=1S/C6H10O3/c7-3-6(8)4-1-2-5(6)9-4/h4-5,7-8H,1-3H2/t4-,5+,6-
