21
gdb 115116	3.05913	1.09765	0.85399	1.3097	86.66	-0.2291	0.0241	0.2531	1380.3869	0.183523	-387.090359	-387.081288	-387.080344	-387.124708	34.177	
O	-0.2010789476	 1.5583496906	 0.0305793439	-0.420549
C	-0.0415808924	 0.1648091516	-0.1915847794	-0.092556
C	-1.3704229847	-0.5327240922	 0.1228991175	-0.037519
C	-1.2726070535	-2.0213809851	-0.2646670695	-0.260625
C	-2.5716454532	-2.7861614746	-0.2490984252	-0.076072
C	-3.5164656954	-2.7874364752	 0.6891854177	-0.032799
C	-3.5724172405	-2.0665543535	 2.0064260361	-0.306671
C	-2.6256522174	-0.9433870463	 2.3271740188	-0.07302
C	-1.7453324713	-0.2947008442	 1.5665796819	-0.0324
H	 0.6593883788	 1.9782426787	-0.055570089	 0.28718
H	 0.2383186558	-0.0365532594	-1.2375710227	 0.084129
H	 0.7522518941	-0.2517420253	 0.450443928	 0.0852
H	-2.1254803188	-0.0624548226	-0.5229701392	 0.098494
H	-0.8465551242	-2.0888160964	-1.2730988358	 0.092601
H	-0.5453803871	-2.5091242189	 0.3998279626	 0.111197
H	-2.7388303811	-3.4246956343	-1.1142594938	 0.080822
H	-4.3801669437	-3.4290849783	 0.5188700156	 0.081716
H	-4.5955664181	-1.6769211037	 2.1379440389	 0.118913
H	-3.4921745036	-2.8238776259	 2.804981969	 0.118273
H	-2.7339451764	-0.5912298647	 3.352795758	 0.080929
H	-1.2204120495	 0.5417281998	 2.0213505165	 0.092757
44.5293	97.4505	142.1458	206.4517	253.7892	300.6571	332.9542	369.3024	416.5492	468.7518	493.1737	639.1721	710.2111	725.8417	799.8112	856.1878	862.5782	913.6688	962.5381	964.0292	1009.8242	1023.253	1047.7257	1065.757	1079.9475	1080.8343	1130.2551	1198.4	1238.5869	1239.6051	1259.935	1267.4076	1286.7205	1315.5984	1358.4234	1370.2512	1402.4528	1425.2327	1444.3738	1452.9033	1459.538	1481.8902	1519.5616	1740.5039	1748.6488	2960.7355	2967.5146	2977.1328	2990.1476	3003.9392	3014.5887	3047.1698	3121.0141	3122.5746	3149.4395	3161.584	3833.9909
OCC1CC=CCC=C1	OC[C@H]1CC=CCC=C1	
InChI=1S/C8H12O/c9-7-8-5-3-1-2-4-6-8/h1,3-4,6,8-9H,2,5,7H2	InChI=1S/C8H12O/c9-7-8-5-3-1-2-4-6-8/h1,3-4,6,8-9H,2,5,7H2/t8-/m0/s1
