15
gdb 48321	2.70582	1.46864	1.10484	6.7444	71.08	-0.2449	-0.0385	0.2064	1075.421	0.112488	-416.768703	-416.760772	-416.759828	-416.801382	29.171	
O	-0.33305184	 0.4131504926	-0.8470102711	-0.243679
C	 0.2482462133	 0.7914868383	 0.1374477107	 0.100935
C	 1.3518243199	 1.8060863132	 0.1036577058	 0.037445
C	 1.7946808842	 2.1998013497	-1.2097139265	 0.248573
N	 2.1802304107	 2.5355950807	-2.2464495479	-0.330317
C	 1.474004688	 2.9637513004	 1.1342713095	-0.117275
C	 1.0301933745	 2.5222461862	 2.5319085963	-0.206019
N	 1.9112251667	 1.3089541966	 2.4287380615	-0.337999
C	 2.4589213153	 1.8382239179	 1.1718187093	-0.041687
H	 0.0199322575	 0.4018946093	 1.1448817148	 0.116659
H	 1.5477259198	 3.9759332074	 0.7620397119	 0.137925
H	 1.3798063596	 3.2354324477	 3.2839976133	 0.12967
H	-0.0272976071	 2.3044386395	 2.7059575486	 0.127759
H	 2.6089816113	 1.2780266534	 3.1627549388	 0.24168
H	 3.5005595762	 1.7632419272	 0.8858840149	 0.136329
99.7388	146.8962	151.8754	206.3322	255.2559	358.5431	394.0945	492.354	547.4976	557.1297	705.7322	740.0296	758.1774	844.0914	903.4128	951.105	974.4897	1002.5861	1009.937	1033.406	1054.2277	1091.0377	1127.3667	1181.2625	1247.6327	1268.5403	1309.6416	1349.8619	1395.3068	1423.3782	1510.2788	1813.5927	2359.2018	2986.3667	3053.1086	3103.0498	3198.6721	3218.599	3552.5522
O=CC1(C#N)C2CNC12	O=C[C@@]1(C#N)[C@H]2CN[C@@H]12	
InChI=1S/C6H6N2O/c7-2-6(3-9)4-1-8-5(4)6/h3-5,8H,1H2	InChI=1S/C6H6N2O/c7-2-6(3-9)4-1-8-5(4)6/h3-5,8H,1H2/t4-,5+,6-/m0/s1
