23
gdb 72138	2.42088	1.89762	1.70596	0.1579	87.47	-0.2643	0.0819	0.3462	982.8717	0.209932	-351.180742	-351.173569	-351.172625	-351.211553	31.385	
C	-0.0074009603	 1.4953020254	-0.0286709499	-0.505926
C	 0.0161873075	-0.0182604258	-0.0371008239	 0.386847
C	 0.5176364884	-0.7403966515	-1.2906128827	-0.272531
C	 0.3197401658	-2.1653600535	-0.7375367888	-0.015932
C	 1.1548307217	-2.0966207655	 0.562384543	-0.22129
C	 0.6945148472	-0.7550133375	 1.1877535819	-0.051856
C	-0.7048630264	-0.8963870071	 1.8307912451	-0.229986
C	-1.2966482048	-0.7816861898	 0.4065787069	-0.051855
C	-1.1777285916	-2.1278636692	-0.3527278446	-0.22129
H	 0.9971153959	 1.9076924072	-0.1804254231	 0.110933
H	-0.6501287406	 1.8856185026	-0.8266064523	 0.110933
H	-0.3850829556	 1.8907778607	 0.9206097668	 0.112828
H	-0.0936464709	-0.5311210716	-2.176023671	 0.084489
H	 1.5627955925	-0.5089378701	-1.5261656393	 0.084488
H	 0.5927037311	-2.985559781	-1.4052962145	 0.051368
H	 0.9887980523	-2.9483960322	 1.2308440783	 0.087206
H	 2.2234404484	-2.0706174026	 0.3220453539	 0.089338
H	 1.4749054911	-0.239660979	 1.7533088826	 0.051406
H	-0.9137346168	-1.8126627678	 2.394478914	 0.081628
H	-0.961108224	-0.0352913346	 2.4545361583	 0.091251
H	-2.2651101946	-0.289752357	 0.2860245548	 0.051406
H	-1.7981792095	-2.1244821944	-1.2557204507	 0.089338
H	-1.4907318868	-2.9816094456	 0.2580693153	 0.087205
228.0368	236.0358	264.8773	338.246	374.8768	442.6908	444.4175	551.7778	567.5775	617.4948	755.052	823.6725	825.5719	838.6234	876.1145	887.0256	912.4048	918.807	943.0348	947.872	975.5947	982.3276	1007.7347	1048.2436	1076.6849	1086.6379	1098.6889	1116.7814	1127.0555	1204.8668	1205.9741	1217.1404	1219.9096	1239.0436	1242.556	1285.3839	1289.4674	1311.8657	1329.7694	1335.3452	1348.1072	1364.5517	1415.8154	1480.1161	1488.5965	1489.9496	1495.6366	1498.1022	1512.1693	3018.6703	3029.4882	3032.0807	3032.9518	3035.6656	3067.1694	3070.3688	3073.5095	3076.7232	3077.9626	3081.6567	3085.6692	3087.3961	3091.8929
CC12CC3CC1CC2C3	C[C@@]12C[C@H]3C[C@@H]1C[C@@H]2C3	
InChI=1S/C9H14/c1-9-5-6-2-7(9)4-8(9)3-6/h6-8H,2-5H2,1H3	InChI=1S/C9H14/c1-9-5-6-2-7(9)4-8(9)3-6/h6-8H,2-5H2,1H3/t6-,7+,8-,9+
