22
gdb 89794	3.12155	1.35167	1.12771	1.3654	85.85	-0.2239	0.0893	0.3132	1182.5841	0.195679	-367.188378	-367.180163	-367.179219	-367.220711	33.431	
C	-0.0311784025	 1.5773485261	-0.0009063338	-0.39694
C	 0.062194097	 0.0569673555	-0.0038835823	 0.072108
C	 0.7412525307	-0.558773876	-1.2549816839	-0.34963
C	 1.3273762078	-1.8641595751	-0.7249389088	 0.404093
C	 0.8026678139	-3.2055632083	-1.1765841677	-0.318872
C	 2.200247841	-2.7700044399	-1.5501152514	-0.328183
C	 1.5723583593	-1.6198430617	 0.7413790622	-0.094789
C	 2.2434279408	-0.3477552378	 1.117853442	-0.266718
N	 0.7771721044	-0.4624002157	 1.1899041166	-0.103706
H	 0.9609676702	 2.0361694527	-0.0735855213	 0.112658
H	-0.6261612252	 1.9290284113	-0.8499488811	 0.112824
H	-0.5026055627	 1.9327794335	 0.9197117443	 0.125466
H	-0.9511175503	-0.3566277682	 0.075655595	 0.081806
H	 0.0329782011	-0.713328555	-2.073400739	 0.10046
H	 1.5289988999	 0.1026917551	-1.6353421504	 0.099548
H	 0.69418639	-3.9902520234	-0.4343249465	 0.112042
H	 0.0463041801	-3.2215628117	-1.9546398117	 0.109957
H	 2.3919801327	-2.4928473485	-2.5817734124	 0.110495
H	 3.0354927086	-3.2611374526	-1.0613746498	 0.112506
H	 1.6138326286	-2.4788627309	 1.407092292	 0.083466
H	 2.7318100368	-0.2569360256	 2.0837943723	 0.112481
H	 2.6980009679	 0.2477263362	 0.3302434256	 0.108929
102.2438	185.119	223.0991	230.7386	287.6727	332.3351	401.8274	428.5459	506.4721	544.534	615.4313	719.9681	778.0169	783.6593	854.0685	859.9537	870.5544	912.7956	933.9073	951.4712	965.3013	987.7361	1033.6537	1057.0775	1066.4061	1080.036	1094.3844	1105.744	1128.0223	1147.247	1169.3542	1188.219	1200.4997	1262.4587	1277.3342	1293.5415	1311.5411	1356.4793	1375.4796	1407.6968	1415.1581	1464.0749	1488.9874	1490.7962	1497.7674	1503.5042	1518.1248	3018.8237	3031.9702	3036.223	3088.7906	3100.762	3109.1344	3114.39	3121.7049	3125.8436	3131.2235	3190.5679	3199.8558	3214.9048
CC1CC2(CC2)C2CN12	C[C@H]1CC2(CC2)[C@H]2CN12	
InChI=1S/C8H13N/c1-6-4-8(2-3-8)7-5-9(6)7/h6-7H,2-5H2,1H3	InChI=1S/C8H13N/c1-6-4-8(2-3-8)7-5-9(6)7/h6-7H,2-5H2,1H3/t6-,7+,9?/m0/s1
