15
gdb 132051	2.32152	1.82334	1.02766	2.6607	73.78	-0.2144	-0.0416	0.1728	1074.0911	0.112159	-461.951626	-461.943807	-461.942863	-461.984017	29.411	
C	-0.0212861214	 1.5390906532	-0.030738528	-0.48305
C	-0.0270618633	 0.0407111993	-0.0196939932	 0.036146
C	-1.1441118384	-0.7128209253	-0.1188378186	 0.250605
F	-2.3443304505	-0.1410959733	-0.2360245909	-0.070154
C	-1.1228475428	-2.1459959224	-0.1057888706	-0.302339
C	 0.0762817581	-2.7369212672	 0.011429225	 0.079248
O	 1.2278995887	-2.0475592308	 0.114319646	-0.236067
C	 1.2523011093	-0.6451921882	 0.1058179265	 0.336859
N	 2.3604499736	-0.0333052511	 0.2052490007	-0.532194
H	 0.5949206528	 1.9117114573	-0.8551307328	 0.147964
H	-1.0335251181	 1.9330161612	-0.1288988328	 0.127998
H	 0.4311008809	 1.9251787889	 0.8882070736	 0.147965
H	-2.0359168398	-2.7176682819	-0.1871713679	 0.128387
H	 0.2434033451	-3.8062386144	 0.0353708555	 0.146289
H	 3.1347805358	-0.6918236154	 0.2830625075	 0.222342
114.9898	141.8307	182.8775	264.5585	284.492	351.8543	465.0984	484.1358	512.2946	537.806	658.2878	684.1155	735.429	772.1827	838.3782	842.8358	901.9742	922.3446	1005.6398	1064.2688	1066.6397	1168.992	1190.0923	1228.4092	1297.693	1360.7382	1411.7359	1459.7485	1475.7682	1480.1223	1635.7029	1701.1425	1732.176	3045.8529	3097.697	3147.3068	3219.2305	3246.0414	3501.5483
CC1=C(F)C=COC1=N	CC1=C(OCC=C1F)[NH]	
InChI=1S/C6H6FNO/c1-4-5(7)2-3-9-6(4)8/h2-3,8H,1H3	InChI=1S/C6H7FNO/c1-4-5(7)2-3-9-6(4)8/h2,8H,3H2,1H3
