19
gdb 90695	3.47357	1.29932	1.04227	3.6855	82.02	-0.2316	-0.043	0.1885	1170.7955	0.160381	-385.921087	-385.913134	-385.91219	-385.95422	30.634	
C	-0.4421109502	 1.3609091499	-0.0751242962	-0.40664
C	 0.1353119842	-0.0478242712	-0.0928267279	 0.032585
C	 1.4822489954	-0.2217011261	-0.8552481943	-0.24773
C	 2.1903276071	-0.6598261536	 0.4678589203	-0.131935
C	 0.8539572228	-0.5031325699	 1.2356301461	-0.083784
C	 0.5330223479	-1.8921345618	 1.7046780796	-0.06248
C	 1.4519219269	-2.7947379943	 1.3331406729	-0.186609
C	 2.5388969683	-2.1474129824	 0.5541612915	 0.372579
O	 3.4998855027	-2.6873696763	 0.0548139309	-0.339235
H	 0.3075165934	 2.0908510466	 0.251661512	 0.116159
H	-0.7819986304	 1.6582652965	-1.0731642906	 0.119807
H	-1.2974238927	 1.4324026276	 0.6059321829	 0.115614
H	-0.6325107393	-0.7591070622	-0.4110831085	 0.07542
H	 1.4931027159	-0.9715491373	-1.649324409	 0.114829
H	 1.8728091527	 0.7138149331	-1.2627429405	 0.108757
H	 3.0384255984	-0.0426715166	 0.7663552951	 0.095281
H	 0.8051758784	 0.2391737319	 2.0377175486	 0.079685
H	-0.3762680824	-2.1191461171	 2.2533318184	 0.11345
H	 1.4370363007	-3.8595711868	 1.528783839	 0.114246
34.8875	153.6987	205.5972	246.8792	297.5765	329.3771	424.6465	471.6405	587.0071	691.4458	718.2125	760.531	790.7022	826.392	855.1994	877.9661	912.3182	938.9917	972.7557	997.1415	1013.9067	1047.51	1079.8267	1101.8996	1108.5574	1175.5298	1185.3944	1201.5598	1227.599	1253.4939	1261.59	1273.028	1312.7048	1356.6123	1364.1101	1409.6114	1483.0064	1494.5497	1496.5869	1634.636	1807.4365	3023.2574	3053.7913	3062.4971	3065.1773	3092.3919	3095.1111	3105.3226	3119.6171	3176.8718	3223.0133
CC1CC2C1C=CC2=O	C[C@H]1C[C@H]2[C@@H]1C=CC2=O	
InChI=1S/C8H10O/c1-5-4-7-6(5)2-3-8(7)9/h2-3,5-7H,4H2,1H3	InChI=1S/C8H10O/c1-5-4-7-6(5)2-3-8(7)9/h2-3,5-7H,4H2,1H3/t5-,6+,7-/m0/s1
