23
gdb 111141	3.36609	1.07728	0.95143	1.7527	86.67	-0.2344	0.0901	0.3245	1379.0607	0.20382	-388.229624	-388.219966	-388.219021	-388.263699	37.23	
C	 0.4168319005	 1.0089202722	 0.6538342196	-0.378309
C	 0.1572551953	-0.4994414886	 0.7480388219	-0.219357
C	-1.2993597882	-0.8577145517	 0.4961545382	 0.030541
C	-1.8208739392	-0.9261208184	-0.9696315785	-0.006239
O	-0.9822344703	-2.1321296362	-1.1693668285	-0.31259
C	-1.6643572813	-2.3243725096	 0.1340861217	-0.021717
C	-3.0056261761	-1.8605177786	-0.5360846608	 0.3526
C	-4.1594462448	-1.323599313	 0.3100213621	-0.480392
C	-3.5487296653	-2.7817156453	-1.6276238165	-0.459268
H	 1.4649391752	 1.2429179095	 0.8640896693	 0.1134
H	 0.1871381106	 1.3895288027	-0.3473595295	 0.115661
H	-0.1979095271	 1.5679907504	 1.3686389875	 0.109731
H	 0.7852345119	-1.0369949116	 0.0330554942	 0.117915
H	 0.4364839781	-0.8529733629	 1.7494903293	 0.09011
H	-1.9526997354	-0.3600006297	 1.2154893592	 0.064323
H	-1.7942647886	-0.1680350302	-1.7556629255	 0.083865
H	-1.4456816643	-3.2467530627	 0.6773213488	 0.083047
H	-3.8608470562	-0.6450571687	 1.1097135134	 0.119169
H	-4.8722289442	-0.789164965	-0.3281196938	 0.120318
H	-4.7044258234	-2.1563141887	 0.7688817608	 0.120412
H	-4.0997773077	-3.6185093171	-1.182994618	 0.108665
H	-4.2514757875	-2.2391439176	-2.2704027917	 0.108638
H	-2.7445210919	-3.1800410892	-2.244881153	 0.139478
81.0609	138.4456	156.8318	185.3855	213.0997	232.578	273.1865	342.9689	380.7959	402.5209	445.0194	533.7048	607.4528	718.1958	736.0981	756.3296	799.839	867.582	871.5333	892.2065	945.809	951.5567	969.6226	1012.9776	1059.0723	1068.5788	1106.2462	1110.1742	1128.4814	1145.0337	1175.1288	1197.5805	1209.1841	1237.2331	1273.3296	1287.2629	1317.6148	1349.6609	1393.2947	1408.7965	1416.3057	1431.0653	1486.0055	1488.7912	1490.9622	1500.0306	1506.1953	1508.5661	1515.8162	3022.3368	3029.0649	3029.6344	3036.6041	3080.8901	3081.6962	3085.2698	3087.1901	3089.3243	3096.4194	3103.0657	3109.1169	3135.4776	3155.4066
CCC1C2OC1C2(C)C	CC[C@H]1[C@H]2O[C@@H]1C2(C)C	
InChI=1S/C8H14O/c1-4-5-6-8(2,3)7(5)9-6/h5-7H,4H2,1-3H3	InChI=1S/C8H14O/c1-4-5-6-8(2,3)7(5)9-6/h5-7H,4H2,1-3H3/t5-,6+,7-
