16
gdb 87341	2.48835	1.39095	1.06092	4.2678	72.64	-0.2324	-0.0081	0.2244	1136.3622	0.123952	-434.041857	-434.03298	-434.032036	-434.075568	32.486	
N	-0.6615981044	 1.4310234025	 0.0512788109	-0.516303
C	-0.3644120101	 0.0407665454	 0.1337955184	-0.016957
C	-0.941988752	-0.7855962707	 1.2404984102	-0.353752
C	-1.4127928621	-1.0598600134	-0.1815507139	 0.218424
O	-2.6970829751	-0.7598881218	-0.7067090122	-0.242378
C	-3.6671279311	-0.0578036925	-0.1068786887	 0.134912
N	-3.5513128973	 0.6503357225	 0.9363019235	-0.472357
C	-0.9358358679	-2.2597505279	-0.8173650594	 0.277776
N	-0.5013950415	-3.2072337999	-1.3199128631	-0.340082
H	-0.6844799854	 1.7488793752	-0.9119422089	 0.237671
H	-1.557388197	 1.6373149486	 0.4822658904	 0.259606
H	 0.6374153767	-0.2145150166	-0.2002391147	 0.123973
H	-0.3322565758	-1.5575628189	 1.6955594244	 0.143855
H	-1.6538901454	-0.3036921326	 1.8946515347	 0.176655
H	-4.5774604625	-0.1893921123	-0.6991441817	 0.126754
H	-4.4446082692	 1.0753855823	 1.17286211	 0.242203
65.2395	152.2148	165.2667	168.7444	229.7512	259.8326	335.0371	372.1478	418.4911	501.5033	561.2484	594.8128	618.2705	748.122	812.9107	821.5078	824.514	893.7281	917.4399	956.1665	1042.611	1081.9028	1099.9234	1123.8909	1167.2407	1240.6024	1271.6058	1302.0052	1341.6592	1420.0636	1429.8617	1469.3204	1669.2639	1707.2873	2347.0667	3094.4424	3150.8817	3159.0128	3266.941	3498.5578	3523.7707	3583.8262
NC1CC1(OC=N)C#N	N[C@H]1C[C@]1(O[CH][NH])C#N	
InChI=1S/C5H7N3O/c6-2-5(9-3-7)1-4(5)8/h3-4,7H,1,8H2	InChI=1S/C5H7N3O/c6-2-5(9-3-7)1-4(5)8/h3-4,7H,1,8H2/t4-,5-/m0/s1
