19
gdb 114144	4.88587	0.89574	0.82694	3.6562	82.49	-0.2508	0.0108	0.2616	1417.5781	0.159826	-382.047297	-382.038561	-382.037617	-382.080865	32.712	
C	 0.0668646733	 1.5128070905	-0.0727717147	-0.382152
C	 0.0140236612	-0.0012472435	 0.1541200755	-0.195482
C	-1.3955911628	-0.5691359181	 0.0346997119	 0.040292
C	-2.1014355635	-0.5814937156	-1.3758093722	-0.304758
C	-2.26906962	-2.1018962763	-1.2340071608	 0.243131
N	-0.8941469529	-2.6585941718	-1.0926457597	-0.353619
C	-1.5635079733	-2.0963069751	 0.0917861237	-0.134918
C	-3.3571174798	-2.9069505259	-1.6764570899	 0.168562
N	-4.2471645071	-3.5521203128	-2.0408357652	-0.345515
H	 1.0906249778	 1.8886902281	 0.0140438629	 0.117976
H	-0.299798803	 1.7792713066	-1.0700022041	 0.120246
H	-0.5478839678	 2.0483579519	 0.6593550419	 0.114129
H	 0.6613101259	-0.5145982655	-0.564788444	 0.121354
H	 0.4061140428	-0.2370765442	 1.15224883	 0.095982
H	-2.0605825849	-0.0982314064	 0.7660054529	 0.084605
H	-3.0493000013	-0.0425386501	-1.3846470898	 0.125988
H	-1.4925720748	-0.2816717214	-2.2312417466	 0.121152
H	-0.975270885	-3.6744341735	-1.0427723271	 0.248392
H	-1.7604445448	-2.7127617872	 0.9607004454	 0.114636
88.6033	106.6627	132.5605	212.1325	217.0454	266.7644	368.782	422.6233	462.6529	555.7815	577.2627	617.5103	687.8	775.4094	811.7801	866.343	906.1603	927.6898	960.2	973.1954	1010.1457	1055.4477	1061.8755	1104.4222	1131.5409	1133.8858	1194.718	1230.8288	1238.5473	1280.1641	1294.3635	1323.7229	1352.0993	1385.4994	1406.4113	1414.0908	1475.4495	1491.1941	1500.8327	1507.2944	2342.6759	3023.554	3031.7093	3053.1219	3075.4367	3079.2887	3100.5509	3106.5137	3143.5173	3192.373	3477.1448
CCC1CC2(NC12)C#N	CC[C@H]1C[C@]2(N[C@@H]12)C#N	
InChI=1S/C7H10N2/c1-2-5-3-7(4-8)6(5)9-7/h5-6,9H,2-3H2,1H3	InChI=1S/C7H10N2/c1-2-5-3-7(4-8)6(5)9-7/h5-6,9H,2-3H2,1H3/t5-,6-,7-/m0/s1
