13
gdb 21802	6.33054	1.1768	1.08683	2.3909	60.06	-0.2534	-0.0342	0.2191	1028.3911	0.096826	-394.792635	-394.785597	-394.784653	-394.82578	23.969	
O	-0.3326620214	 0.8702408133	 1.0598884299	-0.229257
C	 0.0686905838	 1.1165590471	-0.0454261344	 0.159299
C	 1.4499460658	 1.6875893065	-0.352346673	-0.382158
C	 1.3749886195	 2.8536535005	-1.2866629083	 0.279343
N	 1.459455691	 2.7053460946	-2.6132849995	-0.260425
N	 1.3097203814	 3.9415267875	-3.068272659	-0.067193
N	 1.1361019875	 4.8933737439	-2.1635879314	-0.186659
C	 1.1690355773	 4.2201297194	-1.0137976089	-0.118447
H	-0.5550070685	 0.935966291	-0.9492988038	 0.091618
H	 1.932098209	 1.9505810695	 0.5920843441	 0.134908
H	 2.0306919835	 0.8890790562	-0.8307035291	 0.148102
H	 1.3405431612	 4.148624747	-4.0537096668	 0.296976
H	 1.0537588799	 4.7269476736	-0.0688802799	 0.133893
27.9481	62.0108	160.0349	322.331	377.6802	452.6352	537.2666	676.6943	724.3298	743.1985	830.2879	884.2026	994.5221	1011.9509	1031.2561	1051.7245	1158.8632	1188.3686	1209.6715	1258.3463	1288.171	1362.3543	1409.5204	1418.3388	1449.1706	1484.177	1561.185	1839.1151	2888.7477	3042.611	3116.7455	3271.013	3667.0393
O=CCC1=NNN=C1	O=CCc1n[nH]nc1	
InChI=1S/C4H5N3O/c8-2-1-4-3-5-7-6-4/h2-3H,1H2,(H,5,6,7)	InChI=1S/C4H5N3O/c8-2-1-4-3-5-7-6-4/h2-3H,1H2,(H,5,6,7)
