17
gdb 129774	3.29372	1.54706	1.08178	4.7637	75.36	-0.2029	0.0138	0.2168	1084.3633	0.140309	-414.198143	-414.190718	-414.189774	-414.230016	28.381	
N	 0.0200058586	 1.4186793428	 0.2698328972	-0.595818
C	-0.0740827803	 0.0309739932	 0.1296733947	 0.135529
C	-1.1771175061	-0.7775638587	-0.0604152409	 0.329805
C	-2.6520978226	-0.8450164466	-0.300653835	-0.370312
C	-2.9486956725	-2.3587505436	-0.0467796221	-0.21459
C	-1.6040215758	-3.1012213491	-0.2676284105	-0.171265
N	-0.6502121002	-2.0277154405	-0.0367018008	 0.073578
N	 0.6628676218	-2.0362544969	 0.1584046209	-0.19128
N	 1.0219303736	-0.7705299132	 0.2583504139	-0.257455
H	 0.9945405686	 1.6955569273	 0.2911569284	 0.252223
H	-0.459923576	 1.9278492231	-0.4616093536	 0.243025
H	-3.2317307343	-0.200716204	 0.3661203052	 0.129387
H	-2.9100135778	-0.5578675021	-1.3282677034	 0.119924
H	-3.267649642	-2.4944622629	 0.9900308569	 0.128382
H	-3.740200529	-2.7466094985	-0.6907009728	 0.11631
H	-1.4402716313	-3.9246083707	 0.4300974845	 0.141478
H	-1.4986316348	-3.4852140994	-1.2884340926	 0.13108
128.6665	170.3458	205.7757	246.2436	266.7246	359.719	510.8	572.6102	640.3725	665.5973	704.6281	726.3442	797.0486	843.4856	860.2768	899.0205	919.7798	1001.3612	1088.0231	1092.9583	1110.866	1183.6034	1208.6048	1218.5607	1245.4789	1263.4613	1306.8893	1320.7732	1341.7143	1355.3192	1409.3751	1485.508	1502.8401	1505.0448	1528.5685	1638.0466	1656.3349	3021.3379	3045.6779	3069.1764	3085.5772	3112.0964	3126.3007	3528.5594	3619.0127
NC1=C2CCCN2N=N1	Nc1c2CCCn2nn1	
InChI=1S/C5H8N4/c6-5-4-2-1-3-9(4)8-7-5/h1-3,6H2	InChI=1S/C5H8N4/c6-5-4-2-1-3-9(4)8-7-5/h1-3,6H2
