16
gdb 97964	5.86991	0.50699	0.4838	3.0084	72.15	-0.2576	0.0262	0.2839	2174.3132	0.121877	-475.020108	-475.009688	-475.008743	-475.058194	34.785	
N	-0.1885567216	 1.2613308215	 0.3721715434	-0.564165
C	 0.0134877319	-0.0380808955	 0.0050952671	 0.511507
O	 1.0687483924	-0.5161769177	-0.340666347	-0.394061
O	-1.1617242825	-0.716842512	 0.0511356928	-0.255869
C	-1.058652841	-2.0927443717	-0.361603368	-0.224244
C	-2.3698587485	-2.7100237576	-0.2803100089	 0.002676
C	-3.4402328863	-3.2553376318	-0.2195420463	 0.177005
C	-4.7432311166	-3.9038723905	-0.1734582227	-0.217565
O	-4.9353720074	-4.5114505181	 1.0973554726	-0.407819
H	 0.6364616146	 1.7991128056	 0.573830072	 0.269594
H	-1.0418355488	 1.5049409386	 0.8456375026	 0.267483
H	-0.6622139379	-2.1352313567	-1.3819537142	 0.150556
H	-0.3384754412	-2.6111244255	 0.2808740119	 0.152475
H	-5.5210733775	-3.1504991937	-0.3796926768	 0.121102
H	-4.7986962963	-4.6471731352	-0.9856280795	 0.120354
H	-5.8025179132	-4.9295316197	 1.0873067809	 0.29097
20.4694	31.6191	79.6721	124.1161	156.8476	214.2183	233.0372	288.5668	334.4713	339.0861	417.5059	500.6818	534.7406	567.2707	652.3187	783.0015	799.485	942.5433	1008.1872	1023.8431	1048.6318	1076.4783	1116.8425	1165.2931	1244.8095	1255.9611	1257.7504	1339.4468	1420.1373	1460.5768	1489.7067	1499.0118	1612.3472	1833.1605	2378.0791	2964.6947	2983.3357	3043.7362	3077.0265	3615.5085	3745.5772	3817.8525
NC(=O)OCC#CCO	NC(=O)OCC#CCO	
InChI=1S/C5H7NO3/c6-5(8)9-4-2-1-3-7/h7H,3-4H2,(H2,6,8)	InChI=1S/C5H7NO3/c6-5(8)9-4-2-1-3-7/h7H,3-4H2,(H2,6,8)
