13
gdb 42549	4.6299	1.23003	1.12619	2.444	68.12	-0.2763	-0.0481	0.2281	1025.7241	0.089963	-415.57044	-415.563673	-415.562729	-415.60178	25.638	
O	 0.0418885204	 0.0669242585	 0.003913214	-0.309387
C	 0.0066966316	 1.257967793	-0.0525735055	 0.486805
C	-1.0748122265	 2.2999386643	-0.01649098	-0.227135
N	-0.1404073385	 3.2449730689	 0.7192163258	-0.158017
C	 1.0292709904	 2.3908848146	 0.0965051649	-0.152546
C	 0.9182319546	 3.1963517032	-1.212467701	-0.297444
C	-0.491401392	 3.5089291325	-0.7120516283	 0.211737
C	-1.3272519034	 4.5997735581	-1.1177314736	 0.209002
N	-1.9884206996	 5.476145069	-1.480049033	-0.324905
H	-2.1287727919	 2.2269692262	 0.2177873484	 0.147924
H	 1.9617171459	 2.2645380139	 0.6381160119	 0.129088
H	 1.5310989561	 4.0993927087	-1.1872345848	 0.147126
H	 1.0477717228	 2.6714799291	-2.1616094789	 0.13775
121.6038	148.689	216.0939	366.3366	452.0016	491.47	545.5641	558.0656	642.8996	708.7211	753.8101	808.3686	814.8392	883.2976	948.7362	963.205	1018.279	1031.5011	1086.9568	1118.7807	1154.2411	1176.5931	1236.2927	1241.1114	1273.2682	1350.4918	1497.728	1910.5655	2359.5531	3072.8483	3134.8175	3181.9477	3220.3248
O=C1C2N3C1CC23C#N	O=C1[C@H]2N3[C@@H]1C[C@@]23C#N	
InChI=1S/C6H4N2O/c7-2-6-1-3-4(9)5(6)8(3)6/h3,5H,1H2	InChI=1S/C6H4N2O/c7-2-6-1-3-4(9)5(6)8(3)6/h3,5H,1H2/t3-,5-,6-,8?/m1/s1
