21
gdb 99132	4.25848	0.70996	0.66383	3.2054	80.19	-0.2462	-0.012	0.2342	1780.2154	0.178954	-424.235366	-424.224778	-424.223834	-424.272902	36.976	
C	 0.0916890768	 1.5190281932	-0.2643990514	-0.37651
C	-0.1212777898	 0.0086376377	-0.21895368	-0.283992
C	-1.5199897377	-0.40191156	 0.2116479451	 0.389649
O	-2.408589876	 0.4010947709	 0.3792283353	-0.302172
C	-1.7385864409	-1.8992357261	 0.4527236893	-0.347138
C	-3.1630519591	-2.3265058632	 0.1843845156	 0.07526
O	-3.4388754423	-2.8635769053	-1.1163834191	-0.263574
C	-3.5879524805	-3.7250631829	 0.0187533856	 0.071583
C	-2.6753446918	-4.9217488761	 0.1144286396	-0.41914
H	 1.1016596729	 1.7577997537	-0.6087334005	 0.110807
H	-0.627312854	 1.9907264731	-0.9382933657	 0.137393
H	-0.0502613629	 1.9641149864	 0.7241065964	 0.128331
H	 0.0540054888	-0.4470366121	-1.2045963586	 0.1315
H	 0.5996449636	-0.4833677676	 0.4490475756	 0.118107
H	-1.0344418961	-2.4871029172	-0.1411682963	 0.119286
H	-1.4877692013	-2.075716406	 1.5096530743	 0.13328
H	-3.9009627887	-1.604121712	 0.5311083133	 0.111994
H	-4.631363841	-3.9424488718	 0.2589496115	 0.088649
H	-1.6368580503	-4.6643377926	-0.1033022569	 0.122814
H	-2.7235705002	-5.3563884688	 1.1189885004	 0.122297
H	-2.9888725396	-5.6927891234	-0.5970296237	 0.131575
24.6705	45.1094	82.0281	119.9909	167.5468	192.7271	211.1099	260.9558	343.9852	370.8897	451.6972	466.1441	512.5178	654.0324	732.0514	768.6436	808.5346	858.1669	898.3567	953.451	986.5773	1004.7491	1031.5659	1061.0366	1107.6822	1113.2215	1129.9054	1177.1872	1178.6876	1221.0762	1285.3738	1305.8709	1312.3918	1372.3727	1400.5155	1414.0903	1417.2107	1438.4886	1449.8332	1471.1807	1489.5213	1492.5338	1497.9769	1512.9269	1810.5803	3009.4761	3013.5169	3038.6654	3038.9639	3052.0227	3078.7571	3099.341	3102.4284	3121.471	3127.6872	3130.2709	3133.8352
CCC(=O)CC1OC1C	CCC(=O)C[C@H]1O[C@H]1C	
InChI=1S/C7H12O2/c1-3-6(8)4-7-5(2)9-7/h5,7H,3-4H2,1-2H3	InChI=1S/C7H12O2/c1-3-6(8)4-7-5(2)9-7/h5,7H,3-4H2,1-2H3/t5-,7+/m0/s1
