15
gdb 131441	3.34102	1.53086	1.06806	3.0887	68.	-0.2038	0.0238	0.2276	1054.4734	0.115669	-453.93282	-453.925807	-453.924863	-453.964251	27.204	
O	-0.0474830462	 1.3605473686	 0.039828363	-0.419712
C	 0.017633339	 0.019733621	 0.0648304427	 0.308718
N	 0.0401751842	-0.6688483841	-1.0652897388	-0.290579
O	 0.1184435118	-2.0465871451	-0.6595184308	-0.247175
C	 0.1210564007	-2.0399111127	 0.6635853374	 0.489938
C	 0.0494889523	-0.801341239	 1.2122240404	 0.052668
C	 0.1326323533	-0.9284513024	 2.7069231604	-0.36579
C	-0.0583304479	-2.4814381164	 2.8749501425	-0.165451
N	 0.269488579	-3.0850168803	 1.5462977165	-0.407444
H	-0.0664306646	 1.6302693602	-0.8887040791	 0.309213
H	 1.1075540669	-0.612654136	 3.0976431605	 0.12308
H	-0.6319690945	-0.3792399908	 3.263037853	 0.122082
H	 0.5904375009	-2.900706168	 3.6467986447	 0.122667
H	-1.0992592098	-2.7019205991	 3.1420358726	 0.116007
H	-0.202822925	-3.9514701259	 1.324719035	 0.251779
135.7659	202.395	222.8359	279.149	396.4899	469.1813	536.5489	545.9667	610.7122	659.4745	678.3788	733.8216	772.9785	818.3775	858.8352	904.5021	928.3782	1015.7551	1075.8975	1110.0414	1195.4776	1208.3988	1242.2421	1268.9782	1299.999	1340.5072	1360.2734	1453.8582	1499.226	1517.5918	1560.1443	1586.9162	1691.7227	3025.1402	3028.7589	3080.7104	3104.4027	3579.8416	3773.1019
OC1=NOC2=C1CCN2	Oc1noc2c1CCN2	
InChI=1S/C5H6N2O2/c8-4-3-1-2-6-5(3)9-7-4/h6H,1-2H2,(H,7,8)	InChI=1S/C5H6N2O2/c8-4-3-1-2-6-5(3)9-7-4/h6H,1-2H2,(H,7,8)
