15
gdb 128020	5.07087	0.9226	0.78436	5.9963	77.18	-0.2302	-0.0307	0.1996	1396.0156	0.111691	-450.096804	-450.088304	-450.08736	-450.130823	29.922	
C	-0.1458929168	 1.604359886	-0.0521491747	-0.31403
N	 0.0724597859	 0.17444933	-0.0604531915	-0.174441
C	-0.9239943793	-0.5717498858	 0.1294230117	 0.088612
N	-0.8699545183	-1.9638573743	 0.1489741144	-0.424549
C	 0.2062525197	-2.7913818064	-0.0211665338	 0.52419
C	 0.2458400482	-4.1691055165	 0.0011572386	-0.234077
N	 1.5447368697	-4.5150406534	-0.2181139295	-0.089587
N	 2.2850098344	-3.5207373973	-0.3683627486	-0.030595
O	 1.413287789	-2.317741533	-0.2417835041	-0.202768
H	 0.4777557382	 2.064091802	 0.7226386029	 0.136257
H	 0.1747735802	 2.027900705	-1.0104624107	 0.136255
H	-1.1945408984	 1.8953500588	 0.1251078508	 0.096319
H	-1.9502496756	-0.2168646178	 0.3014477031	 0.091045
H	-1.7445594492	-2.435132708	 0.3122348348	 0.270204
H	-0.5357636976	-4.8929196293	 0.1528711865	 0.127167
45.5276	116.0191	118.9983	203.8833	268.804	281.8409	357.2953	370.5212	483.5727	504.6871	659.2557	673.2804	732.3274	741.796	804.6696	968.7239	969.7349	1014.6186	1061.2637	1140.2619	1140.6421	1149.9588	1184.9023	1323.9848	1386.1354	1415.4014	1446.07	1477.8426	1484.6153	1503.051	1521.3218	1631.7633	1777.1129	2966.3701	3014.7727	3063.2828	3083.4077	3287.3689	3651.763
CN=CNC1=CN=NO1	CN=CNc1cnno1	
InChI=1S/C4H6N4O/c1-5-3-6-4-2-7-8-9-4/h2-3H,1H3,(H,5,6)	InChI=1S/C4H6N4O/c1-5-3-6-4-2-7-8-9-4/h2-3H,1H3,(H,5,6)
