17
gdb 70513	2.423	1.92134	1.21736	3.6519	74.96	-0.2442	-0.0562	0.188	1022.3395	0.135891	-421.851101	-421.843239	-421.842295	-421.883296	30.206	
C	-0.4301437343	 1.4162112272	 0.1109104387	-0.472041
C	 0.0780514465	 0.0044479602	-0.0097593191	 0.263147
O	-0.6244857596	-0.9922436921	 0.7679888553	-0.283206
C	 0.7210499332	-0.7028308501	 1.1222829874	-0.011288
C	 1.7196327437	-1.8157882836	 0.9065810142	-0.312916
C	 1.7399439043	-2.3460794396	-0.4959597223	-0.055006
C	 1.1414780676	-1.7469259517	-1.5309195914	-0.14025
C	 0.4109034605	-0.4710775779	-1.4094011425	 0.353099
O	 0.0944948677	 0.1889216769	-2.3806443985	-0.329405
H	 0.329373969	 2.1292253387	-0.2230118437	 0.13145
H	-1.3102425364	 1.5547971583	-0.5216130806	 0.147301
H	-0.6955378296	 1.6343610166	 1.1479456643	 0.122092
H	 0.8273830155	-0.1498105907	 2.0566021901	 0.095765
H	 2.7248556964	-1.4621273086	 1.1780271847	 0.130902
H	 1.5011858863	-2.6337556335	 1.6071776942	 0.1346
H	 2.2979348791	-3.2656598679	-0.6563861082	 0.11244
H	 1.2126879299	-2.143853602	-2.5384061526	 0.113317
95.413	169.0241	224.8962	255.6461	300.2542	356.8375	389.9269	465.5974	496.5588	554.378	652.0248	660.8659	768.0046	817.1655	861.5543	877.2889	897.0017	949.4709	1000.5729	1027.8683	1059.6017	1082.2731	1126.4455	1130.7614	1194.4306	1237.6694	1304.8262	1345.9188	1375.5319	1408.0364	1417.6435	1451.676	1457.1116	1476.4523	1492.4289	1693.4984	1768.2264	3010.0818	3036.2221	3051.3306	3101.0386	3122.5984	3136.2146	3156.2891	3192.636
CC12OC1CC=CC2=O	C[C@]12O[C@H]1CC=CC2=O	
InChI=1S/C7H8O2/c1-7-5(8)3-2-4-6(7)9-7/h2-3,6H,4H2,1H3	InChI=1S/C7H8O2/c1-7-5(8)3-2-4-6(7)9-7/h2-3,6H,4H2,1H3/t6-,7+/m0/s1
