19
gdb 11043	4.12771	1.72202	1.43495	2.8572	71.71	-0.2339	0.0752	0.3092	940.5235	0.165913	-365.051879	-365.044039	-365.043095	-365.083541	30.187	
C	 0.1907276316	 1.5770217983	-0.0384744421	-0.400923
C	 0.0496780609	 0.0650385905	 0.0426071765	 0.154559
O	 0.6761136899	-0.5081980878	-1.1102099016	-0.272365
C	 1.2178051044	-1.7811465049	-0.7906788979	-0.109237
C	 1.473296398	-1.7749090377	 0.708492806	 0.316576
C	 1.6622849702	-3.0729026553	 1.4457621161	-0.497215
N	 2.2129783256	-0.5546785944	 1.1071606405	-0.362996
C	 0.7368546968	-0.5990790261	 1.222699786	-0.129917
H	 1.2465346499	 1.8510134636	 0.0221133849	 0.139809
H	-0.2166412137	 1.9448811653	-0.984094058	 0.122693
H	-0.353291179	 2.0586107311	 0.7807347275	 0.104673
H	-1.018686858	-0.2136757988	 0.0681596418	 0.061192
H	 0.5124138949	-2.5929514924	-1.0372017059	 0.082301
H	 2.126805571	-1.9165944865	-1.3869643911	 0.108206
H	 2.5957653391	-3.5647056764	 1.148368956	 0.129272
H	 1.7012917611	-2.909470888	 2.5277372577	 0.116967
H	 0.841272026	-3.7683670036	 1.2399671629	 0.126755
H	 2.6168206073	-0.7063605117	 2.0296709824	 0.224261
H	 0.2677541542	-0.587522575	 2.2014532483	 0.08539
132.7707	191.3834	204.581	232.3781	243.6967	349.2755	384.4637	410.395	529.3683	585.2814	667.4355	769.3673	827.3069	862.1278	894.8535	924.5031	956.926	1004.447	1011.4911	1046.0955	1079.8718	1091.8887	1113.8607	1135.9556	1153.5085	1173.4989	1240.1708	1304.8211	1308.3416	1354.0994	1370.8066	1390.9905	1404.8261	1417.3504	1457.3123	1485.7105	1485.8012	1499.4992	1501.2817	1509.0811	2944.0095	2961.9091	3025.5065	3043.1406	3063.1164	3087.497	3098.8844	3113.3417	3135.2358	3163.0483	3484.8979
CC1OCC2(C)NC12	C[C@H]1OC[C@@]2(C)N[C@@H]12	
InChI=1S/C6H11NO/c1-4-5-6(2,7-5)3-8-4/h4-5,7H,3H2,1-2H3	InChI=1S/C6H11NO/c1-4-5-6(2,7-5)3-8-4/h4-5,7H,3H2,1-2H3/t4-,5+,6-/m1/s1
