18
gdb 29287	5.51961	0.93943	0.85817	1.4018	81.69	-0.1837	0.0301	0.2137	1364.7353	0.148975	-401.960296	-401.952018	-401.951074	-401.993429	31.802	
N	-0.0723085329	 1.4033383838	 0.3345444652	-0.605609
C	 0.0014668043	 0.0267765307	 0.0723146843	 0.235097
C	-1.009600246	-0.8401389534	-0.2119251933	-0.106818
O	-0.5183810299	-2.1217336544	-0.3097498714	-0.201304
C	 0.8199503224	-2.0593898589	-0.092366949	 0.419055
C	 1.1947064958	-0.7717881458	 0.1484578732	-0.377389
C	 1.5750322286	-3.3157594812	-0.1515666079	-0.104218
C	 0.9624312572	-4.6152646471	 0.3356653864	-0.26359
C	 1.193733988	-4.4080136447	-1.133318152	-0.264644
H	 0.7262281151	 1.9081686561	-0.0287825462	 0.243294
H	-0.9191580958	 1.8255534192	-0.0241282105	 0.241288
H	-2.0702848939	-0.7284543944	-0.3579525043	 0.114877
H	 2.1934308503	-0.4241296928	 0.3646682071	 0.097388
H	 2.6346637605	-3.1800350938	 0.0346510615	 0.091097
H	 1.6040775117	-5.3042266285	 0.8736538318	 0.1129
H	-0.0585418529	-4.5681893373	 0.6960431916	 0.128532
H	 0.3276156103	-4.2223361871	-1.757729399	 0.127593
H	 1.9962934072	-4.9528658204	-1.6180072374	 0.112451
56.086	139.7763	161.2357	221.6143	299.645	315.616	416.2234	452.684	603.6597	617.1483	650.7699	698.6768	712.1554	757.0525	789.065	792.3721	819.5887	895.0797	907.4586	971.1023	1003.4843	1052.0336	1067.1375	1083.9887	1106.6975	1125.8196	1153.6982	1173.6575	1204.4051	1221.9149	1270.9874	1343.1311	1373.8011	1451.0757	1463.6213	1496.0368	1597.7595	1652.5561	1679.9407	3137.0828	3140.5391	3172.0813	3221.3363	3236.7012	3247.4178	3282.2637	3533.7897	3622.3726
NC1=COC(=C1)C1CC1	Nc1coc(c1)C1CC1	
InChI=1S/C7H9NO/c8-6-3-7(9-4-6)5-1-2-5/h3-5H,1-2,8H2	InChI=1S/C7H9NO/c8-6-3-7(9-4-6)5-1-2-5/h3-5H,1-2,8H2
