18
gdb 87635	2.85672	1.20502	1.06119	4.7176	73.75	-0.2382	0.0372	0.2754	1189.8883	0.145734	-439.084624	-439.075418	-439.074473	-439.118637	34.145	
C	-0.1080195519	 1.5603656835	 0.0049990465	-0.40784
C	-0.0033538712	 0.0435217146	 0.0464801804	-0.249138
C	 1.1191322623	-0.593316641	-0.8218544677	 0.444335
O	 1.4013799757	-0.6193491279	-1.9890648985	-0.3676
N	 1.7125723773	-1.1375641154	 0.2975769073	-0.411328
C	 0.7338715756	-0.6171187032	 1.2294477173	 0.41206
C	 0.9846209218	-0.0719000983	 2.6065643111	-0.39551
C	 0.134931868	-1.3211911608	 2.3937552842	 0.024196
O	-1.2544832143	-1.2478980057	 2.5105281552	-0.41812
H	 0.8554418468	 2.0318336411	 0.2220723126	 0.123712
H	-0.4281613	 1.8862169404	-0.9889059905	 0.137468
H	-0.8401401361	 1.9235368127	 0.7332306584	 0.12182
H	-0.9720992096	-0.426658642	-0.142892156	 0.119506
H	 2.5021768608	-1.7560466342	 0.4105510972	 0.248149
H	 1.9658094538	-0.193449313	 3.055196459	 0.115556
H	 0.4664966957	 0.8431680147	 2.8769456026	 0.124393
H	 0.5800262474	-2.2721047379	 2.692347617	 0.087528
H	-1.4752752821	-1.1796264976	 3.4458361138	 0.290815
57.7798	126.1074	184.7141	200.2733	215.703	259.6722	295.5085	343.5032	403.4434	447.4571	509.9505	542.9248	577.4302	699.539	765.1984	815.9716	843.7211	883.0811	944.1965	975.6841	1020.6877	1063.7266	1077.2011	1087.2184	1127.5657	1145.0653	1175.6713	1204.8598	1249.0198	1280.8449	1304.2075	1347.5814	1389.0683	1407.4542	1428.8696	1492.6344	1496.3807	1514.118	1896.1733	3037.9408	3082.6033	3083.8086	3108.2967	3116.7999	3121.2591	3212.3363	3609.1133	3797.6796
CC1C(=O)NC11CC1O	C[C@H]1C(=O)N[C@]21C[C@H]2O	
InChI=1S/C6H9NO2/c1-3-5(9)7-6(3)2-4(6)8/h3-4,8H,2H2,1H3,(H,7,9)	InChI=1S/C6H9NO2/c1-3-5(9)7-6(3)2-4(6)8/h3-4,8H,2H2,1H3,(H,7,9)/t3-,4+,6-/m0/s1
