19
gdb 102329	1.83685	1.39274	1.16538	4.2471	79.65	-0.331	-0.0092	0.3218	1226.8488	0.157449	-382.106175	-382.095837	-382.094893	-382.141314	36.613	
C	-0.0742142815	 1.5689797051	 0.1096825787	-0.415539
C	 0.0098821356	 0.0479162369	-0.0121906024	-0.202058
C	 0.7396776774	-0.4666872851	-1.293510709	-0.082714
C	 0.7655877153	-2.028148368	-1.312687871	-0.202058
C	 1.4586721483	-2.6423186564	-2.5284135437	-0.415539
C	 0.0318552588	 0.0253395944	-2.4902844153	 0.318629
N	-0.5652491214	 0.3849376496	-3.4113738696	-0.337748
C	 2.1227210052	 0.0455333268	-1.3075457068	 0.318616
N	 3.2143748893	 0.4215209779	-1.2732693089	-0.337729
H	 0.9211445464	 2.0213571145	 0.142828165	 0.148316
H	-0.6212662397	 2.0060846927	-0.7306621595	 0.148334
H	-0.5982077776	 1.8401646214	 1.0301251718	 0.129197
H	 0.5419302001	-0.376180792	 0.8456260366	 0.126115
H	-0.9929120602	-0.3914843397	-0.0224190012	 0.126109
H	 1.2592756606	-2.3467871135	-0.3888265432	 0.126116
H	-0.2757770554	-2.3615868675	-1.2565107003	 0.126106
H	 1.4309688985	-3.7331910537	-2.4609217481	 0.129197
H	 0.9636941836	-2.3496678473	-3.4589240354	 0.148333
H	 2.5068046668	-2.334881796	-2.5866621776	 0.148317
101.1851	104.8407	124.2975	152.6268	170.3102	194.2387	204.488	262.326	281.9981	373.1968	382.5509	483.0449	521.8592	586.2109	635.5097	649.2677	786.845	795.8606	943.0892	945.529	960.5101	1037.541	1062.8526	1097.6591	1106.7837	1168.5226	1216.95	1289.5607	1340.3187	1349.7642	1379.1995	1419.0018	1423.306	1474.3292	1486.3837	1498.7034	1499.5753	1505.7811	1507.2267	2357.9263	2363.3688	3044.8917	3047.5501	3047.7045	3051.2469	3088.3521	3094.5407	3121.6228	3121.7599	3124.4186	3125.4593
CCC(CC)(C#N)C#N	CCC(CC)(C#N)C#N	
InChI=1S/C7H10N2/c1-3-7(4-2,5-8)6-9/h3-4H2,1-2H3	InChI=1S/C7H10N2/c1-3-7(4-2,5-8)6-9/h3-4H2,1-2H3
