23
gdb 106460	2.3356	1.57079	1.11877	0.4142	90.77	-0.2101	0.0266	0.2367	1208.0792	0.206053	-351.138451	-351.129481	-351.128537	-351.17176	35.484	
C	 0.4812081853	-0.7031663439	 1.3047264027	-0.388682
C	 0.0301765342	-0.0151279933	 0.0119009765	-0.30101
C	 0.8007471528	-0.4231982645	-1.2307348684	 0.267423
C	 2.3699048922	-0.3447511456	-1.3466637233	-0.246036
C	 2.0971338496	-1.2759213848	-2.5736139129	-0.068782
C	 0.9724741217	-1.9183316676	-1.6964644303	-0.246043
C	 1.2604256279	-0.3377727178	-3.4506884358	-0.202375
C	 0.4094241619	 0.2258171234	-2.5874675592	 0.305161
C	-0.6716365358	 1.2308221769	-2.7917002964	-0.519384
H	 0.3727828031	-1.790652545	 1.2390661582	 0.117835
H	 1.5307892142	-0.4868392582	 1.5289506954	 0.117836
H	-0.1162706928	-0.3616842611	 2.1556063208	 0.109798
H	-1.0371621352	-0.2191086785	-0.1496295856	 0.095874
H	 0.1106543114	 1.0732640011	 0.1377483497	 0.095878
H	 2.8106261733	 0.6356102668	-1.5462912815	 0.085786
H	 2.8923301636	-0.8471431195	-0.5255371337	 0.087171
H	 2.8828377489	-1.870193797	-3.0390711576	 0.054981
H	 1.3556482279	-2.5774961869	-0.9101726507	 0.087172
H	 0.1305634097	-2.3822878904	-2.2171625027	 0.085785
H	 1.3591785326	-0.1882203802	-4.5172926481	 0.090174
H	-0.7383805679	 1.5256315548	-3.8430299724	 0.122225
H	-1.6526431264	 0.8425659044	-2.4883400782	 0.124618
H	-0.5027446022	 2.1385390869	-2.1978727165	 0.124595
80.0484	159.5808	170.9204	192.4055	219.6858	279.1572	321.674	422.3739	494.0758	518.9533	573.7366	577.2804	638.5336	759.6285	782.122	794.0013	845.8496	882.9998	884.2769	909.8665	955.8227	980.7505	994.797	1006.659	1061.745	1065.5407	1070.6312	1080.3547	1127.3453	1170.5349	1181.5497	1186.6244	1228.9239	1229.6859	1259.3674	1277.7552	1312.7661	1318.6889	1380.6852	1410.2684	1413.5369	1476.5462	1477.2367	1478.0817	1488.8488	1499.4681	1506.4095	1516.7268	1692.4548	3006.5209	3013.2533	3033.757	3034.4733	3037.4904	3045.6397	3055.1152	3101.9745	3102.5456	3103.4112	3105.7331	3110.3657	3119.117	3220.5178
CCC12CC(C1)C=C2C	CC[C@@]12C[C@@H](C1)C=C2C	
InChI=1S/C9H14/c1-3-9-5-8(6-9)4-7(9)2/h4,8H,3,5-6H2,1-2H3	InChI=1S/C9H14/c1-3-9-5-8(6-9)4-7(9)2/h4,8H,3,5-6H2,1-2H3/t8-,9+
