17
gdb 24982	4.52854	1.22031	0.98117	3.9863	75.59	-0.182	0.0519	0.2338	1165.6388	0.139686	-418.079163	-418.071593	-418.070649	-418.111199	29.07	
O	 0.0052194073	-0.0257470728	 0.2018814528	-0.426863
C	-0.0127706771	 1.1833944003	 0.0979408909	 0.419924
N	-1.1269071363	 2.028598152	 0.0445629542	-0.461069
C	-0.7150609277	 3.3564443082	 0.0087612416	 0.306375
C	 0.6270748847	 3.3747987055	-0.0100194335	 0.306375
C	 1.2040870507	 4.7333452217	-0.230549847	-0.33935
C	-0.0753662965	 5.6194900048	-0.0399710808	-0.191619
C	-1.3349443334	 4.6986226923	-0.1950204474	-0.33935
N	 1.07591148	 2.0587228259	 0.0137385444	-0.461069
H	-2.0563533621	 1.6678369975	 0.1678898887	 0.263262
H	 1.9948059406	 5.0127476497	 0.4756073531	 0.10767
H	 1.6299060079	 4.8423346744	-1.2380815926	 0.111207
H	-0.067045371	 6.0423626968	 0.9679376436	 0.116287
H	-0.0966273335	 6.4565517752	-0.7412936856	 0.10608
H	-1.7916039052	 4.7955439464	-1.1902033446	 0.111207
H	-2.11294157	 4.9565720882	 0.5330883899	 0.10767
H	 2.0179599242	 1.7235553239	 0.1108774322	 0.263262
114.7008	144.4435	213.5238	239.3174	318.4868	387.0047	483.3799	523.1571	549.4527	641.539	693.9151	720.7115	753.4466	804.5391	865.4859	900.7959	918.0297	975.367	993.7916	1063.7505	1072.6487	1157.4045	1194.254	1208.6399	1223.194	1251.3579	1290.09	1319.7291	1326.3113	1336.6544	1440.2159	1473.1635	1486.4988	1503.6908	1517.0485	1715.7223	1840.1135	3001.7337	3002.1412	3040.4426	3042.8954	3070.1549	3113.3814	3691.2361	3691.3177
O=C1NC2=C(CCC2)N1	O=c1[nH]c2c(CCC2)[nH]1	
InChI=1S/C6H8N2O/c9-6-7-4-2-1-3-5(4)8-6/h1-3H2,(H2,7,8,9)	InChI=1S/C6H8N2O/c9-6-7-4-2-1-3-5(4)8-6/h1-3H2,(H2,7,8,9)
