23
gdb 101828	4.40634	0.58706	0.54446	1.2165	83.07	-0.2628	0.0771	0.3398	2043.8005	0.203566	-425.402698	-425.391871	-425.390927	-425.439856	38.456	
C	 0.0796684556	 1.6292370677	-0.2002418913	-0.391445
C	 0.0124504763	 0.1112305605	 0.0139885168	 0.034405
C	 0.6183409963	-0.6303226594	-1.1794401212	-0.080011
O	-0.1246557443	-0.298833469	-2.344426436	-0.42429
C	 0.6975270266	-0.3459369678	 1.312729829	-0.183902
C	 0.0421408141	 0.1801614372	 2.5978405436	-0.23282
C	 0.7092914989	-0.364291579	 3.8370662265	 0.102075
C	-0.0379432274	-0.7203479623	 5.0487701098	-0.181672
O	 0.4392326358	-1.7329918685	 4.1606507304	-0.237891
H	 1.1199914749	 1.9782935506	-0.1820134686	 0.103467
H	-0.3469877202	 1.8916438102	-1.1706253612	 0.134742
H	-0.4695209736	 2.1757220989	 0.5718446716	 0.109201
H	-1.0453310112	-0.1848516449	 0.0597798523	 0.081417
H	 1.6781561538	-0.34370757	-1.2902657916	 0.080319
H	 0.5897581679	-1.7152619316	-0.9906526732	 0.084251
H	 0.2948680162	-0.7205734652	-3.0994406334	 0.286172
H	 0.6956378563	-1.4421128406	 1.3582958949	 0.110776
H	 1.7533792015	-0.0389132224	 1.2929299142	 0.089406
H	 0.0855863187	 1.2756528186	 2.6321669785	 0.103343
H	-1.0179826792	-0.1006624735	 2.614112024	 0.101577
H	 1.7598590885	-0.0897502959	 3.9587470998	 0.087607
H	 0.4496557469	-0.6823339147	 6.0221916805	 0.112062
H	-1.1193348525	-0.588078519	 5.0681669245	 0.111213
46.8786	54.6929	92.8665	122.6792	131.5698	234.7561	240.2978	243.0015	272.1158	335.3721	402.2653	436.2304	458.7134	543.7422	754.0566	808.172	840.9109	875.5958	923.5445	934.5506	955.4566	974.9858	1037.6308	1052.3025	1081.8876	1085.4821	1117.4381	1158.5697	1161.9402	1170.8071	1182.8224	1220.4022	1247.4024	1270.2664	1288.6755	1299.1497	1324.6209	1338.4749	1383.5275	1390.8679	1408.4736	1448.125	1458.4556	1471.0336	1492.7722	1496.4921	1509.0115	1521.3741	1531.7025	2953.6642	2985.5798	3001.2213	3013.1362	3027.457	3029.1945	3048.3212	3069.9844	3079.0464	3087.8772	3097.4556	3130.361	3164.4694	3835.2492
CC(CO)CCC1CO1	C[C@@H](CO)CC[C@H]1CO1	
InChI=1S/C7H14O2/c1-6(4-8)2-3-7-5-9-7/h6-8H,2-5H2,1H3	InChI=1S/C7H14O2/c1-6(4-8)2-3-7-5-9-7/h6-8H,2-5H2,1H3/t6-,7+/m1/s1
