16
gdb 62252	3.56286	0.6828	0.59262	3.604	66.71	-0.2678	-0.0384	0.2294	1756.9216	0.120301	-475.013775	-475.00357	-475.002626	-475.050978	33.57	
O	 0.9625076365	 1.3618012418	 0.9747098826	-0.405243
C	 0.2480553657	 0.6232409933	 0.0066790456	-0.026013
C	 0.9571026242	 0.645514	-1.3564018033	-0.076437
O	 0.1109682304	 0.0278509635	-2.291680208	-0.24543
C	 0.6709947041	-0.1006078155	-3.5768497627	-0.144435
C	-0.331141132	-0.8279705171	-4.4591105317	 0.139797
O	-0.1689053773	-1.0000183274	-5.6365762704	-0.231524
C	 0.0021598163	-0.7637403381	 0.4483582155	 0.257655
N	-0.1397501957	-1.8477351154	 0.8216964944	-0.312024
H	 1.7529628362	 0.8668333255	 1.2194804144	 0.301285
H	-0.7204212454	 1.1212401613	-0.1058698994	 0.155804
H	 1.1578279499	 1.6959694796	-1.6146998151	 0.117862
H	 1.9239822868	 0.120532212	-1.2833651703	 0.101827
H	 0.9033182086	 0.877717937	-4.0269251735	 0.129524
H	 1.6079329877	-0.6820725749	-3.5554530094	 0.131288
H	-1.2271141559	-1.1922833756	-3.9113489387	 0.106064
39.2811	60.6185	76.957	106.4133	127.292	195.257	237.9986	278.029	320.4999	329.2915	451.0881	548.1452	589.845	621.8259	742.7439	813.7977	1015.8547	1042.4148	1050.6629	1105.8481	1111.4935	1119.9193	1185.3294	1228.7309	1243.9932	1270.6732	1337.225	1346.7733	1397.7956	1416.551	1425.5926	1480.119	1520.7805	1847.656	2359.534	2909.5924	2966.9715	2974.3814	3007.0007	3020.9478	3077.1649	3803.8799
OC(COCC=O)C#N	O[C@@H](COCC=O)C#N	
InChI=1S/C5H7NO3/c6-3-5(8)4-9-2-1-7/h1,5,8H,2,4H2	InChI=1S/C5H7NO3/c6-3-5(8)4-9-2-1-7/h1,5,8H,2,4H2/t5-/m1/s1
