21
gdb 14734	4.74716	0.75701	0.69675	2.9121	79.98	-0.2413	0.0327	0.274	1710.444	0.186649	-366.265207	-366.25513	-366.254186	-366.301282	34.96	
C	 0.1983984613	 0.8340186693	-0.6585980004	-0.384366
C	-0.3253212806	-0.4494343169	-0.0086037458	-0.172809
C	-1.8163249168	-0.3678824561	 0.3094046166	-0.073618
O	-2.2822615388	-1.5281042437	 0.9961347171	-0.201736
C	-2.6874318283	-2.563610923	 0.2269864479	 0.123541
N	-2.9757377257	-3.6662111084	 0.7551754686	-0.229225
C	-3.4530782534	-4.7752504823	-0.0530012945	-0.108646
C	-3.5834994863	-4.5889031607	-1.5689162123	-0.395661
H	 1.2675151594	 0.7566442013	-0.8748892319	 0.122698
H	-0.3165290901	 1.0449718434	-1.6025134625	 0.117423
H	 0.0542848806	 1.6995116283	-0.0025437151	 0.120529
H	-0.1478710442	-1.3068101988	-0.6696714556	 0.102408
H	 0.2153283863	-0.656283769	 0.9217070239	 0.117472
H	-2.0209282196	 0.472670246	 0.979765729	 0.117343
H	-2.4012407058	-0.2094192012	-0.608483864	 0.100522
H	-2.7455809335	-2.3197212962	-0.8425325967	 0.071758
H	-2.7879515499	-5.6258570386	 0.1480596686	 0.11108
H	-4.427471985	-5.0735495745	 0.3570154173	 0.11168
H	-2.6213259234	-4.3518792781	-2.0358738376	 0.116784
H	-3.9511592863	-5.5150448793	-2.02103617	 0.114758
H	-4.2909355199	-3.7924225715	-1.8237948127	 0.118067
45.6203	58.4951	81.1553	169.4635	178.6392	222.2813	233.7587	271.2366	324.8396	361.439	384.9893	527.2677	604.0639	754.7049	779.8826	884.5022	891.7848	902.6339	983.4567	1028.2745	1049.1053	1084.5924	1093.4308	1127.6778	1147.4175	1179.2909	1234.2313	1296.9569	1315.0978	1332.0973	1343.2688	1378.5791	1396.2114	1409.0984	1415.3662	1431.5804	1484.8824	1489.0691	1494.9563	1499.2472	1500.6357	1507.7131	1513.9042	1778.8617	3001.3346	3011.9901	3022.2947	3031.577	3032.1349	3033.4824	3034.5236	3066.7982	3085.2379	3098.8854	3102.1622	3106.2054	3110.8696
CCCOC=NCC	CCCOC=NCC	
InChI=1S/C6H13NO/c1-3-5-8-6-7-4-2/h6H,3-5H2,1-2H3	InChI=1S/C6H13NO/c1-3-5-8-6-7-4-2/h6H,3-5H2,1-2H3
