16
gdb 74872	3.11316	1.56952	1.12881	1.8253	72.73	-0.22	-0.0147	0.2053	1041.4408	0.12626	-434.098373	-434.090878	-434.089934	-434.130195	29.303	
N	-0.0406204258	 1.3308468203	-0.1786045884	-0.584922
C	-0.0726519076	-0.0163884587	-0.0359947865	 0.451982
N	-1.1189333435	-0.7566970295	 0.0611197528	-0.340617
C	-0.6835652978	-2.1287101909	 0.0464463291	-0.000795
C	-0.0062651093	-2.6385899853	-1.2075775351	-0.314914
C	 0.8322218403	-2.1390844233	-0.053742714	-0.038586
N	 1.161746921	-0.7317857271	-0.0648707269	-0.10538
C	 2.4204347567	-0.2125157639	 0.011158825	 0.159633
O	 2.6942555017	 0.9716110066	 0.0786923193	-0.341177
H	 0.8400461116	 1.7862790924	 0.0198264515	 0.28506
H	-0.9045687982	 1.8098868116	 0.0141810839	 0.266249
H	-1.2374844376	-2.8191724123	 0.6715968045	 0.102031
H	 0.0012829234	-3.7113042048	-1.3694951504	 0.120371
H	-0.0696273803	-2.0333577978	-2.105863989	 0.127447
H	 1.5006717684	-2.7851524298	 0.500650667	 0.115111
H	 3.1929240369	-1.0020542475	 0.0078589372	 0.098507
99.0314	197.468	261.0846	263.0058	364.2679	407.1063	442.6986	487.9753	504.9455	580.6495	705.0479	729.3677	743.0571	775.9469	795.4157	839.4415	939.7282	990.4914	1024.7194	1037.0629	1058.6136	1077.1833	1090.3569	1189.9893	1203.802	1221.708	1306.2596	1326.2319	1386.0604	1425.2713	1441.35	1463.7164	1592.6271	1721.6051	1781.229	2977.149	3128.4205	3176.7209	3192.3849	3223.0142	3546.2706	3703.3116
NC1=NC2CC2N1C=O	NC1=N[C@H]2C[C@H]2N1C=O	
InChI=1S/C5H7N3O/c6-5-7-3-1-4(3)8(5)2-9/h2-4H,1H2,(H2,6,7)	InChI=1S/C5H7N3O/c6-5-7-3-1-4(3)8(5)2-9/h2-4H,1H2,(H2,6,7)/t3-,4+/m0/s1
