17
gdb 114154	5.20926	0.92351	0.85532	3.5057	75.94	-0.255	0.0066	0.2617	1340.0538	0.135712	-417.95971	-417.951189	-417.950245	-417.993216	31.086	
C	 0.1154988048	 1.3179981148	 0.1152825705	-0.240372
O	-0.2902299251	 0.0058365505	-0.2143231812	-0.237038
C	 0.5074359735	-0.5911589259	-1.184630742	 0.178127
C	 1.9362033753	-1.1487078391	-0.7984309178	-0.327955
C	 1.4638099747	-2.5182239024	-1.307662067	 0.221815
N	 0.3169033301	-2.8903022517	-0.4378418564	-0.340348
C	 0.0766541197	-1.9999508519	-1.582682216	-0.153555
C	 2.2110152139	-3.4893007543	-2.032238337	 0.178113
N	 2.8308076286	-4.2720471421	-2.6188131681	-0.343063
H	 1.1255399956	 1.3380270712	 0.5501942369	 0.114006
H	 0.1035133151	 1.9790150805	-0.7652937609	 0.108183
H	-0.5931362971	 1.6977111257	 0.854045343	 0.136287
H	 0.5925119025	 0.046741453	-2.0777801104	 0.080818
H	 2.7462516825	-0.7078889843	-1.3797973015	 0.125754
H	 2.1725312515	-1.1420890902	 0.2666035799	 0.128834
H	 0.0066295779	-3.8236684265	-0.7097095985	 0.250621
H	-0.6092860235	-2.2776488374	-2.3731093235	 0.119773
79.9691	105.2993	141.6682	197.5847	215.7749	286.3944	387.3964	445.1419	465.8507	557.0662	579.1285	635.6765	695.797	815.933	860.8034	926.4298	967.6993	980.2363	1020.3448	1050.8456	1060.047	1124.9025	1154.561	1172.1082	1184.0261	1211.9399	1234.1168	1246.5661	1306.6236	1329.2811	1399.0095	1401.7129	1467.0449	1484.1634	1490.4375	1507.6582	2344.7863	2977.1317	2988.5928	3029.4843	3085.8619	3125.5472	3153.3437	3200.6406	3476.2555
COC1CC2(NC12)C#N	CO[C@H]1C[C@]2(N[C@@H]12)C#N	
InChI=1S/C6H8N2O/c1-9-4-2-6(3-7)5(4)8-6/h4-5,8H,2H2,1H3	InChI=1S/C6H8N2O/c1-9-4-2-6(3-7)5(4)8-6/h4-5,8H,2H2,1H3/t4-,5-,6-/m0/s1
