19
gdb 91189	3.70123	1.31678	1.11181	1.5636	83.02	-0.2311	0.0156	0.2467	1143.3427	0.16043	-385.900372	-385.892723	-385.891778	-385.932476	30.299	
C	 0.1087456941	 1.5446651878	-0.02733048	-0.389932
C	-0.0076001429	 0.0272480248	 0.0623832207	 0.107463
O	 0.5799529927	-0.5590041969	-1.1146311224	-0.29763
C	 1.2568111084	-1.7475268138	-0.7247207618	 0.052251
C	 2.6702650747	-1.9888183593	-1.2104243205	-0.114114
C	 3.4536059449	-2.3607683074	-0.192920954	-0.058975
C	 2.7299804964	-2.3504962142	 1.1527002156	-0.370475
C	 1.4866890686	-1.6021111325	 0.7626821554	 0.291714
C	 0.7637309097	-0.5886342829	 1.2174751598	-0.265058
H	 1.1600513163	 1.8465255703	-0.0346729301	 0.121398
H	-0.3615131547	 1.9013517024	-0.9480849743	 0.125863
H	-0.3916293308	 2.0217949456	 0.8218051453	 0.109796
H	-1.0772767647	-0.2466745858	 0.1020559815	 0.07445
H	 0.624650688	-2.6181031642	-0.9851188156	 0.074712
H	 2.9600863628	-1.9502046632	-2.2536157354	 0.102864
H	 4.4897436303	-2.6694638157	-0.2818818202	 0.098142
H	 2.5269151405	-3.3766348629	 1.4931453837	 0.119571
H	 3.3001523397	-1.8614010753	 1.9497930406	 0.118282
H	 0.7639419861	-0.1643817769	 2.2140331017	 0.099678
79.9708	174.7587	227.3592	275.819	311.9393	378.0391	456.8662	476.4016	625.536	661.8629	685.6432	762.235	791.3977	829.4427	857.0342	896.3201	911.443	934.2573	968.0617	986.2887	1005.5536	1039.9263	1085.4693	1098.0929	1128.1959	1133.0901	1154.8753	1183.2055	1250.9739	1279.1769	1314.1193	1322.6189	1343.2273	1364.0782	1378.093	1400.7526	1474.4143	1483.7864	1496.2522	1657.7587	1749.052	2907.4002	2933.9296	3000.5124	3038.3701	3064.4492	3112.2485	3121.3112	3185.265	3208.7477	3214.8698
CC1OC2C=CCC2=C1	C[C@H]1O[C@H]2C=CC[C]2[CH]1	
InChI=1S/C8H10O/c1-6-5-7-3-2-4-8(7)9-6/h2,4-6,8H,3H2,1H3	InChI=1S/C8H10O/c1-6-5-7-3-2-4-8(7)9-6/h2,4-6,8H,3H2,1H3/t6-,8+/m1/s1
