18
gdb 42371	2.0802	1.3145	0.91142	3.9177	76.14	-0.2629	-0.0417	0.2212	1292.6765	0.146281	-401.963791	-401.95447	-401.953526	-401.999304	33.045	
O	 0.5896847424	 1.103273631	-2.1567163737	-0.275793
C	 0.030076473	 1.3959569482	-1.132908647	 0.375979
C	 0.8584834406	 1.9539895991	 0.0581373935	-0.40505
C	 1.1449003702	 0.9205474392	 1.0467801455	 0.268933
N	 1.3692861	 0.0885782596	 1.817259031	-0.311265
C	-1.4787506744	 1.2920687391	-0.9599390191	-0.312474
C	-1.9543496111	 0.733074768	 0.3668643945	 0.014057
C	-2.2389306903	 1.6396337343	 1.5424660961	-0.261232
C	-3.3750587047	 0.9724374232	 0.8111144001	-0.282337
H	 1.7986142696	 2.3326295089	-0.3512354512	 0.173845
H	 0.3234491268	 2.7728868735	 0.5490017395	 0.159258
H	-1.8771883857	 2.3106759089	-1.0843544978	 0.123263
H	-1.8485227079	 0.7031283663	-1.8049074342	 0.135639
H	-1.5427791354	-0.2403058837	 0.615261305	 0.116334
H	-1.9770275221	 1.2873155886	 2.5332324604	 0.134034
H	-2.1181156033	 2.7101063714	 1.4056754501	 0.107974
H	-4.0053007011	 1.5919566503	 0.1813960498	 0.115055
H	-3.8992240665	 0.160122264	 1.3011945174	 0.123779
42.973	57.6727	108.3242	123.7696	174.7969	302.735	321.4363	384.1153	423.009	445.0668	530.8046	618.1131	778.9085	796.4706	830.0027	839.8465	869.758	916.5343	958.7451	963.7555	1018.5436	1059.518	1083.4332	1108.3854	1142.7563	1164.6841	1198.9603	1230.0045	1234.3373	1268.1229	1284.0822	1313.8936	1411.5884	1447.783	1454.6588	1471.3016	1506.1205	1829.3345	2358.3909	3005.4617	3062.1132	3086.5993	3119.5147	3128.9079	3135.9839	3159.4867	3212.2183	3226.8327
O=C(CC#N)CC1CC1	O=C(CC#N)CC1CC1	
InChI=1S/C7H9NO/c8-4-3-7(9)5-6-1-2-6/h6H,1-3,5H2	InChI=1S/C7H9NO/c8-4-3-7(9)5-6-1-2-6/h6H,1-3,5H2
