17
gdb 125571	5.73306	0.93998	0.85705	2.446	76.83	-0.2329	0.0142	0.247	1349.7146	0.137077	-418.01279	-418.00455	-418.003605	-418.046231	30.034	
C	 0.112897796	 1.4946821196	-0.1600087026	-0.490418
C	 0.0052155649	 0.0180899339	 0.0571626367	 0.359982
N	-0.2803315584	-0.7969182994	-0.9579641064	-0.284295
N	-0.3127870803	-2.0279332619	-0.4098807643	-0.256498
C	-0.0382206538	-2.0284296169	 0.9178943524	 0.410739
C	 0.1740743372	-0.7088103019	 1.2624146209	-0.414757
C	-0.035133895	-3.2820517939	 1.6945597679	-0.044293
C	-1.2055015685	-4.1805886722	 1.7343848581	-0.173323
O	-0.0749596024	-4.4860035198	 0.9160270926	-0.240631
H	 1.1008127643	 1.8705501109	 0.1277288562	 0.12736
H	-0.0507468752	 1.7267332035	-1.2143862317	 0.140225
H	-0.6277914888	 2.0429029448	 0.4326494806	 0.12682
H	-0.4273268671	-2.8437579161	-0.9882308409	 0.277905
H	 0.4077257185	-0.3230346851	 2.2421428669	 0.098445
H	 0.6506689406	-3.3083736354	 2.54013322	 0.113067
H	-1.3508652453	-4.8362145142	 2.591515483	 0.1253
H	-2.1082975267	-3.8944004557	 1.1981617307	 0.124372
71.8181	97.3152	136.2931	161.2295	274.1825	314.961	419.8315	459.1918	573.0663	633.5019	693.8468	711.0195	727.8363	806.629	851.6264	897.4176	986.4243	992.7617	1009.449	1058.8588	1066.2179	1094.5234	1144.2682	1166.2711	1168.8544	1186.7538	1264.398	1308.7607	1367.8656	1407.1435	1436.341	1476.8673	1484.4183	1489.9952	1514.1624	1522.5908	1615.7644	3035.0548	3085.9395	3088.3965	3124.1395	3132.941	3182.752	3257.2242	3670.9264
CC1=NNC(=C1)C1CO1	Cc1n[nH]c(c1)[C@H]1CO1	
InChI=1S/C6H8N2O/c1-4-2-5(8-7-4)6-3-9-6/h2,6H,3H2,1H3,(H,7,8)	InChI=1S/C6H8N2O/c1-4-2-5(8-7-4)6-3-9-6/h2,6H,3H2,1H3,(H,7,8)/t6-/m1/s1
