16
gdb 45554	3.82711	1.37688	1.1555	3.1943	65.04	-0.2557	0.052	0.3077	1037.4719	0.126916	-475.044091	-475.037046	-475.036102	-475.0769	26.415	
N	-0.2065399303	 1.2951172555	-0.4835066112	-0.566523
C	-0.0659377197	 0.0951308474	-0.1432041353	 0.482247
O	 1.0403496288	-0.4751925886	 0.4234371633	-0.257939
C	 0.796656153	-1.8489615275	 0.7170395636	 0.048772
C	 0.7188533722	-2.1474276023	 2.2282212768	-0.109001
O	-0.4255703754	-2.9702249657	 2.3885576734	-0.242155
C	-1.4157697419	-2.4739271044	 1.5015964749	-0.111983
C	-0.6501370195	-2.0831792869	 0.2206327525	 0.058566
O	-1.0467358028	-0.8256867599	-0.3134057365	-0.233066
H	 0.640556275	 1.8200370251	-0.2817830275	 0.233824
H	 1.5471613653	-2.4519614268	 0.2029207072	 0.110162
H	 1.5810472755	-2.6914320407	 2.6183853412	 0.122826
H	 0.6181858848	-1.1945132201	 2.7704396276	 0.112287
H	-2.1583966979	-3.2598838509	 1.3533386429	 0.123978
H	-1.9138982788	-1.5773901053	 1.901491242	 0.116305
H	-0.7333762184	-2.8342724688	-0.5667340449	 0.111701
31.9315	97.1013	228.6901	349.2475	413.2239	484.5887	594.89	632.7781	710.2607	736.8526	756.6404	797.1558	840.0325	918.6389	952.0041	958.6161	1013.0752	1021.4158	1074.2438	1076.7801	1117.457	1130.0442	1138.4841	1222.3785	1247.0564	1264.1382	1286.5654	1327.3672	1349.9353	1354.225	1399.1842	1405.8574	1502.1588	1515.4162	1801.9266	2992.6161	2998.1593	3088.6542	3099.2808	3115.9375	3121.139	3543.5002
N=C1OC2COCC2O1	[NH][C]1O[C@H]2COC[C@H]2O1	
InChI=1S/C5H7NO3/c6-5-8-3-1-7-2-4(3)9-5/h3-4,6H,1-2H2	InChI=1S/C5H7NO3/c6-5-8-3-1-7-2-4(3)9-5/h3-4,6H,1-2H2/t3-,4+
