19
gdb 40018	3.5722	1.3597	1.13091	1.0801	82.71	-0.2244	0.0038	0.2282	1108.4816	0.162521	-382.027916	-382.020528	-382.019584	-382.059962	29.881	
C	-0.2345210869	 1.4916999334	 0.0032802201	-0.284061
N	 1.1551199378	 1.0187657292	-0.0281071636	-0.348543
C	 0.0376942807	 0.0286516865	 0.0045484892	 0.326269
C	-0.1142284642	-0.7456069127	 1.31056472	-0.284635
C	 0.2330841182	-2.2265441257	 1.1937028554	-0.051067
N	-0.8927212224	-3.1252124721	 0.8618039011	-0.337969
C	 0.1813550171	-2.8837227231	-0.1363115185	-0.084072
C	-0.1548979968	-2.0565977756	-1.320593658	-0.058365
C	-0.2103687815	-0.7249908963	-1.2488074118	-0.137754
H	-0.5293397617	 1.9743447651	 0.9321466242	 0.116922
H	-0.6642912812	 1.9371318844	-0.8909850621	 0.110444
H	 1.5222566495	 1.0853221939	-0.9755893511	 0.227441
H	 0.5179251837	-0.2653919732	 2.062180547	 0.111364
H	-1.1535518904	-0.6700367262	 1.6482058486	 0.116823
H	 0.9697378393	-2.5988258423	 1.9005854527	 0.086997
H	-0.744110619	-4.0338757688	 1.2957898714	 0.226652
H	 0.8670239265	-3.7075950345	-0.3243736474	 0.085004
H	-0.3352218258	-2.5649897758	-2.2636978594	 0.092182
H	-0.419925503	-0.1351487663	-2.1391217477	 0.08637
55.2719	186.0202	300.1159	327.4567	361.3707	421.7673	438.2072	534.9249	596.0191	669.6078	756.0317	779.2623	812.1228	812.9642	904.1527	915.4472	923.0244	941.6472	948.8783	979.8901	988.1728	999.3964	1025.6406	1085.431	1115.8185	1138.6202	1163.0036	1188.0085	1217.7102	1256.8071	1265.2369	1272.9672	1312.1846	1332.1407	1378.0277	1396.7829	1436.2376	1456.194	1469.6155	1508.8695	1706.3337	3044.5974	3097.2671	3098.1654	3120.6043	3139.7871	3140.2079	3170.4639	3181.6502	3483.4023	3485.0507
C1NC11CC2NC2C=C1	C1N[C@]21C[C@H]1N[C@H]1C=C2	
InChI=1S/C7H10N2/c1-2-7(4-8-7)3-6-5(1)9-6/h1-2,5-6,8-9H,3-4H2	InChI=1S/C7H10N2/c1-2-7(4-8-7)3-6-5(1)9-6/h1-2,5-6,8-9H,3-4H2/t5-,6+,7-/m0/s1
