25
gdb 120378	2.56125	0.9971	0.80085	0.1152	94.44	-0.2339	0.0271	0.261	1576.3417	0.229468	-352.379696	-352.369714	-352.36877	-352.414808	37.916	
C	-0.0058628609	 1.5718384281	 0.3551564316	-0.380081
C	-0.0176801834	 0.0666515394	 0.0734627304	-0.171123
C	-1.4128248434	-0.5544678991	 0.2139293011	-0.162613
C	-1.4681105548	-2.0569929204	-0.1385167911	-0.055772
C	-0.6337020106	-2.8971507889	 0.8093072993	-0.062753
C	-1.3838848152	-3.5957225953	 1.6602218809	-0.072612
C	-2.8574756174	-3.3855601923	 1.4112060007	-0.258792
C	-2.8777759499	-2.723480487	 0.0086267471	 0.02413
C	-4.0949102251	-1.8386348214	-0.2563736325	-0.412018
H	 0.999747102	 1.9914846231	 0.2505141869	 0.109202
H	-0.6648105211	 2.1097350716	-0.3357684417	 0.112046
H	-0.3514186241	 1.7862085513	 1.3727176933	 0.113214
H	 0.3602717573	-0.1192644024	-0.9411615312	 0.09137
H	 0.6804630013	-0.4346381487	 0.754703444	 0.097682
H	-1.7716139799	-0.4052859851	 1.2412736123	 0.091703
H	-2.1060511835	-0.0080469638	-0.4384831758	 0.089997
H	-1.116503474	-2.1580901502	-1.1748749902	 0.063544
H	 0.4506069392	-2.8777211454	 0.8087769592	 0.088681
H	-1.0049644856	-4.2266354369	 2.4572785431	 0.086907
H	-3.4385918784	-4.3148522106	 1.4370875594	 0.097524
H	-3.2964822105	-2.729610271	 2.1783499627	 0.099273
H	-2.8943707223	-3.5448144988	-0.7188371605	 0.075045
H	-4.1603093091	-1.0104520607	 0.4566097368	 0.116334
H	-4.0723931344	-1.4111556813	-1.2648141692	 0.110643
H	-5.0183304664	-2.421340144	-0.1679583967	 0.108467
67.5466	86.4491	127.859	138.9098	242.883	251.9102	268.0188	285.0819	345.9268	368.5011	489.1521	513.9798	629.5087	737.193	745.5329	774.3617	808.4824	853.9961	899.8326	921.1801	928.2802	965.967	978.7233	989.6698	1008.7593	1053.1201	1076.1977	1101.367	1116.9473	1129.3394	1139.7241	1168.6527	1194.7255	1254.7473	1271.5673	1298.6914	1315.7763	1331.1549	1339.0032	1366.4764	1369.3834	1377.0763	1391.4626	1411.8494	1414.1419	1481.4281	1488.584	1493.1089	1499.3249	1500.2867	1504.9498	1511.1878	1684.3691	2991.1508	2997.3079	3008.7812	3017.2854	3020.179	3027.8831	3029.2845	3041.3203	3051.1891	3062.5517	3090.8724	3095.272	3099.2685	3101.1562	3176.4329	3202.5761
CCCC1C=CCC1C	CCC[C@H]1C=CC[C@H]1C	
InChI=1S/C9H16/c1-3-5-9-7-4-6-8(9)2/h4,7-9H,3,5-6H2,1-2H3	InChI=1S/C9H16/c1-3-5-9-7-4-6-8(9)2/h4,7-9H,3,5-6H2,1-2H3/t8-,9+/m1/s1
