29
gdb 101816	3.48491	0.58986	0.52957	0.0553	100.61	-0.292	0.0823	0.3743	2269.1945	0.272888	-354.781123	-354.76869	-354.767746	-354.819752	45.264	
C	 0.1056144617	 1.5922311748	 0.0503837997	-0.391428
C	-0.0185844179	 0.0657751274	-0.0017640837	-0.165774
C	-1.461886836	-0.4712910684	-0.073384402	 0.047492
C	-2.1693492169	-0.0289077268	-1.3630609108	-0.390465
C	-1.4621222271	-2.0051132308	 0.0894558236	-0.190479
C	-2.8450795542	-2.6378357376	 0.2899189964	-0.179618
C	-2.8417508012	-4.1707894362	 0.4507881092	 0.04718
C	-2.1247172019	-4.6309933116	 1.7282725515	-0.380879
C	-4.2765402685	-4.7155652694	 0.4180171223	-0.388653
H	 1.1500370338	 1.8940414915	 0.1786608006	 0.110133
H	-0.2604896232	 2.0676294722	-0.864467616	 0.117192
H	-0.4639179948	 2.0062536029	 0.8904664408	 0.111487
H	 0.5478634983	-0.3184708368	-0.8618738087	 0.089803
H	 0.4640881025	-0.356351492	 0.8890408219	 0.089123
H	-2.0140070641	-0.0467560253	 0.7795681769	 0.06466
H	-1.6527838584	-0.4297344343	-2.2442691491	 0.108247
H	-3.205515035	-0.3765936933	-1.399108849	 0.114205
H	-2.1926273894	 1.0602873098	-1.4587503002	 0.112498
H	-0.9803876676	-2.4575132858	-0.7901735457	 0.086262
H	-0.8235958478	-2.2552145618	 0.9453037165	 0.089999
H	-3.3258653254	-2.1887848485	 1.1718514517	 0.085816
H	-3.4876677314	-2.3896401794	-0.5633396387	 0.090367
H	-2.3028189862	-4.5935405976	-0.4100961229	 0.068387
H	-2.1515527881	-5.7219809936	 1.8204633901	 0.107843
H	-1.0745915309	-4.3259274554	 1.7469733339	 0.113866
H	-2.610398927	-4.2119958509	 2.6183262362	 0.108724
H	-4.7898728272	-4.4348530035	-0.507871182	 0.107494
H	-4.2898285413	-5.8081809879	 0.4916978098	 0.106721
H	-4.8639560952	-4.3206802917	 1.2559653876	 0.109795
30.5451	63.2637	91.2958	110.7638	122.0136	206.5724	222.9591	244.3532	246.8199	258.462	269.4568	326.2244	394.0279	408.8882	416.9546	467.0558	508.519	753.6328	772.4903	820.3002	839.8432	912.6049	924.828	927.8543	956.7964	964.6118	974.017	1013.4204	1032.9019	1063.7099	1067.156	1113.8988	1168.9496	1175.1247	1193.983	1201.1634	1243.2843	1278.0661	1299.9269	1322.7098	1326.6668	1360.7716	1371.8976	1380.2663	1384.0675	1396.3451	1399.7402	1413.0551	1415.5321	1421.1911	1473.6253	1483.1958	1489.1506	1492.3763	1496.7337	1498.5372	1499.8831	1505.41	1508.319	1511.5085	1515.9929	2981.4511	2991.1069	2997.2298	3006.1563	3011.8546	3021.2509	3026.7108	3028.5681	3032.141	3038.4845	3044.4839	3062.9698	3085.2151	3091.3993	3095.7162	3096.0639	3096.3812	3105.0316	3105.5169	3112.3651
CCC(C)CCC(C)C	CC[C@@H](C)CCC(C)C	
InChI=1S/C9H20/c1-5-9(4)7-6-8(2)3/h8-9H,5-7H2,1-4H3	InChI=1S/C9H20/c1-5-9(4)7-6-8(2)3/h8-9H,5-7H2,1-4H3/t9-/m1/s1
