18
gdb 43133	2.50742	1.98531	1.63196	1.9079	76.02	-0.2333	-0.0018	0.2316	914.2954	0.14985	-401.901734	-401.894816	-401.893872	-401.932732	28.306	
O	 0.1308124197	-0.0131829868	-0.0715342393	-0.333869
C	 0.0275016666	 1.1624322289	 0.1222765629	 0.37947
C	-1.0618832768	 2.2307789407	 0.0424185349	-0.12767
C	-0.8009456205	 3.0173266601	 1.3608551918	-0.207312
C	 0.7846968155	 3.094299452	 1.3758376857	-0.306844
C	 0.9951578296	 2.3973761661	 0.0419031392	 0.224017
C	 1.9587417292	 2.3195239905	-1.145510139	-0.335023
C	 0.6616436602	 2.3983593218	-2.0194852426	-0.189403
N	-0.084850525	 2.9821601224	-0.8364529321	-0.132456
H	-2.0920367176	 2.0653648287	-0.2698576248	 0.08927
H	-1.2468229341	 4.0117865542	 1.304660054	 0.118957
H	-1.208274479	 2.4921346804	 2.2278833194	 0.113093
H	 1.1382216664	 4.1275454796	 1.3672698219	 0.112511
H	 1.2258458777	 2.5715082727	 2.2280705009	 0.110199
H	 2.596919172	 3.1991251161	-1.2533784311	 0.118593
H	 2.5552634293	 1.4100104503	-1.2243253853	 0.124336
H	 0.6669185293	 3.0895752567	-2.8628921306	 0.11325
H	 0.3144847278	 1.4143277854	-2.3516129661	 0.128881
140.2535	226.7289	259.3623	290.7352	405.3521	461.2334	540.9223	620.8448	647.9526	714.9407	768.3121	816.8734	827.5453	840.4632	869.2129	872.5779	925.9788	929.8926	999.6727	1023.2785	1041.3142	1084.3242	1113.2043	1157.3901	1166.7226	1182.7259	1202.0634	1219.6449	1238.874	1247.8864	1266.9121	1279.8098	1310.5462	1327.9644	1474.522	1477.7768	1499.3985	1506.5927	1879.0745	3051.6416	3064.7465	3076.4567	3078.7934	3112.5888	3122.352	3132.5602	3136.6667	3141.9009
O=C1C2CCC11CCN21	O=C1[C@H]2CC[C@]31CCN23	
InChI=1S/C7H9NO/c9-6-5-1-2-7(6)3-4-8(5)7/h5H,1-4H2	InChI=1S/C7H9NO/c9-6-5-1-2-7(6)3-4-8(5)7/h5H,1-4H2/t5-,7-/m1/s1
