15
gdb 18692	3.05653	2.66273	1.58954	5.2353	61.15	-0.2613	0.0276	0.2889	784.3229	0.121192	-399.814793	-399.808439	-399.807495	-399.845294	24.405	
O	-0.1307431742	 0.1609160801	 0.6424115135	-0.353719
C	-0.0688763405	 1.2312723312	 0.1053363067	 0.429158
O	-1.1831818502	 1.7973421255	-0.4325371476	-0.236661
C	-1.1753274144	 3.1851005102	-0.800445918	-0.051663
C	-0.2806174906	 3.9869431743	 0.1471835104	-0.265731
C	 1.1080026906	 3.4052342042	 0.0015343242	-0.009647
C	 1.7664014011	 2.5843938467	 1.0621927258	-0.249597
N	 1.1259714101	 1.9435262409	-0.0833835421	-0.136898
H	-0.8282333796	 3.287114972	-1.8365545951	 0.120497
H	-2.2198473403	 3.5023498801	-0.7544091835	 0.127262
H	-0.300549149	 5.0486951759	-0.1125705835	 0.119626
H	-0.6573117984	 3.883304327	 1.1704567511	 0.125505
H	 1.7472786378	 3.8857623514	-0.7365989699	 0.108417
H	 2.8491150078	 2.5091386738	 1.0920381942	 0.134071
H	 1.2707678198	 2.4901126265	 2.0247713638	 0.139381
123.3754	211.9688	262.2403	394.5659	451.8723	490.1447	539.0171	659.4108	721.4083	785.2074	819.7135	905.8724	925.4558	971.176	989.3003	1006.9932	1075.1188	1122.9984	1135.2059	1145.6133	1167.3183	1172.2963	1238.9611	1268.8311	1339.1633	1340.1395	1410.616	1428.1142	1476.9364	1509.5952	1516.6906	1851.8134	3029.4884	3051.7072	3102.1634	3104.9332	3116.1315	3128.8109	3206.8422
O=C1OCCC2CN12	O=C1OCC[C@H]2CN12	
InChI=1S/C5H7NO2/c7-5-6-3-4(6)1-2-8-5/h4H,1-3H2	InChI=1S/C5H7NO2/c7-5-6-3-4(6)1-2-8-5/h4H,1-3H2/t4-,6?/m0/s1
