13
gdb 35313	6.05106	0.96659	0.91255	3.0732	68.96	-0.3036	-0.0301	0.2735	1195.7868	0.089075	-415.585461	-415.577904	-415.57696	-415.617918	27.357	
N	 0.0805893417	-1.1991414411	-0.1288204608	-0.308365
C	 0.0413400547	-0.0466799372	-0.0568612425	 0.28994
C	-0.0133039163	 1.4033707323	 0.0329879401	-0.183265
C	-0.3057118711	 2.0547748598	 1.4416096449	-0.317615
C	 1.0386955143	 2.790668096	 1.318418061	 0.320433
O	 2.0570999106	 1.791926476	 1.1812984177	-0.242528
C	 1.3392683687	 2.1541762016	 0.015106931	-0.045668
C	 1.3919475462	 4.0753499285	 1.8351023699	 0.20785
N	 1.6320166872	 5.1223155909	 2.2623059025	-0.321975
H	-0.6952016415	 1.7967222344	-0.7248502018	 0.147676
H	-1.1744036756	 2.7126986393	 1.415589918	 0.148994
H	-0.3669351324	 1.3714085381	 2.2883051541	 0.155992
H	 1.8974934935	 2.5120394116	-0.8411674841	 0.148532
81.6609	114.0785	189.7758	218.5782	327.2219	427.416	468.2735	522.3754	560.6215	589.1837	658.9725	736.4709	805.9328	893.5459	916.9481	966.3068	977.9424	1034.1344	1072.3275	1136.7112	1165.9513	1200.6098	1250.5264	1262.7406	1332.996	1421.5829	1472.5192	2363.5625	2364.3972	3091.7389	3099.471	3166.4862	3208.3315
N#CC1CC2(OC12)C#N	N#C[C@H]1C[C@]2(O[C@@H]12)C#N	
InChI=1S/C6H4N2O/c7-2-4-1-6(3-8)5(4)9-6/h4-5H,1H2	InChI=1S/C6H4N2O/c7-2-4-1-6(3-8)5(4)9-6/h4-5H,1H2/t4-,5+,6+/m1/s1
