19
gdb 121541	5.4275	0.4945	0.46915	1.8976	84.54	-0.2539	0.0162	0.2701	2335.1671	0.156235	-422.957962	-422.947668	-422.946724	-422.995702	34.788	
C	 0.4239303163	 1.4254359582	 0.0992103115	-0.386943
C	-0.0284065165	-0.0057045941	-0.1314951649	-0.017639
O	 0.7485433405	-0.5565306764	-1.1787296567	-0.24101
C	 0.3960263001	-1.8948511445	-1.4639947245	-0.208719
C	 1.2258681991	-2.4181673494	-2.5399470589	 0.025059
C	 1.9079695833	-2.8728197599	-3.4218097471	 0.171441
C	 2.6981777985	-3.413518886	-4.4926138267	-0.123216
C	 4.08536575	-2.9657369182	-4.7309217942	-0.157854
O	 3.8279218917	-4.2327622384	-4.1429431169	-0.214268
H	 1.4818982411	 1.4530233235	 0.3743264074	 0.130202
H	 0.2900221087	 2.0205932554	-0.80834336	 0.129587
H	-0.1577459615	 1.8829608405	 0.9049731951	 0.11598
H	 0.0929990045	-0.604994847	 0.7871204473	 0.087899
H	-1.0994075422	-0.0373805596	-0.3958677215	 0.086945
H	 0.5168422195	-2.5273637131	-0.5668529187	 0.120066
H	-0.6680964479	-1.9623435052	-1.7514342771	 0.116708
H	 2.1370922269	-3.7882848187	-5.3479597426	 0.117297
H	 4.4787763931	-2.9842068858	-5.7466177901	 0.119755
H	 4.5155621548	-2.2172410013	-4.0685617816	 0.12871
23.7467	59.8071	65.4461	111.615	136.2234	174.0029	245.0114	280.5047	316.5936	375.9766	473.5769	533.495	572.8963	746.7946	822.5289	834.9845	899.7217	913.5667	996.7304	1024.7563	1034.6858	1084.1973	1131.2836	1147.5796	1156.8302	1161.671	1188.1413	1189.942	1254.25	1283.8894	1295.7829	1378.6291	1404.9491	1407.7514	1448.0175	1483.2159	1494.2658	1500.6962	1519.2694	1531.363	2369.798	2942.3648	2954.6121	2961.5301	2976.0944	3045.9133	3085.411	3114.991	3120.3032	3123.7383	3180.038
CCOCC#CC1CO1	CCOCC#C[C@H]1CO1	
InChI=1S/C7H10O2/c1-2-8-5-3-4-7-6-9-7/h7H,2,5-6H2,1H3	InChI=1S/C7H10O2/c1-2-8-5-3-4-7-6-9-7/h7H,2,5-6H2,1H3/t7-/m0/s1
