21
gdb 84034	2.58584	1.53596	1.23558	1.7101	79.09	-0.233	0.0801	0.3131	1114.161	0.183716	-424.205482	-424.197107	-424.196162	-424.238214	32.629	
C	-0.0171773636	 1.5642593094	 0.028465173	-0.390901
C	 0.0578586831	 0.0533603606	 0.0459942881	-0.101633
C	 1.3676943011	-0.6587560878	-0.2004479614	 0.054479
O	 2.4925958259	 0.129333344	-0.4261066753	-0.243912
C	 3.6547303514	-0.3258470805	 0.2585485409	-0.07114
C	 3.7137325455	 0.1600400156	 1.7080976375	-0.191498
C	 2.5872980963	-0.3517026053	 2.6081115406	-0.071142
O	 1.3033863794	 0.1005312114	 2.1915060146	-0.243909
C	 0.73981534	-0.673942317	 1.181564908	 0.054467
H	 0.8872518593	 2.005788974	 0.4453234171	 0.136366
H	-0.1371821175	 1.9313314917	-0.9958526721	 0.114603
H	-0.8717368508	 1.9135088699	 0.6167891264	 0.114577
H	-0.8175170656	-0.4491987962	-0.3572325664	 0.085981
H	 1.3543476401	-1.5891125798	-0.7717034515	 0.079441
H	 3.7152363783	-1.4246182906	 0.2141800432	 0.087563
H	 4.5073720485	 0.0752866246	-0.2995485825	 0.106006
H	 4.6752732993	-0.1487828917	 2.1415408399	 0.09267
H	 3.6939595009	 1.2559298806	 1.7111726474	 0.11496
H	 2.60279259	-1.4515634637	 2.6628126881	 0.087566
H	 2.7245981497	 0.0321016179	 3.6245864791	 0.106008
H	 0.3084924387	-1.614399607	 1.5302382353	 0.079448
122.2415	130.7101	156.1503	259.1755	274.1106	303.8241	358.6473	388.4013	506.8337	506.8774	607.6254	710.2071	754.5815	793.3726	812.3751	889.2054	919.4742	938.1028	938.746	990.2225	1028.9066	1067.569	1084.32	1110.7358	1119.9177	1156.1524	1157.3436	1179.1816	1191.8587	1251.9457	1271.9373	1293.3212	1332.0836	1354.0866	1359.4399	1393.3263	1412.726	1412.9897	1418.7956	1445.3543	1462.1771	1490.3513	1494.5502	1498.1998	1500.5616	2983.7638	2985.9802	3018.4581	3043.243	3066.6685	3068.8227	3070.3088	3079.1684	3080.2916	3099.4549	3137.6574	3159.4817
CC1C2OCCCOC12	C[C@H]1[C@H]2OCCCO[C@@H]12	
InChI=1S/C7H12O2/c1-5-6-7(5)9-4-2-3-8-6/h5-7H,2-4H2,1H3	InChI=1S/C7H12O2/c1-5-6-7(5)9-4-2-3-8-6/h5-7H,2-4H2,1H3/t5-,6+,7-
