19
gdb 97817	5.06241	0.70298	0.67165	1.7086	85.62	-0.2313	0.0288	0.2601	1745.9634	0.158059	-385.818061	-385.80896	-385.808016	-385.853575	33.036	
C	 0.0335283801	 1.5937522393	 0.2046314073	-0.365015
C	 0.0144226701	 0.0902892815	-0.1262753327	-0.317268
C	-1.3289419958	-0.4773078634	-0.1517459942	 0.092768
C	-2.4474867349	-0.9257926809	-0.1712147377	 0.081698
C	-3.7918445709	-1.4720720049	-0.1860405372	-0.073691
O	-4.3798344748	-1.6049779803	-1.5252955084	-0.293208
C	-4.6794251999	-2.9793632306	-1.2678909584	 0.107656
C	-3.4270348347	-3.7706802973	-1.0648421381	-0.296263
C	-4.0072575274	-2.9693806629	 0.0811386101	-0.130128
H	 1.0610058724	 1.9694928853	 0.2096416996	 0.11504
H	-0.538147269	 2.1608286922	-0.5347396058	 0.1319
H	-0.4070248358	 1.7809959457	 1.1876049256	 0.128038
H	 0.4934657785	-0.078886376	-1.0992037207	 0.133873
H	 0.6228538454	-0.4562017754	 0.6059616157	 0.131106
H	-4.4638999416	-0.8587101557	 0.4266459977	 0.105777
H	-5.631890239	-3.3626255581	-1.6137802509	 0.104477
H	-3.5597713591	-4.843919884	-0.9683945967	 0.113679
H	-2.5081715815	-3.4543376728	-1.5495066627	 0.126322
H	-4.293708632	-3.3954398918	 1.0323835975	 0.103239
24.2384	74.8103	101.8036	145.8305	219.8366	288.0163	333.7698	432.1798	468.5556	522.49	537.0265	717.4878	772.7448	784.0316	797.7262	823.9457	924.9506	948.8838	969.0717	981.6002	1011.7627	1040.7834	1048.0406	1062.7632	1083.0853	1084.2925	1103.0514	1176.9357	1196.5349	1245.6697	1278.0278	1286.316	1348.3999	1358.1335	1360.1329	1409.7486	1471.1377	1471.7203	1495.2256	1505.2673	2359.415	3020.7445	3026.9866	3045.279	3048.3461	3118.6093	3120.775	3125.5074	3184.8433	3207.2226	3216.1489
CCC#CC1OC2CC12	CCC#C[C@H]1O[C@H]2C[C@@H]12	
InChI=1S/C8H10O/c1-2-3-4-7-6-5-8(6)9-7/h6-8H,2,5H2,1H3	InChI=1S/C8H10O/c1-2-3-4-7-6-5-8(6)9-7/h6-8H,2,5H2,1H3/t6-,7+,8-/m0/s1
