14
gdb 35649	4.44747	0.98369	0.85041	5.6253	76.72	-0.25	-0.0452	0.2047	1281.8358	0.10163	-395.71374	-395.705701	-395.704757	-395.746752	29.286	
C	 0.1155044568	-1.1813034571	-0.0122312772	-0.35746
C	 0.0013826962	 0.0146852311	 0.0040179749	 0.261656
C	-0.0805237604	 1.4383935195	 0.0153953455	 0.230751
N	-1.1691707817	 2.0936954121	-0.1831305454	-0.303375
C	-0.8013362295	 3.518095636	-0.0465154037	-0.12178
C	 0.7605321154	 3.5640820147	-0.0649711046	-0.200582
N	 1.063409363	 2.1778334494	 0.2990906751	-0.355984
C	-1.4062263218	 4.3469354752	-1.0919919205	 0.286881
N	-1.8530051418	 5.0265481841	-1.9120617489	-0.319494
H	 0.1926684569	-2.241208688	-0.026381713	 0.213234
H	-1.1784401716	 3.8778003317	 0.9207760945	 0.141722
H	 1.1380225375	 3.8195601368	-1.0626575956	 0.133644
H	 1.1648427975	 4.2735781164	 0.6594789315	 0.134358
H	 1.9531553035	 1.7869522981	 0.0245650273	 0.256429
74.1132	132.7939	147.2297	198.5777	268.1769	387.5205	483.6814	497.6474	541.3	560.1069	639.5982	661.7183	673.6323	679.1158	741.4179	864.9946	972.4837	1019.4042	1042.457	1057.7848	1066.4295	1198.5162	1251.1074	1282.946	1302.4891	1357.1768	1458.0441	1522.2654	1654.1968	2248.8797	2366.9413	3012.6755	3031.2997	3108.1501	3498.2354	3607.2238
C#CC1=NC(CN1)C#N	C#C[C]1[N][C@@H](CN1)C#N	
InChI=1S/C6H5N3/c1-2-6-8-4-5(3-7)9-6/h1,5H,4H2,(H,8,9)	InChI=1S/C6H5N3/c1-2-6-8-4-5(3-7)9-6/h1,5H,4H2,(H,8,9)/t5-/m1/s1
