16
gdb 26734	3.41022	1.26906	0.93022	4.0088	75.68	-0.2016	-0.0263	0.1754	1203.3933	0.123462	-437.943444	-437.934528	-437.933584	-437.97758	31.723	
C	 0.0446806748	 1.5379735233	 0.0006493334	-0.508744
C	 0.0467404436	 0.0404951674	 0.0022912865	 0.121819
C	 0.0243467773	-0.7886062011	-1.0811610356	 0.318483
O	-0.0051264031	-0.5660565056	-2.4182299382	-0.43777
N	 0.0357137102	-2.1142488574	-0.657005113	-0.102328
C	 0.0171535733	-3.2402797312	-1.4717212518	 0.173719
O	 0.0270149796	-4.3679363116	-1.0474785228	-0.304575
C	 0.0662711594	-2.1210571703	 0.742293057	-0.083238
C	 0.0735251281	-0.8293561966	 1.1590924988	-0.242484
H	 0.9370330816	 1.9472231159	 0.4883354645	 0.137898
H	 0.0222019458	 1.9492745764	-1.015668619	 0.098549
H	-0.8270946213	 1.9447283871	 0.5261662287	 0.137897
H	-0.009713112	 0.3845244688	-2.5691853239	 0.310462
H	-0.0073254613	-2.9775416685	-2.5402704726	 0.119985
H	 0.0789316508	-3.0629896042	 1.2613027946	 0.152268
H	 0.0956428331	-0.4994453625	 2.1873637033	 0.108059
50.1109	97.8978	177.4924	199.8802	218.0986	271.5765	272.5066	328.7964	399.0696	525.3158	617.8531	650.7004	671.7485	731.2671	736.6421	840.2079	840.9061	963.7694	1024.5044	1038.8428	1058.0944	1075.9305	1204.156	1233.1528	1244.6584	1356.9925	1384.2442	1425.2651	1444.5562	1473.1709	1501.2674	1502.2688	1558.7471	1677.8859	1814.8776	3017.7188	3030.4014	3074.9165	3075.9609	3242.2829	3303.6379	3836.2143
CC1=C(O)N(C=O)C=C1	Cc1c(O)n(C=O)cc1	
InChI=1S/C6H7NO2/c1-5-2-3-7(4-8)6(5)9/h2-4,9H,1H3	InChI=1S/C6H7NO2/c1-5-2-3-7(4-8)6(5)9/h2-4,9H,1H3
