19
gdb 115457	4.73799	0.8467	0.79231	1.2733	72.12	-0.2525	-0.028	0.2246	1434.1702	0.158879	-460.170568	-460.161484	-460.16054	-460.205858	32.508	
O	-0.1890168483	 1.4069665379	 0.14790256	-0.421281
C	-0.0659419815	 0.0040615909	 0.2059055735	-0.061781
C	-1.3487019285	-0.6835688399	-0.2597536498	 0.106353
C	-1.325907225	-2.2202281116	-0.0948946977	-0.296612
C	-2.4966229122	-2.5324872432	 0.8793376811	-0.082275
C	-2.7233461053	-1.1607112339	 1.5453332848	-0.121064
O	-2.4495107049	-0.2045202792	 0.533297434	-0.270967
C	-3.733185795	-2.9663984516	 0.1217330409	 0.159265
O	-4.2622927273	-4.0418265903	 0.2336951161	-0.251299
H	-1.0348359352	 1.61270849	 0.5653579146	 0.288732
H	 0.7678055189	-0.2795126419	-0.4463728049	 0.111146
H	 0.1814817689	-0.3417841181	 1.2254295014	 0.080652
H	-1.5608664107	-0.3717082522	-1.2874212914	 0.094357
H	-1.4377469169	-2.7348829126	-1.0525038253	 0.125288
H	-0.3806520693	-2.5544641312	 0.3431623462	 0.120698
H	-2.246646733	-3.3158895588	 1.5975616757	 0.100451
H	-3.7499283668	-0.9969365714	 1.887250137	 0.124094
H	-2.0524793638	-1.0466620542	 2.4098759182	 0.105973
H	-4.136876424	-2.1932344986	-0.5725392843	 0.088272
28.8077	69.6493	115.329	160.2252	228.1378	282.4595	320.4173	375.2663	455.1649	467.0666	506.2411	704.8603	740.4644	819.2765	868.8083	914.0785	929.9961	951.266	995.9462	1015.174	1053.7981	1083.7157	1104.078	1115.8767	1149.0804	1208.6609	1228.5634	1238.9667	1243.7232	1299.4861	1322.1765	1334.2933	1352.4658	1381.3811	1400.8718	1427.69	1437.0898	1492.6074	1499.1068	1520.9504	1834.2275	2868.4155	2948.2456	2993.5826	3056.3373	3057.0745	3070.4638	3082.9006	3099.081	3105.6988	3780.5458
OCC1CC(CO1)C=O	OC[C@H]1C[C@@H](CO1)C=O	
InChI=1S/C6H10O3/c7-2-5-1-6(3-8)9-4-5/h2,5-6,8H,1,3-4H2	InChI=1S/C6H10O3/c7-2-5-1-6(3-8)9-4-5/h2,5-6,8H,1,3-4H2/t5-,6-/m1/s1
