22
gdb 10393	2.43776	1.7886	1.31405	1.2763	77.67	-0.2624	0.0717	0.3341	1062.1358	0.19971	-350.195239	-350.185933	-350.184989	-350.229055	34.691	
C	-1.757782144	-0.3020734144	-0.3087284986	-0.393081
C	-0.2827061229	 0.0075167986	-0.0293446782	-0.241418
C	 0.7086694897	-0.6146611338	-1.0182187418	 0.369237
C	 0.4938610026	-0.1203830888	-2.4462703883	-0.128249
O	 0.6354017775	 1.2941161001	-2.4613845498	-0.427027
C	 2.2133078006	-0.5170116149	-0.6080625728	-0.258783
C	 2.3925871251	-2.0209119737	-0.9492734092	-0.212743
C	 0.847271134	-2.1718113102	-0.994408292	-0.268853
H	-2.0998236293	 0.1598831669	-1.2399347663	 0.119252
H	-1.9359682961	-1.3808971007	-0.3841998975	 0.111918
H	-2.393034722	 0.0811344583	 0.4959694042	 0.110344
H	-0.1315901486	 1.0926971624	-0.0210244745	 0.113052
H	-0.0255933421	-0.3517509068	 0.9753475365	 0.082278
H	 1.2311573212	-0.5961884335	-3.1128372023	 0.079272
H	-0.5044244723	-0.4241036186	-2.7992323537	 0.08421
H	 0.5214911493	 1.5997872457	-3.3656187127	 0.28664
H	 2.8163287216	 0.2057870734	-1.1622663848	 0.103167
H	 2.3308228605	-0.3153516876	 0.4606606011	 0.091717
H	 2.858836877	-2.1812111371	-1.924960067	 0.099301
H	 2.9246946266	-2.6334373829	-0.2177991753	 0.094711
H	 0.4404773301	-2.6003758055	-0.0737123429	 0.096082
H	 0.4234438114	-2.721173107	-1.8411085041	 0.088975
68.6604	108.7551	145.1804	197.8644	214.4376	243.5211	287.7801	341.3931	365.514	404.6946	506.9867	640.4074	711.2863	783.2333	795.2154	856.0421	899.487	920.8255	945.1433	958.8757	992.6638	1031.6981	1055.3292	1058.5472	1087.2245	1141.6994	1184.3889	1204.0024	1211.8295	1244.5258	1255.7614	1262.4796	1272.7625	1286.5522	1325.0144	1346.4614	1373.4705	1408.3942	1454.9866	1475.1701	1483.6373	1485.2454	1498.4847	1504.9619	1507.8173	1525.0783	2966.5354	2993.888	3022.6023	3031.7794	3042.6226	3056.0196	3062.34	3067.5996	3087.4161	3097.7731	3103.6889	3104.8124	3118.6879	3833.4401
CCC1(CO)CCC1	CCC1(CO)CCC1	
InChI=1S/C7H14O/c1-2-7(6-8)4-3-5-7/h8H,2-6H2,1H3	InChI=1S/C7H14O/c1-2-7(6-8)4-3-5-7/h8H,2-6H2,1H3
