16
gdb 96949	4.27408	1.36752	1.22224	2.9862	71.19	-0.2334	0.0055	0.2389	1032.7519	0.124877	-437.835344	-437.828191	-437.827247	-437.867364	27.315	
C	-0.0283316229	 1.4111821232	-0.1076062951	-0.335029
N	-0.0123914742	-0.0431240715	-0.0740878716	-0.345979
C	-1.092613852	-0.6674006039	 0.0665767894	 0.508548
O	-2.3540985244	-0.1103708363	 0.1982783947	-0.252451
C	-3.2499888011	-1.1506413605	 0.5414007391	 0.047968
C	-3.2733302366	-2.3840525383	-0.3502577967	 0.068294
O	-2.0990317866	-2.418780618	-1.1480255211	-0.287579
C	-1.2930516938	-2.1607112624	 0.0585535425	-0.057643
C	-2.5246952241	-2.3945890265	 0.964163832	-0.193767
H	 0.8424392016	 1.7864942812	 0.4384914185	 0.124472
H	 0.0724538657	 1.7503394603	-1.1456815699	 0.133065
H	-0.93833032	 1.856110859	 0.311065462	 0.124096
H	-4.1464504619	-0.8008329124	 1.0356091332	 0.121629
H	-4.1607431935	-2.8886705168	-0.7138304163	 0.117869
H	-0.3986288486	-2.7744130396	 0.1114823436	 0.110873
H	-2.6068839976	-2.9472616876	 1.8893084956	 0.115633
76.1952	113.7953	223.7118	272.7437	395.5435	443.9516	543.819	677.3149	720.9317	737.9749	777.5074	807.9314	830.3882	851.5031	882.8053	928.8819	1010.0335	1022.1818	1032.3124	1043.1302	1075.2006	1093.4954	1117.7431	1127.0329	1145.4303	1190.1669	1219.0765	1238.8559	1276.1195	1320.3095	1397.6924	1437.4718	1489.7462	1497.8231	1813.1376	3017.9956	3078.6943	3097.3044	3172.7086	3187.5728	3209.3137	3219.2026
CN=C1OC2C3OC1C23	CN=C1O[C@H]2[C@H]3O[C@@H]1[C@@H]23	
InChI=1S/C6H7NO2/c1-7-6-5-2-3(8-5)4(2)9-6/h2-5H,1H3	InChI=1S/C6H7NO2/c1-7-6-5-2-3(8-5)4(2)9-6/h2-5H,1H3/t2-,3+,4-,5-/m1/s1
