20
gdb 19281	3.18968	1.71772	1.35671	1.1172	74.09	-0.2504	0.0752	0.3256	982.9183	0.177215	-348.969269	-348.960969	-348.960025	-349.001642	31.727	
C	-0.3662342181	 1.5710786504	 0.1555512646	-0.409531
C	-0.0629974014	 0.078033223	 0.0939528935	 0.014293
C	 0.4108135508	-0.5348112878	-1.2357081436	-0.052668
C	 1.7683602712	-0.0229122515	-1.6247415781	-0.283457
C	 1.6709429804	-1.0856580481	-0.5632095025	-0.077375
C	 1.2337236654	-0.5019099354	 0.7858357808	 0.011252
C	 2.1905872632	 0.4204639616	 1.5192202579	-0.095781
O	 1.5514068797	 0.8357511143	 2.7223450809	-0.422952
H	 0.4316948132	 2.1738117051	-0.2900484333	 0.105781
H	-1.2890214922	 1.7996896085	-0.3890221115	 0.106432
H	-0.4864675916	 1.8945418203	 1.1934228802	 0.128616
H	-0.930046813	-0.4728313252	 0.4700683587	 0.07348
H	-0.2330551605	-1.0238205895	-1.9574377258	 0.079336
H	 2.1314588885	-0.3738914501	-2.5857104201	 0.108379
H	 2.0804806314	 0.9905062835	-1.3881857055	 0.103212
H	 2.1369269665	-2.055454933	-0.6933715213	 0.080501
H	 0.9491408978	-1.2961038715	 1.4823508578	 0.07933
H	 3.1249268956	-0.1249131014	 1.7331465538	 0.083688
H	 2.4571160428	 1.2872421582	 0.8970473701	 0.082223
H	 2.12259685	 1.4718179787	 3.1625386137	 0.285242
110.969	139.825	196.1613	211.6252	259.3197	276.115	310.3033	423.8329	501.3872	557.9876	660.8219	744.9393	789.2926	800.3193	893.3424	930.832	977.7606	990.9092	999.0825	1032.5307	1050.3732	1067.9074	1072.4695	1085.6631	1099.5458	1139.5053	1156.8928	1178.7188	1225.5857	1250.1028	1262.2059	1279.6821	1311.3871	1357.1861	1367.8292	1377.7904	1408.7493	1459.1271	1487.3253	1496.7069	1504.416	1519.337	2963.0802	3003.6308	3033.458	3050.2727	3068.4874	3095.9311	3114.0502	3117.8926	3169.2	3178.1637	3199.7577	3828.6999
CC1C2CC2C1CO	C[C@H]1[C@H]2C[C@H]2[C@H]1CO	
InChI=1S/C7H12O/c1-4-5-2-6(5)7(4)3-8/h4-8H,2-3H2,1H3	InChI=1S/C7H12O/c1-4-5-2-6(5)7(4)3-8/h4-8H,2-3H2,1H3/t4-,5+,6+,7-/m0/s1
