16
gdb 99947	2.40083	1.2541	1.05584	4.7795	66.55	-0.2875	-0.0896	0.1979	1174.4603	0.120602	-475.032019	-475.021969	-475.021025	-475.067543	35.296	
C	-0.2209630405	 1.7512010532	-0.0503106806	-0.429303
C	 0.0509791392	 0.2441632897	-0.0241302306	 0.256206
O	 0.8292759464	-0.1330210812	 1.0916337864	-0.461333
C	-1.2666775504	-0.5716820443	-0.0165033515	-0.122835
O	-1.8203683843	-0.3973980143	 1.2805586637	-0.427864
C	 0.8247793059	-0.1883421295	-1.2706008237	 0.255132
O	 0.7076717037	 0.3188376201	-2.3560166176	-0.277218
C	 1.7227246134	-1.3502612572	-1.0859640317	 0.268187
N	 2.4121851303	-2.2765333408	-1.0255126074	-0.311798
H	 0.714807203	 2.2958896948	 0.0940795825	 0.136268
H	-0.6588091787	 2.0486834835	-1.0057933372	 0.138427
H	-0.9078126497	 2.0106490076	 0.7586381541	 0.135925
H	 0.199544964	-0.3058621082	 1.8054703091	 0.29547
H	-1.939760326	-0.2024947257	-0.8009304551	 0.12169
H	-1.0456419527	-1.6305602956	-0.2085433824	 0.116756
H	-2.4225973935	-1.1241677621	 1.462634892	 0.306288
28.1371	112.5386	159.2951	164.7454	219.8704	234.0777	269.8818	290.6466	328.7463	352.0363	384.6978	449.0617	478.7214	506.2091	656.0079	727.3567	752.5815	840.7535	941.7414	983.8435	1063.2863	1075.346	1128.9553	1178.273	1200.4068	1259.1844	1304.0446	1388.7869	1401.5226	1440.8466	1489.0313	1492.934	1510.6123	1799.4609	2337.8288	3004.0529	3053.736	3057.0123	3138.4693	3141.501	3747.1817	3844.8596
CC(O)(CO)C(=O)C#N	C[C@@](O)(CO)C(=O)C#N	
InChI=1S/C5H7NO3/c1-5(9,3-7)4(8)2-6/h7,9H,3H2,1H3	InChI=1S/C5H7NO3/c1-5(9,3-7)4(8)2-6/h7,9H,3H2,1H3/t5-/m1/s1
