18
gdb 62272	3.27984	1.56152	1.342	1.8375	81.09	-0.2294	0.0454	0.2748	1002.2781	0.14679	-364.695351	-364.687524	-364.68658	-364.727153	31.58	
C	-0.0459165069	 1.5637618859	 0.0344649175	-0.471785
C	 0.046012853	 0.0387266925	-0.023995172	 0.119303
C	-1.2753547257	-0.548094215	 0.1872407255	 0.322334
C	-2.3773385394	-1.0033869871	 0.3379441594	-0.446394
C	 0.7889074945	-0.6546521785	-1.1702152421	-0.105503
C	 2.2811452078	-0.6705947695	-0.7760103139	-0.112436
C	 2.3645101121	-0.0217756102	 0.5928245952	-0.186817
N	 1.0331672278	-0.6576201225	 0.9446654299	-0.193302
C	 1.312168478	-1.6617210637	-0.2007342437	-0.012735
H	 0.8677226007	 2.0437041194	-0.3199513882	 0.121643
H	-0.8715791479	 1.9055464159	-0.5955650976	 0.13122
H	-0.2470743326	 1.8883351579	 1.0603624767	 0.137297
H	-3.3460606935	-1.4133727752	 0.4828004073	 0.190812
H	 0.4671608821	-0.8076478571	-2.1927246366	 0.09555
H	 3.0490249825	-0.8376536445	-1.5217744015	 0.093527
H	 3.1328448361	-0.4834539491	 1.2187180129	 0.111938
H	 2.417395677	 1.0647184372	 0.7029938784	 0.101035
H	 1.2675228245	-2.7374346864	-0.1217653371	 0.104313
141.5102	153.88	183.2255	244.2849	331.5367	463.8777	484.7183	498.5774	518.3156	625.9664	636.9648	642.9328	766.219	790.8006	796.7095	813.0509	859.485	870.835	906.2103	954.5285	980.4582	1005.404	1029.8953	1036.1039	1059.1297	1101.9239	1111.9573	1156.0065	1169.287	1203.8302	1230.4269	1280.2995	1303.9512	1359.8091	1401.1069	1483.4354	1490.2728	1529.9983	2236.7069	3046.6554	3057.7208	3104.1464	3117.9503	3136.7974	3184.92	3195.1261	3233.77	3502.4253
CC1(C#C)C2C3CN1C23	C[C@@]1(C#C)[C@H]2[C@H]3CN1[C@@H]23	
InChI=1S/C8H9N/c1-3-8(2)6-5-4-9(8)7(5)6/h1,5-7H,4H2,2H3	InChI=1S/C8H9N/c1-3-8(2)6-5-4-9(8)7(5)6/h1,5-7H,4H2,2H3/t5-,6+,7-,8-/m1/s1
