23
gdb 122688	3.14153	0.84912	0.8294	2.2131	82.3	-0.255	0.0748	0.3298	1549.9151	0.206667	-425.432324	-425.422668	-425.421724	-425.468778	35.477	
O	-0.4260091779	 1.6673668211	-0.5897437839	-0.423003
C	-0.1504178381	 0.3348138199	-0.2045458233	-0.059021
C	-1.4350430315	-0.4456484729	 0.0294625546	-0.077122
O	-2.1495817318	-0.4221886435	-1.1921319798	-0.279565
C	-3.4591765441	-0.9863778911	-1.1318162553	 0.14904
C	-4.4853557647	-0.0134932527	-0.4762242601	-0.224998
C	-5.4249535689	 0.4572781966	-1.6161325338	-0.197823
C	-4.648121452	 0.1558870389	-2.9092103687	-0.195723
C	-3.9456796263	-1.1686876652	-2.5776288142	-0.219627
H	-1.0725732048	 1.5976098093	-1.3021431775	 0.286775
H	 0.4538843852	-0.1872330935	-0.9636465496	 0.091389
H	 0.4334095592	 0.3768337997	 0.7208436828	 0.105799
H	-1.2165498298	-1.4830843322	 0.3332153967	 0.085262
H	-2.0130687643	 0.0321211605	 0.8349251926	 0.096554
H	-3.3990116597	-1.9437070462	-0.5955528562	 0.060398
H	-5.0376903405	-0.4854821644	 0.3409927245	 0.097079
H	-3.9393844714	 0.8323667999	-0.048360208	 0.11298
H	-6.352404664	-0.1272132628	-1.6034579184	 0.097951
H	-5.7090909231	 1.5085107747	-1.5186371734	 0.097142
H	-5.2892840116	 0.0971577212	-3.7929166379	 0.093185
H	-3.8992469803	 0.9347182881	-3.0941690839	 0.102963
H	-3.1156943108	-1.4218431787	-3.2410971228	 0.104769
H	-4.6706366189	-1.9907731269	-2.6123475143	 0.095597
24.611	48.0625	78.7149	153.703	195.9873	253.1839	310.3325	389.432	434.0396	449.1071	537.6452	566.3588	678.0541	811.6623	817.6383	861.3821	883.808	907.8912	911.0168	913.9896	949.574	1005.6171	1021.837	1041.7281	1078.1025	1099.5333	1125.7752	1138.4954	1186.7246	1197.6533	1228.1356	1239.9711	1250.1429	1263.6381	1305.7216	1313.1986	1340.8741	1345.5191	1356.8524	1374.2376	1386.6298	1425.408	1441.8125	1477.6397	1478.3787	1490.5271	1501.0357	1508.0944	1511.3343	2966.1082	2979.534	2998.5011	3015.3121	3035.6616	3038.9557	3044.3912	3057.8096	3078.7381	3086.4598	3095.3956	3105.1807	3110.809	3792.7724
OCCOC1CCCC1	OCCOC1CCCC1	
InChI=1S/C7H14O2/c8-5-6-9-7-3-1-2-4-7/h7-8H,1-6H2	InChI=1S/C7H14O2/c8-5-6-9-7-3-1-2-4-7/h7-8H,1-6H2
