19
gdb 114571	2.7813	1.18912	0.9676	0.8532	83.47	-0.2318	0.0323	0.2641	1285.8465	0.157212	-385.820747	-385.811746	-385.810802	-385.854401	34.281	
C	-0.2142423103	 1.5206260217	 0.0979757013	-0.382214
C	 0.1664615617	 0.0509794386	-0.1126236663	-0.204507
C	 0.7785545475	-0.5649107695	 1.1295932834	 0.10059
O	-0.1093160743	-0.5772953457	 2.2909982863	-0.302498
C	 0.1421179038	-1.9597596177	 2.5024710118	 0.059396
C	-0.3616013611	-2.7816448019	 1.3696340023	-0.344697
C	 0.9938381383	-2.0869716622	 1.2372376389	 0.079911
C	 2.2108556929	-2.766101604	 0.9719886028	 0.183124
C	 3.2523984781	-3.3198672378	 0.7303490479	-0.409943
H	 0.6636963751	 2.1255499841	 0.3496510729	 0.116177
H	-0.6642845364	 1.9429441718	-0.8050293535	 0.113788
H	-0.9332616543	 1.6167604926	 0.91634897	 0.13813
H	-0.7161754083	-0.5248161767	-0.4113490899	 0.100488
H	 0.8979944525	-0.0423596854	-0.9255829452	 0.108632
H	 1.7021716947	-0.0401812052	 1.4053988397	 0.087363
H	 0.3152707234	-2.303358728	 3.5155301491	 0.1181
H	-0.2792424239	-3.8563030697	 1.4932919498	 0.131385
H	-1.2171750049	-2.4406529453	 0.7948647451	 0.12062
H	 4.1700923956	-3.8116597698	 0.5230434038	 0.186154
83.1197	122.6921	160.5609	178.0424	215.2046	270.9571	360.4224	449.3081	462.545	506.5392	539.7869	567.7415	627.1323	655.4142	725.4244	782.1771	828.1229	892.4109	899.671	933.8323	986.7444	998.5192	1030.6578	1049.067	1090.6925	1098.1808	1126.5274	1153.4641	1211.7504	1246.2338	1279.3394	1295.6922	1340.7527	1381.6382	1408.991	1418.5009	1472.4029	1479.5129	1498.155	1509.5612	2232.1825	3026.0021	3031.5521	3038.4519	3074.8819	3106.7714	3120.4561	3126.7508	3187.5509	3222.5578	3503.4239
CCC1OC2CC12C#C	CC[C@H]1O[C@H]2C[C@@]12C#C	
InChI=1S/C8H10O/c1-3-6-8(4-2)5-7(8)9-6/h2,6-7H,3,5H2,1H3	InChI=1S/C8H10O/c1-3-6-8(4-2)5-7(8)9-6/h2,6-7H,3,5H2,1H3/t6-,7+,8+/m1/s1
