17
gdb 40869	4.05517	1.4881	1.36431	0.8674	70.44	-0.2214	0.0724	0.2938	964.8888	0.136423	-421.729672	-421.722869	-421.721925	-421.761044	27.158	
C	 0.0240416645	 1.3934321772	-0.2371194218	-0.076288
C	 1.4999390266	 1.5427006102	 0.1752973276	-0.371183
C	 1.3414863801	 0.1173174618	 0.7216833447	 0.528748
O	-0.0064426126	 0.0186067203	 0.2175954446	-0.332777
C	 2.2079301421	-1.1014323823	 0.4581359747	-0.219823
C	 3.1249077516	-1.1822264123	 1.6857973189	 0.087689
O	 2.8781390449	-0.0329597726	 2.5059730751	-0.295984
C	 1.4691186778	-0.2559355025	 2.2229444323	-0.032215
C	 1.7517258803	-1.7382684055	 1.7805276179	-0.136908
H	-0.6876609266	 2.0188386923	 0.3152160442	 0.103343
H	-0.1932822276	 1.4676397422	-1.3082677601	 0.10548
H	 2.2025232515	 1.6325606047	-0.6551946865	 0.113924
H	 1.7311996351	 2.3022195194	 0.9238756921	 0.119528
H	 2.4265908023	-1.5831113579	-0.4860764313	 0.094971
H	 4.1060283899	-1.6380308986	 1.6938511171	 0.11444
H	 0.786073043	 0.120852079	 2.98141682	 0.088992
H	 1.3358316071	-2.7043369955	 2.0246864205	 0.108063
92.9211	152.016	226.435	358.7331	439.0821	557.954	568.6628	769.4923	775.0001	778.5916	802.6863	816.5668	854.2465	884.1989	909.503	938.2899	959.6465	978.6301	1007.8144	1024.8316	1028.6375	1037.9214	1071.4984	1090.6521	1151.0894	1157.9598	1162.0772	1192.8813	1196.6613	1216.5945	1240.3343	1258.366	1342.8359	1360.9961	1367.8028	1485.5589	1531.9971	3022.8697	3065.6547	3080.4704	3134.2565	3148.164	3202.2829	3209.4506	3230.3265
C1CC2(O1)C1C3OC2C13	C1C[C@@]2(O1)[C@H]1[C@H]3O[C@@H]2[C@@H]13	
InChI=1S/C7H8O2/c1-2-8-7(1)4-3-5(4)9-6(3)7/h3-6H,1-2H2	InChI=1S/C7H8O2/c1-2-8-7(1)4-3-5(4)9-6(3)7/h3-6H,1-2H2/t3-,4+,5-,6+,7+/m0/s1
