23
gdb 122423	4.68135	0.63423	0.62421	1.2766	83.79	-0.2432	0.0819	0.3251	1933.8654	0.203669	-425.410419	-425.399911	-425.398967	-425.447452	37.222	
C	-0.967726382	 0.7309335125	 0.1624914393	-0.385132
C	 0.3571832323	 0.0107819523	-0.0211639888	-0.022784
O	 0.7338382178	-0.5649335519	 1.2135191292	-0.248634
C	 1.9552871632	-1.2641271197	 1.15642461	-0.072967
C	 2.2407360614	-1.8168678086	 2.5402860868	 0.13516
C	 1.4471689576	-3.0498244161	 3.013952306	-0.306861
C	 2.836081852	-3.7121377766	 3.1579303845	 0.174715
C	 3.1209383926	-4.9903563221	 2.3970936875	-0.396794
O	 3.482242889	-2.5541736736	 2.5634431802	-0.317466
H	-0.8758810779	 1.5162596886	 0.9181316418	 0.126919
H	-1.2862980609	 1.1892171493	-0.7785452727	 0.114693
H	-1.7428278429	 0.0314453823	 0.4883901126	 0.125706
H	 0.2689890876	-0.7721925671	-0.7935550964	 0.085165
H	 1.1360791452	 0.7125616089	-0.3646814276	 0.086903
H	 1.9093759391	-2.0901432675	 0.4265879231	 0.082946
H	 2.7830798626	-0.6021202363	 0.8496311636	 0.093103
H	 2.2489384214	-0.9904826445	 3.2637953352	 0.079167
H	 0.863837719	-2.9328987658	 3.9276631057	 0.108636
H	 0.818029957	-3.4944634253	 2.238731015	 0.106215
H	 3.1518706461	-3.8197837527	 4.2054387501	 0.072616
H	 2.7936705783	-4.9045927871	 1.3562662819	 0.116803
H	 4.1934945249	-5.209503329	 2.4032348419	 0.126656
H	 2.5971410864	-5.8343887099	 2.859653641	 0.115235
38.0905	55.6159	77.6203	113.3129	152.5081	225.1858	247.5876	295.848	318.2581	339.0422	401.967	464.5761	502.1572	712.9217	820.1609	827.7514	886.6951	896.8644	908.5553	924.2251	965.1078	1033.6189	1048.104	1082.2886	1103.4525	1139.8533	1151.1185	1161.5588	1176.1545	1191.2098	1203.2361	1249.7068	1250.4726	1273.3631	1295.9554	1322.5384	1365.1416	1383.5249	1398.2505	1405.1299	1416.5897	1451.4911	1482.1934	1483.6975	1490.6457	1495.1731	1499.5603	1514.2193	1535.6587	2948.3992	2960.9503	2978.3219	2983.6592	2997.0834	3017.566	3031.81	3044.8164	3071.3419	3103.8225	3111.1939	3119.3151	3121.2537	3133.0544
CCOCC1CC(C)O1	CCOC[C@H]1C[C@@H](C)O1	
InChI=1S/C7H14O2/c1-3-8-5-7-4-6(2)9-7/h6-7H,3-5H2,1-2H3	InChI=1S/C7H14O2/c1-3-8-5-7-4-6(2)9-7/h6-7H,3-5H2,1-2H3/t6-,7-/m1/s1
