14
gdb 18426	3.9777	1.50951	1.3536	3.366	63.56	-0.2551	-0.0409	0.2142	910.2983	0.106185	-382.534085	-382.527134	-382.52619	-382.565664	25.587	
O	-0.0273316254	 0.0505295491	 0.38979401	-0.254919
C	-0.0163594981	 1.1951183362	 0.0124197093	 0.152186
C	 1.2307119721	 2.0066115133	-0.0779694548	-0.110514
C	 1.5578437727	 2.9713248087	-1.1811228718	-0.069341
C	 0.3019479352	 3.6400535653	-1.761887725	-0.366471
C	 0.0349626713	 4.1929960442	-0.3332505839	 0.405556
O	-0.7291665043	 5.004583384	 0.1001392018	-0.300506
C	 1.2594558383	 3.5151224032	 0.2276519138	-0.192987
H	-0.9564651716	 1.712489983	-0.2751759886	 0.090399
H	 2.0905399535	 1.4803686484	 0.3271176945	 0.125289
H	 2.5231346159	 2.9362535915	-1.6682847584	 0.120433
H	 0.5405910017	 4.4741369224	-2.4286201221	 0.143212
H	-0.4532114911	 3.0118151867	-2.2386770178	 0.132138
H	 1.9122598798	 3.8902258841	 1.0058792031	 0.125525
86.1885	119.5144	234.0788	294.4972	412.1544	444.7749	489.1546	590.1319	643.748	770.6413	808.2647	831.9297	912.9942	957.9556	984.1814	1000.7206	1021.2671	1039.8712	1083.6044	1097.3857	1136.4615	1192.9398	1214.3331	1277.4935	1307.6063	1363.1297	1451.131	1467.6226	1820.3315	1889.1465	2902.6259	3067.6765	3121.1151	3163.3255	3199.8354	3211.8429
O=CC1C2CC(=O)C12	O=C[C@H]1[C@H]2CC(=O)[C@@H]12	
InChI=1S/C6H6O2/c7-2-4-3-1-5(8)6(3)4/h2-4,6H,1H2	InChI=1S/C6H6O2/c7-2-4-3-1-5(8)6(3)4/h2-4,6H,1H2/t3-,4+,6-/m1/s1
