22
gdb 55853	3.28775	0.88518	0.78973	2.9429	83.96	-0.2293	-0.0072	0.2221	1542.8094	0.190217	-404.346616	-404.335859	-404.334915	-404.383244	38.741	
C	 0.4678725133	 0.2381856525	 0.7562739626	-0.460756
C	-0.4459825531	 0.4071055825	-0.4381799771	 0.37398
O	-1.2977791931	 1.2634775677	-0.4933296585	-0.295522
C	-0.2311375007	-0.5338338018	-1.6310356294	-0.251293
N	 0.3075699473	-1.8237639441	-1.2352242577	-0.119632
C	-0.618918183	-2.9497924359	-1.1105478588	-0.297256
C	 0.4050116948	-2.9297145812	-2.1986689437	 0.341762
C	-0.0507344377	-2.7491961152	-3.6351740767	-0.454734
C	 1.6635438031	-3.7619033865	-2.0459743645	-0.435596
H	 0.2802133336	-0.7287317917	 1.2335362481	 0.148748
H	 1.5158372776	 0.2192133762	 0.4401594729	 0.138633
H	 0.2940265365	 1.0481133191	 1.4656607438	 0.131319
H	-1.1811007568	-0.5686620866	-2.1829240445	 0.112286
H	 0.5023502987	-0.0360571606	-2.2824388884	 0.126192
H	-0.4896144275	-3.5817376684	-0.2348154215	 0.110432
H	-1.6569272377	-2.7838870497	-1.3979489643	 0.110138
H	-0.9862743059	-2.1917842518	-3.7139040838	 0.122643
H	 0.7106305191	-2.2241133577	-4.2239046243	 0.120959
H	-0.2072532879	-3.7270579956	-4.1024857009	 0.123665
H	 1.5079582258	-4.7780623834	-2.4254939691	 0.114517
H	 2.4938778215	-3.3184310917	-2.6076203855	 0.115841
H	 1.9601093623	-3.8218943361	-0.9962895087	 0.123673
40.9323	52.5957	117.8771	127.8147	184.6524	200.6611	222.859	260.3227	348.3213	376.3127	426.0674	435.0284	486.7321	515.5435	543.5743	701.6508	782.018	809.8299	864.1925	903.4879	924.3421	960.7101	999.1355	1023.5796	1025.926	1065.6328	1112.8225	1132.6143	1143.2272	1208.945	1225.9828	1264.3867	1290.5615	1346.7237	1381.0453	1385.4792	1410.78	1423.4801	1450.3728	1458.2045	1466.8773	1479.6696	1487.0736	1499.5333	1506.0341	1519.3987	1814.8437	2993.2493	3027.838	3034.2891	3037.2147	3046.9111	3084.3099	3087.9894	3092.8904	3108.9175	3123.6274	3126.7005	3155.0667	3168.8085
CC(=O)CN1CC1(C)C	CC(=O)CN1CC1(C)C	
InChI=1S/C7H13NO/c1-6(9)4-8-5-7(8,2)3/h4-5H2,1-3H3	InChI=1S/C7H13NO/c1-6(9)4-8-5-7(8,2)3/h4-5H2,1-3H3
