18
gdb 61202	3.48683	0.77933	0.7506	4.0371	73.33	-0.2578	-0.0364	0.2214	1531.4611	0.144232	-439.103983	-439.093517	-439.092573	-439.140885	35.827	
C	-0.1357367184	 1.5469609022	 0.0927707826	-0.438227
C	 0.0106032722	 0.0157656992	-0.003061734	-0.069499
C	-1.3781261437	-0.6062199369	 0.0525944669	 0.142938
O	-1.8475833317	-1.1197053995	 1.0346233672	-0.245241
C	 0.7337961711	-0.4561521708	-1.2888674096	 0.104644
O	 0.1306082537	 0.0461659672	-2.465470953	-0.419983
C	 2.2485359756	-0.145871336	-1.2389290955	-0.386872
C	 2.958302276	-0.6442619957	-2.4143061645	 0.274083
N	 3.5251411732	-1.0413986861	-3.3390148863	-0.295904
H	 0.8345268721	 2.0523910441	 0.0609684416	 0.12794
H	-0.755953572	 1.9411362834	-0.719441684	 0.130596
H	-0.6171574904	 1.8196972111	 1.0352675641	 0.150112
H	 0.5547444767	-0.3534449792	 0.8731378292	 0.100435
H	-1.9498874504	-0.5353442602	-0.8984005495	 0.100451
H	 0.6240751157	-1.5437147352	-1.368189273	 0.123967
H	 0.2815063294	 0.9965276569	-2.5141475189	 0.291047
H	 2.4138400276	 0.9356773639	-1.1649209415	 0.148383
H	 2.6895048032	-0.5945252584	-0.3418433118	 0.161129
36.2492	62.1216	68.377	117.5954	201.686	223.9497	258.9333	278.6073	312.8025	349.4376	393.7878	417.3949	447.4951	544.8394	685.1117	849.4817	869.8328	904.4767	949.1045	962.8451	1022.8776	1038.3866	1089.7531	1138.2944	1161.0622	1193.1971	1265.9139	1296.628	1320.7197	1351.7465	1379.2488	1401.4786	1418.6184	1426.4907	1463.2037	1497.4315	1506.7988	1833.2545	2367.8016	2900.943	3034.9766	3040.5377	3053.1388	3058.1582	3086.0378	3103.2919	3120.0556	3806.5134
CC(C=O)C(O)CC#N	C[C@@H](C=O)[C@@H](O)CC#N	
InChI=1S/C6H9NO2/c1-5(4-8)6(9)2-3-7/h4-6,9H,2H2,1H3	InChI=1S/C6H9NO2/c1-5(4-8)6(9)2-3-7/h4-6,9H,2H2,1H3/t5-,6-/m0/s1
