17
gdb 90056	4.03108	1.21911	1.20525	1.737	76.26	-0.217	-0.0048	0.2122	1086.4415	0.135576	-417.863787	-417.856202	-417.855258	-417.895723	29.384	
C	-0.0621098034	 1.5668853294	 0.0587246236	-0.324973
N	 0.0175380159	 0.1233329189	 0.081785906	-0.077168
C	-1.2126513903	-0.6527098188	 0.4379625962	-0.262099
C	-0.2645087356	-1.6420490433	 1.1534216892	 0.068796
N	 0.6872538477	-2.33987598	 0.1604281805	-0.306183
C	 1.6337608201	-1.7830404445	 1.174529208	-0.188482
C	 0.7635432738	-0.4955741218	 1.2049498273	 0.049926
C	 0.5961278612	-2.3323180409	 2.268874838	 0.34484
O	 0.5289886435	-3.0059075252	 3.2397068074	-0.296794
H	 0.9296983101	 1.9835624105	-0.1439470113	 0.128776
H	-0.7303930142	 1.8855354622	-0.7476798882	 0.127236
H	-0.4348026933	 2.0055085912	 1.0044745916	 0.091325
H	-1.8772952559	-0.1231328128	 1.136861611	 0.105865
H	-1.77851129	-1.0375703527	-0.4138531412	 0.12523
H	 0.6129407484	-3.3571276506	 0.2430694451	 0.229451
H	 2.7106285868	-1.9531693186	 1.1311507566	 0.097595
H	 0.8308788151	 0.1241348371	 2.1060787803	 0.086657
107.2712	195.7508	201.9479	241.0636	304.2466	391.8636	399.5211	522.0855	541.794	676.8214	709.8891	754.076	798.5524	858.7203	874.5139	900.4648	915.3999	972.4097	1024.2597	1037.0651	1098.959	1109.8608	1130.01	1159.2491	1168.1417	1198.4276	1205.6967	1230.6687	1258.0592	1279.4273	1295.5454	1361.2443	1451.1646	1480.9412	1497.5185	1500.5506	1907.6837	2921.7602	2995.702	3044.8234	3061.0443	3100.2567	3104.834	3107.6998	3413.9247
CN1CC23NC(C12)C3=O	CN1C[C@@]23N[C@@H]([C@@H]12)C3=O	
InChI=1S/C6H8N2O/c1-8-2-6-4(8)3(7-6)5(6)9/h3-4,7H,2H2,1H3	InChI=1S/C6H8N2O/c1-8-2-6-4(8)3(7-6)5(6)9/h3-4,7H,2H2,1H3/t3-,4+,6+/m0/s1
