17
gdb 65468	4.43825	0.74312	0.73307	2.1625	73.52	-0.2499	-0.0448	0.2051	1532.8612	0.132363	-458.966912	-458.957541	-458.956597	-459.002205	33.197	
O	 0.0031109364	 1.3015329833	 0.2586353664	-0.464976
C	 0.0011453721	-0.0575273505	-0.0023831849	 0.346795
C	-0.5142227039	-0.9820799834	 1.0785656637	-0.345417
C	-1.3487523916	-0.7758318579	-0.1564279814	-0.107272
C	-2.611713022	 0.0606930615	-0.1281001457	-0.302187
C	-3.7688210745	-0.685244161	 0.5061956388	 0.167968
O	-4.8583941161	-0.8090055645	 0.0113713582	-0.235866
C	 1.0964329171	-0.4964583455	-0.888979596	 0.100774
O	 1.8734815806	 0.2956709494	-1.3741133115	-0.288423
H	 0.687779941	 1.66639553	-0.3255354823	 0.300769
H	-0.0259390504	-1.9384448361	 1.2325401901	 0.129682
H	-0.8112598058	-0.4679304389	 1.9863647111	 0.143211
H	-1.3639672104	-1.6041144853	-0.8603453627	 0.108719
H	-2.4226249421	 0.9667357856	 0.4620519092	 0.147388
H	-2.9078061593	 0.3739010682	-1.1330742682	 0.129322
H	-3.5348021698	-1.1294665589	 1.5014111402	 0.07566
H	 1.1534200086	-1.5841787761	-1.097174405	 0.093853
48.9344	69.4978	93.8101	153.1201	227.7263	283.2508	296.8779	363.6388	400.343	442.254	501.7785	538.0584	626.4163	762.067	808.2003	833.4753	883.4165	920.7507	941.5872	1028.8421	1049.8451	1066.6317	1082.5867	1095.0599	1159.5142	1210.8178	1234.6562	1293.3568	1345.2808	1364.2325	1398.3032	1426.6467	1448.604	1462.2266	1488.5577	1789.0467	1836.5781	2865.2974	2931.182	3038.1673	3103.3113	3132.7364	3140.425	3224.9918	3688.7271
OC1(CC1CC=O)C=O	O[C@]1(C[C@H]1CC=O)C=O	
InChI=1S/C6H8O3/c7-2-1-5-3-6(5,9)4-8/h2,4-5,9H,1,3H2	InChI=1S/C6H8O3/c7-2-1-5-3-6(5,9)4-8/h2,4-5,9H,1,3H2/t5-,6-/m1/s1
