18
gdb 9778	3.49754	1.58651	1.43348	2.3877	63.11	-0.2436	0.0596	0.3032	940.0381	0.154033	-422.072856	-422.064681	-422.063737	-422.105651	30.519	
O	-0.0839228774	 1.4299385798	-0.1049090759	-0.437952
C	-0.0269559173	 0.024776874	 0.1298593761	-0.141054
C	-1.456323698	-0.4978460453	-0.0055858144	 0.421476
O	-1.9796087191	-0.1102180674	-1.2644031402	-0.488067
C	-1.511322535	-2.0371384418	 0.150925284	-0.300272
C	-2.2925672121	-2.2558936417	 1.4634901317	-0.074504
O	-2.2143151082	-1.0220186401	 2.1690936396	-0.245346
C	-2.3355026683	-0.0173716294	 1.1788055777	-0.144006
H	 0.8108551804	 1.7677757786	-0.1966086549	 0.296218
H	 0.6132993	-0.472333386	-0.6128398826	 0.094944
H	 0.3540450351	-0.2028532795	 1.1358846456	 0.104585
H	-1.680876622	 0.7980796005	-1.4033403098	 0.285786
H	-2.0118656367	-2.4697103859	-0.7172067327	 0.122791
H	-0.5059500183	-2.465230468	 0.2082037678	 0.101155
H	-3.3439509955	-2.5062189251	 1.2516282089	 0.094127
H	-1.876156977	-3.0370880645	 2.1040221223	 0.105885
H	-2.0127959129	 0.9337272126	 1.607405017	 0.114046
H	-3.3725132278	 0.0773870593	 0.8196426898	 0.090187
48.739	145.8947	213.29	237.8485	263.9288	342.8489	369.8403	418.3205	460.3693	504.8668	632.464	675.2085	791.3278	832.5533	934.4501	940.7596	974.4853	989.1643	1020.2479	1059.1037	1099.6182	1115.3275	1156.9055	1171.1955	1218.8099	1232.4602	1263.5385	1275.2394	1296.3592	1318.3352	1350.996	1379.298	1420.7176	1441.6972	1485.9717	1507.3065	1509.3403	1523.8338	2979.1066	2985.6648	2989.6139	3034.845	3057.4871	3095.1724	3112.04	3121.717	3768.0928	3846.0515
OCC1(O)CCOC1	OC[C@@]1(O)CCOC1	
InChI=1S/C5H10O3/c6-3-5(7)1-2-8-4-5/h6-7H,1-4H2	InChI=1S/C5H10O3/c6-3-5(7)1-2-8-4-5/h6-7H,1-4H2/t5-/m0/s1
