19
gdb 99674	2.00455	1.40526	0.86596	0.883	77.36	-0.2496	0.0305	0.28	1322.2827	0.156585	-422.944499	-422.934756	-422.933812	-422.979927	34.431	
C	 0.0426930989	 1.3980515552	-0.0563062503	-0.236988
O	-0.1544230823	 0.0096796029	 0.1046636072	-0.242191
C	 0.6152785591	-0.5829910006	 1.1405532018	-0.105939
C	 0.0417828791	-1.9020526496	 1.4154282157	 0.316402
C	-0.3855809814	-2.9993554497	 1.6519839387	-0.413702
C	 2.1024925912	-0.7197766123	 0.779461026	-0.034046
C	 3.0475298196	 0.4876144039	 0.9876074035	-0.100684
O	 3.9261854646	-0.2851630463	 1.8246377852	-0.27366
C	 3.0187068405	-1.4073346408	 1.8150652407	-0.085338
H	 1.0327190451	 1.6412063698	-0.4678964332	 0.116302
H	-0.7175047867	 1.7429335457	-0.7610537431	 0.134097
H	-0.0830297689	 1.9403997112	 0.8935122677	 0.108741
H	 0.5336151383	 0.0321361499	 2.0553920144	 0.095607
H	-0.7799173695	-3.9633202876	 1.8604887855	 0.200404
H	 2.1727253535	-1.1603566391	-0.2170276389	 0.10206
H	 3.5561483523	 0.8717118231	 0.0955819163	 0.106317
H	 2.6034030825	 1.3315205874	 1.5344717749	 0.096003
H	 2.554513862	-1.5701634625	 2.7970009421	 0.105311
H	 3.5068641423	-2.3342826106	 1.4966054657	 0.111304
68.737	86.5778	90.4194	123.405	173.5125	211.5432	259.9428	339.6502	358.6713	434.8258	504.871	540.1279	629.7362	674.6103	778.0962	876.9164	892.2881	953.3184	977.4179	999.802	1040.814	1060.4738	1097.6234	1142.9306	1147.6553	1163.9703	1174.6153	1179.4098	1218.6006	1261.9798	1288.5038	1310.659	1355.6547	1367.5044	1390.0583	1475.7176	1492.0699	1507.3134	1510.5995	1535.5364	2242.8024	2934.3302	2979.6051	2997.2893	3014.2537	3032.5373	3050.5472	3067.4075	3098.0805	3116.9162	3502.9514
COC(C#C)C1COC1	CO[C@@H](C#C)C1COC1	
InChI=1S/C7H10O2/c1-3-7(8-2)6-4-9-5-6/h1,6-7H,4-5H2,2H3	InChI=1S/C7H10O2/c1-3-7(8-2)6-4-9-5-6/h1,6-7H,4-5H2,2H3/t7-/m0/s1
