14
gdb 29567	2.40256	1.80742	1.03146	8.0947	69.94	-0.1907	-0.0115	0.1792	1057.297	0.101436	-473.860315	-473.852328	-473.851384	-473.892447	30.573	
O	-0.0647567222	 1.3482080568	 0.0113412401	-0.415369
C	 0.0263940337	-0.0082081074	 0.0029815916	 0.20594
C	 1.2104830094	-0.6807682297	-0.0079366505	-0.117729
N	 1.2420021961	-2.0496064838	-0.0160952346	-0.323438
C	 0.0850042234	-2.7818132582	-0.0134057705	-0.117729
C	-1.1309689054	-2.1687745621	-0.0026339802	 0.20594
O	-2.3106663543	-2.8444578968	 0.0004369845	-0.415369
C	-1.2669239808	-0.7056947621	 0.0066761098	 0.280638
O	-2.3454325359	-0.1279894208	 0.0163849591	-0.384685
H	 0.8187130581	 1.7314980274	 0.0081098333	 0.293128
H	 2.1730575102	-0.1821062047	-0.010779486	 0.113728
H	 2.1273157623	-2.5238270276	-0.0238352734	 0.268089
H	 0.2032189289	-3.8594024572	-0.0203565948	 0.113728
H	-2.1402360734	-3.7922715038	-0.0061540884	 0.293128
103.9962	254.7415	285.2533	315.1778	318.7597	324.5775	333.8588	362.7597	470.0472	527.5866	527.6671	529.3718	577.9452	700.2962	774.1936	792.8641	820.2783	876.3071	1017.3456	1096.719	1192.0144	1228.0437	1260.7326	1273.2463	1355.6171	1442.3624	1451.6468	1566.9622	1650.9978	1674.8081	1723.1796	3187.0706	3190.1197	3683.5324	3817.2219	3817.9724
OC1=CNC=C(O)C1=O	Oc1c[nH]cc(O)c1=O	
InChI=1S/C5H5NO3/c7-3-1-6-2-4(8)5(3)9/h1-2,7-8H,(H,6,9)	InChI=1S/C5H5NO3/c7-3-1-6-2-4(8)5(3)9/h1-2,7-8H,(H,6,9)
