18
gdb 99599	2.23051	1.23803	0.99999	2.036	71.79	-0.282	0.0196	0.3016	1248.634	0.145481	-439.074439	-439.064699	-439.063755	-439.109527	34.784	
C	 0.1039616908	 1.4686915836	-0.546269635	-0.479569
C	 0.0306585095	 0.0151761182	-0.1349387277	 0.408839
C	 1.2166423338	-0.8466288078	-0.2448675995	-0.224524
O	 0.7885542655	-0.3396091379	 1.024875448	-0.276613
C	-1.3482846826	-0.6573737535	-0.1481703307	-0.219708
C	-2.3302132134	-0.0418256602	 0.8843886635	-0.078707
O	-3.5302257221	-0.7734811761	 0.970946437	-0.41498
C	-1.9542431307	-0.6278242234	-1.4815661711	 0.257919
N	-2.4682464006	-0.5800676538	-2.5163280838	-0.329402
H	 1.1387961398	 1.8155662257	-0.5092954415	 0.13585
H	-0.2758712911	 1.604562607	-1.5635098763	 0.149523
H	-0.4864732541	 2.1002870211	 0.1245229755	 0.136173
H	 1.1005740071	-1.9204004869	-0.3837138445	 0.121847
H	 2.147191815	-0.4273175146	-0.6233131007	 0.124061
H	-1.2163573643	-1.7067580238	 0.1362601888	 0.139971
H	-1.8521425008	-0.0970719446	 1.8656662831	 0.142472
H	-2.5111839935	 1.0152135358	 0.647090432	 0.10798
H	-4.0190840383	-0.6520840087	 0.1490383028	 0.298869
48.5708	98.4389	133.7752	167.5527	190.4085	213.1013	322.1972	354.0629	362.1902	375.6316	415.4523	488.3545	530.1423	585.7813	774.5498	827.325	859.266	923.8223	942.0987	1031.5984	1038.29	1053.9323	1084.7298	1121.7203	1135.9032	1166.4953	1204.2871	1248.1924	1274.018	1330.1952	1392.2843	1403.6908	1415.8377	1426.4194	1485.0533	1497.6284	1507.472	1531.8294	2350.4418	3013.709	3047.1721	3063.695	3087.7264	3108.189	3113.9179	3133.2348	3176.4867	3801.8429
CC1(CO1)C(CO)C#N	C[C@]1(CO1)[C@@H](CO)C#N	
InChI=1S/C6H9NO2/c1-6(4-9-6)5(2-7)3-8/h5,8H,3-4H2,1H3	InChI=1S/C6H9NO2/c1-6(4-9-6)5(2-7)3-8/h5,8H,3-4H2,1H3/t5-,6+/m1/s1
