17
gdb 103555	2.54752	1.30296	1.05563	2.1443	64.48	-0.2688	-0.008	0.2608	1161.1569	0.133251	-496.118721	-496.109177	-496.108233	-496.153236	34.145	
C	-0.2841432121	 1.6223114392	 0.1970705278	-0.429128
C	-0.0936541335	 0.1221072555	 0.1566910862	 0.35767
C	-1.3321275764	-0.6554118929	-0.2740575444	-0.099306
O	-1.7492388991	-0.2982206974	-1.5743561677	-0.414204
O	 1.0155253759	-0.2410280334	-0.784497513	-0.294401
C	 1.792110959	-0.7186613878	 0.2326133244	 0.419929
O	 2.9148263904	-1.1095520119	 0.1857393597	-0.330641
C	 0.7206905137	-0.5062132753	 1.3139637101	-0.125708
O	 1.0434053493	 0.3627222997	 2.3641504401	-0.419495
H	 0.6619221462	 2.130506989	 0.3884271643	 0.136461
H	-0.7024339662	 1.9643468648	-0.7518551445	 0.141923
H	-0.9792828211	 1.8844255533	 1.000237338	 0.134971
H	-1.1257419522	-1.7346536554	-0.1981543547	 0.093342
H	-2.1626255765	-0.4249623265	 0.401951112	 0.123609
H	-1.0134360785	-0.491148268	-2.1676955737	 0.297648
H	 0.2974061342	-1.4564425174	 1.6719397233	 0.101671
H	 1.8402188666	 0.0290704847	 2.7919203221	 0.305657
71.7626	111.6638	130.4183	180.232	202.0476	255.1331	263.9575	323.9778	370.2477	391.3245	434.0376	481.7375	601.7272	677.7676	721.763	816.8639	846.6264	919.8822	949.5719	967.2558	1063.005	1080.2921	1131.318	1172.3891	1180.8534	1236.7894	1252.5622	1289.0778	1329.5563	1388.4052	1409.0744	1419.703	1426.1296	1479.2828	1489.1156	1494.9522	1931.3081	2979.8875	2999.2086	3056.8968	3077.6734	3130.0606	3151.657	3795.1171	3808.158
CC1(CO)OC(=O)C1O	C[C@@]1(CO)OC(=O)[C@H]1O	
InChI=1S/C5H8O4/c1-5(2-6)3(7)4(8)9-5/h3,6-7H,2H2,1H3	InChI=1S/C5H8O4/c1-5(2-6)3(7)4(8)9-5/h3,6-7H,2H2,1H3/t3-,5+/m1/s1
