17
gdb 97572	2.96131	0.79299	0.66541	2.4165	74.1	-0.2398	0.0145	0.2543	1647.3126	0.134715	-455.130304	-455.119784	-455.11884	-455.167592	36.456	
N	 0.4484795092	 1.6563829902	-0.0450610504	-0.503171
C	 0.107303093	 0.2330396843	-0.073915416	-0.249446
C	 0.5691544911	-0.4185121062	-1.2951870341	 0.056693
C	 0.9524130627	-0.9938029846	-2.2832411761	 0.073895
C	 1.4708231643	-1.6920288304	-3.4599911297	-0.204643
O	 2.528484295	-2.5922971636	-3.1581203867	-0.400406
C	 0.5736739568	-0.509452211	 1.2212787979	 0.401817
N	 0.7271915129	-1.8507716852	 1.1146755786	-0.523734
O	 0.7092744641	 0.1131818847	 2.2563696642	-0.364932
H	 0.3518089412	 1.9481632711	 0.927400577	 0.246578
H	 1.4384756983	 1.7538947818	-0.2572708492	 0.228487
H	-0.9913723189	 0.1570439205	-0.0439256016	 0.141286
H	 0.6819454844	-2.3027526595	-3.9123825678	 0.145734
H	 1.7718289234	-0.9522576645	-4.2179453872	 0.127153
H	 3.2298250188	-2.0834181945	-2.7377745699	 0.288658
H	 0.7477864085	-2.2950076246	 0.211732141	 0.271802
H	 1.0306008451	-2.3648160187	 1.9259145001	 0.264229
27.547	51.0064	66.7765	124.6081	211.2827	252.3602	278.7834	294.3228	342.309	352.9804	396.8219	422.3283	489.8022	555.3664	589.9711	625.1537	697.5822	812.4938	847.818	978.0762	981.9626	1039.0571	1085.71	1103.0332	1182.2202	1205.7455	1217.9696	1286.6257	1343.2026	1363.3861	1404.4134	1415.1995	1488.2117	1610.0599	1664.3849	1801.3022	2352.7878	2983.9171	2987.4101	3067.5281	3463.4268	3542.9298	3589.5111	3722.433	3813.2792
NC(C#CCO)C(N)=O	N[C@@H](C#CCO)C(=O)N	
InChI=1S/C5H8N2O2/c6-4(5(7)9)2-1-3-8/h4,8H,3,6H2,(H2,7,9)	InChI=1S/C5H8N2O2/c6-4(5(7)9)2-1-3-8/h4,8H,3,6H2,(H2,7,9)/t4-/m0/s1
