21
gdb 80862	2.27022	1.64857	1.37304	1.2881	77.86	-0.2357	0.0616	0.2973	1076.7768	0.181856	-424.208855	-424.199933	-424.198988	-424.241667	35.074	
C	-0.1296118924	 1.5771591595	-0.0088187644	-0.437779
C	 0.0126254653	 0.0605149896	-0.0192886283	-0.003784
C	 1.1579716612	-0.599486151	-0.8381005818	 0.092072
C	 2.1298879666	-0.2503545785	 0.3117997241	-0.325356
C	 0.838940061	-0.5903882226	 1.1356327514	 0.355179
O	 0.6027129604	-0.1890769817	 2.4457712177	-0.488922
C	 0.7099931665	-2.0936185538	 0.7810015731	 0.091609
C	-0.5922797524	-2.7870759099	 1.1397287679	-0.41211
O	 0.9137598535	-2.0093874537	-0.6506869177	-0.296548
H	 0.818464983	 2.1036521961	 0.1230140996	 0.118356
H	-0.5751405767	 1.9242809665	-0.9471115419	 0.115675
H	-0.789860026	 1.8852893016	 0.8079994901	 0.131715
H	-0.9632308265	-0.3959028909	-0.2049379089	 0.073816
H	 1.3531696146	-0.3919618064	-1.8882591938	 0.080075
H	 3.0036517924	-0.896449629	 0.4301115681	 0.094004
H	 2.4129835683	 0.7994605605	 0.3631815464	 0.107283
H	 1.2376336488	-0.6276156782	 3.0232466556	 0.282665
H	 1.5456926106	-2.6577955181	 1.2251708729	 0.059804
H	-1.4629877762	-2.2561053853	 0.7474311	 0.12392
H	-0.6014151817	-3.8022003377	 0.7322240405	 0.124672
H	-0.6908377003	-2.8520903171	 2.2283868595	 0.113654
171.0857	176.1014	185.3357	198.0666	219.5706	240.5021	304.7489	392.3573	420.9972	490.1654	507.416	550.6587	612.4461	663.0732	790.7894	832.7222	853.4983	867.5852	919.3625	945.0559	971.1231	1015.6679	1042.8132	1085.4574	1088.9032	1108.0905	1127.7251	1132.6878	1163.2976	1178.3099	1231.4892	1248.8181	1265.8071	1292.4193	1320.9668	1359.3337	1392.5666	1407.9291	1409.744	1415.4525	1483.7558	1491.4166	1495.0642	1498.027	1509.2039	2966.3696	3040.1302	3042.4027	3070.0013	3073.2702	3100.7072	3111.5204	3120.1348	3126.2162	3142.403	3157.0752	3797.6594
CC1C2CC1(O)C(C)O2	C[C@H]1[C@H]2C[C@]1(O)[C@@H](C)O2	
InChI=1S/C7H12O2/c1-4-6-3-7(4,8)5(2)9-6/h4-6,8H,3H2,1-2H3	InChI=1S/C7H12O2/c1-4-6-3-7(4,8)5(2)9-6/h4-6,8H,3H2,1-2H3/t4-,5+,6+,7+/m0/s1
