16
gdb 50620	2.77191	1.43708	0.98384	10.5735	78.95	-0.2006	-0.0492	0.1514	1147.5552	0.125667	-437.867237	-437.859437	-437.858492	-437.899799	29.106	
O	-0.4264474739	 0.0333474431	 0.1049168384	-0.305615
C	-0.0914875884	 1.2001755075	 0.0857637601	 0.068111
C	 1.2091649094	 1.7677737989	 0.0011777977	-0.081217
N	 1.2068295824	 3.2549825428	-0.042788558	-0.288044
H	 1.3906190111	 3.6065239334	-0.9909090848	 0.293991
H	 0.2541144729	 3.5507167766	 0.2025159216	 0.285859
C	 2.2207060843	 3.8907064328	 0.8585987711	-0.234217
C	 3.5691980227	 3.3382514519	 0.484770602	-0.114545
C	 3.6702095075	 2.1037598272	-0.0137265712	-0.115331
C	 2.4986565815	 1.1567833597	-0.1111398666	 0.321692
O	 2.7244424148	-0.0434244592	-0.2146783806	-0.357992
H	-0.8891329844	 2.0120633983	 0.1578519571	-0.019619
H	 2.163770411	 4.9759688533	 0.7296654904	 0.135514
H	 1.9302070405	 3.6360445205	 1.8845976033	 0.166867
H	 4.4310488821	 3.9721019478	 0.6649495202	 0.119874
H	 4.6290515965	 1.6700588854	-0.2785879807	 0.124673
83.6706	156.5577	187.5963	264.1967	309.2712	346.1514	411.1056	457.1949	474.8507	617.65	652.6486	692.048	753.7781	822.2347	890.2617	958.3563	991.1931	1006.2907	1012.8862	1042.0847	1082.607	1122.7734	1186.8442	1236.9092	1258.7732	1369.1844	1390.3583	1409.3662	1439.3901	1477.0021	1481.2795	1615.7681	1677.9907	1703.163	1788.9931	2575.9826	3042.0799	3094.8853	3180.1523	3202.5925	3318.9632	3376.4078
O=C[C-]1[NH2+]CC=CC1=O	O=C[C]1[NH2]CC=CC1=O	
InChI=1S/C6H7NO2/c8-4-5-6(9)2-1-3-7-5/h1-2,4H,3,7H2	InChI=1S/C6H7NO2/c8-4-5-6(9)2-1-3-7-5/h1-2,4H,3,7H2
