18
gdb 127258	3.11134	1.19408	0.90818	3.031	77.47	-0.1899	0.0242	0.214	1283.9189	0.148921	-435.27747	-435.268198	-435.267253	-435.311925	33.696	
C	-0.0604391847	 1.4056981303	 0.0557547282	-0.321703
N	-0.0656870701	-0.0382704364	 0.0051833118	 0.056587
C	 0.0371754965	-0.8293447027	-1.1060311477	-0.122146
C	 0.086492864	-2.1355152704	-0.6590449481	 0.112122
N	 0.1174285352	-3.3370866192	-1.3783114212	-0.616847
C	 0.0097741306	-2.0262904102	 0.7537233557	 0.275574
C	 0.0095820154	-3.1574038965	 1.7294617348	-0.18435
O	 1.0823548037	-4.0776768793	 1.4829488953	-0.418306
N	-0.0666746588	-0.7501595312	 1.1396230489	-0.334144
H	 0.9452572393	 1.812897597	-0.1027091547	 0.134093
H	-0.7301510368	 1.812038885	-0.7075205456	 0.135836
H	-0.4133954656	 1.7041305713	 1.0428242602	 0.158316
H	 0.060062198	-0.4081581064	-2.0986530703	 0.116098
H	 0.5432380302	-3.2515635303	-2.2913976444	 0.237118
H	 0.5798929783	-4.0625825418	-0.8422441406	 0.254154
H	 0.0400831823	-2.7598281801	 2.7522290567	 0.112749
H	-0.8977570626	-3.7641843322	 1.63226617	 0.121623
H	 1.901173325	-3.5731851469	 1.5414940809	 0.283227
53.678	90.0105	151.3558	177.6024	229.05	287.6433	307.9248	338.9295	393.4557	434.1637	497.1905	615.6339	625.7632	664.065	725.9359	758.0885	791.2031	823.4211	971.497	1018.151	1032.6614	1079.4091	1117.5365	1148.394	1193.2738	1215.5624	1259.6769	1345.3787	1370.0685	1410.6872	1421.6699	1451.812	1466.8932	1488.5674	1497.3605	1510.1752	1532.6756	1631.7709	1660.4804	3021.6538	3028.5725	3068.0721	3094.5148	3158.2658	3256.2958	3525.6907	3623.2053	3803.8937
CN1C=C(N)C(CO)=N1	Cn1cc(N)c(CO)n1	
InChI=1S/C5H9N3O/c1-8-2-4(6)5(3-9)7-8/h2,9H,3,6H2,1H3	InChI=1S/C5H9N3O/c1-8-2-4(6)5(3-9)7-8/h2,9H,3,6H2,1H3
