22
gdb 10852	4.38454	1.34733	1.08937	0.228	84.84	-0.2251	0.0364	0.2615	1168.7612	0.20123	-313.106753	-313.09825	-313.097306	-313.139166	33.027	
C	-0.0159821462	 1.5788923648	 0.0001068493	-0.403792
C	 0.0213387991	 0.0488424553	-0.0101764097	 0.042646
C	 0.7364765568	-0.5066805464	-1.249290834	-0.194334
C	 0.6608156545	-2.0378763255	-1.3023712813	-0.298952
C	 0.9652151348	-2.6912638588	 0.0278817158	 0.331416
C	 1.2369135628	-4.170807668	-0.0074294109	-0.473848
C	 0.9816714691	-1.9872410547	 1.1625293883	-0.153278
C	 0.6853309234	-0.5132138373	 1.2577943754	-0.238922
H	 0.9983496123	 1.9956862635	-0.0100120802	 0.11062
H	-0.5448560318	 1.9704845846	-0.8754767217	 0.107804
H	-0.5212274978	 1.959907041	 0.8944614189	 0.108203
H	-1.0145174247	-0.3207370135	-0.0326394543	 0.069658
H	 0.3087875283	-0.0767775712	-2.1626926881	 0.085964
H	 1.7895661226	-0.1939666905	-1.2198585461	 0.092917
H	-0.3391358934	-2.3547659772	-1.6372879859	 0.102
H	 1.3521728458	-2.4227884815	-2.0643729798	 0.094801
H	 2.1110380289	-4.4001748304	-0.6311176165	 0.118072
H	 1.4165268409	-4.5748021602	 0.9926076124	 0.116299
H	 0.3927352416	-4.7178179597	-0.4482444739	 0.118211
H	 1.2211586151	-2.4951392267	 2.0954627052	 0.069942
H	 1.6174116644	 0.0393314939	 1.4597900899	 0.098426
H	 0.0446007436	-0.3207569015	 2.1290253673	 0.096144
94.3573	183.0858	203.5849	235.0161	271.4602	273.9366	350.2926	395.2529	413.7837	451.3696	527.7448	663.2581	762.1579	797.971	820.0997	897.6081	910.7218	953.0889	965.7606	994.2719	1033.7979	1053.443	1065.6433	1103.7877	1118.1736	1162.3213	1170.3079	1183.8471	1253.8234	1279.4651	1323.2301	1334.0644	1342.257	1378.3689	1388.0016	1401.6557	1410.5841	1414.0662	1473.4687	1477.5067	1480.129	1491.9722	1494.3987	1497.5952	1499.8137	1742.8918	2975.6774	2988.1624	2993.5681	3009.5843	3011.0732	3021.9215	3026.2347	3029.2954	3054.3263	3057.6767	3087.8543	3094.0827	3107.1401	3133.8245
CC1CCC(C)=CC1	C[C@H]1CCC(=CC1)C	
InChI=1S/C8H14/c1-7-3-5-8(2)6-4-7/h3,8H,4-6H2,1-2H3	InChI=1S/C8H14/c1-7-3-5-8(2)6-4-7/h3,8H,4-6H2,1-2H3/t8-/m1/s1
