18
gdb 9486	3.01034	1.71918	1.51479	3.1608	72.1	-0.2483	0.0252	0.2735	939.0878	0.153795	-343.984264	-343.975825	-343.974881	-344.016743	31.336	
C	-0.1837207919	 1.5184794301	-0.0446631142	-0.415745
C	 0.0116660419	 0.0085914037	-0.046425086	-0.017622
C	 1.2192350839	-0.4908887208	-0.883479518	-0.176856
N	 2.0095915644	-0.6052794993	 0.3654991249	-0.329976
C	 0.7804947722	-0.5909858255	 1.1987446618	 0.156218
C	 0.8939318409	 0.2095485035	 2.4939483267	-0.440721
C	 0.2848500575	-1.9486746491	 1.4923950393	 0.247193
N	-0.0748398063	-3.0265745966	 1.710358565	-0.346453
H	 0.7616278183	 2.045603863	 0.1136811436	 0.134396
H	-0.5857575757	 1.8388623279	-1.0115497327	 0.123706
H	-0.8896932999	 1.8357604888	 0.7292845186	 0.123799
H	-0.9320533159	-0.497070883	-0.2553788848	 0.097006
H	 1.0193397819	-1.4450162483	-1.3869263493	 0.110375
H	 1.639911159	 0.2141112409	-1.6079647633	 0.106288
H	 2.5912306002	-1.4317229409	 0.4570036515	 0.230295
H	 1.2670283197	 1.2118439115	 2.2786446083	 0.13194
H	-0.0746283476	 0.2828009171	 2.9977513992	 0.131816
H	 1.5952441774	-0.2784728132	 3.1773951294	 0.134342
99.352	150.3783	193.5325	215.2967	242.4951	275.8136	344.9425	356.978	433.5004	532.3416	574.0119	637.9236	712.668	799.6083	864.995	901.0189	925.0901	967.8985	1019.3731	1050.3411	1085.4542	1122.2619	1163.0805	1170.3019	1202.3032	1219.3896	1255.0354	1320.1962	1367.1395	1381.8004	1406.4506	1413.2448	1478.8636	1486.2038	1497.4927	1504.2926	1521.8189	2336.9919	3019.1108	3036.4127	3047.2507	3071.1233	3094.6365	3102.7209	3115.4558	3118.6355	3144.525	3528.4079
CC1CNC1(C)C#N	C[C@H]1CN[C@]1(C)C#N	
InChI=1S/C6H10N2/c1-5-3-8-6(5,2)4-7/h5,8H,3H2,1-2H3	InChI=1S/C6H10N2/c1-5-3-8-6(5,2)4-7/h5,8H,3H2,1-2H3/t5-,6+/m0/s1
