21
gdb 81471	3.3412	1.5447	1.46731	1.3927	80.72	-0.2362	0.0753	0.3116	1008.5331	0.186107	-387.031485	-387.024606	-387.023662	-387.062257	29.76	
C	-0.1522784269	 1.5069025028	-0.0160896986	-0.447584
C	 0.0426354297	-0.0051620666	 0.016987749	 0.095537
C	 1.2601339941	-0.5950918462	-0.7820385597	-0.066914
C	 2.1121220147	-0.2252737706	 0.4664359167	-0.234728
C	 0.8190110623	-0.6076573816	 1.2429552804	-0.06691
C	 0.6260006509	-2.1807986413	 1.1413339975	 0.070884
C	 1.8007305012	-2.8453654424	 0.3823450075	-0.225187
C	 1.04640448	-2.1688234482	-0.7885466407	 0.070885
O	-0.183479652	-2.4577217988	-0.0474891271	-0.284025
H	 0.7549134016	 2.0832867505	 0.1849006276	 0.112846
H	-0.5267695115	 1.8163172339	-0.9985604604	 0.114867
H	-0.9019774966	 1.805675071	 0.7254749982	 0.114867
H	-0.9103383621	-0.4841496945	-0.1935760381	 0.093328
H	 1.52250405	-0.1969243144	-1.7650049904	 0.054301
H	 3.0463518874	-0.746934605	 0.666708669	 0.090153
H	 2.3137312637	 0.8450277676	 0.5169996566	 0.095379
H	 0.6477412389	-0.2218393016	 2.2506307711	 0.054299
H	 0.2091884838	-2.6342132591	 2.0424724327	 0.076692
H	 2.8398985312	-2.6177805148	 0.6101290412	 0.097744
H	 1.6543185991	-3.9254112394	 0.3437490949	 0.106874
H	 1.0433349405	-2.6104526011	-1.7867059274	 0.076692
184.0284	233.0522	286.6769	317.0336	470.5121	498.5979	540.0448	552.0821	607.5074	762.717	763.0122	811.6599	839.6406	861.2165	870.5612	878.3485	895.0313	910.1697	916.2227	1014.0775	1019.6563	1052.0561	1060.9409	1073.4219	1078.6417	1087.4303	1098.675	1123.2554	1148.4119	1198.1678	1217.4948	1242.1805	1254.3101	1262.8258	1282.1415	1291.2032	1312.5999	1313.7205	1332.5688	1380.7005	1415.8598	1489.1867	1499.2267	1502.588	1556.2865	3029.3606	3073.0747	3075.988	3086.0691	3089.3694	3093.0705	3097.9946	3101.6885	3110.6342	3132.6951	3137.9815	3157.9083
CC1C2CC1C1CC2O1	C[C@H]1[C@H]2C[C@@H]1[C@@H]1C[C@H]2O1	
InChI=1S/C8H12O/c1-4-5-2-6(4)8-3-7(5)9-8/h4-8H,2-3H2,1H3	InChI=1S/C8H12O/c1-4-5-2-6(4)8-3-7(5)9-8/h4-8H,2-3H2,1H3/t4-,5+,6-,7+,8-
