15
gdb 43072	2.92147	2.04411	1.56922	3.1348	68.23	-0.2365	-0.0379	0.1985	845.6356	0.115249	-416.781274	-416.775066	-416.774122	-416.811875	24.718	
O	 0.0524138678	 0.0010937161	-0.0328024945	-0.282746
C	 0.0119399899	 1.1910498422	 0.0331296657	 0.408997
C	-1.1511026119	 2.2131551699	 0.0396888802	-0.172855
C	-1.4651613974	 2.8471824291	 1.4242493926	-0.196927
N	-0.2776808477	 3.7842236257	 1.2926770841	-0.133039
C	 0.8746870969	 3.2834806885	 1.9615434434	 0.025931
N	 1.6950373346	 2.5464660786	 1.3216097171	-0.194575
C	 1.0954698344	 2.3255059248	-0.0083021308	-0.138437
C	-0.0760067067	 3.3325540142	-0.129960789	-0.016679
H	-1.9839498986	 2.013854668	-0.6355048842	 0.104888
H	-2.4017212781	 3.4104044376	 1.4152608148	 0.130072
H	-1.4419737829	 2.1965681974	 2.3019840713	 0.131902
H	 1.015375435	 3.5416846783	 3.0078531231	 0.133394
H	 1.8449817953	 2.2483324199	-0.7967745431	 0.107404
H	-0.0905007407	 4.1148316696	-0.8862234707	 0.092671
121.8403	224.8878	289.9779	421.4088	502.0264	568.2488	657.0936	671.5517	778.0713	803.1499	861.3127	873.3148	889.1776	919.3871	955.0967	967.847	985.4243	1008.0785	1024.8812	1058.7969	1095.059	1144.2266	1182.5498	1193.9404	1222.6313	1248.4879	1254.4519	1258.8511	1307.0649	1329.1053	1506.5117	1655.3678	1894.1333	3057.7251	3110.0237	3112.769	3116.6915	3136.2021	3180.998
O=C1C2CN3C=NC1C23	O=C1[C@H]2CN3[CH][N][C@@H]1[C@@H]23	
InChI=1S/C6H6N2O/c9-6-3-1-8-2-7-4(6)5(3)8/h2-5H,1H2	InChI=1S/C6H6N2O/c9-6-3-1-8-2-7-4(6)5(3)8/h2-5H,1H2/t3-,4+,5+/m0/s1
