19
gdb 77311	3.02644	1.247	0.99537	2.6489	77.74	-0.2452	-0.018	0.2273	1220.3419	0.158129	-423.052697	-423.043502	-423.042558	-423.087104	33.677	
C	-0.4736150686	 1.511925438	 0.0134912704	-0.494916
C	-0.1257576714	 0.0564011571	-0.0022906857	 0.293271
C	-0.0493677765	-0.766929945	-1.0505896016	-0.165055
C	 0.3630784191	-2.1703571764	-0.6906569309	-0.282103
C	 0.3665997998	-2.1562344109	 0.8538306417	-0.140182
C	 1.5547581941	-2.8303704728	 1.5067797283	 0.157393
O	 2.5080362672	-3.2689472742	 0.9135592038	-0.250201
C	 0.2967666461	-0.6456678724	 1.2724864443	 0.023451
O	 1.5345364192	-0.1307975141	 1.7735148711	-0.425258
H	 0.3186548859	 2.0926579173	 0.4991277589	 0.137097
H	-0.6241115463	 1.903653497	-0.9958558991	 0.123742
H	-1.3903932065	 1.6928099102	 0.5892801586	 0.127549
H	-0.2506505905	-0.4713100298	-2.0758079251	 0.093989
H	-0.3284931816	-2.922223739	-1.0870404158	 0.11065
H	 1.3542797576	-2.4278200164	-1.0830085239	 0.133328
H	-0.53315046	-2.6496084239	 1.2421001305	 0.096877
H	 1.4965399616	-2.8902985228	 2.6150327677	 0.085358
H	-0.4039701472	-0.4906335175	 2.0992253299	 0.090598
H	 2.1595549281	-0.1140243044	 1.038534107	 0.28441
47.2449	88.541	170.7686	207.0174	228.658	255.5897	268.346	323.6869	395.0889	449.2523	574.6801	627.8482	667.7883	702.2513	808.954	836.7886	884.5946	933.8334	947.8292	995.2631	1019.4325	1038.3354	1051.9526	1068.607	1126.5088	1158.9243	1195.5757	1220.4835	1268.8582	1295.0322	1310.1037	1331.3307	1358.9011	1409.831	1426.3986	1431.9046	1477.3231	1491.2436	1494.0516	1723.6875	1824.3763	2899.3949	3022.6793	3029.9113	3037.2513	3059.7225	3067.5955	3075.4556	3115.8622	3179.7699	3786.208
CC1=CCC(C=O)C1O	CC1=CC[C@@H](C=O)[C@H]1O	
InChI=1S/C7H10O2/c1-5-2-3-6(4-8)7(5)9/h2,4,6-7,9H,3H2,1H3	InChI=1S/C7H10O2/c1-5-2-3-6(4-8)7(5)9/h2,4,6-7,9H,3H2,1H3/t6-,7-/m0/s1
