17
gdb 13537	2.96114	1.5612	1.17797	5.2644	68.7	-0.2721	0.0441	0.3161	1040.8687	0.1412	-363.860652	-363.852045	-363.851101	-363.893948	31.253	
C	-0.2865528883	 1.3359540297	 0.0705849357	-0.39268
C	 0.1181157839	-0.1394308944	-0.1180216475	-0.150072
C	 0.9198814871	-0.2949347724	-1.3396827855	 0.273229
N	 1.5607427754	-0.3934770641	-2.2964222211	-0.328719
C	 0.882410844	-0.6875118829	 1.0814378638	-0.004857
C	 0.1250549807	-1.0735270333	 2.3371476447	-0.347762
C	 0.7547557078	-2.1324512063	 1.4646548469	 0.098377
O	-0.0672234474	-2.9159250246	 0.6506735373	-0.414258
H	 0.5962246266	 1.9682422741	 0.2011303194	 0.134251
H	-0.8440977291	 1.7029200975	-0.7947011363	 0.135435
H	-0.9142604698	 1.4325842941	 0.9602235136	 0.125477
H	-0.7815054158	-0.7491604931	-0.2518549896	 0.13737
H	 1.8615133612	-0.2397070845	 1.2229719543	 0.10613
H	 0.5616572841	-0.8468663347	 3.3034473907	 0.119184
H	-0.9578835772	-1.0055443306	 2.2992442828	 0.117959
H	 1.6502665397	-2.6333554884	 1.8301683922	 0.09739
H	-0.5137644028	-3.5621079961	 1.2072705385	 0.293546
55.6965	126.5675	186.5697	216.8997	233.246	286.1583	307.1627	355.4832	451.8404	509.45	549.8268	624.5546	770.0844	818.127	840.6276	885.9056	967.4443	998.5795	1026.4077	1059.4546	1089.3272	1111.5222	1135.9379	1174.253	1189.1399	1235.5765	1274.1328	1298.8378	1331.0226	1397.0454	1410.5181	1429.5995	1488.8672	1492.4972	1499.9579	2356.9196	3048.0337	3065.7593	3109.1155	3124.6478	3129.2067	3129.7811	3156.0887	3219.3555	3812.443
CC(C#N)C1CC1O	C[C@@H](C#N)[C@H]1C[C@H]1O	
InChI=1S/C6H9NO/c1-4(3-7)5-2-6(5)8/h4-6,8H,2H2,1H3	InChI=1S/C6H9NO/c1-4(3-7)5-2-6(5)8/h4-6,8H,2H2,1H3/t4-,5+,6+/m0/s1
