20
gdb 81298	2.59217	1.57024	1.28209	3.2202	78.6	-0.2113	-0.0085	0.2028	1075.1282	0.172286	-403.146319	-403.138274	-403.13733	-403.178778	31.556	
C	-0.3092066907	 1.3022735409	 0.029211674	-0.327075
N	 0.0407459704	-0.1080978597	-0.0599624639	-0.11299
C	 0.9441889789	-0.4584627547	-1.215860741	 0.019997
C	 2.1889311448	-0.2522537331	-0.3179490491	-0.24338
C	 1.1820842408	-0.5076836875	 0.8380811146	-0.097849
C	 1.1024128732	-2.0153445827	 1.0325673591	 0.423497
O	 1.4443474308	-2.576810729	 2.0441895854	-0.329063
C	 0.5641699046	-2.7455763243	-0.2016155941	-0.301003
C	 0.7312267101	-1.9447786766	-1.5221100823	-0.222813
H	 0.5427081632	 2.0015163561	-0.0474109034	 0.093612
H	-1.0151908333	 1.5451233462	-0.7717051943	 0.121772
H	-0.8110800975	 1.4889664129	 0.9840657397	 0.12521
H	 0.8330781182	 0.1726675442	-2.101992353	 0.069674
H	 3.0355345265	-0.9358001912	-0.4338127895	 0.107485
H	 2.5548415933	 0.7757183637	-0.3189273616	 0.114088
H	 1.2826639414	 0.0244982751	 1.7854794172	 0.083241
H	 1.0115007136	-3.7410967674	-0.2447688567	 0.121135
H	-0.5037002922	-2.8877479752	-0.0009880332	 0.14478
H	-0.1587631337	-2.0703359362	-2.1459578706	 0.106221
H	 1.5841303877	-2.3200902814	-2.0987009274	 0.10346
82.2268	167.3605	215.5072	230.3726	288.0254	363.9049	414.7666	454.78	487.1589	552.9141	619.4979	727.7628	779.7056	799.5961	840.0041	891.1699	913.8306	942.9158	963.2698	1014.6101	1025.3326	1074.6422	1094.8467	1132.7257	1141.148	1173.533	1194.6189	1212.226	1227.7284	1247.835	1252.1771	1290.383	1310.9924	1325.4083	1346.3311	1365.2718	1447.0134	1451.5431	1482.5873	1493.1309	1502.1181	1505.3702	1829.7323	2943.9161	3040.7778	3052.8168	3056.4387	3059.8729	3070.9372	3085.0986	3100.2409	3104.9081	3112.9621	3120.7605
CN1C2CC1C(=O)CC2	CN1[C@H]2C[C@@H]1C(=O)CC2	
InChI=1S/C7H11NO/c1-8-5-2-3-7(9)6(8)4-5/h5-6H,2-4H2,1H3	InChI=1S/C7H11NO/c1-8-5-2-3-7(9)6(8)4-5/h5-6H,2-4H2,1H3/t5-,6-/m1/s1
