19
gdb 65933	2.11729	1.61748	1.33574	3.9219	79.48	-0.2543	0.0205	0.2748	1076.0497	0.15939	-382.052562	-382.043776	-382.042832	-382.085913	33.303	
C	-0.1159265505	 1.5706854313	 0.069933616	-0.442886
C	-0.0181688473	 0.0391485428	 0.0283257294	 0.07338
C	 1.1410916656	-0.4879776089	-0.8936619869	-0.264561
C	 2.0084007473	-0.7766494288	 0.3654381141	-0.29379
C	 0.7623173782	-0.5753203619	 1.2313109846	 0.323172
C	 0.5744347774	-0.2837230995	 2.666981038	-0.306221
N	 0.2610804919	-1.6163193022	 2.1131091404	-0.35828
C	-1.3274600627	-0.5611947946	-0.1918599001	 0.251976
N	-2.3642767332	-1.0594184911	-0.3173167493	-0.353814
H	 0.8716089663	 1.9997882667	 0.2613471252	 0.12812
H	-0.484093734	 1.9613037581	-0.8832729779	 0.136427
H	-0.7938105527	 1.903133111	 0.8607303204	 0.135405
H	 0.8618138074	-1.3940367319	-1.4325605079	 0.13112
H	 1.5215114381	 0.2481367358	-1.6040676933	 0.113571
H	 2.4502530346	-1.7718613235	 0.4302338299	 0.126224
H	 2.7865705427	-0.0283254569	 0.5378254284	 0.111188
H	 1.4317529748	-0.2538685187	 3.3346929721	 0.123947
H	-0.2461693522	 0.3702292014	 2.9537562902	 0.117974
H	-0.7449613718	-1.7349978491	 2.0017265766	 0.247046
68.5881	126.5848	184.4734	214.9332	250.8768	299.873	312.2038	378.563	434.8221	508.2961	567.4821	598.4261	630.8203	751.0928	845.4084	882.2853	887.4223	924.2729	939.2021	949.8969	968.1188	993.9636	1064.7695	1106.3005	1133.0747	1145.3281	1175.2037	1209.2689	1244.7013	1246.8069	1254.8336	1276.122	1300.9529	1404.6726	1412.5246	1474.2476	1486.2941	1493.0324	1496.9077	1513.4755	2342.9217	3042.8868	3067.4503	3080.9926	3100.5565	3118.0945	3122.2342	3125.7724	3144.0793	3184.6025	3478.2827
CC1(CCC11CN1)C#N	C[C@]1(CC[C@]21CN2)C#N	
InChI=1S/C7H10N2/c1-6(4-8)2-3-7(6)5-9-7/h9H,2-3,5H2,1H3	InChI=1S/C7H10N2/c1-6(4-8)2-3-7(6)5-9-7/h9H,2-3,5H2,1H3/t6-,7+/m0/s1
