20
gdb 6561	3.83606	1.29954	1.28122	2.8969	71.1	-0.2514	0.0746	0.326	1076.3579	0.17481	-386.126295	-386.117241	-386.116297	-386.159558	34.228	
C	-0.3003292973	 1.3943660076	 0.1792267468	-0.413113
C	 0.1061469098	-0.0749071781	-0.028672942	 0.365234
C	 0.8204228739	-0.6110479693	 1.214083163	-0.394138
O	-1.0590847639	-0.8837950435	-0.1813722097	-0.475753
C	 1.0169779707	-0.2541172247	-1.2712526953	-0.262585
C	 0.4525187295	 0.3518352024	-2.5379099797	 0.076486
C	 0.22388769	-0.4341294583	-3.7572683427	-0.178803
O	-0.8758044367	-0.0703203625	-2.9168907172	-0.245389
H	 0.5739607799	 2.046112882	 0.2890838453	 0.10191
H	-0.8989640197	 1.7599129882	-0.6604750854	 0.119763
H	-0.9096219303	 1.4805755394	 1.0830744725	 0.12082
H	 0.1384434695	-0.587623261	 2.068774586	 0.122128
H	 1.1328617918	-1.6479208291	 1.0593908028	 0.114614
H	 1.7026740421	-0.0103178441	 1.4557181348	 0.10452
H	-1.3891858559	-0.7435023677	-1.0788481139	 0.289903
H	 1.999707518	 0.19571192	-1.0849938255	 0.100423
H	 1.1687671758	-1.3299676633	-1.408720328	 0.105907
H	 0.5984677378	 1.4247858187	-2.6604877096	 0.104139
H	 0.2345752957	 0.0523429517	-4.7310065772	 0.121057
H	 0.4761494993	-1.4932701285	-3.762407575	 0.122874
71.1434	117.7648	197.0404	213.4051	255.9338	296.0862	329.4464	366.9966	399.3754	432.1284	459.6792	493.1391	568.0955	759.9469	783.843	866.1698	888.0133	920.4352	927.7351	964.0641	990.1367	1007.3856	1067.4891	1098.1074	1157.84	1164.8304	1174.3378	1202.0214	1238.3918	1293.2339	1298.0374	1321.3688	1390.835	1410.2306	1431.0564	1437.5106	1466.3925	1478.1143	1488.0079	1499.9229	1509.3562	1525.8089	3030.3685	3033.3437	3041.7031	3078.9288	3089.0561	3101.8431	3113.3159	3114.9397	3117.9843	3119.8586	3178.7032	3751.8095
CC(C)(O)CC1CO1	CC(C)(O)C[C@H]1CO1	
InChI=1S/C6H12O2/c1-6(2,7)3-5-4-8-5/h5,7H,3-4H2,1-2H3	InChI=1S/C6H12O2/c1-6(2,7)3-5-4-8-5/h5,7H,3-4H2,1-2H3/t5-/m0/s1
