20
gdb 106146	2.48165	1.54178	1.23171	1.9478	78.93	-0.2154	0.0729	0.2883	1114.271	0.170893	-403.072913	-403.064402	-403.063458	-403.105906	33.08	
C	 0.0872281339	 1.4534507324	 0.2675078072	-0.381814
C	-0.0226586384	-0.0256998408	-0.1259165398	-0.330266
C	-1.4130553698	-0.5537792777	-0.0442475872	 0.351481
C	-2.397379235	-0.8722687373	 1.0605174514	-0.208116
C	-3.3992352905	 0.0626972119	 0.4204847748	-0.180841
N	-2.6285803687	-0.0607523177	-0.8843824595	-0.205393
C	-2.8811870155	-1.5112457872	-1.2567570597	-0.239231
C	-2.0483110935	-1.9054544129	-0.0501872452	 0.299826
O	-1.412157249	-3.0966219178	 0.2283345325	-0.466405
H	 1.1160653023	 1.8110842544	 0.1643153435	 0.110609
H	-0.5529513494	 2.0684817174	-0.3719516947	 0.134921
H	-0.2231986927	 1.6083550774	 1.3059458067	 0.114962
H	 0.352357733	-0.1640183588	-1.1485242576	 0.109544
H	 0.6130624915	-0.6428626965	 0.5209902099	 0.113621
H	-2.1856528183	-1.0958695183	 2.1000030355	 0.086528
H	-4.4522421816	-0.2350847278	 0.35115516	 0.09241
H	-3.3358214468	 1.0915246172	 0.7856593786	 0.10864
H	-3.94013318	-1.7888606197	-1.3200989922	 0.090261
H	-2.3806946878	-1.7392968621	-2.2016514721	 0.111234
H	-2.0190263037	-3.6636886358	 0.717041188	 0.288031
82.4596	120.4773	189.1647	239.4346	287.9352	304.7946	364.285	380.0119	470.0956	566.665	602.4267	648.0115	697.2485	770.6858	815.461	860.5631	881.9485	922.7397	940.2785	945.7012	985.2068	1002.9971	1065.0357	1078.7648	1110.2403	1141.9771	1145.3154	1166.8644	1186.3975	1231.9904	1243.6067	1280.7412	1289.4925	1311.0891	1344.3014	1374.1863	1407.3784	1471.0908	1489.7767	1497.5921	1503.2351	1514.9457	1528.9993	3019.8416	3024.572	3034.3558	3037.6406	3057.5335	3089.0049	3098.6453	3107.2221	3114.8519	3177.5888	3790.6469
CCC12C3CN1CC23O	CC[C@@]12[C@H]3CN1C[C@@]23O	
InChI=1S/C7H11NO/c1-2-6-5-3-8(6)4-7(5,6)9/h5,9H,2-4H2,1H3	InChI=1S/C7H11NO/c1-2-6-5-3-8(6)4-7(5,6)9/h5,9H,2-4H2,1H3/t5-,6+,7+/m1/s1
