23
gdb 101007	2.29802	1.29669	1.02464	2.982	81.74	-0.2354	0.0702	0.3056	1302.2756	0.203396	-425.397714	-425.387227	-425.386283	-425.433494	38.021	
C	-0.0123747811	 1.4096139253	-0.0452452017	-0.236392
O	-0.1242098911	 0.0098124823	-0.1459020282	-0.246147
C	 0.6855726435	-0.5936898597	-1.1491779907	 0.064738
C	 2.1398389064	-0.7121086843	-0.6782527913	-0.410934
C	 0.0469093092	-1.9467817212	-1.4911876485	 0.285169
C	 0.8030460563	-2.6845746536	-2.595420586	-0.475114
C	-0.3286025496	-2.8498795539	-0.2854061563	-0.106637
O	-1.711290289	-2.8906603101	-0.6883886007	-0.276918
C	-1.4865010176	-1.9177190527	-1.7274822627	-0.113838
H	 0.9828174897	 1.7345761289	 0.2915408968	 0.107197
H	-0.2284081412	 1.9043856096	-1.0052296751	 0.103929
H	-0.7491909572	 1.7370366931	 0.6924516545	 0.130798
H	 0.6525511878	 0.0347641105	-2.0572163969	 0.062307
H	 2.7897570599	-1.0783702021	-1.4770595721	 0.121812
H	 2.527387364	 0.2604186903	-0.3631896891	 0.118679
H	 2.2131690883	-1.3964857963	 0.1731211896	 0.126222
H	 1.8106723291	-2.9733345827	-2.2811685968	 0.119305
H	 0.2690605303	-3.5995761634	-2.8693852585	 0.127552
H	 0.8941285897	-2.0677489525	-3.497489946	 0.113189
H	 0.1264911616	-3.8484115519	-0.2725574878	 0.089091
H	-0.2042772334	-2.3762741826	 0.6950344548	 0.106936
H	-1.9643336533	-0.9595885462	-1.497637594	 0.101758
H	-1.8261558124	-2.2759382069	-2.7077106932	 0.087298
64.3963	77.0035	82.2066	178.7793	202.0435	204.2641	245.5391	280.6413	335.8001	353.9128	370.9846	399.8086	470.4034	521.834	685.1397	840.4437	856.1433	912.201	918.3956	954.2035	959.728	1006.5041	1025.2381	1041.2524	1080.2342	1115.6994	1148.1115	1165.1753	1169.8892	1183.131	1194.1376	1213.0297	1256.4804	1283.0542	1315.7946	1360.9451	1374.7164	1386.4159	1403.783	1416.5994	1477.4109	1484.2201	1491.0502	1493.9575	1495.6059	1503.0931	1510.7096	1513.8809	1529.7056	2939.9134	2976.8894	3007.7899	3016.8825	3025.4879	3028.5293	3045.3243	3063.8133	3070.9893	3094.4442	3105.9268	3112.2983	3115.0125	3123.5078
COC(C)C1(C)COC1	CO[C@@H](C)C1(C)COC1	
InChI=1S/C7H14O2/c1-6(8-3)7(2)4-9-5-7/h6H,4-5H2,1-3H3	InChI=1S/C7H14O2/c1-6(8-3)7(2)4-9-5-7/h6H,4-5H2,1-3H3/t6-/m0/s1
