16
gdb 68649	2.5572	2.00805	1.55255	3.5675	67.74	-0.2415	-0.0182	0.2233	886.1327	0.126533	-437.915248	-437.908438	-437.907493	-437.945956	28.452	
O	 0.0598323834	 1.3884954991	 0.0483484858	-0.504674
C	-0.0039955152	 0.0070059635	 0.0585458279	 0.295007
C	-1.3783491257	-0.7243790408	 0.0064528454	-0.254126
C	-0.6830502116	-2.1082359589	-0.0342043893	-0.071523
N	 0.1505549086	-1.9008087943	-1.2527097517	-0.311089
C	 0.6583528095	-0.6314894587	-1.1893425719	 0.377469
O	 1.4443574794	-0.0619670291	-1.9162315	-0.403487
C	 0.214658579	-1.9980939568	 1.2107248004	-0.09018
C	 0.6335172652	-0.7328283969	 1.2482389224	-0.131284
H	 0.6564304233	 1.6146118429	-0.6833916809	 0.292589
H	-1.9706214312	-0.5616909061	 0.9072544678	 0.116946
H	-1.9597163124	-0.5114742182	-0.894144709	 0.113452
H	-1.3107950437	-2.9915737501	-0.1294987935	 0.086413
H	 0.6673670114	-2.6472365676	-1.6915653299	 0.256202
H	 0.4893002012	-2.8213794182	 1.8562661927	 0.109887
H	 1.3343491088	-0.2567813596	 1.9205288137	 0.118397
163.7768	272.2925	355.2133	393.5522	443.4148	453.4937	482.94	496.8478	581.9931	646.2475	679.2902	702.9835	752.4855	772.2986	835.9866	906.6921	912.34	921.8709	941.1865	973.6221	1050.6523	1071.9815	1079.1016	1144.0244	1170.063	1220.9135	1261.8867	1277.4411	1314.3579	1355.3715	1388.1058	1416.1012	1493.0328	1637.3765	1834.9587	3074.127	3142.2728	3146.0352	3213.5641	3240.3557	3631.5054	3689.7865
OC12CC(NC1=O)C=C2	O[C@@]12C[C@@H](NC1=O)C=C2	
InChI=1S/C6H7NO2/c8-5-6(9)2-1-4(3-6)7-5/h1-2,4,9H,3H2,(H,7,8)	InChI=1S/C6H7NO2/c8-5-6(9)2-1-4(3-6)7-5/h1-2,4,9H,3H2,(H,7,8)/t4-,6-/m0/s1
