24
gdb 6419	3.01121	1.08959	0.98188	1.0119	82.46	-0.248	0.0798	0.3279	1378.8761	0.220478	-351.41154	-351.400683	-351.399739	-351.447931	38.804	
C	-0.1021193068	 1.5338342684	-0.1137210266	-0.23296
O	-0.0563949029	 0.1493243829	 0.1313468341	-0.24147
C	-1.3064025721	-0.5252983558	 0.0170151867	 0.130705
C	-1.7159221647	-0.7156318885	-1.4469860343	-0.4019
C	-1.147187672	-1.8667553133	 0.7369020331	-0.179219
C	-0.8070653696	-1.773666474	 2.2355345606	 0.04586
C	-1.9677215764	-1.2079136365	 3.0660507087	-0.38629
C	-0.3826797789	-3.1470231819	 2.7728084353	-0.392185
H	 0.8893021645	 1.9343069793	 0.1144149496	 0.124582
H	-0.3388085438	 1.774988089	-1.1605550437	 0.10456
H	-0.8418842941	 2.0378250509	 0.5287728803	 0.100492
H	-2.0800573853	 0.0775816477	 0.5220679482	 0.061943
H	-0.9641775817	-1.3088057357	-1.9777128413	 0.121274
H	-2.6764879612	-1.2367367804	-1.5107009518	 0.1137
H	-1.8251301778	 0.2413460542	-1.9652715672	 0.112993
H	-2.0702997324	-2.4468626362	 0.6034751931	 0.08525
H	-0.3517442062	-2.421365343	 0.22241763	 0.095561
H	 0.0459341033	-1.0911559629	 2.328375495	 0.088978
H	-2.8544572621	-1.8496869682	 2.9897707266	 0.106493
H	-1.6955780504	-1.1466061457	 4.1251017103	 0.108788
H	-2.255907895	-0.2026438174	 2.7442693791	 0.1102
H	 0.4774363555	-3.5424378793	 2.2221863801	 0.109436
H	-0.1067400531	-3.0902889295	 3.8311840122	 0.106469
H	-1.1979873168	-3.8758860239	 2.6833263622	 0.106737
30.4919	72.7252	105.2173	157.8522	202.1037	225.9055	240.8353	242.6183	285.6832	324.2783	344.2343	412.3022	420.0493	484.8185	538.5421	801.7137	817.4358	883.8115	914.8048	929.1694	965.1557	980.0572	1015.9982	1064.2547	1118.9433	1150.5943	1158.549	1179.2809	1185.5126	1194.5023	1224.136	1282.6334	1304.9959	1354.0326	1373.2847	1385.08	1397.0922	1400.1994	1404.8636	1420.9523	1467.3155	1478.0794	1482.6769	1487.5399	1492.5228	1496.6131	1503.8839	1506.2403	1510.5285	1513.3749	2956.8211	2973.2577	3013.2312	3019.2848	3020.1388	3024.7221	3038.4818	3039.1892	3057.9351	3082.673	3092.3039	3096.7473	3102.7228	3105.4055	3109.3551	3112.7236
COC(C)CC(C)C	CO[C@@H](C)CC(C)C	
InChI=1S/C7H16O/c1-6(2)5-7(3)8-4/h6-7H,5H2,1-4H3	InChI=1S/C7H16O/c1-6(2)5-7(3)8-4/h6-7H,5H2,1-4H3/t7-/m0/s1
