20
gdb 51785	4.082	0.96702	0.86241	3.5818	81.64	-0.2513	0.0298	0.2812	1380.0817	0.1726	-403.148245	-403.139891	-403.138946	-403.182421	31.551	
N	-0.0354683002	 1.2981844938	 0.0832344437	-0.447268
C	-0.0157809827	 0.0422224328	-0.0498630261	 0.12288
O	-1.1526972473	-0.6681425851	 0.0382861193	-0.18987
C	-1.0498430535	-2.0980618209	 0.0236045557	 0.129805
C	-1.0717863774	-2.687846764	 1.4520298742	-0.259774
C	-1.7217123265	-4.0794626859	 1.3052063769	-0.220299
C	-2.6459903256	-3.9485167292	 0.0984669854	-0.029218
C	-3.546897065	-2.7434972955	 0.0386634471	-0.283088
C	-2.2262925889	-2.7261623045	-0.6918924025	-0.050553
H	 0.9035361376	 1.6717761513	-0.0379087974	 0.225486
H	 0.8717554142	-0.5752525941	-0.2539840057	 0.079029
H	-0.1219159215	-2.3752449266	-0.4959252203	 0.079145
H	-0.0758798184	-2.7250946316	 1.9005884227	 0.100889
H	-1.6798398782	-2.0299720435	 2.0792085306	 0.127764
H	-0.9594858972	-4.8392134204	 1.0960939749	 0.102085
H	-2.2431196878	-4.3911456137	 2.2165975344	 0.104315
H	-2.9631256249	-4.852549199	-0.4091513146	 0.084694
H	-4.4356551743	-2.8210569655	-0.5772514935	 0.114618
H	-3.6752402503	-2.1202726044	 0.9169293943	 0.122672
H	-2.2289748221	-2.7149434237	-1.7755267091	 0.086686
31.6709	99.0078	110.4226	243.2172	284.6402	354.4842	398.7952	413.068	595.5323	632.8701	689.9998	782.3841	816.2463	828.9715	839.772	884.7377	930.4619	955.8317	982.8521	999.8714	1010.8881	1042.72	1059.7278	1068.2438	1096.9134	1111.549	1127.9614	1141.5147	1199.774	1209.3162	1227.999	1295.4218	1304.3907	1328.7248	1331.9963	1354.2409	1389.9414	1399.6083	1428.8341	1487.1757	1496.5842	1516.5627	1742.5936	2996.5525	3009.1538	3034.7076	3065.195	3073.6843	3110.586	3139.1871	3168.6081	3179.2742	3221.5449	3516.5167
N=COC1CCC2CC12	[NH][CH]O[C@H]1CC[C@H]2C[C@@H]12	
InChI=1S/C7H11NO/c8-4-9-7-2-1-5-3-6(5)7/h4-8H,1-3H2	InChI=1S/C7H11NO/c8-4-9-7-2-1-5-3-6(5)7/h4-8H,1-3H2/t5-,6+,7-/m0/s1
