20
gdb 59683	2.10465	1.45286	0.98698	2.8905	79.22	-0.2667	0.0171	0.2838	1254.4633	0.169915	-403.152458	-403.142801	-403.141856	-403.187492	34.751	
C	-0.1283272977	 1.5119282906	-0.1284466359	-0.400791
C	 0.0122883043	-0.0074304383	 0.0393799247	 0.007892
C	 0.8563410814	-0.3686263382	 1.2694000052	-0.405429
C	-1.3688838612	-0.6398992055	 0.1339689356	 0.153868
O	-2.2183667804	-0.3343758917	-0.9958772609	-0.283275
C	-2.5095603619	-1.7160745764	-1.2437993745	-0.075156
C	-1.5498045068	-2.1779888802	-0.1132565763	-0.246281
C	-0.3857174577	-2.9342787073	-0.5392874998	 0.296216
N	 0.5349963361	-3.5405360803	-0.8889653667	-0.337196
H	 0.8541658726	 1.9753320229	-0.2594204969	 0.115758
H	-0.7438744979	 1.7532646182	-0.9982808338	 0.138081
H	-0.595300745	 1.9634920808	 0.7550477424	 0.111622
H	 0.5016354921	-0.4114255765	-0.8560398498	 0.095397
H	 0.3896502117	 0.0048566748	 2.1887744795	 0.112807
H	 0.9948531016	-1.449146136	 1.3696987965	 0.131288
H	 1.8493569507	 0.0841632322	 1.1952609026	 0.124295
H	-1.8554489887	-0.3326397586	 1.071465592	 0.083328
H	-3.5618200521	-1.9622029068	-1.059249733	 0.115075
H	-2.232726787	-2.0272637688	-2.2558287628	 0.129528
H	-2.038741514	-2.7053582649	 0.7075684018	 0.132973
48.8521	93.7158	115.9748	200.4379	213.5772	217.7935	240.4764	312.2912	351.3112	412.6169	459.0797	528.622	601.7626	761.5966	807.8673	868.2919	899.3846	933.4099	955.4256	981.1695	1002.8627	1033.917	1068.0599	1106.8554	1128.351	1167.6128	1171.5993	1195.5798	1218.0005	1277.0322	1314.0838	1341.0344	1348.4859	1358.9505	1398.8222	1406.3558	1425.2874	1488.0915	1491.4726	1504.4728	1513.5203	1525.8318	2352.981	2992.9157	3028.3261	3028.9171	3029.7984	3037.5456	3082.7005	3096.7449	3101.5994	3102.4069	3113.8989	3126.1336
CC(C)C1OCC1C#N	CC(C)[C@H]1OC[C@H]1C#N	
InChI=1S/C7H11NO/c1-5(2)7-6(3-8)4-9-7/h5-7H,4H2,1-2H3	InChI=1S/C7H11NO/c1-5(2)7-6(3-8)4-9-7/h5-7H,4H2,1-2H3/t6-,7-/m1/s1
