19
gdb 22104	2.94231	0.87465	0.77011	3.6853	77.12	-0.2434	-0.0027	0.2406	1510.8034	0.156442	-456.326838	-456.316176	-456.315232	-456.36463	36.538	
C	 0.8165159647	 1.0594987941	 0.6514092151	-0.348698
N	 0.0584593045	-0.0288127837	 0.0564401178	-0.037493
C	-0.2369240451	-1.2270843909	 0.8369424004	-0.273338
C	-1.5885724561	-1.2032714054	 1.5224361723	 0.372813
C	-1.894415415	-0.1396370719	 2.5386098471	-0.488082
N	-2.3828295132	-2.133334269	 1.1490777544	-0.155431
O	-3.6239900812	-2.0833518542	 1.791329597	-0.393086
C	-0.3409985734	 0.0556874987	-1.2474402817	 0.155339
O	-0.1489156771	 1.0009574718	-1.9830344334	-0.341519
H	 1.770634624	 0.6917409438	 1.0471720673	 0.124877
H	 1.0053732761	 1.7937462016	-0.1320586718	 0.171049
H	 0.2668377002	 1.5427164448	 1.4666894108	 0.125098
H	-0.2099604109	-2.1046929114	 0.1859048201	 0.138127
H	 0.5588428613	-1.3422200571	 1.5831702974	 0.117031
H	-2.0831440632	 0.819402244	 2.0423314048	 0.152327
H	-2.77674418	-0.3996423349	 3.1220397971	 0.158786
H	-1.0432820549	 0.0047334293	 3.2119454817	 0.127782
H	-4.0745789811	-2.8497607398	 1.4210407482	 0.309756
H	-0.8714467298	-0.8605550397	-1.5702655445	 0.084663
16.5454	50.2447	88.1157	121.9389	143.0988	224.7358	285.3782	300.9575	330.7889	332.7762	375.145	412.1968	428.7959	525.0483	644.6156	708.5614	812.5077	876.9689	932.5112	990.6581	1030.7691	1039.2487	1065.8233	1090.5234	1157.3131	1217.976	1264.5432	1281.7238	1366.3745	1398.4263	1404.328	1424.3913	1438.2337	1443.3887	1472.6802	1479.7557	1488.8396	1501.2595	1520.2795	1731.1884	1795.3471	2952.4967	3023.8816	3032.5929	3039.6593	3076.869	3093.0354	3101.7785	3155.3641	3160.3632	3820.0249
CN(CC(C)=NO)C=O	CN(CC(=NO)C)C=O	
InChI=1S/C5H10N2O2/c1-5(6-9)3-7(2)4-8/h4,9H,3H2,1-2H3	InChI=1S/C5H10N2O2/c1-5(6-9)3-7(2)4-8/h4,9H,3H2,1-2H3
