22
gdb 110632	2.36294	1.39936	1.07309	1.7531	86.43	-0.2007	0.0765	0.2772	1253.3905	0.193354	-367.125476	-367.116347	-367.115403	-367.159579	35.44	
C	-0.0452336608	 1.5186446855	 0.4239208454	-0.400745
C	 0.0671496842	 0.1573394895	-0.2749628863	-0.166642
C	-1.2738500566	-0.5829836988	-0.2762185957	-0.059632
C	-1.9079803467	-1.4771277999	-1.3251498235	-0.144535
C	-0.9800751048	-2.5751291216	-1.9058985227	-0.050716
N	 0.389681302	-2.4105697594	-1.3541681075	-0.3356
C	-0.6739438809	-3.074016463	-0.5540591427	-0.119466
C	-1.6186382599	-2.0080283013	 0.087218997	 0.322356
C	-2.5754356351	-2.400547219	 1.1764029024	-0.492296
H	 0.9161257283	 2.0424335749	 0.426272674	 0.105671
H	-0.7749736077	 2.1663731299	-0.0759905063	 0.108857
H	-0.3645808623	 1.4065291155	 1.4666465895	 0.109015
H	 0.4162156807	 0.2962360813	-1.3018631109	 0.103834
H	 0.8311434451	-0.4492558706	 0.2146641751	 0.108709
H	-2.0665268084	 0.0560889386	 0.1199714382	 0.078744
H	-2.8719422881	-1.2482451023	-1.7649570568	 0.079914
H	-1.1516262194	-3.1144276633	-2.8283190244	 0.090891
H	 0.9587148149	-3.1572477124	-1.7547937493	 0.224967
H	-0.5535740364	-4.0861659765	-0.1882984069	 0.087671
H	-2.0596170721	-2.5298649326	 2.1366944026	 0.117886
H	-3.3469966371	-1.6364939798	 1.3154868293	 0.117937
H	-3.0812085989	-3.3463974545	 0.9454338493	 0.11318
34.3581	167.2023	187.8165	211.8286	222.3316	265.0005	290.5017	344.8223	407.437	494.1292	567.5933	667.5893	721.3788	755.3255	780.8699	826.34	828.3956	871.1464	895.5991	915.5843	927.1938	942.3324	992.6323	1005.2902	1050.0378	1077.3687	1093.0522	1115.1772	1121.5231	1134.1854	1164.04	1215.682	1234.1509	1283.8205	1290.7202	1312.7149	1326.7783	1351.5792	1380.0064	1407.7494	1414.5195	1469.3276	1476.9513	1483.981	1499.136	1499.7708	1505.7935	3011.5135	3022.6391	3064.5755	3065.7226	3076.3452	3079.5432	3094.6531	3098.5474	3114.3935	3171.9922	3185.0187	3200.5831	3456.5159
CCC1C2C3NC3C12C	CC[C@H]1[C@H]2[C@H]3N[C@H]3[C@@]12C	
InChI=1S/C8H13N/c1-3-4-5-6-7(9-6)8(4,5)2/h4-7,9H,3H2,1-2H3	InChI=1S/C8H13N/c1-3-4-5-6-7(9-6)8(4,5)2/h4-7,9H,3H2,1-2H3/t4-,5-,6+,7+,8-/m0/s1
