21
gdb 82548	2.95028	1.42137	1.30392	2.159	81.5	-0.2161	0.0712	0.2873	1088.3853	0.184406	-383.225468	-383.217251	-383.216306	-383.25803	32.513	
C	 0.2940326917	 1.780622981	-0.1983679792	-0.443085
C	 0.0751247585	 0.2865377317	-0.1069324941	 0.016571
C	 0.4618572783	-0.7212806006	-1.1332675459	-0.044299
C	 1.4499347353	-0.369783976	-2.2355007557	-0.318805
C	 2.690020894	 0.1422929291	-1.4954502432	 0.312736
C	 4.0162296078	 0.2513384111	-2.1444458462	-0.301058
N	 3.2666000227	 1.4704189324	-1.7796443058	-0.339167
C	 2.5167657041	-0.2556293035	-0.0225350569	-0.223547
N	 1.1295986199	-0.7046617611	 0.1919792103	-0.123472
H	 1.2042165135	 2.0663639937	-0.7260111755	 0.152071
H	-0.5587214676	 2.2472536721	-0.7043803384	 0.116689
H	 0.3488815242	 2.2122002958	 0.8074726197	 0.124957
H	-0.8331564504	 0.0431252746	 0.4445119133	 0.087597
H	-0.2043062656	-1.5601091042	-1.3211108139	 0.083998
H	 1.6814322258	-1.2714157348	-2.8134830195	 0.113122
H	 1.060515412	 0.3730146198	-2.9415381755	 0.103878
H	 4.9214730894	 0.0813521872	-1.5663008975	 0.118571
H	 4.0990687303	-0.0132685146	-3.1962089236	 0.109876
H	 2.8379774273	 1.8632087324	-2.6153519315	 0.22591
H	 3.1683961296	-1.1015270575	 0.2245231769	 0.106991
H	 2.7803325192	 0.5735207916	 0.6408785322	 0.120463
89.5819	149.4694	175.3904	245.466	285.5522	372.0535	400.0354	419.2243	462.2489	571.3159	695.7285	731.4413	745.3893	794.6806	831.7379	875.0378	902.6416	931.8221	950.9932	982.9389	1003.0159	1022.8163	1035.847	1061.1662	1107.7238	1113.1614	1134.747	1152.3232	1175.6663	1197.6727	1236.0036	1265.6237	1291.2533	1295.2874	1312.0911	1322.5159	1378.3153	1397.9011	1420.332	1436.5251	1481.4043	1494.7068	1500.3872	1506.589	1513.3911	3029.6858	3034.4327	3036.8042	3065.6895	3085.7319	3088.3803	3096.2647	3096.8445	3129.5198	3150.7616	3179.9872	3481.5422
CC1C2CC3(CN3)CN12	C[C@H]1[C@H]2C[C@]3(CN3)CN12	
InChI=1S/C7H12N2/c1-5-6-2-7(3-8-7)4-9(5)6/h5-6,8H,2-4H2,1H3	InChI=1S/C7H12N2/c1-5-6-2-7(3-8-7)4-9(5)6/h5-6,8H,2-4H2,1H3/t5-,6+,7-,9?/m0/s1
