16
gdb 93997	2.91611	1.2801	0.92422	9.2344	72.12	-0.2148	-0.0201	0.1947	1199.4258	0.12524	-475.005703	-474.997535	-474.996591	-475.03883	29.955	
O	 0.0558944028	 1.3838204012	 0.276683042	-0.436013
C	-0.0014989405	 0.0064589864	 0.0846165326	 0.064249
C	-1.4166423821	-0.5269852711	-0.1131128652	-0.235544
N	-1.1723228995	-1.7816406786	-0.9376420645	-0.304392
H	-1.011243468	-2.5714213764	-0.3036368814	 0.301053
H	-1.9924518292	-2.0277035891	-1.4950206625	 0.303896
C	 0.0063686057	-1.4839112966	-1.8106012733	-0.056674
C	 0.113177786	-2.2275916223	-3.0198826788	 0.067094
O	 0.9796064326	-2.1438443402	-3.8683146712	-0.299549
C	 0.691313532	-0.379843361	-1.2543082749	 0.302761
O	 1.6243683094	 0.3070668906	-1.6488478545	-0.393763
H	 0.7888258619	 1.6595419552	-0.3069375173	 0.297273
H	 0.4892634531	-0.5345834006	 0.9142267334	 0.086164
H	-1.9744330309	-0.7911417325	 0.7874544298	 0.139368
H	-1.9889320998	 0.1653449279	-0.7323542618	 0.167036
H	-0.7389328538	-2.9577733228	-3.1534842625	-0.002959
78.7493	140.7138	161.9298	227.7151	263.7303	291.5434	418.2677	450.915	489.4011	558.9602	577.7759	665.7371	697.1437	777.2565	902.9025	928.7178	970.5361	1005.1361	1014.6031	1054.3687	1114.107	1153.9096	1196.0745	1211.6586	1258.5094	1336.6434	1346.5459	1381.6736	1434.3727	1441.7339	1481.1405	1491.7858	1657.4449	1734.2433	1796.1771	2683.997	2936.5613	3083.3059	3154.6382	3359.2578	3449.3567	3594.7457
OC1C[NH2+][C-](C=O)C1=O	O[C@H]1C[NH2][C](C=O)C1=O	
InChI=1S/C5H7NO3/c7-2-3-5(9)4(8)1-6-3/h2,4,8H,1,6H2	InChI=1S/C5H7NO3/c7-2-3-5(9)4(8)1-6-3/h2,4,8H,1,6H2/t4-/m0/s1
