17
gdb 106200	3.48391	1.52186	1.45469	0.8067	69.7	-0.2191	0.0865	0.3056	959.676	0.136112	-421.746574	-421.739527	-421.738582	-421.77818	27.994	
C	 0.0864573205	 1.3429786372	-0.1423871558	-0.26111
O	-0.1430219991	-0.0338418764	 0.1273691323	-0.284336
C	 0.5829572099	-0.5083045897	 1.1862768366	 0.408268
C	 2.0681708455	-0.8172469803	 1.1968698461	-0.02108
O	 2.7000335415	-0.3826006709	 2.3684366166	-0.226304
C	 1.6649545673	-0.5334747047	 3.3017317947	 0.077556
C	 0.7654964731	-1.7116748524	 2.9709213735	-0.121925
C	 0.2989632109	-0.2830782324	 2.6980472319	-0.228132
C	 1.0428455972	-1.9237014419	 1.470642768	-0.219381
H	 1.1430521997	 1.5338661488	-0.3724401729	 0.117383
H	-0.5273363595	 1.6020575823	-1.0074033923	 0.129538
H	-0.2065653886	 1.9746121665	 0.7071901148	 0.116959
H	 2.6799298157	-0.8022863006	 0.3052849401	 0.112233
H	 1.9315479581	-0.2534270299	 4.312063061	 0.109315
H	 0.4098375379	-2.443098285	 3.6822380667	 0.094801
H	-0.4992566042	 0.2962607061	 3.1401599179	 0.095929
H	 0.9583718343	-2.8362116967	 0.8985171907	 0.100286
91.2266	162.0436	174.3921	358.5126	392.2753	535.1587	583.8733	641.2173	730.5868	746.9765	756.6211	777.7639	834.012	846.5236	871.3562	918.5209	946.849	984.3115	989.4095	1015.2897	1031.0287	1037.8527	1058.6925	1084.9575	1107.3375	1136.0366	1178.8187	1213.2867	1218.7548	1222.7514	1248.5778	1290.8524	1369.9521	1426.8204	1486.3327	1494.8149	1505.2471	3000.2943	3056.9275	3127.6353	3210.0563	3210.8461	3219.9376	3221.9959	3229.5188
COC12C3OC4C(C14)C23	CO[C@@]12[C@H]3O[C@@H]4[C@@H]([C@H]14)[C@@H]23	
InChI=1S/C7H8O2/c1-8-7-3-2-4(7)6(7)9-5(2)3/h2-6H,1H3	InChI=1S/C7H8O2/c1-8-7-3-2-4(7)6(7)9-5(2)3/h2-6H,1H3/t2-,3-,4+,5+,6-,7-/m0/s1
