22
gdb 101274	2.52166	1.1213	0.93895	0.7993	89.45	-0.2281	0.0344	0.2625	1374.5326	0.19145	-367.154905	-367.144596	-367.143652	-367.189967	38.618	
C	 0.3766420141	 1.319523537	 0.2525785145	-0.393638
C	 0.1218939371	-0.1899163556	 0.2074640603	-0.159814
C	-1.3390816356	-0.615468162	-0.0108825817	 0.067492
C	-1.4415886986	-2.1360003962	-0.1556834253	-0.395834
N	-2.1520329152	-0.1996514592	 1.1407416857	-0.082593
C	-2.7613524517	 1.1164310886	 1.1287024827	-0.242063
C	-3.6174479511	-0.1066877289	 0.9882580372	-0.187572
C	-4.2826725646	-0.3662245846	-0.2606187273	 0.348295
C	-4.8677738519	-0.6091234636	-1.2838670557	-0.47638
H	 1.4496232353	 1.5262607225	 0.3172674567	 0.111397
H	-0.0004970564	 1.8161889939	-0.6488454703	 0.109774
H	-0.0992501281	 1.7868993241	 1.1188502178	 0.126834
H	 0.7131576861	-0.6280619186	-0.6061455814	 0.092321
H	 0.4777179643	-0.652728105	 1.1359833769	 0.102753
H	-1.708264907	-0.1454857253	-0.9391224547	 0.068187
H	-2.4729257483	-2.4454571405	-0.3408278944	 0.12595
H	-0.8277169201	-2.4822919362	-0.9927709844	 0.108955
H	-1.0916042228	-2.6282786738	 0.7574234162	 0.119341
H	-2.7523953821	 1.6628597616	 2.0684304761	 0.118741
H	-2.6542212413	 1.7294722592	 0.2359427157	 0.122208
H	-4.1603056142	-0.4567808482	 1.8633617307	 0.116046
H	-5.3826415478	-0.8150224992	-2.1894707953	 0.199601
62.8629	108.4895	121.9692	186.0816	217.2538	227.4157	252.089	271.4529	318.0724	371.722	415.9916	492.5392	540.3059	592.7948	636.7144	662.3928	694.3494	787.8256	817.0787	855.771	906.173	973.3438	1000.1979	1021.403	1028.0362	1045.8182	1092.8431	1115.9379	1129.5679	1149.9691	1182.5183	1189.879	1294.2208	1315.348	1329.4709	1366.6721	1377.9872	1387.7093	1409.4476	1412.0284	1474.7438	1491.4856	1499.4126	1501.1293	1504.927	1509.7897	2228.9757	2948.4722	3024.7622	3032.6821	3041.5718	3062.3623	3094.5268	3096.5056	3110.5142	3115.1855	3125.6299	3126.9899	3183.0513	3502.4833
CCC(C)N1CC1C#C	CC[C@@H](C)N1C[C@H]1C#C	
InChI=1S/C8H13N/c1-4-7(3)9-6-8(9)5-2/h2,7-8H,4,6H2,1,3H3	InChI=1S/C8H13N/c1-4-7(3)9-6-8(9)5-2/h2,7-8H,4,6H2,1,3H3/t7-,8-,9?/m1/s1
