12
gdb 21769	4.0546	2.04327	1.38606	1.4224	67.4	-0.2457	-0.1177	0.128	810.0106	0.084699	-377.495885	-377.489592	-377.488648	-377.52665	22.939	
O	-0.0015189645	-0.0843194578	-0.351803091	-0.345
C	-0.0150354871	 1.1164571004	-0.1360189818	 0.341026
C	-1.2743490534	 1.84104517	 0.0889445011	-0.143422
C	-1.4944697283	 3.1764090373	 0.0954915259	 0.028386
N	-0.6932066328	 4.2566389555	-0.2594352265	-0.158501
N	 0.5737501271	 4.2739174045	-0.2762199526	-0.158501
C	 1.4132912601	 3.2160663934	 0.0569674476	 0.028387
C	 1.2295688571	 1.8751944519	 0.0557698162	-0.143422
H	-2.1313744218	 1.1896944694	 0.2439642026	 0.136966
H	-2.5108387307	 3.5153090349	 0.2799747417	 0.138558
H	 2.4245708373	 3.5826215351	 0.21458746	 0.138558
H	 2.107841907	 1.2475108353	 0.1877965567	 0.136966
78.9881	233.6944	263.9848	390.4487	391.0984	485.7288	610.4393	650.2982	739.2462	819.3307	860.1304	901.7224	916.0674	968.5151	991.2109	1021.4367	1041.1527	1243.5373	1268.0411	1305.0481	1404.3476	1442.7599	1484.0738	1618.7044	1634.6506	1743.1747	3158.2822	3158.6177	3176.1898	3177.6587
O=C1C=CN=NC=C1	O=c1ccnncc1	
InChI=1S/C5H4N2O/c8-5-1-3-6-7-4-2-5/h1-4H	InChI=1S/C5H4N2O/c8-5-1-3-6-7-4-2-5/h1-4H
