14
gdb 125150	3.28295	1.26232	0.91691	4.3961	68.73	-0.2693	-0.0782	0.1911	1177.9436	0.099544	-473.832114	-473.823778	-473.822834	-473.865557	29.401	
C	-0.023309206	 1.5596135533	 0.0501364182	-0.511296
C	 0.0277933144	 0.0689840962	-0.0134611852	-0.016
C	-0.0147870778	-0.7958083494	-1.0745705564	 0.277437
O	 0.0622686517	-2.0763959991	-0.6528683852	-0.208079
N	 0.1602272706	-2.0860571116	 0.728357938	-0.234944
C	 0.139151156	-0.8258985891	 1.0905540414	 0.427361
O	 0.2155114453	-0.4397050665	 2.371816339	-0.415509
C	-0.1256198134	-0.546727128	-2.5157801717	 0.08462
O	-0.1535691609	-1.4060672541	-3.3630277693	-0.255185
H	 0.8778241719	 1.958887857	 0.5274658472	 0.153091
H	-0.1092588112	 2.0072496677	-0.9416787138	 0.139229
H	-0.8764393151	 1.8936353825	 0.6500839189	 0.153089
H	 0.2833123078	-1.2323596607	 2.9212348211	 0.317565
H	-0.1837807232	 0.5320224719	-2.7716530021	 0.088621
76.5947	104.3318	178.5648	190.6118	239.0641	296.8724	369.9578	394.529	456.5005	539.9456	634.906	639.5492	737.6473	767.716	787.0958	957.8645	1014.7195	1024.3531	1062.9996	1121.7861	1209.7752	1235.3146	1343.0794	1417.4024	1426.779	1476.2654	1479.2999	1517.8752	1568.7166	1666.4192	1798.8497	2909.8903	3041.4558	3094.0992	3132.876	3780.9731
CC1=C(ON=C1O)C=O	Cc1c(onc1O)C=O	
InChI=1S/C5H5NO3/c1-3-4(2-7)9-6-5(3)8/h2H,1H3,(H,6,8)	InChI=1S/C5H5NO3/c1-3-4(2-7)9-6-5(3)8/h2H,1H3,(H,6,8)
