16
gdb 31181	2.65501	1.34046	0.89587	7.2228	76.89	-0.2044	-0.0132	0.1912	1240.3959	0.124331	-437.92251	-437.913942	-437.912998	-437.956345	30.78	
C	-0.0121274652	 1.3913825924	 0.0173785105	-0.26884
O	 0.0101601638	-0.0262725774	-0.0113676611	-0.248771
C	 0.6059554613	-0.6236556194	-1.0562378592	 0.390313
C	 0.7369398964	-1.9911853199	-1.2752349782	 0.037446
C	 0.2514087682	-3.0460718497	-0.4096882017	 0.069269
O	 0.3804544997	-4.2358988619	-0.62678189	-0.309586
C	 1.4428699194	-2.1319862732	-2.5185084398	-0.2288
C	 1.7087875991	-0.8868344939	-2.9980743798	-0.089436
N	 1.190641278	 0.0408370269	-2.0919672327	-0.347309
H	 1.0037118405	 1.8075900645	 0.0423615338	 0.129552
H	-0.5580446846	 1.8010203755	-0.8428477815	 0.129474
H	-0.5327135284	 1.6699350647	 0.9336416432	 0.156724
H	-0.2693790485	-2.6879430514	 0.5055490705	 0.059125
H	 1.7049926498	-3.0741267871	-2.9720784641	 0.126011
H	 2.2124667735	-0.5491753793	-3.8884541571	 0.127754
H	 1.2424936371	 1.0383423292	-2.1960939229	 0.267073
47.2948	150.3071	154.6111	202.2499	244.3605	260.3818	327.5588	397.3653	425.7355	573.953	626.5727	651.0006	667.5789	727.5617	794.2804	861.041	913.3016	1036.3522	1038.3793	1075.2708	1109.2221	1174.5642	1184.9897	1210.7215	1290.2887	1320.3988	1393.4053	1437.6069	1470.1368	1493.615	1506.6144	1529.3038	1553.1291	1620.3378	1770.2052	2883.5429	3000.7477	3061.4804	3149.5986	3264.664	3283.5927	3691.8857
COC1=C(C=O)C=CN1	COc1c(C=O)cc[nH]1	
InChI=1S/C6H7NO2/c1-9-6-5(4-8)2-3-7-6/h2-4,7H,1H3	InChI=1S/C6H7NO2/c1-9-6-5(4-8)2-3-7-6/h2-4,7H,1H3
