18
gdb 63718	3.6439	1.14368	1.03016	0.5546	80.91	-0.2248	0.031	0.2558	1203.1986	0.145183	-401.871759	-401.862815	-401.861871	-401.904748	34.987	
C	-0.0652061274	 1.57315403	 0.094051255	-0.456942
C	 0.0229156249	 0.0590399985	 0.0034636608	 0.426934
O	-1.2495417008	-0.5408246375	-0.1688509968	-0.482742
C	 1.1029466383	-0.5562152792	-0.9727799689	-0.341003
C	 1.7102254275	-1.3017422546	 0.2274962238	 0.245707
N	 2.1081234883	-0.2290804531	 1.1924872812	-0.373937
C	 0.7097326151	-0.6853927147	 1.1597847353	-0.146022
C	 2.3181304694	-2.5846764555	 0.246232136	 0.120625
C	 2.8380751698	-3.670505832	 0.2400401961	-0.390362
H	 0.9116433003	 1.9975850341	 0.3362037795	 0.143911
H	-0.3956560347	 1.9986020571	-0.8619126849	 0.104737
H	-0.7850847272	 1.8656368127	 0.8648700918	 0.120873
H	-1.6596052637	-0.145851347	-0.9459006818	 0.277394
H	 0.6254660534	-1.2282348604	-1.6871155357	 0.115965
H	 1.7836668677	 0.1330560698	-1.4774702706	 0.101806
H	 2.5606217769	-0.6924525822	 1.9804125864	 0.239393
H	 0.2182630088	-1.1125464702	 2.0254104184	 0.106997
H	 3.2915637535	-4.6304734559	 0.2368802343	 0.186665
97.5828	139.8032	225.0064	242.6719	266.5679	277.4088	352.3295	405.1819	425.5303	489.9476	524.4288	541.6508	566.0433	582.5182	664.1445	674.9079	774.5633	853.7621	876.791	925.5422	954.1682	960.0737	993.0204	1045.9038	1085.4896	1108.8862	1120.0606	1184.0882	1227.8726	1240.6517	1253.6484	1320.7298	1387.2371	1402.6759	1405.8893	1461.7789	1487.9641	1498.4224	2232.8888	3026.0797	3070.4259	3093.6399	3132.5628	3142.3685	3197.5996	3477.8503	3503.3798	3806.27
CC1(O)CC2(NC12)C#C	C[C@@]1(O)C[C@]2(N[C@@H]12)C#C	
InChI=1S/C7H9NO/c1-3-7-4-6(2,9)5(7)8-7/h1,5,8-9H,4H2,2H3	InChI=1S/C7H9NO/c1-3-7-4-6(2,9)5(7)8-7/h1,5,8-9H,4H2,2H3/t5-,6+,7+/m0/s1
