23
gdb 94939	2.62041	1.27222	1.1423	1.3671	85.05	-0.2393	0.0736	0.3129	1233.5805	0.205681	-388.295307	-388.285853	-388.284909	-388.328953	36.947	
C	 0.5454627467	 1.5011798373	-0.1616805361	-0.393926
C	-0.025626966	 0.0877959007	 0.0233181492	 0.009537
C	 0.3670567062	-0.8599753464	-1.1500868471	-0.239597
C	 1.5259744817	-1.761395651	-0.6428153408	-0.2284
C	 1.5042567555	-1.6754118662	 0.8769290995	-0.112882
C	 0.5544414961	-0.5536177574	 1.2816445585	-0.066691
C	 0.2430524369	-1.9751275153	 1.6613247411	 0.375307
C	-0.9300154304	-2.7844532915	 1.1566734219	-0.465938
O	 0.4690967648	-2.1749139697	 3.0432384038	-0.469019
H	 1.6383958056	 1.475191664	-0.2410232665	 0.114986
H	 0.1534472059	 1.9667267958	-1.0719176127	 0.107679
H	 0.2893264812	 2.1476866952	 0.6842893737	 0.112724
H	-1.1180380114	 0.1687231557	 0.0863997967	 0.070781
H	-0.4876377903	-1.4667422838	-1.4591604133	 0.103102
H	 0.6635852681	-0.2875283915	-2.0343858313	 0.094224
H	 1.4368561187	-2.786129242	-1.0212880659	 0.093882
H	 2.4906952838	-1.3826672566	-0.9984004459	 0.101516
H	 2.4344932986	-1.8222568129	 1.4160100861	 0.077618
H	 0.7995475351	 0.0968708965	 2.1148565497	 0.086781
H	-1.162073839	-2.5982948464	 0.1080109608	 0.121794
H	-0.725743081	-3.8578160283	 1.2621272823	 0.104576
H	-1.8197967434	-2.5563079433	 1.7522836039	 0.126613
H	 0.7710018665	-3.0830864929	 3.1590521624	 0.275331
92.2991	140.6766	173.185	208.1743	241.3779	263.5735	297.5286	320.0258	382.0893	413.4807	445.979	501.4038	656.6262	681.4924	718.8756	786.9658	833.4265	856.5946	889.4645	940.3861	956.2657	974.5274	984.8137	1025.6715	1031.1824	1066.7346	1070.7285	1101.2696	1122.4685	1152.9574	1180.9777	1206.2557	1221.9912	1281.1279	1291.154	1300.2426	1305.2171	1339.4142	1343.4829	1369.4077	1408.3633	1414.7875	1442.6142	1484.8597	1490.7793	1496.6981	1500.1057	1503.4935	1517.367	3018.816	3025.1455	3025.9562	3031.9271	3058.6575	3060.2692	3086.8128	3092.6303	3096.6593	3099.3587	3146.5947	3157.6997	3167.1701	3787.063
CC1CCC2C1C2(C)O	C[C@H]1CC[C@H]2[C@@H]1[C@]2(C)O	
InChI=1S/C8H14O/c1-5-3-4-6-7(5)8(6,2)9/h5-7,9H,3-4H2,1-2H3	InChI=1S/C8H14O/c1-5-3-4-6-7(5)8(6,2)9/h5-7,9H,3-4H2,1-2H3/t5-,6-,7+,8+/m0/s1
