17
gdb 70942	3.76711	1.36849	1.15179	1.9741	74.15	-0.2324	-0.044	0.1884	1068.2587	0.135232	-417.901522	-417.893552	-417.892608	-417.934072	30.114	
C	 0.0189422994	 1.4690182423	 0.1042888274	-0.530126
C	 0.071125933	-0.0202343044	-0.0274300069	 0.363769
N	 0.8976914817	-0.7526926546	-1.0534011901	-0.417106
C	 0.2044338476	-1.8500831992	-0.3125200023	 0.252814
C	 0.4129704746	-3.3041058628	-0.5233324179	 0.01889
O	-0.3801016481	-4.1439158673	-0.1670589773	-0.259867
C	 0.378319517	-1.0845462515	 1.068585205	-0.084689
N	-1.0476631258	-1.1844533889	 1.4821208183	-0.346281
C	-1.1119398603	-1.0575454609	-0.0113542759	-0.127229
H	 1.0240047025	 1.8793396452	 0.2410738692	 0.136155
H	-0.4194830217	 1.9287760311	-0.7879604908	 0.124507
H	-0.5952338941	 1.7398497271	 0.9680015855	 0.148444
H	 0.48218067	-0.6390864945	-1.9828751999	 0.210041
H	 1.3805328273	-3.5737269899	-1.0020277046	 0.091321
H	 1.2289110916	-1.137765015	 1.7484790509	 0.099716
H	-1.2685324324	-2.1437638029	 1.7578831369	 0.229892
H	-2.0445934222	-1.0562154638	-0.5789479677	 0.089751
86.9451	137.6006	194.3639	220.4913	244.3362	330.874	445.3066	485.2869	522.6407	642.676	690.6378	710.9338	781.8856	820.1746	852.9969	889.2745	918.4944	1006.8318	1032.5154	1047.7937	1058.4014	1090.4956	1093.1861	1143.9881	1165.4428	1179.1385	1229.4877	1246.4865	1287.9093	1291.9456	1312.7844	1390.392	1407.8634	1430.8504	1483.9288	1489.3481	1799.2636	2888.1331	3037.2888	3102.0766	3104.6108	3121.6814	3122.3542	3391.8875	3428.984
CC12NC3(C=O)C1NC23	C[C@@]12N[C@@]3(C=O)[C@@H]1N[C@@H]23	
InChI=1S/C6H8N2O/c1-5-3-6(2-9,8-5)4(5)7-3/h2-4,7-8H,1H3	InChI=1S/C6H8N2O/c1-5-3-6(2-9,8-5)4(5)7-3/h2-4,7-8H,1H3/t3-,4+,5-,6+
