22
gdb 102711	3.12944	0.96239	0.80261	1.7859	85.21	-0.2381	0.0197	0.2578	1514.9507	0.192	-404.325759	-404.315029	-404.314085	-404.363073	37.459	
C	-0.3016368078	 0.5598090283	-1.0319491885	-0.241693
O	-0.5817083089	-0.3714229569	 0.0105215117	-0.254569
C	-1.8493263455	-0.4282755298	 0.5448353769	 0.373048
C	-2.2926839934	-1.8648512988	 0.6933256117	-0.277076
C	-2.6416040545	-2.5154512419	-0.6345821545	 0.029347
C	-1.5621043017	-3.0871857562	-1.5184100899	-0.250258
C	-2.5171478468	-4.0089202895	-0.8010126525	-0.276314
N	-2.5922199684	 0.5232410729	 0.9188421009	-0.276442
C	-2.1475177399	 1.9057315098	 0.9297185144	-0.328574
H	 0.472082918	 0.1028339971	-1.6539476206	 0.131317
H	-1.1890126544	 0.7425209401	-1.6460268518	 0.128508
H	 0.0702849684	 1.5142273491	-0.6476223219	 0.122925
H	-1.4763410706	-2.425959943	 1.1650049018	 0.107576
H	-3.1530240897	-1.8829601769	 1.3663337345	 0.119073
H	-3.4807246012	-2.0483026784	-1.1434818299	 0.08858
H	-1.6614725402	-2.9795182214	-2.5930880071	 0.106288
H	-0.5409434328	-3.0315106275	-1.1584179767	 0.117935
H	-2.1365357914	-4.5801453148	 0.0395849132	 0.110397
H	-3.2713855206	-4.5272875537	-1.3826443139	 0.110229
H	-1.0829719317	 2.0203188272	 1.1704833521	 0.116547
H	-2.33645945	 2.4030670714	-0.0297759868	 0.119742
H	-2.7249740868	 2.4456461028	 1.6861700169	 0.123413
29.8014	64.3808	82.9845	91.9815	151.2218	183.5074	255.3285	280.2477	291.5743	317.8709	338.7661	422.8905	642.8856	714.1596	777.0029	798.7978	813.7211	841.0826	900.2802	941.3927	973.0285	1040.5328	1056.9956	1069.2455	1074.7285	1114.1914	1137.6893	1146.2005	1167.1627	1173.7453	1199.6052	1213.3316	1218.3911	1229.1145	1280.6181	1328.933	1404.768	1434.9559	1463.857	1472.4279	1476.4439	1485.4736	1492.7157	1506.4905	1508.078	1516.3109	1761.4572	3003.3472	3031.6774	3035.848	3064.6315	3086.3207	3105.0025	3106.809	3117.9795	3129.9686	3135.3546	3142.2638	3208.556	3224.226
COC(CC1CC1)=NC	COC(=NC)CC1CC1	
InChI=1S/C7H13NO/c1-8-7(9-2)5-6-3-4-6/h6H,3-5H2,1-2H3	InChI=1S/C7H13NO/c1-8-7(9-2)5-6-3-4-6/h6H,3-5H2,1-2H3
