23
gdb 111149	3.67938	1.04521	0.95193	0.1662	91.41	-0.2628	0.0956	0.3584	1372.4238	0.206326	-351.08738	-351.078728	-351.077784	-351.120571	34.549	
C	-0.04257384	 1.5744443597	 0.0559092671	-0.372477
C	 0.0154668447	 0.0502774051	 0.2195836716	-0.238665
C	-1.3533063412	-0.5990401512	 0.054485597	 0.082192
C	-2.0233064238	-0.8000673068	-1.3530004186	-0.145194
C	-1.0456169292	-1.9909309451	-1.5994856318	-0.231943
C	-1.5276643906	-2.147160156	-0.1228989213	-0.161835
C	-2.9371700363	-1.8267797392	-0.6567515503	 0.481622
C	-4.265129075	-1.7128053427	 0.00381577	-0.375544
C	-4.041808068	-2.6883592438	-1.155823318	-0.380899
H	 0.9376405089	 2.0309587765	 0.2251446415	 0.109702
H	-0.370798668	 1.8523789604	-0.9514515213	 0.116152
H	-0.7460810494	 2.0222364652	 0.7667158454	 0.113225
H	 0.7461225959	-0.3619176023	-0.4834280975	 0.096349
H	 0.3920731539	-0.1912962141	 1.2226593753	 0.094316
H	-2.0463258349	-0.1769265442	 0.7921727114	 0.062325
H	-2.3239946645	-0.0292329052	-2.0652956354	 0.065093
H	-1.3903601128	-2.7556435769	-2.2993271572	 0.092899
H	 0.0059875048	-1.7538156045	-1.7640744353	 0.089331
H	-1.2528119526	-2.9300883271	 0.5870259677	 0.064155
H	-4.3977815253	-2.1339488302	 0.9959102114	 0.10977
H	-4.8755928178	-0.8355584659	-0.188534344	 0.109783
H	-4.5059050803	-2.4505206447	-2.1083533146	 0.10976
H	-4.0278562485	-3.7491604472	-0.9241122131	 0.109885
76.2468	132.8764	171.4689	235.8861	253.3944	291.5965	363.4823	404.2103	467.7565	596.4352	638.8213	735.0114	760.3818	782.2806	812.1922	857.2366	884.6827	895.5713	917.7472	943.8973	962.2015	999.8653	1019.1846	1040.7098	1044.1186	1050.0984	1076.8508	1081.4426	1100.1939	1128.678	1144.7323	1155.3791	1179.4796	1180.2551	1205.4829	1213.2548	1246.7388	1256.4466	1295.459	1348.4464	1404.8804	1410.3008	1430.4314	1462.4741	1484.5026	1499.6696	1504.2598	1513.7551	1531.5102	3019.9611	3029.4803	3032.5736	3064.2174	3074.0879	3088.6448	3095.4729	3100.2105	3102.35	3116.1839	3119.9536	3133.7487	3191.8379	3206.1004
CCC1C2CC1C21CC1	CC[C@H]1[C@H]2C[C@@H]1C12CC1	
InChI=1S/C9H14/c1-2-6-7-5-8(6)9(7)3-4-9/h6-8H,2-5H2,1H3	InChI=1S/C9H14/c1-2-6-7-5-8(6)9(7)3-4-9/h6-8H,2-5H2,1H3/t6-,7+,8-
