20
gdb 91037	2.15467	1.81105	1.53135	1.6373	77.84	-0.223	0.0683	0.2912	1007.7851	0.170853	-403.076803	-403.068568	-403.067623	-403.108894	33.21	
C	-0.2953218367	 1.568770465	-0.0517224353	-0.420162
C	 0.0319723567	 0.0825379374	-0.0250931655	-0.02157
C	 1.180298412	-0.4764379518	-0.9360473316	-0.261935
C	 1.7873600741	-1.2288139925	 0.2874064863	-0.069313
C	 2.8997298643	-0.5155596194	 1.0930680273	-0.05681
N	 2.6793256554	 0.9450620177	 0.963314912	-0.332627
C	 1.8915855852	 0.1706208938	 1.9502412333	-0.141428
C	 0.7325030512	-0.5650035363	 1.2127770313	 0.401229
O	-0.0208421244	-1.3950885693	 2.0533109565	-0.482469
H	 0.6060791659	 2.1679045991	 0.0925082112	 0.14066
H	-0.7470573348	 1.8510120498	-1.0094561596	 0.108982
H	-1.0141061149	 1.8304225469	 0.7347992277	 0.095505
H	-0.8790095376	-0.5034108575	-0.1932307587	 0.072943
H	 0.8403744496	-1.1294487754	-1.742610932	 0.091083
H	 1.8339095762	 0.294991988	-1.3444473136	 0.114682
H	 1.8559839043	-2.3149748306	 0.2512029772	 0.077975
H	 3.8837798457	-0.8966480679	 1.3384480591	 0.090592
H	 3.4266074361	 1.4108948602	 1.4771237797	 0.230214
H	 1.9162408176	 0.4197138967	 3.0056568548	 0.086414
H	-0.5789972959	-0.835186054	 2.6054546	 0.276035
147.8353	202.4778	211.4992	238.7047	260.8495	322.8113	335.0309	412.6246	499.0976	547.1641	624.2241	646.7384	760.5615	788.8104	821.6208	833.3037	862.3342	918.712	938.0152	952.3454	984.716	1003.8181	1008.3743	1068.5615	1082.3682	1104.6349	1121.3162	1144.1621	1156.8416	1174.863	1217.3496	1237.926	1254.2384	1281.5634	1313.0198	1324.4061	1340.2956	1366.2975	1391.6643	1404.7041	1473.599	1491.0836	1509.4712	3022.8648	3037.5406	3072.4834	3078.2611	3126.8715	3131.1655	3138.5758	3166.0744	3184.9616	3471.3772	3785.4709
CC1CC2C3NC3C12O	C[C@H]1C[C@H]2[C@H]3N[C@H]3[C@@]12O	
InChI=1S/C7H11NO/c1-3-2-4-5-6(8-5)7(3,4)9/h3-6,8-9H,2H2,1H3	InChI=1S/C7H11NO/c1-3-2-4-5-6(8-5)7(3,4)9/h3-6,8-9H,2H2,1H3/t3-,4-,5+,6+,7+/m0/s1
