16
gdb 74664	3.64384	1.52491	1.46227	2.0782	68.01	-0.246	0.0244	0.2703	945.2045	0.124935	-437.861528	-437.854547	-437.853603	-437.892937	27.154	
C	 0.0724561765	 1.4336725431	 0.0617667633	-0.476429
C	 0.0205087851	-0.0490748043	-0.0536173206	 0.423651
N	-0.0675892638	-0.724187575	-1.1312699363	-0.301943
C	-0.0157806695	-2.1191305279	-0.7356523227	-0.073254
C	 1.3894290725	-2.7836641937	-0.7382166501	 0.024087
O	 2.2750431323	-1.9067595492	-0.0481871651	-0.220623
C	 1.4518515148	-2.7593679223	 0.7425162972	-0.007099
C	 0.0596379544	-2.0997416533	 0.8275717823	 0.033877
O	 0.0426753622	-0.7111634311	 1.1532112404	-0.255806
H	 1.0247219628	 1.7392378317	 0.506396921	 0.152683
H	-0.0285779586	 1.8819210064	-0.9258562541	 0.152085
H	-0.7258288864	 1.792664655	 0.7185067907	 0.142884
H	-0.7929476045	-2.7295076719	-1.2000317047	 0.086431
H	 1.8243956272	-3.4693951916	-1.4558152808	 0.113703
H	 1.9432988736	-3.417134845	 1.450218599	 0.110699
H	-0.6887290887	-2.6365906009	 1.4116663404	 0.095054
124.3177	147.6785	216.2242	316.998	329.6729	498.4922	571.2085	628.8422	680.9381	732.0649	787.6474	838.3293	874.5347	883.6635	902.1515	919.7612	956.7654	996.6836	1010.6803	1037.6002	1062.3083	1067.9405	1103.318	1176.7544	1215.3812	1225.0141	1242.2078	1272.4157	1310.4733	1344.3388	1381.727	1410.323	1473.305	1475.3786	1715.1257	3052.2914	3091.8651	3110.9089	3111.0699	3167.2072	3180.3645	3196.214
CC1=NC2C3OC3C2O1	CC1=N[C@H]2[C@H]3O[C@H]3[C@H]2O1	
InChI=1S/C6H7NO2/c1-2-7-3-4(8-2)6-5(3)9-6/h3-6H,1H3	InChI=1S/C6H7NO2/c1-2-7-3-4(8-2)6-5(3)9-6/h3-6H,1H3/t3-,4+,5-,6+/m1/s1
