17
gdb 63409	3.13452	1.15925	1.02705	3.9777	73.74	-0.245	-0.0266	0.2184	1210.3895	0.134289	-455.162021	-455.152614	-455.15167	-455.196443	33.404	
C	-0.1101307633	 1.5803821406	-0.0102314382	-0.449438
C	-0.0513682046	 0.0605001117	-0.0152104228	 0.250609
O	-1.3280350152	-0.5315262838	 0.1098336043	-0.467944
C	 0.7580934668	-0.6124284509	-1.1609524901	-0.211232
N	 1.7061042645	-1.1030778704	-0.1424429776	-0.111166
C	 2.8405373417	-1.8829126505	-0.2948008883	 0.070978
N	 3.5597054046	-2.2439378136	 0.6856354506	-0.409517
C	 1.0010161219	-0.5665101819	 0.9418054094	 0.393557
O	 1.1405314793	-0.6142803781	 2.128778264	-0.34057
H	 0.8783441454	 2.0202097727	-0.1755152623	 0.127097
H	-0.7912665425	 1.9312144467	-0.7910304043	 0.131786
H	-0.4770185622	 1.9365927329	 0.9578905719	 0.133621
H	-1.6115440124	-0.4181714729	 1.0248463345	 0.295717
H	 0.2014379772	-1.4067923136	-1.6635127293	 0.134203
H	 1.2058746381	 0.0684905871	-1.8900132833	 0.119773
H	 3.0160504479	-2.1280752813	-1.3504231415	 0.100173
H	 4.3406357027	-2.8090467246	 0.3562256631	 0.232353
60.9718	137.6112	141.4321	172.3288	202.5731	227.5567	250.1945	310.9122	339.0029	398.1343	496.8793	561.6867	671.4456	736.9106	776.7424	818.9921	867.251	936.6971	963.6052	996.1796	1064.0342	1094.898	1120.56	1151.8687	1205.7291	1229.5836	1236.8935	1301.2011	1372.4111	1396.0233	1408.1881	1427.958	1486.8857	1490.416	1511.7142	1716.498	1893.7305	3032.9775	3036.6399	3056.5612	3109.1995	3117.3297	3118.7388	3502.1064	3796.8217
CC1(O)CN(C=N)C1=O	C[C@@]1(O)CN([CH][NH])C1=O	
InChI=1S/C5H8N2O2/c1-5(9)2-7(3-6)4(5)8/h3,6,9H,2H2,1H3	InChI=1S/C5H8N2O2/c1-5(9)2-7(3-6)4(5)8/h3,6,9H,2H2,1H3/t5-/m1/s1
