16
gdb 66971	2.64665	1.72249	1.2999	2.2095	74.04	-0.2236	0.0228	0.2464	984.4069	0.123489	-400.623288	-400.615723	-400.614779	-400.654983	30.212	
O	-0.2094548995	 1.3442513118	 0.0516844255	-0.458172
C	 0.017204717	-0.0094167765	 0.0171065001	 0.364201
C	-0.160108035	-0.8608383917	-1.2666566665	-0.155385
C	 0.5472682493	-2.1697671198	-0.9874763957	-0.184321
N	 0.0676224489	-2.0764670712	 0.4552856597	-0.181153
C	-1.0106268277	-1.0850861257	-0.0410933179	-0.093373
C	 0.840325648	-0.8587127777	 0.9866712457	-0.207508
C	 2.289383528	-0.875885625	 0.932459158	 0.310046
C	 3.4914725859	-0.8575013937	 0.8856624667	-0.438107
H	 0.5038630229	 1.786388038	-0.4229209849	 0.295167
H	-0.4429623892	-0.3825410482	-2.1966905209	 0.093919
H	 0.0641793059	-3.0301504237	-1.4579336732	 0.111993
H	 1.6326358337	-2.2405529516	-1.1012878137	 0.116104
H	-2.0682231041	-1.1441360787	 0.1690290689	 0.110832
H	 0.5007854797	-0.6926950498	 2.0138395303	 0.115599
H	 4.5530868262	-0.8511959264	 0.851686018	 0.200159
124.8006	146.3656	275.5497	314.2803	349.3998	391.9122	417.0779	522.3322	577.0568	613.4022	643.9131	662.5676	714.7527	808.5103	826.1295	837.6437	879.6062	928.0504	953.6391	980.7012	984.9609	1025.2404	1087.5962	1099.7292	1117.2368	1162.7739	1191.5471	1214.5433	1260.6094	1284.7357	1316.377	1360.4359	1458.0398	1510.9425	2226.8892	3055.3338	3062.3546	3109.7429	3187.3219	3230.1794	3500.6624	3790.3025
OC12C3CN(C13)C2C#C	O[C@]12[C@H]3CN([C@@H]13)[C@H]2C#C	
InChI=1S/C7H7NO/c1-2-5-7(9)4-3-8(5)6(4)7/h1,4-6,9H,3H2	InChI=1S/C7H7NO/c1-2-5-7(9)4-3-8(5)6(4)7/h1,4-6,9H,3H2/t4-,5-,6+,7-/m0/s1
