16
gdb 85352	3.29805	1.22804	0.9415	0.44	78.37	-0.2613	-0.0932	0.1681	1198.0188	0.124061	-437.927825	-437.919611	-437.918667	-437.96083	30.105	
C	-0.0338149294	 1.5657472294	-0.0446149792	-0.405937
C	 0.0262435419	 0.0432861861	 0.0203703194	 0.016853
O	 0.7654437765	-0.473247968	-1.1086111369	-0.25897
C	 1.8216013261	-1.2328051489	-0.6829890274	 0.426702
N	 2.663236609	-1.8214730704	-1.4250439709	-0.542489
C	 1.8030643722	-1.2485774896	 0.7843985299	-0.280118
C	 0.7638752071	-0.5187269735	 1.2133328089	 0.219266
C	 0.362541925	-0.3019455957	 2.6073276327	 0.081098
O	-0.6025286575	 0.3520169736	 2.936015319	-0.259773
H	 0.9721507347	 1.9923682228	 0.0028325414	 0.126233
H	-0.504198274	 1.8800961174	-0.9795303892	 0.134355
H	-0.6210505821	 1.9405878767	 0.7966306597	 0.154077
H	-0.9903000582	-0.3674106191	-0.0330464941	 0.120018
H	 2.4526461401	-1.6557524749	-2.4106261186	 0.229755
H	 2.534189619	-1.785152789	 1.3726970106	 0.147287
H	 1.0131260395	-0.7937243668	 3.3609049446	 0.091643
98.8752	122.4895	171.2324	233.4115	250.4771	265.6506	362.8059	426.7852	501.4908	559.9437	677.174	696.4131	727.2649	811.2384	872.811	896.5376	923.4386	954.1939	1032.163	1053.8916	1090.9167	1095.3226	1126.6617	1175.8755	1252.2844	1345.6344	1364.5964	1372.7487	1400.3546	1418.4854	1492.412	1496.6871	1670.9033	1743.758	1780.5174	2911.9174	3029.3449	3051.1013	3128.5904	3143.7308	3245.8963	3480.3963
CC1OC(=N)C=C1C=O	C[C@H]1OC(=C[C]1C=O)[NH]	
InChI=1S/C6H7NO2/c1-4-5(3-8)2-6(7)9-4/h2-4,7H,1H3	InChI=1S/C6H7NO2/c1-4-5(3-8)2-6(7)9-4/h2-4,7H,1H3/t4-/m1/s1
