15
gdb 73390	3.01294	1.66877	1.33872	3.2135	64.9	-0.2308	-0.0132	0.2176	937.2212	0.112593	-457.737413	-457.730346	-457.729402	-457.768733	27.817	
O	-0.0874491087	 1.3005273553	 0.006307414	-0.464924
C	 0.0013743897	-0.0806875055	-0.0311512373	 0.374587
C	 0.97548677	-0.743464023	-1.0095834876	-0.153502
O	 0.4054573491	-2.0182897995	-1.3049626601	-0.255274
C	-0.6257313197	-2.2514055623	-0.3516220564	-0.060085
C	-1.2367996737	-0.878477774	 0.0151139479	-0.133741
C	-0.315973026	-0.8315303871	 1.2836951813	-0.287411
C	-0.0714797555	-2.2933631988	 1.109445228	 0.43256
O	 0.2405050161	-3.1810219873	 1.8525625524	-0.328283
H	 0.6978186946	 1.6468051819	 0.4446728717	 0.296205
H	 1.0395343087	-0.1539575916	-1.9308915896	 0.121253
H	 1.9831123815	-0.8602057912	-0.5877402961	 0.10707
H	-1.253532657	-3.0760383212	-0.6840832649	 0.109575
H	-2.2506633782	-0.5216753898	-0.0878635337	 0.125974
H	-0.4493161309	-0.270509066	 2.2008255804	 0.115994
125.6519	222.6561	249.4681	309.0417	358.9394	422.1791	466.033	530.1442	594.0004	675.4405	755.9201	794.6197	818.1735	859.5541	879.8091	923.3554	955.1911	966.4732	1020.2546	1061.8907	1070.2967	1111.7448	1125.0622	1169.8022	1207.0558	1227.7371	1265.2076	1277.5068	1311.159	1361.1835	1449.8404	1521.2518	1875.0426	3010.0984	3067.6594	3146.8947	3197.4562	3237.5091	3801.1053
OC12COC3C1C2C3=O	O[C@]12CO[C@@H]3[C@H]1[C@H]2C3=O	
InChI=1S/C6H6O3/c7-4-2-3-5(4)9-1-6(2,3)8/h2-3,5,8H,1H2	InChI=1S/C6H6O3/c7-4-2-3-5(4)9-1-6(2,3)8/h2-3,5,8H,1H2/t2-,3+,5+,6-/m0/s1
