15
gdb 62418	2.46294	1.56098	1.34023	2.1445	72.38	-0.2333	-0.027	0.2063	1007.299	0.110019	-420.569962	-420.561539	-420.560595	-420.602808	31.654	
O	-0.166822883	 1.438682454	 0.1226871656	-0.45953
C	-0.0542575522	 0.0318511518	 0.0549653331	 0.091466
C	 0.8758072582	-0.5080736439	 1.036801216	 0.263439
C	 1.675685839	-0.9394001317	 1.8241650661	-0.432756
C	-1.4158255264	-0.6813519987	 0.0234017966	-0.056633
C	-2.198662769	-0.2054076443	-1.1444061345	-0.300429
C	-1.1317905303	-1.2689241326	-1.3867299586	-0.165759
C	 0.2084136544	-0.6134440342	-1.3785678525	 0.36185
O	 1.1777694961	-0.6483673801	-2.077137047	-0.313307
H	 0.7243011379	 1.8040984711	 0.0786881769	 0.294806
H	 2.3792131776	-1.3204852356	 2.5230192087	 0.203852
H	-1.8440883581	-1.2009120551	 0.8688139296	 0.11805
H	-3.2125882402	-0.5832694086	-1.2207184937	 0.130455
H	-2.0604748911	 0.8035137476	-1.5147287202	 0.146889
H	-1.377758323	-2.2363033297	-1.8045442661	 0.117607
105.3456	124.7385	167.7536	198.6075	271.4095	291.7286	379.5912	456.5959	493.7062	571.7791	621.5878	646.004	674.5717	685.9082	751.0297	791.7847	865.6006	897.2679	938.7668	950.5225	1042.0118	1045.2264	1086.5423	1101.5039	1110.8072	1153.2646	1192.0471	1280.8793	1310.9935	1370.6208	1491.2123	1889.0812	2228.1358	3141.1377	3206.1424	3221.2319	3231.0754	3499.0377	3807.3433
OC1(C#C)C2CC2C1=O	O[C@@]1(C#C)[C@H]2C[C@H]2C1=O	
InChI=1S/C7H6O2/c1-2-7(9)5-3-4(5)6(7)8/h1,4-5,9H,3H2	InChI=1S/C7H6O2/c1-2-7(9)5-3-4(5)6(7)8/h1,4-5,9H,3H2/t4-,5+,7+/m1/s1
