25
gdb 93692	3.01389	1.12957	1.04334	1.1502	88.88	-0.2407	0.0787	0.3194	1337.1887	0.228993	-389.521089	-389.511348	-389.510403	-389.554645	38.683	
C	-0.081047536	 1.5371395515	 0.069518477	-0.404324
C	 0.0001848997	 0.0204260841	-0.0139330035	 0.155353
C	 0.6669411009	-0.4837892261	-1.2991544694	-0.214729
C	 0.8595592675	-2.0069897693	-1.2538943371	-0.228717
C	 1.5480078781	-2.4785923864	 0.0485337407	 0.263416
C	 1.4539947271	-4.0062520667	 0.1638220301	-0.42621
C	 3.0246552227	-2.0459820847	 0.087377791	-0.412302
C	 0.7896800713	-1.8333151644	 1.2259965796	-0.084245
O	 0.7261317731	-0.4223191349	 1.129559039	-0.26431
H	 0.9219425891	 1.9741567395	 0.0348431388	 0.120909
H	-0.6637235967	 1.9386773666	-0.7651086156	 0.111205
H	-0.5548495805	 1.8433622178	 1.0060151931	 0.12111
H	-1.0211365233	-0.4018896816	 0.0364771127	 0.056451
H	 0.0536804172	-0.2053783244	-2.1643064995	 0.090819
H	 1.631883276	 0.023592128	-1.4170216596	 0.100805
H	-0.1254838139	-2.4897276228	-1.3205088162	 0.087415
H	 1.4304662157	-2.3480632618	-2.1258672623	 0.08909
H	 1.9736255923	-4.4925577081	-0.6692008485	 0.111736
H	 1.9116114089	-4.3644714397	 1.0931598656	 0.109187
H	 0.4122627536	-4.3460153226	 0.1496257353	 0.108496
H	 3.1219002053	-0.9588459088	 0.1294427455	 0.124973
H	 3.5226890475	-2.4552997738	 0.973453376	 0.106987
H	 3.5643231213	-2.4080528262	-0.7946864297	 0.104589
H	-0.2309430445	-2.2525364554	 1.2783988777	 0.075355
H	 1.2902210877	-2.05179181	 2.1757544692	 0.096941
101.4846	199.2536	209.0266	233.064	240.3881	256.7446	274.8665	312.0621	328.8962	407.5956	413.496	451.0509	488.656	497.4684	623.0287	728.8194	803.9324	867.2788	878.0691	920.5691	941.3264	949.3187	953.0652	1004.9441	1022.6522	1040.4362	1069.7005	1104.2697	1127.7247	1153.6068	1196.9407	1212.2234	1246.7684	1248.8085	1301.5722	1319.5065	1347.0951	1362.0288	1380.8366	1395.2558	1399.0689	1405.1439	1411.0131	1429.3827	1474.3132	1482.3636	1483.7356	1485.7976	1492.7315	1500.4013	1501.337	1504.0747	1515.8108	2923.4692	2946.7396	3006.5242	3020.8669	3028.8803	3031.9587	3041.1117	3052.3592	3063.3251	3072.2208	3086.7137	3090.6576	3092.6148	3113.4032	3120.3314	3126.1592
CC1CCC(C)(C)CO1	C[C@H]1CCC(C)(C)CO1	
InChI=1S/C8H16O/c1-7-4-5-8(2,3)6-9-7/h7H,4-6H2,1-3H3	InChI=1S/C8H16O/c1-7-4-5-8(2,3)6-9-7/h7H,4-6H2,1-3H3/t7-/m0/s1
