22
gdb 101602	2.73254	0.93045	0.82331	2.5889	80.62	-0.2437	0.0265	0.2702	1528.5021	0.191297	-441.48132	-441.470261	-441.469317	-441.519023	38.771	
C	 0.1611219888	 0.6480340874	-0.7966042257	-0.236084
O	-0.3935642171	 0.0167020443	 0.3346017405	-0.251088
C	 0.5418857734	-0.4865786931	 1.2787030396	 0.137095
C	-0.267515039	-0.8254622756	 2.5260276693	-0.398577
C	 1.3000383268	-1.7219018101	 0.7460892862	-0.274138
C	 2.5112110537	-1.4096757396	-0.1024569292	 0.382224
N	 3.3427467512	-0.5100408035	 0.2259565746	-0.52249
O	 2.5537599661	-2.2360516966	-1.1856945194	-0.227164
C	 3.6639511833	-2.1142083493	-2.0621054022	-0.267007
H	 0.6335975859	-0.0659095381	-1.4876157496	 0.106103
H	-0.6627420581	 1.1382465132	-1.3230355964	 0.118534
H	 0.9104594509	 1.4032282619	-0.5183564956	 0.112644
H	 1.2843600997	 0.2900548264	 1.5129351544	 0.096971
H	-0.9786530929	-1.6316326829	 2.3175879868	 0.119748
H	 0.3898535392	-1.1425195712	 3.3408050068	 0.113235
H	-0.8334103506	 0.0506808582	 2.8519311331	 0.121818
H	 1.6550561335	-2.3080302753	 1.6015921161	 0.126518
H	 0.6097257986	-2.3551596682	 0.1827297504	 0.122642
H	 4.1203595552	-0.4211624784	-0.4249009904	 0.215039
H	 3.7096749202	-1.1164101073	-2.5155212826	 0.130257
H	 4.6084769259	-2.3167569548	-1.542688404	 0.131515
H	 3.5151883455	-2.8587671374	-2.8449666828	 0.142205
17.134	62.6365	102.1581	133.232	181.7064	216.8196	220.8301	232.685	285.9384	303.5864	334.1652	396.368	465.3334	495.6448	571.7017	675.3005	834.7971	850.4181	875.6811	902.4904	928.2846	1013.8999	1072.1701	1113.5611	1116.4534	1141.945	1157.8379	1174.9524	1183.6954	1209.7418	1217.9929	1247.3625	1278.3992	1343.1123	1386.3433	1389.8117	1410.0221	1457.5667	1472.2315	1478.4395	1483.3654	1490.9362	1493.5278	1502.6858	1505.9456	1510.8573	1727.491	2983.9253	3008.1623	3013.924	3034.3305	3040.0863	3047.9008	3076.7086	3101.5598	3105.7389	3113.2558	3125.6894	3143.3296	3507.8235
COC(C)CC(=N)OC	CO[C@@H](C)C[C]([NH])OC	
InChI=1S/C6H13NO2/c1-5(8-2)4-6(7)9-3/h5,7H,4H2,1-3H3	InChI=1S/C6H13NO2/c1-5(8-2)4-6(7)9-3/h5,7H,4H2,1-3H3/t5-/m0/s1
