17
gdb 90642	3.84436	1.10014	1.01854	2.8277	74.6	-0.2517	0.0165	0.2682	1204.0252	0.13546	-417.971252	-417.962666	-417.961722	-418.004161	32.362	
C	-0.039133107	 1.4564080183	-0.080274391	-0.405959
C	 0.0235838532	-0.0461816551	 0.0857811203	 0.126377
O	 1.0229152331	-0.6373767665	-0.8131897621	-0.295213
C	 1.7833979156	-1.0583310059	 0.2936489823	 0.086392
C	 0.8037604014	-0.542449884	 1.3077680578	-0.18472
C	 1.0130931344	-2.0538511141	 1.1653431312	 0.103734
N	-0.0150342536	-2.8772469846	 0.5986606158	-0.554905
C	 1.8242831515	-2.6222437392	 2.2232933624	 0.230646
N	 2.4532454475	-3.115940478	 3.0609403449	-0.339508
H	 0.9390023486	 1.9142249522	 0.0929467271	 0.127884
H	-0.3653409148	 1.7056376862	-1.0940959562	 0.135506
H	-0.7577133174	 1.8846012946	 0.6270924142	 0.122173
H	-0.9487349552	-0.5205814648	-0.071231496	 0.105584
H	 2.8650534794	-1.0600271694	 0.223102468	 0.127694
H	 0.9380426792	-0.0229354627	 2.2467537955	 0.121594
H	 0.3814217721	-3.6693426791	 0.1036617791	 0.248023
H	-0.6300634079	-3.2363634277	 1.3215931866	 0.244697
122.1966	141.9831	182.4958	217.073	245.429	276.974	311.5456	370.9498	453.6404	516.7529	557.3846	600.8867	714.9982	780.0397	801.6465	845.8438	860.8145	901.8773	929.9966	1018.0357	1046.5492	1058.7498	1088.4942	1096.9505	1129.2715	1157.7573	1227.1686	1261.9091	1270.1482	1308.3494	1367.3372	1383.119	1407.2302	1484.8262	1492.2705	1657.4447	2333.3258	3038.0601	3080.3066	3111.1981	3123.7035	3183.6783	3211.2314	3504.8601	3585.7272
CC1OC2C1C2(N)C#N	C[C@H]1O[C@H]2[C@@H]1[C@]2(N)C#N	
InChI=1S/C6H8N2O/c1-3-4-5(9-3)6(4,8)2-7/h3-5H,8H2,1H3	InChI=1S/C6H8N2O/c1-3-4-5(9-3)6(4,8)2-7/h3-5H,8H2,1H3/t3-,4-,5+,6-/m1/s1
