19
gdb 77684	1.8852	1.65374	1.574	2.4046	70.82	-0.2316	0.0613	0.2928	1031.4452	0.158126	-460.144252	-460.135139	-460.134195	-460.177197	35.212	
O	-0.3497989759	 1.5172761988	 0.0497514761	-0.416076
C	-0.182894132	 0.1269372868	 0.0754505365	-0.074344
C	-0.5061978577	-0.76403334	 1.2693887904	 0.291192
O	 0.3307534966	-1.8476681404	 1.5294701164	-0.456374
C	-1.3189229746	-0.1854289909	 2.4196996436	-0.279088
C	-2.5442483534	 0.4974954983	 1.7664669057	-0.215517
C	-2.7455973903	-0.2147965033	 0.4085072136	-0.270955
C	-1.3844927473	-0.7866968852	 0.0318993918	 0.329271
O	-1.3501463949	-1.8916709647	-0.8158797234	-0.461858
H	 0.3426783139	 1.9149434649	 0.5880148165	 0.288042
H	 0.653478263	-0.2559670028	-0.5122245944	 0.091267
H	 1.1225284288	-1.5188869814	 1.968795267	 0.279449
H	-1.6188639314	-1.0269716133	 3.0542909092	 0.112118
H	-0.7470686896	 0.5070239336	 3.0494316225	 0.081458
H	-3.4327177804	 0.4288951195	 2.3993932149	 0.095842
H	-2.3351246252	 1.5543071347	 1.5985431077	 0.116236
H	-3.4319407316	-1.0641063174	 0.4990020462	 0.108753
H	-3.1513341585	 0.4596169346	-0.3529691581	 0.098162
H	-1.4631323996	-1.5766401817	-1.719299522	 0.282422
157.9659	190.69	213.6094	216.6465	231.2745	251.8249	265.6932	301.8396	394.1601	397.5678	512.6506	519.1871	604.2018	617.4053	711.8539	728.7223	788.9601	893.585	915.9504	937.6981	991.8047	1027.6048	1069.9553	1085.8127	1135.2061	1182.7223	1197.3184	1220.8234	1238.4456	1254.4455	1284.3156	1295.1229	1311.1678	1319.1275	1344.5685	1357.4084	1368.7117	1477.4701	1489.1208	1489.7558	1522.9058	3025.9592	3038.6677	3065.8862	3072.5862	3078.122	3090.772	3128.6182	3795.0868	3797.3384	3800.8527
OC1C2(O)CCCC12O	O[C@H]1[C@@]2(O)CCC[C@@]12O	
InChI=1S/C6H10O3/c7-4-5(8)2-1-3-6(4,5)9/h4,7-9H,1-3H2	InChI=1S/C6H10O3/c7-4-5(8)2-1-3-6(4,5)9/h4,7-9H,1-3H2/t4-,5-,6+
