18
gdb 94394	2.90573	1.43379	1.25531	3.151	71.6	-0.2414	0.0292	0.2705	1056.7814	0.148483	-439.08765	-439.079611	-439.078667	-439.120497	30.484	
O	 0.3634233985	 1.0846523328	-0.5634987848	-0.427072
C	 0.1341933929	-0.1163448497	 0.1270658582	 0.079001
C	-0.1117735048	-0.0974701799	 1.6627659108	-0.273257
C	-1.2458989101	-1.1356627415	 1.4364326834	-0.294514
C	-1.2828340324	-0.7051329869	-0.0492779555	 0.378055
C	-2.4034695116	 0.2728997837	-0.4915045124	-0.250673
N	-3.0589343916	-0.3804824781	-1.6366162073	-0.260813
C	-2.4228489602	-1.4580661076	-1.8214232062	 0.100422
O	-1.3828313756	-1.777940681	-1.0102475573	-0.261099
H	 1.2837905259	 1.3389214517	-0.4477699886	 0.289944
H	 0.8715665545	-0.886106333	-0.1389137543	 0.083516
H	 0.7168273055	-0.3787100986	 2.3149925497	 0.10213
H	-0.5037151531	 0.8750493181	 1.9723338301	 0.115427
H	-0.8934219224	-2.1651638029	 1.535312926	 0.117649
H	-2.1696859081	-1.0158896227	 2.0061691682	 0.109293
H	-3.1343276857	 0.4515915809	 0.3045775183	 0.111999
H	-1.9963489748	 1.2397414395	-0.799341822	 0.14389
H	-2.629248037	-2.1900233246	-2.5944789962	 0.136101
72.7516	117.2647	190.551	229.9795	272.0538	344.7657	424.6314	486.6031	506.0283	562.5506	671.7814	794.784	798.7546	853.2844	911.3143	914.2672	941.8745	959.5899	969.5906	984.2068	1074.8494	1100.0603	1120.7669	1139.9498	1155.5347	1173.997	1196.194	1233.4645	1249.9532	1265.339	1271.9613	1315.9199	1332.0039	1340.1871	1428.1083	1478.4127	1493.1681	1500.9328	1713.2638	3012.3803	3044.8054	3066.6884	3070.5475	3095.724	3118.6004	3132.623	3214.9577	3829.5487
OC1CCC11CN=CO1	O[C@H]1CC[C@]21CN=CO2	
InChI=1S/C6H9NO2/c8-5-1-2-6(5)3-7-4-9-6/h4-5,8H,1-3H2	InChI=1S/C6H9NO2/c8-5-1-2-6(5)3-7-4-9-6/h4-5,8H,1-3H2/t5-,6+/m0/s1
