15
gdb 99415	1.73749	1.44947	1.27888	4.2738	75.5	-0.309	-0.0167	0.2923	1133.8984	0.109747	-379.648071	-379.638397	-379.637452	-379.682538	34.064	
C	-0.056658495	 1.5600476916	 0.0790750339	-0.420427
C	 0.0054499546	 0.0368412378	-0.0044481897	-0.194911
C	 0.7363667068	-0.5051806312	-1.2876168582	-0.263398
C	 0.7458196514	-1.9736977023	-1.2790634652	 0.320848
C	 0.7335152692	-3.1717843708	-1.2366717566	-0.383503
C	 0.0322526729	-0.021590769	-2.4974428686	 0.323996
N	-0.5499936509	 0.3624391303	-3.4170882025	-0.324038
C	 2.1287470302	-0.0011895561	-1.3118811202	 0.323988
N	 3.2111096313	 0.3991302674	-1.2901620231	-0.324033
H	 0.943964372	 2.0008190052	 0.1047747268	 0.15189
H	-0.5998969919	 1.9858139824	-0.7693445576	 0.151897
H	-0.5776572168	 1.8535626818	 0.9941541159	 0.134133
H	 0.5386489739	-0.3854556299	 0.8516367359	 0.140806
H	-0.9966157559	-0.4004591506	-0.0165345819	 0.140808
H	 0.7299889181	-4.2344826663	-1.2122909488	 0.221944
101.701	119.229	123.8865	150.4936	166.0974	186.2794	264.564	342.2368	357.5151	474.0768	489.3598	560.9357	575.6416	587.2034	637.6106	670.3476	686.0876	792.4386	941.3599	990.16	1038.2777	1046.0567	1152.8423	1184.3971	1310.3598	1355.9181	1419.8673	1481.1428	1496.5811	1504.2552	2253.4081	2365.9276	2371.6498	3048.9334	3066.0155	3108.5483	3124.4393	3130.902	3496.7452
CCC(C#C)(C#N)C#N	CCC(C#C)(C#N)C#N	
InChI=1S/C7H6N2/c1-3-7(4-2,5-8)6-9/h1H,4H2,2H3	InChI=1S/C7H6N2/c1-3-7(4-2,5-8)6-9/h1H,4H2,2H3
