17
gdb 98909	7.00668	0.56192	0.52584	2.9909	91.82	-0.2411	-0.0195	0.2216	2043.8424	0.131502	-384.659861	-384.649464	-384.64852	-384.697063	35.919	
C	-0.1466092349	 1.4998116757	-0.2225093226	-0.38151
C	-0.058394721	 0.0039604503	 0.0690357718	-0.27837
C	 0.8079414792	-0.3261635124	 1.2768181771	 0.388908
O	 1.2710632036	 0.5155988967	 2.0016677239	-0.269779
C	 1.0546946363	-1.8357684551	 1.4982352269	-0.528964
C	 1.7283477985	-2.164303111	 2.7378917993	 0.398516
C	 2.287623068	-2.4456981251	 3.772179199	-0.206024
C	 2.9168780214	-2.7617041405	 4.9363463331	 0.2967
C	 3.4748597306	-3.0457897363	 5.9687613469	-0.557435
H	 0.8406415487	 1.9136338883	-0.4438030913	 0.132592
H	-0.8000468476	 1.6874125483	-1.0787742852	 0.113469
H	-0.5394488255	 2.040642133	 0.6415459934	 0.138658
H	-1.0553351352	-0.4197503823	 0.2577034481	 0.128257
H	 0.3269844554	-0.5525771356	-0.7961300419	 0.12068
H	 0.0906138666	-2.3582394685	 1.4284465533	 0.153406
H	 1.6379306458	-2.1952984158	 0.6375567556	 0.160042
H	 3.9664675999	-3.2907364097	 6.8772142625	 0.190855
22.842	53.4774	63.7301	145.8627	182.5556	190.1015	245.5991	339.4536	341.3101	386.2428	457.5023	521.316	546.2429	592.5706	594.4021	642.0466	734.964	746.7219	821.5348	893.971	988.9844	1029.3964	1085.1856	1121.0358	1184.5687	1212.2845	1289.1862	1320.9448	1370.0651	1414.5641	1433.2192	1454.2302	1491.8583	1498.4831	1829.6297	2185.7043	2371.4341	3005.7502	3017.0719	3035.3285	3046.2154	3053.3932	3124.0962	3131.8083	3505.9888
CCC(=O)CC#CC#C	CCC(=O)CC#CC#C	
InChI=1S/C8H8O/c1-3-5-6-7-8(9)4-2/h1H,4,7H2,2H3	InChI=1S/C8H8O/c1-3-5-6-7-8(9)4-2/h1H,4,7H2,2H3
