23
gdb 101580	2.7385	0.87468	0.74853	1.7611	83.21	-0.2643	0.0214	0.2857	1668.4946	0.202522	-425.486323	-425.474948	-425.474004	-425.52438	39.791	
C	 0.0331542397	 1.5548093224	 0.1151183428	-0.38796
C	-0.0071670959	 0.0249507457	 0.0999400229	-0.178504
C	-1.4157090944	-0.5506470703	-0.0224514478	 0.148215
C	-1.4425214689	-2.0727039755	-0.1084567958	-0.410193
O	-2.141665453	-0.1200460495	 1.1608746038	-0.262753
C	-3.4814936404	-0.0063838139	 1.0588182811	 0.449955
O	-4.1083571499	-0.2434198227	 0.0552738979	-0.361409
C	-4.0786715362	 0.4609197483	 2.3723193296	-0.3018
C	-5.5985766949	 0.5930925334	 2.3191854396	-0.369812
H	 1.0610465367	 1.9197254226	 0.1993677865	 0.113435
H	-0.3947505129	 1.9708638384	-0.8037170425	 0.116112
H	-0.536753243	 1.9507926328	 0.9598941684	 0.126278
H	 0.5807741321	-0.3568783546	-0.7433371919	 0.099921
H	 0.4570650065	-0.3740749348	 1.0104302923	 0.103409
H	-1.9277920362	-0.1255857184	-0.8915857051	 0.104923
H	-0.9852739545	-2.5183188002	 0.7808443253	 0.119179
H	-2.4699737901	-2.4320943946	-0.1974686894	 0.13971
H	-0.884766085	-2.4096734047	-0.9878348289	 0.117873
H	-3.7625236985	-0.2440255983	 3.1503093179	 0.129953
H	-3.6017331556	 1.4130752915	 2.6338490406	 0.129948
H	-5.9872874783	 0.9340734889	 3.2827762826	 0.1103
H	-5.9023354752	 1.3079387199	 1.5504180593	 0.132062
H	-6.066549832	-0.3642724363	 2.0763785807	 0.131154
25.4546	60.7077	73.4559	118.8748	147.4461	199.6508	213.4798	228.216	245.2982	291.1294	347.1446	411.0345	462.9555	495.3836	588.2207	664.1253	771.9192	810.3427	833.7323	882.7444	918.0606	979.5079	1002.3414	1020.7055	1037.6342	1098.3299	1106.5122	1138.8401	1145.4111	1200.362	1214.6251	1278.0195	1300.0139	1329.1974	1368.2753	1395.937	1397.5499	1405.9886	1410.0587	1415.252	1458.5199	1475.5748	1489.4471	1493.0751	1497.2024	1500.0711	1503.2641	1509.5514	1810.08	3028.5144	3037.8038	3041.4637	3042.0007	3051.7135	3058.9633	3070.8705	3073.1165	3103.9141	3112.6578	3120.5627	3122.9803	3128.9036	3132.6029
CCC(C)OC(=O)CC	CC[C@@H](C)OC(=O)CC	
InChI=1S/C7H14O2/c1-4-6(3)9-7(8)5-2/h6H,4-5H2,1-3H3	InChI=1S/C7H14O2/c1-4-6(3)9-7(8)5-2/h6H,4-5H2,1-3H3/t6-/m1/s1
