18
gdb 65366	3.32337	0.99893	0.97701	4.9444	79.06	-0.2378	0.0267	0.2645	1290.729	0.147525	-398.082967	-398.074025	-398.07308	-398.116835	33.209	
N	 0.070548288	 1.425884978	 0.0424207682	-0.563634
C	 0.0202841571	-0.0195166371	 0.0139901463	 0.148418
C	-0.4986803797	-0.7449101999	 1.2388819774	-0.329061
C	-1.3210093662	-0.7745370433	-0.020496151	-0.014462
N	-2.4841270171	 0.0590798568	-0.0577435255	-0.074361
C	-3.3416214218	-0.054949267	-1.2365333726	-0.226643
C	-3.7794062968	-0.6089576492	 0.0740708381	-0.218996
C	 1.1128961672	-0.6280100878	-0.7045085175	 0.266421
N	 1.9661846309	-1.1281236637	-1.3044776515	-0.343967
H	 0.1664175266	 1.7739972712	-0.9087537872	 0.238867
H	-0.8364915165	 1.7532918423	 0.3684360012	 0.245869
H	 0.0037652314	-1.6508395285	 1.5551676648	 0.139955
H	-0.8485692877	-0.1029231487	 2.0400827098	 0.135378
H	-1.3532859597	-1.7118249891	-0.5801714197	 0.097759
H	-3.7579871999	 0.8769503371	-1.6067216561	 0.125511
H	-3.0491813949	-0.7642039788	-2.0080878342	 0.12471
H	-3.7819897788	-1.6909527523	 0.1849025302	 0.122158
H	-4.5171387321	-0.08561278	 0.6748914093	 0.12608
71.2716	117.2431	132.4574	203.191	225.9557	276.803	319.3697	364.0131	447.3861	479.549	579.201	602.2925	706.7657	748.3351	825.4529	845.7875	892.02	904.1084	930.5261	991.6444	1019.9632	1042.2302	1064.9543	1079.9956	1109.5714	1120.3752	1125.7445	1158.2545	1178.0111	1210.3973	1302.0768	1320.4682	1351.0498	1420.1906	1472.1857	1492.506	1519.8925	1665.4708	2352.9199	3075.2196	3104.9767	3109.3987	3142.562	3188.6633	3202.96	3238.4214	3473.3851	3550.8751
NC1(CC1N1CC1)C#N	N[C@]1(C[C@H]1N1CC1)C#N	
InChI=1S/C6H9N3/c7-4-6(8)3-5(6)9-1-2-9/h5H,1-3,8H2	InChI=1S/C6H9N3/c7-4-6(8)3-5(6)9-1-2-9/h5H,1-3,8H2/t5-,6-/m1/s1
