19
gdb 78038	2.54021	1.49201	1.30393	1.766	70.27	-0.237	0.0607	0.2977	1053.6313	0.159449	-460.148954	-460.140401	-460.139457	-460.18146	33.902	
O	 0.074279995	 1.4050952212	 0.0409151208	-0.435996
C	-0.0440518244	 0.0133878086	 0.0308401637	 0.036486
C	-0.5265959534	-0.7492202	 1.2492588874	-0.146787
C	-1.1689234141	 0.0960500826	 2.329166307	 0.093795
O	-0.1665998639	 0.9762852386	 2.8679193797	-0.43974
C	-2.3393359502	 0.8624673747	 1.6485192614	-0.256235
C	-2.634808224	 0.133747433	 0.3198356359	-0.275065
C	-1.3838434409	-0.6757698705	 0.0024480283	 0.343374
O	-1.5309965173	-1.8236883316	-0.7794180761	-0.469622
H	 0.3471288179	 1.6484143925	 0.9365483052	 0.295656
H	 0.7279156968	-0.4979569211	-0.5444449673	 0.090807
H	-0.0065693718	-1.6583698059	 1.526359261	 0.095129
H	-1.5439655381	-0.5519490611	 3.1330904587	 0.077765
H	-0.5872280683	 1.5448071267	 3.521782431	 0.285889
H	-3.2205033241	 0.9131932939	 2.2948756218	 0.094529
H	-2.0071753571	 1.8834908776	 1.4514400481	 0.114637
H	-3.4607649598	-0.5771473974	 0.4276838809	 0.10852
H	-2.9030971924	 0.8327588477	-0.4796644802	 0.103376
H	-1.5433171198	-1.5530265494	-1.7041202073	 0.283479
139.801	162.2711	213.4986	237.4384	297.6911	304.2146	354.3444	402.8017	456.4531	478.4198	520.3791	551.4633	589.489	704.8232	726.0655	791.9441	850.9933	921.0318	930.0034	973.2211	993.635	1017.9829	1049.2316	1076.7631	1098.6292	1135.8434	1181.178	1219.7201	1234.7174	1245.3605	1265.7466	1306.8717	1330.987	1333.9677	1344.786	1352.8087	1398.7687	1416.2548	1460.3685	1482.0169	1503.8236	3002.9803	3040.9383	3061.6425	3079.7504	3103.1274	3118.7534	3184.7225	3736.983	3796.5573	3808.8149
OC1C2C(O)CCC12O	O[C@H]1[C@H]2[C@@H](O)CC[C@@]12O	
InChI=1S/C6H10O3/c7-3-1-2-6(9)4(3)5(6)8/h3-5,7-9H,1-2H2	InChI=1S/C6H10O3/c7-3-1-2-6(9)4(3)5(6)8/h3-5,7-9H,1-2H2/t3-,4+,5-,6-/m0/s1
