21
gdb 121753	6.28707	0.52112	0.4885	3.0259	77.12	-0.2656	0.0199	0.2855	2246.319	0.179529	-461.400431	-461.389213	-461.388269	-461.439104	37.785	
C	-0.2419599839	 1.5290235659	 0.0145873697	-0.391093
C	-0.0335481074	 0.0270127404	 0.0026046091	-0.041564
O	-1.3338239453	-0.5948955322	 0.0119530438	-0.248692
C	-1.3398459618	-1.9436212992	 0.0032914434	 0.449243
O	-0.3399413155	-2.6167223406	-0.0111644789	-0.353511
C	-2.7608650902	-2.4716648502	 0.0140840284	-0.336897
C	-2.8277970644	-3.9973596692	 0.0082612462	-0.157486
C	-4.2611667642	-4.5107893835	 0.018437431	-0.076442
O	-4.2141790058	-5.9283485497	 0.0119117964	-0.419995
H	 0.7263137971	 2.0383393969	 0.0079160376	 0.123121
H	-0.8073326076	 1.8524659397	-0.8640070412	 0.128906
H	-0.7890155068	 1.8408661758	 0.9088318304	 0.128908
H	 0.5118454951	-0.3046338268	-0.886716307	 0.121482
H	 0.5300358452	-0.3161896023	 0.876053155	 0.121501
H	-3.2659248812	-2.0506610103	 0.8926683875	 0.129345
H	-3.2815311155	-2.0435601438	-0.8519137911	 0.129391
H	-2.3121845087	-4.3911441084	-0.873065026	 0.122097
H	-2.297163738	-4.3985578776	 0.8772604293	 0.121975
H	-4.7874714104	-4.1326333364	 0.9112261653	 0.082089
H	-4.8027695308	-4.1249782569	-0.8618494079	 0.082088
H	-5.1165646499	-6.2601206417	 0.018922039	 0.285533
24.0104	53.5366	69.5987	88.196	122.9314	150.6911	199.6225	259.8544	263.2114	287.2768	336.5457	390.418	516.5135	584.2176	712.9426	761.8291	806.3747	877.2825	880.6484	946.5772	1025.0193	1045.3832	1073.7159	1091.984	1116.8226	1136.2853	1183.2419	1190.2067	1208.3344	1251.7896	1290.5754	1296.1157	1310.0458	1315.5975	1386.2835	1404.8968	1425.0057	1460.1561	1468.6722	1486.3195	1495.3848	1496.2524	1520.4931	1528.483	1818.1216	2951.8454	2975.5211	3031.6534	3045.8315	3050.3087	3060.4721	3061.8203	3087.4466	3105.4869	3120.0921	3125.0842	3830.9287
CCOC(=O)CCCO	CCOC(=O)CCCO	
InChI=1S/C6H12O3/c1-2-9-6(8)4-3-5-7/h7H,2-5H2,1H3	InChI=1S/C6H12O3/c1-2-9-6(8)4-3-5-7/h7H,2-5H2,1H3
