18
gdb 65938	2.25161	1.5244	1.33365	2.9903	75.9	-0.2485	0.0209	0.2694	1069.0605	0.146335	-401.929521	-401.920758	-401.919814	-401.963006	32.759	
C	-0.1596023297	 1.5423663227	 0.0896405222	-0.450454
C	-0.0405184564	 0.0159979431	 0.0238091912	-0.010497
C	 1.1878804982	-0.5046289042	-0.7835092746	-0.106083
O	 1.8659009322	-0.9042835408	 0.4224538374	-0.300985
C	 0.7076259624	-0.6340578808	 1.2079468175	 0.448062
C	 0.783604088	-0.227984449	 2.6378588843	-0.339511
C	 0.2040780797	-1.5817568739	 2.2407928694	-0.341159
C	-1.316434503	-0.603653304	-0.313736313	 0.259241
N	-2.3323968693	-1.0931659706	-0.5686836465	-0.345602
H	 0.8090236187	 1.9732356572	 0.3554760839	 0.138782
H	-0.4745948814	 1.9481715551	-0.8758957757	 0.138693
H	-0.8931238483	 1.8458292715	 0.8415133466	 0.139228
H	 0.9752090211	-1.3545419251	-1.4401597783	 0.126241
H	 1.7377994267	 0.2663741187	-1.3324308897	 0.11714
H	 1.7706977292	-0.2164252433	 3.087773764	 0.132919
H	 0.1091198675	 0.53980082	 3.0028120801	 0.12328
H	-0.8669734449	-1.7350344085	 2.3239981394	 0.13781
H	 0.8096791393	-2.4610309781	 2.4313110118	 0.132895
61.619	126.5562	182.8681	204.8916	242.6368	281.5979	325.5325	357.2921	481.9682	519.5425	552.1535	608.8343	638.313	755.9968	870.4185	879.3025	896.1328	940.0648	951.9417	985.0519	994.2798	1031.1762	1053.3467	1074.3753	1141.1889	1155.8451	1180.944	1186.7232	1224.5053	1255.999	1351.4361	1372.3206	1413.7108	1447.8037	1485.8889	1494.9297	1496.7758	1525.5416	2353.2093	3036.5441	3046.0638	3091.7514	3121.482	3129.282	3130.2211	3133.1439	3214.0582	3228.4023
CC1(COC11CC1)C#N	C[C@]1(COC21CC2)C#N	
InChI=1S/C7H9NO/c1-6(4-8)5-9-7(6)2-3-7/h2-3,5H2,1H3	InChI=1S/C7H9NO/c1-6(4-8)5-9-7(6)2-3-7/h2-3,5H2,1H3/t6-/m1/s1
