20
gdb 119671	3.75146	1.04049	0.9458	2.0059	79.4	-0.2297	0.0765	0.3062	1296.0421	0.171127	-403.044295	-403.035993	-403.035049	-403.077675	31.894	
O	 0.0838158568	 1.3766718465	 0.0347477288	-0.417594
C	 0.0544546979	-0.0420119913	 0.0461141811	-0.061572
C	-1.3739314252	-0.5995575404	 0.075934789	-0.363024
C	-1.4116031498	-2.1013860086	 0.121998575	 0.386133
C	-0.7806347876	-3.059906329	 1.146748138	-0.304885
C	-1.3485127383	-3.9470073981	 0.0409402912	-0.001586
C	-2.6091806567	-3.063632653	-0.1862355159	-0.113348
C	-2.2702951261	-3.0015281051	-1.6698603084	-0.193107
N	-0.8684560135	-2.9720671372	-1.0672539171	-0.190582
H	-0.2833528571	 1.6713429613	-0.8046431665	 0.28073
H	 0.5982672021	-0.4702001485	-0.807876595	 0.112353
H	 0.5904084735	-0.3402266774	 0.953133961	 0.114095
H	-1.8992616878	-0.1925951822	 0.9486825256	 0.112654
H	-1.9182893334	-0.2477169687	-0.8117140403	 0.091293
H	 0.3093299281	-3.0345665893	 1.2324436793	 0.108485
H	-1.2630611235	-3.1186655422	 2.1260577732	 0.09841
H	-1.2606912878	-5.0243624842	-0.1084918004	 0.082139
H	-3.5742602104	-3.1194942231	 0.3296746574	 0.063103
H	-2.459255318	-3.8931654491	-2.2768282379	 0.099534
H	-2.5306512033	-2.0995643104	-2.233135958	 0.096768
74.236	88.2863	132.7164	281.2791	292.0979	340.9294	360.4034	435.3336	470.2269	672.3484	718.7713	753.3597	788.6226	842.7309	863.5245	883.7789	917.5847	930.6657	968.2445	1018.6122	1026.2304	1036.3745	1071.8924	1072.8886	1082.6742	1113.1995	1132.8232	1157.3908	1171.6234	1194.7208	1220.0081	1242.3299	1265.4653	1282.154	1294.8313	1327.5165	1345.3614	1400.0901	1420.1347	1472.0745	1494.1799	1514.2908	1521.1884	3007.8393	3012.0829	3032.8755	3045.1951	3053.6782	3056.3215	3083.1697	3093.546	3103.9887	3117.7854	3816.4918
OCCC12CC3C1CN23	OCC[C@@]12C[C@H]3[C@@H]1CN23	
InChI=1S/C7H11NO/c9-2-1-7-3-6-5(7)4-8(6)7/h5-6,9H,1-4H2	InChI=1S/C7H11NO/c9-2-1-7-3-6-5(7)4-8(6)7/h5-6,9H,1-4H2/t5-,6-,7+/m0/s1
