19
gdb 37528	3.54141	1.87999	1.63365	1.8178	76.05	-0.2359	0.0797	0.3156	877.7443	0.163947	-385.864548	-385.858697	-385.857752	-385.8945	25.711	
C	-0.0544288023	 1.6068379883	-0.1023211475	-0.232527
C	 1.4359110875	 2.0245625519	 0.0605890861	-0.237784
C	 2.1747382068	 0.7122901948	 0.3707111549	-0.001497
C	 1.8148497176	 0.1363634049	 1.7574760959	 0.070542
O	 2.4137780708	-1.189551168	 1.7270085019	-0.297825
C	 1.3645598964	-1.4861099238	 0.7946972421	 0.096826
C	 0.3921709538	-0.4635841993	 1.4217327459	-0.089195
C	-0.004896575	 0.0824394806	 0.0315922858	-0.020646
C	 1.4142511332	-0.4209304289	-0.3797226219	-0.109217
H	-0.7029040209	 2.0573176135	 0.6564166153	 0.098095
H	-0.4479142316	 1.9090335136	-1.0780033657	 0.09806
H	 1.8210546321	 2.465735867	-0.8639300478	 0.10109
H	 1.5847340829	 2.7685784627	 0.8503431729	 0.096541
H	 3.2542934178	 0.7493119111	 0.2186014193	 0.070397
H	 2.0447034379	 0.7063062752	 2.6575803262	 0.075915
H	 1.1888403109	-2.5425005038	 0.5991857138	 0.081202
H	-0.2962286473	-0.6794856595	 2.2371859879	 0.071372
H	-0.8449811828	-0.4613761233	-0.4049935855	 0.065076
H	 1.6896920621	-0.660390447	-1.4050911797	 0.063576
171.0591	312.7439	387.8792	524.221	620.8946	629.5811	755.1967	766.6387	784.1577	813.708	845.2119	856.7171	870.6672	881.5127	905.6228	931.3098	965.5189	969.1553	972.8404	1009.4043	1045.8008	1056.38	1064.5764	1093.3343	1121.863	1152.864	1172.3119	1178.204	1211.0027	1227.3668	1237.0613	1265.4644	1267.363	1271.0749	1307.5343	1319.1781	1327.3833	1340.036	1367.7617	1487.5306	1507.2184	3038.6278	3049.1806	3069.1331	3090.1271	3095.0016	3104.0445	3119.7665	3128.2524	3132.0173	3143.1103
C1CC2C3OC4C3C1C24	C1C[C@H]2[C@@H]3O[C@H]4[C@@H]3[C@@H]1[C@@H]24	
InChI=1S/C8H10O/c1-2-4-5-3(1)6-7(4)9-8(5)6/h3-8H,1-2H2	InChI=1S/C8H10O/c1-2-4-5-3(1)6-7(4)9-8(5)6/h3-8H,1-2H2/t3-,4+,5-,6+,7-,8+/m0/s1
