14
gdb 27505	2.04248	1.98017	1.00628	5.4404	68.9	-0.2335	-0.0107	0.2228	1084.7772	0.104654	-466.280168	-466.272561	-466.271617	-466.312347	29.017	
N	 0.0077506693	 1.3499793203	 0.1257872609	-0.568031
C	-0.0420729641	-0.0136823774	 0.0292853351	 0.47326
N	-1.1812274189	-0.6229733221	 0.0173086883	-0.37485
C	-1.193836325	-2.0106053329	-0.0042383233	 0.411291
N	-2.230075698	-2.7506409453	-0.0006308817	-0.557544
N	 0.0584700407	-2.6587988868	-0.044366311	-0.375739
C	 1.2813535219	-2.0532206539	-0.026498758	 0.480495
O	 2.3516584931	-2.6159842559	-0.0245146492	-0.390498
N	 1.1756384457	-0.6557517794	-0.0101193912	-0.411562
H	 0.7920545178	 1.8316094459	-0.2852723454	 0.26385
H	-0.8871672535	 1.7955085643	-0.010265881	 0.277926
H	-3.0560481893	-2.1555203235	 0.0291639843	 0.222612
H	 0.0466122363	-3.6680156381	-0.0573487971	 0.278602
H	 2.0474701239	-0.1623066653	 0.1029391491	 0.270187
111.8004	135.8875	204.4083	343.3439	355.7395	383.2959	496.6984	527.9115	538.7327	554.8308	596.8899	634.6573	671.7299	724.2872	752.2038	768.1144	860.1102	961.1025	996.5871	1034.948	1110.4181	1204.3445	1299.4779	1327.9777	1392.5078	1434.052	1527.532	1627.5311	1703.9974	1734.6213	1849.6167	3513.7697	3584.4642	3634.4579	3640.8805	3698.6811
NC1=NC(=N)NC(=O)N1	N[C]1N=C([NH])NC(=O)N1	
InChI=1S/C3H5N5O/c4-1-6-2(5)8-3(9)7-1/h(H5,4,5,6,7,8,9)	InChI=1S/C3H5N5O/c4-1-6-2(5)8-3(9)7-1/h(H5,4,5,6,7,8,9)
