18
gdb 18583	3.67885	1.9586	1.5744	1.6836	71.83	-0.2369	0.0141	0.251	856.4664	0.155996	-347.804295	-347.797504	-347.79656	-347.835134	27.358	
O	 0.6128843612	 0.7684178305	-0.9301086156	-0.431331
C	 0.1137601786	-0.2566751623	-0.1099638513	 0.156314
C	 0.1727859579	-0.0931997157	 1.4348953261	-0.278465
C	-1.28477499	-0.6298501832	 1.5457653666	-0.007872
C	-2.3104551405	 0.3219080609	 2.1939155258	-0.269165
C	-2.7312191194	 1.201698061	 1.0378060905	-0.060163
C	-2.2680790312	 0.7685942869	-0.1372557327	-0.099026
C	-1.4310376734	-0.4759681432	-0.0084903944	-0.103092
H	 0.1531442917	 1.5798317594	-0.6854339204	 0.277096
H	 0.6186208854	-1.1692453598	-0.4391439218	 0.087035
H	 0.9543429288	-0.6501106926	 1.9570396006	 0.100408
H	 0.2473582784	 0.959547193	 1.7279068954	 0.093717
H	-1.3407329377	-1.6510207651	 1.9243505788	 0.067089
H	-3.1748157382	-0.2105716682	 2.6144270151	 0.104574
H	-1.8719350787	 0.8950411113	 3.0215627111	 0.103631
H	-3.3649167063	 2.0726289012	 1.171645705	 0.09292
H	-2.4765930179	 1.2340568148	-1.0951423642	 0.097919
H	-1.8258373987	-1.3095005585	-0.5989727645	 0.06841
94.3457	200.0883	311.3786	367.3657	409.9027	426.6081	530.4461	632.2382	697.7583	751.4649	781.264	797.0807	855.7795	893.1997	939.6849	942.2701	953.751	984.8215	1026.0626	1050.5342	1064.0248	1095.562	1130.7869	1135.5615	1173.6868	1195.9453	1228.1884	1246.5393	1260.8859	1297.5803	1306.4968	1325.1183	1333.7367	1380.5711	1440.4767	1477.1642	1485.3576	1670.4151	3008.3709	3037.1343	3043.7402	3048.1656	3071.9921	3095.5321	3112.7967	3173.3166	3198.4792	3790.51
OC1CC2CC=CC12	O[C@H]1C[C@H]2CC=C[C@@H]12	
InChI=1S/C7H10O/c8-7-4-5-2-1-3-6(5)7/h1,3,5-8H,2,4H2	InChI=1S/C7H10O/c8-7-4-5-2-1-3-6(5)7/h1,3,5-8H,2,4H2/t5-,6-,7+/m1/s1
