18
gdb 39544	3.27002	2.01077	1.58443	1.863	77.81	-0.2381	0.0146	0.2528	874.0965	0.151986	-364.767786	-364.761797	-364.760853	-364.797794	25.836	
C	-0.0047771682	 1.5848259373	 0.052912161	-0.297056
C	 1.3323952447	 2.2680555659	-0.0880146707	-0.05625
C	 2.4803021861	 1.6070666687	-0.2421984046	-0.082779
C	 2.5116006899	 0.1065938944	-0.2920220589	-0.043729
C	 2.2237536321	-0.7016382213	 0.9748059432	-0.053805
C	 0.744810953	-0.7072896202	 1.1742261092	-0.058226
C	 0.0985369978	 0.0563120197	 0.0233070803	-0.002653
C	 1.2300950964	-0.5902944771	-0.8059162	-0.044031
N	 1.3843260707	-1.7172356656	 0.2544896747	-0.178095
H	-0.4848112674	 1.8992489017	 0.991033669	 0.110979
H	-0.6776706845	 1.9368474756	-0.7426502552	 0.107908
H	 1.3275306778	 3.3553409133	-0.0682618381	 0.088934
H	 3.4166634681	 2.1496156538	-0.3396735699	 0.086514
H	 3.4004170142	-0.2828329132	-0.7944473563	 0.079926
H	 2.9164465456	-0.9920306174	 1.757183161	 0.091968
H	 0.289727341	-1.0116370878	 2.1106249654	 0.090562
H	-0.8627822303	-0.4051218687	-0.220463898	 0.082018
H	 1.1066066329	-0.844288829	-1.8567581121	 0.077814
187.7681	276.3249	396.7457	471.4314	509.0767	596.8424	699.9774	725.0058	747.3059	796.1081	805.2743	820.9979	879.9891	911.1505	924.8072	933.4059	959.4941	998.832	1005.1242	1029.6143	1044.0216	1059.131	1063.0403	1102.1036	1128.336	1133.3088	1190.9414	1201.8935	1218.749	1256.1447	1280.3277	1313.9055	1343.0105	1363.9008	1379.7689	1388.3458	1417.6672	1470.092	1713.1096	2998.3754	3019.4042	3068.8364	3081.0763	3136.937	3146.8169	3167.869	3171.1267	3180.4842
C1C=CC2C3C4C1C2N34	C1C=C[C@H]2[C@H]3[C@H]4[C@@H]1[C@@H]2N34	
InChI=1S/C8H9N/c1-2-4-6-5(3-1)8-7(4)9(6)8/h1-2,4-8H,3H2	InChI=1S/C8H9N/c1-2-4-6-5(3-1)8-7(4)9(6)8/h1-2,4-8H,3H2/t4-,5+,6-,7+,8-,9?/m1/s1
