18
gdb 55042	2.98227	1.27804	1.01268	4.4535	71.87	-0.2514	0.0143	0.2657	1189.924	0.149463	-439.112028	-439.103909	-439.102965	-439.144971	30.8	
O	 0.3464092693	 0.6357851451	-0.8296046437	-0.346987
C	-0.102377311	 1.4610555848	-0.0885934576	 0.434626
O	 0.6841812934	 2.1298358612	 0.8171890894	-0.242279
C	-1.5099229171	 1.942652132	 0.0461740814	-0.182817
C	-2.0909147175	 1.7878293345	 1.4431214562	-0.305203
C	-1.4710869377	 3.0839683835	 1.0351910643	-0.039036
C	-0.0028791374	 3.2609346044	 1.3883329621	 0.104318
C	 0.6008823177	 4.5470067209	 0.8201988223	-0.181783
N	-0.017326017	 5.7071580269	 1.4653404006	-0.51426
H	 0.2317509658	 6.55520639	 0.9678897586	 0.23734
H	 0.3432503002	 5.8160846922	 2.4088619572	 0.231701
H	-2.1516917974	 1.8888887237	-0.8219411571	 0.117641
H	-3.1722527223	 1.7446437593	 1.5037218626	 0.127042
H	-1.5708372567	 1.1487506603	 2.1501118342	 0.132063
H	-2.0675845143	 3.9795857927	 0.9255234567	 0.120433
H	 0.1667856066	 3.2211731034	 2.4718147179	 0.091228
H	 1.6951978163	 4.4871211552	 0.9222566557	 0.102783
H	 0.3801897091	 4.5890226398	-0.2527467508	 0.11319
85.7913	125.0868	185.7127	225.9002	244.5224	316.4734	406.8939	467.3341	488.169	642.2267	738.5482	768.9329	783.3805	810.2987	850.2415	871.7212	946.9984	956.0838	978.6681	1004.4597	1022.6395	1069.8327	1076.749	1094.5335	1108.7086	1127.3927	1175.4991	1197.6418	1206.9241	1297.0858	1319.1816	1352.4885	1363.8729	1391.5832	1425.2437	1489.8341	1506.569	1661.8791	1881.1088	2987.1136	3027.0281	3066.0767	3130.624	3210.7717	3216.1167	3226.1961	3497.9922	3578.3241
[O-]C(=O)C1CC1C1C[NH2+]1	O=C1O[C@H]([C@H]2[C@@H]1C2)CN	
InChI=1S/C6H9NO2/c8-6(9)4-1-3(4)5-2-7-5/h3-5,7H,1-2H2,(H,8,9)	InChI=1S/C6H9NO2/c7-2-5-3-1-4(3)6(8)9-5/h3-5H,1-2,7H2/t3-,4+,5+/m1/s1
