19
gdb 62841	2.60041	1.83909	1.51431	2.6152	76.1	-0.2356	0.0638	0.2994	961.1357	0.158042	-422.878811	-422.870841	-422.869897	-422.910581	32.398	
C	-0.1106420085	 1.5511689028	 0.0679350249	-0.496601
C	 0.0205998309	 0.0379134113	-0.0539092587	 0.423253
O	-1.2653998135	-0.5022604309	-0.2951228935	-0.484387
C	 1.1817133967	-0.6166774229	-0.8457083526	-0.16834
C	 2.1683339606	-0.1647476877	 0.3416685225	-0.327459
C	 0.8846728875	-0.7875333353	 0.9732020393	 0.364336
O	 0.2764458655	-1.5297814437	 2.0266867411	-0.361089
C	-0.0728396729	-2.5472788714	 0.985476032	-0.134952
C	 0.9982723384	-1.9417533174	 0.0086405413	-0.090462
H	 0.8185771597	 2.0687019879	 0.30457407	 0.126237
H	-0.4842701385	 1.9732858864	-0.8748005922	 0.107825
H	-0.8406975367	 1.7840686472	 0.8487891652	 0.138763
H	-1.7020718754	 0.0561564414	-0.9456196525	 0.278082
H	 1.4011927194	-0.5090599054	-1.9104162185	 0.080119
H	 3.0669447644	-0.7734025346	 0.4405748019	 0.113695
H	 2.3957115528	 0.8975614579	 0.4364080696	 0.10098
H	 0.2013853611	-3.5448489181	 1.3368620465	 0.108422
H	-1.1256712822	-2.481799853	 0.7269668131	 0.142999
H	 1.9262552304	-2.5100136145	 0.0892270108	 0.078578
166.5041	185.4465	194.2115	254.2764	314.8759	368.1238	425.217	433.8893	530.613	545.8734	617.503	662.3781	708.0888	744.6206	777.3801	841.7248	881.2798	916.4711	960.807	990.6217	1007.2967	1020.1667	1033.4636	1074.1863	1085.7271	1120.3263	1137.2625	1146.1546	1172.2942	1186.3453	1196.0702	1214.3988	1218.8626	1309.4607	1377.9674	1391.2811	1412.379	1487.5482	1493.507	1496.561	1529.8142	3021.5703	3070.3328	3079.4398	3082.5546	3092.5593	3095.6702	3143.1865	3156.9791	3182.109	3816.8559
CC1(O)C2CC11OCC21	C[C@@]1(O)[C@H]2C[C@]31OC[C@@H]23	
InChI=1S/C7H10O2/c1-6(8)4-2-7(6)5(4)3-9-7/h4-5,8H,2-3H2,1H3	InChI=1S/C7H10O2/c1-6(8)4-2-7(6)5(4)3-9-7/h4-5,8H,2-3H2,1H3/t4-,5-,6+,7-/m0/s1
