18
gdb 45258	3.05972	1.63908	1.31713	2.7055	74.78	-0.2245	-0.0227	0.2019	988.982	0.149458	-401.932591	-401.925534	-401.92459	-401.964076	28.362	
O	 0.1229441712	 0.1820626225	-1.0473780775	-0.285356
C	 0.0488911778	 1.1613769683	-0.3700396226	 0.392584
C	-1.0594597459	 1.8350624918	 0.4605665993	-0.306239
N	-0.1318973578	 2.9670473544	 0.7062947564	-0.087603
C	 0.2313885008	 3.3371581453	 2.0819423627	-0.197017
C	 1.5667179379	 2.6651636951	 2.3918994334	-0.031071
C	 1.6280829053	 1.1646046228	 2.3068139807	-0.304271
C	 2.0563795667	 1.9936122081	 1.1186335894	-0.036452
C	 1.0233096917	 2.287569931	 0.0424933609	-0.129281
H	-1.9648351009	 2.1026502926	-0.0968399537	 0.129617
H	-1.3589620606	 1.2616005275	 1.3504689173	 0.119571
H	 0.3397364571	 4.4260500618	 2.1625574509	 0.107497
H	-0.5690207522	 3.0414227962	 2.7715833813	 0.105745
H	 2.2616901768	 3.1804030393	 3.0459030514	 0.091702
H	 2.4138207151	 0.6617746142	 2.8597175767	 0.119333
H	 0.7028224526	 0.5999212818	 2.2584510237	 0.118088
H	 3.1034051875	 2.0033389412	 0.8411796226	 0.095262
H	 1.467368537	 2.8403354261	-0.793857903	 0.097893
97.5841	166.0003	260.26	362.8517	367.6454	435.4158	553.0079	594.9678	666.6312	686.5892	750.8182	792.5049	823.3515	867.9281	900.7261	945.0517	949.5291	989.2163	1039.3736	1045.5669	1060.4275	1069.7637	1079.4585	1105.1705	1115.0098	1133.2495	1193.5114	1199.0501	1222.5134	1255.5717	1277.5221	1296.1698	1329.1564	1338.0124	1391.9182	1472.1066	1491.4329	1510.1039	1911.7756	2997.5668	3017.3952	3035.5639	3050.1764	3053.9815	3133.865	3168.6857	3184.3322	3216.0418
O=C1CN2CC3CC3C12	O=C1CN2C[C@H]3C[C@H]3[C@@H]12	
InChI=1S/C7H9NO/c9-6-3-8-2-4-1-5(4)7(6)8/h4-5,7H,1-3H2	InChI=1S/C7H9NO/c9-6-3-8-2-4-1-5(4)7(6)8/h4-5,7H,1-3H2/t4-,5-,7+/m1/s1
