16
gdb 33909	4.05742	1.30329	1.18988	5.2058	74.07	-0.247	-0.0054	0.2416	1040.9694	0.126149	-396.851294	-396.844218	-396.843274	-396.882715	27.957	
N	 0.227696694	-1.1484580655	 0.1546765415	-0.340569
C	 0.1142786893	-0.0012677622	 0.0485364421	 0.200629
C	-0.0819820854	 1.4106097489	-0.0450989986	 0.224351
C	 0.2047617034	 2.2142594257	-1.2540754822	-0.282792
N	 1.0859686539	 2.4180200267	-0.0967579793	-0.176306
C	 0.36940192	 3.2384508464	 0.9651878947	 0.024332
C	-0.6461374338	 4.3388081548	 0.5734565843	-0.197646
N	-1.716916619	 3.301576521	 0.4689934889	-0.318669
C	-0.8180121826	 2.2691773132	 1.0251236677	-0.094269
H	 0.7155052836	 1.7112999435	-2.0685066768	 0.145471
H	-0.5261837886	 2.9608694277	-1.5464143914	 0.154059
H	 1.0447984143	 3.4280048547	 1.7963963793	 0.10489
H	-0.7916198365	 5.0600104019	 1.3862014592	 0.112586
H	-0.4640114911	 4.8905736782	-0.3552515726	 0.117295
H	-2.5496528963	 3.4817938424	 1.01472149	 0.232352
H	-1.1336486549	 1.7360588924	 1.9215267932	 0.094286
127.5126	148.1213	246.5827	328.3457	408.8681	461.3275	536.5904	544.1252	594.5325	661.8115	701.4889	758.3626	801.2588	870.7541	900.8036	931.916	958.233	963.4448	1005.3083	1035.9926	1088.7253	1133.7248	1135.9713	1151.844	1178.1487	1204.4202	1230.9361	1261.771	1302.2945	1333.0883	1361.8107	1383.6565	1489.1588	1510.14	2342.1336	3026.5669	3071.4584	3117.0356	3132.9183	3139.9539	3225.5496	3566.3886
N#CC12CN1C1CNC21	N#C[C@]12CN1[C@H]1CN[C@@H]21	
InChI=1S/C6H7N3/c7-2-6-3-9(6)4-1-8-5(4)6/h4-5,8H,1,3H2	InChI=1S/C6H7N3/c7-2-6-3-9(6)4-1-8-5(4)6/h4-5,8H,1,3H2/t4-,5+,6+,9?/m0/s1
