19
gdb 56592	1.94383	1.44851	1.03335	3.8091	75.21	-0.2555	0.0074	0.2628	1225.9025	0.158508	-419.185829	-419.176099	-419.175154	-419.220919	35.129	
C	 1.1886685741	 1.7415112492	 0.3177620085	-0.41432
C	 0.259262083	 0.5584402245	 0.014195872	-0.039856
C	 0.6021518534	-0.0332861699	-1.3830124978	-0.011518
O	 1.8288872721	-0.7352733626	-1.4074992678	-0.414903
C	-0.5083455058	-0.867308503	-1.8917516245	 0.265365
N	-1.3878297904	-1.5167166836	-2.2675468553	-0.325682
C	 0.3664297391	-0.4951984424	 1.1028714928	 0.007504
C	-0.6152003445	-0.5535003485	 2.2133161363	-0.24746
N	-0.5758082455	-1.6242268973	 1.2043837085	-0.329604
H	 2.2357140227	 1.4273035224	 0.2728148754	 0.140719
H	 1.0468956285	 2.5515646741	-0.4044254493	 0.120012
H	 0.9920271696	 2.1386945513	 1.3172468055	 0.126128
H	-0.7782662201	 0.9139297327	-0.0336785434	 0.092248
H	 0.7282942631	 0.7950975289	-2.0892970839	 0.137494
H	 1.7226879097	-1.5441011952	-0.8923985489	 0.308332
H	 1.3920262481	-0.7811374773	 1.3333300092	 0.097567
H	-0.2964220885	-0.8470143662	 3.2092972177	 0.123623
H	-1.4440005989	 0.1503681132	 2.1927544357	 0.116141
H	-1.3400719795	-1.5132910404	 0.5421698495	 0.248211
43.4447	88.9401	151.9207	172.0336	220.2578	231.3198	264.0494	307.0801	353.4254	379.1423	442.8547	504.4077	588.4091	678.1605	767.6809	844.844	861.5589	918.2754	960.9731	970.8861	980.4491	1025.2562	1076.8742	1084.2595	1127.1187	1143.1854	1174.6594	1234.0803	1244.9425	1269.5653	1283.9705	1306.5297	1331.495	1345.9217	1407.462	1421.866	1435.2809	1496.0874	1503.6462	1513.2172	2349.3346	3026.6059	3041.3834	3056.5733	3106.1546	3110.3369	3113.414	3121.8292	3192.1356	3506.2453	3797.4115
CC(C(O)C#N)C1CN1	C[C@@H]([C@@H](O)C#N)[C@H]1CN1	
InChI=1S/C6H10N2O/c1-4(5-3-8-5)6(9)2-7/h4-6,8-9H,3H2,1H3	InChI=1S/C6H10N2O/c1-4(5-3-8-5)6(9)2-7/h4-6,8-9H,3H2,1H3/t4-,5-,6+/m1/s1
