19
gdb 99179	5.19807	0.76048	0.70035	2.968	72.15	-0.2428	0.0093	0.2521	1608.3579	0.157865	-460.172303	-460.162592	-460.161648	-460.209056	32.825	
C	 0.0587032754	 1.3237055615	 0.192284493	-0.241193
O	-0.0588899632	-0.0766763918	-0.0933003579	-0.232457
C	 0.7608277957	-0.540912906	-1.055501923	 0.453933
O	 1.5401510846	 0.1515444975	-1.6630053486	-0.354436
C	 0.5803980675	-2.0325925492	-1.2544708919	-0.363827
C	 1.316629304	-2.5382258024	-2.4848762859	-0.007336
C	 2.8595628726	-2.5637583697	-2.4349472946	-0.068007
O	 2.8883191851	-3.9903995288	-2.6632854222	-0.273573
C	 1.4507648572	-4.068837743	-2.6509478179	-0.096661
H	 1.0687398258	 1.5642029579	 0.5336001033	 0.141775
H	-0.1612475783	 1.9181529295	-0.697910725	 0.142301
H	-0.6685927692	 1.5280252233	 0.9779113077	 0.134911
H	 0.945594983	-2.5354267155	-0.3489575865	 0.137111
H	-0.4921661261	-2.2521574362	-1.3042974812	 0.132528
H	 0.9354974841	-2.0393155238	-3.378088499	 0.091805
H	 3.3775521433	-2.0073379911	-3.2226212047	 0.111352
H	 3.2978312645	-2.2936716043	-1.4653161724	 0.097447
H	 1.0775650279	-4.6626334789	-1.8041208357	 0.093245
H	 1.0515187964	-4.4930225489	-3.5803139775	 0.101082
29.8291	61.5315	72.1015	113.0842	128.5738	182.9842	272.2071	321.4868	353.6965	443.2838	599.3283	702.5526	769.3281	878.2941	890.4079	900.3936	906.8676	981.7999	1022.1977	1037.4297	1055.7214	1107.5205	1149.0577	1156.9156	1164.7112	1178.7144	1202.166	1218.5218	1243.6763	1268.573	1310.5459	1345.6832	1380.3649	1408.2618	1456.4086	1473.8483	1481.6607	1497.093	1512.9842	1538.1289	1813.0155	2993.9532	3017.9965	3030.7914	3043.5249	3052.6755	3068.6435	3071.8618	3096.4263	3127.4861	3160.4968
COC(=O)CC1COC1	COC(=O)CC1COC1	
InChI=1S/C6H10O3/c1-8-6(7)2-5-3-9-4-5/h5H,2-4H2,1H3	InChI=1S/C6H10O3/c1-8-6(7)2-5-3-9-4-5/h5H,2-4H2,1H3
