17
gdb 50646	2.64254	1.36322	0.94502	5.6938	70.2	-0.2431	-0.0413	0.2018	1192.7772	0.137352	-455.205704	-455.197253	-455.196309	-455.239472	30.759	
O	-0.0655234337	-0.0406246305	-0.0635070406	-0.243944
C	-0.0162244667	 1.1574707257	 0.0363909945	 0.15407
C	 1.2726253616	 1.9567190129	 0.0411449563	-0.043917
C	 1.3666465862	 2.8790162849	 1.2676665117	-0.228567
C	 2.7406335947	 3.5517879978	 1.2633249351	-0.15914
N	 3.771256402	 2.5375245022	 1.1701805095	-0.34093
C	 3.6399462634	 1.3114388032	 0.5565648188	 0.445958
O	 4.5404189466	 0.4925369905	 0.5326849681	-0.41308
N	 2.4120604116	 1.0806575139	-0.0299489671	-0.349498
H	-0.9365068793	 1.7775321706	 0.1093216195	 0.090798
H	 1.2025460932	 2.606052559	-0.8542307046	 0.104558
H	 0.5744121521	 3.6327382525	 1.2393570523	 0.112506
H	 1.2505804855	 2.2865416582	 2.1815735112	 0.128363
H	 2.7934690045	 4.2694088574	 0.4289278518	 0.108094
H	 2.882911259	 4.1221439154	 2.1870310069	 0.117637
H	 4.6944424696	 2.7181070594	 1.5263934832	 0.25409
H	 2.2378071594	 0.1222669669	-0.2942363565	 0.263002
73.8174	82.9167	121.4593	214.7484	258.3842	354.1486	407.8578	436.382	481.4643	522.4303	546.0815	665.4573	699.8493	753.5616	801.8018	913.2504	943.862	959.1312	991.6521	1050.962	1110.5901	1151.8922	1198.4991	1218.305	1257.6478	1307.9773	1330.0491	1364.2204	1368.4739	1410.1558	1431.1451	1452.6594	1474.1621	1486.4102	1526.5828	1808.6138	1831.6434	2892.0055	2910.393	2972.3975	3047.6348	3067.232	3103.7105	3623.1203	3665.9779
O=CC1CCNC(=O)N1	O=C[C@H]1CCNC(=O)N1	
InChI=1S/C5H8N2O2/c8-3-4-1-2-6-5(9)7-4/h3-4H,1-2H2,(H2,6,7,9)	InChI=1S/C5H8N2O2/c8-3-4-1-2-6-5(9)7-4/h3-4H,1-2H2,(H2,6,7,9)/t4-/m1/s1
