19
gdb 52677	2.74327	0.96792	0.86112	2.48	80.27	-0.2527	0.0411	0.2938	1450.3741	0.156171	-422.981174	-422.970822	-422.969877	-423.018159	37.091	
C	 0.2094088907	 1.4183788152	 0.1197495832	-0.49965
C	 0.0818418824	-0.0299962325	 0.0393968892	 0.056293
C	-0.0322165098	-1.2294667422	 0.0045830642	 0.066681
C	-0.1760116885	-2.6921774669	-0.105350772	-0.124305
O	-1.5308685166	-3.0791579206	-0.2821311897	-0.414778
C	 0.6737869638	-3.2010331126	-1.2629594966	 0.416841
O	 0.2317004372	-2.6878749121	-2.4947998815	-0.478442
C	 2.1361022598	-3.493666309	-1.0773050589	-0.323338
C	 1.137083105	-4.618896723	-1.2919759785	-0.315461
H	 1.2070701655	 1.7489776543	-0.1893328959	 0.149463
H	-0.5210050562	 1.9176894202	-0.5262194823	 0.1514
H	 0.0437829522	 1.7731398216	 1.1427637016	 0.154525
H	 0.1553580381	-3.1650928104	 0.8261948299	 0.107693
H	-1.7378788687	-2.8778585391	-1.2043413053	 0.285408
H	 0.3888451617	-1.734343799	-2.470279458	 0.285512
H	 2.7913895129	-3.2476807358	-1.9051860729	 0.117341
H	 2.573746244	-3.364443321	-0.0929792192	 0.116181
H	 0.8835433806	-5.2601932353	-0.455271922	 0.122459
H	 1.137889056	-5.107106832	-2.2594377451	 0.126176
16.5458	62.1685	81.239	146.3793	210.1952	252.2519	287.4258	318.7159	348.1805	394.9941	410.6308	466.8072	499.377	525.4807	595.1725	764.5858	807.269	813.0897	899.4652	930.1981	963.6019	987.5399	1043.046	1052.3087	1053.9328	1059.5004	1077.1264	1150.3946	1185.6175	1225.7175	1279.0004	1301.3676	1312.2458	1394.3724	1414.2714	1434.1182	1454.691	1477.2542	1478.2484	1504.422	2359.5325	3029.003	3048.3979	3090.0825	3091.7963	3133.4387	3141.3694	3219.5389	3234.652	3754.1686	3770.1757
CC#CC(O)C1(O)CC1	CC#C[C@@H](O)C1(O)CC1	
InChI=1S/C7H10O2/c1-2-3-6(8)7(9)4-5-7/h6,8-9H,4-5H2,1H3	InChI=1S/C7H10O2/c1-2-3-6(8)7(9)4-5-7/h6,8-9H,4-5H2,1H3/t6-/m1/s1
