23
gdb 100538	2.76501	1.12878	0.89546	3.0982	84.65	-0.2245	0.053	0.2775	1417.7511	0.204023	-421.634627	-421.623247	-421.622303	-421.671191	39.915	
C	 0.0523269153	 2.8357320806	-2.4269805794	-0.380656
C	 0.6434031515	 1.7129700612	-1.5677021194	-0.140502
N	 1.1752236448	 0.5846285099	-2.3323167138	-0.115317
C	 2.4814497759	 0.773662168	-2.9424922046	-0.345621
C	 0.2601767803	-0.3595511614	-2.7618481117	 0.455698
O	-0.9463542138	-0.1765217388	-2.6745343211	-0.421521
N	 0.7930937766	-1.5247867402	-3.3156723311	-0.126844
C	-0.1649089198	-2.4024476105	-3.9705354076	-0.319256
C	 1.8972290719	-2.2295426796	-2.6774367318	-0.339711
H	 0.7895594599	 3.2499669179	-3.1227730025	 0.108806
H	-0.795016755	 2.4522191992	-2.9984610277	 0.149936
H	-0.2963122902	 3.6545270235	-1.7890544103	 0.11106
H	 1.4590590136	 2.096505584	-0.9425804235	 0.091953
H	-0.1299614323	 1.3232839331	-0.9029386413	 0.129444
H	 2.6025250236	 0.0953629367	-3.7870253684	 0.146039
H	 2.5770097562	 1.7985361166	-3.3209134407	 0.124458
H	 3.3018034604	 0.6031906356	-2.2319715014	 0.115807
H	 0.3639787669	-3.0294307516	-4.6963450661	 0.11058
H	-0.6832353385	-3.0592744143	-3.256435817	 0.115208
H	-0.9157230859	-1.8039925811	-4.4842635029	 0.149554
H	 2.4051624972	-1.5838264579	-1.9631275501	 0.14221
H	 1.5268271467	-3.1084525256	-2.1288829806	 0.119031
H	 2.6277026947	-2.5791490053	-3.4174631469	 0.119644
76.0787	83.4725	110.1299	127.6789	160.3334	173.0664	193.0487	224.3391	253.9909	279.562	338.1033	365.1938	393.4959	437.3927	561.8572	575.4254	735.3127	777.558	789.9022	880.6047	979.3362	1045.2196	1082.9632	1091.6377	1105.8588	1132.5796	1151.1415	1161.8577	1173.0192	1247.9201	1268.7571	1308.159	1369.1225	1387.1872	1405.6217	1416.9	1443.7331	1457.0165	1468.5267	1481.5356	1484.0051	1490.1635	1498.4326	1500.1316	1505.4669	1510.6047	1521.8763	1538.9546	1735.7074	2992.354	2999.1926	3003.5522	3031.2364	3039.9265	3047.1401	3053.8723	3069.7017	3096.5805	3115.903	3141.6823	3144.5986	3159.5885	3160.347
CCN(C)C(=O)N(C)C	CCN(C)C(=O)N(C)C	
InChI=1S/C6H14N2O/c1-5-8(4)6(9)7(2)3/h5H2,1-4H3	InChI=1S/C6H14N2O/c1-5-8(4)6(9)7(2)3/h5H2,1-4H3
