23
gdb 104880	2.1092	1.5259	1.14642	1.2597	80.56	-0.2505	0.0776	0.3281	1218.0536	0.20515	-425.437242	-425.427321	-425.426377	-425.472043	36.745	
C	 0.0628740703	 1.5206969499	 0.2439798076	-0.395143
C	-0.0029107613	 0.0142714674	-0.0192228693	-0.207546
C	 0.657755367	-0.4548365429	-1.3290759559	 0.375478
C	 0.5786238503	-1.989569473	-1.4361587876	-0.216634
C	 1.4581270218	-2.6205303852	-2.5190551558	-0.402658
C	 0.0937352674	 0.2740035503	-2.5765912538	-0.159339
O	 1.0161724854	 1.3261161405	-2.8174155095	-0.238486
C	 2.2597398634	 0.7954389658	-2.43893907	 0.018773
O	 2.0378570316	-0.0286888595	-1.3152278379	-0.297295
H	 1.1019508264	 1.8543799636	 0.2999322241	 0.128852
H	-0.4312251329	 2.1025521285	-0.539448199	 0.122187
H	-0.4230762488	 1.7611309557	 1.1945080868	 0.107079
H	 0.4884083648	-0.5148968872	 0.8060356994	 0.10187
H	-1.046948668	-0.3256988806	-0.0246967253	 0.09195
H	 0.8609935692	-2.4100294403	-0.4639379495	 0.103322
H	-0.4727352581	-2.2655629396	-1.5924398842	 0.096306
H	 1.3820687645	-3.7114033657	-2.4824068048	 0.113417
H	 1.1707761612	-2.3091328815	-3.5284626836	 0.114184
H	 2.5052892857	-2.3471309956	-2.3664107714	 0.13358
H	 0.0353593452	-0.3989733196	-3.4439487834	 0.096051
H	-0.8917218236	 0.7133159988	-2.4084057062	 0.116909
H	 2.7008792205	 0.2057417189	-3.2635259265	 0.082163
H	 2.928789038	 1.6186408014	-2.1681415741	 0.114978
80.7367	92.3716	109.0585	190.1845	210.7725	218.7844	253.7216	296.7342	332.5904	386.619	397.1457	541.9552	584.7119	730.462	772.6863	781.2595	794.961	898.4931	940.2664	964.9181	983.7628	999.6914	1043.1433	1051.8833	1076.5245	1093.4312	1115.5183	1161.7693	1171.4467	1188.4819	1208.2332	1247.0706	1269.692	1288.872	1340.3707	1356.9833	1375.5615	1389.759	1406.0218	1413.304	1433.4638	1471.1557	1484.7821	1494.8694	1496.73	1506.9486	1509.4479	1521.7566	1544.9176	2930.6975	3003.6819	3017.1948	3025.7705	3042.3599	3046.5697	3054.3976	3063.865	3072.0139	3103.3755	3106.1386	3110.7015	3123.6485	3125.8625
CCC1(CC)COCO1	CCC1(CC)COCO1	
InChI=1S/C7H14O2/c1-3-7(4-2)5-8-6-9-7/h3-6H2,1-2H3	InChI=1S/C7H14O2/c1-3-7(4-2)5-8-6-9-7/h3-6H2,1-2H3
