17
gdb 20004	4.00368	1.32566	1.08816	2.8147	71.76	-0.2399	-0.0286	0.2112	1087.8598	0.141037	-363.819263	-363.811435	-363.810491	-363.852049	28.771	
O	-0.050283289	-0.020476046	-0.5657309024	-0.265867
C	-0.0316928155	 1.0933906298	-0.1020171915	 0.163502
C	 1.211696283	 1.8838275209	 0.0793504958	-0.088519
C	 1.1428967221	 3.3732740428	-0.1470955535	-0.253696
N	 1.3702385869	 2.8585281799	 1.1763256019	-0.081928
C	 0.3416335189	 3.0242158574	 2.1729967793	 0.062508
C	 0.5223033468	 2.2816009492	 3.4669355584	-0.274646
C	 0.7397671818	 3.7750988011	 3.4158726067	-0.272514
H	-0.970213486	 1.6025813612	 0.209186002	 0.071917
H	 2.1182183536	 1.3463675807	-0.1852249634	 0.114112
H	 1.978599651	 3.8659051057	-0.6367439262	 0.13251
H	 0.1630807384	 3.7940868335	-0.3754897069	 0.120022
H	-0.6785871144	 3.1762097696	 1.8207763415	 0.085485
H	-0.3607960276	 1.8969804374	 3.9640609496	 0.118407
H	 1.4017510322	 1.6536058237	 3.5483915895	 0.127709
H	 1.7625718044	 4.1301806829	 3.4592056791	 0.125994
H	 0.0054124636	 4.4257892101	 3.8769968199	 0.115001
54.0532	117.4113	180.862	218.0592	311.7222	326.0432	425.0776	447.9057	572.1071	695.9796	781.1589	831.7752	865.0661	876.6276	922.0292	967.1828	991.5842	1034.6213	1059.332	1073.7435	1079.4169	1113.9473	1121.4372	1134.6214	1177.8867	1185.5533	1196.6877	1231.4954	1307.8632	1343.3039	1396.121	1446.9806	1456.5875	1494.9851	1505.8571	1813.8776	2888.5256	3083.8125	3092.2549	3140.9024	3145.2597	3154.1841	3179.075	3225.9196	3239.3746
O=CC1CN1C1CC1	O=C[C@H]1CN1C1CC1	
InChI=1S/C6H9NO/c8-4-6-3-7(6)5-1-2-5/h4-6H,1-3H2	InChI=1S/C6H9NO/c8-4-6-3-7(6)5-1-2-5/h4-6H,1-3H2/t6-,7?/m1/s1
