23
gdb 114844	2.99877	1.21999	1.15223	1.2537	83.96	-0.261	0.0776	0.3386	1203.81	0.209609	-388.310003	-388.301852	-388.300908	-388.342636	32.946	
O	-0.1739299274	 1.5306075346	 0.2558460967	-0.42538
C	 0.0341695665	 0.1325537866	 0.0884834068	-0.112703
C	-1.334441936	-0.5157280611	-0.0520800646	 0.070955
C	-2.1018663794	-0.1317528265	-1.361605309	-0.220973
C	-2.5268459105	-1.5015945638	-1.939278438	 0.004297
C	-1.2727306175	-2.2035785799	-2.5114238079	-0.203236
C	-0.4792543587	-2.612195026	-1.2276154358	-0.212371
C	-1.3618303075	-2.0654872256	-0.0808159455	-0.030736
C	-2.7754793763	-2.3170250887	-0.6507021886	-0.222796
H	 0.6855219891	 1.961059909	 0.2792264849	 0.28409
H	 0.6487359639	-0.0629781015	-0.8038051488	 0.081831
H	 0.5663430358	-0.2940732133	 0.9552592789	 0.07986
H	-1.9160049584	-0.1832433152	 0.8157447788	 0.076432
H	-2.9702313975	 0.4945419459	-1.1394440831	 0.095089
H	-1.4707587008	 0.4332042199	-2.0551422816	 0.093535
H	-3.3584334313	-1.4457411563	-2.6448119608	 0.051516
H	-1.5485719054	-3.0836708936	-3.1005656888	 0.090868
H	-0.7000856911	-1.5416287632	-3.1684052997	 0.089906
H	-0.3975133423	-3.7007739523	-1.1478616216	 0.092587
H	 0.5406411842	-2.2199084478	-1.2138118319	 0.093349
H	-1.1474410894	-2.5187653139	 0.8900501919	 0.05067
H	-3.572796937	-1.9057022154	-0.0236347257	 0.088237
H	-2.982807183	-3.375668092	-0.8384972267	 0.084972
98.3391	115.0198	202.9628	266.8475	305.0443	355.6266	417.3157	460.6768	472.2385	550.3563	759.8677	765.0008	808.8526	817.6697	838.3118	881.2128	914.5414	938.1238	957.7475	965.6027	973.4733	982.3167	1022.1938	1050.136	1067.6842	1086.3589	1121.3329	1134.3462	1145.1223	1173.7626	1194.157	1225.0989	1253.4344	1264.6358	1270.1033	1281.569	1291.3924	1308.8907	1327.539	1333.961	1349.0148	1355.3881	1380.0807	1458.1503	1489.2184	1493.8838	1501.404	1521.6076	1524.233	2957.7027	2992.5261	3033.8671	3041.5765	3043.6181	3048.2523	3053.796	3077.881	3082.3866	3087.1339	3092.1384	3095.1657	3101.0557	3828.62
OCC1CC2CCC1C2	OC[C@H]1C[C@H]2CC[C@@H]1C2	
InChI=1S/C8H14O/c9-5-8-4-6-1-2-7(8)3-6/h6-9H,1-5H2	InChI=1S/C8H14O/c9-5-8-4-6-1-2-7(8)3-6/h6-9H,1-5H2/t6-,7+,8+/m0/s1
