21
gdb 71583	2.6279	1.68526	1.58899	0.2844	87.42	-0.2273	0.0203	0.2475	1000.3266	0.184953	-349.931918	-349.924528	-349.923584	-349.963172	30.958	
C	-0.0255906533	 1.4863641948	-0.0361545195	-0.519899
C	 0.0231821434	-0.0176248786	-0.0483491587	 0.334853
C	 0.6993749092	-0.9521579195	-1.0881533217	-0.280494
C	 0.060584485	-1.9035395294	-0.0471132126	-0.06428
C	 0.6150375083	-0.9576397309	 1.0652738733	-0.01568
C	-0.0381006149	-0.9672489803	 2.4455573907	-0.310244
C	-1.5387059497	-0.9953827347	 2.3412131868	-0.0711
C	-2.0944181156	-1.0089280564	 1.1307948308	-0.089164
C	-1.2129353814	-0.9960791633	-0.0807443686	-0.054233
H	 0.9794756232	 1.9142513095	 0.0529975967	 0.115358
H	-0.475144767	 1.8755509208	-0.9566048279	 0.116236
H	-0.6231678872	 1.8490351973	 0.8075896927	 0.122975
H	 0.2631414801	-0.9603765913	-2.0919087066	 0.082661
H	 1.7929268617	-0.9295499743	-1.1270023628	 0.083219
H	 0.0715105523	-2.9947665804	-0.0457441022	 0.06457
H	 1.7083761285	-0.9339688909	 1.1380099818	 0.053644
H	 0.3214436022	-1.8315035959	 3.0233224431	 0.106214
H	 0.2876522979	-0.0853965113	 3.0172929538	 0.105422
H	-2.1305359856	-1.0039729923	 3.2519127072	 0.084976
H	-3.1719947794	-1.0271130512	 0.9962574138	 0.082552
H	-1.7660866576	-1.0067947918	-1.0241987701	 0.052413
174.5929	193.2575	203.1177	314.8708	365.9679	439.6912	474.8979	536.2514	588.3081	615.3772	709.434	770.7978	785.4389	796.0928	846.3212	902.2438	929.7124	945.6186	972.834	988.7262	996.4358	1014.3545	1021.6301	1076.8283	1083.9108	1099.9607	1117.3958	1145.3444	1165.111	1190.5691	1205.9405	1214.9738	1237.4509	1252.9066	1315.6503	1326.5802	1360.5057	1401.1989	1408.768	1425.0977	1469.3829	1488.1614	1491.5915	1520.507	1712.7697	2993.8467	3013.3308	3022.6971	3036.001	3041.0016	3064.841	3088.8699	3092.4445	3097.2646	3100.8406	3156.6553	3180.5025
CC12CC3C1CC=CC23	C[C@@]12C[C@H]3[C@@H]1CC=C[C@@H]23	
InChI=1S/C9H12/c1-9-5-6-7(9)3-2-4-8(6)9/h2-3,6-8H,4-5H2,1H3	InChI=1S/C9H12/c1-9-5-6-7(9)3-2-4-8(6)9/h2-3,6-8H,4-5H2,1H3/t6-,7-,8+,9+/m1/s1
