17
gdb 40112	3.17032	1.56862	1.19521	2.7816	72.98	-0.2328	0.018	0.2508	1022.9424	0.137968	-417.956075	-417.948982	-417.948038	-417.98757	28.094	
C	-0.0525425736	 1.5529580954	 0.1055522347	-0.244748
O	 1.177454827	 0.8156567706	 0.1459944132	-0.277503
C	-0.0291472885	 0.0892180714	 0.0070313506	 0.404591
C	-0.4916660467	-0.8545016558	 1.1587378482	-0.241481
N	-1.6236327892	-1.635468109	 0.5937101881	-0.313401
C	-1.4286708463	-1.5752504049	-0.6600475926	 0.377925
N	-2.1564510017	-1.6734476225	-1.8434231019	-0.360945
C	-1.3919596663	-0.4863062682	-2.3736449217	-0.203298
C	-0.3331074735	-0.7306653578	-1.2417297058	-0.207985
H	-0.3450491433	 2.0254076873	 1.0422400035	 0.119708
H	-0.2007733315	 2.157495067	-0.7883591251	 0.115182
H	 0.3384825237	-1.4999380802	 1.4763977051	 0.116753
H	-0.8292878149	-0.2979998646	 2.0378131156	 0.113491
H	-3.1701091433	-1.6737040682	-1.809933438	 0.243414
H	-1.0477107327	-0.6125051055	-3.4016665682	 0.123427
H	-1.9385433178	 0.455863188	-2.2636536865	 0.117795
H	 0.5506967986	-1.261770833	-1.6020025492	 0.117076
101.5244	210.0632	274.3405	293.9246	352.4853	439.5708	482.6145	503.4674	645.7142	720.6604	728.992	817.0522	858.3673	890.1146	912.3417	930.2288	944.7903	982.3461	1010.2953	1038.719	1075.1091	1126.665	1131.2061	1157.4646	1166.7936	1178.5915	1207.1649	1217.9536	1291.9652	1314.1037	1322.1547	1362.3409	1423.3786	1494.5616	1502.7156	1530.497	1760.8942	3018.8954	3048.4867	3080.9628	3085.4453	3090.792	3121.3163	3169.1412	3544.6824
C1OC11CN=C2NCC12	C1O[C@]21C[N][C]1NC[C@@H]21	
InChI=1S/C6H8N2O/c1-4-5(7-1)8-2-6(4)3-9-6/h4H,1-3H2,(H,7,8)	InChI=1S/C6H8N2O/c1-4-5(7-1)8-2-6(4)3-9-6/h4H,1-3H2,(H,7,8)/t4-,6+/m1/s1
