17
gdb 96985	3.99187	1.40136	1.27172	3.5641	74.86	-0.2464	0.0273	0.2737	1032.1234	0.137247	-417.969995	-417.962725	-417.961781	-418.002135	27.87	
C	 0.0461241217	 1.4430136336	-0.0213060086	-0.332424
N	 0.1113887355	-0.0082234723	-0.0155798798	-0.327142
C	 0.5868381642	-0.5985287452	 0.9818487576	 0.469168
O	 1.1106965772	-0.0069818997	 2.1171907306	-0.25492
C	 1.2209761957	-1.0525294448	 3.0847401702	 0.053266
C	-0.1972627378	-1.6221138575	 3.3916519287	-0.260706
C	 0.0557002687	-2.6449044213	 2.2773562885	-0.053979
C	 1.5122939057	-2.3263731268	 2.2492662025	-0.062818
N	 0.6967141822	-2.0232250364	 1.0792269468	-0.165647
H	 0.7478903831	 1.831480374	-0.7689152201	 0.128452
H	-0.9557512045	 1.7506895997	-0.3394497041	 0.124711
H	 0.2728011673	 1.910245711	 0.9440006615	 0.120532
H	 1.8665709289	-0.7276928029	 3.8963648021	 0.101269
H	-0.2341025137	-2.1144312888	 4.3669971189	 0.117683
H	-1.0332327497	-0.9243501264	 3.291036196	 0.118476
H	-0.4593985842	-3.5818421791	 2.1072982875	 0.113998
H	 2.4071822896	-2.9296759971	 2.1659966917	 0.110083
73.2856	107.8952	229.0392	249.2773	397.5203	441.8628	495.6979	677.708	688.7298	701.5751	786.947	832.6488	850.2145	875.725	903.1433	918.6881	961.9539	991.0296	1012.5858	1037.2806	1073.8208	1097.2659	1107.396	1134.1229	1149.1165	1172.6041	1180.8149	1219.2853	1265.4066	1273.2598	1341.7173	1345.1647	1440.2448	1482.9952	1493.9074	1498.3955	1819.9692	3016.0856	3058.4701	3077.017	3088.1428	3117.105	3160.273	3193.4276	3205.8431
CN=C1OC2CC3C2N13	CN=C1O[C@H]2C[C@@H]3[C@H]2N13	
InChI=1S/C6H8N2O/c1-7-6-8-3-2-4(9-6)5(3)8/h3-5H,2H2,1H3	InChI=1S/C6H8N2O/c1-7-6-8-3-2-4(9-6)5(3)8/h3-5H,2H2,1H3/t3-,4+,5-,8?/m1/s1
