21
gdb 41356	2.67378	1.83077	1.63854	1.8948	80.14	-0.2382	0.0655	0.3037	950.2907	0.186846	-387.054441	-387.047726	-387.046782	-387.085028	29.21	
C	 0.0785901849	 1.5141896774	 0.2666707418	-0.177398
O	 1.4933125474	 1.4173995663	-0.105217823	-0.368333
C	 1.1482486282	 0.2496925409	-0.9020597099	 0.476051
C	 0.6300229605	 0.640463378	-2.3210207893	-0.270062
C	-0.7702283331	-0.0392510661	-2.3942952119	-0.207279
C	-0.7741268509	-0.8909341455	-1.114293374	-0.072449
C	 0.4085261185	-1.9426005575	-1.2339466862	-0.207259
C	 1.7668492293	-1.1374325208	-0.9860072864	-0.313642
C	-0.101010823	 0.0080993508	-0.0731741223	-0.01563
H	-0.0390619246	 1.7986335394	 1.3151817576	 0.109475
H	-0.4572975573	 2.2254487202	-0.3729727475	 0.103057
H	 0.5737776008	 1.7260379607	-2.4188656775	 0.109526
H	 1.307225938	 0.2801458873	-3.0998257252	 0.095815
H	-1.5760588999	 0.7017577386	-2.3737418926	 0.095081
H	-0.9075297149	-0.6434648654	-3.2959219337	 0.093871
H	-1.7297408181	-1.3623166718	-0.8766300537	 0.059071
H	 0.2953957894	-2.7283460745	-0.4827377808	 0.105808
H	 0.3982933928	-2.4267245333	-2.2143519565	 0.10182
H	 2.4859155534	-1.281774636	-1.7971095052	 0.095903
H	 2.2354698313	-1.4375778454	-0.045570534	 0.105305
H	 0.1394510772	-0.5569400432	 0.8319553604	 0.08127
181.2919	287.8059	312.1911	369.7632	400.8692	467.1292	540.3263	588.689	676.1251	729.2193	793.5809	808.4167	816.9574	859.8883	871.1306	885.3613	927.4198	941.8721	963.6596	994.6892	1001.347	1043.5496	1052.093	1080.1497	1101.7496	1117.1655	1158.6185	1171.0596	1194.1665	1209.2202	1227.9377	1249.2549	1265.7875	1276.2547	1292.5515	1312.0584	1322.5352	1333.1855	1350.7629	1399.8008	1483.434	1494.04	1501.9626	1513.3896	1525.6301	3029.8929	3043.4666	3053.3127	3060.0386	3062.7561	3065.7299	3083.417	3092.5646	3097.3221	3100.9979	3114.19	3118.2577
C1OC23CCC(CC2)C13	C1O[C@@]23CC[C@@H](CC2)[C@H]13	
InChI=1S/C8H12O/c1-3-8-4-2-6(1)7(8)5-9-8/h6-7H,1-5H2	InChI=1S/C8H12O/c1-3-8-4-2-6(1)7(8)5-9-8/h6-7H,1-5H2/t6-,7-,8-/m0/s1
