19
gdb 88171	2.46054	1.43732	1.09383	1.6973	71.22	-0.242	0.0531	0.2951	1162.0749	0.158095	-460.141137	-460.132164	-460.13122	-460.174978	33.308	
C	-0.0910137729	 1.5216022177	-0.0745087962	-0.4251
C	-0.0880817748	 0.0250179594	 0.1010419587	 0.010249
O	 1.1677884996	-0.6537170687	-0.0866725987	-0.302723
C	 0.5832315317	-0.651669086	 1.215855867	 0.367628
C	 1.3149504002	 0.0483591861	 2.359644769	-0.16288
O	 1.4477308083	-0.9269944978	 3.389741247	-0.247887
C	 0.3158785437	-1.776507721	 3.2928197976	-0.118056
C	 0.1094691449	-1.9911633878	 1.7824332118	 0.003818
O	-1.2271582583	-2.2656420316	 1.405355516	-0.425279
H	 0.7762054107	 1.9844515872	 0.4033420077	 0.126315
H	-0.0705934221	 1.7791552359	-1.1384391523	 0.131485
H	-1.0005324044	 1.9541467496	 0.3563871296	 0.125888
H	-0.9327144234	-0.5013153872	-0.3416657384	 0.107346
H	 2.3119729903	 0.3833360914	 2.0644207288	 0.125874
H	 0.741614997	 0.9155666028	 2.7247718954	 0.096895
H	 0.5317571495	-2.6904692622	 3.8519807128	 0.106403
H	-0.5906843321	-1.3068461137	 3.7100314519	 0.095504
H	 0.7917072564	-2.7689360223	 1.413006511	 0.092996
H	-1.3898178446	-3.2048218518	 1.5321722713	 0.291522
56.2468	156.6609	177.4917	199.9933	225.4615	234.7925	281.6659	378.4453	445.9478	475.2204	520.9541	552.2458	618.5552	749.4265	789.656	896.9683	946.6256	959.9615	1002.8122	1032.5347	1056.3156	1084.3223	1111.8083	1120.4217	1129.5541	1163.5075	1206.1761	1216.0801	1246.7896	1267.5117	1316.4038	1321.7035	1355.224	1380.2404	1409.4184	1435.8597	1472.7661	1488.3905	1500.2636	1515.233	1516.1282	2968.8727	2975.9704	3014.9277	3037.8361	3096.8894	3100.8282	3101.8102	3115.0807	3134.3292	3833.1893
CC1OC11COCC1O	C[C@H]1O[C@]21COC[C@H]2O	
InChI=1S/C6H10O3/c1-4-6(9-4)3-8-2-5(6)7/h4-5,7H,2-3H2,1H3	InChI=1S/C6H10O3/c1-4-6(9-4)3-8-2-5(6)7/h4-5,7H,2-3H2,1H3/t4-,5-,6+/m1/s1
