15
gdb 16119	4.45893	1.65637	1.45627	3.7852	65.49	-0.2551	0.0284	0.2834	864.0104	0.120769	-362.665786	-362.659123	-362.658179	-362.69655	25.473	
N	-0.0875662959	-1.139413869	-0.3988520902	-0.346886
C	-0.0463224451	-0.0030602936	-0.1817737497	 0.20316
C	 0.0040722469	 1.401749411	 0.084569863	 0.151549
C	 0.3651898087	 2.3759361829	-1.0419277022	-0.361616
C	 1.3130215892	 2.1860921634	 0.1024528939	 0.0969
O	 1.3103420695	 3.0851907183	 1.1642977186	-0.246603
C	-0.0416970147	 3.2767221731	 1.5888915655	-0.101317
C	-0.8023071014	 1.9750211938	 1.2484181563	-0.302832
H	 0.6438658367	 1.9293438993	-1.9892105754	 0.144513
H	-0.2096595481	 3.2917354459	-1.1231401253	 0.132182
H	 2.2768577349	 1.7156731558	-0.046289617	 0.132745
H	-0.025784035	 3.5016300592	 2.6573824146	 0.127284
H	-0.4834545496	 4.1354968907	 1.0671225273	 0.110878
H	-1.8483925152	 2.167625405	 0.9973974661	 0.125265
H	-0.7753282708	 1.2684967142	 2.0823285044	 0.134776
144.7982	164.8789	241.2665	304.2966	439.1053	493.7816	553.5143	572.3519	682.9154	699.8574	837.1703	844.2621	888.4955	931.8362	961.2755	1008.8995	1024.0159	1045.8502	1081.4249	1101.8306	1182.0388	1215.2491	1236.9169	1248.6901	1265.1255	1323.2458	1370.9173	1410.8542	1474.9511	1496.0079	1530.4966	2347.4552	3020.2113	3065.9088	3103.3035	3117.1831	3143.1008	3203.0491	3234.9857
N#CC12CC1OCC2	N#C[C@]12C[C@H]1OCC2	
InChI=1S/C6H7NO/c7-4-6-1-2-8-5(6)3-6/h5H,1-3H2	InChI=1S/C6H7NO/c7-4-6-1-2-8-5(6)3-6/h5H,1-3H2/t5-,6+/m1/s1
