17
gdb 79102	2.55488	2.11355	1.58526	3.7785	71.73	-0.2444	0.0217	0.2661	892.3441	0.137684	-417.96681	-417.95986	-417.958915	-417.997934	28.026	
C	 0.0015175278	 1.5872967061	 0.1059285468	-0.418058
C	 0.0959637246	 0.079331057	-0.0338451241	 0.041484
C	 0.7497205894	-0.5663599152	-1.2487321777	-0.14216
C	 2.2635560311	-0.603342222	-1.0552337574	 0.071258
O	 2.8822618954	 0.2973260525	-0.1524535146	-0.243433
C	 2.2233419156	 0.1409997718	 1.0578562375	 0.431147
N	 2.5399354982	 0.7064212185	 2.1351274576	-0.544352
N	 1.0770385269	-0.7003963637	 0.8786804069	-0.193791
C	 1.4234124949	-1.5551358858	-0.3031841045	-0.068507
H	 0.9369283027	 2.0884809162	-0.1521076489	 0.137622
H	-0.7795536538	 1.9580655694	-0.5663050827	 0.118293
H	-0.2707833494	 1.8612642684	 1.1294859158	 0.146226
H	-0.8820393758	-0.3730760648	 0.1517328424	 0.102666
H	 0.3011787581	-0.7424306805	-2.2197456579	 0.098528
H	 2.9008728219	-0.8886164183	-1.8809224834	 0.123575
H	 3.3608651751	 1.2962834265	 1.993377338	 0.228441
H	 1.4685995072	-2.6340557761	-0.2422609235	 0.11106
138.2485	186.5545	228.2811	291.6705	443.0471	449.3098	560.1467	621.1558	718.9049	736.6435	767.2216	789.7057	816.2821	842.8114	877.998	910.6202	922.9518	962.19	995.6446	1011.5882	1025.1688	1054.4593	1058.7834	1099.7977	1101.3824	1148.1437	1160.9886	1222.2469	1242.8779	1294.745	1327.4875	1383.7196	1409.2614	1414.1616	1487.2752	1497.8948	1789.2456	3042.9937	3065.5086	3110.9797	3133.6129	3179.1854	3204.2481	3222.9129	3488.2365
CC1C2C3OC(=N)N1C23	C[C@H]1[C@H]2[C@H]3O[C]([NH])N1[C@@H]23	
InChI=1S/C6H8N2O/c1-2-3-4-5(3)9-6(7)8(2)4/h2-5,7H,1H3	InChI=1S/C6H8N2O/c1-2-3-4-5(3)9-6(7)8(2)4/h2-5,7H,1H3/t2-,3+,4-,5+/m0/s1
