17
gdb 26452	4.22273	1.05022	0.85734	5.3576	78.16	-0.1999	0.0212	0.2211	1293.1604	0.137471	-418.063319	-418.05487	-418.053926	-418.097003	31.155	
C	-0.214376078	 1.4329499899	-0.0096086963	-0.353374
N	-0.0064566757	-0.0069054203	 0.0192698544	-0.173251
C	 0.2345806665	-0.6171058535	 1.2220640557	 0.144203
O	 0.2211164018	-0.061339718	 2.3011447578	-0.348199
C	 0.0110360915	-0.7161866723	-1.195730417	 0.33692
C	 0.2243080579	-0.1577465024	-2.4404518821	-0.179226
N	 0.1506317765	-1.1739145035	-3.36407085	-0.241661
C	-0.1051772009	-2.3592673455	-2.7357591605	-0.059503
C	-0.2056756013	-2.1155625589	-1.3861631092	-0.254806
H	 0.6406067004	 1.9466957143	-0.4661389632	 0.12583
H	-1.1146600218	 1.670666514	-0.5844241172	 0.129322
H	-0.3232371987	 1.7715926762	 1.0198708072	 0.167795
H	 0.4522022216	-1.6920356009	 1.1049077775	 0.085258
H	 0.4218652635	 0.8572961253	-2.7383159551	 0.121672
H	 0.2508455929	-1.0529861058	-4.35579569	 0.266029
H	-0.2080931741	-3.276934383	-3.2915079502	 0.125995
H	-0.435364402	-2.8503524356	-0.632224092	 0.106994
41.6671	123.7466	170.8071	193.6694	314.4763	326.7781	375.727	447.5086	454.0271	462.6031	632.0924	641.2869	686.3771	755.7337	804.4734	817.2571	902.4426	932.3278	1022.5317	1029.4999	1092.9751	1102.1142	1158.1463	1171.8614	1180.1773	1262.7223	1347.4839	1364.3289	1422.8461	1440.5204	1441.5599	1480.2821	1496.1864	1517.9569	1534.466	1622.6924	1787.9256	2993.3724	3024.0502	3085.61	3165.1972	3259.8711	3278.039	3282.8884	3694.6184
CN(C=O)C1=CNC=C1	CN(C=O)c1c[nH]cc1	
InChI=1S/C6H8N2O/c1-8(5-9)6-2-3-7-4-6/h2-5,7H,1H3	InChI=1S/C6H8N2O/c1-8(5-9)6-2-3-7-4-6/h2-5,7H,1H3
