15
gdb 50875	6.20043	0.62241	0.5747	2.4404	69.35	-0.2611	-0.0294	0.2318	1780.1318	0.109829	-453.956018	-453.94653	-453.945586	-453.992482	31.558	
N	-0.0392908394	 1.5143676265	-0.0942425723	-0.515894
C	 0.0548590953	 0.2533225322	-0.1054577221	 0.435065
C	-1.1577623229	-0.6295942091	-0.2319655796	-0.376464
C	-2.4634055144	 0.1345170361	-0.0723415357	 0.183343
O	-3.4158963075	-0.0333946481	-0.7855135755	-0.237854
O	 1.179573165	-0.5212643671	-0.0247679007	-0.233446
C	 2.4245140898	 0.1558942841	 0.0573809036	-0.238231
C	 3.4874152419	-0.8463914884	 0.1210106297	 0.280113
N	 4.3523324627	-1.6084690912	 0.1745022582	-0.276942
H	 0.8445697451	 2.011849588	-0.011911793	 0.232892
H	-1.1558077145	-1.1444948634	-1.1975331141	 0.158925
H	-1.1089866092	-1.4076987795	 0.5420783636	 0.153801
H	-2.4838586503	 0.8443788498	 0.778516225	 0.10094
H	 2.5832825677	 0.7965431145	-0.8202963117	 0.16786
H	 2.4719954008	 0.7873943855	 0.9546188045	 0.165894
31.4065	61.5268	70.9577	116.2722	144.7647	232.2903	310.55	356.7246	386.8392	460.164	537.2101	567.8361	662.8133	786.9415	855.3765	921.5304	970.7962	1013.0635	1039.7188	1053.9193	1064.2716	1125.7649	1204.5165	1239.1591	1255.4691	1348.4171	1408.9231	1427.2579	1438.8349	1495.907	1740.1567	1841.3901	2379.6663	2937.8845	3015.3864	3034.6329	3054.5623	3097.8724	3518.5565
N=C(CC=O)OCC#N	N=C(CC=O)OCC#N	
InChI=1S/C5H6N2O2/c6-2-4-9-5(7)1-3-8/h3,7H,1,4H2	InChI=1S/C5H6N2O2/c6-2-4-9-5(7)1-3-8/h3,7H,1,4H2
