16
gdb 130425	3.23559	1.05244	0.82896	3.0236	66.85	-0.2561	-0.0253	0.2308	1351.6349	0.124861	-471.192081	-471.183209	-471.182265	-471.226938	30.853	
N	-0.0926409862	 1.153759272	-0.6031010016	-0.50643
C	-0.1284619226	-0.0172227287	 0.2665519454	-0.279634
C	-1.4771127198	-0.6569605197	 0.2075719686	 0.460974
N	-2.3052122086	-0.683759922	-0.7927124734	-0.376504
C	-3.339549635	-1.4475973549	-0.2930813016	 0.343716
C	-4.555932417	-1.7387935293	-1.1206925867	-0.165944
O	-4.2041809717	-2.1334920561	-2.4301672417	-0.409275
N	-3.1635234217	-1.8713434488	 0.9268838634	-0.176046
O	-1.9105696187	-1.3314031641	 1.274963186	-0.201509
H	 0.8652049951	 1.4698438729	-0.7107461432	 0.237099
H	-0.4323614751	 0.8982307773	-1.5251196114	 0.247424
H	 0.6109094182	-0.8026544134	 0.0239229166	 0.124578
H	 0.067211685	 0.2809129717	 1.3023202883	 0.144845
H	-5.1226673282	-2.5544851648	-0.6662227179	 0.142831
H	-5.1989669984	-0.8438241154	-1.1246110469	 0.115609
H	-3.5709247955	-1.4840350667	-2.7581986939	 0.298267
43.1969	74.923	133.8322	151.2513	206.9864	292.001	310.7337	381.4534	429.9322	472.7096	628.5664	697.5462	711.1153	807.8195	853.4264	909.4564	994.3515	1020.0946	1030.3029	1056.0342	1081.0207	1102.6154	1176.3129	1215.0323	1278.1543	1298.2961	1366.4092	1374.7204	1431.8164	1451.0897	1496.4755	1498.7165	1567.7111	1625.2025	1655.2992	2934.5834	2977.5053	3067.6171	3111.4981	3505.9486	3589.3326	3796.4019
NCC1=NC(CO)=NO1	NCc1nc(CO)no1	
InChI=1S/C4H7N3O2/c5-1-4-6-3(2-8)7-9-4/h8H,1-2,5H2	InChI=1S/C4H7N3O2/c5-1-4-6-3(2-8)7-9-4/h8H,1-2,5H2
