19
gdb 40006	3.2746	1.59061	1.49299	1.589	78.32	-0.2416	0.0118	0.2534	967.7609	0.161681	-385.870823	-385.863991	-385.863046	-385.901737	28.882	
C	-0.0036000719	 1.5146372987	-0.0042727186	-0.329293
C	 1.2975303267	 0.7404561674	-0.0099692744	-0.33546
C	-0.0171039658	 0.0143909651	 0.0132591922	 0.431611
C	-0.4720719181	-0.8431108714	 1.2084735387	-0.322119
C	-1.132286976	-2.0407222424	 0.4438050502	 0.022031
O	-0.2649087579	-2.1589865326	-0.6927926131	-0.244851
C	-0.4887890851	-0.8337355826	-1.1920127709	-0.078263
C	-2.0149007163	-0.756211258	-1.2128206038	-0.070288
C	-2.4155884263	-1.5104363649	-0.1897110523	-0.083205
H	-0.2830747141	 2.0419203434	 0.9022351381	 0.110511
H	-0.2964203661	 2.0248875084	-0.9171623778	 0.107057
H	 1.8785165528	 0.7248933768	-0.9270217802	 0.110762
H	 1.8974088539	 0.7412922011	 0.8945173597	 0.110968
H	 0.3801709803	-1.1960736295	 1.7954341266	 0.106925
H	-1.1719818156	-0.3329653988	 1.8754509548	 0.100501
H	-1.1853375376	-2.982354709	 0.9886451774	 0.079711
H	 0.0459377001	-0.6706714672	-2.1277368761	 0.076025
H	-2.6036289583	-0.1238135653	-1.8626401858	 0.104528
H	-3.4130962947	-1.6464121794	 0.2051416555	 0.102849
121.889	244.1898	285.2955	368.0123	410.1963	503.0645	527.4324	618.5395	723.205	764.5148	775.8077	805.2042	845.5605	866.8717	887.8878	908.0347	912.2699	921.4866	934.6345	965.3803	978.3511	986.5298	1039.1159	1049.0725	1057.7083	1079.61	1114.9323	1168.5691	1185.1001	1198.795	1226.8571	1261.203	1270.2695	1293.0183	1327.729	1339.5728	1380.1675	1468.508	1487.5745	1506.4025	1641.394	3056.2674	3104.3132	3119.0148	3120.4351	3123.4742	3130.3157	3195.6082	3210.6965	3216.9346	3242.8593
C1CC11CC2OC1C=C2	C1CC21C[C@@H]1O[C@H]2C=C1	
InChI=1S/C8H10O/c1-2-7-8(3-4-8)5-6(1)9-7/h1-2,6-7H,3-5H2	InChI=1S/C8H10O/c1-2-7-8(3-4-8)5-6(1)9-7/h1-2,6-7H,3-5H2/t6-,7+/m1/s1
