20
gdb 100339	2.12994	1.21741	1.04401	3.9528	75.19	-0.2685	0.0333	0.3019	1268.3649	0.168199	-440.289676	-440.279199	-440.278254	-440.325057	37.788	
C	 0.1154697147	 1.3136905659	 0.1129275986	-0.253585
O	-0.100562656	-0.0589050903	-0.1646053686	-0.28757
C	-1.4321541406	-0.5773519222	-0.018610859	 0.306448
C	-2.1575174956	-0.0731392415	 1.2289812758	-0.455706
C	-2.2148837899	-0.2318424899	-1.3016888582	-0.080056
O	-1.5177035148	-0.641469584	-2.457797901	-0.422649
C	-1.218398388	-2.1090673823	 0.0362659169	-0.352281
C	-0.4132515014	-2.5303632828	 1.178481381	 0.27545
N	 0.2060261286	-2.8658882058	 2.0944800708	-0.320269
H	 1.1535522814	 1.516890453	-0.1595759433	 0.139314
H	-0.5351100466	 1.9747266705	-0.4763820872	 0.11303
H	-0.0171813006	 1.54514607	 1.1762313713	 0.127378
H	-2.3591299459	 0.9997373026	 1.1738967261	 0.125133
H	-3.1198164122	-0.5843772056	 1.3292630908	 0.127493
H	-1.5711337748	-0.2743745469	 2.1294034712	 0.156063
H	-3.1836486385	-0.7424011337	-1.3063261632	 0.110936
H	-2.417166521	 0.8511980139	-1.3138977745	 0.091527
H	-0.6055564515	-0.3499387758	-2.3279304863	 0.289436
H	-2.1886350166	-2.615071696	 0.0805205943	 0.146667
H	-0.7320679906	-2.4225853293	-0.8912961954	 0.163243
71.5912	93.8736	121.1886	159.1606	202.239	220.0029	256.7416	290.8193	325.3247	363.8351	388.0048	396.9938	444.25	482.73	553.1797	631.188	739.0749	855.0605	880.2081	920.9327	969.9678	1002.8139	1090.0467	1098.6705	1121.4318	1179.2125	1186.0661	1194.1403	1214.2496	1267.707	1279.5138	1337.724	1374.7513	1410.2024	1432.2549	1458.1115	1477.0121	1487.6399	1489.7457	1505.4981	1508.463	1514.8965	2363.8728	2978.6327	3003.1857	3046.7373	3059.9983	3066.326	3074.9836	3109.5845	3115.694	3122.126	3127.962	3765.4109
COC(C)(CO)CC#N	CO[C@@](C)(CO)CC#N	
InChI=1S/C6H11NO2/c1-6(5-8,9-2)3-4-7/h8H,3,5H2,1-2H3	InChI=1S/C6H11NO2/c1-6(5-8,9-2)3-4-7/h8H,3,5H2,1-2H3/t6-/m1/s1
