15
gdb 66305	2.41438	1.52905	1.26322	2.5805	63.15	-0.2493	-0.0659	0.1834	1021.2929	0.110653	-494.915211	-494.906988	-494.906044	-494.948282	30.004	
O	 0.1308545288	 1.5140604867	 0.1084005683	-0.463169
C	-0.0087058815	 0.1385119093	-0.0198284428	 0.199916
C	-1.4686083835	-0.3353065239	-0.2072929045	-0.153212
O	-1.3716160223	-1.5455885236	-0.9465781717	-0.246262
C	-0.3948719767	-1.3572420134	-1.9560788181	-0.189619
C	 0.6233133743	-0.392079027	-1.3565371444	 0.321314
O	 1.6733394009	-0.047318633	-1.8134264833	-0.280432
C	 0.6342689394	-0.5774023718	 1.1523782259	 0.116229
O	 1.2862973058	 0.0295440817	 1.9664733367	-0.268198
H	 0.7571769429	 1.6499538848	 0.8384221459	 0.302391
H	-1.9930259545	-0.5574409302	 0.7244143526	 0.130446
H	-2.0181761373	 0.4477208137	-0.7497488661	 0.126426
H	 0.0515575714	-2.3206774056	-2.216199879	 0.149075
H	-0.8198623042	-0.9103019903	-2.8695342303	 0.135732
H	 0.4659334066	-1.6689581774	 1.2174334508	 0.119362
78.3915	111.0888	196.6075	225.8588	287.7438	309.9147	355.2898	431.7075	477.8048	540.3214	572.4971	636.2004	672.8664	806.2294	851.4788	953.2479	964.5933	992.1737	1064.0102	1091.7808	1100.422	1142.5333	1195.5873	1238.9702	1264.4763	1322.2137	1372.1424	1378.9257	1430.5271	1474.5135	1510.9347	1796.7529	1879.4182	2961.5845	2983.6024	3008.6062	3099.4494	3110.6675	3680.0957
OC1(COCC1=O)C=O	O[C@]1(COCC1=O)C=O	
InChI=1S/C5H6O4/c6-2-5(8)3-9-1-4(5)7/h2,8H,1,3H2	InChI=1S/C5H6O4/c6-2-5(8)3-9-1-4(5)7/h2,8H,1,3H2/t5-/m0/s1
